DFM.pdb
     RDKit          3D

 28 28  0  0  1  0  0  0  0  0999 V2000
   10.4012  -17.4345   18.7036 N   0  0  0  0  0  0  0  0  0  0  0  0
   10.3748  -17.9131   20.0526 C   0  0  1  0  0  0  0  0  0  0  0  0
   11.5960  -18.7508   20.3134 C   0  0  0  0  0  0  0  0  0  0  0  0
   11.8187  -19.8206   19.3305 C   0  0  0  0  0  0  0  0  0  0  0  0
   10.9983  -20.7733   19.3130 O   0  0  0  0  0  0  0  0  0  0  0  0
   10.3036  -16.7843   21.0154 C   0  0  0  0  0  0  0  0  0  0  0  0
   11.2082  -15.9299   21.1462 O   0  0  0  0  0  0  0  0  0  0  0  0
   12.8512  -19.8849   18.4144 O   0  0  0  0  0  0  0  0  0  0  0  0
    9.1384  -16.6666   21.8437 N   0  0  0  0  0  0  0  0  0  0  0  0
    8.9691  -15.5536   22.7538 C   0  0  1  0  0  0  0  0  0  0  0  0
    7.6104  -15.6246   23.3820 C   0  0  0  0  0  0  0  0  0  0  0  0
    7.2468  -14.5309   24.2732 C   0  0  0  0  0  0  0  0  0  0  0  0
    6.4080  -14.6916   25.3347 C   0  0  0  0  0  0  0  0  0  0  0  0
    6.0482  -13.6259   26.1674 C   0  0  0  0  0  0  0  0  0  0  0  0
    6.5543  -12.3665   25.9136 C   0  0  0  0  0  0  0  0  0  0  0  0
    7.4087  -12.1829   24.8392 C   0  0  0  0  0  0  0  0  0  0  0  0
    7.7483  -13.2697   24.0265 C   0  0  0  0  0  0  0  0  0  0  0  0
    9.9761  -15.7593   23.8620 C   0  0  0  0  0  0  0  0  0  0  0  0
   11.0182  -15.0722   23.8523 O   0  0  0  0  0  0  0  0  0  0  0  0
   11.1500  -12.5300   28.2069 C   0  0  0  0  0  0  0  0  0  0  0  0
   10.2906  -13.8871   29.0232 S   0  0  0  0  0  0  0  0  0  0  0  0
   10.7063  -15.4331   28.2020 C   0  0  0  0  0  0  0  0  0  0  0  0
   10.0580  -15.4258   26.8383 C   0  0  0  0  0  0  0  0  0  0  0  0
   10.4103  -16.7251   26.1436 C   0  0  2  0  0  0  0  0  0  0  0  0
    9.7100  -16.7019   24.8503 N   0  0  0  0  0  0  0  0  0  0  0  0
    9.9887  -17.9160   26.8974 C   0  0  0  0  0  0  0  0  0  0  0  0
    8.9225  -18.6848   26.4696 O   0  0  0  0  0  0  0  0  0  0  0  0
   10.5948  -18.2509   27.9437 O   0  0  0  0  0  0  0  0  0  0  0  0
  2  1  1  6
  2  6  1  0
  3  2  1  0
  4  3  1  0
  4  8  1  0
  5  4  2  0
  6  7  2  0
  6  9  1  0
  9 10  1  0
 10 11  1  1
 11 12  1  0
 12 17  2  0
 13 12  1  0
 13 14  2  0
 14 15  1  0
 15 16  2  0
 17 16  1  0
 18 10  1  0
 18 19  2  0
 20 21  1  0
 21 22  1  0
 24 23  1  1
 23 22  1  0
 24 25  1  0
 25 18  1  0
 26 24  1  0
 27 26  1  0
 28 26  2  0
M  END
$$$$
