DFM.pdb
     RDKit          3D

 28 28  0  0  1  0  0  0  0  0999 V2000
    9.1773  -18.6432   20.3925 N   0  0  0  0  0  0  0  0  0  0  0  0
   10.3711  -17.8542   20.3501 C   0  0  1  0  0  0  0  0  0  0  0  0
   10.6435  -17.4292   18.9336 C   0  0  0  0  0  0  0  0  0  0  0  0
   10.5318  -18.5102   17.9441 C   0  0  0  0  0  0  0  0  0  0  0  0
   11.3985  -19.4204   17.9780 O   0  0  0  0  0  0  0  0  0  0  0  0
   10.2552  -16.6674   21.2356 C   0  0  0  0  0  0  0  0  0  0  0  0
   11.1268  -15.7728   21.3093 O   0  0  0  0  0  0  0  0  0  0  0  0
    9.5593  -18.6268   16.9693 O   0  0  0  0  0  0  0  0  0  0  0  0
    9.0844  -16.5387   22.0542 N   0  0  0  0  0  0  0  0  0  0  0  0
    8.8777  -15.3810   22.8985 C   0  0  1  0  0  0  0  0  0  0  0  0
    7.5208  -15.4594   23.5298 C   0  0  0  0  0  0  0  0  0  0  0  0
    7.1905  -14.4195   24.4954 C   0  0  0  0  0  0  0  0  0  0  0  0
    6.3781  -14.6385   25.5669 C   0  0  0  0  0  0  0  0  0  0  0  0
    6.0499  -13.6230   26.4722 C   0  0  0  0  0  0  0  0  0  0  0  0
    6.5609  -12.3544   26.2824 C   0  0  0  0  0  0  0  0  0  0  0  0
    7.3889  -12.1119   25.1991 C   0  0  0  0  0  0  0  0  0  0  0  0
    7.6972  -13.1495   24.3130 C   0  0  0  0  0  0  0  0  0  0  0  0
    9.8888  -15.4897   24.0167 C   0  0  0  0  0  0  0  0  0  0  0  0
   10.6998  -14.5544   24.1767 O   0  0  0  0  0  0  0  0  0  0  0  0
    9.7121  -12.9721   28.4370 C   0  0  0  0  0  0  0  0  0  0  0  0
   10.0378  -14.4568   29.4046 S   0  0  0  0  0  0  0  0  0  0  0  0
   10.7355  -15.7229   28.3333 C   0  0  0  0  0  0  0  0  0  0  0  0
   10.0268  -15.6497   27.0020 C   0  0  0  0  0  0  0  0  0  0  0  0
   10.6244  -16.7041   26.0930 C   0  0  2  0  0  0  0  0  0  0  0  0
    9.8822  -16.6217   24.8258 N   0  0  0  0  0  0  0  0  0  0  0  0
   10.5045  -18.0673   26.6327 C   0  0  0  0  0  0  0  0  0  0  0  0
    9.7366  -19.0195   25.9889 O   0  0  0  0  0  0  0  0  0  0  0  0
   11.1010  -18.3848   27.6900 O   0  0  0  0  0  0  0  0  0  0  0  0
  2  1  1  6
  2  6  1  0
  3  2  1  0
  4  3  1  0
  4  8  1  0
  5  4  2  0
  6  7  2  0
  6  9  1  0
  9 10  1  0
 10 11  1  1
 11 12  1  0
 12 17  2  0
 13 12  1  0
 13 14  2  0
 14 15  1  0
 15 16  2  0
 17 16  1  0
 18 10  1  0
 18 19  2  0
 20 21  1  0
 21 22  1  0
 24 23  1  1
 23 22  1  0
 24 25  1  0
 25 18  1  0
 26 24  1  0
 27 26  1  0
 28 26  2  0
M  END
$$$$
