DFM.pdb
     RDKit          3D

 28 28  0  0  1  0  0  0  0  0999 V2000
    9.8421  -17.5788   19.9034 N   0  0  0  0  0  0  0  0  0  0  0  0
   11.0369  -17.2545   20.6223 C   0  0  1  0  0  0  0  0  0  0  0  0
   11.9951  -16.5403   19.7097 C   0  0  0  0  0  0  0  0  0  0  0  0
   12.3559  -17.2932   18.5001 C   0  0  0  0  0  0  0  0  0  0  0  0
   12.5066  -18.5363   18.6131 O   0  0  0  0  0  0  0  0  0  0  0  0
   10.7310  -16.4188   21.8116 C   0  0  0  0  0  0  0  0  0  0  0  0
   11.6090  -15.8747   22.5176 O   0  0  0  0  0  0  0  0  0  0  0  0
   12.5487  -16.7653   17.2377 O   0  0  0  0  0  0  0  0  0  0  0  0
    9.3569  -16.2263   22.1750 N   0  0  0  0  0  0  0  0  0  0  0  0
    8.9883  -15.5478   23.3996 C   0  0  1  0  0  0  0  0  0  0  0  0
    7.5721  -15.0684   23.2979 C   0  0  0  0  0  0  0  0  0  0  0  0
    7.0713  -14.2751   24.4126 C   0  0  0  0  0  0  0  0  0  0  0  0
    6.2504  -14.7864   25.3722 C   0  0  0  0  0  0  0  0  0  0  0  0
    5.7572  -14.0054   26.4236 C   0  0  0  0  0  0  0  0  0  0  0  0
    6.1081  -12.6721   26.5000 C   0  0  0  0  0  0  0  0  0  0  0  0
    6.9418  -12.1338   25.5340 C   0  0  0  0  0  0  0  0  0  0  0  0
    7.4173  -12.9423   24.4962 C   0  0  0  0  0  0  0  0  0  0  0  0
    9.0194  -16.5966   24.4875 C   0  0  0  0  0  0  0  0  0  0  0  0
    8.6608  -17.7578   24.2030 O   0  0  0  0  0  0  0  0  0  0  0  0
   10.5993  -13.5569   29.3200 C   0  0  0  0  0  0  0  0  0  0  0  0
   11.1541  -13.9360   27.6481 S   0  0  0  0  0  0  0  0  0  0  0  0
   11.4710  -15.7020   27.5134 C   0  0  0  0  0  0  0  0  0  0  0  0
   10.2446  -16.4345   28.0031 C   0  0  0  0  0  0  0  0  0  0  0  0
    9.6661  -17.2125   26.8390 C   0  0  2  0  0  0  0  0  0  0  0  0
    9.4441  -16.2352   25.7623 N   0  0  0  0  0  0  0  0  0  0  0  0
    8.3907  -17.8709   27.1611 C   0  0  0  0  0  0  0  0  0  0  0  0
    8.3477  -18.9478   28.0269 O   0  0  0  0  0  0  0  0  0  0  0  0
    7.3198  -17.4612   26.6515 O   0  0  0  0  0  0  0  0  0  0  0  0
  2  1  1  6
  2  6  1  0
  3  2  1  0
  4  3  1  0
  4  8  1  0
  5  4  2  0
  6  7  2  0
  6  9  1  0
  9 10  1  0
 10 11  1  6
 11 12  1  0
 12 17  2  0
 13 12  1  0
 13 14  2  0
 14 15  1  0
 15 16  2  0
 17 16  1  0
 18 10  1  0
 18 19  2  0
 20 21  1  0
 21 22  1  0
 24 23  1  1
 23 22  1  0
 24 25  1  0
 25 18  1  0
 26 24  1  0
 27 26  1  0
 28 26  2  0
M  END
$$$$
