DFM.pdb
     RDKit          3D

 28 28  0  0  1  0  0  0  0  0999 V2000
    9.3806  -18.0768   19.8054 N   0  0  0  0  0  0  0  0  0  0  0  0
   10.6601  -17.6037   20.2398 C   0  0  1  0  0  0  0  0  0  0  0  0
   11.3685  -16.9414   19.0906 C   0  0  0  0  0  0  0  0  0  0  0  0
   11.5866  -17.8143   17.9285 C   0  0  0  0  0  0  0  0  0  0  0  0
   10.8049  -18.7876   17.7783 O   0  0  0  0  0  0  0  0  0  0  0  0
   10.5190  -16.6591   21.3774 C   0  0  0  0  0  0  0  0  0  0  0  0
   11.4691  -15.9904   21.8417 O   0  0  0  0  0  0  0  0  0  0  0  0
   12.5761  -17.6709   16.9747 O   0  0  0  0  0  0  0  0  0  0  0  0
    9.2267  -16.5057   21.9805 N   0  0  0  0  0  0  0  0  0  0  0  0
    9.0362  -15.6848   23.1577 C   0  0  1  0  0  0  0  0  0  0  0  0
    7.5972  -15.2779   23.2550 C   0  0  0  0  0  0  0  0  0  0  0  0
    7.2583  -14.3294   24.3077 C   0  0  0  0  0  0  0  0  0  0  0  0
    7.7619  -13.0642   24.3513 C   0  0  0  0  0  0  0  0  0  0  0  0
    7.4465  -12.1724   25.3827 C   0  0  0  0  0  0  0  0  0  0  0  0
    6.5981  -12.5781   26.3939 C   0  0  0  0  0  0  0  0  0  0  0  0
    6.0757  -13.8604   26.3672 C   0  0  0  0  0  0  0  0  0  0  0  0
    6.4112  -14.7269   25.3214 C   0  0  0  0  0  0  0  0  0  0  0  0
    9.3210  -16.5774   24.3437 C   0  0  0  0  0  0  0  0  0  0  0  0
    9.0047  -17.7826   24.2692 O   0  0  0  0  0  0  0  0  0  0  0  0
    9.6990  -13.7187   29.8718 C   0  0  0  0  0  0  0  0  0  0  0  0
    9.1754  -14.1767   28.2097 S   0  0  0  0  0  0  0  0  0  0  0  0
   10.6275  -14.4926   27.1952 C   0  0  0  0  0  0  0  0  0  0  0  0
   11.1342  -15.8765   27.5243 C   0  0  0  0  0  0  0  0  0  0  0  0
   10.5187  -16.8487   26.5389 C   0  0  2  0  0  0  0  0  0  0  0  0
    9.9225  -16.0296   25.4726 N   0  0  0  0  0  0  0  0  0  0  0  0
    9.4738  -17.6938   27.1372 C   0  0  0  0  0  0  0  0  0  0  0  0
    9.8001  -18.7050   28.0216 O   0  0  0  0  0  0  0  0  0  0  0  0
    8.2666  -17.5066   26.8510 O   0  0  0  0  0  0  0  0  0  0  0  0
  2  1  1  6
  2  6  1  0
  3  2  1  0
  4  3  1  0
  4  8  1  0
  5  4  2  0
  6  7  2  0
  6  9  1  0
  9 10  1  0
 10 11  1  1
 11 12  1  0
 12 17  2  0
 13 12  1  0
 13 14  2  0
 14 15  1  0
 15 16  2  0
 17 16  1  0
 18 10  1  0
 18 19  2  0
 20 21  1  0
 21 22  1  0
 24 23  1  1
 23 22  1  0
 24 25  1  0
 25 18  1  0
 26 24  1  0
 27 26  1  0
 28 26  2  0
M  END
$$$$
