DFM.pdb
     RDKit          3D

 28 28  0  0  1  0  0  0  0  0999 V2000
   10.5028  -18.8904   19.1870 N   0  0  0  0  0  0  0  0  0  0  0  0
   11.4008  -17.7794   19.2809 C   0  0  1  0  0  0  0  0  0  0  0  0
   11.4639  -17.0699   17.9566 C   0  0  0  0  0  0  0  0  0  0  0  0
   12.1367  -17.8293   16.8932 C   0  0  0  0  0  0  0  0  0  0  0  0
   12.5075  -19.0004   17.1614 O   0  0  0  0  0  0  0  0  0  0  0  0
   10.9768  -16.8426   20.3527 C   0  0  0  0  0  0  0  0  0  0  0  0
   11.5781  -15.7778   20.6171 O   0  0  0  0  0  0  0  0  0  0  0  0
   12.4059  -17.3796   15.6147 O   0  0  0  0  0  0  0  0  0  0  0  0
    9.8185  -17.1753   21.1306 N   0  0  0  0  0  0  0  0  0  0  0  0
    9.4242  -16.3804   22.2746 C   0  0  1  0  0  0  0  0  0  0  0  0
    7.9743  -16.0205   22.1565 C   0  0  0  0  0  0  0  0  0  0  0  0
    7.6718  -14.6312   21.8384 C   0  0  0  0  0  0  0  0  0  0  0  0
    7.6347  -14.1578   20.5614 C   0  0  0  0  0  0  0  0  0  0  0  0
    7.3671  -12.8148   20.2728 C   0  0  0  0  0  0  0  0  0  0  0  0
    7.1316  -11.9327   21.3087 C   0  0  0  0  0  0  0  0  0  0  0  0
    7.1648  -12.3948   22.6138 C   0  0  0  0  0  0  0  0  0  0  0  0
    7.4352  -13.7437   22.8676 C   0  0  0  0  0  0  0  0  0  0  0  0
    9.5554  -17.2833   23.4796 C   0  0  0  0  0  0  0  0  0  0  0  0
   10.2300  -18.3276   23.3684 O   0  0  0  0  0  0  0  0  0  0  0  0
   10.2837  -12.9149   29.4736 C   0  0  0  0  0  0  0  0  0  0  0  0
    9.7076  -13.4698   27.8591 S   0  0  0  0  0  0  0  0  0  0  0  0
    9.2894  -15.2177   27.9460 C   0  0  0  0  0  0  0  0  0  0  0  0
    8.6418  -15.6077   26.6389 C   0  0  0  0  0  0  0  0  0  0  0  0
    9.6506  -16.4000   25.8329 C   0  0  2  0  0  0  0  0  0  0  0  0
    8.9237  -16.9228   24.6659 N   0  0  0  0  0  0  0  0  0  0  0  0
   10.2319  -17.5255   26.5810 C   0  0  0  0  0  0  0  0  0  0  0  0
    9.9520  -18.8320   26.2266 O   0  0  0  0  0  0  0  0  0  0  0  0
   10.9933  -17.3127   27.5553 O   0  0  0  0  0  0  0  0  0  0  0  0
  2  1  1  6
  2  6  1  0
  3  2  1  0
  4  3  1  0
  4  8  1  0
  5  4  2  0
  6  7  2  0
  6  9  1  0
  9 10  1  0
 10 11  1  6
 11 12  1  0
 12 17  2  0
 13 12  1  0
 13 14  2  0
 14 15  1  0
 15 16  2  0
 17 16  1  0
 18 10  1  0
 18 19  2  0
 20 21  1  0
 21 22  1  0
 24 23  1  1
 23 22  1  0
 24 25  1  0
 25 18  1  0
 26 24  1  0
 27 26  1  0
 28 26  2  0
M  END
$$$$
