DFM.pdb
     RDKit          3D

 28 28  0  0  1  0  0  0  0  0999 V2000
    9.5412  -18.1224   19.6608 N   0  0  0  0  0  0  0  0  0  0  0  0
   10.7574  -17.4068   19.9023 C   0  0  1  0  0  0  0  0  0  0  0  0
   11.2365  -16.7817   18.6214 C   0  0  0  0  0  0  0  0  0  0  0  0
   11.4087  -17.7295   17.5114 C   0  0  0  0  0  0  0  0  0  0  0  0
   10.6352  -17.6173   16.5265 O   0  0  0  0  0  0  0  0  0  0  0  0
   10.5646  -16.3686   20.9469 C   0  0  0  0  0  0  0  0  0  0  0  0
   11.4370  -15.5253   21.2520 O   0  0  0  0  0  0  0  0  0  0  0  0
   12.3456  -18.7429   17.4418 O   0  0  0  0  0  0  0  0  0  0  0  0
    9.3138  -16.3304   21.6480 N   0  0  0  0  0  0  0  0  0  0  0  0
    9.0744  -15.3789   22.7125 C   0  0  1  0  0  0  0  0  0  0  0  0
    7.5985  -15.1873   22.8883 C   0  0  0  0  0  0  0  0  0  0  0  0
    7.1802  -14.3101   23.9738 C   0  0  0  0  0  0  0  0  0  0  0  0
    7.5022  -12.9870   24.0192 C   0  0  0  0  0  0  0  0  0  0  0  0
    7.1142  -12.1624   25.0812 C   0  0  0  0  0  0  0  0  0  0  0  0
    6.3808  -12.6971   26.1218 C   0  0  0  0  0  0  0  0  0  0  0  0
    6.0435  -14.0401   26.0938 C   0  0  0  0  0  0  0  0  0  0  0  0
    6.4471  -14.8366   25.0170 C   0  0  0  0  0  0  0  0  0  0  0  0
    9.5866  -16.0263   23.9786 C   0  0  0  0  0  0  0  0  0  0  0  0
    9.7002  -17.2690   24.0059 O   0  0  0  0  0  0  0  0  0  0  0  0
   10.6018  -14.4471   31.5797 C   0  0  0  0  0  0  0  0  0  0  0  0
   10.3143  -13.8204   29.9150 S   0  0  0  0  0  0  0  0  0  0  0  0
   10.5424  -15.1551   28.7301 C   0  0  0  0  0  0  0  0  0  0  0  0
   10.2145  -14.6202   27.3565 C   0  0  0  0  0  0  0  0  0  0  0  0
   10.3259  -15.7632   26.3684 C   0  0  2  0  0  0  0  0  0  0  0  0
    9.9125  -15.2206   25.0653 N   0  0  0  0  0  0  0  0  0  0  0  0
    9.4649  -16.9066   26.7082 C   0  0  0  0  0  0  0  0  0  0  0  0
   10.0111  -18.1050   27.1282 O   0  0  0  0  0  0  0  0  0  0  0  0
    8.2172  -16.8080   26.6209 O   0  0  0  0  0  0  0  0  0  0  0  0
  2  1  1  6
  2  6  1  0
  3  2  1  0
  4  3  1  0
  4  8  1  0
  5  4  2  0
  6  7  2  0
  6  9  1  0
  9 10  1  0
 10 11  1  1
 11 12  1  0
 12 17  2  0
 13 12  1  0
 13 14  2  0
 14 15  1  0
 15 16  2  0
 17 16  1  0
 18 10  1  0
 18 19  2  0
 20 21  1  0
 21 22  1  0
 24 23  1  1
 23 22  1  0
 24 25  1  0
 25 18  1  0
 26 24  1  0
 27 26  1  0
 28 26  2  0
M  END
$$$$
