DFM.pdb
     RDKit          3D

 28 28  0  0  1  0  0  0  0  0999 V2000
   11.0227  -16.8105   18.7999 N   0  0  0  0  0  0  0  0  0  0  0  0
   10.7812  -17.5416   20.0068 C   0  0  1  0  0  0  0  0  0  0  0  0
   11.8808  -18.5458   20.2156 C   0  0  0  0  0  0  0  0  0  0  0  0
   12.1527  -19.3985   19.0497 C   0  0  0  0  0  0  0  0  0  0  0  0
   13.0998  -20.2205   19.1396 O   0  0  0  0  0  0  0  0  0  0  0  0
   10.6853  -16.6261   21.1725 C   0  0  0  0  0  0  0  0  0  0  0  0
   11.6454  -15.9450   21.5966 O   0  0  0  0  0  0  0  0  0  0  0  0
   11.4643  -19.3862   17.8516 O   0  0  0  0  0  0  0  0  0  0  0  0
    9.4273  -16.5173   21.8529 N   0  0  0  0  0  0  0  0  0  0  0  0
    9.2434  -15.5983   22.9564 C   0  0  1  0  0  0  0  0  0  0  0  0
    7.7904  -15.2535   23.0819 C   0  0  0  0  0  0  0  0  0  0  0  0
    7.4268  -14.3494   24.1651 C   0  0  0  0  0  0  0  0  0  0  0  0
    7.7999  -13.0393   24.1896 C   0  0  0  0  0  0  0  0  0  0  0  0
    7.4640  -12.1892   25.2493 C   0  0  0  0  0  0  0  0  0  0  0  0
    6.7308  -12.6844   26.3094 C   0  0  0  0  0  0  0  0  0  0  0  0
    6.3420  -14.0136   26.3029 C   0  0  0  0  0  0  0  0  0  0  0  0
    6.6943  -14.8364   25.2278 C   0  0  0  0  0  0  0  0  0  0  0  0
    9.6232  -16.3595   24.2057 C   0  0  0  0  0  0  0  0  0  0  0  0
    9.1629  -17.5091   24.3634 O   0  0  0  0  0  0  0  0  0  0  0  0
    9.5900  -13.1224   29.7118 C   0  0  0  0  0  0  0  0  0  0  0  0
   10.9449  -14.2842   29.9583 S   0  0  0  0  0  0  0  0  0  0  0  0
   10.7440  -15.6777   28.8379 C   0  0  0  0  0  0  0  0  0  0  0  0
   10.6763  -15.1375   27.4294 C   0  0  0  0  0  0  0  0  0  0  0  0
   10.7103  -16.3123   26.4736 C   0  0  2  0  0  0  0  0  0  0  0  0
   10.4681  -15.7575   25.1330 N   0  0  0  0  0  0  0  0  0  0  0  0
    9.6850  -17.3256   26.7669 C   0  0  0  0  0  0  0  0  0  0  0  0
   10.0324  -18.5497   27.3073 O   0  0  0  0  0  0  0  0  0  0  0  0
    8.4756  -17.0905   26.5293 O   0  0  0  0  0  0  0  0  0  0  0  0
  2  1  1  6
  2  6  1  0
  3  2  1  0
  4  3  1  0
  4  8  1  0
  5  4  2  0
  6  7  2  0
  6  9  1  0
  9 10  1  0
 10 11  1  1
 11 12  1  0
 12 17  2  0
 13 12  1  0
 13 14  2  0
 14 15  1  0
 15 16  2  0
 17 16  1  0
 18 10  1  0
 18 19  2  0
 20 21  1  0
 21 22  1  0
 24 23  1  1
 23 22  1  0
 24 25  1  0
 25 18  1  0
 26 24  1  0
 27 26  1  0
 28 26  2  0
M  END
$$$$
