DFM.pdb
     RDKit          3D

 28 28  0  0  1  0  0  0  0  0999 V2000
   10.7284  -17.2620   18.4372 N   0  0  0  0  0  0  0  0  0  0  0  0
   10.2027  -17.7621   19.6714 C   0  0  1  0  0  0  0  0  0  0  0  0
   11.0639  -18.8920   20.1642 C   0  0  0  0  0  0  0  0  0  0  0  0
   11.1710  -20.0238   19.2326 C   0  0  0  0  0  0  0  0  0  0  0  0
   10.1011  -20.5322   18.8110 O   0  0  0  0  0  0  0  0  0  0  0  0
   10.1251  -16.6849   20.6911 C   0  0  0  0  0  0  0  0  0  0  0  0
   10.9810  -15.7796   20.8060 O   0  0  0  0  0  0  0  0  0  0  0  0
   12.3426  -20.5912   18.7694 O   0  0  0  0  0  0  0  0  0  0  0  0
    9.0125  -16.6814   21.5964 N   0  0  0  0  0  0  0  0  0  0  0  0
    8.8743  -15.6650   22.6180 C   0  0  1  0  0  0  0  0  0  0  0  0
    7.4213  -15.3681   22.8336 C   0  0  0  0  0  0  0  0  0  0  0  0
    7.0986  -14.4423   23.9112 C   0  0  0  0  0  0  0  0  0  0  0  0
    6.4381  -14.8248   25.0398 C   0  0  0  0  0  0  0  0  0  0  0  0
    6.1131  -13.9186   26.0555 C   0  0  0  0  0  0  0  0  0  0  0  0
    6.4688  -12.5914   25.9193 C   0  0  0  0  0  0  0  0  0  0  0  0
    7.1409  -12.1830   24.7793 C   0  0  0  0  0  0  0  0  0  0  0  0
    7.4507  -13.1147   23.7829 C   0  0  0  0  0  0  0  0  0  0  0  0
    9.3906  -16.2818   23.8977 C   0  0  0  0  0  0  0  0  0  0  0  0
    9.3630  -17.5246   24.0110 O   0  0  0  0  0  0  0  0  0  0  0  0
   11.3533  -14.4063   31.2455 C   0  0  0  0  0  0  0  0  0  0  0  0
   11.0124  -13.8397   29.5694 S   0  0  0  0  0  0  0  0  0  0  0  0
   10.8793  -15.2630   28.4767 C   0  0  0  0  0  0  0  0  0  0  0  0
   10.4575  -14.7669   27.1142 C   0  0  0  0  0  0  0  0  0  0  0  0
   10.4018  -15.9565   26.1778 C   0  0  2  0  0  0  0  0  0  0  0  0
    9.8766  -15.4491   24.9009 N   0  0  0  0  0  0  0  0  0  0  0  0
    9.5259  -17.0338   26.6638 C   0  0  0  0  0  0  0  0  0  0  0  0
    8.1618  -16.9921   26.4435 O   0  0  0  0  0  0  0  0  0  0  0  0
   10.0084  -18.0096   27.2878 O   0  0  0  0  0  0  0  0  0  0  0  0
  2  1  1  6
  2  6  1  0
  3  2  1  0
  4  3  1  0
  4  8  1  0
  5  4  2  0
  6  7  2  0
  6  9  1  0
  9 10  1  0
 10 11  1  1
 11 12  1  0
 12 17  2  0
 13 12  1  0
 13 14  2  0
 14 15  1  0
 15 16  2  0
 17 16  1  0
 18 10  1  0
 18 19  2  0
 20 21  1  0
 21 22  1  0
 24 23  1  1
 23 22  1  0
 24 25  1  0
 25 18  1  0
 26 24  1  0
 27 26  1  0
 28 26  2  0
M  END
$$$$
