DFM.pdb
     RDKit          3D

 28 28  0  0  1  0  0  0  0  0999 V2000
    9.2929  -17.3589   20.1395 N   0  0  0  0  0  0  0  0  0  0  0  0
   10.6081  -17.1420   20.6618 C   0  0  1  0  0  0  0  0  0  0  0  0
   11.4754  -16.5235   19.6005 C   0  0  0  0  0  0  0  0  0  0  0  0
   11.5986  -17.3251   18.3748 C   0  0  0  0  0  0  0  0  0  0  0  0
   11.1055  -16.8520   17.3193 O   0  0  0  0  0  0  0  0  0  0  0  0
   10.5647  -16.2756   21.8675 C   0  0  0  0  0  0  0  0  0  0  0  0
   11.5870  -15.8337   22.4377 O   0  0  0  0  0  0  0  0  0  0  0  0
   12.2082  -18.5604   18.2656 O   0  0  0  0  0  0  0  0  0  0  0  0
    9.2841  -15.9281   22.4121 N   0  0  0  0  0  0  0  0  0  0  0  0
    9.1670  -15.1711   23.6406 C   0  0  1  0  0  0  0  0  0  0  0  0
    7.7827  -14.6073   23.7496 C   0  0  0  0  0  0  0  0  0  0  0  0
    7.5199  -13.7418   24.8917 C   0  0  0  0  0  0  0  0  0  0  0  0
    6.6447  -14.0723   25.8821 C   0  0  0  0  0  0  0  0  0  0  0  0
    6.3840  -13.2193   26.9606 C   0  0  0  0  0  0  0  0  0  0  0  0
    7.0296  -12.0008   27.0325 C   0  0  0  0  0  0  0  0  0  0  0  0
    7.9231  -11.6468   26.0353 C   0  0  0  0  0  0  0  0  0  0  0  0
    8.1610  -12.5229   24.9711 C   0  0  0  0  0  0  0  0  0  0  0  0
    9.3245  -16.1680   24.7658 C   0  0  0  0  0  0  0  0  0  0  0  0
    8.7453  -17.2694   24.6685 O   0  0  0  0  0  0  0  0  0  0  0  0
   14.3950  -19.0364   26.1468 C   0  0  0  0  0  0  0  0  0  0  0  0
   14.0099  -18.4166   27.7943 S   0  0  0  0  0  0  0  0  0  0  0  0
   12.2450  -18.0846   27.9066 C   0  0  0  0  0  0  0  0  0  0  0  0
   11.8838  -17.1076   26.8134 C   0  0  0  0  0  0  0  0  0  0  0  0
   10.4134  -16.7704   26.9517 C   0  0  2  0  0  0  0  0  0  0  0  0
   10.1050  -15.8270   25.8661 N   0  0  0  0  0  0  0  0  0  0  0  0
   10.0833  -16.1440   28.2412 C   0  0  0  0  0  0  0  0  0  0  0  0
    9.7548  -16.9152   29.3404 O   0  0  0  0  0  0  0  0  0  0  0  0
   10.0958  -14.8950   28.3604 O   0  0  0  0  0  0  0  0  0  0  0  0
  2  1  1  6
  2  6  1  0
  3  2  1  0
  4  3  1  0
  4  8  1  0
  5  4  2  0
  6  7  2  0
  6  9  1  0
  9 10  1  0
 10 11  1  1
 11 12  1  0
 12 17  2  0
 13 12  1  0
 13 14  2  0
 14 15  1  0
 15 16  2  0
 17 16  1  0
 18 10  1  0
 18 19  2  0
 20 21  1  0
 21 22  1  0
 24 23  1  1
 23 22  1  0
 24 25  1  0
 25 18  1  0
 26 24  1  0
 27 26  1  0
 28 26  2  0
M  END
$$$$
