DFM.pdb
     RDKit          3D

 28 28  0  0  1  0  0  0  0  0999 V2000
   10.7322  -17.9559   19.1771 N   0  0  0  0  0  0  0  0  0  0  0  0
    9.8256  -18.1488   20.2682 C   0  0  1  0  0  0  0  0  0  0  0  0
   10.1345  -19.4502   20.9552 C   0  0  0  0  0  0  0  0  0  0  0  0
   10.3700  -20.5772   20.0416 C   0  0  0  0  0  0  0  0  0  0  0  0
   11.5042  -20.6633   19.5058 O   0  0  0  0  0  0  0  0  0  0  0  0
    9.9057  -17.0209   21.2313 C   0  0  0  0  0  0  0  0  0  0  0  0
   10.9473  -16.3579   21.4334 O   0  0  0  0  0  0  0  0  0  0  0  0
    9.4593  -21.5618   19.7088 O   0  0  0  0  0  0  0  0  0  0  0  0
    8.7288  -16.6729   21.9738 N   0  0  0  0  0  0  0  0  0  0  0  0
    8.6787  -15.4801   22.7927 C   0  0  1  0  0  0  0  0  0  0  0  0
    7.3572  -15.4128   23.4964 C   0  0  0  0  0  0  0  0  0  0  0  0
    7.0939  -14.2093   24.2741 C   0  0  0  0  0  0  0  0  0  0  0  0
    7.5742  -12.9837   23.9227 C   0  0  0  0  0  0  0  0  0  0  0  0
    7.3336  -11.8407   24.6935 C   0  0  0  0  0  0  0  0  0  0  0  0
    6.5862  -11.9477   25.8496 C   0  0  0  0  0  0  0  0  0  0  0  0
    6.0890  -13.1850   26.2236 C   0  0  0  0  0  0  0  0  0  0  0  0
    6.3479  -14.3077   25.4303 C   0  0  0  0  0  0  0  0  0  0  0  0
    9.7350  -15.6572   23.8592 C   0  0  0  0  0  0  0  0  0  0  0  0
   10.7067  -14.8738   23.8681 O   0  0  0  0  0  0  0  0  0  0  0  0
   11.5888  -12.7391   28.0271 C   0  0  0  0  0  0  0  0  0  0  0  0
   10.8688  -14.1022   28.9598 S   0  0  0  0  0  0  0  0  0  0  0  0
   11.0774  -15.6310   28.0342 C   0  0  0  0  0  0  0  0  0  0  0  0
   10.2265  -15.5426   26.7899 C   0  0  0  0  0  0  0  0  0  0  0  0
   10.4429  -16.8058   25.9821 C   0  0  2  0  0  0  0  0  0  0  0  0
    9.5903  -16.6814   24.7899 N   0  0  0  0  0  0  0  0  0  0  0  0
   10.0735  -18.0285   26.7118 C   0  0  0  0  0  0  0  0  0  0  0  0
   10.9846  -18.6667   27.5326 O   0  0  0  0  0  0  0  0  0  0  0  0
    8.9205  -18.5103   26.5981 O   0  0  0  0  0  0  0  0  0  0  0  0
  2  1  1  6
  2  6  1  0
  3  2  1  0
  4  3  1  0
  4  8  1  0
  5  4  2  0
  6  7  2  0
  6  9  1  0
  9 10  1  0
 10 11  1  1
 11 12  1  0
 12 17  2  0
 13 12  1  0
 13 14  2  0
 14 15  1  0
 15 16  2  0
 17 16  1  0
 18 10  1  0
 18 19  2  0
 20 21  1  0
 21 22  1  0
 24 23  1  1
 23 22  1  0
 24 25  1  0
 25 18  1  0
 26 24  1  0
 27 26  1  0
 28 26  2  0
M  END
$$$$
