DFM.pdb
     RDKit          3D

 28 28  0  0  1  0  0  0  0  0999 V2000
    9.8129  -17.9086   19.7656 N   0  0  0  0  0  0  0  0  0  0  0  0
   11.0295  -17.3835   20.3074 C   0  0  1  0  0  0  0  0  0  0  0  0
   11.7771  -16.6384   19.2365 C   0  0  0  0  0  0  0  0  0  0  0  0
   12.1438  -17.4565   18.0718 C   0  0  0  0  0  0  0  0  0  0  0  0
   11.4249  -17.3599   17.0447 O   0  0  0  0  0  0  0  0  0  0  0  0
   10.7551  -16.4937   21.4647 C   0  0  0  0  0  0  0  0  0  0  0  0
   11.6157  -15.7462   21.9805 O   0  0  0  0  0  0  0  0  0  0  0  0
   13.2106  -18.3310   17.9924 O   0  0  0  0  0  0  0  0  0  0  0  0
    9.4350  -16.4916   22.0257 N   0  0  0  0  0  0  0  0  0  0  0  0
    9.1317  -15.7609   23.2382 C   0  0  1  0  0  0  0  0  0  0  0  0
    7.6662  -15.4507   23.2807 C   0  0  0  0  0  0  0  0  0  0  0  0
    7.2145  -14.5866   24.3633 C   0  0  0  0  0  0  0  0  0  0  0  0
    6.4687  -15.0419   25.4087 C   0  0  0  0  0  0  0  0  0  0  0  0
    6.0210  -14.1948   26.4287 C   0  0  0  0  0  0  0  0  0  0  0  0
    6.3401  -12.8521   26.3836 C   0  0  0  0  0  0  0  0  0  0  0  0
    7.0976  -12.3701   25.3291 C   0  0  0  0  0  0  0  0  0  0  0  0
    7.5293  -13.2441   24.3258 C   0  0  0  0  0  0  0  0  0  0  0  0
    9.4130  -16.7083   24.3818 C   0  0  0  0  0  0  0  0  0  0  0  0
    9.3961  -17.9355   24.1540 O   0  0  0  0  0  0  0  0  0  0  0  0
   10.0156  -12.9194   28.8977 C   0  0  0  0  0  0  0  0  0  0  0  0
   11.5495  -13.8620   28.8273 S   0  0  0  0  0  0  0  0  0  0  0  0
   11.4136  -15.1236   27.5516 C   0  0  0  0  0  0  0  0  0  0  0  0
   10.3021  -16.0669   27.9452 C   0  0  0  0  0  0  0  0  0  0  0  0
   10.0637  -17.0193   26.7916 C   0  0  2  0  0  0  0  0  0  0  0  0
    9.6798  -16.1845   25.6430 N   0  0  0  0  0  0  0  0  0  0  0  0
    8.9933  -17.9926   27.0577 C   0  0  0  0  0  0  0  0  0  0  0  0
    9.2665  -19.1921   27.6883 O   0  0  0  0  0  0  0  0  0  0  0  0
    7.8122  -17.7451   26.7140 O   0  0  0  0  0  0  0  0  0  0  0  0
  2  1  1  6
  2  6  1  0
  3  2  1  0
  4  3  1  0
  4  8  1  0
  5  4  2  0
  6  7  2  0
  6  9  1  0
  9 10  1  0
 10 11  1  6
 11 12  1  0
 12 17  2  0
 13 12  1  0
 13 14  2  0
 14 15  1  0
 15 16  2  0
 17 16  1  0
 18 10  1  0
 18 19  2  0
 20 21  1  0
 21 22  1  0
 24 23  1  1
 23 22  1  0
 24 25  1  0
 25 18  1  0
 26 24  1  0
 27 26  1  0
 28 26  2  0
M  END
$$$$
