DFM.pdb
     RDKit          3D

 28 28  0  0  1  0  0  0  0  0999 V2000
    9.5614  -17.8146   19.2283 N   0  0  0  0  0  0  0  0  0  0  0  0
   10.8311  -17.5224   19.8215 C   0  0  1  0  0  0  0  0  0  0  0  0
   11.7338  -16.8953   18.7953 C   0  0  0  0  0  0  0  0  0  0  0  0
   12.0065  -17.7450   17.6274 C   0  0  0  0  0  0  0  0  0  0  0  0
   11.3320  -18.7992   17.5060 O   0  0  0  0  0  0  0  0  0  0  0  0
   10.6754  -16.6247   20.9946 C   0  0  0  0  0  0  0  0  0  0  0  0
   11.6338  -16.0472   21.5545 O   0  0  0  0  0  0  0  0  0  0  0  0
   12.9405  -17.4985   16.6394 O   0  0  0  0  0  0  0  0  0  0  0  0
    9.3577  -16.4090   21.5185 N   0  0  0  0  0  0  0  0  0  0  0  0
    9.1350  -15.5749   22.6806 C   0  0  1  0  0  0  0  0  0  0  0  0
    7.6907  -15.1798   22.7422 C   0  0  0  0  0  0  0  0  0  0  0  0
    7.2952  -14.3286   23.8566 C   0  0  0  0  0  0  0  0  0  0  0  0
    6.5906  -14.7931   24.9262 C   0  0  0  0  0  0  0  0  0  0  0  0
    6.1963  -13.9578   25.9775 C   0  0  0  0  0  0  0  0  0  0  0  0
    6.5270  -12.6178   25.9393 C   0  0  0  0  0  0  0  0  0  0  0  0
    7.2432  -12.1265   24.8605 C   0  0  0  0  0  0  0  0  0  0  0  0
    7.6220  -12.9887   23.8261 C   0  0  0  0  0  0  0  0  0  0  0  0
    9.4022  -16.4497   23.8839 C   0  0  0  0  0  0  0  0  0  0  0  0
    9.1639  -17.6717   23.7941 O   0  0  0  0  0  0  0  0  0  0  0  0
    9.4616  -13.0369   29.9976 C   0  0  0  0  0  0  0  0  0  0  0  0
   10.7599  -13.8571   29.0551 S   0  0  0  0  0  0  0  0  0  0  0  0
   10.0142  -15.0328   27.9152 C   0  0  0  0  0  0  0  0  0  0  0  0
   11.1190  -15.6440   27.0869 C   0  0  0  0  0  0  0  0  0  0  0  0
   10.4953  -16.6492   26.1405 C   0  0  2  0  0  0  0  0  0  0  0  0
    9.9020  -15.8677   25.0447 N   0  0  0  0  0  0  0  0  0  0  0  0
    9.4464  -17.4642   26.7726 C   0  0  0  0  0  0  0  0  0  0  0  0
    9.7729  -18.5417   27.5748 O   0  0  0  0  0  0  0  0  0  0  0  0
    8.2355  -17.1902   26.5909 O   0  0  0  0  0  0  0  0  0  0  0  0
  2  1  1  6
  2  6  1  0
  3  2  1  0
  4  3  1  0
  4  8  1  0
  5  4  2  0
  6  7  2  0
  6  9  1  0
  9 10  1  0
 10 11  1  1
 11 12  1  0
 12 17  2  0
 13 12  1  0
 13 14  2  0
 14 15  1  0
 15 16  2  0
 17 16  1  0
 18 10  1  0
 18 19  2  0
 20 21  1  0
 21 22  1  0
 24 23  1  1
 23 22  1  0
 24 25  1  0
 25 18  1  0
 26 24  1  0
 27 26  1  0
 28 26  2  0
M  END
$$$$
