DFM.pdb
     RDKit          3D

 28 28  0  0  1  0  0  0  0  0999 V2000
   10.1906  -18.0977   19.8543 N   0  0  0  0  0  0  0  0  0  0  0  0
   11.3480  -17.3570   20.2558 C   0  0  1  0  0  0  0  0  0  0  0  0
   11.8458  -16.5352   19.0990 C   0  0  0  0  0  0  0  0  0  0  0  0
   12.2187  -17.3200   17.9136 C   0  0  0  0  0  0  0  0  0  0  0  0
   13.4137  -17.2572   17.5278 O   0  0  0  0  0  0  0  0  0  0  0  0
   11.0439  -16.4856   21.4196 C   0  0  0  0  0  0  0  0  0  0  0  0
   11.8729  -15.6989   21.9288 O   0  0  0  0  0  0  0  0  0  0  0  0
   11.3777  -18.1280   17.1725 O   0  0  0  0  0  0  0  0  0  0  0  0
    9.7316  -16.5496   21.9952 N   0  0  0  0  0  0  0  0  0  0  0  0
    9.3808  -15.7680   23.1622 C   0  0  1  0  0  0  0  0  0  0  0  0
    7.9220  -15.4282   23.1154 C   0  0  0  0  0  0  0  0  0  0  0  0
    7.4296  -14.5271   24.1490 C   0  0  0  0  0  0  0  0  0  0  0  0
    7.6747  -13.1870   24.1377 C   0  0  0  0  0  0  0  0  0  0  0  0
    7.2160  -12.3376   25.1510 C   0  0  0  0  0  0  0  0  0  0  0  0
    6.4904  -12.8649   26.2008 C   0  0  0  0  0  0  0  0  0  0  0  0
    6.2306  -14.2250   26.2301 C   0  0  0  0  0  0  0  0  0  0  0  0
    6.7037  -15.0461   25.2011 C   0  0  0  0  0  0  0  0  0  0  0  0
    9.5817  -16.6767   24.3531 C   0  0  0  0  0  0  0  0  0  0  0  0
    9.5025  -17.9102   24.1787 O   0  0  0  0  0  0  0  0  0  0  0  0
    9.5577  -12.8105   28.8133 C   0  0  0  0  0  0  0  0  0  0  0  0
   11.1553  -13.6325   28.9494 S   0  0  0  0  0  0  0  0  0  0  0  0
   11.2890  -14.8874   27.6668 C   0  0  0  0  0  0  0  0  0  0  0  0
   10.2525  -15.9499   27.9443 C   0  0  0  0  0  0  0  0  0  0  0  0
   10.2361  -16.9079   26.7709 C   0  0  2  0  0  0  0  0  0  0  0  0
    9.8465  -16.1119   25.5969 N   0  0  0  0  0  0  0  0  0  0  0  0
    9.2805  -18.0133   26.9409 C   0  0  0  0  0  0  0  0  0  0  0  0
    7.9572  -17.8700   26.5677 O   0  0  0  0  0  0  0  0  0  0  0  0
    9.6564  -19.1062   27.4293 O   0  0  0  0  0  0  0  0  0  0  0  0
  2  1  1  6
  2  6  1  0
  3  2  1  0
  4  3  1  0
  4  8  1  0
  5  4  2  0
  6  7  2  0
  6  9  1  0
  9 10  1  0
 10 11  1  6
 11 12  1  0
 12 17  2  0
 13 12  1  0
 13 14  2  0
 14 15  1  0
 15 16  2  0
 17 16  1  0
 18 10  1  0
 18 19  2  0
 20 21  1  0
 21 22  1  0
 24 23  1  1
 23 22  1  0
 24 25  1  0
 25 18  1  0
 26 24  1  0
 27 26  1  0
 28 26  2  0
M  END
$$$$
