YWI.pdb
     RDKit          3D

 35 37  0  0  1  0  0  0  0  0999 V2000
   14.7514  -21.5761   17.3073 O   0  0  0  0  0  0  0  0  0  0  0  0
   14.2761  -20.6177   18.2257 C   0  0  0  0  0  0  0  0  0  0  0  0
   14.8148  -19.3515   18.2598 C   0  0  0  0  0  0  0  0  0  0  0  0
   14.3170  -18.4428   19.1780 C   0  0  0  0  0  0  0  0  0  0  0  0
   13.3087  -18.7853   20.0406 C   0  0  0  0  0  0  0  0  0  0  0  0
   12.8000  -17.7969   21.0040 C   0  0  0  0  0  0  0  0  0  0  0  0
   11.4832  -17.2541   20.4638 C   0  0  2  0  0  0  0  0  0  0  0  0
   11.8166  -16.5149   19.2587 N   0  0  0  0  0  0  0  0  0  0  0  0
   10.9528  -16.3405   21.5027 C   0  0  0  0  0  0  0  0  0  0  0  0
   11.4748  -15.2074   21.6338 O   0  0  0  0  0  0  0  0  0  0  0  0
   12.7748  -20.0447   20.0048 C   0  0  0  0  0  0  0  0  0  0  0  0
   13.2679  -20.9591   19.0888 C   0  0  0  0  0  0  0  0  0  0  0  0
    9.8928  -16.7465   22.3122 N   0  0  0  0  0  0  0  0  0  0  0  0
    9.3318  -15.8938   23.3831 C   0  0  1  0  0  0  0  0  0  0  0  0
    7.8457  -16.0957   23.2855 C   0  0  0  0  0  0  0  0  0  0  0  0
    7.0689  -15.4992   24.3846 C   0  0  0  0  0  0  0  0  0  0  0  0
    6.2541  -16.1549   25.2719 C   0  0  0  0  0  0  0  0  0  0  0  0
    5.7023  -15.2693   26.1142 N   0  0  0  0  0  0  0  0  0  0  0  0
    6.1386  -14.0299   25.8003 C   0  0  0  0  0  0  0  0  0  0  0  0
    5.8647  -12.7857   26.3644 C   0  0  0  0  0  0  0  0  0  0  0  0
    6.4516  -11.6514   25.8455 C   0  0  0  0  0  0  0  0  0  0  0  0
    7.3034  -11.7845   24.7692 C   0  0  0  0  0  0  0  0  0  0  0  0
    7.5694  -13.0190   24.2167 C   0  0  0  0  0  0  0  0  0  0  0  0
    6.9828  -14.1679   24.7325 C   0  0  0  0  0  0  0  0  0  0  0  0
    9.9521  -16.3731   24.6285 C   0  0  0  0  0  0  0  0  0  0  0  0
   10.4085  -17.5733   24.7173 O   0  0  0  0  0  0  0  0  0  0  0  0
   10.0686  -12.8924   29.0324 C   0  0  0  0  0  0  0  0  0  0  0  0
   10.4227  -13.7942   27.9054 C   0  0  0  0  0  0  0  0  0  0  0  0
   10.4497  -15.2463   28.1796 C   0  0  2  0  0  0  0  0  0  0  0  0
   11.2138  -15.5574   29.4486 C   0  0  0  0  0  0  0  0  0  0  0  0
   10.6851  -16.1767   27.0487 C   0  0  2  0  0  0  0  0  0  0  0  0
   10.1149  -15.6111   25.8096 N   0  0  0  0  0  0  0  0  0  0  0  0
   10.3106  -17.5726   27.2212 C   0  0  0  0  0  0  0  0  0  0  0  0
   11.1236  -18.6191   27.6005 O   0  0  0  0  0  0  0  0  0  0  0  0
    9.0916  -17.9211   27.0034 O   0  0  0  0  0  0  0  0  0  0  0  0
  2 12  2  0
  2  1  1  0
  3  2  1  0
  4  5  1  0
  4  3  2  0
  5 11  2  0
  6  5  1  0
  7  6  1  0
  7  8  1  6
  9 13  1  0
  9  7  1  0
 10  9  2  0
 11 12  1  0
 14 25  1  0
 14 13  1  0
 14 15  1  1
 16 17  2  0
 16 15  1  0
 18 17  1  0
 19 24  2  0
 19 18  1  0
 20 19  1  0
 21 22  1  0
 21 20  2  0
 22 23  2  0
 23 24  1  0
 24 16  1  0
 25 32  1  0
 26 25  2  0
 28 27  1  0
 29 28  1  0
 29 30  1  1
 31 33  1  0
 31 29  1  0
 31 32  1  6
 33 34  1  0
 35 33  2  0
M  END
$$$$
