YWI.pdb
     RDKit          3D

 35 37  0  0  1  0  0  0  0  0999 V2000
   10.2942  -16.8827   13.3241 O   0  0  0  0  0  0  0  0  0  0  0  0
    9.9101  -16.3367   14.5659 C   0  0  0  0  0  0  0  0  0  0  0  0
   10.8489  -16.0776   15.5386 C   0  0  0  0  0  0  0  0  0  0  0  0
   10.4264  -15.5413   16.7430 C   0  0  0  0  0  0  0  0  0  0  0  0
    9.1031  -15.2695   16.9737 C   0  0  0  0  0  0  0  0  0  0  0  0
    8.6855  -14.6982   18.2633 C   0  0  0  0  0  0  0  0  0  0  0  0
    8.9752  -15.7299   19.3460 C   0  0  2  0  0  0  0  0  0  0  0  0
    8.0853  -16.8479   19.0852 N   0  0  0  0  0  0  0  0  0  0  0  0
    8.6343  -15.0855   20.6360 C   0  0  0  0  0  0  0  0  0  0  0  0
    8.0321  -13.9853   20.6207 O   0  0  0  0  0  0  0  0  0  0  0  0
    8.1717  -15.5279   16.0052 C   0  0  0  0  0  0  0  0  0  0  0  0
    8.5872  -16.0646   14.7979 C   0  0  0  0  0  0  0  0  0  0  0  0
    8.9828  -15.7027   21.8365 N   0  0  0  0  0  0  0  0  0  0  0  0
    8.5560  -15.1856   23.1553 C   0  0  1  0  0  0  0  0  0  0  0  0
    7.2930  -15.9393   23.4644 C   0  0  0  0  0  0  0  0  0  0  0  0
    6.4369  -15.3150   24.4864 C   0  0  0  0  0  0  0  0  0  0  0  0
    5.2676  -15.8132   25.0020 C   0  0  0  0  0  0  0  0  0  0  0  0
    4.7664  -14.9486   25.8961 N   0  0  0  0  0  0  0  0  0  0  0  0
    5.5867  -13.8789   25.9842 C   0  0  0  0  0  0  0  0  0  0  0  0
    5.5139  -12.7224   26.7577 C   0  0  0  0  0  0  0  0  0  0  0  0
    6.5008  -11.7651   26.6578 C   0  0  0  0  0  0  0  0  0  0  0  0
    7.5443  -11.9843   25.7832 C   0  0  0  0  0  0  0  0  0  0  0  0
    7.6093  -13.1311   25.0212 C   0  0  0  0  0  0  0  0  0  0  0  0
    6.6196  -14.1016   25.1149 C   0  0  0  0  0  0  0  0  0  0  0  0
    9.6849  -15.4495   24.0617 C   0  0  0  0  0  0  0  0  0  0  0  0
   10.6705  -16.1882   23.6881 O   0  0  0  0  0  0  0  0  0  0  0  0
   11.5676  -14.3303   29.9290 C   0  0  0  0  0  0  0  0  0  0  0  0
   11.9129  -14.7322   28.5405 C   0  0  0  0  0  0  0  0  0  0  0  0
   10.9039  -14.4826   27.4898 C   0  0  2  0  0  0  0  0  0  0  0  0
    9.5311  -14.2493   28.0830 C   0  0  0  0  0  0  0  0  0  0  0  0
   10.9359  -15.3172   26.2640 C   0  0  2  0  0  0  0  0  0  0  0  0
    9.8148  -14.9462   25.3778 N   0  0  0  0  0  0  0  0  0  0  0  0
   11.0387  -16.7606   26.4210 C   0  0  0  0  0  0  0  0  0  0  0  0
   10.0080  -17.6737   26.4830 O   0  0  0  0  0  0  0  0  0  0  0  0
   12.2050  -17.2940   26.5209 O   0  0  0  0  0  0  0  0  0  0  0  0
  2 12  2  0
  2  1  1  0
  3  2  1  0
  4  5  1  0
  4  3  2  0
  5 11  2  0
  6  5  1  0
  7  6  1  0
  7  8  1  6
  9 13  1  0
  9  7  1  0
 10  9  2  0
 11 12  1  0
 14 25  1  0
 14 13  1  0
 14 15  1  1
 16 17  2  0
 16 15  1  0
 18 17  1  0
 19 24  2  0
 19 18  1  0
 20 19  1  0
 21 22  1  0
 21 20  2  0
 22 23  2  0
 23 24  1  0
 24 16  1  0
 25 32  1  0
 26 25  2  0
 28 27  1  0
 29 28  1  0
 29 30  1  1
 31 33  1  0
 31 29  1  0
 31 32  1  1
 33 34  1  0
 35 33  2  0
M  END
$$$$
