YWI.pdb
     RDKit          3D

 35 37  0  0  1  0  0  0  0  0999 V2000
   10.7221  -25.0396   18.9054 O   0  0  0  0  0  0  0  0  0  0  0  0
   10.7911  -23.8178   19.6055 C   0  0  0  0  0  0  0  0  0  0  0  0
    9.6613  -23.2652   20.1648 C   0  0  0  0  0  0  0  0  0  0  0  0
    9.7759  -22.0640   20.8434 C   0  0  0  0  0  0  0  0  0  0  0  0
   10.9843  -21.4285   20.9627 C   0  0  0  0  0  0  0  0  0  0  0  0
   11.0742  -20.1539   21.6913 C   0  0  0  0  0  0  0  0  0  0  0  0
   10.2741  -19.1157   20.9150 C   0  0  2  0  0  0  0  0  0  0  0  0
   10.9875  -18.9086   19.6667 N   0  0  0  0  0  0  0  0  0  0  0  0
   10.2914  -17.8806   21.7333 C   0  0  0  0  0  0  0  0  0  0  0  0
   11.2412  -17.0741   21.5891 O   0  0  0  0  0  0  0  0  0  0  0  0
   12.1061  -21.9799   20.4059 C   0  0  0  0  0  0  0  0  0  0  0  0
   11.9989  -23.1815   19.7254 C   0  0  0  0  0  0  0  0  0  0  0  0
    9.2641  -17.6331   22.6428 N   0  0  0  0  0  0  0  0  0  0  0  0
    9.1783  -16.3851   23.4326 C   0  0  1  0  0  0  0  0  0  0  0  0
    7.7485  -15.9453   23.2876 C   0  0  0  0  0  0  0  0  0  0  0  0
    7.5080  -14.5231   23.5821 C   0  0  0  0  0  0  0  0  0  0  0  0
    7.8663  -13.4471   22.8107 C   0  0  0  0  0  0  0  0  0  0  0  0
    7.4944  -12.3127   23.4215 N   0  0  0  0  0  0  0  0  0  0  0  0
    6.8919  -12.6178   24.5915 C   0  0  0  0  0  0  0  0  0  0  0  0
    6.3353  -11.8093   25.5803 C   0  0  0  0  0  0  0  0  0  0  0  0
    5.7712  -12.3823   26.7000 C   0  0  0  0  0  0  0  0  0  0  0  0
    5.7750  -13.7570   26.8088 C   0  0  0  0  0  0  0  0  0  0  0  0
    6.3276  -14.5502   25.8262 C   0  0  0  0  0  0  0  0  0  0  0  0
    6.8984  -13.9821   24.6941 C   0  0  0  0  0  0  0  0  0  0  0  0
    9.5875  -16.7576   24.7962 C   0  0  0  0  0  0  0  0  0  0  0  0
    9.3755  -17.9447   25.2461 O   0  0  0  0  0  0  0  0  0  0  0  0
    9.9819  -13.6563   29.7486 C   0  0  0  0  0  0  0  0  0  0  0  0
    9.7340  -14.7564   28.7806 C   0  0  0  0  0  0  0  0  0  0  0  0
   10.8721  -15.1982   27.9477 C   0  0  2  0  0  0  0  0  0  0  0  0
   11.6059  -14.0213   27.3414 C   0  0  0  0  0  0  0  0  0  0  0  0
   10.6827  -16.3634   27.0496 C   0  0  2  0  0  0  0  0  0  0  0  0
   10.2311  -15.9023   25.7217 N   0  0  0  0  0  0  0  0  0  0  0  0
    9.8774  -17.4758   27.5320 C   0  0  0  0  0  0  0  0  0  0  0  0
   10.2022  -18.3812   28.5193 O   0  0  0  0  0  0  0  0  0  0  0  0
    8.7219  -17.6814   27.0054 O   0  0  0  0  0  0  0  0  0  0  0  0
  2 12  2  0
  2  1  1  0
  3  2  1  0
  4  5  1  0
  4  3  2  0
  5 11  2  0
  6  5  1  0
  7  6  1  0
  7  8  1  6
  9 13  1  0
  9  7  1  0
 10  9  2  0
 11 12  1  0
 14 25  1  0
 14 13  1  0
 14 15  1  1
 16 17  2  0
 16 15  1  0
 18 17  1  0
 19 24  2  0
 19 18  1  0
 20 19  1  0
 21 22  1  0
 21 20  2  0
 22 23  2  0
 23 24  1  0
 24 16  1  0
 25 32  1  0
 26 25  2  0
 28 27  1  0
 29 28  1  0
 29 30  1  6
 31 33  1  0
 31 29  1  0
 31 32  1  6
 33 34  1  0
 35 33  2  0
M  END
$$$$
