YWI.pdb
     RDKit          3D

 35 37  0  0  1  0  0  0  0  0999 V2000
   11.0618  -22.6690   17.4614 O   0  0  0  0  0  0  0  0  0  0  0  0
   11.0750  -21.6943   18.4798 C   0  0  0  0  0  0  0  0  0  0  0  0
   10.3210  -21.8602   19.6193 C   0  0  0  0  0  0  0  0  0  0  0  0
   10.3647  -20.8773   20.5934 C   0  0  0  0  0  0  0  0  0  0  0  0
   11.1393  -19.7575   20.4376 C   0  0  0  0  0  0  0  0  0  0  0  0
   11.1658  -18.7315   21.4913 C   0  0  0  0  0  0  0  0  0  0  0  0
    9.9017  -17.8922   21.3568 C   0  0  2  0  0  0  0  0  0  0  0  0
    9.9736  -17.2626   20.0497 N   0  0  0  0  0  0  0  0  0  0  0  0
    9.9649  -16.8710   22.4285 C   0  0  0  0  0  0  0  0  0  0  0  0
   10.5699  -15.7956   22.2028 O   0  0  0  0  0  0  0  0  0  0  0  0
   11.8880  -19.5948   19.3039 C   0  0  0  0  0  0  0  0  0  0  0  0
   11.8491  -20.5740   18.3252 C   0  0  0  0  0  0  0  0  0  0  0  0
    9.3583  -17.1150   23.6599 N   0  0  0  0  0  0  0  0  0  0  0  0
    9.3435  -16.1208   24.7554 C   0  0  1  0  0  0  0  0  0  0  0  0
    8.0790  -16.4141   25.5129 C   0  0  0  0  0  0  0  0  0  0  0  0
    7.0040  -15.4262   25.3242 C   0  0  0  0  0  0  0  0  0  0  0  0
    5.7644  -15.6472   24.7802 C   0  0  0  0  0  0  0  0  0  0  0  0
    5.0722  -14.4989   24.7583 N   0  0  0  0  0  0  0  0  0  0  0  0
    5.8342  -13.5135   25.2810 C   0  0  0  0  0  0  0  0  0  0  0  0
    5.5798  -12.1582   25.4798 C   0  0  0  0  0  0  0  0  0  0  0  0
    6.5459  -11.3528   26.0441 C   0  0  0  0  0  0  0  0  0  0  0  0
    7.7512  -11.9209   26.3994 C   0  0  0  0  0  0  0  0  0  0  0  0
    7.9954  -13.2627   26.1996 C   0  0  0  0  0  0  0  0  0  0  0  0
    7.0281  -14.0825   25.6317 C   0  0  0  0  0  0  0  0  0  0  0  0
   10.5915  -16.3447   25.5022 C   0  0  0  0  0  0  0  0  0  0  0  0
   11.6397  -15.6381   25.2600 O   0  0  0  0  0  0  0  0  0  0  0  0
   10.3426  -13.4115   28.2392 C   0  0  0  0  0  0  0  0  0  0  0  0
   10.9621  -14.5901   27.5790 C   0  0  0  0  0  0  0  0  0  0  0  0
   11.1335  -15.8123   28.3920 C   0  0  2  0  0  0  0  0  0  0  0  0
   11.7894  -15.5071   29.7216 C   0  0  0  0  0  0  0  0  0  0  0  0
   11.5984  -17.0506   27.7206 C   0  0  2  0  0  0  0  0  0  0  0  0
   10.7751  -17.3082   26.5222 N   0  0  0  0  0  0  0  0  0  0  0  0
   11.7557  -18.2503   28.5295 C   0  0  0  0  0  0  0  0  0  0  0  0
   12.9043  -18.7067   29.1398 O   0  0  0  0  0  0  0  0  0  0  0  0
   10.7341  -19.0074   28.7244 O   0  0  0  0  0  0  0  0  0  0  0  0
  2 12  2  0
  2  1  1  0
  3  2  1  0
  4  5  1  0
  4  3  2  0
  5 11  2  0
  6  5  1  0
  7  6  1  0
  7  8  1  6
  9 13  1  0
  9  7  1  0
 10  9  2  0
 11 12  1  0
 14 25  1  0
 14 13  1  0
 14 15  1  1
 16 17  2  0
 16 15  1  0
 18 17  1  0
 19 24  2  0
 19 18  1  0
 20 19  1  0
 21 22  1  0
 21 20  2  0
 22 23  2  0
 23 24  1  0
 24 16  1  0
 25 32  1  0
 26 25  2  0
 28 27  1  0
 29 28  1  0
 29 30  1  1
 31 33  1  0
 31 29  1  0
 31 32  1  6
 33 34  1  0
 35 33  2  0
M  END
$$$$
