YWI.pdb
     RDKit          3D

 35 37  0  0  1  0  0  0  0  0999 V2000
    7.6318  -14.0377   15.2131 O   0  0  0  0  0  0  0  0  0  0  0  0
    7.9572  -13.9897   16.5841 C   0  0  0  0  0  0  0  0  0  0  0  0
    9.2663  -13.8640   16.9902 C   0  0  0  0  0  0  0  0  0  0  0  0
    9.5394  -13.8209   18.3467 C   0  0  0  0  0  0  0  0  0  0  0  0
    8.5352  -13.9009   19.2759 C   0  0  0  0  0  0  0  0  0  0  0  0
    8.8572  -13.8507   20.7103 C   0  0  0  0  0  0  0  0  0  0  0  0
    9.5056  -15.1760   21.0893 C   0  0  2  0  0  0  0  0  0  0  0  0
    8.5024  -16.1985   20.8480 N   0  0  0  0  0  0  0  0  0  0  0  0
    9.8185  -15.0873   22.5348 C   0  0  0  0  0  0  0  0  0  0  0  0
   10.6963  -14.2754   22.9137 O   0  0  0  0  0  0  0  0  0  0  0  0
    7.2345  -14.0258   18.8697 C   0  0  0  0  0  0  0  0  0  0  0  0
    6.9539  -14.0696   17.5141 C   0  0  0  0  0  0  0  0  0  0  0  0
    9.1416  -15.8977   23.4451 N   0  0  0  0  0  0  0  0  0  0  0  0
    9.4169  -15.8715   24.8985 C   0  0  1  0  0  0  0  0  0  0  0  0
    8.1040  -16.2286   25.5369 C   0  0  0  0  0  0  0  0  0  0  0  0
    7.0123  -15.2760   25.2763 C   0  0  0  0  0  0  0  0  0  0  0  0
    5.8387  -15.5253   24.6117 C   0  0  0  0  0  0  0  0  0  0  0  0
    5.1058  -14.4036   24.5579 N   0  0  0  0  0  0  0  0  0  0  0  0
    5.7756  -13.4079   25.1784 C   0  0  0  0  0  0  0  0  0  0  0  0
    5.4493  -12.0703   25.3915 C   0  0  0  0  0  0  0  0  0  0  0  0
    6.3254  -11.2482   26.0675 C   0  0  0  0  0  0  0  0  0  0  0  0
    7.5143  -11.7821   26.5183 C   0  0  0  0  0  0  0  0  0  0  0  0
    7.8299  -13.1066   26.3036 C   0  0  0  0  0  0  0  0  0  0  0  0
    6.9535  -13.9430   25.6235 C   0  0  0  0  0  0  0  0  0  0  0  0
   10.5034  -16.8417   25.1072 C   0  0  0  0  0  0  0  0  0  0  0  0
   11.4930  -16.9087   24.2869 O   0  0  0  0  0  0  0  0  0  0  0  0
   11.1001  -14.5220   29.8893 C   0  0  0  0  0  0  0  0  0  0  0  0
   11.7206  -15.3939   28.8580 C   0  0  0  0  0  0  0  0  0  0  0  0
   10.8126  -16.1814   27.9980 C   0  0  2  0  0  0  0  0  0  0  0  0
    9.4072  -16.2153   28.5591 C   0  0  0  0  0  0  0  0  0  0  0  0
   11.3049  -17.4612   27.4325 C   0  0  2  0  0  0  0  0  0  0  0  0
   10.5859  -17.7625   26.1785 N   0  0  0  0  0  0  0  0  0  0  0  0
   11.3595  -18.6214   28.3098 C   0  0  0  0  0  0  0  0  0  0  0  0
   10.3692  -19.5546   28.5301 O   0  0  0  0  0  0  0  0  0  0  0  0
   12.4339  -18.8433   28.9814 O   0  0  0  0  0  0  0  0  0  0  0  0
  2 12  2  0
  2  1  1  0
  3  2  1  0
  4  5  1  0
  4  3  2  0
  5 11  2  0
  6  5  1  0
  7  6  1  0
  7  8  1  1
  9 13  1  0
  9  7  1  0
 10  9  2  0
 11 12  1  0
 14 25  1  0
 14 13  1  0
 14 15  1  1
 16 17  2  0
 16 15  1  0
 18 17  1  0
 19 24  2  0
 19 18  1  0
 20 19  1  0
 21 22  1  0
 21 20  2  0
 22 23  2  0
 23 24  1  0
 24 16  1  0
 25 32  1  0
 26 25  2  0
 28 27  1  0
 29 28  1  0
 29 30  1  1
 31 33  1  0
 31 29  1  0
 31 32  1  6
 33 34  1  0
 35 33  2  0
M  END
$$$$
