YWI.pdb
     RDKit          3D

 35 37  0  0  1  0  0  0  0  0999 V2000
    7.7957  -14.5956   14.6498 O   0  0  0  0  0  0  0  0  0  0  0  0
    8.0787  -14.4777   16.0259 C   0  0  0  0  0  0  0  0  0  0  0  0
    8.6381  -15.5269   16.7193 C   0  0  0  0  0  0  0  0  0  0  0  0
    8.8990  -15.3664   18.0695 C   0  0  0  0  0  0  0  0  0  0  0  0
    8.6106  -14.1916   18.7135 C   0  0  0  0  0  0  0  0  0  0  0  0
    8.9009  -14.0512   20.1487 C   0  0  0  0  0  0  0  0  0  0  0  0
    9.6255  -15.3117   20.6032 C   0  0  2  0  0  0  0  0  0  0  0  0
    8.7510  -16.4220   20.2680 N   0  0  0  0  0  0  0  0  0  0  0  0
    9.7776  -15.1967   22.0726 C   0  0  0  0  0  0  0  0  0  0  0  0
   10.6195  -14.3877   22.5309 O   0  0  0  0  0  0  0  0  0  0  0  0
    8.0544  -13.1500   18.0220 C   0  0  0  0  0  0  0  0  0  0  0  0
    7.7907  -13.3034   16.6710 C   0  0  0  0  0  0  0  0  0  0  0  0
    8.9923  -15.9797   22.9176 N   0  0  0  0  0  0  0  0  0  0  0  0
    8.7388  -15.6244   24.3312 C   0  0  1  0  0  0  0  0  0  0  0  0
    7.3660  -16.1664   24.6152 C   0  0  0  0  0  0  0  0  0  0  0  0
    6.4335  -15.1990   25.2165 C   0  0  0  0  0  0  0  0  0  0  0  0
    5.0939  -15.3780   25.4507 C   0  0  0  0  0  0  0  0  0  0  0  0
    4.5797  -14.2641   25.9920 N   0  0  0  0  0  0  0  0  0  0  0  0
    5.5594  -13.3432   26.1223 C   0  0  0  0  0  0  0  0  0  0  0  0
    5.5419  -12.0429   26.6225 C   0  0  0  0  0  0  0  0  0  0  0  0
    6.7023  -11.2991   26.6444 C   0  0  0  0  0  0  0  0  0  0  0  0
    7.8609  -11.8723   26.1640 C   0  0  0  0  0  0  0  0  0  0  0  0
    7.8701  -13.1595   25.6706 C   0  0  0  0  0  0  0  0  0  0  0  0
    6.7058  -13.9170   25.6444 C   0  0  0  0  0  0  0  0  0  0  0  0
    9.8325  -16.2486   25.0925 C   0  0  0  0  0  0  0  0  0  0  0  0
   10.7288  -16.9555   24.4979 O   0  0  0  0  0  0  0  0  0  0  0  0
   11.2201  -14.6612   30.4876 C   0  0  0  0  0  0  0  0  0  0  0  0
   10.7766  -15.6195   29.4417 C   0  0  0  0  0  0  0  0  0  0  0  0
   11.6395  -15.7741   28.2518 C   0  0  2  0  0  0  0  0  0  0  0  0
   12.1829  -14.4414   27.7833 C   0  0  0  0  0  0  0  0  0  0  0  0
   11.2052  -16.6995   27.1770 C   0  0  2  0  0  0  0  0  0  0  0  0
   10.0197  -16.1475   26.4914 N   0  0  0  0  0  0  0  0  0  0  0  0
   11.0223  -18.1035   27.5149 C   0  0  0  0  0  0  0  0  0  0  0  0
   11.9932  -19.0143   27.8722 O   0  0  0  0  0  0  0  0  0  0  0  0
    9.8358  -18.6000   27.4888 O   0  0  0  0  0  0  0  0  0  0  0  0
  2 12  2  0
  2  1  1  0
  3  2  1  0
  4  5  1  0
  4  3  2  0
  5 11  2  0
  6  5  1  0
  7  6  1  0
  7  8  1  1
  9 13  1  0
  9  7  1  0
 10  9  2  0
 11 12  1  0
 14 25  1  0
 14 13  1  0
 14 15  1  1
 16 17  2  0
 16 15  1  0
 18 17  1  0
 19 24  2  0
 19 18  1  0
 20 19  1  0
 21 22  1  0
 21 20  2  0
 22 23  2  0
 23 24  1  0
 24 16  1  0
 25 32  1  0
 26 25  2  0
 28 27  1  0
 29 28  1  0
 29 30  1  6
 31 33  1  0
 31 29  1  0
 31 32  1  1
 33 34  1  0
 35 33  2  0
M  END
$$$$
