YWI.pdb
     RDKit          3D

 35 37  0  0  1  0  0  0  0  0999 V2000
    7.5094  -14.4395   14.9477 O   0  0  0  0  0  0  0  0  0  0  0  0
    7.9032  -14.3129   16.2955 C   0  0  0  0  0  0  0  0  0  0  0  0
    7.1397  -13.5907   17.1844 C   0  0  0  0  0  0  0  0  0  0  0  0
    7.5648  -13.4931   18.4983 C   0  0  0  0  0  0  0  0  0  0  0  0
    8.7205  -14.0988   18.9173 C   0  0  0  0  0  0  0  0  0  0  0  0
    9.1450  -13.9780   20.3205 C   0  0  0  0  0  0  0  0  0  0  0  0
    9.6807  -15.3333   20.7639 C   0  0  2  0  0  0  0  0  0  0  0  0
    8.6497  -16.3016   20.4329 N   0  0  0  0  0  0  0  0  0  0  0  0
    9.8608  -15.2489   22.2322 C   0  0  0  0  0  0  0  0  0  0  0  0
   10.6768  -14.4154   22.6934 O   0  0  0  0  0  0  0  0  0  0  0  0
    9.4779  -14.8162   18.0318 C   0  0  0  0  0  0  0  0  0  0  0  0
    9.0587  -14.9181   16.7157 C   0  0  0  0  0  0  0  0  0  0  0  0
    9.1298  -16.0871   23.0730 N   0  0  0  0  0  0  0  0  0  0  0  0
    8.8576  -15.7592   24.4898 C   0  0  1  0  0  0  0  0  0  0  0  0
    7.4916  -16.3285   24.7522 C   0  0  0  0  0  0  0  0  0  0  0  0
    6.4857  -15.3437   25.1828 C   0  0  0  0  0  0  0  0  0  0  0  0
    5.1396  -15.5530   25.3429 C   0  0  0  0  0  0  0  0  0  0  0  0
    4.5500  -14.4115   25.7269 N   0  0  0  0  0  0  0  0  0  0  0  0
    5.4857  -13.4422   25.8254 C   0  0  0  0  0  0  0  0  0  0  0  0
    5.3879  -12.0991   26.1829 C   0  0  0  0  0  0  0  0  0  0  0  0
    6.5177  -11.3095   26.2050 C   0  0  0  0  0  0  0  0  0  0  0  0
    7.7267  -11.8807   25.8679 C   0  0  0  0  0  0  0  0  0  0  0  0
    7.8154  -13.2104   25.5153 C   0  0  0  0  0  0  0  0  0  0  0  0
    6.6825  -14.0142   25.4902 C   0  0  0  0  0  0  0  0  0  0  0  0
    9.9547  -16.3777   25.2509 C   0  0  0  0  0  0  0  0  0  0  0  0
   10.7310  -17.2445   24.7007 O   0  0  0  0  0  0  0  0  0  0  0  0
   11.3720  -15.0993   30.8228 C   0  0  0  0  0  0  0  0  0  0  0  0
   10.9568  -15.9429   29.6718 C   0  0  0  0  0  0  0  0  0  0  0  0
   11.8075  -15.9108   28.4638 C   0  0  2  0  0  0  0  0  0  0  0  0
   12.2626  -14.5034   28.1427 C   0  0  0  0  0  0  0  0  0  0  0  0
   11.4116  -16.7354   27.2961 C   0  0  2  0  0  0  0  0  0  0  0  0
   10.2709  -16.1042   26.6028 N   0  0  0  0  0  0  0  0  0  0  0  0
   11.1887  -18.1583   27.5068 C   0  0  0  0  0  0  0  0  0  0  0  0
   12.1269  -19.1171   27.8234 O   0  0  0  0  0  0  0  0  0  0  0  0
    9.9952  -18.6244   27.3925 O   0  0  0  0  0  0  0  0  0  0  0  0
  2 12  2  0
  2  1  1  0
  3  2  1  0
  4  5  1  0
  4  3  2  0
  5 11  2  0
  6  5  1  0
  7  6  1  0
  7  8  1  1
  9 13  1  0
  9  7  1  0
 10  9  2  0
 11 12  1  0
 14 25  1  0
 14 13  1  0
 14 15  1  1
 16 17  2  0
 16 15  1  0
 18 17  1  0
 19 24  2  0
 19 18  1  0
 20 19  1  0
 21 22  1  0
 21 20  2  0
 22 23  2  0
 23 24  1  0
 24 16  1  0
 25 32  1  0
 26 25  2  0
 28 27  1  0
 29 28  1  0
 29 30  1  6
 31 33  1  0
 31 29  1  0
 31 32  1  1
 33 34  1  0
 35 33  2  0
M  END
$$$$
