YWI.pdb
     RDKit          3D

 35 37  0  0  1  0  0  0  0  0999 V2000
   14.9988  -20.7301   16.8312 O   0  0  0  0  0  0  0  0  0  0  0  0
   14.3978  -19.7497   17.6468 C   0  0  0  0  0  0  0  0  0  0  0  0
   14.2838  -18.4489   17.2113 C   0  0  0  0  0  0  0  0  0  0  0  0
   13.6865  -17.5195   18.0456 C   0  0  0  0  0  0  0  0  0  0  0  0
   13.2144  -17.8753   19.2820 C   0  0  0  0  0  0  0  0  0  0  0  0
   12.5832  -16.8651   20.1450 C   0  0  0  0  0  0  0  0  0  0  0  0
   11.0756  -17.0744   20.0821 C   0  0  2  0  0  0  0  0  0  0  0  0
   10.6675  -16.6644   18.7496 N   0  0  0  0  0  0  0  0  0  0  0  0
   10.4883  -16.1762   21.1037 C   0  0  0  0  0  0  0  0  0  0  0  0
   10.1602  -15.0130   20.7680 O   0  0  0  0  0  0  0  0  0  0  0  0
   13.3289  -19.1691   19.7127 C   0  0  0  0  0  0  0  0  0  0  0  0
   13.9255  -20.1043   18.8833 C   0  0  0  0  0  0  0  0  0  0  0  0
   10.3098  -16.6296   22.4100 N   0  0  0  0  0  0  0  0  0  0  0  0
    9.5756  -15.8530   23.4330 C   0  0  1  0  0  0  0  0  0  0  0  0
    8.1430  -16.2780   23.2719 C   0  0  0  0  0  0  0  0  0  0  0  0
    7.2106  -15.6841   24.2440 C   0  0  0  0  0  0  0  0  0  0  0  0
    6.2053  -16.3244   24.9228 C   0  0  0  0  0  0  0  0  0  0  0  0
    5.5592  -15.4455   25.7028 N   0  0  0  0  0  0  0  0  0  0  0  0
    6.1206  -14.2259   25.5533 C   0  0  0  0  0  0  0  0  0  0  0  0
    5.8210  -12.9955   26.1342 C   0  0  0  0  0  0  0  0  0  0  0  0
    6.5624  -11.8809   25.8049 C   0  0  0  0  0  0  0  0  0  0  0  0
    7.5920  -12.0196   24.8981 C   0  0  0  0  0  0  0  0  0  0  0  0
    7.8823  -13.2404   24.3276 C   0  0  0  0  0  0  0  0  0  0  0  0
    7.1410  -14.3694   24.6531 C   0  0  0  0  0  0  0  0  0  0  0  0
   10.1986  -16.2123   24.7169 C   0  0  0  0  0  0  0  0  0  0  0  0
   10.9793  -17.2315   24.8075 O   0  0  0  0  0  0  0  0  0  0  0  0
   10.0213  -12.5583   28.9983 C   0  0  0  0  0  0  0  0  0  0  0  0
   10.3994  -13.5166   27.9271 C   0  0  0  0  0  0  0  0  0  0  0  0
   10.3803  -14.9553   28.2646 C   0  0  2  0  0  0  0  0  0  0  0  0
   11.0515  -15.2223   29.5947 C   0  0  0  0  0  0  0  0  0  0  0  0
   10.6735  -15.9384   27.1933 C   0  0  2  0  0  0  0  0  0  0  0  0
   10.0254  -15.5150   25.9359 N   0  0  0  0  0  0  0  0  0  0  0  0
   10.4322  -17.3466   27.4715 C   0  0  0  0  0  0  0  0  0  0  0  0
   11.2717  -18.2311   28.1142 O   0  0  0  0  0  0  0  0  0  0  0  0
    9.3227  -17.8746   27.0908 O   0  0  0  0  0  0  0  0  0  0  0  0
  2 12  2  0
  2  1  1  0
  3  2  1  0
  4  5  1  0
  4  3  2  0
  5 11  2  0
  6  5  1  0
  7  6  1  0
  7  8  1  6
  9 13  1  0
  9  7  1  0
 10  9  2  0
 11 12  1  0
 14 25  1  0
 14 13  1  0
 14 15  1  1
 16 17  2  0
 16 15  1  0
 18 17  1  0
 19 24  2  0
 19 18  1  0
 20 19  1  0
 21 22  1  0
 21 20  2  0
 22 23  2  0
 23 24  1  0
 24 16  1  0
 25 32  1  0
 26 25  2  0
 28 27  1  0
 29 28  1  0
 29 30  1  1
 31 33  1  0
 31 29  1  0
 31 32  1  6
 33 34  1  0
 35 33  2  0
M  END
$$$$
