YWI.pdb
     RDKit          3D

 35 37  0  0  1  0  0  0  0  0999 V2000
   14.2691  -22.2777   17.7530 O   0  0  0  0  0  0  0  0  0  0  0  0
   13.9216  -21.2657   18.6710 C   0  0  0  0  0  0  0  0  0  0  0  0
   14.7566  -20.1916   18.8800 C   0  0  0  0  0  0  0  0  0  0  0  0
   14.3749  -19.2213   19.7909 C   0  0  0  0  0  0  0  0  0  0  0  0
   13.1921  -19.3174   20.4765 C   0  0  0  0  0  0  0  0  0  0  0  0
   12.8136  -18.2693   21.4367 C   0  0  0  0  0  0  0  0  0  0  0  0
   11.7503  -17.3978   20.7807 C   0  0  2  0  0  0  0  0  0  0  0  0
   12.4363  -16.6267   19.7586 N   0  0  0  0  0  0  0  0  0  0  0  0
   11.2313  -16.5049   21.8431 C   0  0  0  0  0  0  0  0  0  0  0  0
   11.8900  -15.4815   22.1467 O   0  0  0  0  0  0  0  0  0  0  0  0
   12.3637  -20.3861   20.2669 C   0  0  0  0  0  0  0  0  0  0  0  0
   12.7391  -21.3606   19.3572 C   0  0  0  0  0  0  0  0  0  0  0  0
   10.0315  -16.8095   22.4846 N   0  0  0  0  0  0  0  0  0  0  0  0
    9.4381  -15.9417   23.5255 C   0  0  1  0  0  0  0  0  0  0  0  0
    7.9587  -16.1856   23.4205 C   0  0  0  0  0  0  0  0  0  0  0  0
    7.1475  -15.5045   24.4427 C   0  0  0  0  0  0  0  0  0  0  0  0
    6.3481  -16.0917   25.3901 C   0  0  0  0  0  0  0  0  0  0  0  0
    5.7536  -15.1424   26.1274 N   0  0  0  0  0  0  0  0  0  0  0  0
    6.1461  -13.9281   25.6841 C   0  0  0  0  0  0  0  0  0  0  0  0
    5.8189  -12.6419   26.1080 C   0  0  0  0  0  0  0  0  0  0  0  0
    6.3682  -11.5483   25.4734 C   0  0  0  0  0  0  0  0  0  0  0  0
    7.2367  -11.7636   24.4241 C   0  0  0  0  0  0  0  0  0  0  0  0
    7.5555  -13.0394   24.0105 C   0  0  0  0  0  0  0  0  0  0  0  0
    7.0071  -14.1478   24.6437 C   0  0  0  0  0  0  0  0  0  0  0  0
   10.0587  -16.3685   24.7896 C   0  0  0  0  0  0  0  0  0  0  0  0
   10.6396  -17.5131   24.8844 O   0  0  0  0  0  0  0  0  0  0  0  0
    9.9941  -12.8079   29.1372 C   0  0  0  0  0  0  0  0  0  0  0  0
   10.4517  -13.7239   28.0600 C   0  0  0  0  0  0  0  0  0  0  0  0
   10.4209  -15.1742   28.3426 C   0  0  2  0  0  0  0  0  0  0  0  0
   11.1002  -15.4985   29.6557 C   0  0  0  0  0  0  0  0  0  0  0  0
   10.6952  -16.1185   27.2320 C   0  0  2  0  0  0  0  0  0  0  0  0
   10.0920  -15.6102   25.9838 N   0  0  0  0  0  0  0  0  0  0  0  0
   10.3895  -17.5264   27.4392 C   0  0  0  0  0  0  0  0  0  0  0  0
   11.2007  -18.4873   28.0035 O   0  0  0  0  0  0  0  0  0  0  0  0
    9.2431  -17.9754   27.0664 O   0  0  0  0  0  0  0  0  0  0  0  0
  2 12  2  0
  2  1  1  0
  3  2  1  0
  4  5  1  0
  4  3  2  0
  5 11  2  0
  6  5  1  0
  7  6  1  0
  7  8  1  6
  9 13  1  0
  9  7  1  0
 10  9  2  0
 11 12  1  0
 14 25  1  0
 14 13  1  0
 14 15  1  1
 16 17  2  0
 16 15  1  0
 18 17  1  0
 19 24  2  0
 19 18  1  0
 20 19  1  0
 21 22  1  0
 21 20  2  0
 22 23  2  0
 23 24  1  0
 24 16  1  0
 25 32  1  0
 26 25  2  0
 28 27  1  0
 29 28  1  0
 29 30  1  1
 31 33  1  0
 31 29  1  0
 31 32  1  6
 33 34  1  0
 35 33  2  0
M  END
$$$$
