YWI.pdb
     RDKit          3D

 35 37  0  0  1  0  0  0  0  0999 V2000
   14.1430  -22.2572   17.6318 O   0  0  0  0  0  0  0  0  0  0  0  0
   13.7450  -21.1767   18.4453 C   0  0  0  0  0  0  0  0  0  0  0  0
   14.3239  -19.9368   18.2971 C   0  0  0  0  0  0  0  0  0  0  0  0
   13.9019  -18.9047   19.1178 C   0  0  0  0  0  0  0  0  0  0  0  0
   12.9284  -19.1015   20.0621 C   0  0  0  0  0  0  0  0  0  0  0  0
   12.5003  -17.9844   20.9182 C   0  0  0  0  0  0  0  0  0  0  0  0
   11.2279  -17.3991   20.3192 C   0  0  2  0  0  0  0  0  0  0  0  0
   11.6284  -16.7407   19.0879 N   0  0  0  0  0  0  0  0  0  0  0  0
   10.7259  -16.4068   21.2983 C   0  0  0  0  0  0  0  0  0  0  0  0
   11.2171  -15.2526   21.2941 O   0  0  0  0  0  0  0  0  0  0  0  0
   12.3545  -20.3351   20.2076 C   0  0  0  0  0  0  0  0  0  0  0  0
   12.7717  -21.3723   19.3900 C   0  0  0  0  0  0  0  0  0  0  0  0
    9.7256  -16.7638   22.2016 N   0  0  0  0  0  0  0  0  0  0  0  0
    9.2094  -15.8358   23.2316 C   0  0  1  0  0  0  0  0  0  0  0  0
    7.7239  -16.0643   23.2337 C   0  0  0  0  0  0  0  0  0  0  0  0
    6.9978  -15.3890   24.3218 C   0  0  0  0  0  0  0  0  0  0  0  0
    6.2088  -15.9760   25.2780 C   0  0  0  0  0  0  0  0  0  0  0  0
    5.7015  -15.0316   26.0836 N   0  0  0  0  0  0  0  0  0  0  0  0
    6.1420  -13.8209   25.6773 C   0  0  0  0  0  0  0  0  0  0  0  0
    5.9067  -12.5402   26.1727 C   0  0  0  0  0  0  0  0  0  0  0  0
    6.4884  -11.4493   25.5628 C   0  0  0  0  0  0  0  0  0  0  0  0
    7.2966  -11.6618   24.4658 C   0  0  0  0  0  0  0  0  0  0  0  0
    7.5247  -12.9321   23.9815 C   0  0  0  0  0  0  0  0  0  0  0  0
    6.9430  -14.0377   24.5893 C   0  0  0  0  0  0  0  0  0  0  0  0
    9.9054  -16.2060   24.4742 C   0  0  0  0  0  0  0  0  0  0  0  0
   10.3857  -17.3896   24.6323 O   0  0  0  0  0  0  0  0  0  0  0  0
   11.2612  -13.8903   30.1689 C   0  0  0  0  0  0  0  0  0  0  0  0
   11.4210  -14.9389   29.1279 C   0  0  0  0  0  0  0  0  0  0  0  0
   10.7585  -14.7112   27.8266 C   0  0  2  0  0  0  0  0  0  0  0  0
    9.4425  -13.9823   27.9937 C   0  0  0  0  0  0  0  0  0  0  0  0
   10.7572  -15.8100   26.8302 C   0  0  2  0  0  0  0  0  0  0  0  0
   10.1207  -15.3497   25.5799 N   0  0  0  0  0  0  0  0  0  0  0  0
   10.2465  -17.1087   27.2438 C   0  0  0  0  0  0  0  0  0  0  0  0
    9.0570  -17.6993   26.8747 O   0  0  0  0  0  0  0  0  0  0  0  0
   10.9484  -17.8253   28.0491 O   0  0  0  0  0  0  0  0  0  0  0  0
  2 12  2  0
  2  1  1  0
  3  2  1  0
  4  5  1  0
  4  3  2  0
  5 11  2  0
  6  5  1  0
  7  6  1  0
  7  8  1  6
  9 13  1  0
  9  7  1  0
 10  9  2  0
 11 12  1  0
 14 25  1  0
 14 13  1  0
 14 15  1  1
 16 17  2  0
 16 15  1  0
 18 17  1  0
 19 24  2  0
 19 18  1  0
 20 19  1  0
 21 22  1  0
 21 20  2  0
 22 23  2  0
 23 24  1  0
 24 16  1  0
 25 32  1  0
 26 25  2  0
 28 27  1  0
 29 28  1  0
 29 30  1  1
 31 33  1  0
 31 29  1  0
 31 32  1  6
 33 34  1  0
 35 33  2  0
M  END
$$$$
