YWI.pdb
     RDKit          3D

 35 37  0  0  1  0  0  0  0  0999 V2000
   14.3499  -22.0765   17.3983 O   0  0  0  0  0  0  0  0  0  0  0  0
   13.9426  -21.0174   18.2349 C   0  0  0  0  0  0  0  0  0  0  0  0
   14.3458  -19.7264   17.9788 C   0  0  0  0  0  0  0  0  0  0  0  0
   13.9215  -18.7178   18.8269 C   0  0  0  0  0  0  0  0  0  0  0  0
   13.1162  -18.9868   19.9027 C   0  0  0  0  0  0  0  0  0  0  0  0
   12.6808  -17.8931   20.7847 C   0  0  0  0  0  0  0  0  0  0  0  0
   11.2809  -17.4752   20.3531 C   0  0  2  0  0  0  0  0  0  0  0  0
   11.4364  -16.8121   19.0700 N   0  0  0  0  0  0  0  0  0  0  0  0
   10.7987  -16.5183   21.3764 C   0  0  0  0  0  0  0  0  0  0  0  0
   11.1015  -15.3066   21.2600 O   0  0  0  0  0  0  0  0  0  0  0  0
   12.7167  -20.2709   20.1552 C   0  0  0  0  0  0  0  0  0  0  0  0
   13.1374  -21.2851   19.3110 C   0  0  0  0  0  0  0  0  0  0  0  0
   10.0237  -16.9710   22.4432 N   0  0  0  0  0  0  0  0  0  0  0  0
    9.4130  -16.0567   23.4330 C   0  0  1  0  0  0  0  0  0  0  0  0
    7.9542  -16.4184   23.4298 C   0  0  0  0  0  0  0  0  0  0  0  0
    7.1342  -15.6817   24.4055 C   0  0  0  0  0  0  0  0  0  0  0  0
    6.4100  -16.2106   25.4433 C   0  0  0  0  0  0  0  0  0  0  0  0
    5.7779  -15.2257   26.0980 N   0  0  0  0  0  0  0  0  0  0  0  0
    6.0711  -14.0452   25.5102 C   0  0  0  0  0  0  0  0  0  0  0  0
    5.6717  -12.7436   25.8060 C   0  0  0  0  0  0  0  0  0  0  0  0
    6.1229  -11.6940   25.0346 C   0  0  0  0  0  0  0  0  0  0  0  0
    6.9672  -11.9679   23.9792 C   0  0  0  0  0  0  0  0  0  0  0  0
    7.3578  -13.2585   23.6929 C   0  0  0  0  0  0  0  0  0  0  0  0
    6.9086  -14.3229   24.4645 C   0  0  0  0  0  0  0  0  0  0  0  0
   10.1237  -16.3170   24.6950 C   0  0  0  0  0  0  0  0  0  0  0  0
   10.4052  -17.5199   25.0561 O   0  0  0  0  0  0  0  0  0  0  0  0
   10.9887  -13.6968   30.0205 C   0  0  0  0  0  0  0  0  0  0  0  0
   10.2368  -14.7943   29.3580 C   0  0  0  0  0  0  0  0  0  0  0  0
   10.0571  -14.7076   27.8936 C   0  0  2  0  0  0  0  0  0  0  0  0
    8.5989  -14.5452   27.5219 C   0  0  0  0  0  0  0  0  0  0  0  0
   10.8377  -15.6253   27.0284 C   0  0  2  0  0  0  0  0  0  0  0  0
   10.5614  -15.3290   25.6085 N   0  0  0  0  0  0  0  0  0  0  0  0
   10.7626  -17.0531   27.3013 C   0  0  0  0  0  0  0  0  0  0  0  0
    9.6889  -17.8920   27.0938 O   0  0  0  0  0  0  0  0  0  0  0  0
   11.7908  -17.6465   27.7970 O   0  0  0  0  0  0  0  0  0  0  0  0
  2 12  2  0
  2  1  1  0
  3  2  1  0
  4  5  1  0
  4  3  2  0
  5 11  2  0
  6  5  1  0
  7  6  1  0
  7  8  1  6
  9 13  1  0
  9  7  1  0
 10  9  2  0
 11 12  1  0
 14 25  1  0
 14 13  1  0
 14 15  1  1
 16 17  2  0
 16 15  1  0
 18 17  1  0
 19 24  2  0
 19 18  1  0
 20 19  1  0
 21 22  1  0
 21 20  2  0
 22 23  2  0
 23 24  1  0
 24 16  1  0
 25 32  1  0
 26 25  2  0
 28 27  1  0
 29 28  1  0
 29 30  1  1
 31 33  1  0
 31 29  1  0
 31 32  1  6
 33 34  1  0
 35 33  2  0
M  END
$$$$
