YWI.pdb
     RDKit          3D

 35 37  0  0  1  0  0  0  0  0999 V2000
   12.8908  -23.2871   18.1348 O   0  0  0  0  0  0  0  0  0  0  0  0
   12.7489  -22.0990   18.8804 C   0  0  0  0  0  0  0  0  0  0  0  0
   13.4925  -21.8934   20.0203 C   0  0  0  0  0  0  0  0  0  0  0  0
   13.3204  -20.7118   20.7210 C   0  0  0  0  0  0  0  0  0  0  0  0
   12.4310  -19.7588   20.2981 C   0  0  0  0  0  0  0  0  0  0  0  0
   12.2718  -18.5127   21.0635 C   0  0  0  0  0  0  0  0  0  0  0  0
   11.1498  -17.7094   20.4184 C   0  0  2  0  0  0  0  0  0  0  0  0
   11.7320  -17.0701   19.2512 N   0  0  0  0  0  0  0  0  0  0  0  0
   10.7395  -16.6933   21.4158 C   0  0  0  0  0  0  0  0  0  0  0  0
   11.3292  -15.5863   21.4274 O   0  0  0  0  0  0  0  0  0  0  0  0
   11.6929  -19.9656   19.1646 C   0  0  0  0  0  0  0  0  0  0  0  0
   11.8598  -21.1453   18.4586 C   0  0  0  0  0  0  0  0  0  0  0  0
    9.7154  -16.9769   22.3183 N   0  0  0  0  0  0  0  0  0  0  0  0
    9.1970  -15.9788   23.2795 C   0  0  1  0  0  0  0  0  0  0  0  0
    7.7118  -16.2087   23.2968 C   0  0  0  0  0  0  0  0  0  0  0  0
    6.9827  -15.4516   24.3273 C   0  0  0  0  0  0  0  0  0  0  0  0
    6.1836  -15.9625   25.3182 C   0  0  0  0  0  0  0  0  0  0  0  0
    5.6769  -14.9588   26.0490 N   0  0  0  0  0  0  0  0  0  0  0  0
    6.1277  -13.7836   25.5585 C   0  0  0  0  0  0  0  0  0  0  0  0
    5.8970  -12.4688   25.9574 C   0  0  0  0  0  0  0  0  0  0  0  0
    6.4896  -11.4288   25.2736 C   0  0  0  0  0  0  0  0  0  0  0  0
    7.3038  -11.7256   24.2008 C   0  0  0  0  0  0  0  0  0  0  0  0
    7.5272  -13.0291   23.8123 C   0  0  0  0  0  0  0  0  0  0  0  0
    6.9345  -14.0840   24.4950 C   0  0  0  0  0  0  0  0  0  0  0  0
    9.8925  -16.2589   24.5457 C   0  0  0  0  0  0  0  0  0  0  0  0
   10.3328  -17.4396   24.8079 O   0  0  0  0  0  0  0  0  0  0  0  0
   11.0294  -13.5689   30.0839 C   0  0  0  0  0  0  0  0  0  0  0  0
   10.9194  -14.7963   29.2531 C   0  0  0  0  0  0  0  0  0  0  0  0
   10.3936  -14.6430   27.8804 C   0  0  2  0  0  0  0  0  0  0  0  0
    8.9610  -14.1545   27.8862 C   0  0  0  0  0  0  0  0  0  0  0  0
   10.7055  -15.6935   26.8807 C   0  0  2  0  0  0  0  0  0  0  0  0
   10.1490  -15.3136   25.5669 N   0  0  0  0  0  0  0  0  0  0  0  0
   10.3891  -17.0739   27.2167 C   0  0  0  0  0  0  0  0  0  0  0  0
    9.3423  -17.8347   26.7420 O   0  0  0  0  0  0  0  0  0  0  0  0
   11.1423  -17.6992   28.0514 O   0  0  0  0  0  0  0  0  0  0  0  0
  2 12  2  0
  2  1  1  0
  3  2  1  0
  4  5  1  0
  4  3  2  0
  5 11  2  0
  6  5  1  0
  7  6  1  0
  7  8  1  6
  9 13  1  0
  9  7  1  0
 10  9  2  0
 11 12  1  0
 14 25  1  0
 14 13  1  0
 14 15  1  1
 16 17  2  0
 16 15  1  0
 18 17  1  0
 19 24  2  0
 19 18  1  0
 20 19  1  0
 21 22  1  0
 21 20  2  0
 22 23  2  0
 23 24  1  0
 24 16  1  0
 25 32  1  0
 26 25  2  0
 28 27  1  0
 29 28  1  0
 29 30  1  1
 31 33  1  0
 31 29  1  0
 31 32  1  6
 33 34  1  0
 35 33  2  0
M  END
$$$$
