YWI.pdb
     RDKit          3D

 35 37  0  0  1  0  0  0  0  0999 V2000
   14.8185  -21.6844   17.1383 O   0  0  0  0  0  0  0  0  0  0  0  0
   14.2786  -20.6498   17.9293 C   0  0  0  0  0  0  0  0  0  0  0  0
   14.5665  -19.3325   17.6528 C   0  0  0  0  0  0  0  0  0  0  0  0
   14.0141  -18.3494   18.4561 C   0  0  0  0  0  0  0  0  0  0  0  0
   13.1959  -18.6690   19.5080 C   0  0  0  0  0  0  0  0  0  0  0  0
   12.6228  -17.6017   20.3423 C   0  0  0  0  0  0  0  0  0  0  0  0
   11.1123  -17.6169   20.1464 C   0  0  2  0  0  0  0  0  0  0  0  0
   10.8828  -17.2597   18.7573 N   0  0  0  0  0  0  0  0  0  0  0  0
   10.5659  -16.5748   21.0469 C   0  0  0  0  0  0  0  0  0  0  0  0
   10.8634  -15.3752   20.8326 O   0  0  0  0  0  0  0  0  0  0  0  0
   12.9112  -19.9793   19.7809 C   0  0  0  0  0  0  0  0  0  0  0  0
   13.4603  -20.9681   18.9815 C   0  0  0  0  0  0  0  0  0  0  0  0
    9.7377  -16.9360   22.1087 N   0  0  0  0  0  0  0  0  0  0  0  0
    9.2157  -15.9553   23.0856 C   0  0  1  0  0  0  0  0  0  0  0  0
    7.7272  -16.1629   23.0689 C   0  0  0  0  0  0  0  0  0  0  0  0
    6.9975  -15.4816   24.1508 C   0  0  0  0  0  0  0  0  0  0  0  0
    6.1422  -16.0527   25.0584 C   0  0  0  0  0  0  0  0  0  0  0  0
    5.6561  -15.1064   25.8747 N   0  0  0  0  0  0  0  0  0  0  0  0
    6.1761  -13.9101   25.5235 C   0  0  0  0  0  0  0  0  0  0  0  0
    5.9911  -12.6337   26.0506 C   0  0  0  0  0  0  0  0  0  0  0  0
    6.6534  -11.5587   25.4974 C   0  0  0  0  0  0  0  0  0  0  0  0
    7.4902  -11.7824   24.4244 C   0  0  0  0  0  0  0  0  0  0  0  0
    7.6681  -13.0482   23.9084 C   0  0  0  0  0  0  0  0  0  0  0  0
    7.0051  -14.1379   24.4591 C   0  0  0  0  0  0  0  0  0  0  0  0
    9.8825  -16.2785   24.3570 C   0  0  0  0  0  0  0  0  0  0  0  0
   10.2742  -17.4784   24.6086 O   0  0  0  0  0  0  0  0  0  0  0  0
   11.5135  -13.2983   29.5873 C   0  0  0  0  0  0  0  0  0  0  0  0
   11.6294  -14.4793   28.6927 C   0  0  0  0  0  0  0  0  0  0  0  0
   10.5701  -14.6714   27.6801 C   0  0  2  0  0  0  0  0  0  0  0  0
    9.1905  -14.5245   28.2853 C   0  0  0  0  0  0  0  0  0  0  0  0
   10.7214  -15.7711   26.6962 C   0  0  2  0  0  0  0  0  0  0  0  0
   10.1603  -15.3573   25.3946 N   0  0  0  0  0  0  0  0  0  0  0  0
   10.2640  -17.0991   27.0780 C   0  0  0  0  0  0  0  0  0  0  0  0
    9.0166  -17.6485   26.8730 O   0  0  0  0  0  0  0  0  0  0  0  0
   11.0807  -17.8884   27.6821 O   0  0  0  0  0  0  0  0  0  0  0  0
  2 12  2  0
  2  1  1  0
  3  2  1  0
  4  5  1  0
  4  3  2  0
  5 11  2  0
  6  5  1  0
  7  6  1  0
  7  8  1  6
  9 13  1  0
  9  7  1  0
 10  9  2  0
 11 12  1  0
 14 25  1  0
 14 13  1  0
 14 15  1  1
 16 17  2  0
 16 15  1  0
 18 17  1  0
 19 24  2  0
 19 18  1  0
 20 19  1  0
 21 22  1  0
 21 20  2  0
 22 23  2  0
 23 24  1  0
 24 16  1  0
 25 32  1  0
 26 25  2  0
 28 27  1  0
 29 28  1  0
 29 30  1  1
 31 33  1  0
 31 29  1  0
 31 32  1  6
 33 34  1  0
 35 33  2  0
M  END
$$$$
