YWI.pdb
     RDKit          3D

 35 37  0  0  1  0  0  0  0  0999 V2000
   14.2245  -22.5564   17.9053 O   0  0  0  0  0  0  0  0  0  0  0  0
   13.8397  -21.4736   18.7221 C   0  0  0  0  0  0  0  0  0  0  0  0
   14.5422  -20.2902   18.6949 C   0  0  0  0  0  0  0  0  0  0  0  0
   14.1284  -19.2535   19.5140 C   0  0  0  0  0  0  0  0  0  0  0  0
   13.0430  -19.3909   20.3393 C   0  0  0  0  0  0  0  0  0  0  0  0
   12.6271  -18.2704   21.1969 C   0  0  0  0  0  0  0  0  0  0  0  0
   11.4088  -17.6192   20.5549 C   0  0  2  0  0  0  0  0  0  0  0  0
   11.8895  -16.9668   19.3493 N   0  0  0  0  0  0  0  0  0  0  0  0
   10.9141  -16.6152   21.5258 C   0  0  0  0  0  0  0  0  0  0  0  0
   11.5499  -15.5425   21.6619 O   0  0  0  0  0  0  0  0  0  0  0  0
   12.3463  -20.5683   20.3646 C   0  0  0  0  0  0  0  0  0  0  0  0
   12.7545  -21.6097   19.5479 C   0  0  0  0  0  0  0  0  0  0  0  0
    9.7618  -16.8722   22.2675 N   0  0  0  0  0  0  0  0  0  0  0  0
    9.2370  -15.9317   23.2817 C   0  0  1  0  0  0  0  0  0  0  0  0
    7.7444  -15.9940   23.1164 C   0  0  0  0  0  0  0  0  0  0  0  0
    6.9792  -15.2745   24.1478 C   0  0  0  0  0  0  0  0  0  0  0  0
    6.0762  -15.8093   25.0308 C   0  0  0  0  0  0  0  0  0  0  0  0
    5.5702  -14.8353   25.8012 N   0  0  0  0  0  0  0  0  0  0  0  0
    6.1242  -13.6563   25.4436 C   0  0  0  0  0  0  0  0  0  0  0  0
    5.9369  -12.3643   25.9302 C   0  0  0  0  0  0  0  0  0  0  0  0
    6.6399  -11.3138   25.3801 C   0  0  0  0  0  0  0  0  0  0  0  0
    7.5191  -11.5773   24.3509 C   0  0  0  0  0  0  0  0  0  0  0  0
    7.6989  -12.8584   23.8749 C   0  0  0  0  0  0  0  0  0  0  0  0
    6.9950  -13.9236   24.4227 C   0  0  0  0  0  0  0  0  0  0  0  0
    9.7490  -16.4228   24.5710 C   0  0  0  0  0  0  0  0  0  0  0  0
    9.9556  -17.6787   24.7620 O   0  0  0  0  0  0  0  0  0  0  0  0
    9.7473  -13.4310   29.6071 C   0  0  0  0  0  0  0  0  0  0  0  0
    9.5250  -14.4602   28.5583 C   0  0  0  0  0  0  0  0  0  0  0  0
   10.7206  -15.0902   27.9601 C   0  0  2  0  0  0  0  0  0  0  0  0
   11.7679  -14.0596   27.5966 C   0  0  0  0  0  0  0  0  0  0  0  0
   10.5280  -16.1800   26.9725 C   0  0  2  0  0  0  0  0  0  0  0  0
   10.0614  -15.6155   25.6904 N   0  0  0  0  0  0  0  0  0  0  0  0
    9.7327  -17.3322   27.3707 C   0  0  0  0  0  0  0  0  0  0  0  0
    8.5331  -17.7496   26.8353 O   0  0  0  0  0  0  0  0  0  0  0  0
   10.1543  -18.0770   28.3310 O   0  0  0  0  0  0  0  0  0  0  0  0
  2 12  2  0
  2  1  1  0
  3  2  1  0
  4  5  1  0
  4  3  2  0
  5 11  2  0
  6  5  1  0
  7  6  1  0
  7  8  1  6
  9 13  1  0
  9  7  1  0
 10  9  2  0
 11 12  1  0
 14 25  1  0
 14 13  1  0
 14 15  1  1
 16 17  2  0
 16 15  1  0
 18 17  1  0
 19 24  2  0
 19 18  1  0
 20 19  1  0
 21 22  1  0
 21 20  2  0
 22 23  2  0
 23 24  1  0
 24 16  1  0
 25 32  1  0
 26 25  2  0
 28 27  1  0
 29 28  1  0
 29 30  1  6
 31 33  1  0
 31 29  1  0
 31 32  1  6
 33 34  1  0
 35 33  2  0
M  END
$$$$
