YWI.pdb
     RDKit          3D

 35 37  0  0  1  0  0  0  0  0999 V2000
   12.8040  -24.5360   19.7593 O   0  0  0  0  0  0  0  0  0  0  0  0
   12.7268  -23.2030   20.2119 C   0  0  0  0  0  0  0  0  0  0  0  0
   11.7382  -22.8159   21.0879 C   0  0  0  0  0  0  0  0  0  0  0  0
   11.7008  -21.4966   21.5059 C   0  0  0  0  0  0  0  0  0  0  0  0
   12.6238  -20.5854   21.0635 C   0  0  0  0  0  0  0  0  0  0  0  0
   12.5586  -19.1909   21.5271 C   0  0  0  0  0  0  0  0  0  0  0  0
   11.4422  -18.4957   20.7585 C   0  0  2  0  0  0  0  0  0  0  0  0
   12.0127  -18.1116   19.4791 N   0  0  0  0  0  0  0  0  0  0  0  0
   11.0805  -17.2943   21.5467 C   0  0  0  0  0  0  0  0  0  0  0  0
   11.7443  -16.2427   21.3832 O   0  0  0  0  0  0  0  0  0  0  0  0
   13.6057  -20.9726   20.1926 C   0  0  0  0  0  0  0  0  0  0  0  0
   13.6492  -22.2909   19.7701 C   0  0  0  0  0  0  0  0  0  0  0  0
   10.0195  -17.3470   22.4497 N   0  0  0  0  0  0  0  0  0  0  0  0
    9.6538  -16.2091   23.3216 C   0  0  1  0  0  0  0  0  0  0  0  0
    8.2026  -15.9569   23.0225 C   0  0  0  0  0  0  0  0  0  0  0  0
    7.6868  -14.6685   23.5136 C   0  0  0  0  0  0  0  0  0  0  0  0
    7.7374  -13.4584   22.8699 C   0  0  0  0  0  0  0  0  0  0  0  0
    7.1827  -12.5142   23.6440 N   0  0  0  0  0  0  0  0  0  0  0  0
    6.7622  -13.0789   24.7969 C   0  0  0  0  0  0  0  0  0  0  0  0
    6.1305  -12.5350   25.9133 C   0  0  0  0  0  0  0  0  0  0  0  0
    5.8008  -13.3445   26.9792 C   0  0  0  0  0  0  0  0  0  0  0  0
    6.1106  -14.6863   26.9073 C   0  0  0  0  0  0  0  0  0  0  0  0
    6.7356  -15.2171   25.7992 C   0  0  0  0  0  0  0  0  0  0  0  0
    7.0718  -14.4094   24.7200 C   0  0  0  0  0  0  0  0  0  0  0  0
    9.9456  -16.6583   24.6921 C   0  0  0  0  0  0  0  0  0  0  0  0
   10.0399  -17.9119   24.9681 O   0  0  0  0  0  0  0  0  0  0  0  0
   10.8288  -12.7723   28.6819 C   0  0  0  0  0  0  0  0  0  0  0  0
   10.9770  -13.8875   27.7108 C   0  0  0  0  0  0  0  0  0  0  0  0
   10.4973  -15.2213   28.1292 C   0  0  2  0  0  0  0  0  0  0  0  0
   10.9885  -15.5780   29.5157 C   0  0  0  0  0  0  0  0  0  0  0  0
   10.5223  -16.3259   27.1396 C   0  0  2  0  0  0  0  0  0  0  0  0
   10.1501  -15.8109   25.8068 N   0  0  0  0  0  0  0  0  0  0  0  0
    9.8020  -17.5493   27.4607 C   0  0  0  0  0  0  0  0  0  0  0  0
   10.2878  -18.6636   28.1105 O   0  0  0  0  0  0  0  0  0  0  0  0
    8.5668  -17.6524   27.1164 O   0  0  0  0  0  0  0  0  0  0  0  0
  2 12  2  0
  2  1  1  0
  3  2  1  0
  4  5  1  0
  4  3  2  0
  5 11  2  0
  6  5  1  0
  7  6  1  0
  7  8  1  6
  9 13  1  0
  9  7  1  0
 10  9  2  0
 11 12  1  0
 14 25  1  0
 14 13  1  0
 14 15  1  1
 16 17  2  0
 16 15  1  0
 18 17  1  0
 19 24  2  0
 19 18  1  0
 20 19  1  0
 21 22  1  0
 21 20  2  0
 22 23  2  0
 23 24  1  0
 24 16  1  0
 25 32  1  0
 26 25  2  0
 28 27  1  0
 29 28  1  0
 29 30  1  1
 31 33  1  0
 31 29  1  0
 31 32  1  6
 33 34  1  0
 35 33  2  0
M  END
$$$$
