YWI.pdb
     RDKit          3D

 35 37  0  0  1  0  0  0  0  0999 V2000
   15.1367  -20.8586   17.0410 O   0  0  0  0  0  0  0  0  0  0  0  0
   14.4801  -19.9416   17.8869 C   0  0  0  0  0  0  0  0  0  0  0  0
   13.5329  -20.3728   18.7878 C   0  0  0  0  0  0  0  0  0  0  0  0
   12.9135  -19.4371   19.5988 C   0  0  0  0  0  0  0  0  0  0  0  0
   13.2287  -18.1060   19.5155 C   0  0  0  0  0  0  0  0  0  0  0  0
   12.5541  -17.1362   20.3920 C   0  0  0  0  0  0  0  0  0  0  0  0
   11.0621  -17.1945   20.0908 C   0  0  2  0  0  0  0  0  0  0  0  0
   10.8981  -16.6384   18.7589 N   0  0  0  0  0  0  0  0  0  0  0  0
   10.4007  -16.3321   21.0979 C   0  0  0  0  0  0  0  0  0  0  0  0
   10.3353  -15.0975   20.8860 O   0  0  0  0  0  0  0  0  0  0  0  0
   14.1706  -17.6798   18.6191 C   0  0  0  0  0  0  0  0  0  0  0  0
   14.7943  -18.6103   17.8046 C   0  0  0  0  0  0  0  0  0  0  0  0
    9.8657  -16.8967   22.2549 N   0  0  0  0  0  0  0  0  0  0  0  0
    9.2020  -16.0925   23.3045 C   0  0  1  0  0  0  0  0  0  0  0  0
    7.8161  -16.6666   23.3987 C   0  0  0  0  0  0  0  0  0  0  0  0
    6.9257  -15.9758   24.3458 C   0  0  0  0  0  0  0  0  0  0  0  0
    5.7392  -16.4399   24.8538 C   0  0  0  0  0  0  0  0  0  0  0  0
    5.2080  -15.5173   25.6692 N   0  0  0  0  0  0  0  0  0  0  0  0
    6.0252  -14.4425   25.7121 C   0  0  0  0  0  0  0  0  0  0  0  0
    5.9263  -13.2361   26.4020 C   0  0  0  0  0  0  0  0  0  0  0  0
    6.9164  -12.2859   26.2709 C   0  0  0  0  0  0  0  0  0  0  0  0
    7.9892  -12.5622   25.4496 C   0  0  0  0  0  0  0  0  0  0  0  0
    8.0799  -13.7582   24.7703 C   0  0  0  0  0  0  0  0  0  0  0  0
    7.0872  -14.7220   24.8960 C   0  0  0  0  0  0  0  0  0  0  0  0
   10.0348  -16.2565   24.5065 C   0  0  0  0  0  0  0  0  0  0  0  0
   11.0353  -17.0661   24.5090 O   0  0  0  0  0  0  0  0  0  0  0  0
    9.5273  -12.7075   28.8697 C   0  0  0  0  0  0  0  0  0  0  0  0
   10.0640  -13.5638   27.7800 C   0  0  0  0  0  0  0  0  0  0  0  0
   10.2079  -15.0080   28.0588 C   0  0  2  0  0  0  0  0  0  0  0  0
   10.9012  -15.2514   29.3821 C   0  0  0  0  0  0  0  0  0  0  0  0
   10.6143  -15.9066   26.9509 C   0  0  2  0  0  0  0  0  0  0  0  0
    9.8465  -15.5771   25.7334 N   0  0  0  0  0  0  0  0  0  0  0  0
   10.6291  -17.3402   27.2023 C   0  0  0  0  0  0  0  0  0  0  0  0
   11.6945  -18.1080   27.6212 O   0  0  0  0  0  0  0  0  0  0  0  0
    9.5479  -18.0140   27.0245 O   0  0  0  0  0  0  0  0  0  0  0  0
  2 12  2  0
  2  1  1  0
  3  2  1  0
  4  5  1  0
  4  3  2  0
  5 11  2  0
  6  5  1  0
  7  6  1  0
  7  8  1  6
  9 13  1  0
  9  7  1  0
 10  9  2  0
 11 12  1  0
 14 25  1  0
 14 13  1  0
 14 15  1  1
 16 17  2  0
 16 15  1  0
 18 17  1  0
 19 24  2  0
 19 18  1  0
 20 19  1  0
 21 22  1  0
 21 20  2  0
 22 23  2  0
 23 24  1  0
 24 16  1  0
 25 32  1  0
 26 25  2  0
 28 27  1  0
 29 28  1  0
 29 30  1  1
 31 33  1  0
 31 29  1  0
 31 32  1  6
 33 34  1  0
 35 33  2  0
M  END
$$$$
