VTR.pdb
     RDKit          3D

 26 25  0  0  1  0  0  0  0  0999 V2000
   25.0038  -20.4078   -9.1314 C   0  0  0  0  0  0  0  0  0  0  0  0
   26.5000  -20.3503   -9.1622 C   0  0  1  0  0  0  0  0  0  0  0  0
   27.0552  -20.5585   -7.7855 C   0  0  0  0  0  0  0  0  0  0  0  0
   27.1139  -21.2902  -10.1831 C   0  0  2  0  0  0  0  0  0  0  0  0
   28.5307  -21.3594  -10.0964 N   0  0  0  0  0  0  0  0  0  0  0  0
   26.5989  -20.8652  -11.5053 C   0  0  0  0  0  0  0  0  0  0  0  0
   27.1480  -19.8327  -11.9986 O   0  0  0  0  0  0  0  0  0  0  0  0
   26.7925  -22.5732  -14.6376 C   0  0  0  0  0  0  0  0  0  0  0  0
   25.3767  -22.0846  -14.5487 C   0  0  1  0  0  0  0  0  0  0  0  0
   24.4861  -23.0988  -14.3251 O   0  0  0  0  0  0  0  0  0  0  0  0
   25.2126  -20.9745  -13.5330 C   0  0  2  0  0  0  0  0  0  0  0  0
   25.5850  -21.4935  -12.2322 N   0  0  0  0  0  0  0  0  0  0  0  0
   23.8421  -20.4046  -13.5208 C   0  0  0  0  0  0  0  0  0  0  0  0
   23.1464  -20.4569  -12.4639 O   0  0  0  0  0  0  0  0  0  0  0  0
   18.9389  -15.3786  -19.3736 N   0  0  0  0  0  0  0  0  0  0  0  0
   18.2488  -15.6538  -18.1693 C   0  0  0  0  0  0  0  0  0  0  0  0
   17.0574  -15.2092  -17.9736 N   0  0  0  0  0  0  0  0  0  0  0  0
   18.8342  -16.4273  -17.1291 N   0  0  0  0  0  0  0  0  0  0  0  0
   20.2151  -16.8615  -17.1248 C   0  0  0  0  0  0  0  0  0  0  0  0
   20.3976  -17.7235  -15.8715 C   0  0  0  0  0  0  0  0  0  0  0  0
   21.7739  -18.3005  -15.8118 C   0  0  0  0  0  0  0  0  0  0  0  0
   21.9527  -19.2048  -14.6540 C   0  0  2  0  0  0  0  0  0  0  0  0
   23.3085  -19.8072  -14.6671 N   0  0  0  0  0  0  0  0  0  0  0  0
   20.9365  -20.2586  -14.5088 C   0  0  0  0  0  0  0  0  0  0  0  0
   19.8343  -20.1043  -13.6915 O   0  0  0  0  0  0  0  0  0  0  0  0
   21.0680  -21.3582  -15.1526 O   0  0  0  0  0  0  0  0  0  0  0  0
  2  1  1  1
  2  3  1  0
  2  4  1  0
  4  5  1  6
  6  7  2  0
  6  4  1  0
  9  8  1  1
 10  9  1  0
 11  9  1  0
 11 12  1  1
 12  6  1  0
 13 11  1  0
 14 13  2  0
 16 15  1  0
 16 17  2  0
 18 16  1  0
 19 18  1  0
 20 19  1  0
 21 20  1  0
 22 21  1  6
 22 23  1  0
 23 13  1  0
 24 22  1  0
 24 25  1  0
 26 24  2  0
M  END
$$$$
