VTR.pdb
     RDKit          3D

 26 25  0  0  1  0  0  0  0  0999 V2000
   20.2933  -15.5364  -14.6303 C   0  0  0  0  0  0  0  0  0  0  0  0
   19.4729  -16.1556  -15.7195 C   0  0  1  0  0  0  0  0  0  0  0  0
   19.0576  -17.5425  -15.3310 C   0  0  0  0  0  0  0  0  0  0  0  0
   18.2970  -15.2961  -16.1451 C   0  0  2  0  0  0  0  0  0  0  0  0
   17.5043  -15.8982  -17.1594 N   0  0  0  0  0  0  0  0  0  0  0  0
   18.8557  -13.9726  -16.5058 C   0  0  0  0  0  0  0  0  0  0  0  0
   19.5905  -13.9541  -17.5405 O   0  0  0  0  0  0  0  0  0  0  0  0
   17.0741  -11.3570  -17.8851 C   0  0  0  0  0  0  0  0  0  0  0  0
   17.8600  -10.7210  -16.7765 C   0  0  1  0  0  0  0  0  0  0  0  0
   17.0903  -10.4486  -15.6788 O   0  0  0  0  0  0  0  0  0  0  0  0
   19.0856  -11.5268  -16.4029 C   0  0  2  0  0  0  0  0  0  0  0  0
   18.6435  -12.7762  -15.8167 N   0  0  0  0  0  0  0  0  0  0  0  0
   20.0014  -10.7922  -15.4946 C   0  0  0  0  0  0  0  0  0  0  0  0
   19.7922  -10.8008  -14.2456 O   0  0  0  0  0  0  0  0  0  0  0  0
   27.5574  -12.3904  -17.1178 N   0  0  0  0  0  0  0  0  0  0  0  0
   26.6839  -12.6015  -16.0247 C   0  0  0  0  0  0  0  0  0  0  0  0
   26.5408  -13.7716  -15.5090 N   0  0  0  0  0  0  0  0  0  0  0  0
   25.9310  -11.5402  -15.4503 N   0  0  0  0  0  0  0  0  0  0  0  0
   24.9152  -10.7935  -16.1616 C   0  0  0  0  0  0  0  0  0  0  0  0
   24.3955   -9.7290  -15.1902 C   0  0  0  0  0  0  0  0  0  0  0  0
   23.2519   -8.9730  -15.7827 C   0  0  0  0  0  0  0  0  0  0  0  0
   21.9686   -9.2827  -15.1137 C   0  0  2  0  0  0  0  0  0  0  0  0
   21.0975  -10.0890  -16.0040 N   0  0  0  0  0  0  0  0  0  0  0  0
   21.2245   -8.1224  -14.5998 C   0  0  0  0  0  0  0  0  0  0  0  0
   21.3786   -7.6701  -13.3044 O   0  0  0  0  0  0  0  0  0  0  0  0
   20.4038   -7.5062  -15.3665 O   0  0  0  0  0  0  0  0  0  0  0  0
  2  1  1  1
  2  3  1  0
  2  4  1  0
  4  5  1  6
  6  7  2  0
  6  4  1  0
  9  8  1  6
 10  9  1  0
 11  9  1  0
 11 12  1  1
 12  6  1  0
 13 11  1  0
 14 13  2  0
 16 15  1  0
 16 17  2  0
 18 16  1  0
 19 18  1  0
 20 19  1  0
 21 20  1  0
 22 21  1  6
 22 23  1  0
 23 13  1  0
 24 22  1  0
 24 25  1  0
 26 24  2  0
M  END
$$$$
