VTR.pdb
     RDKit          3D

 26 25  0  0  1  0  0  0  0  0999 V2000
   22.5825  -29.4277   -9.2797 C   0  0  0  0  0  0  0  0  0  0  0  0
   22.4814  -30.8214   -9.8185 C   0  0  1  0  0  0  0  0  0  0  0  0
   23.1953  -31.7799   -8.9138 C   0  0  0  0  0  0  0  0  0  0  0  0
   21.0543  -31.2495  -10.1063 C   0  0  2  0  0  0  0  0  0  0  0  0
   20.9616  -32.5704  -10.6222 N   0  0  0  0  0  0  0  0  0  0  0  0
   20.4734  -30.2053  -10.9817 C   0  0  0  0  0  0  0  0  0  0  0  0
   20.8603  -30.2293  -12.1903 O   0  0  0  0  0  0  0  0  0  0  0  0
   17.6254  -30.0384  -12.7403 C   0  0  0  0  0  0  0  0  0  0  0  0
   17.6266  -28.7680  -11.9420 C   0  0  1  0  0  0  0  0  0  0  0  0
   16.8314  -28.8469  -10.8316 O   0  0  0  0  0  0  0  0  0  0  0  0
   19.0253  -28.3123  -11.5857 C   0  0  2  0  0  0  0  0  0  0  0  0
   19.5585  -29.2239  -10.5934 N   0  0  0  0  0  0  0  0  0  0  0  0
   19.0688  -26.9058  -11.1134 C   0  0  0  0  0  0  0  0  0  0  0  0
   18.9716  -26.6523   -9.8764 O   0  0  0  0  0  0  0  0  0  0  0  0
   20.5528  -18.8147  -15.0892 N   0  0  0  0  0  0  0  0  0  0  0  0
   20.2434  -18.7008  -13.7130 C   0  0  0  0  0  0  0  0  0  0  0  0
   20.1268  -17.5474  -13.1548 N   0  0  0  0  0  0  0  0  0  0  0  0
   20.0486  -19.8449  -12.8907 N   0  0  0  0  0  0  0  0  0  0  0  0
   20.1878  -21.2080  -13.3573 C   0  0  0  0  0  0  0  0  0  0  0  0
   19.6727  -22.1097  -12.2310 C   0  0  0  0  0  0  0  0  0  0  0  0
   19.7217  -23.5483  -12.6290 C   0  0  0  0  0  0  0  0  0  0  0  0
   19.2162  -24.4422  -11.5634 C   0  0  2  0  0  0  0  0  0  0  0  0
   19.2173  -25.8532  -12.0221 N   0  0  0  0  0  0  0  0  0  0  0  0
   17.8962  -24.0934  -11.0155 C   0  0  0  0  0  0  0  0  0  0  0  0
   17.7562  -23.4113   -9.8233 O   0  0  0  0  0  0  0  0  0  0  0  0
   16.8371  -24.4294  -11.6530 O   0  0  0  0  0  0  0  0  0  0  0  0
  2  1  1  1
  2  3  1  0
  2  4  1  0
  4  5  1  6
  6  7  2  0
  6  4  1  0
  9  8  1  1
 10  9  1  0
 11  9  1  0
 11 12  1  1
 12  6  1  0
 13 11  1  0
 14 13  2  0
 16 15  1  0
 16 17  2  0
 18 16  1  0
 19 18  1  0
 20 19  1  0
 21 20  1  0
 22 21  1  6
 22 23  1  0
 23 13  1  0
 24 22  1  0
 24 25  1  0
 26 24  2  0
M  END
$$$$
