VTR.pdb
     RDKit          3D

 26 25  0  0  1  0  0  0  0  0999 V2000
   23.5082  -14.7986  -15.3038 C   0  0  0  0  0  0  0  0  0  0  0  0
   23.9273  -14.4344  -16.6947 C   0  0  1  0  0  0  0  0  0  0  0  0
   23.6299  -12.9901  -16.9643 C   0  0  0  0  0  0  0  0  0  0  0  0
   25.3693  -14.7960  -16.9991 C   0  0  2  0  0  0  0  0  0  0  0  0
   25.7860  -14.3844  -18.2939 N   0  0  0  0  0  0  0  0  0  0  0  0
   25.4982  -16.2495  -16.7448 C   0  0  0  0  0  0  0  0  0  0  0  0
   24.7976  -16.9985  -17.4925 O   0  0  0  0  0  0  0  0  0  0  0  0
   28.4346  -18.4286  -16.9739 C   0  0  0  0  0  0  0  0  0  0  0  0
   27.7586  -18.7535  -15.6744 C   0  0  1  0  0  0  0  0  0  0  0  0
   28.4558  -18.2912  -14.5919 O   0  0  0  0  0  0  0  0  0  0  0  0
   26.3189  -18.2877  -15.6414 C   0  0  2  0  0  0  0  0  0  0  0  0
   26.3076  -16.8447  -15.7744 N   0  0  0  0  0  0  0  0  0  0  0  0
   25.6001  -18.7283  -14.4196 C   0  0  0  0  0  0  0  0  0  0  0  0
   25.6207  -18.0053  -13.3802 O   0  0  0  0  0  0  0  0  0  0  0  0
   18.6772  -21.2739  -12.5931 N   0  0  0  0  0  0  0  0  0  0  0  0
   19.0461  -21.3278  -11.2280 C   0  0  0  0  0  0  0  0  0  0  0  0
   18.3196  -21.9550  -10.3711 N   0  0  0  0  0  0  0  0  0  0  0  0
   20.2258  -20.6975  -10.7442 N   0  0  0  0  0  0  0  0  0  0  0  0
   21.1918  -20.0320  -11.5924 C   0  0  0  0  0  0  0  0  0  0  0  0
   22.0819  -21.1293  -12.1845 C   0  0  0  0  0  0  0  0  0  0  0  0
   22.7895  -20.6458  -13.4076 C   0  0  0  0  0  0  0  0  0  0  0  0
   24.2318  -20.4174  -13.1673 C   0  0  2  0  0  0  0  0  0  0  0  0
   24.8970  -19.9370  -14.4035 N   0  0  0  0  0  0  0  0  0  0  0  0
   24.9714  -21.5609  -12.6111 C   0  0  0  0  0  0  0  0  0  0  0  0
   25.0929  -21.7615  -11.2504 O   0  0  0  0  0  0  0  0  0  0  0  0
   25.5264  -22.4016  -13.4025 O   0  0  0  0  0  0  0  0  0  0  0  0
  2  1  1  1
  2  3  1  0
  2  4  1  0
  4  5  1  6
  6  7  2  0
  6  4  1  0
  9  8  1  6
 10  9  1  0
 11  9  1  0
 11 12  1  1
 12  6  1  0
 13 11  1  0
 14 13  2  0
 16 15  1  0
 16 17  2  0
 18 16  1  0
 19 18  1  0
 20 19  1  0
 21 20  1  0
 22 21  1  6
 22 23  1  0
 23 13  1  0
 24 22  1  0
 24 25  1  0
 26 24  2  0
M  END
$$$$
