VTR.pdb
     RDKit          3D

 26 25  0  0  1  0  0  0  0  0999 V2000
   24.8538  -20.3559   -9.4617 C   0  0  0  0  0  0  0  0  0  0  0  0
   26.2990  -20.3445   -9.8542 C   0  0  1  0  0  0  0  0  0  0  0  0
   27.1681  -20.3878   -8.6337 C   0  0  0  0  0  0  0  0  0  0  0  0
   26.6549  -21.4256  -10.8579 C   0  0  2  0  0  0  0  0  0  0  0  0
   28.0496  -21.5083  -11.1175 N   0  0  0  0  0  0  0  0  0  0  0  0
   25.8203  -21.1749  -12.0556 C   0  0  0  0  0  0  0  0  0  0  0  0
   26.1422  -20.1567  -12.7415 O   0  0  0  0  0  0  0  0  0  0  0  0
   23.2349  -23.9140  -13.9456 C   0  0  0  0  0  0  0  0  0  0  0  0
   23.8910  -22.7260  -14.5854 C   0  0  1  0  0  0  0  0  0  0  0  0
   23.3013  -22.3771  -15.7696 O   0  0  0  0  0  0  0  0  0  0  0  0
   23.9820  -21.5424  -13.6464 C   0  0  2  0  0  0  0  0  0  0  0  0
   24.7373  -21.9491  -12.4785 N   0  0  0  0  0  0  0  0  0  0  0  0
   22.6511  -21.0008  -13.2737 C   0  0  0  0  0  0  0  0  0  0  0  0
   22.1156  -21.3417  -12.1779 O   0  0  0  0  0  0  0  0  0  0  0  0
   16.9823  -16.9088  -15.3125 N   0  0  0  0  0  0  0  0  0  0  0  0
   16.9606  -15.8428  -14.3821 C   0  0  0  0  0  0  0  0  0  0  0  0
   15.8534  -15.2784  -14.0489 N   0  0  0  0  0  0  0  0  0  0  0  0
   18.1502  -15.3504  -13.7775 N   0  0  0  0  0  0  0  0  0  0  0  0
   19.4722  -15.8704  -14.0553 C   0  0  0  0  0  0  0  0  0  0  0  0
   19.4598  -17.3428  -13.6324 C   0  0  0  0  0  0  0  0  0  0  0  0
   20.7258  -18.0274  -14.0315 C   0  0  0  0  0  0  0  0  0  0  0  0
   20.7103  -19.4702  -13.7027 C   0  0  2  0  0  0  0  0  0  0  0  0
   21.9797  -20.1143  -14.1215 N   0  0  0  0  0  0  0  0  0  0  0  0
   19.5650  -20.2289  -14.2289 C   0  0  0  0  0  0  0  0  0  0  0  0
   19.6704  -21.0295  -15.3489 O   0  0  0  0  0  0  0  0  0  0  0  0
   18.4296  -20.1506  -13.6410 O   0  0  0  0  0  0  0  0  0  0  0  0
  2  1  1  1
  2  3  1  0
  2  4  1  0
  4  5  1  6
  6  7  2  0
  6  4  1  0
  9  8  1  1
 10  9  1  0
 11  9  1  0
 11 12  1  1
 12  6  1  0
 13 11  1  0
 14 13  2  0
 16 15  1  0
 16 17  2  0
 18 16  1  0
 19 18  1  0
 20 19  1  0
 21 20  1  0
 22 21  1  6
 22 23  1  0
 23 13  1  0
 24 22  1  0
 24 25  1  0
 26 24  2  0
M  END
$$$$
