VTR.pdb
     RDKit          3D

 26 25  0  0  1  0  0  0  0  0999 V2000
   21.3436  -18.8837  -19.7462 C   0  0  0  0  0  0  0  0  0  0  0  0
   21.7031  -17.5941  -19.0749 C   0  0  1  0  0  0  0  0  0  0  0  0
   20.8614  -17.3947  -17.8507 C   0  0  0  0  0  0  0  0  0  0  0  0
   23.1870  -17.4636  -18.7857 C   0  0  2  0  0  0  0  0  0  0  0  0
   23.6969  -18.5286  -17.9948 N   0  0  0  0  0  0  0  0  0  0  0  0
   23.3821  -16.1163  -18.2020 C   0  0  0  0  0  0  0  0  0  0  0  0
   23.2437  -16.0420  -16.9426 O   0  0  0  0  0  0  0  0  0  0  0  0
   26.2936  -13.9499  -18.0115 C   0  0  0  0  0  0  0  0  0  0  0  0
   25.1643  -13.0962  -18.5084 C   0  0  1  0  0  0  0  0  0  0  0  0
   25.2821  -12.7942  -19.8375 O   0  0  0  0  0  0  0  0  0  0  0  0
   23.8092  -13.6950  -18.1982 C   0  0  2  0  0  0  0  0  0  0  0  0
   23.6980  -14.9533  -18.9083 N   0  0  0  0  0  0  0  0  0  0  0  0
   22.6875  -12.7809  -18.5295 C   0  0  0  0  0  0  0  0  0  0  0  0
   21.7678  -13.1677  -19.3095 O   0  0  0  0  0  0  0  0  0  0  0  0
   14.8188  -11.7530  -17.9597 N   0  0  0  0  0  0  0  0  0  0  0  0
   15.2824  -10.5071  -18.4448 C   0  0  0  0  0  0  0  0  0  0  0  0
   14.4573   -9.6074  -18.8512 N   0  0  0  0  0  0  0  0  0  0  0  0
   16.6686  -10.1942  -18.5048 N   0  0  0  0  0  0  0  0  0  0  0  0
   17.7201  -11.1047  -18.1041 C   0  0  0  0  0  0  0  0  0  0  0  0
   19.0441  -10.3656  -18.3223 C   0  0  0  0  0  0  0  0  0  0  0  0
   20.2097  -11.2581  -18.0476 C   0  0  0  0  0  0  0  0  0  0  0  0
   21.5032  -10.5821  -18.2926 C   0  0  2  0  0  0  0  0  0  0  0  0
   22.6339  -11.4930  -17.9873 N   0  0  0  0  0  0  0  0  0  0  0  0
   21.6904   -9.2991  -17.5978 C   0  0  0  0  0  0  0  0  0  0  0  0
   20.9486   -8.1792  -17.9172 O   0  0  0  0  0  0  0  0  0  0  0  0
   22.5669   -9.2042  -16.6683 O   0  0  0  0  0  0  0  0  0  0  0  0
  2  1  1  1
  2  3  1  0
  2  4  1  0
  4  5  1  1
  6  7  2  0
  6  4  1  0
  9  8  1  6
 10  9  1  0
 11  9  1  0
 11 12  1  6
 12  6  1  0
 13 11  1  0
 14 13  2  0
 16 15  1  0
 16 17  2  0
 18 16  1  0
 19 18  1  0
 20 19  1  0
 21 20  1  0
 22 21  1  1
 22 23  1  0
 23 13  1  0
 24 22  1  0
 24 25  1  0
 26 24  2  0
M  END
$$$$
