VTR.pdb
     RDKit          3D

 26 25  0  0  1  0  0  0  0  0999 V2000
   16.0290   -3.5700  -19.7290 C   0  0  0  0  0  0  0  0  0  0  0  0
   16.3833   -5.0088  -19.5117 C   0  0  1  0  0  0  0  0  0  0  0  0
   15.2048   -5.8843  -19.8145 C   0  0  0  0  0  0  0  0  0  0  0  0
   17.6314   -5.4373  -20.2609 C   0  0  2  0  0  0  0  0  0  0  0  0
   17.4849   -5.3704  -21.6729 N   0  0  0  0  0  0  0  0  0  0  0  0
   17.9902   -6.7778  -19.7428 C   0  0  0  0  0  0  0  0  0  0  0  0
   17.5516   -7.7590  -20.4178 O   0  0  0  0  0  0  0  0  0  0  0  0
   20.8047   -9.8976  -17.3058 C   0  0  0  0  0  0  0  0  0  0  0  0
   20.4687   -8.5444  -17.8600 C   0  0  1  0  0  0  0  0  0  0  0  0
   21.2656   -8.1991  -18.9171 O   0  0  0  0  0  0  0  0  0  0  0  0
   19.0022   -8.4130  -18.2107 C   0  0  2  0  0  0  0  0  0  0  0  0
   18.7524   -7.0402  -18.6020 N   0  0  0  0  0  0  0  0  0  0  0  0
   18.1067   -8.8365  -17.1052 C   0  0  0  0  0  0  0  0  0  0  0  0
   17.9947   -8.1132  -16.0717 O   0  0  0  0  0  0  0  0  0  0  0  0
   11.6138  -15.0807  -15.8558 N   0  0  0  0  0  0  0  0  0  0  0  0
   12.1253  -14.5927  -14.6300 C   0  0  0  0  0  0  0  0  0  0  0  0
   11.5976  -14.9389  -13.5088 N   0  0  0  0  0  0  0  0  0  0  0  0
   13.2360  -13.7055  -14.5806 N   0  0  0  0  0  0  0  0  0  0  0  0
   14.0196  -13.3273  -15.7374 C   0  0  0  0  0  0  0  0  0  0  0  0
   14.9604  -12.2080  -15.2803 C   0  0  0  0  0  0  0  0  0  0  0  0
   15.7599  -11.6770  -16.4246 C   0  0  0  0  0  0  0  0  0  0  0  0
   16.6482  -10.5648  -16.0194 C   0  0  2  0  0  0  0  0  0  0  0  0
   17.3817  -10.0291  -17.1925 N   0  0  0  0  0  0  0  0  0  0  0  0
   17.5924  -10.8702  -14.9334 C   0  0  0  0  0  0  0  0  0  0  0  0
   17.3675  -10.4645  -13.6330 O   0  0  0  0  0  0  0  0  0  0  0  0
   18.6605  -11.5293  -15.1897 O   0  0  0  0  0  0  0  0  0  0  0  0
  2  1  1  6
  2  3  1  0
  2  4  1  0
  4  5  1  6
  6  7  2  0
  6  4  1  0
  9  8  1  6
 10  9  1  0
 11  9  1  0
 11 12  1  1
 12  6  1  0
 13 11  1  0
 14 13  2  0
 16 15  1  0
 16 17  2  0
 18 16  1  0
 19 18  1  0
 20 19  1  0
 21 20  1  0
 22 21  1  6
 22 23  1  0
 23 13  1  0
 24 22  1  0
 24 25  1  0
 26 24  2  0
M  END
$$$$
