VTR.pdb
     RDKit          3D

 26 25  0  0  1  0  0  0  0  0999 V2000
   21.2737  -20.3335  -18.0837 C   0  0  0  0  0  0  0  0  0  0  0  0
   21.3889  -19.0066  -17.3989 C   0  0  1  0  0  0  0  0  0  0  0  0
   20.0304  -18.5005  -17.0175 C   0  0  0  0  0  0  0  0  0  0  0  0
   22.3527  -19.0199  -16.2269 C   0  0  2  0  0  0  0  0  0  0  0  0
   21.9749  -19.9317  -15.2044 N   0  0  0  0  0  0  0  0  0  0  0  0
   22.4853  -17.6143  -15.7790 C   0  0  0  0  0  0  0  0  0  0  0  0
   21.8525  -17.3171  -14.7197 O   0  0  0  0  0  0  0  0  0  0  0  0
   24.9133  -13.4758  -15.2408 C   0  0  0  0  0  0  0  0  0  0  0  0
   24.7291  -14.8182  -15.8852 C   0  0  1  0  0  0  0  0  0  0  0  0
   25.5842  -15.7611  -15.3839 O   0  0  0  0  0  0  0  0  0  0  0  0
   23.2928  -15.2925  -15.8288 C   0  0  2  0  0  0  0  0  0  0  0  0
   23.2313  -16.6175  -16.4123 N   0  0  0  0  0  0  0  0  0  0  0  0
   22.3524  -14.3582  -16.4967 C   0  0  0  0  0  0  0  0  0  0  0  0
   21.5881  -14.7808  -17.4139 O   0  0  0  0  0  0  0  0  0  0  0  0
   14.9902  -14.4630  -17.8616 N   0  0  0  0  0  0  0  0  0  0  0  0
   15.7960  -14.0488  -18.9486 C   0  0  0  0  0  0  0  0  0  0  0  0
   15.3711  -14.1409  -20.1595 N   0  0  0  0  0  0  0  0  0  0  0  0
   17.1006  -13.5162  -18.7550 N   0  0  0  0  0  0  0  0  0  0  0  0
   17.7524  -13.4246  -17.4657 C   0  0  0  0  0  0  0  0  0  0  0  0
   19.1451  -12.8396  -17.7214 C   0  0  0  0  0  0  0  0  0  0  0  0
   19.9067  -12.6875  -16.4457 C   0  0  0  0  0  0  0  0  0  0  0  0
   21.2520  -12.1098  -16.6616 C   0  0  2  0  0  0  0  0  0  0  0  0
   22.2996  -13.0118  -16.1228 N   0  0  0  0  0  0  0  0  0  0  0  0
   21.4481  -10.7469  -16.1437 C   0  0  0  0  0  0  0  0  0  0  0  0
   20.7088   -9.6758  -16.6049 O   0  0  0  0  0  0  0  0  0  0  0  0
   22.3300  -10.5338  -15.2394 O   0  0  0  0  0  0  0  0  0  0  0  0
  2  1  1  1
  2  3  1  0
  2  4  1  0
  4  5  1  1
  6  7  2  0
  6  4  1  0
  9  8  1  1
 10  9  1  0
 11  9  1  0
 11 12  1  6
 12  6  1  0
 13 11  1  0
 14 13  2  0
 16 15  1  0
 16 17  2  0
 18 16  1  0
 19 18  1  0
 20 19  1  0
 21 20  1  0
 22 21  1  1
 22 23  1  0
 23 13  1  0
 24 22  1  0
 24 25  1  0
 26 24  2  0
M  END
$$$$
