VTR.pdb
     RDKit          3D

 26 25  0  0  1  0  0  0  0  0999 V2000
   20.1654  -22.1907  -20.2088 C   0  0  0  0  0  0  0  0  0  0  0  0
   20.3933  -22.2431  -18.7296 C   0  0  1  0  0  0  0  0  0  0  0  0
   20.7131  -23.6443  -18.3036 C   0  0  0  0  0  0  0  0  0  0  0  0
   21.4255  -21.2408  -18.2474 C   0  0  2  0  0  0  0  0  0  0  0  0
   22.7110  -21.4462  -18.8174 N   0  0  0  0  0  0  0  0  0  0  0  0
   21.3945  -21.2881  -16.7673 C   0  0  0  0  0  0  0  0  0  0  0  0
   22.3266  -21.9558  -16.2231 O   0  0  0  0  0  0  0  0  0  0  0  0
   22.1545  -18.7274  -14.4829 C   0  0  0  0  0  0  0  0  0  0  0  0
   20.8406  -19.2888  -14.0252 C   0  0  1  0  0  0  0  0  0  0  0  0
   19.7847  -18.4826  -14.3519 O   0  0  0  0  0  0  0  0  0  0  0  0
   20.6201  -20.7065  -14.5074 C   0  0  2  0  0  0  0  0  0  0  0  0
   20.4470  -20.6728  -15.9457 N   0  0  0  0  0  0  0  0  0  0  0  0
   19.4749  -21.3705  -13.8357 C   0  0  0  0  0  0  0  0  0  0  0  0
   18.4231  -21.6303  -14.4915 O   0  0  0  0  0  0  0  0  0  0  0  0
   18.0158  -24.8645   -5.4910 N   0  0  0  0  0  0  0  0  0  0  0  0
   17.0477  -25.2596   -6.4445 C   0  0  0  0  0  0  0  0  0  0  0  0
   16.0853  -26.0500   -6.1211 N   0  0  0  0  0  0  0  0  0  0  0  0
   17.0928  -24.8056   -7.7917 N   0  0  0  0  0  0  0  0  0  0  0  0
   18.1632  -23.9976   -8.3362 C   0  0  0  0  0  0  0  0  0  0  0  0
   17.7640  -23.6567   -9.7755 C   0  0  0  0  0  0  0  0  0  0  0  0
   18.8330  -22.8675  -10.4573 C   0  0  0  0  0  0  0  0  0  0  0  0
   18.4433  -22.4615  -11.8260 C   0  0  2  0  0  0  0  0  0  0  0  0
   19.5447  -21.7146  -12.4821 N   0  0  0  0  0  0  0  0  0  0  0  0
   17.1890  -21.6998  -11.9292 C   0  0  0  0  0  0  0  0  0  0  0  0
   15.9814  -22.3123  -12.1996 O   0  0  0  0  0  0  0  0  0  0  0  0
   17.2047  -20.4291  -11.7679 O   0  0  0  0  0  0  0  0  0  0  0  0
  2  1  1  6
  2  3  1  0
  2  4  1  0
  4  5  1  6
  6  7  2  0
  6  4  1  0
  9  8  1  6
 10  9  1  0
 11  9  1  0
 11 12  1  6
 12  6  1  0
 13 11  1  0
 14 13  2  0
 16 15  1  0
 16 17  2  0
 18 16  1  0
 19 18  1  0
 20 19  1  0
 21 20  1  0
 22 21  1  1
 22 23  1  0
 23 13  1  0
 24 22  1  0
 24 25  1  0
 26 24  2  0
M  END
$$$$
