VTR.pdb
     RDKit          3D

 26 25  0  0  1  0  0  0  0  0999 V2000
   18.1944  -16.9544  -16.1521 C   0  0  0  0  0  0  0  0  0  0  0  0
   18.8820  -15.6240  -16.1410 C   0  0  1  0  0  0  0  0  0  0  0  0
   20.1357  -15.6816  -16.9607 C   0  0  0  0  0  0  0  0  0  0  0  0
   17.9747  -14.4782  -16.5491 C   0  0  2  0  0  0  0  0  0  0  0  0
   17.4709  -14.6095  -17.8714 N   0  0  0  0  0  0  0  0  0  0  0  0
   18.7377  -13.2328  -16.3027 C   0  0  0  0  0  0  0  0  0  0  0  0
   19.1041  -13.0459  -15.1019 O   0  0  0  0  0  0  0  0  0  0  0  0
   21.5375   -9.4461  -17.4050 C   0  0  0  0  0  0  0  0  0  0  0  0
   20.8674  -10.7479  -17.7328 C   0  0  1  0  0  0  0  0  0  0  0  0
   21.7418  -11.8000  -17.7376 O   0  0  0  0  0  0  0  0  0  0  0  0
   19.6779  -11.0251  -16.8388 C   0  0  2  0  0  0  0  0  0  0  0  0
   19.0770  -12.2745  -17.2606 N   0  0  0  0  0  0  0  0  0  0  0  0
   18.6895   -9.9177  -16.8373 C   0  0  0  0  0  0  0  0  0  0  0  0
   17.9893   -9.6956  -17.8689 O   0  0  0  0  0  0  0  0  0  0  0  0
   11.5489   -8.9142  -13.1919 N   0  0  0  0  0  0  0  0  0  0  0  0
   12.2699   -9.3509  -14.3285 C   0  0  0  0  0  0  0  0  0  0  0  0
   11.8231  -10.3035  -15.0690 N   0  0  0  0  0  0  0  0  0  0  0  0
   13.5099   -8.7627  -14.7019 N   0  0  0  0  0  0  0  0  0  0  0  0
   14.1331   -7.6694  -13.9865 C   0  0  0  0  0  0  0  0  0  0  0  0
   15.3599   -7.2551  -14.8053 C   0  0  0  0  0  0  0  0  0  0  0  0
   16.3346   -8.3808  -14.9202 C   0  0  0  0  0  0  0  0  0  0  0  0
   17.5372   -8.0038  -15.6960 C   0  0  2  0  0  0  0  0  0  0  0  0
   18.5213   -9.1142  -15.7052 N   0  0  0  0  0  0  0  0  0  0  0  0
   18.1940   -6.7544  -15.2814 C   0  0  0  0  0  0  0  0  0  0  0  0
   17.6551   -5.5155  -15.5661 O   0  0  0  0  0  0  0  0  0  0  0  0
   19.3010   -6.8039  -14.6388 O   0  0  0  0  0  0  0  0  0  0  0  0
  2  1  1  6
  2  3  1  0
  2  4  1  0
  4  5  1  6
  6  7  2  0
  6  4  1  0
  9  8  1  1
 10  9  1  0
 11  9  1  0
 11 12  1  6
 12  6  1  0
 13 11  1  0
 14 13  2  0
 16 15  1  0
 16 17  2  0
 18 16  1  0
 19 18  1  0
 20 19  1  0
 21 20  1  0
 22 21  1  1
 22 23  1  0
 23 13  1  0
 24 22  1  0
 24 25  1  0
 26 24  2  0
M  END
$$$$
