VTR.pdb
     RDKit          3D

 26 25  0  0  1  0  0  0  0  0999 V2000
   16.4543  -21.5322  -16.8781 C   0  0  0  0  0  0  0  0  0  0  0  0
   16.5697  -22.7218  -15.9758 C   0  0  1  0  0  0  0  0  0  0  0  0
   15.6382  -23.8064  -16.4262 C   0  0  0  0  0  0  0  0  0  0  0  0
   17.9961  -23.2133  -15.8131 C   0  0  2  0  0  0  0  0  0  0  0  0
   18.0813  -24.4706  -15.1561 N   0  0  0  0  0  0  0  0  0  0  0  0
   18.7415  -22.1200  -15.1476 C   0  0  0  0  0  0  0  0  0  0  0  0
   18.6991  -20.9950  -15.7337 O   0  0  0  0  0  0  0  0  0  0  0  0
   21.1968  -20.1225  -11.3848 C   0  0  0  0  0  0  0  0  0  0  0  0
   20.5710  -21.3251  -12.0276 C   0  0  1  0  0  0  0  0  0  0  0  0
   19.4890  -21.7879  -11.3299 O   0  0  0  0  0  0  0  0  0  0  0  0
   20.2269  -21.0876  -13.4824 C   0  0  2  0  0  0  0  0  0  0  0  0
   19.4670  -22.2259  -13.9586 N   0  0  0  0  0  0  0  0  0  0  0  0
   21.4250  -20.8413  -14.3235 C   0  0  0  0  0  0  0  0  0  0  0  0
   21.9315  -21.7894  -14.9930 O   0  0  0  0  0  0  0  0  0  0  0  0
   25.9663  -19.7996  -10.8588 N   0  0  0  0  0  0  0  0  0  0  0  0
   26.2858  -21.1496  -11.1379 C   0  0  0  0  0  0  0  0  0  0  0  0
   26.4266  -22.0058  -10.1878 N   0  0  0  0  0  0  0  0  0  0  0  0
   26.4643  -21.6186  -12.4688 N   0  0  0  0  0  0  0  0  0  0  0  0
   26.2330  -20.8109  -13.6476 C   0  0  0  0  0  0  0  0  0  0  0  0
   24.7445  -20.4485  -13.6432 C   0  0  0  0  0  0  0  0  0  0  0  0
   24.1978  -20.4047  -15.0323 C   0  0  0  0  0  0  0  0  0  0  0  0
   23.2094  -19.3180  -15.2116 C   0  0  2  0  0  0  0  0  0  0  0  0
   22.0024  -19.5692  -14.3861 N   0  0  0  0  0  0  0  0  0  0  0  0
   22.8176  -19.0394  -16.6020 C   0  0  0  0  0  0  0  0  0  0  0  0
   23.5013  -18.1322  -17.3868 O   0  0  0  0  0  0  0  0  0  0  0  0
   21.8119  -19.6483  -17.1106 O   0  0  0  0  0  0  0  0  0  0  0  0
  2  1  1  6
  2  3  1  0
  2  4  1  0
  4  5  1  1
  6  7  2  0
  6  4  1  0
  9  8  1  1
 10  9  1  0
 11  9  1  0
 11 12  1  6
 12  6  1  0
 13 11  1  0
 14 13  2  0
 16 15  1  0
 16 17  2  0
 18 16  1  0
 19 18  1  0
 20 19  1  0
 21 20  1  0
 22 21  1  6
 22 23  1  0
 23 13  1  0
 24 22  1  0
 24 25  1  0
 26 24  2  0
M  END
$$$$
