VTR.pdb
     RDKit          3D

 26 25  0  0  1  0  0  0  0  0999 V2000
   25.5409  -14.5646  -15.1338 C   0  0  0  0  0  0  0  0  0  0  0  0
   24.6716  -13.9924  -16.2107 C   0  0  1  0  0  0  0  0  0  0  0  0
   25.1924  -12.6542  -16.6409 C   0  0  0  0  0  0  0  0  0  0  0  0
   24.4667  -14.9379  -17.3797 C   0  0  2  0  0  0  0  0  0  0  0  0
   23.7393  -14.3514  -18.4505 N   0  0  0  0  0  0  0  0  0  0  0  0
   23.8557  -16.1663  -16.8215 C   0  0  0  0  0  0  0  0  0  0  0  0
   22.6567  -16.3881  -17.1738 O   0  0  0  0  0  0  0  0  0  0  0  0
   23.3736  -20.5129  -16.9430 C   0  0  0  0  0  0  0  0  0  0  0  0
   23.7268  -19.0611  -17.0806 C   0  0  1  0  0  0  0  0  0  0  0  0
   22.8567  -18.3855  -17.8918 O   0  0  0  0  0  0  0  0  0  0  0  0
   23.8752  -18.3744  -15.7400 C   0  0  2  0  0  0  0  0  0  0  0  0
   24.4775  -17.0752  -15.9620 N   0  0  0  0  0  0  0  0  0  0  0  0
   24.6555  -19.1779  -14.7658 C   0  0  0  0  0  0  0  0  0  0  0  0
   25.7792  -19.6570  -15.0997 O   0  0  0  0  0  0  0  0  0  0  0  0
   22.0057  -21.8752   -6.9096 N   0  0  0  0  0  0  0  0  0  0  0  0
   22.0961  -20.8070   -7.8333 C   0  0  0  0  0  0  0  0  0  0  0  0
   21.2318  -19.8539   -7.8286 N   0  0  0  0  0  0  0  0  0  0  0  0
   23.1368  -20.7376   -8.8004 N   0  0  0  0  0  0  0  0  0  0  0  0
   23.9333  -21.8738   -9.2126 C   0  0  0  0  0  0  0  0  0  0  0  0
   24.8585  -21.3767  -10.3279 C   0  0  0  0  0  0  0  0  0  0  0  0
   24.0925  -20.6248  -11.3665 C   0  0  0  0  0  0  0  0  0  0  0  0
   24.9530  -20.1810  -12.4858 C   0  0  2  0  0  0  0  0  0  0  0  0
   24.1625  -19.4119  -13.4783 N   0  0  0  0  0  0  0  0  0  0  0  0
   25.7116  -21.2439  -13.1632 C   0  0  0  0  0  0  0  0  0  0  0  0
   27.0672  -21.4155  -12.9643 O   0  0  0  0  0  0  0  0  0  0  0  0
   25.1085  -22.0391  -13.9662 O   0  0  0  0  0  0  0  0  0  0  0  0
  2  1  1  1
  2  3  1  0
  2  4  1  0
  4  5  1  6
  6  7  2  0
  6  4  1  0
  9  8  1  1
 10  9  1  0
 11  9  1  0
 11 12  1  6
 12  6  1  0
 13 11  1  0
 14 13  2  0
 16 15  1  0
 16 17  2  0
 18 16  1  0
 19 18  1  0
 20 19  1  0
 21 20  1  0
 22 21  1  1
 22 23  1  0
 23 13  1  0
 24 22  1  0
 24 25  1  0
 26 24  2  0
M  END
$$$$
