HNV.pdb
     RDKit          3D

 26 26  0  0  1  0  0  0  0  0999 V2000
    6.6640  -17.3597   19.6065 N   0  0  0  0  0  0  0  0  0  0  0  0
    7.1914  -16.3084   20.4331 C   0  0  1  0  0  0  0  0  0  0  0  0
    6.6089  -14.9894   20.0011 C   0  0  0  0  0  0  0  0  0  0  0  0
    7.4549  -14.3271   18.9747 C   0  0  0  0  0  0  0  0  0  0  0  0
    8.6242  -14.8594   18.4278 C   0  0  0  0  0  0  0  0  0  0  0  0
    9.1200  -13.9787   17.5330 N   0  0  0  0  0  0  0  0  0  0  0  0
    8.2822  -12.9172   17.5170 C   0  0  0  0  0  0  0  0  0  0  0  0
    7.2899  -13.1355   18.3828 N   0  0  0  0  0  0  0  0  0  0  0  0
    6.7466  -16.5186   21.8720 C   0  0  0  0  0  0  0  0  0  0  0  0
    5.5250  -16.6900   21.9987 O   0  0  0  0  0  0  0  0  0  0  0  0
    6.6671  -18.3726   26.9177 N   0  0  0  0  0  0  0  0  0  0  0  0
    7.9261  -18.1685   26.3107 C   0  0  0  0  0  0  0  0  0  0  0  0
    8.9431  -18.1304   27.0437 O   0  0  0  0  0  0  0  0  0  0  0  0
    8.0310  -18.0078   24.8727 C   0  0  0  0  0  0  0  0  0  0  0  0
    7.4586  -16.7031   24.3189 C   0  0  2  0  0  0  0  0  0  0  0  0
    7.6625  -16.5105   22.9135 N   0  0  0  0  0  0  0  0  0  0  0  0
    8.2409  -15.6397   25.0446 C   0  0  0  0  0  0  0  0  0  0  0  0
    9.4586  -15.4384   24.7982 O   0  0  0  0  0  0  0  0  0  0  0  0
    6.1601  -13.4026   27.9514 C   0  0  0  0  0  0  0  0  0  0  0  0
    7.3257  -12.7539   27.2468 C   0  0  2  0  0  0  0  0  0  0  0  0
    6.8089  -12.0555   26.0207 C   0  0  0  0  0  0  0  0  0  0  0  0
    8.3402  -13.8103   26.7838 C   0  0  2  0  0  0  0  0  0  0  0  0
    7.6189  -14.8350   26.0280 N   0  0  0  0  0  0  0  0  0  0  0  0
    8.9056  -14.4089   28.0104 C   0  0  0  0  0  0  0  0  0  0  0  0
    9.6877  -13.7108   28.7044 O   0  0  0  0  0  0  0  0  0  0  0  0
    8.6509  -15.6816   28.4710 O   0  0  0  0  0  0  0  0  0  0  0  0
  2  1  1  6
  2  9  1  0
  3  4  1  0
  3  2  1  0
  4  5  2  0
  4  8  1  0
  5  6  1  0
  6  7  1  0
  8  7  2  0
  9 10  2  0
 11 12  1  0
 12 13  2  0
 12 14  1  0
 15 14  1  1
 15 17  1  0
 16  9  1  0
 16 15  1  0
 17 23  1  0
 17 18  2  0
 20 19  1  6
 20 22  1  0
 21 20  1  0
 22 24  1  0
 22 23  1  6
 24 25  2  0
 24 26  1  0
M  END
$$$$
