HNV.pdb
     RDKit          3D

 26 26  0  0  1  0  0  0  0  0999 V2000
    9.2178  -15.5699   19.6934 N   0  0  0  0  0  0  0  0  0  0  0  0
    8.2609  -14.5882   20.1264 C   0  0  1  0  0  0  0  0  0  0  0  0
    7.0776  -14.5957   19.1961 C   0  0  0  0  0  0  0  0  0  0  0  0
    7.4747  -14.2675   17.8024 C   0  0  0  0  0  0  0  0  0  0  0  0
    8.2451  -13.1669   17.4215 C   0  0  0  0  0  0  0  0  0  0  0  0
    8.3998  -13.1938   16.0808 N   0  0  0  0  0  0  0  0  0  0  0  0
    7.7424  -14.2858   15.6286 C   0  0  0  0  0  0  0  0  0  0  0  0
    7.1926  -14.9208   16.6662 N   0  0  0  0  0  0  0  0  0  0  0  0
    7.7255  -14.9676   21.4982 C   0  0  0  0  0  0  0  0  0  0  0  0
    6.7114  -14.3369   21.8322 O   0  0  0  0  0  0  0  0  0  0  0  0
    9.3319  -19.5661   22.4653 N   0  0  0  0  0  0  0  0  0  0  0  0
    8.3712  -18.8661   23.2285 C   0  0  0  0  0  0  0  0  0  0  0  0
    7.1887  -19.2837   23.2279 O   0  0  0  0  0  0  0  0  0  0  0  0
    8.7525  -17.6930   23.9921 C   0  0  0  0  0  0  0  0  0  0  0  0
    8.0481  -16.3968   23.5914 C   0  0  2  0  0  0  0  0  0  0  0  0
    8.3505  -15.9373   22.2680 N   0  0  0  0  0  0  0  0  0  0  0  0
    8.5951  -15.3842   24.5634 C   0  0  0  0  0  0  0  0  0  0  0  0
    9.8127  -15.0655   24.5626 O   0  0  0  0  0  0  0  0  0  0  0  0
    6.3284  -12.2453   25.6364 C   0  0  0  0  0  0  0  0  0  0  0  0
    6.9887  -12.8749   26.8378 C   0  0  2  0  0  0  0  0  0  0  0  0
    7.4844  -11.7766   27.7358 C   0  0  0  0  0  0  0  0  0  0  0  0
    8.2060  -13.7115   26.4159 C   0  0  2  0  0  0  0  0  0  0  0  0
    7.7448  -14.7620   25.5075 N   0  0  0  0  0  0  0  0  0  0  0  0
    8.7363  -14.3252   27.6507 C   0  0  0  0  0  0  0  0  0  0  0  0
    8.3090  -15.4611   27.9787 O   0  0  0  0  0  0  0  0  0  0  0  0
    9.6705  -13.7585   28.4891 O   0  0  0  0  0  0  0  0  0  0  0  0
  2  1  1  6
  2  9  1  0
  3  4  1  0
  3  2  1  0
  4  5  2  0
  4  8  1  0
  5  6  1  0
  6  7  1  0
  8  7  2  0
  9 10  2  0
 11 12  1  0
 12 13  2  0
 12 14  1  0
 15 14  1  1
 15 17  1  0
 16  9  1  0
 16 15  1  0
 17 23  1  0
 17 18  2  0
 20 19  1  6
 20 22  1  0
 21 20  1  0
 22 24  1  0
 22 23  1  6
 24 25  2  0
 24 26  1  0
M  END
$$$$
