HNV.pdb
     RDKit          3D

 26 26  0  0  1  0  0  0  0  0999 V2000
    8.8937  -15.8404   20.4949 N   0  0  0  0  0  0  0  0  0  0  0  0
    8.2087  -14.6921   21.0230 C   0  0  1  0  0  0  0  0  0  0  0  0
    7.0466  -14.3462   20.1311 C   0  0  0  0  0  0  0  0  0  0  0  0
    7.5004  -13.9043   18.7871 C   0  0  0  0  0  0  0  0  0  0  0  0
    8.8308  -13.8279   18.3700 C   0  0  0  0  0  0  0  0  0  0  0  0
    8.8569  -13.3854   17.0950 N   0  0  0  0  0  0  0  0  0  0  0  0
    7.5730  -13.1881   16.7185 C   0  0  0  0  0  0  0  0  0  0  0  0
    6.7698  -13.5011   17.7377 N   0  0  0  0  0  0  0  0  0  0  0  0
    7.6158  -15.0315   22.3815 C   0  0  0  0  0  0  0  0  0  0  0  0
    6.9078  -14.1318   22.8580 O   0  0  0  0  0  0  0  0  0  0  0  0
    6.6076  -19.7484   22.6004 N   0  0  0  0  0  0  0  0  0  0  0  0
    6.3086  -18.8139   23.6165 C   0  0  0  0  0  0  0  0  0  0  0  0
    5.1089  -18.5022   23.8068 O   0  0  0  0  0  0  0  0  0  0  0  0
    7.3707  -18.2334   24.4164 C   0  0  0  0  0  0  0  0  0  0  0  0
    7.5204  -16.7166   24.2997 C   0  0  2  0  0  0  0  0  0  0  0  0
    7.8733  -16.2502   22.9913 N   0  0  0  0  0  0  0  0  0  0  0  0
    8.6699  -16.4046   25.2220 C   0  0  0  0  0  0  0  0  0  0  0  0
    9.8635  -16.5901   24.8683 O   0  0  0  0  0  0  0  0  0  0  0  0
    8.5520  -13.1721   27.5333 C   0  0  0  0  0  0  0  0  0  0  0  0
    8.9779  -14.3753   28.3374 C   0  0  2  0  0  0  0  0  0  0  0  0
   10.1001  -13.9635   29.2481 C   0  0  0  0  0  0  0  0  0  0  0  0
    9.5119  -15.4847   27.4188 C   0  0  2  0  0  0  0  0  0  0  0  0
    8.4321  -15.8904   26.5183 N   0  0  0  0  0  0  0  0  0  0  0  0
    9.8712  -16.6156   28.2989 C   0  0  0  0  0  0  0  0  0  0  0  0
    9.0017  -17.4975   28.5154 O   0  0  0  0  0  0  0  0  0  0  0  0
   11.0902  -16.7957   28.9140 O   0  0  0  0  0  0  0  0  0  0  0  0
  2  1  1  6
  2  9  1  0
  3  4  1  0
  3  2  1  0
  4  5  2  0
  4  8  1  0
  5  6  1  0
  6  7  1  0
  8  7  2  0
  9 10  2  0
 11 12  1  0
 12 13  2  0
 12 14  1  0
 15 14  1  6
 15 17  1  0
 16  9  1  0
 16 15  1  0
 17 23  1  0
 17 18  2  0
 20 19  1  6
 20 22  1  0
 21 20  1  0
 22 24  1  0
 22 23  1  6
 24 25  2  0
 24 26  1  0
M  END
$$$$
