HNV.pdb
     RDKit          3D

 26 26  0  0  1  0  0  0  0  0999 V2000
    7.2925  -16.9462   19.4670 N   0  0  0  0  0  0  0  0  0  0  0  0
    7.5617  -15.8399   20.3448 C   0  0  1  0  0  0  0  0  0  0  0  0
    6.8765  -14.6058   19.8222 C   0  0  0  0  0  0  0  0  0  0  0  0
    7.5137  -14.1128   18.5737 C   0  0  0  0  0  0  0  0  0  0  0  0
    8.4749  -13.1024   18.5036 C   0  0  0  0  0  0  0  0  0  0  0  0
    8.8183  -12.9246   17.2104 N   0  0  0  0  0  0  0  0  0  0  0  0
    8.0904  -13.8027   16.4836 C   0  0  0  0  0  0  0  0  0  0  0  0
    7.3134  -14.5084   17.3084 N   0  0  0  0  0  0  0  0  0  0  0  0
    6.9570  -16.1148   21.7127 C   0  0  0  0  0  0  0  0  0  0  0  0
    5.7208  -16.2121   21.7036 O   0  0  0  0  0  0  0  0  0  0  0  0
    8.1977  -18.9837   26.8852 N   0  0  0  0  0  0  0  0  0  0  0  0
    7.3597  -18.2137   26.0485 C   0  0  0  0  0  0  0  0  0  0  0  0
    6.2687  -17.8031   26.5112 O   0  0  0  0  0  0  0  0  0  0  0  0
    7.7596  -17.9098   24.6874 C   0  0  0  0  0  0  0  0  0  0  0  0
    7.3968  -16.5075   24.1988 C   0  0  2  0  0  0  0  0  0  0  0  0
    7.7578  -16.2371   22.8385 N   0  0  0  0  0  0  0  0  0  0  0  0
    8.2206  -15.6042   25.0790 C   0  0  0  0  0  0  0  0  0  0  0  0
    9.4786  -15.6431   25.0638 O   0  0  0  0  0  0  0  0  0  0  0  0
    6.1743  -13.1717   27.8876 C   0  0  0  0  0  0  0  0  0  0  0  0
    7.3871  -12.6048   27.1922 C   0  0  2  0  0  0  0  0  0  0  0  0
    6.9320  -11.8993   25.9458 C   0  0  0  0  0  0  0  0  0  0  0  0
    8.3452  -13.7267   26.7644 C   0  0  2  0  0  0  0  0  0  0  0  0
    7.5937  -14.6825   25.9500 N   0  0  0  0  0  0  0  0  0  0  0  0
    8.7952  -14.3852   28.0079 C   0  0  0  0  0  0  0  0  0  0  0  0
    8.2910  -15.4978   28.3054 O   0  0  0  0  0  0  0  0  0  0  0  0
    9.7311  -13.8845   28.8855 O   0  0  0  0  0  0  0  0  0  0  0  0
  2  1  1  6
  2  9  1  0
  3  4  1  0
  3  2  1  0
  4  5  2  0
  4  8  1  0
  5  6  1  0
  6  7  1  0
  8  7  2  0
  9 10  2  0
 11 12  1  0
 12 13  2  0
 12 14  1  0
 15 14  1  1
 15 17  1  0
 16  9  1  0
 16 15  1  0
 17 23  1  0
 17 18  2  0
 20 19  1  6
 20 22  1  0
 21 20  1  0
 22 24  1  0
 22 23  1  6
 24 25  2  0
 24 26  1  0
M  END
$$$$
