HNV.pdb
     RDKit          3D

 26 26  0  0  1  0  0  0  0  0999 V2000
    8.9591  -16.6019   18.6019 N   0  0  0  0  0  0  0  0  0  0  0  0
    8.6686  -15.4386   19.3951 C   0  0  1  0  0  0  0  0  0  0  0  0
    7.4731  -14.7257   18.8222 C   0  0  0  0  0  0  0  0  0  0  0  0
    7.6845  -14.3599   17.3977 C   0  0  0  0  0  0  0  0  0  0  0  0
    8.8259  -14.6561   16.6500 C   0  0  0  0  0  0  0  0  0  0  0  0
    8.6616  -14.1673   15.4025 N   0  0  0  0  0  0  0  0  0  0  0  0
    7.4451  -13.5774   15.3660 C   0  0  0  0  0  0  0  0  0  0  0  0
    6.8691  -13.6980   16.5642 N   0  0  0  0  0  0  0  0  0  0  0  0
    8.2761  -15.8646   20.8011 C   0  0  0  0  0  0  0  0  0  0  0  0
    7.0660  -16.1012   20.9334 O   0  0  0  0  0  0  0  0  0  0  0  0
    9.4421  -19.7200   23.1578 N   0  0  0  0  0  0  0  0  0  0  0  0
   10.2963  -18.6363   22.8558 C   0  0  0  0  0  0  0  0  0  0  0  0
   11.1331  -18.7751   21.9321 O   0  0  0  0  0  0  0  0  0  0  0  0
   10.2008  -17.3957   23.6017 C   0  0  0  0  0  0  0  0  0  0  0  0
    9.0884  -16.4484   23.1522 C   0  0  2  0  0  0  0  0  0  0  0  0
    9.2225  -15.9642   21.8100 N   0  0  0  0  0  0  0  0  0  0  0  0
    9.2330  -15.2705   24.0800 C   0  0  0  0  0  0  0  0  0  0  0  0
   10.2484  -14.5275   24.0433 O   0  0  0  0  0  0  0  0  0  0  0  0
    6.3940  -12.7092   24.8785 C   0  0  0  0  0  0  0  0  0  0  0  0
    6.9309  -13.2637   26.1747 C   0  0  2  0  0  0  0  0  0  0  0  0
    7.0598  -12.1332   27.1563 C   0  0  0  0  0  0  0  0  0  0  0  0
    8.3310  -13.8629   25.9737 C   0  0  2  0  0  0  0  0  0  0  0  0
    8.2215  -14.9691   25.0219 N   0  0  0  0  0  0  0  0  0  0  0  0
    8.7521  -14.3850   27.2900 C   0  0  0  0  0  0  0  0  0  0  0  0
    9.0702  -13.5577   28.1816 O   0  0  0  0  0  0  0  0  0  0  0  0
    8.8296  -15.7158   27.6360 O   0  0  0  0  0  0  0  0  0  0  0  0
  2  1  1  6
  2  9  1  0
  3  4  1  0
  3  2  1  0
  4  5  2  0
  4  8  1  0
  5  6  1  0
  6  7  1  0
  8  7  2  0
  9 10  2  0
 11 12  1  0
 12 13  2  0
 12 14  1  0
 15 14  1  1
 15 17  1  0
 16  9  1  0
 16 15  1  0
 17 23  1  0
 17 18  2  0
 20 19  1  6
 20 22  1  0
 21 20  1  0
 22 24  1  0
 22 23  1  6
 24 25  2  0
 24 26  1  0
M  END
$$$$
