HNV.pdb
     RDKit          3D

 26 26  0  0  1  0  0  0  0  0999 V2000
    8.5573  -16.6477   19.7769 N   0  0  0  0  0  0  0  0  0  0  0  0
    8.0912  -15.3385   20.1450 C   0  0  1  0  0  0  0  0  0  0  0  0
    7.1045  -14.8496   19.1189 C   0  0  0  0  0  0  0  0  0  0  0  0
    7.7597  -14.5847   17.8119 C   0  0  0  0  0  0  0  0  0  0  0  0
    9.1159  -14.7719   17.5372 C   0  0  0  0  0  0  0  0  0  0  0  0
    9.3460  -14.4265   16.2527 N   0  0  0  0  0  0  0  0  0  0  0  0
    8.1624  -14.0313   15.7313 C   0  0  0  0  0  0  0  0  0  0  0  0
    7.2203  -14.1296   16.6719 N   0  0  0  0  0  0  0  0  0  0  0  0
    7.3324  -15.4180   21.4604 C   0  0  0  0  0  0  0  0  0  0  0  0
    6.2108  -14.8902   21.4244 O   0  0  0  0  0  0  0  0  0  0  0  0
    7.4323  -19.6322   23.0628 N   0  0  0  0  0  0  0  0  0  0  0  0
    6.7701  -18.6394   23.8184 C   0  0  0  0  0  0  0  0  0  0  0  0
    5.5193  -18.6853   23.8985 O   0  0  0  0  0  0  0  0  0  0  0  0
    7.5268  -17.5951   24.4828 C   0  0  0  0  0  0  0  0  0  0  0  0
    7.3600  -16.1940   23.8946 C   0  0  2  0  0  0  0  0  0  0  0  0
    7.8874  -16.0351   22.5715 N   0  0  0  0  0  0  0  0  0  0  0  0
    8.1732  -15.3254   24.8186 C   0  0  0  0  0  0  0  0  0  0  0  0
    9.4276  -15.2702   24.7318 O   0  0  0  0  0  0  0  0  0  0  0  0
    6.0508  -13.0046   27.6622 C   0  0  0  0  0  0  0  0  0  0  0  0
    7.3284  -12.4713   27.0629 C   0  0  2  0  0  0  0  0  0  0  0  0
    6.9862  -11.7282   25.8023 C   0  0  0  0  0  0  0  0  0  0  0  0
    8.2730  -13.6205   26.6798 C   0  0  2  0  0  0  0  0  0  0  0  0
    7.5398  -14.5442   25.8134 N   0  0  0  0  0  0  0  0  0  0  0  0
    8.6282  -14.3038   27.9405 C   0  0  0  0  0  0  0  0  0  0  0  0
    8.0601  -15.3939   28.2042 O   0  0  0  0  0  0  0  0  0  0  0  0
    9.5389  -13.8495   28.8684 O   0  0  0  0  0  0  0  0  0  0  0  0
  2  1  1  6
  2  9  1  0
  3  4  1  0
  3  2  1  0
  4  5  2  0
  4  8  1  0
  5  6  1  0
  6  7  1  0
  8  7  2  0
  9 10  2  0
 11 12  1  0
 12 13  2  0
 12 14  1  0
 15 14  1  1
 15 17  1  0
 16  9  1  0
 16 15  1  0
 17 23  1  0
 17 18  2  0
 20 19  1  6
 20 22  1  0
 21 20  1  0
 22 24  1  0
 22 23  1  6
 24 25  2  0
 24 26  1  0
M  END
$$$$
