HNV.pdb
     RDKit          3D

 26 26  0  0  1  0  0  0  0  0999 V2000
    6.0359  -16.8495   19.5071 N   0  0  0  0  0  0  0  0  0  0  0  0
    6.9987  -16.2160   20.3664 C   0  0  1  0  0  0  0  0  0  0  0  0
    6.9600  -14.7266   20.1522 C   0  0  0  0  0  0  0  0  0  0  0  0
    7.7462  -14.3246   18.9572 C   0  0  0  0  0  0  0  0  0  0  0  0
    8.4600  -15.1954   18.1313 C   0  0  0  0  0  0  0  0  0  0  0  0
    9.0484  -14.4749   17.1533 N   0  0  0  0  0  0  0  0  0  0  0  0
    8.7127  -13.1810   17.3587 C   0  0  0  0  0  0  0  0  0  0  0  0
    7.9339  -13.1020   18.4400 N   0  0  0  0  0  0  0  0  0  0  0  0
    6.6156  -16.4466   21.8198 C   0  0  0  0  0  0  0  0  0  0  0  0
    5.4194  -16.2284   22.0632 O   0  0  0  0  0  0  0  0  0  0  0  0
    7.1816  -17.8214   26.8783 N   0  0  0  0  0  0  0  0  0  0  0  0
    7.9660  -18.6650   26.0608 C   0  0  0  0  0  0  0  0  0  0  0  0
    8.5124  -19.6647   26.5851 O   0  0  0  0  0  0  0  0  0  0  0  0
    8.1301  -18.3743   24.6489 C   0  0  0  0  0  0  0  0  0  0  0  0
    7.4088  -17.1210   24.1531 C   0  0  2  0  0  0  0  0  0  0  0  0
    7.5553  -16.8630   22.7510 N   0  0  0  0  0  0  0  0  0  0  0  0
    8.0922  -16.0039   24.8977 C   0  0  0  0  0  0  0  0  0  0  0  0
    9.3178  -15.7643   24.7400 O   0  0  0  0  0  0  0  0  0  0  0  0
    7.4160  -11.7712   27.3927 C   0  0  0  0  0  0  0  0  0  0  0  0
    6.8681  -12.9803   26.6757 C   0  0  2  0  0  0  0  0  0  0  0  0
    5.7899  -13.5881   27.5278 C   0  0  0  0  0  0  0  0  0  0  0  0
    7.9605  -14.0433   26.4850 C   0  0  2  0  0  0  0  0  0  0  0  0
    7.3656  -15.1907   25.7987 N   0  0  0  0  0  0  0  0  0  0  0  0
    8.3884  -14.4468   27.8402 C   0  0  0  0  0  0  0  0  0  0  0  0
    7.9085  -15.5038   28.3231 O   0  0  0  0  0  0  0  0  0  0  0  0
    9.2788  -13.7609   28.6361 O   0  0  0  0  0  0  0  0  0  0  0  0
  2  1  1  6
  2  9  1  0
  3  4  1  0
  3  2  1  0
  4  5  2  0
  4  8  1  0
  5  6  1  0
  6  7  1  0
  8  7  2  0
  9 10  2  0
 11 12  1  0
 12 13  2  0
 12 14  1  0
 15 14  1  6
 15 17  1  0
 16  9  1  0
 16 15  1  0
 17 23  1  0
 17 18  2  0
 20 19  1  1
 20 22  1  0
 21 20  1  0
 22 24  1  0
 22 23  1  1
 24 25  2  0
 24 26  1  0
M  END
$$$$
