HNV.pdb
     RDKit          3D

 26 26  0  0  1  0  0  0  0  0999 V2000
    8.2268  -16.7176   20.2256 N   0  0  0  0  0  0  0  0  0  0  0  0
    7.7907  -15.4365   20.7106 C   0  0  1  0  0  0  0  0  0  0  0  0
    6.7618  -14.8673   19.7709 C   0  0  0  0  0  0  0  0  0  0  0  0
    7.3730  -14.4313   18.4887 C   0  0  0  0  0  0  0  0  0  0  0  0
    8.6349  -13.8489   18.3539 C   0  0  0  0  0  0  0  0  0  0  0  0
    8.8493  -13.5850   17.0476 N   0  0  0  0  0  0  0  0  0  0  0  0
    7.7482  -13.9919   16.3760 C   0  0  0  0  0  0  0  0  0  0  0  0
    6.8714  -14.4964   17.2470 N   0  0  0  0  0  0  0  0  0  0  0  0
    7.0933  -15.6085   22.0509 C   0  0  0  0  0  0  0  0  0  0  0  0
    5.9571  -15.1135   22.0916 O   0  0  0  0  0  0  0  0  0  0  0  0
    5.8244  -18.5935   23.5669 N   0  0  0  0  0  0  0  0  0  0  0  0
    6.7744  -18.8339   24.5842 C   0  0  0  0  0  0  0  0  0  0  0  0
    6.8964  -20.0024   25.0231 O   0  0  0  0  0  0  0  0  0  0  0  0
    7.5856  -17.7488   25.1031 C   0  0  0  0  0  0  0  0  0  0  0  0
    7.3220  -16.3799   24.4759 C   0  0  2  0  0  0  0  0  0  0  0  0
    7.7138  -16.2669   23.1021 N   0  0  0  0  0  0  0  0  0  0  0  0
    8.1952  -15.4511   25.2786 C   0  0  0  0  0  0  0  0  0  0  0  0
    9.4504  -15.5377   25.2440 O   0  0  0  0  0  0  0  0  0  0  0  0
    6.2414  -12.6352   27.7633 C   0  0  0  0  0  0  0  0  0  0  0  0
    7.5927  -12.2827   27.1927 C   0  0  2  0  0  0  0  0  0  0  0  0
    7.3848  -11.5927   25.8741 C   0  0  0  0  0  0  0  0  0  0  0  0
    8.4199  -13.5493   26.9259 C   0  0  2  0  0  0  0  0  0  0  0  0
    7.6193  -14.4507   26.0964 N   0  0  0  0  0  0  0  0  0  0  0  0
    8.6595  -14.1739   28.2431 C   0  0  0  0  0  0  0  0  0  0  0  0
    7.9966  -15.1994   28.5422 O   0  0  0  0  0  0  0  0  0  0  0  0
    9.5565  -13.7291   29.1889 O   0  0  0  0  0  0  0  0  0  0  0  0
  2  1  1  6
  2  9  1  0
  3  4  1  0
  3  2  1  0
  4  5  2  0
  4  8  1  0
  5  6  1  0
  6  7  1  0
  8  7  2  0
  9 10  2  0
 11 12  1  0
 12 13  2  0
 12 14  1  0
 15 14  1  1
 15 17  1  0
 16  9  1  0
 16 15  1  0
 17 23  1  0
 17 18  2  0
 20 19  1  6
 20 22  1  0
 21 20  1  0
 22 24  1  0
 22 23  1  6
 24 25  2  0
 24 26  1  0
M  END
$$$$
