HNV.pdb
     RDKit          3D

 26 26  0  0  1  0  0  0  0  0999 V2000
    9.1192  -16.4034   19.4526 N   0  0  0  0  0  0  0  0  0  0  0  0
    8.5788  -15.2757   20.1620 C   0  0  1  0  0  0  0  0  0  0  0  0
    7.3674  -14.7579   19.4341 C   0  0  0  0  0  0  0  0  0  0  0  0
    7.7051  -14.3107   18.0580 C   0  0  0  0  0  0  0  0  0  0  0  0
    8.3365  -13.1084   17.7331 C   0  0  0  0  0  0  0  0  0  0  0  0
    8.4757  -13.0446   16.3919 N   0  0  0  0  0  0  0  0  0  0  0  0
    7.9445  -14.1802   15.8847 C   0  0  0  0  0  0  0  0  0  0  0  0
    7.4863  -14.9304   16.8894 N   0  0  0  0  0  0  0  0  0  0  0  0
    8.0934  -15.7200   21.5329 C   0  0  0  0  0  0  0  0  0  0  0  0
    6.8624  -15.6635   21.6710 O   0  0  0  0  0  0  0  0  0  0  0  0
    8.9589  -19.0257   22.5854 N   0  0  0  0  0  0  0  0  0  0  0  0
    9.7799  -18.8111   23.7145 C   0  0  0  0  0  0  0  0  0  0  0  0
   10.5419  -19.7366   24.0832 O   0  0  0  0  0  0  0  0  0  0  0  0
    9.7364  -17.5470   24.4249 C   0  0  0  0  0  0  0  0  0  0  0  0
    8.7499  -16.5201   23.8690 C   0  0  2  0  0  0  0  0  0  0  0  0
    8.9861  -16.1415   22.5071 N   0  0  0  0  0  0  0  0  0  0  0  0
    8.9845  -15.3055   24.7287 C   0  0  0  0  0  0  0  0  0  0  0  0
   10.0497  -14.6401   24.6471 O   0  0  0  0  0  0  0  0  0  0  0  0
    6.3465  -12.4756   25.3969 C   0  0  0  0  0  0  0  0  0  0  0  0
    6.8378  -13.0291   26.7115 C   0  0  2  0  0  0  0  0  0  0  0  0
    7.0391  -11.8830   27.6625 C   0  0  0  0  0  0  0  0  0  0  0  0
    8.1945  -13.7281   26.5367 C   0  0  2  0  0  0  0  0  0  0  0  0
    8.0036  -14.8806   25.6554 N   0  0  0  0  0  0  0  0  0  0  0  0
    8.5970  -14.1952   27.8791 C   0  0  0  0  0  0  0  0  0  0  0  0
    8.9355  -13.3335   28.7298 O   0  0  0  0  0  0  0  0  0  0  0  0
    8.6365  -15.5088   28.2913 O   0  0  0  0  0  0  0  0  0  0  0  0
  2  1  1  6
  2  9  1  0
  3  4  1  0
  3  2  1  0
  4  5  2  0
  4  8  1  0
  5  6  1  0
  6  7  1  0
  8  7  2  0
  9 10  2  0
 11 12  1  0
 12 13  2  0
 12 14  1  0
 15 14  1  1
 15 17  1  0
 16  9  1  0
 16 15  1  0
 17 23  1  0
 17 18  2  0
 20 19  1  6
 20 22  1  0
 21 20  1  0
 22 24  1  0
 22 23  1  6
 24 25  2  0
 24 26  1  0
M  END
$$$$
