HNV.pdb
     RDKit          3D

 26 26  0  0  1  0  0  0  0  0999 V2000
    9.0125  -15.6969   20.5509 N   0  0  0  0  0  0  0  0  0  0  0  0
    8.2536  -14.6408   21.1636 C   0  0  1  0  0  0  0  0  0  0  0  0
    7.0441  -14.3371   20.3206 C   0  0  0  0  0  0  0  0  0  0  0  0
    7.4209  -14.0020   18.9229 C   0  0  0  0  0  0  0  0  0  0  0  0
    8.0849  -12.8405   18.5233 C   0  0  0  0  0  0  0  0  0  0  0  0
    8.2544  -12.8811   17.1847 N   0  0  0  0  0  0  0  0  0  0  0  0
    7.7100  -14.0411   16.7522 C   0  0  0  0  0  0  0  0  0  0  0  0
    7.2142  -14.7039   17.7995 N   0  0  0  0  0  0  0  0  0  0  0  0
    7.7261  -15.1069   22.5115 C   0  0  0  0  0  0  0  0  0  0  0  0
    6.9413  -14.3090   23.0455 O   0  0  0  0  0  0  0  0  0  0  0  0
    6.3779  -19.1572   26.1985 N   0  0  0  0  0  0  0  0  0  0  0  0
    7.6935  -18.9902   25.7121 C   0  0  0  0  0  0  0  0  0  0  0  0
    8.6491  -19.3551   26.4377 O   0  0  0  0  0  0  0  0  0  0  0  0
    7.9245  -18.4096   24.4028 C   0  0  0  0  0  0  0  0  0  0  0  0
    7.8481  -16.8841   24.3432 C   0  0  2  0  0  0  0  0  0  0  0  0
    8.1175  -16.3226   23.0525 N   0  0  0  0  0  0  0  0  0  0  0  0
    8.9467  -16.4403   25.2736 C   0  0  0  0  0  0  0  0  0  0  0  0
   10.1589  -16.5307   24.9472 O   0  0  0  0  0  0  0  0  0  0  0  0
    8.4666  -13.1206   27.2116 C   0  0  0  0  0  0  0  0  0  0  0  0
    9.0093  -14.1441   28.1779 C   0  0  2  0  0  0  0  0  0  0  0  0
   10.0847  -13.4941   29.0021 C   0  0  0  0  0  0  0  0  0  0  0  0
    9.6511  -15.3192   27.4249 C   0  0  2  0  0  0  0  0  0  0  0  0
    8.6382  -15.9060   26.5467 N   0  0  0  0  0  0  0  0  0  0  0  0
   10.0443  -16.3055   28.4521 C   0  0  0  0  0  0  0  0  0  0  0  0
   11.0387  -16.0436   29.1754 O   0  0  0  0  0  0  0  0  0  0  0  0
    9.4118  -17.5048   28.6942 O   0  0  0  0  0  0  0  0  0  0  0  0
  2  1  1  6
  2  9  1  0
  3  4  1  0
  3  2  1  0
  4  5  2  0
  4  8  1  0
  5  6  1  0
  6  7  1  0
  8  7  2  0
  9 10  2  0
 11 12  1  0
 12 13  2  0
 12 14  1  0
 15 14  1  6
 15 17  1  0
 16  9  1  0
 16 15  1  0
 17 23  1  0
 17 18  2  0
 20 19  1  6
 20 22  1  0
 21 20  1  0
 22 24  1  0
 22 23  1  6
 24 25  2  0
 24 26  1  0
M  END
$$$$
