HNV.pdb
     RDKit          3D

 26 26  0  0  1  0  0  0  0  0999 V2000
    6.8791  -17.1823   19.8449 N   0  0  0  0  0  0  0  0  0  0  0  0
    7.5769  -16.2108   20.6424 C   0  0  1  0  0  0  0  0  0  0  0  0
    6.9038  -14.8714   20.5053 C   0  0  0  0  0  0  0  0  0  0  0  0
    7.6068  -14.0030   19.5259 C   0  0  0  0  0  0  0  0  0  0  0  0
    8.7518  -14.3580   18.8098 C   0  0  0  0  0  0  0  0  0  0  0  0
    9.1052  -13.3203   18.0221 N   0  0  0  0  0  0  0  0  0  0  0  0
    8.2036  -12.3354   18.2373 C   0  0  0  0  0  0  0  0  0  0  0  0
    7.3120  -12.7538   19.1384 N   0  0  0  0  0  0  0  0  0  0  0  0
    7.4759  -16.5890   22.1118 C   0  0  0  0  0  0  0  0  0  0  0  0
    6.3107  -16.6886   22.5244 O   0  0  0  0  0  0  0  0  0  0  0  0
   11.3901  -18.2339   26.6380 N   0  0  0  0  0  0  0  0  0  0  0  0
   10.0977  -18.2032   26.0689 C   0  0  0  0  0  0  0  0  0  0  0  0
    9.1104  -18.3914   26.8191 O   0  0  0  0  0  0  0  0  0  0  0  0
    9.9257  -17.9591   24.6492 C   0  0  0  0  0  0  0  0  0  0  0  0
    8.7405  -17.0671   24.2798 C   0  0  2  0  0  0  0  0  0  0  0  0
    8.6132  -16.7930   22.8789 N   0  0  0  0  0  0  0  0  0  0  0  0
    9.0493  -15.7663   24.9742 C   0  0  0  0  0  0  0  0  0  0  0  0
   10.1145  -15.1366   24.7436 O   0  0  0  0  0  0  0  0  0  0  0  0
    6.4165  -12.9083   25.6910 C   0  0  0  0  0  0  0  0  0  0  0  0
    7.1095  -13.2928   26.9747 C   0  0  2  0  0  0  0  0  0  0  0  0
    7.4332  -12.0364   27.7330 C   0  0  0  0  0  0  0  0  0  0  0  0
    8.4355  -14.0121   26.6850 C   0  0  2  0  0  0  0  0  0  0  0  0
    8.1406  -15.2173   25.9091 N   0  0  0  0  0  0  0  0  0  0  0  0
    8.9954  -14.3953   27.9973 C   0  0  0  0  0  0  0  0  0  0  0  0
    9.4489  -13.4853   28.7368 O   0  0  0  0  0  0  0  0  0  0  0  0
    9.0676  -15.6781   28.4933 O   0  0  0  0  0  0  0  0  0  0  0  0
  2  1  1  6
  2  9  1  0
  3  4  1  0
  3  2  1  0
  4  5  2  0
  4  8  1  0
  5  6  1  0
  6  7  1  0
  8  7  2  0
  9 10  2  0
 11 12  1  0
 12 13  2  0
 12 14  1  0
 15 14  1  6
 15 17  1  0
 16  9  1  0
 16 15  1  0
 17 23  1  0
 17 18  2  0
 20 19  1  6
 20 22  1  0
 21 20  1  0
 22 24  1  0
 22 23  1  6
 24 25  2  0
 24 26  1  0
M  END
$$$$
