HNV.pdb
     RDKit          3D

 26 26  0  0  1  0  0  0  0  0999 V2000
    9.2473  -15.4465   19.6925 N   0  0  0  0  0  0  0  0  0  0  0  0
    8.0078  -14.7433   19.8816 C   0  0  1  0  0  0  0  0  0  0  0  0
    7.0208  -15.1730   18.8295 C   0  0  0  0  0  0  0  0  0  0  0  0
    7.4485  -14.7483   17.4714 C   0  0  0  0  0  0  0  0  0  0  0  0
    8.1789  -13.5944   17.1802 C   0  0  0  0  0  0  0  0  0  0  0  0
    8.3795  -13.5378   15.8465 N   0  0  0  0  0  0  0  0  0  0  0  0
    7.7893  -14.6305   15.3111 C   0  0  0  0  0  0  0  0  0  0  0  0
    7.2354  -15.3477   16.2913 N   0  0  0  0  0  0  0  0  0  0  0  0
    7.3992  -15.1324   21.2197 C   0  0  0  0  0  0  0  0  0  0  0  0
    6.2682  -14.6616   21.4115 O   0  0  0  0  0  0  0  0  0  0  0  0
    6.4224  -19.3146   23.1110 N   0  0  0  0  0  0  0  0  0  0  0  0
    7.7596  -18.8779   22.9821 C   0  0  0  0  0  0  0  0  0  0  0  0
    8.5014  -19.4619   22.1566 O   0  0  0  0  0  0  0  0  0  0  0  0
    8.2545  -17.7788   23.7894 C   0  0  0  0  0  0  0  0  0  0  0  0
    7.7113  -16.3994   23.4164 C   0  0  2  0  0  0  0  0  0  0  0  0
    8.0868  -15.9427   22.1110 N   0  0  0  0  0  0  0  0  0  0  0  0
    8.3552  -15.4835   24.4243 C   0  0  0  0  0  0  0  0  0  0  0  0
    9.6009  -15.3046   24.4461 O   0  0  0  0  0  0  0  0  0  0  0  0
    6.3962  -12.1846   25.6760 C   0  0  0  0  0  0  0  0  0  0  0  0
    7.0127  -12.9316   26.8326 C   0  0  2  0  0  0  0  0  0  0  0  0
    7.6268  -11.9302   27.7698 C   0  0  0  0  0  0  0  0  0  0  0  0
    8.1366  -13.8591   26.3465 C   0  0  2  0  0  0  0  0  0  0  0  0
    7.5674  -14.7965   25.3775 N   0  0  0  0  0  0  0  0  0  0  0  0
    8.6051  -14.6018   27.5345 C   0  0  0  0  0  0  0  0  0  0  0  0
    8.0606  -15.7043   27.7970 O   0  0  0  0  0  0  0  0  0  0  0  0
    9.5991  -14.1913   28.3949 O   0  0  0  0  0  0  0  0  0  0  0  0
  2  1  1  6
  2  9  1  0
  3  4  1  0
  3  2  1  0
  4  5  2  0
  4  8  1  0
  5  6  1  0
  6  7  1  0
  8  7  2  0
  9 10  2  0
 11 12  1  0
 12 13  2  0
 12 14  1  0
 15 14  1  1
 15 17  1  0
 16  9  1  0
 16 15  1  0
 17 23  1  0
 17 18  2  0
 20 19  1  6
 20 22  1  0
 21 20  1  0
 22 24  1  0
 22 23  1  6
 24 25  2  0
 24 26  1  0
M  END
$$$$
