FAT.pdb
     RDKit          3D

 24 24  0  0  1  0  0  0  0  0999 V2000
   38.2430   -2.9947   -9.4789 N   0  0  0  0  0  0  0  0  0  0  0  0
   36.8052   -2.9169   -9.4935 C   0  0  1  0  0  0  0  0  0  0  0  0
   36.2401   -2.6079   -8.1230 C   0  0  0  0  0  0  0  0  0  0  0  0
   36.4969   -3.8184   -7.2713 C   0  0  0  0  0  0  0  0  0  0  0  0
   35.9432   -5.0435   -7.6156 C   0  0  0  0  0  0  0  0  0  0  0  0
   36.1705   -6.1647   -6.8429 C   0  0  0  0  0  0  0  0  0  0  0  0
   36.9668   -6.0080   -5.7239 C   0  0  0  0  0  0  0  0  0  0  0  0
   37.5198   -4.7918   -5.3772 C   0  0  0  0  0  0  0  0  0  0  0  0
   37.2906   -3.6734   -6.1515 C   0  0  0  0  0  0  0  0  0  0  0  0
   36.4062   -1.8741  -10.4728 C   0  0  0  0  0  0  0  0  0  0  0  0
   37.1001   -0.8436  -10.6539 O   0  0  0  0  0  0  0  0  0  0  0  0
   34.0027   -1.6014  -13.3556 C   0  0  0  0  0  0  0  0  0  0  0  0
   34.8116   -1.0147  -12.2210 C   0  0  2  0  0  0  0  0  0  0  0  0
   35.2175   -1.9864  -11.2578 N   0  0  0  0  0  0  0  0  0  0  0  0
   33.9790    0.0436  -11.5774 C   0  0  0  0  0  0  0  0  0  0  0  0
   33.0700   -0.2338  -10.7558 O   0  0  0  0  0  0  0  0  0  0  0  0
   35.3928    3.8046  -10.4878 C   0  0  0  0  0  0  0  0  0  0  0  0
   34.0639    3.8136  -11.2279 C   0  0  1  0  0  0  0  0  0  0  0  0
   34.3635    4.1422  -12.5523 O   0  0  0  0  0  0  0  0  0  0  0  0
   33.4086    2.4634  -11.2235 C   0  0  2  0  0  0  0  0  0  0  0  0
   34.1597    1.4333  -11.8515 N   0  0  0  0  0  0  0  0  0  0  0  0
   32.0323    2.6019  -11.8155 C   0  0  0  0  0  0  0  0  0  0  0  0
   31.0362    3.3090  -11.1575 O   0  0  0  0  0  0  0  0  0  0  0  0
   31.7264    2.0879  -12.9222 O   0  0  0  0  0  0  0  0  0  0  0  0
  2  1  1  1
  3  2  1  0
  4  3  1  0
  5  4  2  0
  6  5  1  0
  7  6  2  0
  7  8  1  0
  8  9  2  0
  9  4  1  0
 10  2  1  0
 10 11  2  0
 13 12  1  6
 13 14  1  0
 13 15  1  0
 14 10  1  0
 15 16  2  0
 15 21  1  0
 18 17  1  1
 18 19  1  0
 18 20  1  0
 20 22  1  0
 20 21  1  6
 22 24  2  0
 22 23  1  0
M  END
$$$$
