FAT.pdb
     RDKit          3D

 24 24  0  0  1  0  0  0  0  0999 V2000
   22.7978  -13.4424  -17.8439 N   0  0  0  0  0  0  0  0  0  0  0  0
   22.0314  -12.9017  -16.7513 C   0  0  1  0  0  0  0  0  0  0  0  0
   22.6852  -13.1710  -15.4122 C   0  0  0  0  0  0  0  0  0  0  0  0
   22.6265  -14.6568  -15.1984 C   0  0  0  0  0  0  0  0  0  0  0  0
   21.4139  -15.2750  -14.9272 C   0  0  0  0  0  0  0  0  0  0  0  0
   21.3443  -16.6394  -14.7287 C   0  0  0  0  0  0  0  0  0  0  0  0
   22.5273  -17.3495  -14.8127 C   0  0  0  0  0  0  0  0  0  0  0  0
   23.7357  -16.7394  -15.0822 C   0  0  0  0  0  0  0  0  0  0  0  0
   23.8018  -15.3758  -15.2800 C   0  0  0  0  0  0  0  0  0  0  0  0
   21.8720  -11.4419  -16.9731 C   0  0  0  0  0  0  0  0  0  0  0  0
   22.8459  -10.7157  -17.2903 O   0  0  0  0  0  0  0  0  0  0  0  0
   18.9720   -9.0903  -17.5196 C   0  0  0  0  0  0  0  0  0  0  0  0
   20.3982   -9.4070  -17.1303 C   0  0  2  0  0  0  0  0  0  0  0  0
   20.6086  -10.7880  -16.8385 N   0  0  0  0  0  0  0  0  0  0  0  0
   20.7370   -8.5647  -15.9457 C   0  0  0  0  0  0  0  0  0  0  0  0
   20.7344   -9.0279  -14.7780 O   0  0  0  0  0  0  0  0  0  0  0  0
   22.4927   -4.2979  -14.0502 C   0  0  0  0  0  0  0  0  0  0  0  0
   22.0147   -5.0388  -15.2897 C   0  0  1  0  0  0  0  0  0  0  0  0
   23.1606   -5.3100  -16.0415 O   0  0  0  0  0  0  0  0  0  0  0  0
   21.3660   -6.3481  -14.9471 C   0  0  2  0  0  0  0  0  0  0  0  0
   21.0845   -7.1844  -16.0610 N   0  0  0  0  0  0  0  0  0  0  0  0
   20.1376   -6.0683  -14.1244 C   0  0  0  0  0  0  0  0  0  0  0  0
   20.1425   -6.2384  -12.7475 O   0  0  0  0  0  0  0  0  0  0  0  0
   19.0624   -5.6717  -14.6432 O   0  0  0  0  0  0  0  0  0  0  0  0
  2  1  1  6
  3  2  1  0
  4  3  1  0
  5  4  2  0
  6  5  1  0
  7  6  2  0
  7  8  1  0
  8  9  2  0
  9  4  1  0
 10  2  1  0
 10 11  2  0
 13 12  1  1
 13 14  1  0
 13 15  1  0
 14 10  1  0
 15 16  2  0
 15 21  1  0
 18 17  1  1
 18 19  1  0
 18 20  1  0
 20 22  1  0
 20 21  1  6
 22 24  2  0
 22 23  1  0
M  END
$$$$
