FAT.pdb
     RDKit          3D

 24 24  0  0  1  0  0  0  0  0999 V2000
   20.3376  -14.6172  -18.0631 N   0  0  0  0  0  0  0  0  0  0  0  0
   20.2649  -13.3668  -18.7736 C   0  0  1  0  0  0  0  0  0  0  0  0
   18.8359  -12.9730  -19.0837 C   0  0  0  0  0  0  0  0  0  0  0  0
   18.0513  -13.1792  -17.8194 C   0  0  0  0  0  0  0  0  0  0  0  0
   17.5031  -14.4218  -17.5337 C   0  0  0  0  0  0  0  0  0  0  0  0
   16.7798  -14.6265  -16.3758 C   0  0  0  0  0  0  0  0  0  0  0  0
   16.6310  -13.5460  -15.5264 C   0  0  0  0  0  0  0  0  0  0  0  0
   17.1741  -12.3083  -15.8060 C   0  0  0  0  0  0  0  0  0  0  0  0
   17.8963  -12.1071  -16.9640 C   0  0  0  0  0  0  0  0  0  0  0  0
   20.9292  -12.3249  -17.9497 C   0  0  0  0  0  0  0  0  0  0  0  0
   21.1545  -12.4995  -16.7269 O   0  0  0  0  0  0  0  0  0  0  0  0
   22.9672   -9.2335  -18.5901 C   0  0  0  0  0  0  0  0  0  0  0  0
   22.0252  -10.0673  -17.7515 C   0  0  2  0  0  0  0  0  0  0  0  0
   21.3459  -11.0741  -18.5007 N   0  0  0  0  0  0  0  0  0  0  0  0
   21.0456   -9.1363  -17.1182 C   0  0  0  0  0  0  0  0  0  0  0  0
   19.9957   -8.7755  -17.7062 O   0  0  0  0  0  0  0  0  0  0  0  0
   19.4939   -9.5221  -13.5324 C   0  0  0  0  0  0  0  0  0  0  0  0
   20.0499   -8.1170  -13.7058 C   0  0  1  0  0  0  0  0  0  0  0  0
   21.2880   -8.1107  -13.0587 O   0  0  0  0  0  0  0  0  0  0  0  0
   20.2810   -7.7778  -15.1494 C   0  0  2  0  0  0  0  0  0  0  0  0
   21.2361   -8.5973  -15.8096 N   0  0  0  0  0  0  0  0  0  0  0  0
   20.6270   -6.3165  -15.2441 C   0  0  0  0  0  0  0  0  0  0  0  0
   19.7151   -5.3382  -14.8748 O   0  0  0  0  0  0  0  0  0  0  0  0
   21.7469   -5.9207  -15.6582 O   0  0  0  0  0  0  0  0  0  0  0  0
  2  1  1  1
  3  2  1  0
  4  3  1  0
  5  4  2  0
  6  5  1  0
  7  6  2  0
  7  8  1  0
  8  9  2  0
  9  4  1  0
 10  2  1  0
 10 11  2  0
 13 12  1  6
 13 14  1  0
 13 15  1  0
 14 10  1  0
 15 16  2  0
 15 21  1  0
 18 17  1  6
 18 19  1  0
 18 20  1  0
 20 22  1  0
 20 21  1  1
 22 24  2  0
 22 23  1  0
M  END
$$$$
