FAT.pdb
     RDKit          3D

 24 24  0  0  1  0  0  0  0  0999 V2000
   28.6125  -21.6614   -8.7171 N   0  0  0  0  0  0  0  0  0  0  0  0
   27.4147  -20.8762   -8.8670 C   0  0  1  0  0  0  0  0  0  0  0  0
   27.5935  -19.4646   -8.3486 C   0  0  0  0  0  0  0  0  0  0  0  0
   27.8838  -19.5819   -6.8794 C   0  0  0  0  0  0  0  0  0  0  0  0
   29.1523  -19.2957   -6.3942 C   0  0  0  0  0  0  0  0  0  0  0  0
   29.4340  -19.3987   -5.0467 C   0  0  0  0  0  0  0  0  0  0  0  0
   28.4030  -19.7959   -4.2158 C   0  0  0  0  0  0  0  0  0  0  0  0
   27.1399  -20.0816   -4.6934 C   0  0  0  0  0  0  0  0  0  0  0  0
   26.8617  -19.9777   -6.0405 C   0  0  0  0  0  0  0  0  0  0  0  0
   27.0441  -20.8639  -10.3050 C   0  0  0  0  0  0  0  0  0  0  0  0
   27.9091  -20.9834  -11.2072 O   0  0  0  0  0  0  0  0  0  0  0  0
   25.4295  -22.2766  -12.6146 C   0  0  0  0  0  0  0  0  0  0  0  0
   25.2734  -20.8655  -12.0945 C   0  0  2  0  0  0  0  0  0  0  0  0
   25.6903  -20.7163  -10.7379 N   0  0  0  0  0  0  0  0  0  0  0  0
   23.8370  -20.4888  -12.2447 C   0  0  0  0  0  0  0  0  0  0  0  0
   23.0450  -20.4865  -11.2696 O   0  0  0  0  0  0  0  0  0  0  0  0
   20.4331  -18.0873  -14.9797 C   0  0  0  0  0  0  0  0  0  0  0  0
   21.7021  -18.9260  -14.9835 C   0  0  1  0  0  0  0  0  0  0  0  0
   22.7441  -18.0453  -15.2842 O   0  0  0  0  0  0  0  0  0  0  0  0
   21.9810  -19.5301  -13.6383 C   0  0  2  0  0  0  0  0  0  0  0  0
   23.2717  -20.1085  -13.4996 N   0  0  0  0  0  0  0  0  0  0  0  0
   20.8843  -20.5104  -13.3216 C   0  0  0  0  0  0  0  0  0  0  0  0
   19.8194  -20.1563  -12.5058 O   0  0  0  0  0  0  0  0  0  0  0  0
   20.8841  -21.6827  -13.7778 O   0  0  0  0  0  0  0  0  0  0  0  0
  2  1  1  6
  3  2  1  0
  4  3  1  0
  5  4  2  0
  6  5  1  0
  7  6  2  0
  7  8  1  0
  8  9  2  0
  9  4  1  0
 10  2  1  0
 10 11  2  0
 13 12  1  1
 13 14  1  0
 13 15  1  0
 14 10  1  0
 15 16  2  0
 15 21  1  0
 18 17  1  1
 18 19  1  0
 18 20  1  0
 20 22  1  0
 20 21  1  6
 22 24  2  0
 22 23  1  0
M  END
$$$$
