FAT.pdb
     RDKit          3D

 24 24  0  0  1  0  0  0  0  0999 V2000
   24.5577  -19.7011  -10.3128 N   0  0  0  0  0  0  0  0  0  0  0  0
   25.8841  -19.8016  -10.8644 C   0  0  1  0  0  0  0  0  0  0  0  0
   26.6196  -21.0228  -10.3536 C   0  0  0  0  0  0  0  0  0  0  0  0
   27.0916  -20.6892   -8.9670 C   0  0  0  0  0  0  0  0  0  0  0  0
   28.3997  -20.2761   -8.7562 C   0  0  0  0  0  0  0  0  0  0  0  0
   28.8477  -19.9659   -7.4878 C   0  0  0  0  0  0  0  0  0  0  0  0
   27.9402  -20.0858   -6.4520 C   0  0  0  0  0  0  0  0  0  0  0  0
   26.6383  -20.4962   -6.6565 C   0  0  0  0  0  0  0  0  0  0  0  0
   26.1937  -20.8054   -7.9252 C   0  0  0  0  0  0  0  0  0  0  0  0
   25.7700  -19.8389  -12.3447 C   0  0  0  0  0  0  0  0  0  0  0  0
   24.6815  -20.1004  -12.9131 O   0  0  0  0  0  0  0  0  0  0  0  0
   28.0855  -18.9187  -15.2349 C   0  0  0  0  0  0  0  0  0  0  0  0
   26.7664  -19.2715  -14.5859 C   0  0  2  0  0  0  0  0  0  0  0  0
   26.8869  -19.5806  -13.1979 N   0  0  0  0  0  0  0  0  0  0  0  0
   26.1955  -20.4310  -15.3323 C   0  0  0  0  0  0  0  0  0  0  0  0
   26.8033  -20.9684  -16.2914 O   0  0  0  0  0  0  0  0  0  0  0  0
   25.5677  -23.9068  -14.4881 C   0  0  0  0  0  0  0  0  0  0  0  0
   24.2164  -23.3584  -14.9204 C   0  0  1  0  0  0  0  0  0  0  0  0
   23.5292  -23.0563  -13.7421 O   0  0  0  0  0  0  0  0  0  0  0  0
   24.3513  -22.0921  -15.7145 C   0  0  2  0  0  0  0  0  0  0  0  0
   24.9279  -21.0025  -15.0072 N   0  0  0  0  0  0  0  0  0  0  0  0
   23.0040  -21.7454  -16.2877 C   0  0  0  0  0  0  0  0  0  0  0  0
   22.3652  -22.5929  -17.1814 O   0  0  0  0  0  0  0  0  0  0  0  0
   22.4028  -20.6826  -15.9853 O   0  0  0  0  0  0  0  0  0  0  0  0
  2  1  1  1
  3  2  1  0
  4  3  1  0
  5  4  2  0
  6  5  1  0
  7  6  2  0
  7  8  1  0
  8  9  2  0
  9  4  1  0
 10  2  1  0
 10 11  2  0
 13 12  1  6
 13 14  1  0
 13 15  1  0
 14 10  1  0
 15 16  2  0
 15 21  1  0
 18 17  1  1
 18 19  1  0
 18 20  1  0
 20 22  1  0
 20 21  1  1
 22 24  2  0
 22 23  1  0
M  END
$$$$
