FAT.pdb
     RDKit          3D

 24 24  0  0  1  0  0  0  0  0999 V2000
   19.5912  -24.2144  -11.6768 N   0  0  0  0  0  0  0  0  0  0  0  0
   19.3343  -23.4476  -10.4853 C   0  0  1  0  0  0  0  0  0  0  0  0
   18.6038  -22.1563  -10.7884 C   0  0  0  0  0  0  0  0  0  0  0  0
   19.6452  -21.1702  -11.2352 C   0  0  0  0  0  0  0  0  0  0  0  0
   20.3900  -20.4693  -10.2970 C   0  0  0  0  0  0  0  0  0  0  0  0
   21.3506  -19.5601  -10.6924 C   0  0  0  0  0  0  0  0  0  0  0  0
   21.5311  -19.3852  -12.0517 C   0  0  0  0  0  0  0  0  0  0  0  0
   20.7930  -20.0797  -12.9887 C   0  0  0  0  0  0  0  0  0  0  0  0
   19.8339  -20.9875  -12.5902 C   0  0  0  0  0  0  0  0  0  0  0  0
   18.5447  -24.2904   -9.5516 C   0  0  0  0  0  0  0  0  0  0  0  0
   17.7325  -25.1512   -9.9711 O   0  0  0  0  0  0  0  0  0  0  0  0
   18.4490  -24.8607   -5.7882 C   0  0  0  0  0  0  0  0  0  0  0  0
   17.9336  -24.9686   -7.2055 C   0  0  2  0  0  0  0  0  0  0  0  0
   18.6655  -24.1682   -8.1331 N   0  0  0  0  0  0  0  0  0  0  0  0
   16.4956  -24.5695   -7.1912 C   0  0  0  0  0  0  0  0  0  0  0  0
   16.1257  -23.4061   -7.4874 O   0  0  0  0  0  0  0  0  0  0  0  0
   13.3438  -27.2070   -8.1362 C   0  0  0  0  0  0  0  0  0  0  0  0
   13.1420  -26.3307   -6.9094 C   0  0  1  0  0  0  0  0  0  0  0  0
   13.4557  -27.1319   -5.8087 O   0  0  0  0  0  0  0  0  0  0  0  0
   14.0698  -25.1511   -6.9021 C   0  0  2  0  0  0  0  0  0  0  0  0
   15.4514  -25.4787   -6.8418 N   0  0  0  0  0  0  0  0  0  0  0  0
   13.6573  -24.2296   -5.7865 C   0  0  0  0  0  0  0  0  0  0  0  0
   12.4534  -23.5414   -5.8328 O   0  0  0  0  0  0  0  0  0  0  0  0
   14.3781  -24.0440   -4.7723 O   0  0  0  0  0  0  0  0  0  0  0  0
  2  1  1  6
  3  2  1  0
  4  3  1  0
  5  4  2  0
  6  5  1  0
  7  6  2  0
  7  8  1  0
  8  9  2  0
  9  4  1  0
 10  2  1  0
 10 11  2  0
 13 12  1  1
 13 14  1  0
 13 15  1  0
 14 10  1  0
 15 16  2  0
 15 21  1  0
 18 17  1  6
 18 19  1  0
 18 20  1  0
 20 22  1  0
 20 21  1  1
 22 24  2  0
 22 23  1  0
M  END
$$$$
