FAT.pdb
     RDKit          3D

 24 24  0  0  1  0  0  0  0  0999 V2000
   20.5803  -11.7308  -18.2588 N   0  0  0  0  0  0  0  0  0  0  0  0
   21.1869  -10.4266  -18.1903 C   0  0  1  0  0  0  0  0  0  0  0  0
   21.2245   -9.7470  -19.5431 C   0  0  0  0  0  0  0  0  0  0  0  0
   22.1460  -10.5614  -20.4057 C   0  0  0  0  0  0  0  0  0  0  0  0
   21.6314  -11.3498  -21.4254 C   0  0  0  0  0  0  0  0  0  0  0  0
   22.4657  -12.1034  -22.2265 C   0  0  0  0  0  0  0  0  0  0  0  0
   23.8215  -12.0342  -21.9655 C   0  0  0  0  0  0  0  0  0  0  0  0
   24.3382  -11.2516  -20.9528 C   0  0  0  0  0  0  0  0  0  0  0  0
   23.5017  -10.4998  -20.1541 C   0  0  0  0  0  0  0  0  0  0  0  0
   20.4227   -9.6094  -17.2137 C   0  0  0  0  0  0  0  0  0  0  0  0
   19.1674   -9.6158  -17.1921 O   0  0  0  0  0  0  0  0  0  0  0  0
   21.2130   -7.4991  -14.1595 C   0  0  0  0  0  0  0  0  0  0  0  0
   20.3715   -7.9294  -15.3396 C   0  0  2  0  0  0  0  0  0  0  0  0
   21.0710   -8.7761  -16.2508 N   0  0  0  0  0  0  0  0  0  0  0  0
   19.9021   -6.6924  -16.0302 C   0  0  0  0  0  0  0  0  0  0  0  0
   20.5859   -6.1278  -16.9201 O   0  0  0  0  0  0  0  0  0  0  0  0
   16.0523   -4.5886  -15.0941 C   0  0  0  0  0  0  0  0  0  0  0  0
   16.6286   -4.8827  -16.4708 C   0  0  1  0  0  0  0  0  0  0  0  0
   16.2703   -3.7995  -17.2770 O   0  0  0  0  0  0  0  0  0  0  0  0
   18.1268   -4.9659  -16.4472 C   0  0  2  0  0  0  0  0  0  0  0  0
   18.6520   -6.0726  -15.7267 N   0  0  0  0  0  0  0  0  0  0  0  0
   18.6672   -3.6549  -15.9439 C   0  0  0  0  0  0  0  0  0  0  0  0
   18.6063   -2.5079  -16.7222 O   0  0  0  0  0  0  0  0  0  0  0  0
   19.1928   -3.5414  -14.8067 O   0  0  0  0  0  0  0  0  0  0  0  0
  2  1  1  6
  3  2  1  0
  4  3  1  0
  5  4  2  0
  6  5  1  0
  7  6  2  0
  7  8  1  0
  8  9  2  0
  9  4  1  0
 10  2  1  0
 10 11  2  0
 13 12  1  1
 13 14  1  0
 13 15  1  0
 14 10  1  0
 15 16  2  0
 15 21  1  0
 18 17  1  1
 18 19  1  0
 18 20  1  0
 20 22  1  0
 20 21  1  1
 22 24  2  0
 22 23  1  0
M  END
$$$$
