FAT.pdb
     RDKit          3D

 24 24  0  0  1  0  0  0  0  0999 V2000
   22.7135  -16.0261  -16.4269 N   0  0  0  0  0  0  0  0  0  0  0  0
   23.0100  -14.7610  -17.0477 C   0  0  1  0  0  0  0  0  0  0  0  0
   22.1867  -14.5363  -18.2986 C   0  0  0  0  0  0  0  0  0  0  0  0
   22.7432  -15.4556  -19.3482 C   0  0  0  0  0  0  0  0  0  0  0  0
   23.7735  -15.0284  -20.1741 C   0  0  0  0  0  0  0  0  0  0  0  0
   24.2953  -15.8620  -21.1429 C   0  0  0  0  0  0  0  0  0  0  0  0
   23.7475  -17.1268  -21.2477 C   0  0  0  0  0  0  0  0  0  0  0  0
   22.7229  -17.5564  -20.4287 C   0  0  0  0  0  0  0  0  0  0  0  0
   22.2037  -16.7210  -19.4616 C   0  0  0  0  0  0  0  0  0  0  0  0
   22.7592  -13.6859  -16.0543 C   0  0  0  0  0  0  0  0  0  0  0  0
   21.7037  -13.6526  -15.3751 O   0  0  0  0  0  0  0  0  0  0  0  0
   24.7694  -11.0548  -14.2763 C   0  0  0  0  0  0  0  0  0  0  0  0
   23.4881  -11.5799  -14.8834 C   0  0  2  0  0  0  0  0  0  0  0  0
   23.7002  -12.6367  -15.8187 N   0  0  0  0  0  0  0  0  0  0  0  0
   22.7994  -10.4303  -15.5404 C   0  0  0  0  0  0  0  0  0  0  0  0
   23.1225  -10.0285  -16.6860 O   0  0  0  0  0  0  0  0  0  0  0  0
   19.3389   -9.8930  -16.7323 C   0  0  0  0  0  0  0  0  0  0  0  0
   19.6194   -8.7681  -15.7477 C   0  0  1  0  0  0  0  0  0  0  0  0
   19.0219   -9.1521  -14.5447 O   0  0  0  0  0  0  0  0  0  0  0  0
   21.0889   -8.5922  -15.4985 C   0  0  2  0  0  0  0  0  0  0  0  0
   21.7339   -9.7155  -14.9138 N   0  0  0  0  0  0  0  0  0  0  0  0
   21.2863   -7.3404  -14.6873 C   0  0  0  0  0  0  0  0  0  0  0  0
   21.0140   -6.0892  -15.2216 O   0  0  0  0  0  0  0  0  0  0  0  0
   21.7029   -7.3721  -13.5008 O   0  0  0  0  0  0  0  0  0  0  0  0
  2  1  1  1
  3  2  1  0
  4  3  1  0
  5  4  2  0
  6  5  1  0
  7  6  2  0
  7  8  1  0
  8  9  2  0
  9  4  1  0
 10  2  1  0
 10 11  2  0
 13 12  1  6
 13 14  1  0
 13 15  1  0
 14 10  1  0
 15 16  2  0
 15 21  1  0
 18 17  1  6
 18 19  1  0
 18 20  1  0
 20 22  1  0
 20 21  1  1
 22 24  2  0
 22 23  1  0
M  END
$$$$
