FAT.pdb
     RDKit          3D

 24 24  0  0  1  0  0  0  0  0999 V2000
   28.6720  -21.2528   -8.9807 N   0  0  0  0  0  0  0  0  0  0  0  0
   27.2990  -20.8196   -8.9499 C   0  0  1  0  0  0  0  0  0  0  0  0
   27.1525  -19.4425   -8.3373 C   0  0  0  0  0  0  0  0  0  0  0  0
   27.5434  -19.5729   -6.8928 C   0  0  0  0  0  0  0  0  0  0  0  0
   26.7324  -20.2741   -6.0114 C   0  0  0  0  0  0  0  0  0  0  0  0
   27.0786  -20.4026   -4.6812 C   0  0  0  0  0  0  0  0  0  0  0  0
   28.2580  -19.8058   -4.2765 C   0  0  0  0  0  0  0  0  0  0  0  0
   29.0680  -19.1074   -5.1490 C   0  0  0  0  0  0  0  0  0  0  0  0
   28.7191  -18.9808   -6.4776 C   0  0  0  0  0  0  0  0  0  0  0  0
   26.7760  -20.8339  -10.3398 C   0  0  0  0  0  0  0  0  0  0  0  0
   27.4478  -20.3809  -11.2989 O   0  0  0  0  0  0  0  0  0  0  0  0
   24.5481  -22.8006  -12.4118 C   0  0  0  0  0  0  0  0  0  0  0  0
   24.9592  -21.4098  -11.9845 C   0  0  2  0  0  0  0  0  0  0  0  0
   25.4869  -21.3611  -10.6594 N   0  0  0  0  0  0  0  0  0  0  0  0
   23.7582  -20.5316  -12.1017 C   0  0  0  0  0  0  0  0  0  0  0  0
   23.1240  -20.1345  -11.0927 O   0  0  0  0  0  0  0  0  0  0  0  0
   23.1548  -17.4585  -14.8761 C   0  0  0  0  0  0  0  0  0  0  0  0
   22.0365  -18.4852  -14.7812 C   0  0  1  0  0  0  0  0  0  0  0  0
   22.2380  -19.3725  -15.8412 O   0  0  0  0  0  0  0  0  0  0  0  0
   22.1001  -19.2695  -13.5032 C   0  0  2  0  0  0  0  0  0  0  0  0
   23.2537  -20.0873  -13.3616 N   0  0  0  0  0  0  0  0  0  0  0  0
   20.8264  -20.0587  -13.3667 C   0  0  0  0  0  0  0  0  0  0  0  0
   19.6141  -19.4280  -13.1268 O   0  0  0  0  0  0  0  0  0  0  0  0
   20.8040  -21.3127  -13.4630 O   0  0  0  0  0  0  0  0  0  0  0  0
  2  1  1  6
  3  2  1  0
  4  3  1  0
  5  4  2  0
  6  5  1  0
  7  6  2  0
  7  8  1  0
  8  9  2  0
  9  4  1  0
 10  2  1  0
 10 11  2  0
 13 12  1  1
 13 14  1  0
 13 15  1  0
 14 10  1  0
 15 16  2  0
 15 21  1  0
 18 17  1  1
 18 19  1  0
 18 20  1  0
 20 22  1  0
 20 21  1  6
 22 24  2  0
 22 23  1  0
M  END
$$$$
