FAT.pdb
     RDKit          3D

 24 24  0  0  1  0  0  0  0  0999 V2000
   29.5047  -21.8320   -9.1988 N   0  0  0  0  0  0  0  0  0  0  0  0
   28.2218  -21.1980   -9.0376 C   0  0  1  0  0  0  0  0  0  0  0  0
   28.3484  -19.7956   -8.4802 C   0  0  0  0  0  0  0  0  0  0  0  0
   28.2412  -19.9173   -6.9868 C   0  0  0  0  0  0  0  0  0  0  0  0
   26.9949  -19.9949   -6.3811 C   0  0  0  0  0  0  0  0  0  0  0  0
   26.8806  -20.1073   -5.0100 C   0  0  0  0  0  0  0  0  0  0  0  0
   28.0542  -20.1383   -4.2802 C   0  0  0  0  0  0  0  0  0  0  0  0
   29.2960  -20.0614   -4.8778 C   0  0  0  0  0  0  0  0  0  0  0  0
   29.4068  -19.9492   -6.2482 C   0  0  0  0  0  0  0  0  0  0  0  0
   27.5440  -21.1782  -10.3588 C   0  0  0  0  0  0  0  0  0  0  0  0
   28.1696  -20.9102  -11.4139 O   0  0  0  0  0  0  0  0  0  0  0  0
   24.1242  -22.1741  -11.6882 C   0  0  0  0  0  0  0  0  0  0  0  0
   25.4753  -21.4989  -11.7570 C   0  0  2  0  0  0  0  0  0  0  0  0
   26.1506  -21.4617  -10.5004 N   0  0  0  0  0  0  0  0  0  0  0  0
   25.2595  -20.1163  -12.2760 C   0  0  0  0  0  0  0  0  0  0  0  0
   24.8292  -19.1910  -11.5433 O   0  0  0  0  0  0  0  0  0  0  0  0
   27.5267  -17.4904  -14.0563 C   0  0  0  0  0  0  0  0  0  0  0  0
   26.3497  -17.8471  -14.9513 C   0  0  1  0  0  0  0  0  0  0  0  0
   26.8314  -18.7906  -15.8622 O   0  0  0  0  0  0  0  0  0  0  0  0
   25.2283  -18.4795  -14.1802 C   0  0  2  0  0  0  0  0  0  0  0  0
   25.5265  -19.7562  -13.6317 N   0  0  0  0  0  0  0  0  0  0  0  0
   24.0072  -18.5120  -15.0589 C   0  0  0  0  0  0  0  0  0  0  0  0
   23.4036  -17.3401  -15.4916 O   0  0  0  0  0  0  0  0  0  0  0  0
   23.4846  -19.5922  -15.4365 O   0  0  0  0  0  0  0  0  0  0  0  0
  2  1  1  6
  3  2  1  0
  4  3  1  0
  5  4  2  0
  6  5  1  0
  7  6  2  0
  7  8  1  0
  8  9  2  0
  9  4  1  0
 10  2  1  0
 10 11  2  0
 13 12  1  1
 13 14  1  0
 13 15  1  0
 14 10  1  0
 15 16  2  0
 15 21  1  0
 18 17  1  1
 18 19  1  0
 18 20  1  0
 20 22  1  0
 20 21  1  6
 22 24  2  0
 22 23  1  0
M  END
$$$$
