FAT.pdb
     RDKit          3D

 24 24  0  0  1  0  0  0  0  0999 V2000
   26.2529  -18.5020   -7.9509 N   0  0  0  0  0  0  0  0  0  0  0  0
   27.0310  -19.5869   -8.4907 C   0  0  1  0  0  0  0  0  0  0  0  0
   27.0764  -20.7741   -7.5518 C   0  0  0  0  0  0  0  0  0  0  0  0
   27.8690  -20.3405   -6.3516 C   0  0  0  0  0  0  0  0  0  0  0  0
   27.2177  -19.9109   -5.2038 C   0  0  0  0  0  0  0  0  0  0  0  0
   27.9326  -19.5097   -4.0931 C   0  0  0  0  0  0  0  0  0  0  0  0
   29.3114  -19.5567   -4.1803 C   0  0  0  0  0  0  0  0  0  0  0  0
   29.9639  -19.9832   -5.3194 C   0  0  0  0  0  0  0  0  0  0  0  0
   29.2465  -20.3834   -6.4276 C   0  0  0  0  0  0  0  0  0  0  0  0
   26.4434  -19.9744   -9.7984 C   0  0  0  0  0  0  0  0  0  0  0  0
   25.2139  -19.8596  -10.0257 O   0  0  0  0  0  0  0  0  0  0  0  0
   28.0203  -20.7511  -13.1767 C   0  0  0  0  0  0  0  0  0  0  0  0
   26.8903  -20.3832  -12.2419 C   0  0  2  0  0  0  0  0  0  0  0  0
   27.2409  -20.4961  -10.8632 N   0  0  0  0  0  0  0  0  0  0  0  0
   25.7357  -21.2729  -12.5625 C   0  0  0  0  0  0  0  0  0  0  0  0
   25.7604  -22.5060  -12.3236 O   0  0  0  0  0  0  0  0  0  0  0  0
   22.0458  -21.2029  -11.4001 C   0  0  0  0  0  0  0  0  0  0  0  0
   22.1051  -21.1110  -12.9173 C   0  0  1  0  0  0  0  0  0  0  0  0
   21.9975  -19.7525  -13.2247 O   0  0  0  0  0  0  0  0  0  0  0  0
   23.4140  -21.6056  -13.4598 C   0  0  2  0  0  0  0  0  0  0  0  0
   24.5338  -20.7840  -13.1586 N   0  0  0  0  0  0  0  0  0  0  0  0
   23.2595  -21.8318  -14.9393 C   0  0  0  0  0  0  0  0  0  0  0  0
   22.4382  -22.8370  -15.4293 O   0  0  0  0  0  0  0  0  0  0  0  0
   23.8619  -21.1268  -15.7894 O   0  0  0  0  0  0  0  0  0  0  0  0
  2  1  1  1
  3  2  1  0
  4  3  1  0
  5  4  2  0
  6  5  1  0
  7  6  2  0
  7  8  1  0
  8  9  2  0
  9  4  1  0
 10  2  1  0
 10 11  2  0
 13 12  1  6
 13 14  1  0
 13 15  1  0
 14 10  1  0
 15 16  2  0
 15 21  1  0
 18 17  1  1
 18 19  1  0
 18 20  1  0
 20 22  1  0
 20 21  1  6
 22 24  2  0
 22 23  1  0
M  END
$$$$
