FAT.pdb
     RDKit          3D

 24 24  0  0  1  0  0  0  0  0999 V2000
   28.4856  -21.2281   -9.0843 N   0  0  0  0  0  0  0  0  0  0  0  0
   27.1251  -20.7591   -9.0313 C   0  0  1  0  0  0  0  0  0  0  0  0
   27.0199  -19.3977   -8.3765 C   0  0  0  0  0  0  0  0  0  0  0  0
   27.5159  -19.5607   -6.9679 C   0  0  0  0  0  0  0  0  0  0  0  0
   28.7243  -18.9961   -6.5844 C   0  0  0  0  0  0  0  0  0  0  0  0
   29.1929  -19.1372   -5.2935 C   0  0  0  0  0  0  0  0  0  0  0  0
   28.4084  -19.8595   -4.4138 C   0  0  0  0  0  0  0  0  0  0  0  0
   27.2060  -20.4229   -4.7903 C   0  0  0  0  0  0  0  0  0  0  0  0
   26.7406  -20.2800   -6.0811 C   0  0  0  0  0  0  0  0  0  0  0  0
   26.5937  -20.7171  -10.4174 C   0  0  0  0  0  0  0  0  0  0  0  0
   27.1451  -20.0293  -11.3115 O   0  0  0  0  0  0  0  0  0  0  0  0
   24.6453  -22.7654  -12.7258 C   0  0  0  0  0  0  0  0  0  0  0  0
   24.8647  -21.3999  -12.1150 C   0  0  2  0  0  0  0  0  0  0  0  0
   25.4324  -21.4530  -10.8068 N   0  0  0  0  0  0  0  0  0  0  0  0
   23.5442  -20.7051  -12.0843 C   0  0  0  0  0  0  0  0  0  0  0  0
   22.8231  -20.6934  -11.0556 O   0  0  0  0  0  0  0  0  0  0  0  0
   21.5116  -19.1352  -15.7261 C   0  0  0  0  0  0  0  0  0  0  0  0
   21.4954  -18.4541  -14.3661 C   0  0  1  0  0  0  0  0  0  0  0  0
   20.2131  -17.9192  -14.2192 O   0  0  0  0  0  0  0  0  0  0  0  0
   21.7211  -19.4280  -13.2468 C   0  0  2  0  0  0  0  0  0  0  0  0
   23.0163  -20.0120  -13.2156 N   0  0  0  0  0  0  0  0  0  0  0  0
   20.6330  -20.4662  -13.2942 C   0  0  0  0  0  0  0  0  0  0  0  0
   19.3731  -20.2091  -12.7730 O   0  0  0  0  0  0  0  0  0  0  0  0
   20.8152  -21.6020  -13.8034 O   0  0  0  0  0  0  0  0  0  0  0  0
  2  1  1  6
  3  2  1  0
  4  3  1  0
  5  4  2  0
  6  5  1  0
  7  6  2  0
  7  8  1  0
  8  9  2  0
  9  4  1  0
 10  2  1  0
 10 11  2  0
 13 12  1  1
 13 14  1  0
 13 15  1  0
 14 10  1  0
 15 16  2  0
 15 21  1  0
 18 17  1  6
 18 19  1  0
 18 20  1  0
 20 22  1  0
 20 21  1  6
 22 24  2  0
 22 23  1  0
M  END
$$$$
