FAT.pdb
     RDKit          3D

 24 24  0  0  1  0  0  0  0  0999 V2000
   27.9953  -21.2875  -16.0927 N   0  0  0  0  0  0  0  0  0  0  0  0
   27.6278  -20.3144  -15.0968 C   0  0  1  0  0  0  0  0  0  0  0  0
   27.0301  -19.0681  -15.7153 C   0  0  0  0  0  0  0  0  0  0  0  0
   28.1231  -18.4225  -16.5186 C   0  0  0  0  0  0  0  0  0  0  0  0
   27.9369  -18.1658  -17.8697 C   0  0  0  0  0  0  0  0  0  0  0  0
   28.9320  -17.5729  -18.6208 C   0  0  0  0  0  0  0  0  0  0  0  0
   30.1076  -17.2520  -17.9682 C   0  0  0  0  0  0  0  0  0  0  0  0
   30.2977  -17.5053  -16.6247 C   0  0  0  0  0  0  0  0  0  0  0  0
   29.3013  -18.0979  -15.8771 C   0  0  0  0  0  0  0  0  0  0  0  0
   26.6655  -20.9487  -14.1603 C   0  0  0  0  0  0  0  0  0  0  0  0
   25.7563  -21.7116  -14.5700 O   0  0  0  0  0  0  0  0  0  0  0  0
   25.9968  -20.7792  -10.4054 C   0  0  0  0  0  0  0  0  0  0  0  0
   25.6890  -21.1188  -11.8462 C   0  0  2  0  0  0  0  0  0  0  0  0
   26.7215  -20.7264  -12.7499 N   0  0  0  0  0  0  0  0  0  0  0  0
   24.4026  -20.4498  -12.1995 C   0  0  0  0  0  0  0  0  0  0  0  0
   24.3124  -19.2023  -12.3167 O   0  0  0  0  0  0  0  0  0  0  0  0
   22.3982  -20.6645  -15.2674 C   0  0  0  0  0  0  0  0  0  0  0  0
   21.4353  -20.9979  -14.1380 C   0  0  1  0  0  0  0  0  0  0  0  0
   21.3183  -22.3900  -14.1308 O   0  0  0  0  0  0  0  0  0  0  0  0
   21.9675  -20.5717  -12.8011 C   0  0  2  0  0  0  0  0  0  0  0  0
   23.1963  -21.1795  -12.4263 N   0  0  0  0  0  0  0  0  0  0  0  0
   20.8919  -20.7875  -11.7713 C   0  0  0  0  0  0  0  0  0  0  0  0
   19.6851  -20.1065  -11.8411 O   0  0  0  0  0  0  0  0  0  0  0  0
   21.0373  -21.5869  -10.8109 O   0  0  0  0  0  0  0  0  0  0  0  0
  2  1  1  6
  3  2  1  0
  4  3  1  0
  5  4  2  0
  6  5  1  0
  7  6  2  0
  7  8  1  0
  8  9  2  0
  9  4  1  0
 10  2  1  0
 10 11  2  0
 13 12  1  1
 13 14  1  0
 13 15  1  0
 14 10  1  0
 15 16  2  0
 15 21  1  0
 18 17  1  6
 18 19  1  0
 18 20  1  0
 20 22  1  0
 20 21  1  1
 22 24  2  0
 22 23  1  0
M  END
$$$$
