FAT.pdb
     RDKit          3D

 24 24  0  0  1  0  0  0  0  0999 V2000
   28.4774  -21.1440   -8.8466 N   0  0  0  0  0  0  0  0  0  0  0  0
   27.0880  -20.7680   -8.8889 C   0  0  1  0  0  0  0  0  0  0  0  0
   26.8488  -19.4097   -8.2636 C   0  0  0  0  0  0  0  0  0  0  0  0
   27.2289  -19.5324   -6.8154 C   0  0  0  0  0  0  0  0  0  0  0  0
   28.2458  -18.7461   -6.2923 C   0  0  0  0  0  0  0  0  0  0  0  0
   28.6059  -18.8475   -4.9634 C   0  0  0  0  0  0  0  0  0  0  0  0
   27.9120  -19.7594   -4.1903 C   0  0  0  0  0  0  0  0  0  0  0  0
   26.8999  -20.5437   -4.7058 C   0  0  0  0  0  0  0  0  0  0  0  0
   26.5425  -20.4399   -6.0341 C   0  0  0  0  0  0  0  0  0  0  0  0
   26.6471  -20.7776  -10.3070 C   0  0  0  0  0  0  0  0  0  0  0  0
   27.4282  -20.4672  -11.2397 O   0  0  0  0  0  0  0  0  0  0  0  0
   23.5098  -21.8696  -12.1764 C   0  0  0  0  0  0  0  0  0  0  0  0
   24.8848  -21.2558  -12.0401 C   0  0  2  0  0  0  0  0  0  0  0  0
   25.3172  -21.1388  -10.6851 N   0  0  0  0  0  0  0  0  0  0  0  0
   24.8437  -19.9146  -12.6935 C   0  0  0  0  0  0  0  0  0  0  0  0
   24.3838  -18.9033  -12.1071 O   0  0  0  0  0  0  0  0  0  0  0  0
   27.7211  -17.8352  -13.8894 C   0  0  0  0  0  0  0  0  0  0  0  0
   26.7720  -18.0006  -15.0666 C   0  0  1  0  0  0  0  0  0  0  0  0
   27.3009  -19.0333  -15.8448 O   0  0  0  0  0  0  0  0  0  0  0  0
   25.3969  -18.4106  -14.6270 C   0  0  2  0  0  0  0  0  0  0  0  0
   25.3217  -19.6938  -14.0209 N   0  0  0  0  0  0  0  0  0  0  0  0
   24.4656  -18.2841  -15.8020 C   0  0  0  0  0  0  0  0  0  0  0  0
   23.8424  -19.3978  -16.3464 O   0  0  0  0  0  0  0  0  0  0  0  0
   24.2129  -17.1743  -16.3376 O   0  0  0  0  0  0  0  0  0  0  0  0
  2  1  1  6
  3  2  1  0
  4  3  1  0
  5  4  2  0
  6  5  1  0
  7  6  2  0
  7  8  1  0
  8  9  2  0
  9  4  1  0
 10  2  1  0
 10 11  2  0
 13 12  1  1
 13 14  1  0
 13 15  1  0
 14 10  1  0
 15 16  2  0
 15 21  1  0
 18 17  1  1
 18 19  1  0
 18 20  1  0
 20 22  1  0
 20 21  1  6
 22 24  2  0
 22 23  1  0
M  END
$$$$
