FAT.pdb
     RDKit          3D

 24 24  0  0  1  0  0  0  0  0999 V2000
   23.3661  -21.7908  -14.9523 N   0  0  0  0  0  0  0  0  0  0  0  0
   23.9075  -20.6421  -14.2733 C   0  0  1  0  0  0  0  0  0  0  0  0
   22.8226  -19.7864  -13.6535 C   0  0  0  0  0  0  0  0  0  0  0  0
   22.0633  -19.1671  -14.7922 C   0  0  0  0  0  0  0  0  0  0  0  0
   22.7108  -18.3266  -15.6868 C   0  0  0  0  0  0  0  0  0  0  0  0
   22.0263  -17.7504  -16.7382 C   0  0  0  0  0  0  0  0  0  0  0  0
   20.6814  -18.0487  -16.8535 C   0  0  0  0  0  0  0  0  0  0  0  0
   20.0329  -18.8840  -15.9664 C   0  0  0  0  0  0  0  0  0  0  0  0
   20.7198  -19.4581  -14.9169 C   0  0  0  0  0  0  0  0  0  0  0  0
   24.8557  -21.1202  -13.2351 C   0  0  0  0  0  0  0  0  0  0  0  0
   24.4857  -21.8830  -12.3090 O   0  0  0  0  0  0  0  0  0  0  0  0
   28.5698  -20.6886  -12.4837 C   0  0  0  0  0  0  0  0  0  0  0  0
   27.1320  -21.0295  -12.1636 C   0  0  2  0  0  0  0  0  0  0  0  0
   26.2332  -20.7402  -13.2337 N   0  0  0  0  0  0  0  0  0  0  0  0
   26.7517  -20.2643  -10.9399 C   0  0  0  0  0  0  0  0  0  0  0  0
   26.3680  -19.0694  -10.9956 O   0  0  0  0  0  0  0  0  0  0  0  0
   24.0927  -20.5580   -8.3830 C   0  0  0  0  0  0  0  0  0  0  0  0
   25.4056  -20.5992   -7.6160 C   0  0  1  0  0  0  0  0  0  0  0  0
   25.6380  -21.9454   -7.3236 O   0  0  0  0  0  0  0  0  0  0  0  0
   26.5552  -20.1003   -8.4418 C   0  0  2  0  0  0  0  0  0  0  0  0
   26.7987  -20.8368   -9.6326 N   0  0  0  0  0  0  0  0  0  0  0  0
   27.7741  -20.0262   -7.5627 C   0  0  0  0  0  0  0  0  0  0  0  0
   27.8129  -19.1853   -6.4598 O   0  0  0  0  0  0  0  0  0  0  0  0
   28.8018  -20.7163   -7.7862 O   0  0  0  0  0  0  0  0  0  0  0  0
  2  1  1  1
  3  2  1  0
  4  3  1  0
  5  4  2  0
  6  5  1  0
  7  6  2  0
  7  8  1  0
  8  9  2  0
  9  4  1  0
 10  2  1  0
 10 11  2  0
 13 12  1  6
 13 14  1  0
 13 15  1  0
 14 10  1  0
 15 16  2  0
 15 21  1  0
 18 17  1  6
 18 19  1  0
 18 20  1  0
 20 22  1  0
 20 21  1  6
 22 24  2  0
 22 23  1  0
M  END
$$$$
