FAT.pdb
     RDKit          3D

 24 24  0  0  1  0  0  0  0  0999 V2000
   22.2519  -11.1180  -17.7484 N   0  0  0  0  0  0  0  0  0  0  0  0
   21.4540  -10.2234  -18.5464 C   0  0  1  0  0  0  0  0  0  0  0  0
   20.0051  -10.6591  -18.6095 C   0  0  0  0  0  0  0  0  0  0  0  0
   19.9695  -11.9073  -19.4445 C   0  0  0  0  0  0  0  0  0  0  0  0
   19.6149  -13.1203  -18.8708 C   0  0  0  0  0  0  0  0  0  0  0  0
   19.5775  -14.2757  -19.6255 C   0  0  0  0  0  0  0  0  0  0  0  0
   19.9066  -14.1652  -20.9636 C   0  0  0  0  0  0  0  0  0  0  0  0
   20.2598  -12.9613  -21.5389 C   0  0  0  0  0  0  0  0  0  0  0  0
   20.2963  -11.8087  -20.7819 C   0  0  0  0  0  0  0  0  0  0  0  0
   21.5671   -8.8597  -17.9692 C   0  0  0  0  0  0  0  0  0  0  0  0
   21.5332   -8.6667  -16.7290 O   0  0  0  0  0  0  0  0  0  0  0  0
   22.7300   -5.4773  -19.0457 C   0  0  0  0  0  0  0  0  0  0  0  0
   21.7851   -6.3703  -18.2741 C   0  0  2  0  0  0  0  0  0  0  0  0
   21.7199   -7.6996  -18.7893 N   0  0  0  0  0  0  0  0  0  0  0  0
   20.4372   -5.7304  -18.3058 C   0  0  0  0  0  0  0  0  0  0  0  0
   19.6781   -5.8284  -19.3020 O   0  0  0  0  0  0  0  0  0  0  0  0
   17.4607   -6.3356  -16.1064 C   0  0  0  0  0  0  0  0  0  0  0  0
   17.7575   -4.8448  -16.0490 C   0  0  1  0  0  0  0  0  0  0  0  0
   18.4696   -4.6398  -14.8647 O   0  0  0  0  0  0  0  0  0  0  0  0
   18.6225   -4.3993  -17.1916 C   0  0  2  0  0  0  0  0  0  0  0  0
   19.9244   -4.9688  -17.2122 N   0  0  0  0  0  0  0  0  0  0  0  0
   18.6623   -2.8952  -17.1984 C   0  0  0  0  0  0  0  0  0  0  0  0
   17.5096   -2.1481  -17.3937 O   0  0  0  0  0  0  0  0  0  0  0  0
   19.7316   -2.2545  -17.0291 O   0  0  0  0  0  0  0  0  0  0  0  0
  2  1  1  1
  3  2  1  0
  4  3  1  0
  5  4  2  0
  6  5  1  0
  7  6  2  0
  7  8  1  0
  8  9  2  0
  9  4  1  0
 10  2  1  0
 10 11  2  0
 13 12  1  6
 13 14  1  0
 13 15  1  0
 14 10  1  0
 15 16  2  0
 15 21  1  0
 18 17  1  6
 18 19  1  0
 18 20  1  0
 20 22  1  0
 20 21  1  1
 22 24  2  0
 22 23  1  0
M  END
$$$$
