ASA.pdb
     RDKit          3D

 17 16  0  0  1  0  0  0  0  0999 V2000
    8.5531  -20.3739   19.0092 C   0  0  0  0  0  0  0  0  0  0  0  0
    7.2803  -19.6467   18.7893 C   0  0  2  0  0  0  0  0  0  0  0  0
    7.4543  -18.6527   17.7521 N   0  0  0  0  0  0  0  0  0  0  0  0
    6.6488  -19.0506   19.9470 C   0  0  0  0  0  0  0  0  0  0  0  0
    6.5764  -17.7718   19.9803 O   0  0  0  0  0  0  0  0  0  0  0  0
    5.1564  -21.2714   23.2226 O   0  0  0  0  0  0  0  0  0  0  0  0
    4.5294  -20.0721   22.8922 C   0  0  0  0  0  0  0  0  0  0  0  0
    5.5219  -19.1548   22.2078 C   0  0  2  0  0  0  0  0  0  0  0  0
    6.1057  -19.7726   21.0442 N   0  0  0  0  0  0  0  0  0  0  0  0
    6.5662  -18.8245   23.2359 C   0  0  0  0  0  0  0  0  0  0  0  0
    7.5937  -19.5243   23.2401 O   0  0  0  0  0  0  0  0  0  0  0  0
    7.1065  -16.1289   25.8362 C   0  0  0  0  0  0  0  0  0  0  0  0
    7.4378  -17.4070   25.0882 C   0  0  2  0  0  0  0  0  0  0  0  0
    6.3905  -17.7652   24.1587 N   0  0  0  0  0  0  0  0  0  0  0  0
    7.6461  -18.4911   26.0803 C   0  0  0  0  0  0  0  0  0  0  0  0
    8.8411  -18.6281   26.7501 O   0  0  0  0  0  0  0  0  0  0  0  0
    6.7095  -19.2955   26.3081 O   0  0  0  0  0  0  0  0  0  0  0  0
  2  1  1  1
  2  3  1  0
  4  5  2  0
  4  2  1  0
  6  7  1  0
  8  7  1  1
  8  9  1  0
  9  4  1  0
 10  8  1  0
 11 10  2  0
 13 12  1  1
 13 15  1  0
 13 14  1  0
 14 10  1  0
 15 16  1  0
 17 15  2  0
M  END
$$$$
