ASA.pdb
     RDKit          3D

 17 16  0  0  1  0  0  0  0  0999 V2000
    8.2446  -12.3186   19.4866 C   0  0  0  0  0  0  0  0  0  0  0  0
    8.2091  -13.7974   19.5835 C   0  0  2  0  0  0  0  0  0  0  0  0
    7.5148  -14.3489   18.4398 N   0  0  0  0  0  0  0  0  0  0  0  0
    7.6849  -14.3692   20.8052 C   0  0  0  0  0  0  0  0  0  0  0  0
    6.4187  -14.5545   20.8682 O   0  0  0  0  0  0  0  0  0  0  0  0
    7.7664  -17.1426   24.5963 O   0  0  0  0  0  0  0  0  0  0  0  0
    8.3026  -16.7007   23.3889 C   0  0  0  0  0  0  0  0  0  0  0  0
    7.9136  -15.2543   23.1624 C   0  0  2  0  0  0  0  0  0  0  0  0
    8.4645  -14.7390   21.9346 N   0  0  0  0  0  0  0  0  0  0  0  0
    8.4199  -14.4920   24.3537 C   0  0  0  0  0  0  0  0  0  0  0  0
    9.6527  -14.3804   24.4685 O   0  0  0  0  0  0  0  0  0  0  0  0
    7.0312  -12.3296   27.0928 C   0  0  0  0  0  0  0  0  0  0  0  0
    8.0364  -13.3048   26.5086 C   0  0  2  0  0  0  0  0  0  0  0  0
    7.5355  -13.9257   25.3032 N   0  0  0  0  0  0  0  0  0  0  0  0
    8.3440  -14.3327   27.5342 C   0  0  0  0  0  0  0  0  0  0  0  0
    8.0269  -15.6578   27.3365 O   0  0  0  0  0  0  0  0  0  0  0  0
    8.9045  -13.9795   28.6006 O   0  0  0  0  0  0  0  0  0  0  0  0
  2  1  1  1
  2  3  1  0
  4  5  2  0
  4  2  1  0
  6  7  1  0
  8  7  1  1
  8  9  1  0
  9  4  1  0
 10  8  1  0
 11 10  2  0
 13 12  1  1
 13 15  1  0
 13 14  1  0
 14 10  1  0
 15 16  1  0
 17 15  2  0
M  END
$$$$
