ASA.pdb
     RDKit          3D

 17 16  0  0  1  0  0  0  0  0999 V2000
    6.3190  -16.9560   20.0604 C   0  0  0  0  0  0  0  0  0  0  0  0
    7.1438  -15.7355   19.8945 C   0  0  2  0  0  0  0  0  0  0  0  0
    7.8611  -15.7933   18.6390 N   0  0  0  0  0  0  0  0  0  0  0  0
    8.0518  -15.3978   20.9696 C   0  0  0  0  0  0  0  0  0  0  0  0
    9.3036  -15.5629   20.7517 O   0  0  0  0  0  0  0  0  0  0  0  0
    6.7495  -14.4056   24.8306 O   0  0  0  0  0  0  0  0  0  0  0  0
    7.9466  -13.8223   24.4214 C   0  0  0  0  0  0  0  0  0  0  0  0
    8.5749  -14.6684   23.3331 C   0  0  2  0  0  0  0  0  0  0  0  0
    7.6620  -14.8996   22.2423 N   0  0  0  0  0  0  0  0  0  0  0  0
    8.9856  -15.9566   23.9875 C   0  0  0  0  0  0  0  0  0  0  0  0
    8.1433  -16.8708   24.0092 O   0  0  0  0  0  0  0  0  0  0  0  0
   12.1163  -17.7329   24.6806 C   0  0  0  0  0  0  0  0  0  0  0  0
   10.6911  -17.4024   25.0835 C   0  0  2  0  0  0  0  0  0  0  0  0
   10.2721  -16.1243   24.5541 N   0  0  0  0  0  0  0  0  0  0  0  0
   10.6098  -17.4035   26.5655 C   0  0  0  0  0  0  0  0  0  0  0  0
   10.9358  -18.5220   27.2990 O   0  0  0  0  0  0  0  0  0  0  0  0
   10.2355  -16.3602   27.1550 O   0  0  0  0  0  0  0  0  0  0  0  0
  2  1  1  1
  2  3  1  0
  4  5  2  0
  4  2  1  0
  6  7  1  0
  8  7  1  1
  8  9  1  0
  9  4  1  0
 10  8  1  0
 11 10  2  0
 13 12  1  1
 13 15  1  0
 13 14  1  0
 14 10  1  0
 15 16  1  0
 17 15  2  0
M  END
$$$$
