ASA.pdb
     RDKit          3D

 17 16  0  0  1  0  0  0  0  0999 V2000
   -3.7348  -27.3850   22.2023 C   0  0  0  0  0  0  0  0  0  0  0  0
   -3.4300  -27.0799   23.6205 C   0  0  2  0  0  0  0  0  0  0  0  0
   -3.5165  -28.2875   24.4132 N   0  0  0  0  0  0  0  0  0  0  0  0
   -4.1884  -26.0190   24.2482 C   0  0  0  0  0  0  0  0  0  0  0  0
   -3.9292  -24.8189   23.8817 O   0  0  0  0  0  0  0  0  0  0  0  0
   -6.7263  -26.5040   27.6137 O   0  0  0  0  0  0  0  0  0  0  0  0
   -7.1488  -25.6496   26.5978 C   0  0  0  0  0  0  0  0  0  0  0  0
   -5.9442  -25.1341   25.8374 C   0  0  2  0  0  0  0  0  0  0  0  0
   -5.1936  -26.2067   25.2352 N   0  0  0  0  0  0  0  0  0  0  0  0
   -5.1138  -24.3742   26.8321 C   0  0  0  0  0  0  0  0  0  0  0  0
   -4.3110  -25.0328   27.5157 O   0  0  0  0  0  0  0  0  0  0  0  0
   -3.9480  -20.9278   27.3867 C   0  0  0  0  0  0  0  0  0  0  0  0
   -4.4289  -22.2544   27.9447 C   0  0  2  0  0  0  0  0  0  0  0  0
   -5.2379  -22.9723   26.9857 N   0  0  0  0  0  0  0  0  0  0  0  0
   -5.2024  -21.9901   29.1835 C   0  0  0  0  0  0  0  0  0  0  0  0
   -4.5780  -21.6042   30.3483 O   0  0  0  0  0  0  0  0  0  0  0  0
   -6.4506  -22.1230   29.1614 O   0  0  0  0  0  0  0  0  0  0  0  0
  2  1  1  6
  2  3  1  0
  4  5  2  0
  4  2  1  0
  6  7  1  0
  8  7  1  1
  8  9  1  0
  9  4  1  0
 10  8  1  0
 11 10  2  0
 13 12  1  6
 13 15  1  0
 13 14  1  0
 14 10  1  0
 15 16  1  0
 17 15  2  0
M  END
$$$$
