ASA.pdb
     RDKit          3D

 17 16  0  0  1  0  0  0  0  0999 V2000
    7.6421  -17.4865   15.3960 C   0  0  0  0  0  0  0  0  0  0  0  0
    8.1578  -16.0990   15.3157 C   0  0  2  0  0  0  0  0  0  0  0  0
    9.1233  -15.9943   14.2429 N   0  0  0  0  0  0  0  0  0  0  0  0
    8.6981  -15.5214   16.5277 C   0  0  0  0  0  0  0  0  0  0  0  0
    9.9463  -15.6998   16.7549 O   0  0  0  0  0  0  0  0  0  0  0  0
    8.0403  -13.0315   20.6899 O   0  0  0  0  0  0  0  0  0  0  0  0
    7.4707  -13.4805   19.5005 C   0  0  0  0  0  0  0  0  0  0  0  0
    8.4894  -14.2926   18.7274 C   0  0  2  0  0  0  0  0  0  0  0  0
    7.9525  -14.7750   17.4801 N   0  0  0  0  0  0  0  0  0  0  0  0
    8.8921  -15.4265   19.6266 C   0  0  0  0  0  0  0  0  0  0  0  0
    8.0845  -16.3641   19.7469 O   0  0  0  0  0  0  0  0  0  0  0  0
   11.7824  -17.1762   20.7920 C   0  0  0  0  0  0  0  0  0  0  0  0
   10.4864  -16.5045   21.2066 C   0  0  2  0  0  0  0  0  0  0  0  0
   10.1337  -15.4295   20.3069 N   0  0  0  0  0  0  0  0  0  0  0  0
   10.6444  -15.9934   22.5911 C   0  0  0  0  0  0  0  0  0  0  0  0
   10.4754  -14.6591   22.8848 O   0  0  0  0  0  0  0  0  0  0  0  0
   10.9380  -16.7998   23.5075 O   0  0  0  0  0  0  0  0  0  0  0  0
  2  1  1  1
  2  3  1  0
  4  5  2  0
  4  2  1  0
  6  7  1  0
  8  7  1  1
  8  9  1  0
  9  4  1  0
 10  8  1  0
 11 10  2  0
 13 12  1  6
 13 15  1  0
 13 14  1  0
 14 10  1  0
 15 16  1  0
 17 15  2  0
M  END
$$$$
