ASA.pdb
     RDKit          3D

 17 16  0  0  1  0  0  0  0  0999 V2000
   -2.3582  -27.5894   27.5279 C   0  0  0  0  0  0  0  0  0  0  0  0
   -3.6817  -26.9245   27.4669 C   0  0  2  0  0  0  0  0  0  0  0  0
   -3.9946  -26.5761   26.0976 N   0  0  0  0  0  0  0  0  0  0  0  0
   -3.8897  -25.7813   28.3297 C   0  0  0  0  0  0  0  0  0  0  0  0
   -3.7651  -25.9699   29.5908 O   0  0  0  0  0  0  0  0  0  0  0  0
   -4.9599  -22.0194   26.8637 O   0  0  0  0  0  0  0  0  0  0  0  0
   -4.3219  -22.0363   28.1019 C   0  0  0  0  0  0  0  0  0  0  0  0
   -4.5450  -23.3790   28.7670 C   0  0  2  0  0  0  0  0  0  0  0  0
   -4.2199  -24.4720   27.8860 N   0  0  0  0  0  0  0  0  0  0  0  0
   -5.9912  -23.4118   29.1717 C   0  0  0  0  0  0  0  0  0  0  0  0
   -6.8117  -23.7536   28.3025 O   0  0  0  0  0  0  0  0  0  0  0  0
   -7.9551  -23.3765   32.3537 C   0  0  0  0  0  0  0  0  0  0  0  0
   -7.7959  -23.1323   30.8645 C   0  0  2  0  0  0  0  0  0  0  0  0
   -6.4033  -23.0695   30.4822 N   0  0  0  0  0  0  0  0  0  0  0  0
   -8.4876  -21.8652   30.5198 C   0  0  0  0  0  0  0  0  0  0  0  0
   -9.8530  -21.8189   30.3492 O   0  0  0  0  0  0  0  0  0  0  0  0
   -7.8077  -20.8187   30.3827 O   0  0  0  0  0  0  0  0  0  0  0  0
  2  1  1  6
  2  3  1  0
  4  5  2  0
  4  2  1  0
  6  7  1  0
  8  7  1  6
  8  9  1  0
  9  4  1  0
 10  8  1  0
 11 10  2  0
 13 12  1  1
 13 15  1  0
 13 14  1  0
 14 10  1  0
 15 16  1  0
 17 15  2  0
M  END
$$$$
