ASA.pdb
     RDKit          3D

 17 16  0  0  1  0  0  0  0  0999 V2000
    8.7862  -19.2245   18.0977 C   0  0  0  0  0  0  0  0  0  0  0  0
    8.7303  -17.7682   17.8265 C   0  0  2  0  0  0  0  0  0  0  0  0
    9.8213  -17.3876   16.9554 N   0  0  0  0  0  0  0  0  0  0  0  0
    8.6761  -16.8825   18.9699 C   0  0  0  0  0  0  0  0  0  0  0  0
    9.7901  -16.4302   19.4127 O   0  0  0  0  0  0  0  0  0  0  0  0
    5.2370  -16.2900   21.2502 O   0  0  0  0  0  0  0  0  0  0  0  0
    6.0472  -15.1649   21.1152 C   0  0  0  0  0  0  0  0  0  0  0  0
    7.4586  -15.5965   20.7742 C   0  0  2  0  0  0  0  0  0  0  0  0
    7.4869  -16.4787   19.6351 N   0  0  0  0  0  0  0  0  0  0  0  0
    8.0003  -16.2695   22.0031 C   0  0  0  0  0  0  0  0  0  0  0  0
    7.9488  -17.5113   22.0342 O   0  0  0  0  0  0  0  0  0  0  0  0
    9.7717  -15.2106   25.1753 C   0  0  0  0  0  0  0  0  0  0  0  0
    9.0737  -16.1886   24.2484 C   0  0  2  0  0  0  0  0  0  0  0  0
    8.5448  -15.5259   23.0777 N   0  0  0  0  0  0  0  0  0  0  0  0
    7.9851  -16.8568   25.0043 C   0  0  0  0  0  0  0  0  0  0  0  0
    8.2555  -17.8397   25.9296 O   0  0  0  0  0  0  0  0  0  0  0  0
    6.7965  -16.5137   24.7905 O   0  0  0  0  0  0  0  0  0  0  0  0
  2  1  1  1
  2  3  1  0
  4  5  2  0
  4  2  1  0
  6  7  1  0
  8  7  1  1
  8  9  1  0
  9  4  1  0
 10  8  1  0
 11 10  2  0
 13 12  1  1
 13 15  1  0
 13 14  1  0
 14 10  1  0
 15 16  1  0
 17 15  2  0
M  END
$$$$
