ASA.pdb
     RDKit          3D

 17 16  0  0  1  0  0  0  0  0999 V2000
   -3.6388  -27.2069   24.6096 C   0  0  0  0  0  0  0  0  0  0  0  0
   -3.2712  -26.1997   25.6333 C   0  0  2  0  0  0  0  0  0  0  0  0
   -1.8562  -26.2867   25.9234 N   0  0  0  0  0  0  0  0  0  0  0  0
   -4.0311  -26.1987   26.8651 C   0  0  0  0  0  0  0  0  0  0  0  0
   -4.0753  -27.2954   27.5261 O   0  0  0  0  0  0  0  0  0  0  0  0
   -3.5793  -24.1577   29.8154 O   0  0  0  0  0  0  0  0  0  0  0  0
   -4.4813  -25.2192   29.8250 C   0  0  0  0  0  0  0  0  0  0  0  0
   -5.4310  -25.0860   28.6522 C   0  0  2  0  0  0  0  0  0  0  0  0
   -4.7283  -25.0789   27.3941 N   0  0  0  0  0  0  0  0  0  0  0  0
   -6.1855  -23.8049   28.8666 C   0  0  0  0  0  0  0  0  0  0  0  0
   -5.6665  -22.7650   28.4255 O   0  0  0  0  0  0  0  0  0  0  0  0
   -9.5432  -22.7991   30.3006 C   0  0  0  0  0  0  0  0  0  0  0  0
   -8.1962  -22.5589   29.6444 C   0  0  2  0  0  0  0  0  0  0  0  0
   -7.4307  -23.7806   29.5399 N   0  0  0  0  0  0  0  0  0  0  0  0
   -7.4580  -21.5492   30.4434 C   0  0  0  0  0  0  0  0  0  0  0  0
   -7.7931  -20.2147   30.3956 O   0  0  0  0  0  0  0  0  0  0  0  0
   -6.5103  -21.9268   31.1751 O   0  0  0  0  0  0  0  0  0  0  0  0
  2  1  1  6
  2  3  1  0
  4  5  2  0
  4  2  1  0
  6  7  1  0
  8  7  1  1
  8  9  1  0
  9  4  1  0
 10  8  1  0
 11 10  2  0
 13 12  1  1
 13 15  1  0
 13 14  1  0
 14 10  1  0
 15 16  1  0
 17 15  2  0
M  END
$$$$
