ASA.pdb
     RDKit          3D

 17 16  0  0  1  0  0  0  0  0999 V2000
   12.0748  -17.7880   22.0105 C   0  0  0  0  0  0  0  0  0  0  0  0
   10.6445  -17.5441   21.7073 C   0  0  2  0  0  0  0  0  0  0  0  0
   10.5168  -16.9146   20.4106 N   0  0  0  0  0  0  0  0  0  0  0  0
    9.8733  -16.8146   22.6911 C   0  0  0  0  0  0  0  0  0  0  0  0
    9.7039  -15.5608   22.4892 O   0  0  0  0  0  0  0  0  0  0  0  0
    8.0224  -18.6587   25.9412 O   0  0  0  0  0  0  0  0  0  0  0  0
    7.5023  -17.4350   25.5259 C   0  0  0  0  0  0  0  0  0  0  0  0
    8.5943  -16.6205   24.8632 C   0  0  2  0  0  0  0  0  0  0  0  0
    9.2926  -17.3811   23.8581 N   0  0  0  0  0  0  0  0  0  0  0  0
    9.5197  -16.1852   25.9636 C   0  0  0  0  0  0  0  0  0  0  0  0
   10.6017  -16.7896   26.0615 O   0  0  0  0  0  0  0  0  0  0  0  0
    9.5963  -13.4468   28.5752 C   0  0  0  0  0  0  0  0  0  0  0  0
   10.1006  -14.6919   27.8696 C   0  0  2  0  0  0  0  0  0  0  0  0
    9.1774  -15.1353   26.8495 N   0  0  0  0  0  0  0  0  0  0  0  0
   10.3054  -15.7560   28.8838 C   0  0  0  0  0  0  0  0  0  0  0  0
    9.5989  -16.9366   28.8348 O   0  0  0  0  0  0  0  0  0  0  0  0
   11.1412  -15.5688   29.8018 O   0  0  0  0  0  0  0  0  0  0  0  0
  2  1  1  1
  2  3  1  0
  4  5  2  0
  4  2  1  0
  6  7  1  0
  8  7  1  1
  8  9  1  0
  9  4  1  0
 10  8  1  0
 11 10  2  0
 13 12  1  1
 13 15  1  0
 13 14  1  0
 14 10  1  0
 15 16  1  0
 17 15  2  0
M  END
$$$$
