ASA.pdb
     RDKit          3D

 17 16  0  0  1  0  0  0  0  0999 V2000
    8.5949  -12.4235   20.2492 C   0  0  0  0  0  0  0  0  0  0  0  0
    8.2714  -13.8695   20.2919 C   0  0  2  0  0  0  0  0  0  0  0  0
    7.2458  -14.1733   19.3172 N   0  0  0  0  0  0  0  0  0  0  0  0
    7.9164  -14.4317   21.5774 C   0  0  0  0  0  0  0  0  0  0  0  0
    6.6879  -14.3506   21.9322 O   0  0  0  0  0  0  0  0  0  0  0  0
    9.9759  -17.4207   23.3345 O   0  0  0  0  0  0  0  0  0  0  0  0
    8.6712  -17.1504   23.7411 C   0  0  0  0  0  0  0  0  0  0  0  0
    8.4378  -15.6537   23.7283 C   0  0  2  0  0  0  0  0  0  0  0  0
    8.8228  -15.0637   22.4713 N   0  0  0  0  0  0  0  0  0  0  0  0
    9.2423  -15.0937   24.8666 C   0  0  0  0  0  0  0  0  0  0  0  0
   10.4608  -14.9405   24.6733 O   0  0  0  0  0  0  0  0  0  0  0  0
    8.5648  -13.3081   28.0795 C   0  0  0  0  0  0  0  0  0  0  0  0
    9.4213  -14.1728   27.1732 C   0  0  2  0  0  0  0  0  0  0  0  0
    8.6427  -14.7553   26.1036 N   0  0  0  0  0  0  0  0  0  0  0  0
   10.0514  -15.2352   27.9961 C   0  0  0  0  0  0  0  0  0  0  0  0
   10.9868  -14.9331   28.9601 O   0  0  0  0  0  0  0  0  0  0  0  0
    9.7201  -16.4308   27.8037 O   0  0  0  0  0  0  0  0  0  0  0  0
  2  1  1  1
  2  3  1  0
  4  5  2  0
  4  2  1  0
  6  7  1  0
  8  7  1  6
  8  9  1  0
  9  4  1  0
 10  8  1  0
 11 10  2  0
 13 12  1  1
 13 15  1  0
 13 14  1  0
 14 10  1  0
 15 16  1  0
 17 15  2  0
M  END
$$$$
