ASA.pdb
     RDKit          3D

 17 16  0  0  1  0  0  0  0  0999 V2000
   10.1523  -13.3795   20.1414 C   0  0  0  0  0  0  0  0  0  0  0  0
    8.8752  -14.1078   20.3316 C   0  0  2  0  0  0  0  0  0  0  0  0
    7.8495  -13.5307   19.4895 N   0  0  0  0  0  0  0  0  0  0  0  0
    8.3857  -14.2449   21.6866 C   0  0  0  0  0  0  0  0  0  0  0  0
    7.5642  -13.3550   22.1047 O   0  0  0  0  0  0  0  0  0  0  0  0
    8.6209  -17.7862   23.8387 O   0  0  0  0  0  0  0  0  0  0  0  0
    7.6231  -16.8490   24.0969 C   0  0  0  0  0  0  0  0  0  0  0  0
    8.1770  -15.4532   23.8976 C   0  0  2  0  0  0  0  0  0  0  0  0
    8.7455  -15.2867   22.5839 N   0  0  0  0  0  0  0  0  0  0  0  0
    9.2085  -15.2536   24.9713 C   0  0  0  0  0  0  0  0  0  0  0  0
   10.3907  -15.4886   24.6671 O   0  0  0  0  0  0  0  0  0  0  0  0
    9.3426  -13.6132   28.3473 C   0  0  0  0  0  0  0  0  0  0  0  0
    9.8644  -14.5398   27.2648 C   0  0  2  0  0  0  0  0  0  0  0  0
    8.8528  -14.8180   26.2705 N   0  0  0  0  0  0  0  0  0  0  0  0
   10.3245  -15.7975   27.9049 C   0  0  0  0  0  0  0  0  0  0  0  0
   11.4111  -15.8141   28.7502 O   0  0  0  0  0  0  0  0  0  0  0  0
    9.7057  -16.8634   27.6660 O   0  0  0  0  0  0  0  0  0  0  0  0
  2  1  1  1
  2  3  1  0
  4  5  2  0
  4  2  1  0
  6  7  1  0
  8  7  1  6
  8  9  1  0
  9  4  1  0
 10  8  1  0
 11 10  2  0
 13 12  1  1
 13 15  1  0
 13 14  1  0
 14 10  1  0
 15 16  1  0
 17 15  2  0
M  END
$$$$
