ASA.pdb
     RDKit          3D

 17 16  0  0  1  0  0  0  0  0999 V2000
   11.1527  -16.2693   20.1035 C   0  0  0  0  0  0  0  0  0  0  0  0
   10.9826  -17.0198   21.3704 C   0  0  2  0  0  0  0  0  0  0  0  0
   10.2126  -18.2214   21.1310 N   0  0  0  0  0  0  0  0  0  0  0  0
   10.4375  -16.2981   22.5004 C   0  0  0  0  0  0  0  0  0  0  0  0
   10.6632  -15.0380   22.5538 O   0  0  0  0  0  0  0  0  0  0  0  0
    8.0048  -18.1699   25.2685 O   0  0  0  0  0  0  0  0  0  0  0  0
    7.7062  -16.8354   25.0032 C   0  0  0  0  0  0  0  0  0  0  0  0
    8.9593  -16.1189   24.5435 C   0  0  2  0  0  0  0  0  0  0  0  0
    9.6748  -16.8786   23.5499 N   0  0  0  0  0  0  0  0  0  0  0  0
    9.7935  -15.9012   25.7737 C   0  0  0  0  0  0  0  0  0  0  0  0
   10.7679  -16.6564   25.9343 O   0  0  0  0  0  0  0  0  0  0  0  0
    9.9302  -13.4072   28.6133 C   0  0  0  0  0  0  0  0  0  0  0  0
   10.2929  -14.6924   27.8926 C   0  0  2  0  0  0  0  0  0  0  0  0
    9.4861  -14.8834   26.7085 N   0  0  0  0  0  0  0  0  0  0  0  0
   10.1118  -15.8257   28.8337 C   0  0  0  0  0  0  0  0  0  0  0  0
   11.0133  -16.0658   29.8463 O   0  0  0  0  0  0  0  0  0  0  0  0
    9.1145  -16.5761   28.6978 O   0  0  0  0  0  0  0  0  0  0  0  0
  2  1  1  6
  2  3  1  0
  4  5  2  0
  4  2  1  0
  6  7  1  0
  8  7  1  1
  8  9  1  0
  9  4  1  0
 10  8  1  0
 11 10  2  0
 13 12  1  1
 13 15  1  0
 13 14  1  0
 14 10  1  0
 15 16  1  0
 17 15  2  0
M  END
$$$$
