ASA.pdb
     RDKit          3D

 17 16  0  0  1  0  0  0  0  0999 V2000
    8.2674  -11.9288   19.8220 C   0  0  0  0  0  0  0  0  0  0  0  0
    8.5536  -12.9662   18.8025 C   0  0  2  0  0  0  0  0  0  0  0  0
    7.3537  -13.2597   18.0487 N   0  0  0  0  0  0  0  0  0  0  0  0
    9.1647  -14.1954   19.2609 C   0  0  0  0  0  0  0  0  0  0  0  0
    8.3856  -15.1872   19.4870 O   0  0  0  0  0  0  0  0  0  0  0  0
   13.2790  -14.8585   19.1488 O   0  0  0  0  0  0  0  0  0  0  0  0
   12.4012  -15.9360   19.0541 C   0  0  0  0  0  0  0  0  0  0  0  0
   11.1510  -15.6414   19.8573 C   0  0  2  0  0  0  0  0  0  0  0  0
   10.5565  -14.3847   19.4782 N   0  0  0  0  0  0  0  0  0  0  0  0
   11.5700  -15.6374   21.2998 C   0  0  0  0  0  0  0  0  0  0  0  0
   12.1890  -14.6377   21.7037 O   0  0  0  0  0  0  0  0  0  0  0  0
   10.9227  -17.7506   24.3573 C   0  0  0  0  0  0  0  0  0  0  0  0
   11.6487  -16.6848   23.5575 C   0  0  2  0  0  0  0  0  0  0  0  0
   11.2746  -16.7210   22.1617 N   0  0  0  0  0  0  0  0  0  0  0  0
   13.1098  -16.8969   23.7101 C   0  0  0  0  0  0  0  0  0  0  0  0
   13.7790  -16.4808   24.8390 O   0  0  0  0  0  0  0  0  0  0  0  0
   13.7414  -17.4678   22.7874 O   0  0  0  0  0  0  0  0  0  0  0  0
  2  1  1  1
  2  3  1  0
  4  5  2  0
  4  2  1  0
  6  7  1  0
  8  7  1  6
  8  9  1  0
  9  4  1  0
 10  8  1  0
 11 10  2  0
 13 12  1  1
 13 15  1  0
 13 14  1  0
 14 10  1  0
 15 16  1  0
 17 15  2  0
M  END
$$$$
