ASA.pdb
     RDKit          3D

 17 16  0  0  1  0  0  0  0  0999 V2000
    9.6523  -19.3430   17.2381 C   0  0  0  0  0  0  0  0  0  0  0  0
    9.2671  -17.9254   17.0397 C   0  0  2  0  0  0  0  0  0  0  0  0
    9.9843  -17.3740   15.9102 N   0  0  0  0  0  0  0  0  0  0  0  0
    9.3818  -17.0414   18.1798 C   0  0  0  0  0  0  0  0  0  0  0  0
   10.5118  -16.4659   18.3624 O   0  0  0  0  0  0  0  0  0  0  0  0
    6.3298  -16.5646   20.9836 O   0  0  0  0  0  0  0  0  0  0  0  0
    7.1372  -15.4475   20.7822 C   0  0  0  0  0  0  0  0  0  0  0  0
    8.4823  -15.8870   20.2414 C   0  0  2  0  0  0  0  0  0  0  0  0
    8.3411  -16.7649   19.1075 N   0  0  0  0  0  0  0  0  0  0  0  0
    9.1894  -16.5684   21.3782 C   0  0  0  0  0  0  0  0  0  0  0  0
    9.1004  -17.8071   21.4354 O   0  0  0  0  0  0  0  0  0  0  0  0
   11.6197  -15.5506   24.0873 C   0  0  0  0  0  0  0  0  0  0  0  0
   10.6984  -16.5109   23.3581 C   0  0  2  0  0  0  0  0  0  0  0  0
    9.9241  -15.8356   22.3414 N   0  0  0  0  0  0  0  0  0  0  0  0
    9.8033  -17.1507   24.3544 C   0  0  0  0  0  0  0  0  0  0  0  0
   10.2707  -18.1101   25.2241 O   0  0  0  0  0  0  0  0  0  0  0  0
    8.5972  -16.8050   24.3991 O   0  0  0  0  0  0  0  0  0  0  0  0
  2  1  1  1
  2  3  1  0
  4  5  2  0
  4  2  1  0
  6  7  1  0
  8  7  1  1
  8  9  1  0
  9  4  1  0
 10  8  1  0
 11 10  2  0
 13 12  1  1
 13 15  1  0
 13 14  1  0
 14 10  1  0
 15 16  1  0
 17 15  2  0
M  END
$$$$
