ASA.pdb
     RDKit          3D

 17 16  0  0  1  0  0  0  0  0999 V2000
    9.5741  -19.5770   18.6344 C   0  0  0  0  0  0  0  0  0  0  0  0
    8.7901  -18.3783   18.2527 C   0  0  2  0  0  0  0  0  0  0  0  0
    9.4986  -17.6299   17.2369 N   0  0  0  0  0  0  0  0  0  0  0  0
    8.3702  -17.4937   19.3184 C   0  0  0  0  0  0  0  0  0  0  0  0
    9.0624  -16.4316   19.5040 O   0  0  0  0  0  0  0  0  0  0  0  0
    5.2170  -18.3841   21.9089 O   0  0  0  0  0  0  0  0  0  0  0  0
    5.3768  -17.0379   21.5882 C   0  0  0  0  0  0  0  0  0  0  0  0
    6.8128  -16.7830   21.1788 C   0  0  2  0  0  0  0  0  0  0  0  0
    7.2539  -17.7130   20.1703 N   0  0  0  0  0  0  0  0  0  0  0  0
    7.6337  -16.9015   22.4313 C   0  0  0  0  0  0  0  0  0  0  0  0
    8.2378  -17.9733   22.6094 O   0  0  0  0  0  0  0  0  0  0  0  0
    8.5583  -14.6931   25.3611 C   0  0  0  0  0  0  0  0  0  0  0  0
    8.4210  -16.0094   24.6187 C   0  0  2  0  0  0  0  0  0  0  0  0
    7.7169  -15.8426   23.3673 N   0  0  0  0  0  0  0  0  0  0  0  0
    7.7047  -16.9700   25.4945 C   0  0  0  0  0  0  0  0  0  0  0  0
    8.3306  -17.5639   26.5673 O   0  0  0  0  0  0  0  0  0  0  0  0
    6.5044  -17.2415   25.2461 O   0  0  0  0  0  0  0  0  0  0  0  0
  2  1  1  1
  2  3  1  0
  4  5  2  0
  4  2  1  0
  6  7  1  0
  8  7  1  1
  8  9  1  0
  9  4  1  0
 10  8  1  0
 11 10  2  0
 13 12  1  1
 13 15  1  0
 13 14  1  0
 14 10  1  0
 15 16  1  0
 17 15  2  0
M  END
$$$$
