LDR.pdb
     RDKit          3D

 28 27  0  0  1  0  0  0  0  0999 V2000
    5.7153  -11.9810   25.3662 C   0  0  0  0  0  0  0  0  0  0  0  0
    6.5884  -12.4055   26.5087 C   0  0  2  0  0  0  0  0  0  0  0  0
    7.1403  -11.1489   27.1735 C   0  0  0  0  0  0  0  0  0  0  0  0
    7.7603  -13.2307   26.0891 C   0  0  0  0  0  0  0  0  0  0  0  0
    7.4041  -14.4333   25.2550 C   0  0  2  0  0  0  0  0  0  0  0  0
    6.3346  -15.1481   25.8834 N   0  0  0  0  0  0  0  0  0  0  0  0
    8.6432  -15.2404   25.1058 C   0  0  0  0  0  0  0  0  0  0  0  0
    9.6488  -14.6620   24.6230 O   0  0  0  0  0  0  0  0  0  0  0  0
    8.7668  -16.6034   25.4672 N   0  0  0  0  0  0  0  0  0  0  0  0
   10.0070  -17.3524   25.2396 C   0  0  1  0  0  0  0  0  0  0  0  0
   10.0761  -18.5291   26.1725 C   0  0  0  0  0  0  0  0  0  0  0  0
   11.3357  -19.2754   26.0808 C   0  0  0  0  0  0  0  0  0  0  0  0
   12.3782  -18.8843   25.5076 O   0  0  0  0  0  0  0  0  0  0  0  0
   10.1605  -17.7326   23.8229 C   0  0  0  0  0  0  0  0  0  0  0  0
    9.3822  -18.5514   23.2973 O   0  0  0  0  0  0  0  0  0  0  0  0
   11.3630  -20.5361   26.6930 O   0  0  0  0  0  0  0  0  0  0  0  0
    8.1772  -11.7618   19.8292 N   0  0  0  0  0  0  0  0  0  0  0  0
    8.3187  -12.9893   19.1545 C   0  0  0  0  0  0  0  0  0  0  0  0
    7.9600  -13.1099   17.9229 N   0  0  0  0  0  0  0  0  0  0  0  0
    8.8623  -14.1019   19.8476 N   0  0  0  0  0  0  0  0  0  0  0  0
    9.0511  -15.3761   19.2829 C   0  0  0  0  0  0  0  0  0  0  0  0
    9.5326  -16.5031   20.1189 C   0  0  0  0  0  0  0  0  0  0  0  0
   10.8531  -16.3298   20.7790 C   0  0  0  0  0  0  0  0  0  0  0  0
   11.3568  -17.4689   21.6043 C   0  0  2  0  0  0  0  0  0  0  0  0
   11.1887  -17.1784   23.0385 N   0  0  0  0  0  0  0  0  0  0  0  0
   12.8174  -17.6604   21.4276 C   0  0  0  0  0  0  0  0  0  0  0  0
   13.6693  -17.5061   22.4951 O   0  0  0  0  0  0  0  0  0  0  0  0
   13.2843  -17.9596   20.3233 O   0  0  0  0  0  0  0  0  0  0  0  0
  2  1  1  6
  2  3  1  0
  4  2  1  0
  5  4  1  0
  5  6  1  1
  7  5  1  0
  7  8  2  0
  9  7  1  0
 10  9  1  0
 10 11  1  1
 12 11  1  0
 12 16  1  0
 13 12  2  0
 14 10  1  0
 15 14  2  0
 18 20  1  0
 18 17  1  0
 19 18  2  0
 21 22  1  0
 21 20  1  0
 22 23  1  0
 24 23  1  6
 24 25  1  0
 24 26  1  0
 25 14  1  0
 26 28  2  0
 26 27  1  0
M  END
$$$$
