LDR.pdb
     RDKit          3D

 28 27  0  0  1  0  0  0  0  0999 V2000
    8.3581  -13.8637   17.8495 C   0  0  0  0  0  0  0  0  0  0  0  0
    7.7467  -13.6032   19.1935 C   0  0  2  0  0  0  0  0  0  0  0  0
    7.9592  -12.1314   19.5318 C   0  0  0  0  0  0  0  0  0  0  0  0
    8.3652  -14.4003   20.2947 C   0  0  0  0  0  0  0  0  0  0  0  0
    8.2606  -15.8919   20.1137 C   0  0  2  0  0  0  0  0  0  0  0  0
    6.8806  -16.2673   20.0469 N   0  0  0  0  0  0  0  0  0  0  0  0
    8.9865  -16.5188   21.2490 C   0  0  0  0  0  0  0  0  0  0  0  0
    8.6691  -16.1475   22.4068 O   0  0  0  0  0  0  0  0  0  0  0  0
   10.0015  -17.4967   21.1165 N   0  0  0  0  0  0  0  0  0  0  0  0
   10.6784  -18.0690   22.2848 C   0  0  1  0  0  0  0  0  0  0  0  0
   10.2322  -19.4892   22.4934 C   0  0  0  0  0  0  0  0  0  0  0  0
    9.3449  -19.6602   23.6491 C   0  0  0  0  0  0  0  0  0  0  0  0
    9.0081  -18.7606   24.4527 O   0  0  0  0  0  0  0  0  0  0  0  0
   12.1437  -17.9361   22.1836 C   0  0  0  0  0  0  0  0  0  0  0  0
   12.8382  -18.8763   21.7521 O   0  0  0  0  0  0  0  0  0  0  0  0
    8.8348  -20.9483   23.8623 O   0  0  0  0  0  0  0  0  0  0  0  0
   15.8226  -12.5106   17.2912 N   0  0  0  0  0  0  0  0  0  0  0  0
   15.9925  -13.8624   17.6457 C   0  0  0  0  0  0  0  0  0  0  0  0
   16.0798  -14.7754   16.7407 N   0  0  0  0  0  0  0  0  0  0  0  0
   16.0656  -14.2145   19.0184 N   0  0  0  0  0  0  0  0  0  0  0  0
   15.1347  -13.8131   19.9933 C   0  0  0  0  0  0  0  0  0  0  0  0
   14.2519  -14.8124   20.6437 C   0  0  0  0  0  0  0  0  0  0  0  0
   14.5625  -15.1616   22.0548 C   0  0  0  0  0  0  0  0  0  0  0  0
   14.2431  -16.5520   22.4987 C   0  0  2  0  0  0  0  0  0  0  0  0
   12.7849  -16.7457   22.5727 N   0  0  0  0  0  0  0  0  0  0  0  0
   14.7271  -16.8038   23.8784 C   0  0  0  0  0  0  0  0  0  0  0  0
   16.0401  -17.1450   24.0993 O   0  0  0  0  0  0  0  0  0  0  0  0
   13.9591  -16.7106   24.8421 O   0  0  0  0  0  0  0  0  0  0  0  0
  2  1  1  6
  2  3  1  0
  4  2  1  0
  5  4  1  0
  5  6  1  1
  7  5  1  0
  7  8  2  0
  9  7  1  0
 10  9  1  0
 10 11  1  6
 12 11  1  0
 12 16  1  0
 13 12  2  0
 14 10  1  0
 15 14  2  0
 18 20  1  0
 18 17  1  0
 19 18  2  0
 21 22  1  0
 21 20  1  0
 22 23  1  0
 24 23  1  1
 24 25  1  0
 24 26  1  0
 25 14  1  0
 26 28  2  0
 26 27  1  0
M  END
$$$$
