LDR.pdb
     RDKit          3D

 28 27  0  0  1  0  0  0  0  0999 V2000
    8.0678  -13.6098   18.2145 C   0  0  0  0  0  0  0  0  0  0  0  0
    7.7034  -13.7119   19.6653 C   0  0  2  0  0  0  0  0  0  0  0  0
    7.2209  -12.3415   20.1286 C   0  0  0  0  0  0  0  0  0  0  0  0
    8.8503  -14.0930   20.5427 C   0  0  0  0  0  0  0  0  0  0  0  0
    9.4836  -15.4147   20.1953 C   0  0  2  0  0  0  0  0  0  0  0  0
    8.4774  -16.4330   20.1733 N   0  0  0  0  0  0  0  0  0  0  0  0
   10.5498  -15.6628   21.2006 C   0  0  0  0  0  0  0  0  0  0  0  0
   11.3496  -14.7215   21.4314 O   0  0  0  0  0  0  0  0  0  0  0  0
   10.7240  -16.8756   21.9095 N   0  0  0  0  0  0  0  0  0  0  0  0
   11.8217  -17.0600   22.8644 C   0  0  1  0  0  0  0  0  0  0  0  0
   11.6377  -18.3479   23.6174 C   0  0  0  0  0  0  0  0  0  0  0  0
   10.4797  -18.3390   24.5180 C   0  0  0  0  0  0  0  0  0  0  0  0
   10.0091  -17.3321   25.0951 O   0  0  0  0  0  0  0  0  0  0  0  0
   13.1376  -16.9626   22.2057 C   0  0  0  0  0  0  0  0  0  0  0  0
   13.6012  -17.9272   21.5676 O   0  0  0  0  0  0  0  0  0  0  0  0
    9.8526  -19.5720   24.7446 O   0  0  0  0  0  0  0  0  0  0  0  0
   17.3328  -15.2092   17.0817 N   0  0  0  0  0  0  0  0  0  0  0  0
   16.9386  -13.8604   16.9962 C   0  0  0  0  0  0  0  0  0  0  0  0
   17.7364  -12.9696   16.5167 N   0  0  0  0  0  0  0  0  0  0  0  0
   15.6462  -13.4866   17.4474 N   0  0  0  0  0  0  0  0  0  0  0  0
   15.1278  -13.7932   18.7184 C   0  0  0  0  0  0  0  0  0  0  0  0
   16.0392  -13.9934   19.8718 C   0  0  0  0  0  0  0  0  0  0  0  0
   15.4027  -14.2043   21.1985 C   0  0  0  0  0  0  0  0  0  0  0  0
   15.2107  -15.6170   21.6451 C   0  0  2  0  0  0  0  0  0  0  0  0
   13.8944  -15.7792   22.2857 N   0  0  0  0  0  0  0  0  0  0  0  0
   16.1895  -15.9898   22.6960 C   0  0  0  0  0  0  0  0  0  0  0  0
   17.3987  -16.5438   22.3497 O   0  0  0  0  0  0  0  0  0  0  0  0
   15.9309  -15.8077   23.8906 O   0  0  0  0  0  0  0  0  0  0  0  0
  2  1  1  6
  2  3  1  0
  4  2  1  0
  5  4  1  0
  5  6  1  1
  7  5  1  0
  7  8  2  0
  9  7  1  0
 10  9  1  0
 10 11  1  6
 12 11  1  0
 12 16  1  0
 13 12  2  0
 14 10  1  0
 15 14  2  0
 18 20  1  0
 18 17  1  0
 19 18  2  0
 21 22  1  0
 21 20  1  0
 22 23  1  0
 24 23  1  1
 24 25  1  0
 24 26  1  0
 25 14  1  0
 26 28  2  0
 26 27  1  0
M  END
$$$$
