LDR.pdb
     RDKit          3D

 28 27  0  0  1  0  0  0  0  0999 V2000
    9.1766  -12.4502   18.9583 C   0  0  0  0  0  0  0  0  0  0  0  0
    8.1306  -13.1618   19.7628 C   0  0  2  0  0  0  0  0  0  0  0  0
    7.4902  -12.1490   20.7060 C   0  0  0  0  0  0  0  0  0  0  0  0
    8.6768  -14.2648   20.6087 C   0  0  0  0  0  0  0  0  0  0  0  0
    9.4201  -15.3253   19.8394 C   0  0  2  0  0  0  0  0  0  0  0  0
    8.5233  -15.9671   18.9264 N   0  0  0  0  0  0  0  0  0  0  0  0
   10.0071  -16.2554   20.8391 C   0  0  0  0  0  0  0  0  0  0  0  0
    9.2106  -16.8345   21.6196 O   0  0  0  0  0  0  0  0  0  0  0  0
   11.3893  -16.5311   20.9706 N   0  0  0  0  0  0  0  0  0  0  0  0
   11.9000  -17.4389   22.0030 C   0  0  1  0  0  0  0  0  0  0  0  0
   13.3534  -17.7329   21.7565 C   0  0  0  0  0  0  0  0  0  0  0  0
   13.6106  -18.3640   20.4574 C   0  0  0  0  0  0  0  0  0  0  0  0
   13.0104  -19.3620   19.9968 O   0  0  0  0  0  0  0  0  0  0  0  0
   11.6407  -16.9209   23.3593 C   0  0  0  0  0  0  0  0  0  0  0  0
   12.1238  -15.8326   23.7265 O   0  0  0  0  0  0  0  0  0  0  0  0
   14.6191  -17.7902   19.6708 O   0  0  0  0  0  0  0  0  0  0  0  0
    5.2999  -13.0819   26.6268 N   0  0  0  0  0  0  0  0  0  0  0  0
    6.3269  -12.5009   25.8589 C   0  0  0  0  0  0  0  0  0  0  0  0
    6.3934  -11.2233   25.7057 N   0  0  0  0  0  0  0  0  0  0  0  0
    7.2949  -13.3402   25.2489 N   0  0  0  0  0  0  0  0  0  0  0  0
    7.5973  -14.6461   25.6748 C   0  0  0  0  0  0  0  0  0  0  0  0
    8.6156  -15.4520   24.9575 C   0  0  0  0  0  0  0  0  0  0  0  0
    8.9816  -16.7595   25.5626 C   0  0  0  0  0  0  0  0  0  0  0  0
   10.4311  -17.1214   25.5773 C   0  0  2  0  0  0  0  0  0  0  0  0
   10.8434  -17.6457   24.2641 N   0  0  0  0  0  0  0  0  0  0  0  0
   10.7025  -18.2286   26.5270 C   0  0  0  0  0  0  0  0  0  0  0  0
   10.9943  -17.9558   27.8421 O   0  0  0  0  0  0  0  0  0  0  0  0
   10.6698  -19.4047   26.1491 O   0  0  0  0  0  0  0  0  0  0  0  0
  2  1  1  1
  2  3  1  0
  4  2  1  0
  5  4  1  0
  5  6  1  6
  7  5  1  0
  7  8  2  0
  9  7  1  0
 10  9  1  0
 10 11  1  6
 12 11  1  0
 12 16  1  0
 13 12  2  0
 14 10  1  0
 15 14  2  0
 18 20  1  0
 18 17  1  0
 19 18  2  0
 21 22  1  0
 21 20  1  0
 22 23  1  0
 24 23  1  6
 24 25  1  0
 24 26  1  0
 25 14  1  0
 26 28  2  0
 26 27  1  0
M  END
$$$$
