LDR.pdb
     RDKit          3D

 28 27  0  0  1  0  0  0  0  0999 V2000
    8.8645  -13.0613   18.8280 C   0  0  0  0  0  0  0  0  0  0  0  0
    7.6679  -13.4014   19.6649 C   0  0  2  0  0  0  0  0  0  0  0  0
    7.4728  -12.2851   20.6855 C   0  0  0  0  0  0  0  0  0  0  0  0
    7.8183  -14.6747   20.4308 C   0  0  0  0  0  0  0  0  0  0  0  0
    8.1899  -15.8653   19.5863 C   0  0  2  0  0  0  0  0  0  0  0  0
    7.0052  -16.5897   19.2380 N   0  0  0  0  0  0  0  0  0  0  0  0
    9.1612  -16.6693   20.3731 C   0  0  0  0  0  0  0  0  0  0  0  0
    8.8241  -16.9939   21.5393 O   0  0  0  0  0  0  0  0  0  0  0  0
   10.4281  -17.0907   19.9029 N   0  0  0  0  0  0  0  0  0  0  0  0
   11.3485  -17.8581   20.7484 C   0  0  1  0  0  0  0  0  0  0  0  0
   12.4059  -18.5077   19.9001 C   0  0  0  0  0  0  0  0  0  0  0  0
   13.3929  -17.5615   19.3687 C   0  0  0  0  0  0  0  0  0  0  0  0
   14.4335  -17.1835   19.9541 O   0  0  0  0  0  0  0  0  0  0  0  0
   11.9098  -17.0302   21.8321 C   0  0  0  0  0  0  0  0  0  0  0  0
   11.7799  -15.7911   21.8169 O   0  0  0  0  0  0  0  0  0  0  0  0
   13.1384  -17.0416   18.0920 O   0  0  0  0  0  0  0  0  0  0  0  0
    9.7316  -16.0205   29.7190 N   0  0  0  0  0  0  0  0  0  0  0  0
   10.0778  -14.8088   29.0915 C   0  0  0  0  0  0  0  0  0  0  0  0
   10.4450  -13.7878   29.7865 N   0  0  0  0  0  0  0  0  0  0  0  0
   10.0171  -14.7195   27.6766 N   0  0  0  0  0  0  0  0  0  0  0  0
   10.1217  -15.8183   26.8049 C   0  0  0  0  0  0  0  0  0  0  0  0
   11.4373  -16.2022   26.2366 C   0  0  0  0  0  0  0  0  0  0  0  0
   11.4415  -16.6994   24.8358 C   0  0  0  0  0  0  0  0  0  0  0  0
   12.7720  -16.9750   24.2146 C   0  0  2  0  0  0  0  0  0  0  0  0
   12.6027  -17.6238   22.9033 N   0  0  0  0  0  0  0  0  0  0  0  0
   13.5529  -17.9476   25.0180 C   0  0  0  0  0  0  0  0  0  0  0  0
   14.8601  -18.2214   24.6932 O   0  0  0  0  0  0  0  0  0  0  0  0
   13.0401  -18.5215   25.9849 O   0  0  0  0  0  0  0  0  0  0  0  0
  2  1  1  1
  2  3  1  0
  4  2  1  0
  5  4  1  0
  5  6  1  1
  7  5  1  0
  7  8  2  0
  9  7  1  0
 10  9  1  0
 10 11  1  6
 12 11  1  0
 12 16  1  0
 13 12  2  0
 14 10  1  0
 15 14  2  0
 18 20  1  0
 18 17  1  0
 19 18  2  0
 21 22  1  0
 21 20  1  0
 22 23  1  0
 24 23  1  1
 24 25  1  0
 24 26  1  0
 25 14  1  0
 26 28  2  0
 26 27  1  0
M  END
$$$$
