LDR.pdb
     RDKit          3D

 28 27  0  0  1  0  0  0  0  0999 V2000
    9.0215  -12.2780   18.6413 C   0  0  0  0  0  0  0  0  0  0  0  0
    8.1224  -13.4581   18.8577 C   0  0  2  0  0  0  0  0  0  0  0  0
    6.9249  -12.9948   19.6806 C   0  0  0  0  0  0  0  0  0  0  0  0
    8.7705  -14.5708   19.6142 C   0  0  0  0  0  0  0  0  0  0  0  0
   10.2266  -14.7759   19.2879 C   0  0  2  0  0  0  0  0  0  0  0  0
   10.3891  -14.8550   17.8676 N   0  0  0  0  0  0  0  0  0  0  0  0
   10.6617  -16.0063   19.9991 C   0  0  0  0  0  0  0  0  0  0  0  0
   10.0201  -16.3289   21.0303 O   0  0  0  0  0  0  0  0  0  0  0  0
   11.7393  -16.8319   19.5980 N   0  0  0  0  0  0  0  0  0  0  0  0
   12.1890  -17.9641   20.4145 C   0  0  1  0  0  0  0  0  0  0  0  0
   13.2875  -18.7056   19.7053 C   0  0  0  0  0  0  0  0  0  0  0  0
   12.9094  -19.1723   18.3669 C   0  0  0  0  0  0  0  0  0  0  0  0
   11.9452  -19.9256   18.0998 O   0  0  0  0  0  0  0  0  0  0  0  0
   12.5687  -17.5372   21.7741 C   0  0  0  0  0  0  0  0  0  0  0  0
   13.4885  -16.7148   21.9478 O   0  0  0  0  0  0  0  0  0  0  0  0
   13.7043  -18.7290   17.3009 O   0  0  0  0  0  0  0  0  0  0  0  0
    7.3142  -14.9334   22.3178 N   0  0  0  0  0  0  0  0  0  0  0  0
    7.6747  -14.5559   23.6252 C   0  0  0  0  0  0  0  0  0  0  0  0
    6.7868  -14.4693   24.5549 N   0  0  0  0  0  0  0  0  0  0  0  0
    9.0340  -14.2676   23.9130 N   0  0  0  0  0  0  0  0  0  0  0  0
    9.9041  -15.1362   24.5960 C   0  0  0  0  0  0  0  0  0  0  0  0
    9.8149  -16.6026   24.3890 C   0  0  0  0  0  0  0  0  0  0  0  0
   10.8728  -17.4330   25.0221 C   0  0  0  0  0  0  0  0  0  0  0  0
   12.1572  -17.5862   24.2743 C   0  0  2  0  0  0  0  0  0  0  0  0
   11.9000  -18.0507   22.9005 N   0  0  0  0  0  0  0  0  0  0  0  0
   13.0103  -18.6410   24.8751 C   0  0  0  0  0  0  0  0  0  0  0  0
   13.6305  -18.4245   26.0824 O   0  0  0  0  0  0  0  0  0  0  0  0
   13.1735  -19.7225   24.2999 O   0  0  0  0  0  0  0  0  0  0  0  0
  2  1  1  1
  2  3  1  0
  4  2  1  0
  5  4  1  0
  5  6  1  6
  7  5  1  0
  7  8  2  0
  9  7  1  0
 10  9  1  0
 10 11  1  6
 12 11  1  0
 12 16  1  0
 13 12  2  0
 14 10  1  0
 15 14  2  0
 18 20  1  0
 18 17  1  0
 19 18  2  0
 21 22  1  0
 21 20  1  0
 22 23  1  0
 24 23  1  1
 24 25  1  0
 24 26  1  0
 25 14  1  0
 26 28  2  0
 26 27  1  0
M  END
$$$$
