LDR.pdb
     RDKit          3D

 28 27  0  0  1  0  0  0  0  0999 V2000
    5.6977  -12.5259   26.5918 C   0  0  0  0  0  0  0  0  0  0  0  0
    6.9715  -12.9531   27.2572 C   0  0  2  0  0  0  0  0  0  0  0  0
    7.6271  -11.7156   27.8609 C   0  0  0  0  0  0  0  0  0  0  0  0
    7.9611  -13.5596   26.3173 C   0  0  0  0  0  0  0  0  0  0  0  0
    7.4657  -14.7917   25.6065 C   0  0  2  0  0  0  0  0  0  0  0  0
    6.6584  -15.5647   26.5012 N   0  0  0  0  0  0  0  0  0  0  0  0
    8.6641  -15.5212   25.1161 C   0  0  0  0  0  0  0  0  0  0  0  0
    9.5188  -14.8559   24.4791 O   0  0  0  0  0  0  0  0  0  0  0  0
    8.9064  -16.9015   25.3161 N   0  0  0  0  0  0  0  0  0  0  0  0
   10.1640  -17.5318   24.9015 C   0  0  1  0  0  0  0  0  0  0  0  0
   10.3924  -18.7914   25.6895 C   0  0  0  0  0  0  0  0  0  0  0  0
   10.7184  -18.5488   27.0991 C   0  0  0  0  0  0  0  0  0  0  0  0
   10.2899  -19.2087   28.0735 O   0  0  0  0  0  0  0  0  0  0  0  0
   10.2080  -17.7504   23.4436 C   0  0  0  0  0  0  0  0  0  0  0  0
    9.6448  -18.7372   22.9322 O   0  0  0  0  0  0  0  0  0  0  0  0
   11.5874  -17.4820   27.3667 O   0  0  0  0  0  0  0  0  0  0  0  0
    8.4005  -13.5140   17.8052 N   0  0  0  0  0  0  0  0  0  0  0  0
    8.5333  -12.7999   19.0111 C   0  0  0  0  0  0  0  0  0  0  0  0
    8.7654  -11.5325   19.0046 N   0  0  0  0  0  0  0  0  0  0  0  0
    8.4103  -13.4926   20.2434 N   0  0  0  0  0  0  0  0  0  0  0  0
    8.1153  -14.8629   20.3597 C   0  0  0  0  0  0  0  0  0  0  0  0
    9.0843  -15.8815   19.8858 C   0  0  0  0  0  0  0  0  0  0  0  0
   10.4604  -15.8059   20.4427 C   0  0  0  0  0  0  0  0  0  0  0  0
   10.9796  -17.0193   21.1430 C   0  0  2  0  0  0  0  0  0  0  0  0
   10.8870  -16.8492   22.6031 N   0  0  0  0  0  0  0  0  0  0  0  0
   12.4256  -17.2194   20.8780 C   0  0  0  0  0  0  0  0  0  0  0  0
   13.3438  -17.0461   21.8860 O   0  0  0  0  0  0  0  0  0  0  0  0
   12.8209  -17.5427   19.7528 O   0  0  0  0  0  0  0  0  0  0  0  0
  2  1  1  6
  2  3  1  0
  4  2  1  0
  5  4  1  0
  5  6  1  1
  7  5  1  0
  7  8  2  0
  9  7  1  0
 10  9  1  0
 10 11  1  1
 12 11  1  0
 12 16  1  0
 13 12  2  0
 14 10  1  0
 15 14  2  0
 18 20  1  0
 18 17  1  0
 19 18  2  0
 21 22  1  0
 21 20  1  0
 22 23  1  0
 24 23  1  6
 24 25  1  0
 24 26  1  0
 25 14  1  0
 26 28  2  0
 26 27  1  0
M  END
$$$$
