LDR.pdb
     RDKit          3D

 28 27  0  0  1  0  0  0  0  0999 V2000
    8.5049  -12.2608   18.8708 C   0  0  0  0  0  0  0  0  0  0  0  0
    7.9296  -13.6436   18.8023 C   0  0  2  0  0  0  0  0  0  0  0  0
    6.4098  -13.5256   18.8455 C   0  0  0  0  0  0  0  0  0  0  0  0
    8.3346  -14.5153   19.9454 C   0  0  0  0  0  0  0  0  0  0  0  0
    9.7128  -14.2314   20.4828 C   0  0  2  0  0  0  0  0  0  0  0  0
   10.6254  -14.0720   19.3913 N   0  0  0  0  0  0  0  0  0  0  0  0
   10.0669  -15.3573   21.3860 C   0  0  0  0  0  0  0  0  0  0  0  0
    9.1838  -15.7449   22.1916 O   0  0  0  0  0  0  0  0  0  0  0  0
   11.3192  -16.0170   21.4005 N   0  0  0  0  0  0  0  0  0  0  0  0
   11.5757  -17.1659   22.2751 C   0  0  1  0  0  0  0  0  0  0  0  0
   12.9636  -17.6928   22.0387 C   0  0  0  0  0  0  0  0  0  0  0  0
   13.3016  -18.8482   22.8770 C   0  0  0  0  0  0  0  0  0  0  0  0
   13.1871  -18.9072   24.1227 O   0  0  0  0  0  0  0  0  0  0  0  0
   11.3182  -16.8404   23.6903 C   0  0  0  0  0  0  0  0  0  0  0  0
   12.0116  -15.9916   24.2830 O   0  0  0  0  0  0  0  0  0  0  0  0
   13.7948  -19.9805   22.2140 O   0  0  0  0  0  0  0  0  0  0  0  0
    4.6990  -20.8848   25.2062 N   0  0  0  0  0  0  0  0  0  0  0  0
    5.7054  -21.3164   26.0909 C   0  0  0  0  0  0  0  0  0  0  0  0
    5.4239  -22.0877   27.0840 N   0  0  0  0  0  0  0  0  0  0  0  0
    7.0425  -20.8906   25.8797 N   0  0  0  0  0  0  0  0  0  0  0  0
    7.5662  -19.6635   26.3246 C   0  0  0  0  0  0  0  0  0  0  0  0
    7.8329  -18.5681   25.3602 C   0  0  0  0  0  0  0  0  0  0  0  0
    8.3883  -17.3069   25.9173 C   0  0  0  0  0  0  0  0  0  0  0  0
    9.8540  -17.0736   25.7457 C   0  0  2  0  0  0  0  0  0  0  0  0
   10.2852  -17.4822   24.3979 N   0  0  0  0  0  0  0  0  0  0  0  0
   10.6483  -17.9216   26.6684 C   0  0  0  0  0  0  0  0  0  0  0  0
   10.6562  -17.6567   28.0170 O   0  0  0  0  0  0  0  0  0  0  0  0
   11.3099  -18.8724   26.2378 O   0  0  0  0  0  0  0  0  0  0  0  0
  2  1  1  1
  2  3  1  0
  4  2  1  0
  5  4  1  0
  5  6  1  6
  7  5  1  0
  7  8  2  0
  9  7  1  0
 10  9  1  0
 10 11  1  1
 12 11  1  0
 12 16  1  0
 13 12  2  0
 14 10  1  0
 15 14  2  0
 18 20  1  0
 18 17  1  0
 19 18  2  0
 21 22  1  0
 21 20  1  0
 22 23  1  0
 24 23  1  6
 24 25  1  0
 24 26  1  0
 25 14  1  0
 26 28  2  0
 26 27  1  0
M  END
$$$$
