LDR.pdb
     RDKit          3D

 28 27  0  0  1  0  0  0  0  0999 V2000
    7.9542  -13.0231   17.9877 C   0  0  0  0  0  0  0  0  0  0  0  0
    7.5538  -13.6153   19.3056 C   0  0  2  0  0  0  0  0  0  0  0  0
    7.5020  -12.4894   20.3330 C   0  0  0  0  0  0  0  0  0  0  0  0
    8.5178  -14.6338   19.8192 C   0  0  0  0  0  0  0  0  0  0  0  0
    8.7135  -15.8166   18.9072 C   0  0  2  0  0  0  0  0  0  0  0  0
    7.4597  -16.4797   18.7128 N   0  0  0  0  0  0  0  0  0  0  0  0
    9.7458  -16.6823   19.5348 C   0  0  0  0  0  0  0  0  0  0  0  0
    9.3619  -17.4715   20.4341 O   0  0  0  0  0  0  0  0  0  0  0  0
   11.1191  -16.6789   19.1916 N   0  0  0  0  0  0  0  0  0  0  0  0
   12.1093  -17.4353   19.9650 C   0  0  1  0  0  0  0  0  0  0  0  0
   13.3040  -17.7459   19.1072 C   0  0  0  0  0  0  0  0  0  0  0  0
   12.9795  -18.5402   17.9173 C   0  0  0  0  0  0  0  0  0  0  0  0
   12.2369  -19.5483   17.8904 O   0  0  0  0  0  0  0  0  0  0  0  0
   12.4658  -16.7426   21.2173 C   0  0  0  0  0  0  0  0  0  0  0  0
   13.1135  -15.6785   21.1922 O   0  0  0  0  0  0  0  0  0  0  0  0
   13.5569  -18.1242   16.7097 O   0  0  0  0  0  0  0  0  0  0  0  0
    8.7155  -12.6006   28.2160 N   0  0  0  0  0  0  0  0  0  0  0  0
    9.4484  -13.8001   28.1391 C   0  0  0  0  0  0  0  0  0  0  0  0
   10.1150  -14.2316   29.1539 N   0  0  0  0  0  0  0  0  0  0  0  0
    9.4487  -14.5350   26.9252 N   0  0  0  0  0  0  0  0  0  0  0  0
   10.0773  -15.7809   26.7497 C   0  0  0  0  0  0  0  0  0  0  0  0
   11.3083  -15.8909   25.9290 C   0  0  0  0  0  0  0  0  0  0  0  0
   11.1504  -16.4394   24.5565 C   0  0  0  0  0  0  0  0  0  0  0  0
   12.3935  -16.6195   23.7476 C   0  0  2  0  0  0  0  0  0  0  0  0
   12.0816  -17.2704   22.4637 N   0  0  0  0  0  0  0  0  0  0  0  0
   13.3448  -17.5412   24.4159 C   0  0  0  0  0  0  0  0  0  0  0  0
   13.4914  -18.8310   23.9639 O   0  0  0  0  0  0  0  0  0  0  0  0
   14.0143  -17.1628   25.3832 O   0  0  0  0  0  0  0  0  0  0  0  0
  2  1  1  6
  2  3  1  0
  4  2  1  0
  5  4  1  0
  5  6  1  1
  7  5  1  0
  7  8  2  0
  9  7  1  0
 10  9  1  0
 10 11  1  6
 12 11  1  0
 12 16  1  0
 13 12  2  0
 14 10  1  0
 15 14  2  0
 18 20  1  0
 18 17  1  0
 19 18  2  0
 21 22  1  0
 21 20  1  0
 22 23  1  0
 24 23  1  1
 24 25  1  0
 24 26  1  0
 25 14  1  0
 26 28  2  0
 26 27  1  0
M  END
$$$$
