MIK.pdb
     RDKit          3D

 26 25  0  0  1  0  0  0  0  0999 V2000
   19.6831  -14.3739  -23.1525 C   0  0  0  0  0  0  0  0  0  0  0  0
   19.6769  -13.4229  -21.6063 S   0  0  0  0  0  0  0  0  0  0  0  0
   21.1752  -13.8772  -20.6919 C   0  0  0  0  0  0  0  0  0  0  0  0
   21.3381  -13.0350  -19.4340 C   0  0  0  0  0  0  0  0  0  0  0  0
   22.5757  -13.5382  -18.7313 C   0  0  2  0  0  0  0  0  0  0  0  0
   22.4092  -14.9234  -18.4145 N   0  0  0  0  0  0  0  0  0  0  0  0
   22.8154  -12.7004  -17.5294 C   0  0  0  0  0  0  0  0  0  0  0  0
   22.2626  -13.0043  -16.4303 O   0  0  0  0  0  0  0  0  0  0  0  0
   27.4840  -11.7473  -15.6824 C   0  0  0  0  0  0  0  0  0  0  0  0
   26.0127  -11.8752  -15.8612 C   0  0  0  0  0  0  0  0  0  0  0  0
   25.2992  -10.5490  -16.0873 C   0  0  2  0  0  0  0  0  0  0  0  0
   25.5129   -9.7256  -14.8370 C   0  0  0  0  0  0  0  0  0  0  0  0
   23.8227  -10.7621  -16.3000 C   0  0  2  0  0  0  0  0  0  0  0  0
   23.6448  -11.5564  -17.5442 N   0  0  0  0  0  0  0  0  0  0  0  0
   23.0077   -9.5699  -16.4406 C   0  0  0  0  0  0  0  0  0  0  0  0
   23.3617   -8.7169  -17.3499 O   0  0  0  0  0  0  0  0  0  0  0  0
   21.8555   -9.2302  -15.6919 N   0  0  0  0  0  0  0  0  0  0  0  0
   21.0613   -8.0273  -15.9547 C   0  0  1  0  0  0  0  0  0  0  0  0
   19.6076   -8.3336  -15.9223 C   0  0  0  0  0  0  0  0  0  0  0  0
   19.1103   -9.3422  -16.8926 C   0  0  0  0  0  0  0  0  0  0  0  0
   17.6407   -9.5682  -16.9157 C   0  0  0  0  0  0  0  0  0  0  0  0
   17.3385  -10.6282  -17.9577 C   0  0  0  0  0  0  0  0  0  0  0  0
   15.9217  -10.8053  -18.1589 N   0  0  0  0  0  0  0  0  0  0  0  0
   21.5032   -6.8967  -15.1283 C   0  0  0  0  0  0  0  0  0  0  0  0
   21.3929   -5.5884  -15.5820 O   0  0  0  0  0  0  0  0  0  0  0  0
   21.9912   -7.0875  -13.9879 O   0  0  0  0  0  0  0  0  0  0  0  0
  2  1  1  0
  3  2  1  0
  4  3  1  0
  4  5  1  0
  5  7  1  0
  5  6  1  1
  7  8  2  0
 10  9  1  0
 11 13  1  0
 11 10  1  0
 11 12  1  1
 13 14  1  6
 14  7  1  0
 15 13  1  0
 16 15  2  0
 17 15  1  0
 18 19  1  1
 18 17  1  0
 19 20  1  0
 20 21  1  0
 21 22  1  0
 23 22  1  0
 24 25  1  0
 24 18  1  0
 26 24  2  0
M  END
$$$$
