MIK.pdb
     RDKit          3D

 26 25  0  0  1  0  0  0  0  0999 V2000
   28.3276  -13.1730  -15.7671 C   0  0  0  0  0  0  0  0  0  0  0  0
   28.2520  -14.9841  -15.8627 S   0  0  0  0  0  0  0  0  0  0  0  0
   26.5671  -15.4749  -15.4068 C   0  0  0  0  0  0  0  0  0  0  0  0
   25.5272  -14.5824  -16.0702 C   0  0  0  0  0  0  0  0  0  0  0  0
   24.1798  -15.0301  -15.5578 C   0  0  2  0  0  0  0  0  0  0  0  0
   23.9538  -16.3883  -15.9463 N   0  0  0  0  0  0  0  0  0  0  0  0
   23.1409  -14.1053  -16.0770 C   0  0  0  0  0  0  0  0  0  0  0  0
   22.9434  -14.0183  -17.3257 O   0  0  0  0  0  0  0  0  0  0  0  0
   18.3547  -14.9187  -15.9784 C   0  0  0  0  0  0  0  0  0  0  0  0
   19.6720  -14.2918  -16.2693 C   0  0  0  0  0  0  0  0  0  0  0  0
   19.9452  -13.0258  -15.4683 C   0  0  2  0  0  0  0  0  0  0  0  0
   18.8527  -12.0440  -15.8276 C   0  0  0  0  0  0  0  0  0  0  0  0
   21.2848  -12.4387  -15.8307 C   0  0  2  0  0  0  0  0  0  0  0  0
   22.3424  -13.2980  -15.2359 N   0  0  0  0  0  0  0  0  0  0  0  0
   21.5424  -11.0826  -15.3838 C   0  0  0  0  0  0  0  0  0  0  0  0
   21.6822  -10.8980  -14.1085 O   0  0  0  0  0  0  0  0  0  0  0  0
   21.6629   -9.9259  -16.1908 N   0  0  0  0  0  0  0  0  0  0  0  0
   21.9293   -8.5947  -15.6396 C   0  0  1  0  0  0  0  0  0  0  0  0
   22.2217   -7.6206  -16.7231 C   0  0  0  0  0  0  0  0  0  0  0  0
   22.4494   -6.2103  -16.3170 C   0  0  0  0  0  0  0  0  0  0  0  0
   22.7194   -5.2425  -17.4133 C   0  0  0  0  0  0  0  0  0  0  0  0
   22.8714   -3.8622  -16.8030 C   0  0  0  0  0  0  0  0  0  0  0  0
   23.2252   -2.8685  -17.7861 N   0  0  0  0  0  0  0  0  0  0  0  0
   20.9009   -8.1955  -14.6704 C   0  0  0  0  0  0  0  0  0  0  0  0
   21.2462   -7.6658  -13.4335 O   0  0  0  0  0  0  0  0  0  0  0  0
   19.6817   -8.3229  -14.9391 O   0  0  0  0  0  0  0  0  0  0  0  0
  2  1  1  0
  3  2  1  0
  4  3  1  0
  4  5  1  0
  5  7  1  0
  5  6  1  6
  7  8  2  0
 10  9  1  0
 11 13  1  0
 11 10  1  0
 11 12  1  6
 13 14  1  1
 14  7  1  0
 15 13  1  0
 16 15  2  0
 17 15  1  0
 18 19  1  6
 18 17  1  0
 19 20  1  0
 20 21  1  0
 21 22  1  0
 23 22  1  0
 24 25  1  0
 24 18  1  0
 26 24  2  0
M  END
$$$$
