MIK.pdb
     RDKit          3D

 26 25  0  0  1  0  0  0  0  0999 V2000
   26.9300  -18.1626   -7.3253 C   0  0  0  0  0  0  0  0  0  0  0  0
   27.9738  -19.5746   -6.8651 S   0  0  0  0  0  0  0  0  0  0  0  0
   27.7414  -20.8487   -8.1341 C   0  0  0  0  0  0  0  0  0  0  0  0
   27.0773  -20.2800   -9.3806 C   0  0  0  0  0  0  0  0  0  0  0  0
   26.9934  -21.4073  -10.3811 C   0  0  2  0  0  0  0  0  0  0  0  0
   28.3153  -21.8241  -10.7355 N   0  0  0  0  0  0  0  0  0  0  0  0
   26.2042  -20.9481  -11.5517 C   0  0  0  0  0  0  0  0  0  0  0  0
   26.7865  -20.7273  -12.6554 O   0  0  0  0  0  0  0  0  0  0  0  0
   20.3891  -22.5111  -12.8290 C   0  0  0  0  0  0  0  0  0  0  0  0
   21.7136  -22.0044  -13.2787 C   0  0  0  0  0  0  0  0  0  0  0  0
   22.6853  -21.7184  -12.1416 C   0  0  2  0  0  0  0  0  0  0  0  0
   22.0021  -20.7236  -11.2304 C   0  0  0  0  0  0  0  0  0  0  0  0
   23.9653  -21.1203  -12.6656 C   0  0  2  0  0  0  0  0  0  0  0  0
   24.8077  -20.7385  -11.5014 N   0  0  0  0  0  0  0  0  0  0  0  0
   23.8374  -19.9395  -13.4989 C   0  0  0  0  0  0  0  0  0  0  0  0
   23.6253  -18.8118  -12.8961 O   0  0  0  0  0  0  0  0  0  0  0  0
   23.9222  -19.8773  -14.9105 N   0  0  0  0  0  0  0  0  0  0  0  0
   23.7691  -18.6296  -15.6632 C   0  0  1  0  0  0  0  0  0  0  0  0
   24.8679  -18.4671  -16.6503 C   0  0  0  0  0  0  0  0  0  0  0  0
   24.8188  -17.2646  -17.5205 C   0  0  0  0  0  0  0  0  0  0  0  0
   25.9303  -17.1093  -18.4962 C   0  0  0  0  0  0  0  0  0  0  0  0
   25.7710  -15.7698  -19.1899 C   0  0  0  0  0  0  0  0  0  0  0  0
   26.8336  -15.5144  -20.1305 N   0  0  0  0  0  0  0  0  0  0  0  0
   22.4042  -18.4758  -16.1828 C   0  0  0  0  0  0  0  0  0  0  0  0
   21.8371  -17.2191  -16.3523 O   0  0  0  0  0  0  0  0  0  0  0  0
   21.7168  -19.4805  -16.4881 O   0  0  0  0  0  0  0  0  0  0  0  0
  2  1  1  0
  3  2  1  0
  4  3  1  0
  4  5  1  0
  5  7  1  0
  5  6  1  6
  7  8  2  0
 10  9  1  0
 11 13  1  0
 11 10  1  0
 11 12  1  1
 13 14  1  1
 14  7  1  0
 15 13  1  0
 16 15  2  0
 17 15  1  0
 18 19  1  6
 18 17  1  0
 19 20  1  0
 20 21  1  0
 21 22  1  0
 23 22  1  0
 24 25  1  0
 24 18  1  0
 26 24  2  0
M  END
$$$$
