MIK.pdb
     RDKit          3D

 26 25  0  0  1  0  0  0  0  0999 V2000
   18.8953  -12.9828  -15.2759 C   0  0  0  0  0  0  0  0  0  0  0  0
   17.4197  -12.2726  -14.4928 S   0  0  0  0  0  0  0  0  0  0  0  0
   17.8909  -10.6502  -13.8343 C   0  0  0  0  0  0  0  0  0  0  0  0
   16.7394   -9.9976  -13.0818 C   0  0  0  0  0  0  0  0  0  0  0  0
   17.2710   -8.7060  -12.5093 C   0  0  2  0  0  0  0  0  0  0  0  0
   18.2542   -9.0001  -11.5124 N   0  0  0  0  0  0  0  0  0  0  0  0
   16.1325   -7.9167  -11.9758 C   0  0  0  0  0  0  0  0  0  0  0  0
   15.1524   -7.6378  -12.7293 O   0  0  0  0  0  0  0  0  0  0  0  0
   12.4418   -7.6519   -7.2975 C   0  0  0  0  0  0  0  0  0  0  0  0
   13.1291   -6.8525   -8.3470 C   0  0  0  0  0  0  0  0  0  0  0  0
   14.3242   -7.5553   -8.9769 C   0  0  2  0  0  0  0  0  0  0  0  0
   15.3897   -7.6367   -7.9069 C   0  0  0  0  0  0  0  0  0  0  0  0
   14.8521   -6.7712  -10.1504 C   0  0  2  0  0  0  0  0  0  0  0  0
   16.0806   -7.4482  -10.6437 N   0  0  0  0  0  0  0  0  0  0  0  0
   15.2051   -5.3862   -9.9007 C   0  0  0  0  0  0  0  0  0  0  0  0
   16.3729   -5.1583   -9.3866 O   0  0  0  0  0  0  0  0  0  0  0  0
   14.4122   -4.2428  -10.1605 N   0  0  0  0  0  0  0  0  0  0  0  0
   14.8982   -2.8749   -9.9616 C   0  0  1  0  0  0  0  0  0  0  0  0
   14.3680   -1.9657  -11.0106 C   0  0  0  0  0  0  0  0  0  0  0  0
   14.7527   -0.5342  -10.9180 C   0  0  0  0  0  0  0  0  0  0  0  0
   14.1468    0.3792  -11.9230 C   0  0  0  0  0  0  0  0  0  0  0  0
   14.7735    1.7507  -11.7586 C   0  0  0  0  0  0  0  0  0  0  0  0
   14.2519    2.7044  -12.7060 N   0  0  0  0  0  0  0  0  0  0  0  0
   14.7191   -2.4344   -8.5723 C   0  0  0  0  0  0  0  0  0  0  0  0
   15.6111   -1.5508   -7.9779 O   0  0  0  0  0  0  0  0  0  0  0  0
   13.7514   -2.8468   -7.8879 O   0  0  0  0  0  0  0  0  0  0  0  0
  2  1  1  0
  3  2  1  0
  4  3  1  0
  4  5  1  0
  5  7  1  0
  5  6  1  1
  7  8  2  0
 10  9  1  0
 11 13  1  0
 11 10  1  0
 11 12  1  1
 13 14  1  1
 14  7  1  0
 15 13  1  0
 16 15  2  0
 17 15  1  0
 18 19  1  6
 18 17  1  0
 19 20  1  0
 20 21  1  0
 21 22  1  0
 23 22  1  0
 24 25  1  0
 24 18  1  0
 26 24  2  0
M  END
$$$$
