MIK.pdb
     RDKit          3D

 26 25  0  0  1  0  0  0  0  0999 V2000
   28.7556  -17.8456   -5.2798 C   0  0  0  0  0  0  0  0  0  0  0  0
   28.0741  -19.2722   -4.3880 S   0  0  0  0  0  0  0  0  0  0  0  0
   27.4927  -20.4547   -5.6336 C   0  0  0  0  0  0  0  0  0  0  0  0
   27.2363  -19.7748   -6.9716 C   0  0  0  0  0  0  0  0  0  0  0  0
   26.8514  -20.8625   -7.9450 C   0  0  2  0  0  0  0  0  0  0  0  0
   28.0209  -21.5955   -8.3214 N   0  0  0  0  0  0  0  0  0  0  0  0
   26.1656  -20.2421   -9.1063 C   0  0  0  0  0  0  0  0  0  0  0  0
   26.2213  -18.9870   -9.2730 O   0  0  0  0  0  0  0  0  0  0  0  0
   29.1818  -20.6457  -12.2841 C   0  0  0  0  0  0  0  0  0  0  0  0
   27.8939  -20.2359  -11.6624 C   0  0  0  0  0  0  0  0  0  0  0  0
   26.6948  -21.0505  -12.1286 C   0  0  2  0  0  0  0  0  0  0  0  0
   26.5999  -20.8603  -13.6258 C   0  0  0  0  0  0  0  0  0  0  0  0
   25.4262  -20.5595  -11.4803 C   0  0  2  0  0  0  0  0  0  0  0  0
   25.4371  -20.9913  -10.0575 N   0  0  0  0  0  0  0  0  0  0  0  0
   24.1792  -21.0295  -12.0541 C   0  0  0  0  0  0  0  0  0  0  0  0
   23.8918  -22.2833  -11.8950 O   0  0  0  0  0  0  0  0  0  0  0  0
   23.2286  -20.2657  -12.7729 N   0  0  0  0  0  0  0  0  0  0  0  0
   22.0187  -20.8478  -13.3594 C   0  0  1  0  0  0  0  0  0  0  0  0
   21.0624  -19.7857  -13.7665 C   0  0  0  0  0  0  0  0  0  0  0  0
   19.7849  -20.2294  -14.3804 C   0  0  0  0  0  0  0  0  0  0  0  0
   18.8160  -19.1588  -14.7361 C   0  0  0  0  0  0  0  0  0  0  0  0
   17.5642  -19.8139  -15.2880 C   0  0  0  0  0  0  0  0  0  0  0  0
   16.5352  -18.8509  -15.5930 N   0  0  0  0  0  0  0  0  0  0  0  0
   22.3426  -21.8531  -14.3797 C   0  0  0  0  0  0  0  0  0  0  0  0
   21.6383  -23.0477  -14.4606 O   0  0  0  0  0  0  0  0  0  0  0  0
   23.2659  -21.6542  -15.2061 O   0  0  0  0  0  0  0  0  0  0  0  0
  2  1  1  0
  3  2  1  0
  4  3  1  0
  4  5  1  0
  5  7  1  0
  5  6  1  6
  7  8  2  0
 10  9  1  0
 11 13  1  0
 11 10  1  0
 11 12  1  6
 13 14  1  1
 14  7  1  0
 15 13  1  0
 16 15  2  0
 17 15  1  0
 18 19  1  6
 18 17  1  0
 19 20  1  0
 20 21  1  0
 21 22  1  0
 23 22  1  0
 24 25  1  0
 24 18  1  0
 26 24  2  0
M  END
$$$$
