MIK.pdb
     RDKit          3D

 26 25  0  0  1  0  0  0  0  0999 V2000
   28.4397  -17.3610  -19.4294 C   0  0  0  0  0  0  0  0  0  0  0  0
   27.0887  -18.3654  -18.7506 S   0  0  0  0  0  0  0  0  0  0  0  0
   27.7720  -19.3177  -17.3672 C   0  0  0  0  0  0  0  0  0  0  0  0
   26.7000  -20.1545  -16.6824 C   0  0  0  0  0  0  0  0  0  0  0  0
   27.3331  -20.7440  -15.4454 C   0  0  2  0  0  0  0  0  0  0  0  0
   28.2976  -21.7278  -15.8311 N   0  0  0  0  0  0  0  0  0  0  0  0
   26.2622  -21.2998  -14.5804 C   0  0  0  0  0  0  0  0  0  0  0  0
   25.9521  -22.5252  -14.6720 O   0  0  0  0  0  0  0  0  0  0  0  0
   26.4911  -20.8863   -9.4101 C   0  0  0  0  0  0  0  0  0  0  0  0
   26.1297  -21.3361  -10.7812 C   0  0  0  0  0  0  0  0  0  0  0  0
   24.8565  -20.7021  -11.3252 C   0  0  2  0  0  0  0  0  0  0  0  0
   23.7325  -21.1421  -10.4142 C   0  0  0  0  0  0  0  0  0  0  0  0
   24.5775  -21.1745  -12.7286 C   0  0  2  0  0  0  0  0  0  0  0  0
   25.5534  -20.5196  -13.6393 N   0  0  0  0  0  0  0  0  0  0  0  0
   23.2552  -20.8965  -13.2570 C   0  0  0  0  0  0  0  0  0  0  0  0
   22.8718  -19.6584  -13.2667 O   0  0  0  0  0  0  0  0  0  0  0  0
   22.3271  -21.8332  -13.7718 N   0  0  0  0  0  0  0  0  0  0  0  0
   20.9470  -21.4805  -14.1146 C   0  0  1  0  0  0  0  0  0  0  0  0
   20.2543  -22.6216  -14.7677 C   0  0  0  0  0  0  0  0  0  0  0  0
   18.8229  -22.4308  -15.1148 C   0  0  0  0  0  0  0  0  0  0  0  0
   18.1245  -23.6029  -15.7061 C   0  0  0  0  0  0  0  0  0  0  0  0
   16.7525  -23.7111  -15.0683 C   0  0  0  0  0  0  0  0  0  0  0  0
   16.0200  -24.8582  -15.5445 N   0  0  0  0  0  0  0  0  0  0  0  0
   20.2490  -20.8635  -12.9794 C   0  0  0  0  0  0  0  0  0  0  0  0
   19.4515  -19.7392  -13.1512 O   0  0  0  0  0  0  0  0  0  0  0  0
   20.3564  -21.3409  -11.8237 O   0  0  0  0  0  0  0  0  0  0  0  0
  2  1  1  0
  3  2  1  0
  4  3  1  0
  4  5  1  0
  5  7  1  0
  5  6  1  6
  7  8  2  0
 10  9  1  0
 11 13  1  0
 11 10  1  0
 11 12  1  1
 13 14  1  6
 14  7  1  0
 15 13  1  0
 16 15  2  0
 17 15  1  0
 18 19  1  1
 18 17  1  0
 19 20  1  0
 20 21  1  0
 21 22  1  0
 23 22  1  0
 24 25  1  0
 24 18  1  0
 26 24  2  0
M  END
$$$$
