MIK.pdb
     RDKit          3D

 26 25  0  0  1  0  0  0  0  0999 V2000
   25.7829  -18.5175  -18.8087 C   0  0  0  0  0  0  0  0  0  0  0  0
   27.3997  -17.9453  -18.2139 S   0  0  0  0  0  0  0  0  0  0  0  0
   27.9489  -19.1175  -16.9443 C   0  0  0  0  0  0  0  0  0  0  0  0
   26.7698  -19.7125  -16.1868 C   0  0  0  0  0  0  0  0  0  0  0  0
   27.3442  -20.6729  -15.1737 C   0  0  2  0  0  0  0  0  0  0  0  0
   27.9559  -21.7709  -15.8572 N   0  0  0  0  0  0  0  0  0  0  0  0
   26.2596  -21.1023  -14.2554 C   0  0  0  0  0  0  0  0  0  0  0  0
   25.5890  -22.1451  -14.5178 O   0  0  0  0  0  0  0  0  0  0  0  0
   26.8902  -20.8587   -9.0387 C   0  0  0  0  0  0  0  0  0  0  0  0
   26.3164  -21.3413  -10.3236 C   0  0  0  0  0  0  0  0  0  0  0  0
   25.1099  -20.5441  -10.8008 C   0  0  2  0  0  0  0  0  0  0  0  0
   23.9474  -20.9555   -9.9254 C   0  0  0  0  0  0  0  0  0  0  0  0
   24.7904  -20.8610  -12.2388 C   0  0  2  0  0  0  0  0  0  0  0  0
   25.9260  -20.3955  -13.0781 N   0  0  0  0  0  0  0  0  0  0  0  0
   23.5881  -20.2599  -12.7851 C   0  0  0  0  0  0  0  0  0  0  0  0
   23.6884  -19.0522  -13.2446 O   0  0  0  0  0  0  0  0  0  0  0  0
   22.3047  -20.8499  -12.8774 N   0  0  0  0  0  0  0  0  0  0  0  0
   21.2228  -20.2803  -13.6848 C   0  0  1  0  0  0  0  0  0  0  0  0
   21.6755  -20.0303  -15.0780 C   0  0  0  0  0  0  0  0  0  0  0  0
   20.7084  -19.3707  -15.9920 C   0  0  0  0  0  0  0  0  0  0  0  0
   20.0796  -20.2362  -17.0248 C   0  0  0  0  0  0  0  0  0  0  0  0
   19.3231  -19.3479  -17.9940 C   0  0  0  0  0  0  0  0  0  0  0  0
   18.6519  -20.1084  -19.0189 N   0  0  0  0  0  0  0  0  0  0  0  0
   19.9776  -21.0443  -13.5360 C   0  0  0  0  0  0  0  0  0  0  0  0
   19.9810  -22.4334  -13.5483 O   0  0  0  0  0  0  0  0  0  0  0  0
   18.8777  -20.4573  -13.3924 O   0  0  0  0  0  0  0  0  0  0  0  0
  2  1  1  0
  3  2  1  0
  4  3  1  0
  4  5  1  0
  5  7  1  0
  5  6  1  6
  7  8  2  0
 10  9  1  0
 11 13  1  0
 11 10  1  0
 11 12  1  1
 13 14  1  6
 14  7  1  0
 15 13  1  0
 16 15  2  0
 17 15  1  0
 18 19  1  6
 18 17  1  0
 19 20  1  0
 20 21  1  0
 21 22  1  0
 23 22  1  0
 24 25  1  0
 24 18  1  0
 26 24  2  0
M  END
$$$$
