MIK.pdb
     RDKit          3D

 26 25  0  0  1  0  0  0  0  0999 V2000
   15.9722  -33.5988   -5.1614 C   0  0  0  0  0  0  0  0  0  0  0  0
   15.9128  -33.9583   -6.9396 S   0  0  0  0  0  0  0  0  0  0  0  0
   16.5811  -32.5099   -7.8017 C   0  0  0  0  0  0  0  0  0  0  0  0
   17.4728  -31.6795   -6.8887 C   0  0  0  0  0  0  0  0  0  0  0  0
   17.8754  -30.4536   -7.6721 C   0  0  2  0  0  0  0  0  0  0  0  0
   18.9445  -30.7908   -8.5610 N   0  0  0  0  0  0  0  0  0  0  0  0
   18.2416  -29.3770   -6.7178 C   0  0  0  0  0  0  0  0  0  0  0  0
   19.3317  -29.4496   -6.0755 O   0  0  0  0  0  0  0  0  0  0  0  0
   18.7710  -24.6222   -8.3176 C   0  0  0  0  0  0  0  0  0  0  0  0
   18.8621  -25.8290   -7.4525 C   0  0  0  0  0  0  0  0  0  0  0  0
   17.8322  -25.8660   -6.3315 C   0  0  2  0  0  0  0  0  0  0  0  0
   18.1715  -24.7273   -5.3962 C   0  0  0  0  0  0  0  0  0  0  0  0
   17.9027  -27.1697   -5.5792 C   0  0  2  0  0  0  0  0  0  0  0  0
   17.4225  -28.2502   -6.4807 N   0  0  0  0  0  0  0  0  0  0  0  0
   17.1215  -27.2595   -4.3599 C   0  0  0  0  0  0  0  0  0  0  0  0
   15.8374  -27.3792   -4.4891 O   0  0  0  0  0  0  0  0  0  0  0  0
   17.6074  -27.2343   -3.0306 N   0  0  0  0  0  0  0  0  0  0  0  0
   16.7315  -27.3359   -1.8606 C   0  0  1  0  0  0  0  0  0  0  0  0
   17.5139  -27.6543   -0.6380 C   0  0  0  0  0  0  0  0  0  0  0  0
   16.7554  -27.7822    0.6325 C   0  0  0  0  0  0  0  0  0  0  0  0
   17.5119  -28.2968    1.8047 C   0  0  0  0  0  0  0  0  0  0  0  0
   16.5307  -28.5372    2.9362 C   0  0  0  0  0  0  0  0  0  0  0  0
   17.1629  -29.1322    4.0875 N   0  0  0  0  0  0  0  0  0  0  0  0
   15.8211  -26.1876   -1.7657 C   0  0  0  0  0  0  0  0  0  0  0  0
   16.2541  -24.9009   -2.0601 O   0  0  0  0  0  0  0  0  0  0  0  0
   14.6258  -26.3434   -1.4163 O   0  0  0  0  0  0  0  0  0  0  0  0
  2  1  1  0
  3  2  1  0
  4  3  1  0
  4  5  1  0
  5  7  1  0
  5  6  1  6
  7  8  2  0
 10  9  1  0
 11 13  1  0
 11 10  1  0
 11 12  1  1
 13 14  1  6
 14  7  1  0
 15 13  1  0
 16 15  2  0
 17 15  1  0
 18 19  1  1
 18 17  1  0
 19 20  1  0
 20 21  1  0
 21 22  1  0
 23 22  1  0
 24 25  1  0
 24 18  1  0
 26 24  2  0
M  END
$$$$
