MIK.pdb
     RDKit          3D

 26 25  0  0  1  0  0  0  0  0999 V2000
   19.7765  -17.2418  -15.7298 C   0  0  0  0  0  0  0  0  0  0  0  0
   20.2845  -17.4804  -17.4562 S   0  0  0  0  0  0  0  0  0  0  0  0
   20.6361  -15.8395  -18.1428 C   0  0  0  0  0  0  0  0  0  0  0  0
   21.1851  -14.8964  -17.0810 C   0  0  0  0  0  0  0  0  0  0  0  0
   21.3469  -13.5477  -17.7395 C   0  0  2  0  0  0  0  0  0  0  0  0
   22.2484  -13.6661  -18.8441 N   0  0  0  0  0  0  0  0  0  0  0  0
   21.8131  -12.5729  -16.7215 C   0  0  0  0  0  0  0  0  0  0  0  0
   21.2048  -12.4810  -15.6135 O   0  0  0  0  0  0  0  0  0  0  0  0
   26.8516  -11.9228  -15.2801 C   0  0  0  0  0  0  0  0  0  0  0  0
   25.3642  -11.8958  -15.2721 C   0  0  0  0  0  0  0  0  0  0  0  0
   24.7657  -10.6053  -15.8154 C   0  0  2  0  0  0  0  0  0  0  0  0
   25.1454   -9.5110  -14.8432 C   0  0  0  0  0  0  0  0  0  0  0  0
   23.2642  -10.7020  -15.8986 C   0  0  2  0  0  0  0  0  0  0  0  0
   22.9229  -11.7223  -16.9249 N   0  0  0  0  0  0  0  0  0  0  0  0
   22.5538   -9.4889  -16.2574 C   0  0  0  0  0  0  0  0  0  0  0  0
   22.9677   -8.8510  -17.3070 O   0  0  0  0  0  0  0  0  0  0  0  0
   21.4458   -8.9181  -15.5863 N   0  0  0  0  0  0  0  0  0  0  0  0
   20.8350   -7.6502  -15.9938 C   0  0  1  0  0  0  0  0  0  0  0  0
   19.3596   -7.6925  -15.8217 C   0  0  0  0  0  0  0  0  0  0  0  0
   18.6146   -6.4353  -16.0867 C   0  0  0  0  0  0  0  0  0  0  0  0
   17.1458   -6.4771  -15.8583 C   0  0  0  0  0  0  0  0  0  0  0  0
   16.5755   -5.1078  -16.1758 C   0  0  0  0  0  0  0  0  0  0  0  0
   15.1564   -5.0389  -15.9298 N   0  0  0  0  0  0  0  0  0  0  0  0
   21.5240   -6.5007  -15.3933 C   0  0  0  0  0  0  0  0  0  0  0  0
   21.9578   -6.5318  -14.0740 O   0  0  0  0  0  0  0  0  0  0  0  0
   21.7388   -5.4604  -16.0616 O   0  0  0  0  0  0  0  0  0  0  0  0
  2  1  1  0
  3  2  1  0
  4  3  1  0
  4  5  1  0
  5  7  1  0
  5  6  1  6
  7  8  2  0
 10  9  1  0
 11 13  1  0
 11 10  1  0
 11 12  1  1
 13 14  1  6
 14  7  1  0
 15 13  1  0
 16 15  2  0
 17 15  1  0
 18 19  1  1
 18 17  1  0
 19 20  1  0
 20 21  1  0
 21 22  1  0
 23 22  1  0
 24 25  1  0
 24 18  1  0
 26 24  2  0
M  END
$$$$
