MIK.pdb
     RDKit          3D

 26 25  0  0  1  0  0  0  0  0999 V2000
   35.5867  -29.1730  -18.3120 C   0  0  0  0  0  0  0  0  0  0  0  0
   36.6304  -27.6914  -18.4150 S   0  0  0  0  0  0  0  0  0  0  0  0
   36.0141  -26.5151  -17.1804 C   0  0  0  0  0  0  0  0  0  0  0  0
   34.6651  -26.9475  -16.6223 C   0  0  0  0  0  0  0  0  0  0  0  0
   34.2442  -25.8879  -15.6331 C   0  0  2  0  0  0  0  0  0  0  0  0
   34.9316  -26.0965  -14.3959 N   0  0  0  0  0  0  0  0  0  0  0  0
   32.7679  -25.9349  -15.4834 C   0  0  0  0  0  0  0  0  0  0  0  0
   32.2570  -26.4549  -14.4467 O   0  0  0  0  0  0  0  0  0  0  0  0
   27.8964  -22.5115  -16.7036 C   0  0  0  0  0  0  0  0  0  0  0  0
   28.4355  -23.8791  -16.4752 C   0  0  0  0  0  0  0  0  0  0  0  0
   29.9564  -23.9474  -16.4425 C   0  0  2  0  0  0  0  0  0  0  0  0
   30.4367  -23.5241  -17.8125 C   0  0  0  0  0  0  0  0  0  0  0  0
   30.4258  -25.3510  -16.1590 C   0  0  2  0  0  0  0  0  0  0  0  0
   31.8811  -25.4205  -16.4558 N   0  0  0  0  0  0  0  0  0  0  0  0
   29.7900  -26.4139  -16.9148 C   0  0  0  0  0  0  0  0  0  0  0  0
   30.1250  -26.5337  -18.1611 O   0  0  0  0  0  0  0  0  0  0  0  0
   28.8377  -27.3474  -16.4400 N   0  0  0  0  0  0  0  0  0  0  0  0
   28.4994  -28.5767  -17.1619 C   0  0  1  0  0  0  0  0  0  0  0  0
   28.6439  -29.7655  -16.2821 C   0  0  0  0  0  0  0  0  0  0  0  0
   28.3250  -31.0876  -16.8790 C   0  0  0  0  0  0  0  0  0  0  0  0
   28.4236  -32.2626  -15.9730 C   0  0  0  0  0  0  0  0  0  0  0  0
   28.2133  -33.5183  -16.7975 C   0  0  0  0  0  0  0  0  0  0  0  0
   28.2799  -34.7141  -15.9944 N   0  0  0  0  0  0  0  0  0  0  0  0
   27.2218  -28.4505  -17.8748 C   0  0  0  0  0  0  0  0  0  0  0  0
   26.9961  -29.1223  -19.0696 O   0  0  0  0  0  0  0  0  0  0  0  0
   26.3004  -27.7311  -17.4182 O   0  0  0  0  0  0  0  0  0  0  0  0
  2  1  1  0
  3  2  1  0
  4  3  1  0
  4  5  1  0
  5  7  1  0
  5  6  1  1
  7  8  2  0
 10  9  1  0
 11 13  1  0
 11 10  1  0
 11 12  1  6
 13 14  1  6
 14  7  1  0
 15 13  1  0
 16 15  2  0
 17 15  1  0
 18 19  1  1
 18 17  1  0
 19 20  1  0
 20 21  1  0
 21 22  1  0
 23 22  1  0
 24 25  1  0
 24 18  1  0
 26 24  2  0
M  END
$$$$
