MIK.pdb
     RDKit          3D

 26 25  0  0  1  0  0  0  0  0999 V2000
   23.7057  -28.5784  -17.2620 C   0  0  0  0  0  0  0  0  0  0  0  0
   23.8973  -27.3114  -18.5478 S   0  0  0  0  0  0  0  0  0  0  0  0
   24.7270  -25.8926  -17.7823 C   0  0  0  0  0  0  0  0  0  0  0  0
   23.9198  -25.3358  -16.6176 C   0  0  0  0  0  0  0  0  0  0  0  0
   24.6570  -24.1154  -16.1219 C   0  0  2  0  0  0  0  0  0  0  0  0
   25.8209  -24.5274  -15.3991 N   0  0  0  0  0  0  0  0  0  0  0  0
   23.7295  -23.3001  -15.2978 C   0  0  0  0  0  0  0  0  0  0  0  0
   23.7216  -23.4371  -14.0380 O   0  0  0  0  0  0  0  0  0  0  0  0
   24.0886  -18.3496  -15.3307 C   0  0  0  0  0  0  0  0  0  0  0  0
   23.6873  -19.7133  -14.8919 C   0  0  0  0  0  0  0  0  0  0  0  0
   22.2550  -20.0832  -15.2531 C   0  0  2  0  0  0  0  0  0  0  0  0
   21.3572  -19.2180  -14.3974 C   0  0  0  0  0  0  0  0  0  0  0  0
   21.9830  -21.5350  -14.9553 C   0  0  2  0  0  0  0  0  0  0  0  0
   22.8344  -22.3587  -15.8539 N   0  0  0  0  0  0  0  0  0  0  0  0
   20.6170  -21.9903  -15.1344 C   0  0  0  0  0  0  0  0  0  0  0  0
   20.0686  -21.7718  -16.2883 O   0  0  0  0  0  0  0  0  0  0  0  0
   19.8073  -22.6562  -14.1833 N   0  0  0  0  0  0  0  0  0  0  0  0
   18.4108  -23.0174  -14.4402 C   0  0  1  0  0  0  0  0  0  0  0  0
   17.9599  -24.0866  -13.5118 C   0  0  0  0  0  0  0  0  0  0  0  0
   18.8229  -25.2902  -13.4012 C   0  0  0  0  0  0  0  0  0  0  0  0
   19.5247  -25.4830  -12.1044 C   0  0  0  0  0  0  0  0  0  0  0  0
   20.4181  -26.7030  -12.2235 C   0  0  0  0  0  0  0  0  0  0  0  0
   19.6601  -27.9274  -12.2990 N   0  0  0  0  0  0  0  0  0  0  0  0
   17.5521  -21.8292  -14.5250 C   0  0  0  0  0  0  0  0  0  0  0  0
   16.4106  -21.8225  -15.3168 O   0  0  0  0  0  0  0  0  0  0  0  0
   17.8303  -20.7890  -13.8804 O   0  0  0  0  0  0  0  0  0  0  0  0
  2  1  1  0
  3  2  1  0
  4  3  1  0
  4  5  1  0
  5  7  1  0
  5  6  1  1
  7  8  2  0
 10  9  1  0
 11 13  1  0
 11 10  1  0
 11 12  1  1
 13 14  1  6
 14  7  1  0
 15 13  1  0
 16 15  2  0
 17 15  1  0
 18 19  1  1
 18 17  1  0
 19 20  1  0
 20 21  1  0
 21 22  1  0
 23 22  1  0
 24 25  1  0
 24 18  1  0
 26 24  2  0
M  END
$$$$
