MIK.pdb
     RDKit          3D

 26 25  0  0  1  0  0  0  0  0999 V2000
   20.2397  -10.2785  -23.0846 C   0  0  0  0  0  0  0  0  0  0  0  0
   19.8058  -12.0327  -22.9121 S   0  0  0  0  0  0  0  0  0  0  0  0
   20.5331  -12.6139  -21.3562 C   0  0  0  0  0  0  0  0  0  0  0  0
   20.1368  -11.7221  -20.1875 C   0  0  0  0  0  0  0  0  0  0  0  0
   20.9078  -12.2122  -18.9859 C   0  0  2  0  0  0  0  0  0  0  0  0
   20.5137  -13.5546  -18.6868 N   0  0  0  0  0  0  0  0  0  0  0  0
   20.6710  -11.2801  -17.8549 C   0  0  0  0  0  0  0  0  0  0  0  0
   19.6510  -11.4311  -17.1182 O   0  0  0  0  0  0  0  0  0  0  0  0
   24.0927  -10.7639  -14.1589 C   0  0  0  0  0  0  0  0  0  0  0  0
   22.8265  -10.7030  -14.9375 C   0  0  0  0  0  0  0  0  0  0  0  0
   22.5203   -9.3273  -15.5142 C   0  0  2  0  0  0  0  0  0  0  0  0
   22.3066   -8.4035  -14.3362 C   0  0  0  0  0  0  0  0  0  0  0  0
   21.2707   -9.3628  -16.3556 C   0  0  2  0  0  0  0  0  0  0  0  0
   21.5403  -10.2091  -17.5481 N   0  0  0  0  0  0  0  0  0  0  0  0
   20.7805   -8.0881  -16.8452 C   0  0  0  0  0  0  0  0  0  0  0  0
   21.5699   -7.4092  -17.6172 O   0  0  0  0  0  0  0  0  0  0  0  0
   19.5232   -7.4962  -16.5756 N   0  0  0  0  0  0  0  0  0  0  0  0
   19.1432   -6.1720  -17.0744 C   0  0  1  0  0  0  0  0  0  0  0  0
   17.7683   -6.1917  -17.6379 C   0  0  0  0  0  0  0  0  0  0  0  0
   17.1992   -4.8898  -18.0703 C   0  0  0  0  0  0  0  0  0  0  0  0
   15.8136   -4.9208  -18.6092 C   0  0  0  0  0  0  0  0  0  0  0  0
   15.4107   -3.5032  -18.9682 C   0  0  0  0  0  0  0  0  0  0  0  0
   14.0744   -3.4368  -19.5060 N   0  0  0  0  0  0  0  0  0  0  0  0
   19.4231   -5.1217  -16.0869 C   0  0  0  0  0  0  0  0  0  0  0  0
   19.8490   -3.8597  -16.4812 O   0  0  0  0  0  0  0  0  0  0  0  0
   19.2818   -5.3410  -14.8593 O   0  0  0  0  0  0  0  0  0  0  0  0
  2  1  1  0
  3  2  1  0
  4  3  1  0
  4  5  1  0
  5  7  1  0
  5  6  1  1
  7  8  2  0
 10  9  1  0
 11 13  1  0
 11 10  1  0
 11 12  1  1
 13 14  1  6
 14  7  1  0
 15 13  1  0
 16 15  2  0
 17 15  1  0
 18 19  1  1
 18 17  1  0
 19 20  1  0
 20 21  1  0
 21 22  1  0
 23 22  1  0
 24 25  1  0
 24 18  1  0
 26 24  2  0
M  END
$$$$
