MIK.pdb
     RDKit          3D

 26 25  0  0  1  0  0  0  0  0999 V2000
   29.3711  -22.5373  -20.3610 C   0  0  0  0  0  0  0  0  0  0  0  0
   29.2083  -22.8476  -18.5799 S   0  0  0  0  0  0  0  0  0  0  0  0
   27.4366  -22.9852  -18.2198 C   0  0  0  0  0  0  0  0  0  0  0  0
   27.1781  -23.0924  -16.7232 C   0  0  0  0  0  0  0  0  0  0  0  0
   26.7164  -21.7308  -16.2633 C   0  0  2  0  0  0  0  0  0  0  0  0
   27.8427  -20.8524  -16.1817 N   0  0  0  0  0  0  0  0  0  0  0  0
   26.0108  -21.8798  -14.9656 C   0  0  0  0  0  0  0  0  0  0  0  0
   25.1482  -22.7968  -14.8202 O   0  0  0  0  0  0  0  0  0  0  0  0
   28.7755  -20.9955  -10.7667 C   0  0  0  0  0  0  0  0  0  0  0  0
   27.5961  -21.6826  -11.3585 C   0  0  0  0  0  0  0  0  0  0  0  0
   26.3515  -20.8098  -11.4475 C   0  0  2  0  0  0  0  0  0  0  0  0
   25.5953  -21.0036  -10.1524 C   0  0  0  0  0  0  0  0  0  0  0  0
   25.4810  -21.2305  -12.6032 C   0  0  2  0  0  0  0  0  0  0  0  0
   26.2535  -21.0358  -13.8586 N   0  0  0  0  0  0  0  0  0  0  0  0
   24.2270  -20.5189  -12.7650 C   0  0  0  0  0  0  0  0  0  0  0  0
   24.2969  -19.2477  -13.0083 O   0  0  0  0  0  0  0  0  0  0  0  0
   22.9217  -21.0611  -12.6899 N   0  0  0  0  0  0  0  0  0  0  0  0
   21.7169  -20.2796  -12.9805 C   0  0  1  0  0  0  0  0  0  0  0  0
   21.8466  -19.5673  -14.2782 C   0  0  0  0  0  0  0  0  0  0  0  0
   20.6742  -18.7768  -14.7325 C   0  0  0  0  0  0  0  0  0  0  0  0
   20.1945  -19.0415  -16.1149 C   0  0  0  0  0  0  0  0  0  0  0  0
   19.0742  -18.0669  -16.4248 C   0  0  0  0  0  0  0  0  0  0  0  0
   18.4539  -18.3377  -17.6980 N   0  0  0  0  0  0  0  0  0  0  0  0
   20.4979  -21.0783  -12.7995 C   0  0  0  0  0  0  0  0  0  0  0  0
   20.5597  -22.4557  -12.6305 O   0  0  0  0  0  0  0  0  0  0  0  0
   19.3680  -20.5321  -12.7920 O   0  0  0  0  0  0  0  0  0  0  0  0
  2  1  1  0
  3  2  1  0
  4  3  1  0
  4  5  1  0
  5  7  1  0
  5  6  1  1
  7  8  2  0
 10  9  1  0
 11 13  1  0
 11 10  1  0
 11 12  1  1
 13 14  1  6
 14  7  1  0
 15 13  1  0
 16 15  2  0
 17 15  1  0
 18 19  1  6
 18 17  1  0
 19 20  1  0
 20 21  1  0
 21 22  1  0
 23 22  1  0
 24 25  1  0
 24 18  1  0
 26 24  2  0
M  END
$$$$
