MIK.pdb
     RDKit          3D

 26 25  0  0  1  0  0  0  0  0999 V2000
   20.6634  -13.0943  -16.2837 C   0  0  0  0  0  0  0  0  0  0  0  0
   19.5394  -14.0511  -15.2271 S   0  0  0  0  0  0  0  0  0  0  0  0
   18.0502  -14.3951  -16.2025 C   0  0  0  0  0  0  0  0  0  0  0  0
   17.0164  -13.2875  -16.0519 C   0  0  0  0  0  0  0  0  0  0  0  0
   16.0646  -13.7261  -14.9655 C   0  0  2  0  0  0  0  0  0  0  0  0
   15.3793  -14.9092  -15.3868 N   0  0  0  0  0  0  0  0  0  0  0  0
   15.1394  -12.6056  -14.6613 C   0  0  0  0  0  0  0  0  0  0  0  0
   14.0787  -12.4636  -15.3401 O   0  0  0  0  0  0  0  0  0  0  0  0
   11.8547  -12.0696  -11.0936 C   0  0  0  0  0  0  0  0  0  0  0  0
   12.6369  -11.8015  -12.3302 C   0  0  0  0  0  0  0  0  0  0  0  0
   13.6981  -10.7213  -12.1692 C   0  0  2  0  0  0  0  0  0  0  0  0
   12.9661   -9.4476  -11.8102 C   0  0  0  0  0  0  0  0  0  0  0  0
   14.4571  -10.5171  -13.4548 C   0  0  2  0  0  0  0  0  0  0  0  0
   15.3823  -11.6673  -13.6331 N   0  0  0  0  0  0  0  0  0  0  0  0
   15.2591   -9.3118  -13.5516 C   0  0  0  0  0  0  0  0  0  0  0  0
   16.1837   -9.1449  -12.6588 O   0  0  0  0  0  0  0  0  0  0  0  0
   15.1477   -8.2878  -14.5225 N   0  0  0  0  0  0  0  0  0  0  0  0
   15.9725   -7.0770  -14.5009 C   0  0  1  0  0  0  0  0  0  0  0  0
   16.2691   -6.6124  -15.8809 C   0  0  0  0  0  0  0  0  0  0  0  0
   17.0894   -7.5113  -16.7322 C   0  0  0  0  0  0  0  0  0  0  0  0
   17.3062   -7.0746  -18.1371 C   0  0  0  0  0  0  0  0  0  0  0  0
   18.1706   -8.1109  -18.8297 C   0  0  0  0  0  0  0  0  0  0  0  0
   18.5570   -7.6985  -20.1563 N   0  0  0  0  0  0  0  0  0  0  0  0
   15.4291   -6.0693  -13.5813 C   0  0  0  0  0  0  0  0  0  0  0  0
   16.2651   -5.1975  -12.8950 O   0  0  0  0  0  0  0  0  0  0  0  0
   14.1920   -5.9713  -13.3948 O   0  0  0  0  0  0  0  0  0  0  0  0
  2  1  1  0
  3  2  1  0
  4  3  1  0
  4  5  1  0
  5  7  1  0
  5  6  1  6
  7  8  2  0
 10  9  1  0
 11 13  1  0
 11 10  1  0
 11 12  1  6
 13 14  1  1
 14  7  1  0
 15 13  1  0
 16 15  2  0
 17 15  1  0
 18 19  1  6
 18 17  1  0
 19 20  1  0
 20 21  1  0
 21 22  1  0
 23 22  1  0
 24 25  1  0
 24 18  1  0
 26 24  2  0
M  END
$$$$
