WVF.pdb
     RDKit          3D

 33 35  0  0  1  0  0  0  0  0999 V2000
   22.8008  -21.9249  -14.1567 N   0  0  0  0  0  0  0  0  0  0  0  0
   23.4013  -20.7721  -13.4676 C   0  0  1  0  0  0  0  0  0  0  0  0
   22.3116  -20.0540  -12.7307 C   0  0  0  0  0  0  0  0  0  0  0  0
   21.4008  -19.2434  -13.5336 C   0  0  0  0  0  0  0  0  0  0  0  0
   20.0326  -19.4739  -13.5937 C   0  0  0  0  0  0  0  0  0  0  0  0
   19.4948  -18.5751  -14.4414 N   0  0  0  0  0  0  0  0  0  0  0  0
   20.4508  -17.7737  -14.9318 C   0  0  0  0  0  0  0  0  0  0  0  0
   20.3635  -16.7187  -15.8085 C   0  0  0  0  0  0  0  0  0  0  0  0
   21.4951  -16.0156  -16.1644 C   0  0  0  0  0  0  0  0  0  0  0  0
   22.6947  -16.4309  -15.5956 C   0  0  0  0  0  0  0  0  0  0  0  0
   22.7654  -17.4892  -14.7202 C   0  0  0  0  0  0  0  0  0  0  0  0
   21.6454  -18.1849  -14.3690 C   0  0  0  0  0  0  0  0  0  0  0  0
   24.4837  -21.2480  -12.5949 C   0  0  0  0  0  0  0  0  0  0  0  0
   24.3517  -22.3479  -11.9488 O   0  0  0  0  0  0  0  0  0  0  0  0
   28.3175  -21.1620  -13.4780 C   0  0  0  0  0  0  0  0  0  0  0  0
   28.0152  -20.5484  -12.1397 C   0  0  2  0  0  0  0  0  0  0  0  0
   29.1773  -20.8371  -11.2167 C   0  0  0  0  0  0  0  0  0  0  0  0
   26.7014  -21.0146  -11.5387 C   0  0  2  0  0  0  0  0  0  0  0  0
   25.6826  -20.5017  -12.4552 N   0  0  0  0  0  0  0  0  0  0  0  0
   26.4698  -20.5159  -10.1728 C   0  0  0  0  0  0  0  0  0  0  0  0
   25.7705  -19.4522  -10.0321 O   0  0  0  0  0  0  0  0  0  0  0  0
   26.9304  -21.0770   -8.9723 N   0  0  0  0  0  0  0  0  0  0  0  0
   26.9597  -20.3717   -7.7057 C   0  0  1  0  0  0  0  0  0  0  0  0
   27.5560  -21.3579   -6.6929 C   0  0  0  0  0  0  0  0  0  0  0  0
   27.8260  -20.6973   -5.3907 C   0  0  0  0  0  0  0  0  0  0  0  0
   28.9972  -19.9924   -5.1540 C   0  0  0  0  0  0  0  0  0  0  0  0
   29.2514  -19.3792   -3.9464 C   0  0  0  0  0  0  0  0  0  0  0  0
   28.3408  -19.4425   -2.9128 C   0  0  0  0  0  0  0  0  0  0  0  0
   27.1726  -20.1430   -3.1427 C   0  0  0  0  0  0  0  0  0  0  0  0
   26.9125  -20.7631   -4.3598 C   0  0  0  0  0  0  0  0  0  0  0  0
   27.8381  -19.2012   -7.7252 C   0  0  0  0  0  0  0  0  0  0  0  0
   27.5185  -17.9858   -7.1427 O   0  0  0  0  0  0  0  0  0  0  0  0
   28.9535  -19.2880   -8.3011 O   0  0  0  0  0  0  0  0  0  0  0  0
  2  1  1  1
  2  3  1  0
  3  4  1  0
  4  5  2  0
  5  6  1  0
  7  6  1  0
  8  7  2  0
  9  8  1  0
 10 11  1  0
 10  9  2  0
 11 12  2  0
 12  4  1  0
 12  7  1  0
 13  2  1  0
 14 13  2  0
 16 15  1  6
 16 17  1  0
 18 19  1  6
 18 16  1  0
 19 13  1  0
 20 18  1  0
 21 20  2  0
 22 20  1  0
 23 22  1  0
 24 25  1  0
 23 24  1  1
 25 26  2  0
 26 27  1  0
 28 27  2  0
 29 28  1  0
 30 29  2  0
 30 25  1  0
 31 23  1  0
 31 32  1  0
 33 31  2  0
M  END
$$$$
