WVF.pdb
     RDKit          3D

 33 35  0  0  1  0  0  0  0  0999 V2000
   26.2610  -18.6317   -8.5349 N   0  0  0  0  0  0  0  0  0  0  0  0
   26.6004  -19.9357   -9.1254 C   0  0  1  0  0  0  0  0  0  0  0  0
   26.1552  -21.0047   -8.1740 C   0  0  0  0  0  0  0  0  0  0  0  0
   26.6035  -20.8797   -6.7904 C   0  0  0  0  0  0  0  0  0  0  0  0
   25.7811  -21.1335   -5.7005 C   0  0  0  0  0  0  0  0  0  0  0  0
   26.4891  -20.8956   -4.5790 N   0  0  0  0  0  0  0  0  0  0  0  0
   27.7310  -20.5004   -4.8924 C   0  0  0  0  0  0  0  0  0  0  0  0
   28.7895  -20.1674   -4.0812 C   0  0  0  0  0  0  0  0  0  0  0  0
   29.9991  -19.8011   -4.6328 C   0  0  0  0  0  0  0  0  0  0  0  0
   30.0763  -19.7910   -6.0216 C   0  0  0  0  0  0  0  0  0  0  0  0
   29.0075  -20.1265   -6.8195 C   0  0  0  0  0  0  0  0  0  0  0  0
   27.8107  -20.4882   -6.2731 C   0  0  0  0  0  0  0  0  0  0  0  0
   25.9774  -20.0358  -10.4526 C   0  0  0  0  0  0  0  0  0  0  0  0
   24.8258  -19.5123  -10.6631 O   0  0  0  0  0  0  0  0  0  0  0  0
   27.7710  -19.9350  -14.9893 C   0  0  0  0  0  0  0  0  0  0  0  0
   27.7473  -20.4300  -13.5704 C   0  0  2  0  0  0  0  0  0  0  0  0
   28.1429  -21.8892  -13.5746 C   0  0  0  0  0  0  0  0  0  0  0  0
   26.4149  -20.2194  -12.8740 C   0  0  2  0  0  0  0  0  0  0  0  0
   26.6368  -20.7095  -11.5133 N   0  0  0  0  0  0  0  0  0  0  0  0
   25.2988  -20.9391  -13.5098 C   0  0  0  0  0  0  0  0  0  0  0  0
   25.2609  -22.2139  -13.3916 O   0  0  0  0  0  0  0  0  0  0  0  0
   24.2408  -20.3877  -14.2479 N   0  0  0  0  0  0  0  0  0  0  0  0
   23.1997  -21.1718  -14.8835 C   0  0  1  0  0  0  0  0  0  0  0  0
   21.8727  -20.5613  -14.4143 C   0  0  0  0  0  0  0  0  0  0  0  0
   21.4789  -21.0848  -13.0816 C   0  0  0  0  0  0  0  0  0  0  0  0
   20.8134  -22.2931  -12.9349 C   0  0  0  0  0  0  0  0  0  0  0  0
   20.4455  -22.7812  -11.6998 C   0  0  0  0  0  0  0  0  0  0  0  0
   20.7277  -22.0795  -10.5468 C   0  0  0  0  0  0  0  0  0  0  0  0
   21.3904  -20.8755  -10.6867 C   0  0  0  0  0  0  0  0  0  0  0  0
   21.7632  -20.3798  -11.9311 C   0  0  0  0  0  0  0  0  0  0  0  0
   23.2205  -21.0700  -16.3434 C   0  0  0  0  0  0  0  0  0  0  0  0
   22.6032  -21.9761  -17.1897 O   0  0  0  0  0  0  0  0  0  0  0  0
   23.8309  -20.1076  -16.8768 O   0  0  0  0  0  0  0  0  0  0  0  0
  2  1  1  1
  2  3  1  0
  3  4  1  0
  4  5  2  0
  5  6  1  0
  7  6  1  0
  8  7  2  0
  9  8  1  0
 10 11  1  0
 10  9  2  0
 11 12  2  0
 12  4  1  0
 12  7  1  0
 13  2  1  0
 14 13  2  0
 16 15  1  6
 16 17  1  0
 18 19  1  1
 18 16  1  0
 19 13  1  0
 20 18  1  0
 21 20  2  0
 22 20  1  0
 23 22  1  0
 24 25  1  0
 23 24  1  1
 25 26  2  0
 26 27  1  0
 28 27  2  0
 29 28  1  0
 30 29  2  0
 30 25  1  0
 31 23  1  0
 31 32  1  0
 33 31  2  0
M  END
$$$$
