WVF.pdb
     RDKit          3D

 33 35  0  0  1  0  0  0  0  0999 V2000
   17.3562  -27.1123   -7.2110 N   0  0  0  0  0  0  0  0  0  0  0  0
   16.2623  -27.0331   -6.2305 C   0  0  1  0  0  0  0  0  0  0  0  0
   14.9987  -27.4654   -6.9105 C   0  0  0  0  0  0  0  0  0  0  0  0
   14.4594  -26.5658   -7.9260 C   0  0  0  0  0  0  0  0  0  0  0  0
   15.1932  -26.1326   -9.0225 C   0  0  0  0  0  0  0  0  0  0  0  0
   14.4177  -25.2956   -9.7394 N   0  0  0  0  0  0  0  0  0  0  0  0
   13.2167  -25.1676   -9.1581 C   0  0  0  0  0  0  0  0  0  0  0  0
   12.1173  -24.4365   -9.5402 C   0  0  0  0  0  0  0  0  0  0  0  0
   10.9640  -24.4698   -8.7849 C   0  0  0  0  0  0  0  0  0  0  0  0
   10.9849  -25.2675   -7.6455 C   0  0  0  0  0  0  0  0  0  0  0  0
   12.0936  -25.9928   -7.2765 C   0  0  0  0  0  0  0  0  0  0  0  0
   13.2346  -25.9589   -8.0239 C   0  0  0  0  0  0  0  0  0  0  0  0
   16.6086  -27.8532   -5.0612 C   0  0  0  0  0  0  0  0  0  0  0  0
   16.8472  -29.1052   -5.2023 O   0  0  0  0  0  0  0  0  0  0  0  0
   19.4262  -28.3773   -1.5618 C   0  0  0  0  0  0  0  0  0  0  0  0
   18.6789  -28.1083   -2.8378 C   0  0  2  0  0  0  0  0  0  0  0  0
   19.1664  -26.7922   -3.3999 C   0  0  0  0  0  0  0  0  0  0  0  0
   17.1698  -28.1150   -2.6727 C   0  0  2  0  0  0  0  0  0  0  0  0
   16.6828  -27.2749   -3.7674 N   0  0  0  0  0  0  0  0  0  0  0  0
   16.7180  -27.5890   -1.3738 C   0  0  0  0  0  0  0  0  0  0  0  0
   17.0734  -26.4020   -1.0497 O   0  0  0  0  0  0  0  0  0  0  0  0
   15.9228  -28.2430   -0.4207 N   0  0  0  0  0  0  0  0  0  0  0  0
   15.5146  -27.6517    0.8388 C   0  0  1  0  0  0  0  0  0  0  0  0
   14.2584  -28.4188    1.2719 C   0  0  0  0  0  0  0  0  0  0  0  0
   13.1942  -28.3389    0.2393 C   0  0  0  0  0  0  0  0  0  0  0  0
   13.2173  -29.1282   -0.9013 C   0  0  0  0  0  0  0  0  0  0  0  0
   12.2320  -29.0557   -1.8620 C   0  0  0  0  0  0  0  0  0  0  0  0
   11.1712  -28.1852   -1.7261 C   0  0  0  0  0  0  0  0  0  0  0  0
   11.1428  -27.3967   -0.5923 C   0  0  0  0  0  0  0  0  0  0  0  0
   12.1351  -27.4670    0.3792 C   0  0  0  0  0  0  0  0  0  0  0  0
   16.5067  -27.8295    1.9000 C   0  0  0  0  0  0  0  0  0  0  0  0
   16.4172  -27.2362    3.1484 O   0  0  0  0  0  0  0  0  0  0  0  0
   17.5062  -28.5620    1.6809 O   0  0  0  0  0  0  0  0  0  0  0  0
  2  1  1  6
  2  3  1  0
  3  4  1  0
  4  5  2  0
  5  6  1  0
  7  6  1  0
  8  7  2  0
  9  8  1  0
 10 11  1  0
 10  9  2  0
 11 12  2  0
 12  4  1  0
 12  7  1  0
 13  2  1  0
 14 13  2  0
 16 15  1  1
 16 17  1  0
 18 19  1  6
 18 16  1  0
 19 13  1  0
 20 18  1  0
 21 20  2  0
 22 20  1  0
 23 22  1  0
 24 25  1  0
 23 24  1  1
 25 26  2  0
 26 27  1  0
 28 27  2  0
 29 28  1  0
 30 29  2  0
 30 25  1  0
 31 23  1  0
 31 32  1  0
 33 31  2  0
M  END
$$$$
