WVF.pdb
     RDKit          3D

 33 35  0  0  1  0  0  0  0  0999 V2000
   20.0339  -10.7469  -15.4170 N   0  0  0  0  0  0  0  0  0  0  0  0
   21.1909   -9.9125  -15.7766 C   0  0  1  0  0  0  0  0  0  0  0  0
   21.5194   -9.0444  -14.5999 C   0  0  0  0  0  0  0  0  0  0  0  0
   20.5749   -7.9754  -14.2894 C   0  0  0  0  0  0  0  0  0  0  0  0
   19.7234   -8.0102  -13.1929 C   0  0  0  0  0  0  0  0  0  0  0  0
   18.9681   -6.8945  -13.2155 N   0  0  0  0  0  0  0  0  0  0  0  0
   19.2916   -6.1395  -14.2748 C   0  0  0  0  0  0  0  0  0  0  0  0
   18.7970   -4.9245  -14.6851 C   0  0  0  0  0  0  0  0  0  0  0  0
   19.3005   -4.3152  -15.8151 C   0  0  0  0  0  0  0  0  0  0  0  0
   20.3110   -4.9898  -16.4924 C   0  0  0  0  0  0  0  0  0  0  0  0
   20.7947   -6.2056  -16.0690 C   0  0  0  0  0  0  0  0  0  0  0  0
   20.2956   -6.8083  -14.9512 C   0  0  0  0  0  0  0  0  0  0  0  0
   22.2994  -10.7849  -16.1887 C   0  0  0  0  0  0  0  0  0  0  0  0
   22.4773  -11.9150  -15.6093 O   0  0  0  0  0  0  0  0  0  0  0  0
   24.0205  -10.4267  -19.9603 C   0  0  0  0  0  0  0  0  0  0  0  0
   23.9677  -11.6338  -19.0664 C   0  0  2  0  0  0  0  0  0  0  0  0
   22.6178  -12.2912  -19.2431 C   0  0  0  0  0  0  0  0  0  0  0  0
   24.2457  -11.3233  -17.6066 C   0  0  2  0  0  0  0  0  0  0  0  0
   23.1834  -10.3914  -17.2267 N   0  0  0  0  0  0  0  0  0  0  0  0
   25.5702  -10.7234  -17.3749 C   0  0  0  0  0  0  0  0  0  0  0  0
   25.7295   -9.4869  -17.6683 O   0  0  0  0  0  0  0  0  0  0  0  0
   26.7112  -11.3540  -16.8565 N   0  0  0  0  0  0  0  0  0  0  0  0
   27.9889  -10.6941  -16.6702 C   0  0  1  0  0  0  0  0  0  0  0  0
   28.6574  -11.4062  -15.4870 C   0  0  0  0  0  0  0  0  0  0  0  0
   28.8058  -12.8608  -15.7463 C   0  0  0  0  0  0  0  0  0  0  0  0
   27.8276  -13.7748  -15.3827 C   0  0  0  0  0  0  0  0  0  0  0  0
   27.9627  -15.1255  -15.6208 C   0  0  0  0  0  0  0  0  0  0  0  0
   29.0890  -15.6281  -16.2373 C   0  0  0  0  0  0  0  0  0  0  0  0
   30.0665  -14.7226  -16.6018 C   0  0  0  0  0  0  0  0  0  0  0  0
   29.9339  -13.3592  -16.3633 C   0  0  0  0  0  0  0  0  0  0  0  0
   28.8831  -10.8488  -17.8184 C   0  0  0  0  0  0  0  0  0  0  0  0
   29.9925  -10.0514  -18.0464 O   0  0  0  0  0  0  0  0  0  0  0  0
   28.6437  -11.7557  -18.6571 O   0  0  0  0  0  0  0  0  0  0  0  0
  2  1  1  1
  2  3  1  0
  3  4  1  0
  4  5  2  0
  5  6  1  0
  7  6  1  0
  8  7  2  0
  9  8  1  0
 10 11  1  0
 10  9  2  0
 11 12  2  0
 12  4  1  0
 12  7  1  0
 13  2  1  0
 14 13  2  0
 16 15  1  6
 16 17  1  0
 18 19  1  6
 18 16  1  0
 19 13  1  0
 20 18  1  0
 21 20  2  0
 22 20  1  0
 23 22  1  0
 24 25  1  0
 23 24  1  1
 25 26  2  0
 26 27  1  0
 28 27  2  0
 29 28  1  0
 30 29  2  0
 30 25  1  0
 31 23  1  0
 31 32  1  0
 33 31  2  0
M  END
$$$$
