WVF.pdb
     RDKit          3D

 33 35  0  0  1  0  0  0  0  0999 V2000
   23.2467  -22.0924  -13.6595 N   0  0  0  0  0  0  0  0  0  0  0  0
   23.7676  -20.9159  -12.9463 C   0  0  1  0  0  0  0  0  0  0  0  0
   22.5997  -20.1448  -12.4100 C   0  0  0  0  0  0  0  0  0  0  0  0
   21.7078  -19.5371  -13.3930 C   0  0  0  0  0  0  0  0  0  0  0  0
   20.3303  -19.7127  -13.3784 C   0  0  0  0  0  0  0  0  0  0  0  0
   19.8137  -19.0490  -14.4312 N   0  0  0  0  0  0  0  0  0  0  0  0
   20.7925  -18.4519  -15.1257 C   0  0  0  0  0  0  0  0  0  0  0  0
   20.7319  -17.6661  -16.2518 C   0  0  0  0  0  0  0  0  0  0  0  0
   21.8846  -17.1358  -16.7917 C   0  0  0  0  0  0  0  0  0  0  0  0
   23.0769  -17.4386  -16.1422 C   0  0  0  0  0  0  0  0  0  0  0  0
   23.1206  -18.2271  -15.0163 C   0  0  0  0  0  0  0  0  0  0  0  0
   21.9798  -18.7520  -14.4829 C   0  0  0  0  0  0  0  0  0  0  0  0
   24.7022  -21.3640  -11.9044 C   0  0  0  0  0  0  0  0  0  0  0  0
   24.4105  -22.3748  -11.1711 O   0  0  0  0  0  0  0  0  0  0  0  0
   28.6558  -19.6729  -11.4086 C   0  0  0  0  0  0  0  0  0  0  0  0
   28.1746  -21.0582  -11.0795 C   0  0  2  0  0  0  0  0  0  0  0  0
   28.3326  -21.9166  -12.3138 C   0  0  0  0  0  0  0  0  0  0  0  0
   26.7507  -21.0996  -10.5545 C   0  0  2  0  0  0  0  0  0  0  0  0
   25.9326  -20.6884  -11.6959 N   0  0  0  0  0  0  0  0  0  0  0  0
   26.5220  -20.2097   -9.4040 C   0  0  0  0  0  0  0  0  0  0  0  0
   25.4788  -19.4668   -9.4172 O   0  0  0  0  0  0  0  0  0  0  0  0
   27.3251  -20.0714   -8.2621 N   0  0  0  0  0  0  0  0  0  0  0  0
   27.1013  -19.0798   -7.2280 C   0  0  1  0  0  0  0  0  0  0  0  0
   26.6315  -19.8621   -5.9947 C   0  0  0  0  0  0  0  0  0  0  0  0
   27.7813  -20.4243   -5.2417 C   0  0  0  0  0  0  0  0  0  0  0  0
   28.5959  -19.6318   -4.4462 C   0  0  0  0  0  0  0  0  0  0  0  0
   29.6644  -20.1501   -3.7470 C   0  0  0  0  0  0  0  0  0  0  0  0
   29.9700  -21.4932   -3.8111 C   0  0  0  0  0  0  0  0  0  0  0  0
   29.1622  -22.2874   -4.6017 C   0  0  0  0  0  0  0  0  0  0  0  0
   28.0833  -21.7681   -5.3086 C   0  0  0  0  0  0  0  0  0  0  0  0
   28.3235  -18.3733   -6.8417 C   0  0  0  0  0  0  0  0  0  0  0  0
   29.5858  -18.7021   -7.3074 O   0  0  0  0  0  0  0  0  0  0  0  0
   28.2392  -17.4073   -6.0398 O   0  0  0  0  0  0  0  0  0  0  0  0
  2  1  1  1
  2  3  1  0
  3  4  1  0
  4  5  2  0
  5  6  1  0
  7  6  1  0
  8  7  2  0
  9  8  1  0
 10 11  1  0
 10  9  2  0
 11 12  2  0
 12  4  1  0
 12  7  1  0
 13  2  1  0
 14 13  2  0
 16 15  1  6
 16 17  1  0
 18 19  1  6
 18 16  1  0
 19 13  1  0
 20 18  1  0
 21 20  2  0
 22 20  1  0
 23 22  1  0
 24 25  1  0
 23 24  1  1
 25 26  2  0
 26 27  1  0
 28 27  2  0
 29 28  1  0
 30 29  2  0
 30 25  1  0
 31 23  1  0
 31 32  1  0
 33 31  2  0
M  END
$$$$
