WVF.pdb
     RDKit          3D

 33 35  0  0  1  0  0  0  0  0999 V2000
   25.6966  -18.6556   -8.4499 N   0  0  0  0  0  0  0  0  0  0  0  0
   26.5284  -19.7568   -8.9596 C   0  0  1  0  0  0  0  0  0  0  0  0
   26.2347  -20.9767   -8.1400 C   0  0  0  0  0  0  0  0  0  0  0  0
   26.4956  -20.8824   -6.7067 C   0  0  0  0  0  0  0  0  0  0  0  0
   25.5211  -21.1024   -5.7421 C   0  0  0  0  0  0  0  0  0  0  0  0
   26.0800  -20.9064   -4.5318 N   0  0  0  0  0  0  0  0  0  0  0  0
   27.3705  -20.5705   -4.6684 C   0  0  0  0  0  0  0  0  0  0  0  0
   28.3231  -20.2947   -3.7167 C   0  0  0  0  0  0  0  0  0  0  0  0
   29.6127  -19.9847   -4.0939 C   0  0  0  0  0  0  0  0  0  0  0  0
   29.8790  -19.9697   -5.4592 C   0  0  0  0  0  0  0  0  0  0  0  0
   28.9142  -20.2476   -6.3991 C   0  0  0  0  0  0  0  0  0  0  0  0
   27.6382  -20.5536   -6.0252 C   0  0  0  0  0  0  0  0  0  0  0  0
   26.2587  -19.9351  -10.3932 C   0  0  0  0  0  0  0  0  0  0  0  0
   25.1042  -19.6459  -10.8707 O   0  0  0  0  0  0  0  0  0  0  0  0
   28.6203  -20.5118  -14.7070 C   0  0  0  0  0  0  0  0  0  0  0  0
   28.5924  -20.4017  -13.2084 C   0  0  2  0  0  0  0  0  0  0  0  0
   29.0281  -21.7293  -12.6310 C   0  0  0  0  0  0  0  0  0  0  0  0
   27.2460  -19.9718  -12.6542 C   0  0  2  0  0  0  0  0  0  0  0  0
   27.2654  -20.4274  -11.2638 N   0  0  0  0  0  0  0  0  0  0  0  0
   26.1009  -20.5524  -13.3751 C   0  0  0  0  0  0  0  0  0  0  0  0
   25.7865  -21.7682  -13.1237 O   0  0  0  0  0  0  0  0  0  0  0  0
   25.2869  -19.9220  -14.3281 N   0  0  0  0  0  0  0  0  0  0  0  0
   24.1891  -20.5735  -15.0158 C   0  0  1  0  0  0  0  0  0  0  0  0
   22.9843  -19.6366  -14.8595 C   0  0  0  0  0  0  0  0  0  0  0  0
   23.3216  -18.2502  -15.2708 C   0  0  0  0  0  0  0  0  0  0  0  0
   23.9557  -17.3636  -14.4126 C   0  0  0  0  0  0  0  0  0  0  0  0
   24.2690  -16.0760  -14.7907 C   0  0  0  0  0  0  0  0  0  0  0  0
   23.9611  -15.6121  -16.0523 C   0  0  0  0  0  0  0  0  0  0  0  0
   23.3297  -16.4905  -16.9113 C   0  0  0  0  0  0  0  0  0  0  0  0
   23.0119  -17.7904  -16.5334 C   0  0  0  0  0  0  0  0  0  0  0  0
   24.4254  -20.7242  -16.4523 C   0  0  0  0  0  0  0  0  0  0  0  0
   23.5960  -21.4386  -17.3008 O   0  0  0  0  0  0  0  0  0  0  0  0
   25.4379  -20.1779  -16.9621 O   0  0  0  0  0  0  0  0  0  0  0  0
  2  1  1  1
  2  3  1  0
  3  4  1  0
  4  5  2  0
  5  6  1  0
  7  6  1  0
  8  7  2  0
  9  8  1  0
 10 11  1  0
 10  9  2  0
 11 12  2  0
 12  4  1  0
 12  7  1  0
 13  2  1  0
 14 13  2  0
 16 15  1  6
 16 17  1  0
 18 19  1  1
 18 16  1  0
 19 13  1  0
 20 18  1  0
 21 20  2  0
 22 20  1  0
 23 22  1  0
 24 25  1  0
 23 24  1  6
 25 26  2  0
 26 27  1  0
 28 27  2  0
 29 28  1  0
 30 29  2  0
 30 25  1  0
 31 23  1  0
 31 32  1  0
 33 31  2  0
M  END
$$$$
