WVF.pdb
     RDKit          3D

 33 35  0  0  1  0  0  0  0  0999 V2000
   22.8014  -17.8916  -18.5735 N   0  0  0  0  0  0  0  0  0  0  0  0
   23.3192  -17.4694  -17.2628 C   0  0  1  0  0  0  0  0  0  0  0  0
   22.1499  -17.1114  -16.3963 C   0  0  0  0  0  0  0  0  0  0  0  0
   21.2744  -16.0491  -16.8823 C   0  0  0  0  0  0  0  0  0  0  0  0
   19.9607  -16.2691  -17.2753 C   0  0  0  0  0  0  0  0  0  0  0  0
   19.4489  -15.0956  -17.6959 N   0  0  0  0  0  0  0  0  0  0  0  0
   20.3697  -14.1271  -17.5927 C   0  0  0  0  0  0  0  0  0  0  0  0
   20.2883  -12.7875  -17.8897 C   0  0  0  0  0  0  0  0  0  0  0  0
   21.3744  -11.9630  -17.6839 C   0  0  0  0  0  0  0  0  0  0  0  0
   22.5231  -12.5572  -17.1716 C   0  0  0  0  0  0  0  0  0  0  0  0
   22.5885  -13.8997  -16.8801 C   0  0  0  0  0  0  0  0  0  0  0  0
   21.5138  -14.7150  -17.0845 C   0  0  0  0  0  0  0  0  0  0  0  0
   24.1513  -18.5465  -16.7084 C   0  0  0  0  0  0  0  0  0  0  0  0
   23.7408  -19.7608  -16.7480 O   0  0  0  0  0  0  0  0  0  0  0  0
   28.3457  -17.9825  -15.8368 C   0  0  0  0  0  0  0  0  0  0  0  0
   27.5774  -19.1403  -16.4096 C   0  0  2  0  0  0  0  0  0  0  0  0
   27.3928  -18.8958  -17.8901 C   0  0  0  0  0  0  0  0  0  0  0  0
   26.2485  -19.3905  -15.7196 C   0  0  2  0  0  0  0  0  0  0  0  0
   25.4125  -18.2599  -16.1245 N   0  0  0  0  0  0  0  0  0  0  0  0
   26.3518  -19.4610  -14.2525 C   0  0  0  0  0  0  0  0  0  0  0  0
   26.8814  -18.4692  -13.6392 O   0  0  0  0  0  0  0  0  0  0  0  0
   25.9288  -20.5070  -13.4188 N   0  0  0  0  0  0  0  0  0  0  0  0
   26.3326  -20.6547  -12.0340 C   0  0  1  0  0  0  0  0  0  0  0  0
   25.2558  -19.9401  -11.2071 C   0  0  0  0  0  0  0  0  0  0  0  0
   25.5663  -19.9922   -9.7559 C   0  0  0  0  0  0  0  0  0  0  0  0
   26.5510  -19.1979   -9.1869 C   0  0  0  0  0  0  0  0  0  0  0  0
   26.8424  -19.2447   -7.8408 C   0  0  0  0  0  0  0  0  0  0  0  0
   26.1586  -20.0931   -6.9958 C   0  0  0  0  0  0  0  0  0  0  0  0
   25.1768  -20.8866   -7.5568 C   0  0  0  0  0  0  0  0  0  0  0  0
   24.8799  -20.8422   -8.9145 C   0  0  0  0  0  0  0  0  0  0  0  0
   26.3509  -22.0496  -11.5912 C   0  0  0  0  0  0  0  0  0  0  0  0
   27.2598  -22.5583  -10.6782 O   0  0  0  0  0  0  0  0  0  0  0  0
   25.4964  -22.8465  -12.0581 O   0  0  0  0  0  0  0  0  0  0  0  0
  2  1  1  6
  2  3  1  0
  3  4  1  0
  4  5  2  0
  5  6  1  0
  7  6  1  0
  8  7  2  0
  9  8  1  0
 10 11  1  0
 10  9  2  0
 11 12  2  0
 12  4  1  0
 12  7  1  0
 13  2  1  0
 14 13  2  0
 16 15  1  1
 16 17  1  0
 18 19  1  1
 18 16  1  0
 19 13  1  0
 20 18  1  0
 21 20  2  0
 22 20  1  0
 23 22  1  0
 24 25  1  0
 23 24  1  1
 25 26  2  0
 26 27  1  0
 28 27  2  0
 29 28  1  0
 30 29  2  0
 30 25  1  0
 31 23  1  0
 31 32  1  0
 33 31  2  0
M  END
$$$$
