WVF.pdb
     RDKit          3D

 33 35  0  0  1  0  0  0  0  0999 V2000
   26.5848  -17.8829  -20.1257 N   0  0  0  0  0  0  0  0  0  0  0  0
   25.9661  -19.0442  -19.4677 C   0  0  1  0  0  0  0  0  0  0  0  0
   26.3220  -20.2675  -20.2569 C   0  0  0  0  0  0  0  0  0  0  0  0
   25.7300  -20.3858  -21.5862 C   0  0  0  0  0  0  0  0  0  0  0  0
   26.4766  -20.3375  -22.7561 C   0  0  0  0  0  0  0  0  0  0  0  0
   25.6281  -20.4442  -23.7974 N   0  0  0  0  0  0  0  0  0  0  0  0
   24.3678  -20.5598  -23.3557 C   0  0  0  0  0  0  0  0  0  0  0  0
   23.1915  -20.7052  -24.0517 C   0  0  0  0  0  0  0  0  0  0  0  0
   21.9950  -20.8250  -23.3766 C   0  0  0  0  0  0  0  0  0  0  0  0
   22.0542  -20.7902  -21.9872 C   0  0  0  0  0  0  0  0  0  0  0  0
   23.2397  -20.6436  -21.3056 C   0  0  0  0  0  0  0  0  0  0  0  0
   24.4230  -20.5245  -21.9742 C   0  0  0  0  0  0  0  0  0  0  0  0
   26.4164  -19.0971  -18.0698 C   0  0  0  0  0  0  0  0  0  0  0  0
   27.6085  -18.7364  -17.7646 O   0  0  0  0  0  0  0  0  0  0  0  0
   26.5185  -17.5708  -14.0242 C   0  0  0  0  0  0  0  0  0  0  0  0
   26.0580  -17.9329  -15.4083 C   0  0  2  0  0  0  0  0  0  0  0  0
   24.7122  -17.2846  -15.6409 C   0  0  0  0  0  0  0  0  0  0  0  0
   26.0030  -19.4290  -15.6600 C   0  0  2  0  0  0  0  0  0  0  0  0
   25.5440  -19.5459  -17.0444 N   0  0  0  0  0  0  0  0  0  0  0  0
   25.0946  -20.1455  -14.7492 C   0  0  0  0  0  0  0  0  0  0  0  0
   23.8497  -20.1816  -15.0481 O   0  0  0  0  0  0  0  0  0  0  0  0
   25.4318  -20.8142  -13.5629 N   0  0  0  0  0  0  0  0  0  0  0  0
   24.4867  -21.5611  -12.7558 C   0  0  1  0  0  0  0  0  0  0  0  0
   25.3106  -22.1924  -11.6260 C   0  0  0  0  0  0  0  0  0  0  0  0
   25.7026  -21.1798  -10.6129 C   0  0  0  0  0  0  0  0  0  0  0  0
   26.4953  -20.0880  -10.9349 C   0  0  0  0  0  0  0  0  0  0  0  0
   26.8618  -19.1472   -9.9970 C   0  0  0  0  0  0  0  0  0  0  0  0
   26.4501  -19.2550   -8.6854 C   0  0  0  0  0  0  0  0  0  0  0  0
   25.6603  -20.3403   -8.3588 C   0  0  0  0  0  0  0  0  0  0  0  0
   25.2885  -21.2916   -9.3023 C   0  0  0  0  0  0  0  0  0  0  0  0
   23.4803  -20.7087  -12.1213 C   0  0  0  0  0  0  0  0  0  0  0  0
   23.5584  -19.3267  -12.0724 O   0  0  0  0  0  0  0  0  0  0  0  0
   22.4785  -21.2482  -11.5840 O   0  0  0  0  0  0  0  0  0  0  0  0
  2  1  1  6
  2  3  1  0
  3  4  1  0
  4  5  2  0
  5  6  1  0
  7  6  1  0
  8  7  2  0
  9  8  1  0
 10 11  1  0
 10  9  2  0
 11 12  2  0
 12  4  1  0
 12  7  1  0
 13  2  1  0
 14 13  2  0
 16 15  1  1
 16 17  1  0
 18 19  1  6
 18 16  1  0
 19 13  1  0
 20 18  1  0
 21 20  2  0
 22 20  1  0
 23 22  1  0
 24 25  1  0
 23 24  1  1
 25 26  2  0
 26 27  1  0
 28 27  2  0
 29 28  1  0
 30 29  2  0
 30 25  1  0
 31 23  1  0
 31 32  1  0
 33 31  2  0
M  END
$$$$
