WVF.pdb
     RDKit          3D

 33 35  0  0  1  0  0  0  0  0999 V2000
   23.6958  -20.0018  -15.3821 N   0  0  0  0  0  0  0  0  0  0  0  0
   24.5982  -19.3866  -14.3965 C   0  0  1  0  0  0  0  0  0  0  0  0
   23.8106  -18.3821  -13.6112 C   0  0  0  0  0  0  0  0  0  0  0  0
   23.5017  -17.1222  -14.2808 C   0  0  0  0  0  0  0  0  0  0  0  0
   22.2086  -16.7317  -14.6034 C   0  0  0  0  0  0  0  0  0  0  0  0
   22.2769  -15.5439  -15.2361 N   0  0  0  0  0  0  0  0  0  0  0  0
   23.5534  -15.1477  -15.3373 C   0  0  0  0  0  0  0  0  0  0  0  0
   24.0898  -14.0081  -15.8877 C   0  0  0  0  0  0  0  0  0  0  0  0
   25.4527  -13.7996  -15.8629 C   0  0  0  0  0  0  0  0  0  0  0  0
   26.2262  -14.7877  -15.2626 C   0  0  0  0  0  0  0  0  0  0  0  0
   25.6740  -15.9229  -14.7167 C   0  0  0  0  0  0  0  0  0  0  0  0
   24.3254  -16.1289  -14.7422 C   0  0  0  0  0  0  0  0  0  0  0  0
   25.1916  -20.4444  -13.5666 C   0  0  0  0  0  0  0  0  0  0  0  0
   24.5353  -21.5206  -13.3311 O   0  0  0  0  0  0  0  0  0  0  0  0
   29.3781  -20.3762  -12.9438 C   0  0  0  0  0  0  0  0  0  0  0  0
   28.4737  -21.5424  -13.2287 C   0  0  2  0  0  0  0  0  0  0  0  0
   28.2633  -21.6201  -14.7238 C   0  0  0  0  0  0  0  0  0  0  0  0
   27.1513  -21.4833  -12.4855 C   0  0  2  0  0  0  0  0  0  0  0  0
   26.4909  -20.2906  -13.0171 N   0  0  0  0  0  0  0  0  0  0  0  0
   27.3019  -21.3858  -11.0241 C   0  0  0  0  0  0  0  0  0  0  0  0
   28.4541  -21.6303  -10.5212 O   0  0  0  0  0  0  0  0  0  0  0  0
   26.3139  -21.0471  -10.0874 N   0  0  0  0  0  0  0  0  0  0  0  0
   26.5278  -21.0288   -8.6533 C   0  0  1  0  0  0  0  0  0  0  0  0
   27.6548  -20.0161   -8.4125 C   0  0  0  0  0  0  0  0  0  0  0  0
   27.9519  -19.8731   -6.9647 C   0  0  0  0  0  0  0  0  0  0  0  0
   29.1831  -20.2233   -6.4299 C   0  0  0  0  0  0  0  0  0  0  0  0
   29.4617  -20.0930   -5.0865 C   0  0  0  0  0  0  0  0  0  0  0  0
   28.5165  -19.6033   -4.2101 C   0  0  0  0  0  0  0  0  0  0  0  0
   27.2885  -19.2528   -4.7369 C   0  0  0  0  0  0  0  0  0  0  0  0
   27.0037  -19.3828   -6.0917 C   0  0  0  0  0  0  0  0  0  0  0  0
   25.3618  -20.5505   -7.9092 C   0  0  0  0  0  0  0  0  0  0  0  0
   24.4202  -19.6765   -8.4270 O   0  0  0  0  0  0  0  0  0  0  0  0
   25.1902  -20.9478   -6.7276 O   0  0  0  0  0  0  0  0  0  0  0  0
  2  1  1  6
  2  3  1  0
  3  4  1  0
  4  5  2  0
  5  6  1  0
  7  6  1  0
  8  7  2  0
  9  8  1  0
 10 11  1  0
 10  9  2  0
 11 12  2  0
 12  4  1  0
 12  7  1  0
 13  2  1  0
 14 13  2  0
 16 15  1  6
 16 17  1  0
 18 19  1  6
 18 16  1  0
 19 13  1  0
 20 18  1  0
 21 20  2  0
 22 20  1  0
 23 22  1  0
 24 25  1  0
 23 24  1  6
 25 26  2  0
 26 27  1  0
 28 27  2  0
 29 28  1  0
 30 29  2  0
 30 25  1  0
 31 23  1  0
 31 32  1  0
 33 31  2  0
M  END
$$$$
