WVF.pdb
     RDKit          3D

 33 35  0  0  1  0  0  0  0  0999 V2000
   28.4221  -21.3027  -10.6052 N   0  0  0  0  0  0  0  0  0  0  0  0
   27.0630  -21.1585  -10.0610 C   0  0  1  0  0  0  0  0  0  0  0  0
   27.1174  -20.1708   -8.9351 C   0  0  0  0  0  0  0  0  0  0  0  0
   28.2324  -20.3008   -8.0018 C   0  0  0  0  0  0  0  0  0  0  0  0
   29.5546  -20.4152   -8.4107 C   0  0  0  0  0  0  0  0  0  0  0  0
   30.3216  -20.5487   -7.3109 N   0  0  0  0  0  0  0  0  0  0  0  0
   29.5574  -20.5255   -6.2098 C   0  0  0  0  0  0  0  0  0  0  0  0
   29.9064  -20.6140   -4.8833 C   0  0  0  0  0  0  0  0  0  0  0  0
   28.9375  -20.5481   -3.9042 C   0  0  0  0  0  0  0  0  0  0  0  0
   27.6237  -20.3910   -4.3333 C   0  0  0  0  0  0  0  0  0  0  0  0
   27.2909  -20.3046   -5.6650 C   0  0  0  0  0  0  0  0  0  0  0  0
   28.2500  -20.3705   -6.6332 C   0  0  0  0  0  0  0  0  0  0  0  0
   26.1539  -20.7615  -11.1453 C   0  0  0  0  0  0  0  0  0  0  0  0
   26.2555  -19.5983  -11.6755 O   0  0  0  0  0  0  0  0  0  0  0  0
   24.0541  -23.6921  -13.2760 C   0  0  0  0  0  0  0  0  0  0  0  0
   24.5281  -22.3560  -13.7751 C   0  0  2  0  0  0  0  0  0  0  0  0
   25.9717  -22.4982  -14.2010 C   0  0  0  0  0  0  0  0  0  0  0  0
   24.3558  -21.2334  -12.7677 C   0  0  2  0  0  0  0  0  0  0  0  0
   25.1567  -21.6538  -11.6176 N   0  0  0  0  0  0  0  0  0  0  0  0
   22.9556  -21.0087  -12.3714 C   0  0  0  0  0  0  0  0  0  0  0  0
   22.4909  -21.6926  -11.3932 O   0  0  0  0  0  0  0  0  0  0  0  0
   22.0417  -20.1126  -12.9458 N   0  0  0  0  0  0  0  0  0  0  0  0
   20.6521  -20.0034  -12.5462 C   0  0  1  0  0  0  0  0  0  0  0  0
   20.3322  -18.5029  -12.5556 C   0  0  0  0  0  0  0  0  0  0  0  0
   18.8956  -18.2554  -12.2730 C   0  0  0  0  0  0  0  0  0  0  0  0
   18.3723  -18.3512  -10.9918 C   0  0  0  0  0  0  0  0  0  0  0  0
   17.0394  -18.1234  -10.7263 C   0  0  0  0  0  0  0  0  0  0  0  0
   16.1622  -17.7869  -11.7358 C   0  0  0  0  0  0  0  0  0  0  0  0
   16.6776  -17.6900  -13.0137 C   0  0  0  0  0  0  0  0  0  0  0  0
   18.0219  -17.9191  -13.2855 C   0  0  0  0  0  0  0  0  0  0  0  0
   19.7350  -20.6383  -13.4937 C   0  0  0  0  0  0  0  0  0  0  0  0
   18.5429  -21.2418  -13.1285 O   0  0  0  0  0  0  0  0  0  0  0  0
   20.0325  -20.6443  -14.7163 O   0  0  0  0  0  0  0  0  0  0  0  0
  2  1  1  6
  2  3  1  0
  3  4  1  0
  4  5  2  0
  5  6  1  0
  7  6  1  0
  8  7  2  0
  9  8  1  0
 10 11  1  0
 10  9  2  0
 11 12  2  0
 12  4  1  0
 12  7  1  0
 13  2  1  0
 14 13  2  0
 16 15  1  1
 16 17  1  0
 18 19  1  1
 18 16  1  0
 19 13  1  0
 20 18  1  0
 21 20  2  0
 22 20  1  0
 23 22  1  0
 24 25  1  0
 23 24  1  6
 25 26  2  0
 26 27  1  0
 28 27  2  0
 29 28  1  0
 30 29  2  0
 30 25  1  0
 31 23  1  0
 31 32  1  0
 33 31  2  0
M  END
$$$$
