WYL.pdb
     RDKit          3D

 35 37  0  0  1  0  0  0  0  0999 V2000
   28.1971  -21.8770  -10.5402 N   0  0  0  0  0  0  0  0  0  0  0  0
   26.9925  -21.1967  -10.1707 C   0  0  1  0  0  0  0  0  0  0  0  0
   27.2168  -19.9831   -9.3296 C   0  0  0  0  0  0  0  0  0  0  0  0
   28.2060  -20.1748   -8.2588 C   0  0  0  0  0  0  0  0  0  0  0  0
   29.5177  -20.5676   -8.4333 C   0  0  0  0  0  0  0  0  0  0  0  0
   30.1273  -20.6383   -7.2224 N   0  0  0  0  0  0  0  0  0  0  0  0
   29.2551  -20.3035   -6.2576 C   0  0  0  0  0  0  0  0  0  0  0  0
   29.3691  -20.2173   -4.8864 C   0  0  0  0  0  0  0  0  0  0  0  0
   28.2517  -19.8339   -4.1771 C   0  0  0  0  0  0  0  0  0  0  0  0
   27.0542  -19.5446   -4.8185 C   0  0  0  0  0  0  0  0  0  0  0  0
   26.9521  -19.6329   -6.1725 C   0  0  0  0  0  0  0  0  0  0  0  0
   28.0510  -20.0130   -6.9056 C   0  0  0  0  0  0  0  0  0  0  0  0
   26.3156  -20.7361  -11.4391 C   0  0  0  0  0  0  0  0  0  0  0  0
   26.6532  -19.6228  -11.9066 O   0  0  0  0  0  0  0  0  0  0  0  0
   22.5485  -21.1123  -19.4040 O   0  0  0  0  0  0  0  0  0  0  0  0
   23.1415  -21.4146  -18.1660 C   0  0  0  0  0  0  0  0  0  0  0  0
   24.2392  -20.7156  -17.7159 C   0  0  0  0  0  0  0  0  0  0  0  0
   24.8223  -21.0136  -16.4973 C   0  0  0  0  0  0  0  0  0  0  0  0
   24.3366  -22.0164  -15.6818 C   0  0  0  0  0  0  0  0  0  0  0  0
   24.9633  -22.3323  -14.3759 C   0  0  0  0  0  0  0  0  0  0  0  0
   24.7209  -21.2847  -13.3493 C   0  0  2  0  0  0  0  0  0  0  0  0
   25.3391  -21.5153  -12.0862 N   0  0  0  0  0  0  0  0  0  0  0  0
   23.2592  -20.9430  -13.1755 C   0  0  0  0  0  0  0  0  0  0  0  0
   22.5311  -20.5404  -14.1107 O   0  0  0  0  0  0  0  0  0  0  0  0
   23.2381  -22.7100  -16.1413 C   0  0  0  0  0  0  0  0  0  0  0  0
   22.6449  -22.4189  -17.3632 C   0  0  0  0  0  0  0  0  0  0  0  0
   19.6697  -23.2830  -12.2235 C   0  0  0  0  0  0  0  0  0  0  0  0
   20.5759  -23.0249  -10.9999 C   0  0  2  0  0  0  0  0  0  0  0  0
   20.0195  -23.8266   -9.8304 C   0  0  0  0  0  0  0  0  0  0  0  0
   20.6167  -21.5806  -10.6649 C   0  0  0  0  0  0  0  0  0  0  0  0
   21.2095  -20.7743  -11.7833 C   0  0  2  0  0  0  0  0  0  0  0  0
   22.6478  -21.0741  -11.8991 N   0  0  0  0  0  0  0  0  0  0  0  0
   21.1044  -19.3231  -11.5110 C   0  0  0  0  0  0  0  0  0  0  0  0
   22.1023  -18.5734  -11.3621 O   0  0  0  0  0  0  0  0  0  0  0  0
   19.8278  -18.7583  -11.4148 O   0  0  0  0  0  0  0  0  0  0  0  0
  2  1  1  6
  3  2  1  0
  4  5  2  0
  4  3  1  0
  6  5  1  0
  7 12  2  0
  7  6  1  0
  8  7  1  0
  9 10  1  0
  9  8  2  0
 10 11  2  0
 11 12  1  0
 12  4  1  0
 13  2  1  0
 14 13  2  0
 16 17  2  0
 16 15  1  0
 18 17  1  0
 19 18  2  0
 21 20  1  6
 20 19  1  0
 21 22  1  0
 22 13  1  0
 23 24  2  0
 23 21  1  0
 25 19  1  0
 25 26  2  0
 26 16  1  0
 28 27  1  6
 28 30  1  0
 29 28  1  0
 31 30  1  1
 31 32  1  0
 32 23  1  0
 33 35  1  0
 33 31  1  0
 34 33  2  0
M  END
$$$$
