WYL.pdb
     RDKit          3D

 35 37  0  0  1  0  0  0  0  0999 V2000
   27.8849  -21.8717  -14.4185 N   0  0  0  0  0  0  0  0  0  0  0  0
   26.7621  -21.4928  -13.6147 C   0  0  1  0  0  0  0  0  0  0  0  0
   27.0066  -20.2914  -12.7618 C   0  0  0  0  0  0  0  0  0  0  0  0
   27.9269  -20.5338  -11.6410 C   0  0  0  0  0  0  0  0  0  0  0  0
   29.2865  -20.7477  -11.7455 C   0  0  0  0  0  0  0  0  0  0  0  0
   29.8056  -20.9346  -10.5051 N   0  0  0  0  0  0  0  0  0  0  0  0
   28.8274  -20.8498   -9.5889 C   0  0  0  0  0  0  0  0  0  0  0  0
   28.8245  -20.9619   -8.2148 C   0  0  0  0  0  0  0  0  0  0  0  0
   27.6173  -20.8174   -7.5664 C   0  0  0  0  0  0  0  0  0  0  0  0
   26.4459  -20.5679   -8.2698 C   0  0  0  0  0  0  0  0  0  0  0  0
   26.4596  -20.4590   -9.6261 C   0  0  0  0  0  0  0  0  0  0  0  0
   27.6499  -20.5987  -10.2991 C   0  0  0  0  0  0  0  0  0  0  0  0
   25.6239  -21.1496  -14.5453 C   0  0  0  0  0  0  0  0  0  0  0  0
   25.8769  -20.4080  -15.5240 O   0  0  0  0  0  0  0  0  0  0  0  0
   26.1541  -23.5010  -20.4554 O   0  0  0  0  0  0  0  0  0  0  0  0
   25.3171  -23.2812  -19.3478 C   0  0  0  0  0  0  0  0  0  0  0  0
   24.2176  -22.4575  -19.4420 C   0  0  0  0  0  0  0  0  0  0  0  0
   23.3942  -22.2418  -18.3515 C   0  0  0  0  0  0  0  0  0  0  0  0
   23.6328  -22.8359  -17.1283 C   0  0  0  0  0  0  0  0  0  0  0  0
   22.7476  -22.6033  -15.9619 C   0  0  0  0  0  0  0  0  0  0  0  0
   23.1635  -21.4336  -15.1440 C   0  0  2  0  0  0  0  0  0  0  0  0
   24.3201  -21.6355  -14.3365 N   0  0  0  0  0  0  0  0  0  0  0  0
   22.0374  -20.8424  -14.3279 C   0  0  0  0  0  0  0  0  0  0  0  0
   21.6514  -21.3234  -13.2386 O   0  0  0  0  0  0  0  0  0  0  0  0
   24.7354  -23.6582  -17.0442 C   0  0  0  0  0  0  0  0  0  0  0  0
   25.5687  -23.8818  -18.1330 C   0  0  0  0  0  0  0  0  0  0  0  0
   18.1942  -15.9978  -14.4124 C   0  0  0  0  0  0  0  0  0  0  0  0
   18.9037  -17.1039  -13.6013 C   0  0  2  0  0  0  0  0  0  0  0  0
   19.4237  -16.4774  -12.3141 C   0  0  0  0  0  0  0  0  0  0  0  0
   20.0206  -17.6969  -14.3765 C   0  0  0  0  0  0  0  0  0  0  0  0
   20.3102  -19.1017  -13.9347 C   0  0  2  0  0  0  0  0  0  0  0  0
   21.3607  -19.6813  -14.7905 N   0  0  0  0  0  0  0  0  0  0  0  0
   19.1193  -19.9673  -14.0883 C   0  0  0  0  0  0  0  0  0  0  0  0
   18.7510  -20.4477  -15.1900 O   0  0  0  0  0  0  0  0  0  0  0  0
   18.3660  -20.2655  -12.9475 O   0  0  0  0  0  0  0  0  0  0  0  0
  2  1  1  6
  3  2  1  0
  4  5  2  0
  4  3  1  0
  6  5  1  0
  7 12  2  0
  7  6  1  0
  8  7  1  0
  9 10  1  0
  9  8  2  0
 10 11  2  0
 11 12  1  0
 12  4  1  0
 13  2  1  0
 14 13  2  0
 16 17  2  0
 16 15  1  0
 18 17  1  0
 19 18  2  0
 21 20  1  1
 20 19  1  0
 21 22  1  0
 22 13  1  0
 23 24  2  0
 23 21  1  0
 25 19  1  0
 25 26  2  0
 26 16  1  0
 28 27  1  6
 28 30  1  0
 29 28  1  0
 31 30  1  6
 31 32  1  0
 32 23  1  0
 33 35  1  0
 33 31  1  0
 34 33  2  0
M  END
$$$$
