WYL.pdb
     RDKit          3D

 35 37  0  0  1  0  0  0  0  0999 V2000
   27.8213  -19.5514  -13.1179 N   0  0  0  0  0  0  0  0  0  0  0  0
   27.6432  -20.9701  -13.1944 C   0  0  1  0  0  0  0  0  0  0  0  0
   26.5457  -21.4897  -12.3249 C   0  0  0  0  0  0  0  0  0  0  0  0
   26.6348  -21.0483  -10.9252 C   0  0  0  0  0  0  0  0  0  0  0  0
   25.6229  -20.4492  -10.2025 C   0  0  0  0  0  0  0  0  0  0  0  0
   26.0683  -20.1814   -8.9484 N   0  0  0  0  0  0  0  0  0  0  0  0
   27.3427  -20.5870   -8.8257 C   0  0  0  0  0  0  0  0  0  0  0  0
   28.2373  -20.5467   -7.7775 C   0  0  0  0  0  0  0  0  0  0  0  0
   29.4967  -21.0620   -7.9946 C   0  0  0  0  0  0  0  0  0  0  0  0
   29.8530  -21.6024   -9.2236 C   0  0  0  0  0  0  0  0  0  0  0  0
   28.9625  -21.6372  -10.2518 C   0  0  0  0  0  0  0  0  0  0  0  0
   27.6989  -21.1302  -10.0635 C   0  0  0  0  0  0  0  0  0  0  0  0
   27.2782  -21.3127  -14.6187 C   0  0  0  0  0  0  0  0  0  0  0  0
   27.2166  -20.3719  -15.4451 O   0  0  0  0  0  0  0  0  0  0  0  0
   32.9186  -24.1361  -17.4505 O   0  0  0  0  0  0  0  0  0  0  0  0
   31.5266  -24.2040  -17.2677 C   0  0  0  0  0  0  0  0  0  0  0  0
   30.9847  -24.8576  -16.1835 C   0  0  0  0  0  0  0  0  0  0  0  0
   29.6146  -24.9240  -16.0041 C   0  0  0  0  0  0  0  0  0  0  0  0
   28.7333  -24.3440  -16.8947 C   0  0  0  0  0  0  0  0  0  0  0  0
   27.2655  -24.4162  -16.6987 C   0  0  0  0  0  0  0  0  0  0  0  0
   26.6674  -23.1090  -16.3196 C   0  0  2  0  0  0  0  0  0  0  0  0
   27.0135  -22.6346  -15.0212 N   0  0  0  0  0  0  0  0  0  0  0  0
   25.1721  -23.0506  -16.5299 C   0  0  0  0  0  0  0  0  0  0  0  0
   24.6212  -23.3029  -17.6252 O   0  0  0  0  0  0  0  0  0  0  0  0
   29.2853  -23.6926  -17.9762 C   0  0  0  0  0  0  0  0  0  0  0  0
   30.6596  -23.6199  -18.1659 C   0  0  0  0  0  0  0  0  0  0  0  0
   20.2578  -21.6179  -14.4585 C   0  0  0  0  0  0  0  0  0  0  0  0
   20.7140  -23.0928  -14.4945 C   0  0  2  0  0  0  0  0  0  0  0  0
   20.0468  -23.8158  -13.3317 C   0  0  0  0  0  0  0  0  0  0  0  0
   22.1900  -23.1946  -14.3891 C   0  0  0  0  0  0  0  0  0  0  0  0
   22.8617  -22.7713  -15.6628 C   0  0  2  0  0  0  0  0  0  0  0  0
   24.3181  -22.6952  -15.4508 N   0  0  0  0  0  0  0  0  0  0  0  0
   22.4265  -21.4173  -16.0729 C   0  0  0  0  0  0  0  0  0  0  0  0
   22.8919  -20.3609  -15.5754 O   0  0  0  0  0  0  0  0  0  0  0  0
   21.4465  -21.3093  -17.0659 O   0  0  0  0  0  0  0  0  0  0  0  0
  2  1  1  6
  3  2  1  0
  4  5  2  0
  4  3  1  0
  6  5  1  0
  7 12  2  0
  7  6  1  0
  8  7  1  0
  9 10  1  0
  9  8  2  0
 10 11  2  0
 11 12  1  0
 12  4  1  0
 13  2  1  0
 14 13  2  0
 16 17  2  0
 16 15  1  0
 18 17  1  0
 19 18  2  0
 21 20  1  1
 20 19  1  0
 21 22  1  0
 22 13  1  0
 23 24  2  0
 23 21  1  0
 25 19  1  0
 25 26  2  0
 26 16  1  0
 28 27  1  1
 28 30  1  0
 29 28  1  0
 31 30  1  1
 31 32  1  0
 32 23  1  0
 33 35  1  0
 33 31  1  0
 34 33  2  0
M  END
$$$$
