WYL.pdb
     RDKit          3D

 35 37  0  0  1  0  0  0  0  0999 V2000
   27.7236  -21.5110  -14.1557 N   0  0  0  0  0  0  0  0  0  0  0  0
   28.0993  -21.4481  -12.7755 C   0  0  1  0  0  0  0  0  0  0  0  0
   29.3709  -20.7049  -12.5279 C   0  0  0  0  0  0  0  0  0  0  0  0
   30.5624  -21.5646  -12.4721 C   0  0  0  0  0  0  0  0  0  0  0  0
   31.1935  -22.1396  -13.5566 C   0  0  0  0  0  0  0  0  0  0  0  0
   32.2555  -22.8651  -13.1220 N   0  0  0  0  0  0  0  0  0  0  0  0
   32.3408  -22.7835  -11.7842 C   0  0  0  0  0  0  0  0  0  0  0  0
   33.2206  -23.3248  -10.8711 C   0  0  0  0  0  0  0  0  0  0  0  0
   33.0167  -23.0334   -9.5399 C   0  0  0  0  0  0  0  0  0  0  0  0
   31.9640  -22.2244   -9.1316 C   0  0  0  0  0  0  0  0  0  0  0  0
   31.1011  -21.6952  -10.0408 C   0  0  0  0  0  0  0  0  0  0  0  0
   31.2806  -21.9691  -11.3758 C   0  0  0  0  0  0  0  0  0  0  0  0
   27.0077  -20.7152  -12.0335 C   0  0  0  0  0  0  0  0  0  0  0  0
   26.6274  -19.6146  -12.4980 O   0  0  0  0  0  0  0  0  0  0  0  0
   21.4332  -19.0958  -14.8670 O   0  0  0  0  0  0  0  0  0  0  0  0
   22.0772  -19.6183  -13.7321 C   0  0  0  0  0  0  0  0  0  0  0  0
   21.9824  -18.9897  -12.5105 C   0  0  0  0  0  0  0  0  0  0  0  0
   22.6163  -19.5046  -11.3939 C   0  0  0  0  0  0  0  0  0  0  0  0
   23.3672  -20.6619  -11.4499 C   0  0  0  0  0  0  0  0  0  0  0  0
   24.0443  -21.2115  -10.2510 C   0  0  0  0  0  0  0  0  0  0  0  0
   25.4083  -20.6552  -10.0508 C   0  0  2  0  0  0  0  0  0  0  0  0
   26.4272  -21.2341  -10.8617 N   0  0  0  0  0  0  0  0  0  0  0  0
   25.8339  -20.6189   -8.6013 C   0  0  0  0  0  0  0  0  0  0  0  0
   25.1183  -20.1533   -7.6858 O   0  0  0  0  0  0  0  0  0  0  0  0
   23.4559  -21.2833  -12.6767 C   0  0  0  0  0  0  0  0  0  0  0  0
   22.8234  -20.7749  -13.8042 C   0  0  0  0  0  0  0  0  0  0  0  0
   29.2098  -18.1225   -4.9864 C   0  0  0  0  0  0  0  0  0  0  0  0
   28.5744  -19.5169   -5.1784 C   0  0  2  0  0  0  0  0  0  0  0  0
   29.5122  -20.5456   -4.5601 C   0  0  0  0  0  0  0  0  0  0  0  0
   28.3608  -19.8094   -6.6167 C   0  0  0  0  0  0  0  0  0  0  0  0
   27.5029  -21.0260   -6.8078 C   0  0  2  0  0  0  0  0  0  0  0  0
   27.1045  -21.1313   -8.2227 N   0  0  0  0  0  0  0  0  0  0  0  0
   26.2501  -20.9257   -6.0258 C   0  0  0  0  0  0  0  0  0  0  0  0
   25.1778  -20.4661   -6.4937 O   0  0  0  0  0  0  0  0  0  0  0  0
   26.2617  -21.3658   -4.6976 O   0  0  0  0  0  0  0  0  0  0  0  0
  2  1  1  6
  3  2  1  0
  4  5  2  0
  4  3  1  0
  6  5  1  0
  7 12  2  0
  7  6  1  0
  8  7  1  0
  9 10  1  0
  9  8  2  0
 10 11  2  0
 11 12  1  0
 12  4  1  0
 13  2  1  0
 14 13  2  0
 16 17  2  0
 16 15  1  0
 18 17  1  0
 19 18  2  0
 21 20  1  1
 20 19  1  0
 21 22  1  0
 22 13  1  0
 23 24  2  0
 23 21  1  0
 25 19  1  0
 25 26  2  0
 26 16  1  0
 28 27  1  6
 28 30  1  0
 29 28  1  0
 31 30  1  6
 31 32  1  0
 32 23  1  0
 33 35  1  0
 33 31  1  0
 34 33  2  0
M  END
$$$$
