WYL.pdb
     RDKit          3D

 35 37  0  0  1  0  0  0  0  0999 V2000
   25.6502  -20.3187  -17.9552 N   0  0  0  0  0  0  0  0  0  0  0  0
   24.4682  -19.6996  -17.4356 C   0  0  1  0  0  0  0  0  0  0  0  0
   23.3080  -19.7266  -18.3758 C   0  0  0  0  0  0  0  0  0  0  0  0
   23.3974  -18.7385  -19.4610 C   0  0  0  0  0  0  0  0  0  0  0  0
   24.0645  -18.9120  -20.6568 C   0  0  0  0  0  0  0  0  0  0  0  0
   23.9305  -17.7902  -21.4095 N   0  0  0  0  0  0  0  0  0  0  0  0
   23.1949  -16.8851  -20.7437 C   0  0  0  0  0  0  0  0  0  0  0  0
   22.7760  -15.6100  -21.0590 C   0  0  0  0  0  0  0  0  0  0  0  0
   22.0146  -14.9405  -20.1259 C   0  0  0  0  0  0  0  0  0  0  0  0
   21.6809  -15.5274  -18.9121 C   0  0  0  0  0  0  0  0  0  0  0  0
   22.0995  -16.7864  -18.6105 C   0  0  0  0  0  0  0  0  0  0  0  0
   22.8604  -17.4778  -19.5228 C   0  0  0  0  0  0  0  0  0  0  0  0
   24.0535  -20.4620  -16.2003 C   0  0  0  0  0  0  0  0  0  0  0  0
   24.2380  -21.7021  -16.1935 O   0  0  0  0  0  0  0  0  0  0  0  0
   29.4994  -21.1402  -13.3510 O   0  0  0  0  0  0  0  0  0  0  0  0
   28.1352  -20.8437  -13.1867 C   0  0  0  0  0  0  0  0  0  0  0  0
   27.2812  -21.7427  -12.5878 C   0  0  0  0  0  0  0  0  0  0  0  0
   25.9387  -21.4502  -12.4263 C   0  0  0  0  0  0  0  0  0  0  0  0
   25.3959  -20.2548  -12.8537 C   0  0  0  0  0  0  0  0  0  0  0  0
   23.9569  -19.9442  -12.6780 C   0  0  0  0  0  0  0  0  0  0  0  0
   23.1251  -20.3851  -13.8286 C   0  0  2  0  0  0  0  0  0  0  0  0
   23.4791  -19.8200  -15.0879 N   0  0  0  0  0  0  0  0  0  0  0  0
   21.6404  -20.2521  -13.5805 C   0  0  0  0  0  0  0  0  0  0  0  0
   21.1306  -19.2948  -12.9553 O   0  0  0  0  0  0  0  0  0  0  0  0
   26.2586  -19.3621  -13.4518 C   0  0  0  0  0  0  0  0  0  0  0  0
   27.6083  -19.6457  -13.6188 C   0  0  0  0  0  0  0  0  0  0  0  0
   18.2413  -19.4984  -16.1970 C   0  0  0  0  0  0  0  0  0  0  0  0
   18.7912  -20.9401  -16.2584 C   0  0  2  0  0  0  0  0  0  0  0  0
   18.1059  -21.6516  -17.4177 C   0  0  0  0  0  0  0  0  0  0  0  0
   18.5373  -21.6596  -14.9865 C   0  0  0  0  0  0  0  0  0  0  0  0
   19.3043  -21.0510  -13.8490 C   0  0  2  0  0  0  0  0  0  0  0  0
   20.7486  -21.2457  -14.0678 N   0  0  0  0  0  0  0  0  0  0  0  0
   18.9808  -21.7180  -12.5678 C   0  0  0  0  0  0  0  0  0  0  0  0
   19.6475  -22.6747  -12.0985 O   0  0  0  0  0  0  0  0  0  0  0  0
   17.8757  -21.2584  -11.8427 O   0  0  0  0  0  0  0  0  0  0  0  0
  2  1  1  6
  3  2  1  0
  4  5  2  0
  4  3  1  0
  6  5  1  0
  7 12  2  0
  7  6  1  0
  8  7  1  0
  9 10  1  0
  9  8  2  0
 10 11  2  0
 11 12  1  0
 12  4  1  0
 13  2  1  0
 14 13  2  0
 16 17  2  0
 16 15  1  0
 18 17  1  0
 19 18  2  0
 21 20  1  1
 20 19  1  0
 21 22  1  0
 22 13  1  0
 23 24  2  0
 23 21  1  0
 25 19  1  0
 25 26  2  0
 26 16  1  0
 28 27  1  1
 28 30  1  0
 29 28  1  0
 31 30  1  6
 31 32  1  0
 32 23  1  0
 33 35  1  0
 33 31  1  0
 34 33  2  0
M  END
$$$$
