WYL.pdb
     RDKit          3D

 35 37  0  0  1  0  0  0  0  0999 V2000
   23.0645  -17.4964  -16.6315 N   0  0  0  0  0  0  0  0  0  0  0  0
   24.0630  -18.2036  -15.8877 C   0  0  1  0  0  0  0  0  0  0  0  0
   25.2386  -17.3657  -15.5049 C   0  0  0  0  0  0  0  0  0  0  0  0
   26.1023  -16.9984  -16.6367 C   0  0  0  0  0  0  0  0  0  0  0  0
   26.2940  -15.7213  -17.1238 C   0  0  0  0  0  0  0  0  0  0  0  0
   27.1555  -15.7678  -18.1719 N   0  0  0  0  0  0  0  0  0  0  0  0
   27.5356  -17.0377  -18.3878 C   0  0  0  0  0  0  0  0  0  0  0  0
   28.3813  -17.6138  -19.3117 C   0  0  0  0  0  0  0  0  0  0  0  0
   28.5535  -18.9796  -19.2531 C   0  0  0  0  0  0  0  0  0  0  0  0
   27.8998  -19.7488  -18.2991 C   0  0  0  0  0  0  0  0  0  0  0  0
   27.0669  -19.1705  -17.3917 C   0  0  0  0  0  0  0  0  0  0  0  0
   26.8765  -17.8097  -17.4267 C   0  0  0  0  0  0  0  0  0  0  0  0
   23.4278  -18.6854  -14.6057 C   0  0  0  0  0  0  0  0  0  0  0  0
   22.8297  -17.8393  -13.8997 O   0  0  0  0  0  0  0  0  0  0  0  0
   17.3817  -18.5016  -11.7505 O   0  0  0  0  0  0  0  0  0  0  0  0
   18.5652  -19.2249  -11.9782 C   0  0  0  0  0  0  0  0  0  0  0  0
   19.3829  -19.5942  -10.9335 C   0  0  0  0  0  0  0  0  0  0  0  0
   20.5474  -20.3062  -11.1584 C   0  0  0  0  0  0  0  0  0  0  0  0
   20.9421  -20.6771  -12.4284 C   0  0  0  0  0  0  0  0  0  0  0  0
   22.1903  -21.4412  -12.6656 C   0  0  0  0  0  0  0  0  0  0  0  0
   23.3713  -20.5659  -12.8871 C   0  0  2  0  0  0  0  0  0  0  0  0
   23.4952  -20.0316  -14.2024 N   0  0  0  0  0  0  0  0  0  0  0  0
   24.6723  -21.1899  -12.4382 C   0  0  0  0  0  0  0  0  0  0  0  0
   25.1219  -22.2583  -12.9109 O   0  0  0  0  0  0  0  0  0  0  0  0
   20.1173  -20.3029  -13.4669 C   0  0  0  0  0  0  0  0  0  0  0  0
   18.9457  -19.5879  -13.2522 C   0  0  0  0  0  0  0  0  0  0  0  0
   27.8181  -20.5467  -13.0344 C   0  0  0  0  0  0  0  0  0  0  0  0
   27.9071  -19.8802  -11.6442 C   0  0  2  0  0  0  0  0  0  0  0  0
   29.2844  -19.2418  -11.5206 C   0  0  0  0  0  0  0  0  0  0  0  0
   27.6989  -20.8753  -10.5642 C   0  0  0  0  0  0  0  0  0  0  0  0
   26.2953  -21.4068  -10.5708 C   0  0  2  0  0  0  0  0  0  0  0  0
   25.4506  -20.5585  -11.4303 N   0  0  0  0  0  0  0  0  0  0  0  0
   25.6982  -21.3581   -9.2173 C   0  0  0  0  0  0  0  0  0  0  0  0
   26.1342  -22.0245   -8.2447 O   0  0  0  0  0  0  0  0  0  0  0  0
   24.5916  -20.5269   -9.0113 O   0  0  0  0  0  0  0  0  0  0  0  0
  2  1  1  1
  3  2  1  0
  4  5  2  0
  4  3  1  0
  6  5  1  0
  7 12  2  0
  7  6  1  0
  8  7  1  0
  9 10  1  0
  9  8  2  0
 10 11  2  0
 11 12  1  0
 12  4  1  0
 13  2  1  0
 14 13  2  0
 16 17  2  0
 16 15  1  0
 18 17  1  0
 19 18  2  0
 21 20  1  6
 20 19  1  0
 21 22  1  0
 22 13  1  0
 23 24  2  0
 23 21  1  0
 25 19  1  0
 25 26  2  0
 26 16  1  0
 28 27  1  6
 28 30  1  0
 29 28  1  0
 31 30  1  1
 31 32  1  0
 32 23  1  0
 33 35  1  0
 33 31  1  0
 34 33  2  0
M  END
$$$$
