WYL.pdb
     RDKit          3D

 35 37  0  0  1  0  0  0  0  0999 V2000
   24.6180  -18.4226  -15.6757 N   0  0  0  0  0  0  0  0  0  0  0  0
   25.7416  -18.7093  -14.8357 C   0  0  1  0  0  0  0  0  0  0  0  0
   26.3480  -17.4999  -14.2030 C   0  0  0  0  0  0  0  0  0  0  0  0
   27.0144  -16.5998  -15.1557 C   0  0  0  0  0  0  0  0  0  0  0  0
   26.7441  -15.2563  -15.3202 C   0  0  0  0  0  0  0  0  0  0  0  0
   27.5531  -14.7533  -16.2874 N   0  0  0  0  0  0  0  0  0  0  0  0
   28.3469  -15.7266  -16.7631 C   0  0  0  0  0  0  0  0  0  0  0  0
   29.3267  -15.7402  -17.7330 C   0  0  0  0  0  0  0  0  0  0  0  0
   29.9628  -16.9374  -17.9792 C   0  0  0  0  0  0  0  0  0  0  0  0
   29.6302  -18.0887  -17.2770 C   0  0  0  0  0  0  0  0  0  0  0  0
   28.6616  -18.0647  -16.3216 C   0  0  0  0  0  0  0  0  0  0  0  0
   28.0104  -16.8839  -16.0550 C   0  0  0  0  0  0  0  0  0  0  0  0
   25.2639  -19.6013  -13.7153 C   0  0  0  0  0  0  0  0  0  0  0  0
   24.1641  -19.3243  -13.1807 O   0  0  0  0  0  0  0  0  0  0  0  0
   21.7456  -23.9886  -16.9042 O   0  0  0  0  0  0  0  0  0  0  0  0
   22.7040  -23.7703  -15.8994 C   0  0  0  0  0  0  0  0  0  0  0  0
   24.0129  -23.4846  -16.2177 C   0  0  0  0  0  0  0  0  0  0  0  0
   24.9555  -23.2697  -15.2282 C   0  0  0  0  0  0  0  0  0  0  0  0
   24.6326  -23.3308  -13.8872 C   0  0  0  0  0  0  0  0  0  0  0  0
   25.6451  -23.0988  -12.8295 C   0  0  0  0  0  0  0  0  0  0  0  0
   25.6425  -21.7012  -12.3225 C   0  0  2  0  0  0  0  0  0  0  0  0
   26.0131  -20.7075  -13.2743 N   0  0  0  0  0  0  0  0  0  0  0  0
   26.4196  -21.5283  -11.0380 C   0  0  0  0  0  0  0  0  0  0  0  0
   27.6345  -21.8084  -10.9261 O   0  0  0  0  0  0  0  0  0  0  0  0
   23.3204  -23.6174  -13.5791 C   0  0  0  0  0  0  0  0  0  0  0  0
   22.3659  -23.8348  -14.5648 C   0  0  0  0  0  0  0  0  0  0  0  0
   28.5650  -18.5637   -7.8412 C   0  0  0  0  0  0  0  0  0  0  0  0
   27.2420  -19.3150   -8.1064 C   0  0  2  0  0  0  0  0  0  0  0  0
   26.2722  -18.9608   -6.9866 C   0  0  0  0  0  0  0  0  0  0  0  0
   27.4644  -20.7806   -8.1546 C   0  0  0  0  0  0  0  0  0  0  0  0
   26.2187  -21.5116   -8.5627 C   0  0  2  0  0  0  0  0  0  0  0  0
   25.7695  -21.0242   -9.8789 N   0  0  0  0  0  0  0  0  0  0  0  0
   25.1101  -21.2487   -7.6177 C   0  0  0  0  0  0  0  0  0  0  0  0
   24.0198  -20.7247   -7.9593 O   0  0  0  0  0  0  0  0  0  0  0  0
   25.2864  -21.6027   -6.2754 O   0  0  0  0  0  0  0  0  0  0  0  0
  2  1  1  6
  3  2  1  0
  4  5  2  0
  4  3  1  0
  6  5  1  0
  7 12  2  0
  7  6  1  0
  8  7  1  0
  9 10  1  0
  9  8  2  0
 10 11  2  0
 11 12  1  0
 12  4  1  0
 13  2  1  0
 14 13  2  0
 16 17  2  0
 16 15  1  0
 18 17  1  0
 19 18  2  0
 21 20  1  6
 20 19  1  0
 21 22  1  0
 22 13  1  0
 23 24  2  0
 23 21  1  0
 25 19  1  0
 25 26  2  0
 26 16  1  0
 28 27  1  1
 28 30  1  0
 29 28  1  0
 31 30  1  1
 31 32  1  0
 32 23  1  0
 33 35  1  0
 33 31  1  0
 34 33  2  0
M  END
$$$$
