WYL.pdb
     RDKit          3D

 35 37  0  0  1  0  0  0  0  0999 V2000
   23.5013   -8.7540  -18.9936 N   0  0  0  0  0  0  0  0  0  0  0  0
   23.1844   -7.9814  -17.8305 C   0  0  1  0  0  0  0  0  0  0  0  0
   24.2889   -7.0812  -17.3829 C   0  0  0  0  0  0  0  0  0  0  0  0
   25.4867   -7.7946  -16.9156 C   0  0  0  0  0  0  0  0  0  0  0  0
   26.7601   -7.6555  -17.4295 C   0  0  0  0  0  0  0  0  0  0  0  0
   27.6072   -8.4704  -16.7503 N   0  0  0  0  0  0  0  0  0  0  0  0
   26.9279   -9.1407  -15.8053 C   0  0  0  0  0  0  0  0  0  0  0  0
   27.3123  -10.0722  -14.8645 C   0  0  0  0  0  0  0  0  0  0  0  0
   26.3382  -10.5723  -14.0280 C   0  0  0  0  0  0  0  0  0  0  0  0
   25.0175  -10.1542  -14.1279 C   0  0  0  0  0  0  0  0  0  0  0  0
   24.6483   -9.2342  -15.0600 C   0  0  0  0  0  0  0  0  0  0  0  0
   25.5993   -8.7183  -15.9078 C   0  0  0  0  0  0  0  0  0  0  0  0
   22.0063   -7.1002  -18.1693 C   0  0  0  0  0  0  0  0  0  0  0  0
   21.8880   -6.7199  -19.3582 O   0  0  0  0  0  0  0  0  0  0  0  0
   13.8403   -3.8354  -18.2190 O   0  0  0  0  0  0  0  0  0  0  0  0
   15.0144   -4.5618  -17.9552 C   0  0  0  0  0  0  0  0  0  0  0  0
   15.4508   -4.7600  -16.6642 C   0  0  0  0  0  0  0  0  0  0  0  0
   16.6063   -5.4751  -16.4052 C   0  0  0  0  0  0  0  0  0  0  0  0
   17.3703   -6.0190  -17.4185 C   0  0  0  0  0  0  0  0  0  0  0  0
   18.6076   -6.7858  -17.1372 C   0  0  0  0  0  0  0  0  0  0  0  0
   19.8446   -6.0004  -17.3881 C   0  0  2  0  0  0  0  0  0  0  0  0
   21.0656   -6.7102  -17.1985 N   0  0  0  0  0  0  0  0  0  0  0  0
   19.8744   -4.6790  -16.6554 C   0  0  0  0  0  0  0  0  0  0  0  0
   20.2434   -4.5608  -15.4651 O   0  0  0  0  0  0  0  0  0  0  0  0
   16.9253   -5.8151  -18.7067 C   0  0  0  0  0  0  0  0  0  0  0  0
   15.7664   -5.0987  -18.9779 C   0  0  0  0  0  0  0  0  0  0  0  0
   21.9854   -0.6534  -16.7786 C   0  0  0  0  0  0  0  0  0  0  0  0
   21.0275   -0.9740  -17.9467 C   0  0  2  0  0  0  0  0  0  0  0  0
   21.1645    0.1366  -18.9802 C   0  0  0  0  0  0  0  0  0  0  0  0
   19.6255   -1.0699  -17.4724 C   0  0  0  0  0  0  0  0  0  0  0  0
   19.4377   -2.2366  -16.5472 C   0  0  2  0  0  0  0  0  0  0  0  0
   19.4700   -3.4902  -17.3213 N   0  0  0  0  0  0  0  0  0  0  0  0
   18.1149   -2.1869  -15.8848 C   0  0  0  0  0  0  0  0  0  0  0  0
   17.2145   -3.0435  -16.0733 O   0  0  0  0  0  0  0  0  0  0  0  0
   17.8550   -1.1314  -15.0036 O   0  0  0  0  0  0  0  0  0  0  0  0
  2  1  1  6
  3  2  1  0
  4  5  2  0
  4  3  1  0
  6  5  1  0
  7 12  2  0
  7  6  1  0
  8  7  1  0
  9 10  1  0
  9  8  2  0
 10 11  2  0
 11 12  1  0
 12  4  1  0
 13  2  1  0
 14 13  2  0
 16 17  2  0
 16 15  1  0
 18 17  1  0
 19 18  2  0
 21 20  1  1
 20 19  1  0
 21 22  1  0
 22 13  1  0
 23 24  2  0
 23 21  1  0
 25 19  1  0
 25 26  2  0
 26 16  1  0
 28 27  1  1
 28 30  1  0
 29 28  1  0
 31 30  1  6
 31 32  1  0
 32 23  1  0
 33 35  1  0
 33 31  1  0
 34 33  2  0
M  END
$$$$
