WYL.pdb
     RDKit          3D

 35 37  0  0  1  0  0  0  0  0999 V2000
   28.1508  -21.8264  -15.5401 N   0  0  0  0  0  0  0  0  0  0  0  0
   28.5612  -21.6780  -14.1764 C   0  0  1  0  0  0  0  0  0  0  0  0
   29.8780  -20.9927  -14.0121 C   0  0  0  0  0  0  0  0  0  0  0  0
   30.9935  -21.9065  -13.7248 C   0  0  0  0  0  0  0  0  0  0  0  0
   31.7124  -22.6213  -14.6614 C   0  0  0  0  0  0  0  0  0  0  0  0
   32.6623  -23.3565  -14.0291 N   0  0  0  0  0  0  0  0  0  0  0  0
   32.5889  -23.1458  -12.7047 C   0  0  0  0  0  0  0  0  0  0  0  0
   33.3124  -23.6401  -11.6403 C   0  0  0  0  0  0  0  0  0  0  0  0
   32.9674  -23.2057  -10.3790 C   0  0  0  0  0  0  0  0  0  0  0  0
   31.9294  -22.3034  -10.1856 C   0  0  0  0  0  0  0  0  0  0  0  0
   31.2214  -21.8216  -11.2429 C   0  0  0  0  0  0  0  0  0  0  0  0
   31.5438  -22.2376  -12.5127 C   0  0  0  0  0  0  0  0  0  0  0  0
   27.5300  -20.8274  -13.4747 C   0  0  0  0  0  0  0  0  0  0  0  0
   27.6508  -19.5821  -13.5565 O   0  0  0  0  0  0  0  0  0  0  0  0
   23.9954  -18.0986  -17.7339 O   0  0  0  0  0  0  0  0  0  0  0  0
   24.0195  -18.7553  -16.4913 C   0  0  0  0  0  0  0  0  0  0  0  0
   23.8744  -18.0537  -15.3154 C   0  0  0  0  0  0  0  0  0  0  0  0
   23.8981  -18.7008  -14.0929 C   0  0  0  0  0  0  0  0  0  0  0  0
   24.0668  -20.0675  -13.9939 C   0  0  0  0  0  0  0  0  0  0  0  0
   24.0906  -20.7578  -12.6820 C   0  0  0  0  0  0  0  0  0  0  0  0
   25.4292  -20.7270  -12.0361 C   0  0  2  0  0  0  0  0  0  0  0  0
   26.4656  -21.3949  -12.7506 N   0  0  0  0  0  0  0  0  0  0  0  0
   25.4072  -21.1657  -10.5903 C   0  0  0  0  0  0  0  0  0  0  0  0
   25.3449  -22.3648  -10.2362 O   0  0  0  0  0  0  0  0  0  0  0  0
   24.2113  -20.7605  -15.1762 C   0  0  0  0  0  0  0  0  0  0  0  0
   24.1889  -20.1207  -16.4091 C   0  0  0  0  0  0  0  0  0  0  0  0
   28.0077  -20.5044   -7.0209 C   0  0  0  0  0  0  0  0  0  0  0  0
   27.1383  -19.2853   -7.3988 C   0  0  2  0  0  0  0  0  0  0  0  0
   27.5582  -18.1204   -6.5119 C   0  0  0  0  0  0  0  0  0  0  0  0
   25.6971  -19.5835   -7.2141 C   0  0  0  0  0  0  0  0  0  0  0  0
   25.2290  -20.6424   -8.1690 C   0  0  2  0  0  0  0  0  0  0  0  0
   25.4588  -20.1943   -9.5540 N   0  0  0  0  0  0  0  0  0  0  0  0
   23.7727  -20.8739   -8.0395 C   0  0  0  0  0  0  0  0  0  0  0  0
   23.2402  -21.3745   -7.0168 O   0  0  0  0  0  0  0  0  0  0  0  0
   22.9476  -20.5164   -9.1117 O   0  0  0  0  0  0  0  0  0  0  0  0
  2  1  1  6
  3  2  1  0
  4  5  2  0
  4  3  1  0
  6  5  1  0
  7 12  2  0
  7  6  1  0
  8  7  1  0
  9 10  1  0
  9  8  2  0
 10 11  2  0
 11 12  1  0
 12  4  1  0
 13  2  1  0
 14 13  2  0
 16 17  2  0
 16 15  1  0
 18 17  1  0
 19 18  2  0
 21 20  1  6
 20 19  1  0
 21 22  1  0
 22 13  1  0
 23 24  2  0
 23 21  1  0
 25 19  1  0
 25 26  2  0
 26 16  1  0
 28 27  1  1
 28 30  1  0
 29 28  1  0
 31 30  1  1
 31 32  1  0
 32 23  1  0
 33 35  1  0
 33 31  1  0
 34 33  2  0
M  END
$$$$
