WYL.pdb
     RDKit          3D

 35 37  0  0  1  0  0  0  0  0999 V2000
   26.4652  -22.4732  -12.5542 N   0  0  0  0  0  0  0  0  0  0  0  0
   25.7802  -21.3669  -11.9567 C   0  0  1  0  0  0  0  0  0  0  0  0
   26.6895  -20.3075  -11.4263 C   0  0  0  0  0  0  0  0  0  0  0  0
   27.7482  -20.8184  -10.5431 C   0  0  0  0  0  0  0  0  0  0  0  0
   28.7657  -21.6738  -10.9149 C   0  0  0  0  0  0  0  0  0  0  0  0
   29.5515  -21.9277   -9.8374 N   0  0  0  0  0  0  0  0  0  0  0  0
   29.0806  -21.2643   -8.7689 C   0  0  0  0  0  0  0  0  0  0  0  0
   29.5049  -21.1841   -7.4596 C   0  0  0  0  0  0  0  0  0  0  0  0
   28.7741  -20.3928   -6.6004 C   0  0  0  0  0  0  0  0  0  0  0  0
   27.6513  -19.7009   -7.0358 C   0  0  0  0  0  0  0  0  0  0  0  0
   27.2407  -19.7869   -8.3302 C   0  0  0  0  0  0  0  0  0  0  0  0
   27.9508  -20.5690   -9.2096 C   0  0  0  0  0  0  0  0  0  0  0  0
   24.9266  -20.7232  -13.0227 C   0  0  0  0  0  0  0  0  0  0  0  0
   25.4703  -19.8747  -13.7686 O   0  0  0  0  0  0  0  0  0  0  0  0
   21.3211  -24.6906  -19.7517 O   0  0  0  0  0  0  0  0  0  0  0  0
   21.8874  -24.2404  -18.5466 C   0  0  0  0  0  0  0  0  0  0  0  0
   22.6330  -23.0836  -18.5018 C   0  0  0  0  0  0  0  0  0  0  0  0
   23.1899  -22.6411  -17.3153 C   0  0  0  0  0  0  0  0  0  0  0  0
   23.0269  -23.3312  -16.1307 C   0  0  0  0  0  0  0  0  0  0  0  0
   23.6243  -22.8535  -14.8607 C   0  0  0  0  0  0  0  0  0  0  0  0
   22.9364  -21.6549  -14.3126 C   0  0  2  0  0  0  0  0  0  0  0  0
   23.5684  -21.0516  -13.1868 N   0  0  0  0  0  0  0  0  0  0  0  0
   21.4659  -21.8779  -14.0451 C   0  0  0  0  0  0  0  0  0  0  0  0
   20.6756  -22.3468  -14.8951 O   0  0  0  0  0  0  0  0  0  0  0  0
   22.2794  -24.4875  -16.1860 C   0  0  0  0  0  0  0  0  0  0  0  0
   21.7156  -24.9408  -17.3720 C   0  0  0  0  0  0  0  0  0  0  0  0
   20.4605  -20.0987  -10.8210 C   0  0  0  0  0  0  0  0  0  0  0  0
   19.5908  -21.1837  -10.1492 C   0  0  2  0  0  0  0  0  0  0  0  0
   20.2887  -21.6113   -8.8646 C   0  0  0  0  0  0  0  0  0  0  0  0
   19.4049  -22.3476  -11.0496 C   0  0  0  0  0  0  0  0  0  0  0  0
   19.5295  -21.9512  -12.4918 C   0  0  2  0  0  0  0  0  0  0  0  0
   20.9190  -21.5500  -12.7748 N   0  0  0  0  0  0  0  0  0  0  0  0
   18.6831  -20.7764  -12.7990 C   0  0  0  0  0  0  0  0  0  0  0  0
   19.1215  -19.7314  -13.3430 O   0  0  0  0  0  0  0  0  0  0  0  0
   17.3251  -20.8336  -12.4663 O   0  0  0  0  0  0  0  0  0  0  0  0
  2  1  1  6
  3  2  1  0
  4  5  2  0
  4  3  1  0
  6  5  1  0
  7 12  2  0
  7  6  1  0
  8  7  1  0
  9 10  1  0
  9  8  2  0
 10 11  2  0
 11 12  1  0
 12  4  1  0
 13  2  1  0
 14 13  2  0
 16 17  2  0
 16 15  1  0
 18 17  1  0
 19 18  2  0
 21 20  1  1
 20 19  1  0
 21 22  1  0
 22 13  1  0
 23 24  2  0
 23 21  1  0
 25 19  1  0
 25 26  2  0
 26 16  1  0
 28 27  1  6
 28 30  1  0
 29 28  1  0
 31 30  1  1
 31 32  1  0
 32 23  1  0
 33 35  1  0
 33 31  1  0
 34 33  2  0
M  END
$$$$
