WYL.pdb
     RDKit          3D

 35 37  0  0  1  0  0  0  0  0999 V2000
   27.5726  -21.6641  -15.7642 N   0  0  0  0  0  0  0  0  0  0  0  0
   28.0795  -21.6585  -14.4251 C   0  0  1  0  0  0  0  0  0  0  0  0
   29.3966  -20.9695  -14.2798 C   0  0  0  0  0  0  0  0  0  0  0  0
   30.4395  -21.8018  -13.6621 C   0  0  0  0  0  0  0  0  0  0  0  0
   31.0031  -22.9326  -14.2176 C   0  0  0  0  0  0  0  0  0  0  0  0
   31.9287  -23.4365  -13.3619 N   0  0  0  0  0  0  0  0  0  0  0  0
   31.9900  -22.6701  -12.2607 C   0  0  0  0  0  0  0  0  0  0  0  0
   32.7514  -22.7447  -11.1138 C   0  0  0  0  0  0  0  0  0  0  0  0
   32.5594  -21.7716  -10.1573 C   0  0  0  0  0  0  0  0  0  0  0  0
   31.6336  -20.7527  -10.3405 C   0  0  0  0  0  0  0  0  0  0  0  0
   30.8870  -20.6880  -11.4762 C   0  0  0  0  0  0  0  0  0  0  0  0
   31.0575  -21.6456  -12.4475 C   0  0  0  0  0  0  0  0  0  0  0  0
   27.0923  -20.9110  -13.5615 C   0  0  0  0  0  0  0  0  0  0  0  0
   26.8859  -19.7032  -13.8272 O   0  0  0  0  0  0  0  0  0  0  0  0
   22.7944  -18.1064  -16.6582 O   0  0  0  0  0  0  0  0  0  0  0  0
   23.1104  -18.8305  -15.4957 C   0  0  0  0  0  0  0  0  0  0  0  0
   23.1552  -18.2130  -14.2657 C   0  0  0  0  0  0  0  0  0  0  0  0
   23.4661  -18.9263  -13.1219 C   0  0  0  0  0  0  0  0  0  0  0  0
   23.7440  -20.2782  -13.1581 C   0  0  0  0  0  0  0  0  0  0  0  0
   24.0758  -21.0398  -11.9301 C   0  0  0  0  0  0  0  0  0  0  0  0
   25.5131  -20.9465  -11.5621 C   0  0  2  0  0  0  0  0  0  0  0  0
   26.4194  -21.5317  -12.4931 N   0  0  0  0  0  0  0  0  0  0  0  0
   25.8046  -21.4248  -10.1585 C   0  0  0  0  0  0  0  0  0  0  0  0
   25.7979  -22.6322   -9.8281 O   0  0  0  0  0  0  0  0  0  0  0  0
   23.6967  -20.8868  -14.3935 C   0  0  0  0  0  0  0  0  0  0  0  0
   23.3855  -20.1800  -15.5483 C   0  0  0  0  0  0  0  0  0  0  0  0
   28.6102  -21.6652   -6.6612 C   0  0  0  0  0  0  0  0  0  0  0  0
   28.1890  -20.2363   -7.0683 C   0  0  2  0  0  0  0  0  0  0  0  0
   29.0090  -19.2549   -6.2409 C   0  0  0  0  0  0  0  0  0  0  0  0
   26.7394  -20.0240   -6.8366 C   0  0  0  0  0  0  0  0  0  0  0  0
   25.9072  -20.8915   -7.7351 C   0  0  2  0  0  0  0  0  0  0  0  0
   26.1057  -20.4834   -9.1372 N   0  0  0  0  0  0  0  0  0  0  0  0
   24.4639  -20.7271   -7.4510 C   0  0  0  0  0  0  0  0  0  0  0  0
   23.6968  -20.0211   -8.1533 O   0  0  0  0  0  0  0  0  0  0  0  0
   23.9271  -21.3926   -6.3433 O   0  0  0  0  0  0  0  0  0  0  0  0
  2  1  1  6
  3  2  1  0
  4  5  2  0
  4  3  1  0
  6  5  1  0
  7 12  2  0
  7  6  1  0
  8  7  1  0
  9 10  1  0
  9  8  2  0
 10 11  2  0
 11 12  1  0
 12  4  1  0
 13  2  1  0
 14 13  2  0
 16 17  2  0
 16 15  1  0
 18 17  1  0
 19 18  2  0
 21 20  1  6
 20 19  1  0
 21 22  1  0
 22 13  1  0
 23 24  2  0
 23 21  1  0
 25 19  1  0
 25 26  2  0
 26 16  1  0
 28 27  1  1
 28 30  1  0
 29 28  1  0
 31 30  1  1
 31 32  1  0
 32 23  1  0
 33 35  1  0
 33 31  1  0
 34 33  2  0
M  END
$$$$
