WYL.pdb
     RDKit          3D

 35 37  0  0  1  0  0  0  0  0999 V2000
   27.7798  -21.9979  -14.7850 N   0  0  0  0  0  0  0  0  0  0  0  0
   26.6496  -21.6525  -13.9764 C   0  0  1  0  0  0  0  0  0  0  0  0
   26.8485  -20.4227  -13.1527 C   0  0  0  0  0  0  0  0  0  0  0  0
   27.7935  -20.5973  -12.0399 C   0  0  0  0  0  0  0  0  0  0  0  0
   29.1690  -20.6340  -12.1480 C   0  0  0  0  0  0  0  0  0  0  0  0
   29.7092  -20.8093  -10.9150 N   0  0  0  0  0  0  0  0  0  0  0  0
   28.7293  -20.8888  -10.0000 C   0  0  0  0  0  0  0  0  0  0  0  0
   28.7424  -21.0615   -8.6323 C   0  0  0  0  0  0  0  0  0  0  0  0
   27.5276  -21.0987   -7.9831 C   0  0  0  0  0  0  0  0  0  0  0  0
   26.3332  -20.9671   -8.6798 C   0  0  0  0  0  0  0  0  0  0  0  0
   26.3312  -20.7971  -10.0298 C   0  0  0  0  0  0  0  0  0  0  0  0
   27.5287  -20.7562  -10.7034 C   0  0  0  0  0  0  0  0  0  0  0  0
   25.4870  -21.3819  -14.9007 C   0  0  0  0  0  0  0  0  0  0  0  0
   25.6428  -20.5132  -15.7913 O   0  0  0  0  0  0  0  0  0  0  0  0
   18.2188  -21.7959  -19.7686 O   0  0  0  0  0  0  0  0  0  0  0  0
   19.3800  -22.0442  -19.0165 C   0  0  0  0  0  0  0  0  0  0  0  0
   19.4184  -23.0573  -18.0846 C   0  0  0  0  0  0  0  0  0  0  0  0
   20.5616  -23.3012  -17.3449 C   0  0  0  0  0  0  0  0  0  0  0  0
   21.7078  -22.5480  -17.5035 C   0  0  0  0  0  0  0  0  0  0  0  0
   22.9317  -22.8129  -16.7098 C   0  0  0  0  0  0  0  0  0  0  0  0
   23.0769  -21.8974  -15.5475 C   0  0  2  0  0  0  0  0  0  0  0  0
   24.2658  -22.0701  -14.7810 N   0  0  0  0  0  0  0  0  0  0  0  0
   21.8611  -21.8704  -14.6505 C   0  0  0  0  0  0  0  0  0  0  0  0
   21.6168  -22.7522  -13.7962 O   0  0  0  0  0  0  0  0  0  0  0  0
   21.6593  -21.5366  -18.4383 C   0  0  0  0  0  0  0  0  0  0  0  0
   20.5165  -21.2832  -19.1865 C   0  0  0  0  0  0  0  0  0  0  0  0
   20.8588  -20.4062  -11.0675 C   0  0  0  0  0  0  0  0  0  0  0  0
   20.9264  -19.2929  -12.1357 C   0  0  2  0  0  0  0  0  0  0  0  0
   20.8611  -17.9520  -11.4163 C   0  0  0  0  0  0  0  0  0  0  0  0
   19.8087  -19.4167  -13.1027 C   0  0  0  0  0  0  0  0  0  0  0  0
   19.8186  -20.7536  -13.7848 C   0  0  2  0  0  0  0  0  0  0  0  0
   20.9269  -20.8042  -14.7549 N   0  0  0  0  0  0  0  0  0  0  0  0
   18.5749  -20.9692  -14.5579 C   0  0  0  0  0  0  0  0  0  0  0  0
   17.4582  -21.1889  -14.0241 O   0  0  0  0  0  0  0  0  0  0  0  0
   18.6475  -20.9259  -15.9546 O   0  0  0  0  0  0  0  0  0  0  0  0
  2  1  1  6
  3  2  1  0
  4  5  2  0
  4  3  1  0
  6  5  1  0
  7 12  2  0
  7  6  1  0
  8  7  1  0
  9 10  1  0
  9  8  2  0
 10 11  2  0
 11 12  1  0
 12  4  1  0
 13  2  1  0
 14 13  2  0
 16 17  2  0
 16 15  1  0
 18 17  1  0
 19 18  2  0
 21 20  1  6
 20 19  1  0
 21 22  1  0
 22 13  1  0
 23 24  2  0
 23 21  1  0
 25 19  1  0
 25 26  2  0
 26 16  1  0
 28 27  1  1
 28 30  1  0
 29 28  1  0
 31 30  1  6
 31 32  1  0
 32 23  1  0
 33 35  1  0
 33 31  1  0
 34 33  2  0
M  END
$$$$
