HDW.pdb
     RDKit          3D

 33 35  0  0  1  0  0  0  0  0999 V2000
    7.9332  -17.9590   19.8416 N   0  0  0  0  0  0  0  0  0  0  0  0
    8.6646  -16.7269   20.2562 C   0  0  1  0  0  0  0  0  0  0  0  0
    7.5722  -15.7878   20.6894 C   0  0  0  0  0  0  0  0  0  0  0  0
    7.6227  -14.4448   20.1247 C   0  0  0  0  0  0  0  0  0  0  0  0
    8.6064  -14.1022   19.1826 C   0  0  0  0  0  0  0  0  0  0  0  0
    8.4217  -12.8235   18.8360 N   0  0  0  0  0  0  0  0  0  0  0  0
    7.3458  -12.3562   19.5384 C   0  0  0  0  0  0  0  0  0  0  0  0
    6.8908  -13.3443   20.2974 N   0  0  0  0  0  0  0  0  0  0  0  0
    9.4679  -17.1224   21.4395 C   0  0  0  0  0  0  0  0  0  0  0  0
    8.9712  -18.0666   22.1534 O   0  0  0  0  0  0  0  0  0  0  0  0
   10.7084  -16.5535   21.8202 N   0  0  0  0  0  0  0  0  0  0  0  0
   11.3074  -17.0493   23.0623 C   0  0  1  0  0  0  0  0  0  0  0  0
   12.7505  -16.5968   23.0403 C   0  0  0  0  0  0  0  0  0  0  0  0
   13.5640  -17.0534   24.1725 C   0  0  0  0  0  0  0  0  0  0  0  0
   14.5507  -16.4722   24.6680 O   0  0  0  0  0  0  0  0  0  0  0  0
   10.6227  -16.4944   24.2414 C   0  0  0  0  0  0  0  0  0  0  0  0
    9.6762  -15.6982   24.0557 O   0  0  0  0  0  0  0  0  0  0  0  0
   13.1748  -18.2945   24.7602 O   0  0  0  0  0  0  0  0  0  0  0  0
   10.9518  -16.7948   25.5920 N   0  0  0  0  0  0  0  0  0  0  0  0
   10.0342  -16.6993   26.7105 C   0  0  1  0  0  0  0  0  0  0  0  0
    8.6520  -17.1089   26.3623 C   0  0  0  0  0  0  0  0  0  0  0  0
    7.7153  -16.0718   25.9653 C   0  0  0  0  0  0  0  0  0  0  0  0
    6.5134  -16.3195   25.3060 C   0  0  0  0  0  0  0  0  0  0  0  0
    5.8557  -15.1658   25.1038 N   0  0  0  0  0  0  0  0  0  0  0  0
    6.6088  -14.1655   25.6200 C   0  0  0  0  0  0  0  0  0  0  0  0
    6.3818  -12.8244   25.6579 C   0  0  0  0  0  0  0  0  0  0  0  0
    7.2969  -11.9619   26.2325 C   0  0  0  0  0  0  0  0  0  0  0  0
    8.4532  -12.4917   26.7702 C   0  0  0  0  0  0  0  0  0  0  0  0
    8.6865  -13.8497   26.7337 C   0  0  0  0  0  0  0  0  0  0  0  0
    7.7646  -14.7227   26.1557 C   0  0  0  0  0  0  0  0  0  0  0  0
   10.5945  -17.1443   27.9804 C   0  0  0  0  0  0  0  0  0  0  0  0
   10.1352  -16.6041   29.1723 O   0  0  0  0  0  0  0  0  0  0  0  0
   11.4975  -18.0171   28.0922 O   0  0  0  0  0  0  0  0  0  0  0  0
  2  1  1  1
  3  2  1  0
  3  4  1  0
  4  5  2  0
  5  6  1  0
  7  6  1  0
  8  4  1  0
  8  7  2  0
  9  2  1  0
  9 10  2  0
 11  9  1  0
 12 11  1  0
 12 13  1  1
 14 13  1  0
 15 14  2  0
 16 19  1  0
 16 12  1  0
 17 16  2  0
 18 14  1  0
 20 19  1  0
 20 31  1  0
 21 22  1  0
 20 21  1  6
 22 30  1  0
 22 23  2  0
 23 24  1  0
 25 26  2  0
 25 24  1  0
 27 26  1  0
 28 27  2  0
 29 28  1  0
 29 30  2  0
 30 25  1  0
 31 32  1  0
 33 31  2  0
M  END
$$$$
