HDW.pdb
     RDKit          3D

 33 35  0  0  1  0  0  0  0  0999 V2000
    8.8277  -19.8409   21.0509 N   0  0  0  0  0  0  0  0  0  0  0  0
    8.7732  -18.3957   21.4165 C   0  0  1  0  0  0  0  0  0  0  0  0
    7.5245  -18.2811   22.2475 C   0  0  0  0  0  0  0  0  0  0  0  0
    6.2656  -18.2799   21.5124 C   0  0  0  0  0  0  0  0  0  0  0  0
    6.2548  -18.4035   20.1135 C   0  0  0  0  0  0  0  0  0  0  0  0
    4.9817  -18.3729   19.7039 N   0  0  0  0  0  0  0  0  0  0  0  0
    4.1942  -18.2329   20.8128 C   0  0  0  0  0  0  0  0  0  0  0  0
    4.9868  -18.1804   21.8750 N   0  0  0  0  0  0  0  0  0  0  0  0
    9.9580  -18.1603   22.2784 C   0  0  0  0  0  0  0  0  0  0  0  0
   10.5222  -19.2161   22.7417 O   0  0  0  0  0  0  0  0  0  0  0  0
   10.4967  -16.8924   22.6091 N   0  0  0  0  0  0  0  0  0  0  0  0
   11.6900  -16.8848   23.4598 C   0  0  1  0  0  0  0  0  0  0  0  0
   12.5088  -15.6912   23.0208 C   0  0  0  0  0  0  0  0  0  0  0  0
   13.3738  -15.9225   21.8587 C   0  0  0  0  0  0  0  0  0  0  0  0
   14.0415  -16.9479   21.6145 O   0  0  0  0  0  0  0  0  0  0  0  0
   11.3292  -16.7538   24.8809 C   0  0  0  0  0  0  0  0  0  0  0  0
   12.2522  -16.6548   25.7191 O   0  0  0  0  0  0  0  0  0  0  0  0
   13.4505  -14.8539   20.9155 O   0  0  0  0  0  0  0  0  0  0  0  0
    9.9999  -16.7282   25.3857 N   0  0  0  0  0  0  0  0  0  0  0  0
    9.6455  -16.7547   26.7913 C   0  0  1  0  0  0  0  0  0  0  0  0
    8.4120  -15.9883   27.0922 C   0  0  0  0  0  0  0  0  0  0  0  0
    7.9911  -14.9759   26.1390 C   0  0  0  0  0  0  0  0  0  0  0  0
    7.6935  -15.2398   24.8039 C   0  0  0  0  0  0  0  0  0  0  0  0
    7.3059  -14.1101   24.1892 N   0  0  0  0  0  0  0  0  0  0  0  0
    7.3455  -13.1096   25.1010 C   0  0  0  0  0  0  0  0  0  0  0  0
    7.0534  -11.7873   24.9680 C   0  0  0  0  0  0  0  0  0  0  0  0
    7.1699  -10.9197   26.0382 C   0  0  0  0  0  0  0  0  0  0  0  0
    7.5916  -11.4247   27.2522 C   0  0  0  0  0  0  0  0  0  0  0  0
    7.8883  -12.7636   27.3907 C   0  0  0  0  0  0  0  0  0  0  0  0
    7.7707  -13.6418   26.3132 C   0  0  0  0  0  0  0  0  0  0  0  0
    9.8335  -18.0519   27.4289 C   0  0  0  0  0  0  0  0  0  0  0  0
   10.1590  -19.1631   26.6657 O   0  0  0  0  0  0  0  0  0  0  0  0
    9.7230  -18.2578   28.6679 O   0  0  0  0  0  0  0  0  0  0  0  0
  2  1  1  1
  3  2  1  0
  3  4  1  0
  4  5  2  0
  5  6  1  0
  7  6  1  0
  8  4  1  0
  8  7  2  0
  9  2  1  0
  9 10  2  0
 11  9  1  0
 12 11  1  0
 12 13  1  6
 14 13  1  0
 15 14  2  0
 16 19  1  0
 16 12  1  0
 17 16  2  0
 18 14  1  0
 20 19  1  0
 20 31  1  0
 21 22  1  0
 20 21  1  6
 22 30  1  0
 22 23  2  0
 23 24  1  0
 25 26  2  0
 25 24  1  0
 27 26  1  0
 28 27  2  0
 29 28  1  0
 29 30  2  0
 30 25  1  0
 31 32  1  0
 33 31  2  0
M  END
$$$$
