HDW.pdb
     RDKit          3D

 33 35  0  0  1  0  0  0  0  0999 V2000
    7.5228  -16.7510   21.0244 N   0  0  0  0  0  0  0  0  0  0  0  0
    8.7671  -16.0707   21.4871 C   0  0  1  0  0  0  0  0  0  0  0  0
    8.3001  -14.6974   21.8855 C   0  0  0  0  0  0  0  0  0  0  0  0
    8.2596  -13.7023   20.8209 C   0  0  0  0  0  0  0  0  0  0  0  0
    8.5991  -14.0511   19.5035 C   0  0  0  0  0  0  0  0  0  0  0  0
    8.4764  -12.9593   18.7403 N   0  0  0  0  0  0  0  0  0  0  0  0
    8.0683  -11.9343   19.5480 C   0  0  0  0  0  0  0  0  0  0  0  0
    7.9477  -12.4070   20.7815 N   0  0  0  0  0  0  0  0  0  0  0  0
    9.1968  -16.8122   22.6986 C   0  0  0  0  0  0  0  0  0  0  0  0
    8.2763  -17.4828   23.2908 O   0  0  0  0  0  0  0  0  0  0  0  0
   10.5115  -16.8363   23.2261 N   0  0  0  0  0  0  0  0  0  0  0  0
   10.8277  -17.9216   24.1588 C   0  0  1  0  0  0  0  0  0  0  0  0
   12.2556  -18.3237   23.8637 C   0  0  0  0  0  0  0  0  0  0  0  0
   12.7687  -19.4367   24.6699 C   0  0  0  0  0  0  0  0  0  0  0  0
   13.7946  -19.4362   25.3801 O   0  0  0  0  0  0  0  0  0  0  0  0
   10.7082  -17.4738   25.5559 C   0  0  0  0  0  0  0  0  0  0  0  0
   10.8134  -18.3291   26.4624 O   0  0  0  0  0  0  0  0  0  0  0  0
   12.0042  -20.6413   24.6289 O   0  0  0  0  0  0  0  0  0  0  0  0
   10.4821  -16.1307   25.9653 N   0  0  0  0  0  0  0  0  0  0  0  0
   10.4891  -15.6700   27.3400 C   0  0  1  0  0  0  0  0  0  0  0  0
    9.1608  -15.7718   27.9918 C   0  0  0  0  0  0  0  0  0  0  0  0
    7.9999  -15.3223   27.2430 C   0  0  0  0  0  0  0  0  0  0  0  0
    6.9690  -16.1619   26.8271 C   0  0  0  0  0  0  0  0  0  0  0  0
    6.0276  -15.4490   26.1871 N   0  0  0  0  0  0  0  0  0  0  0  0
    6.4260  -14.1547   26.1765 C   0  0  0  0  0  0  0  0  0  0  0  0
    5.8256  -13.0546   25.6466 C   0  0  0  0  0  0  0  0  0  0  0  0
    6.4138  -11.8067   25.7385 C   0  0  0  0  0  0  0  0  0  0  0  0
    7.6306  -11.6983   26.3824 C   0  0  0  0  0  0  0  0  0  0  0  0
    8.2417  -12.8105   26.9206 C   0  0  0  0  0  0  0  0  0  0  0  0
    7.6502  -14.0707   26.8306 C   0  0  0  0  0  0  0  0  0  0  0  0
   11.6694  -16.0692   28.0963 C   0  0  0  0  0  0  0  0  0  0  0  0
   12.6812  -16.7902   27.4800 O   0  0  0  0  0  0  0  0  0  0  0  0
   11.8578  -15.8014   29.3139 O   0  0  0  0  0  0  0  0  0  0  0  0
  2  1  1  1
  3  2  1  0
  3  4  1  0
  4  5  2  0
  5  6  1  0
  7  6  1  0
  8  4  1  0
  8  7  2  0
  9  2  1  0
  9 10  2  0
 11  9  1  0
 12 11  1  0
 12 13  1  6
 14 13  1  0
 15 14  2  0
 16 19  1  0
 16 12  1  0
 17 16  2  0
 18 14  1  0
 20 19  1  0
 20 31  1  0
 21 22  1  0
 20 21  1  1
 22 30  1  0
 22 23  2  0
 23 24  1  0
 25 26  2  0
 25 24  1  0
 27 26  1  0
 28 27  2  0
 29 28  1  0
 29 30  2  0
 30 25  1  0
 31 32  1  0
 33 31  2  0
M  END
$$$$
