HDW.pdb
     RDKit          3D

 33 35  0  0  1  0  0  0  0  0999 V2000
    7.2455  -16.8097   20.8090 N   0  0  0  0  0  0  0  0  0  0  0  0
    8.5330  -16.0844   21.0125 C   0  0  1  0  0  0  0  0  0  0  0  0
    8.1065  -14.6989   21.4145 C   0  0  0  0  0  0  0  0  0  0  0  0
    8.0577  -13.7097   20.3448 C   0  0  0  0  0  0  0  0  0  0  0  0
    8.3694  -14.0699   19.0236 C   0  0  0  0  0  0  0  0  0  0  0  0
    8.2449  -12.9813   18.2563 N   0  0  0  0  0  0  0  0  0  0  0  0
    7.8629  -11.9472   19.0650 C   0  0  0  0  0  0  0  0  0  0  0  0
    7.7594  -12.4113   20.3032 N   0  0  0  0  0  0  0  0  0  0  0  0
    9.1845  -16.7504   22.1675 C   0  0  0  0  0  0  0  0  0  0  0  0
    8.3884  -17.3245   22.9948 O   0  0  0  0  0  0  0  0  0  0  0  0
   10.5796  -16.8010   22.4093 N   0  0  0  0  0  0  0  0  0  0  0  0
   11.0218  -17.6052   23.5519 C   0  0  1  0  0  0  0  0  0  0  0  0
   12.5047  -17.8296   23.3563 C   0  0  0  0  0  0  0  0  0  0  0  0
   12.8626  -18.6523   22.1956 C   0  0  0  0  0  0  0  0  0  0  0  0
   13.8521  -18.5048   21.4499 O   0  0  0  0  0  0  0  0  0  0  0  0
   10.7813  -16.9014   24.8223 C   0  0  0  0  0  0  0  0  0  0  0  0
   11.1745  -15.7188   24.9272 O   0  0  0  0  0  0  0  0  0  0  0  0
   11.9775  -19.7321   21.8994 O   0  0  0  0  0  0  0  0  0  0  0  0
   10.1281  -17.4623   25.9543 N   0  0  0  0  0  0  0  0  0  0  0  0
   10.0279  -16.8270   27.2536 C   0  0  1  0  0  0  0  0  0  0  0  0
    8.6259  -16.6165   27.6889 C   0  0  0  0  0  0  0  0  0  0  0  0
    7.7137  -15.9760   26.7572 C   0  0  0  0  0  0  0  0  0  0  0  0
    6.8541  -16.6696   25.9083 C   0  0  0  0  0  0  0  0  0  0  0  0
    6.1179  -15.8026   25.1938 N   0  0  0  0  0  0  0  0  0  0  0  0
    6.4823  -14.5511   25.5609 C   0  0  0  0  0  0  0  0  0  0  0  0
    6.0364  -13.3421   25.1239 C   0  0  0  0  0  0  0  0  0  0  0  0
    6.5552  -12.1647   25.6302 C   0  0  0  0  0  0  0  0  0  0  0  0
    7.5412  -12.2405   26.5940 C   0  0  0  0  0  0  0  0  0  0  0  0
    7.9953  -13.4634   27.0392 C   0  0  0  0  0  0  0  0  0  0  0  0
    7.4732  -14.6531   26.5311 C   0  0  0  0  0  0  0  0  0  0  0  0
   10.9960  -17.3111   28.2298 C   0  0  0  0  0  0  0  0  0  0  0  0
   11.8472  -18.3575   27.9076 O   0  0  0  0  0  0  0  0  0  0  0  0
   11.1327  -16.8379   29.3905 O   0  0  0  0  0  0  0  0  0  0  0  0
  2  1  1  1
  3  2  1  0
  3  4  1  0
  4  5  2  0
  5  6  1  0
  7  6  1  0
  8  4  1  0
  8  7  2  0
  9  2  1  0
  9 10  2  0
 11  9  1  0
 12 11  1  0
 12 13  1  6
 14 13  1  0
 15 14  2  0
 16 19  1  0
 16 12  1  0
 17 16  2  0
 18 14  1  0
 20 19  1  0
 20 31  1  0
 21 22  1  0
 20 21  1  1
 22 30  1  0
 22 23  2  0
 23 24  1  0
 25 26  2  0
 25 24  1  0
 27 26  1  0
 28 27  2  0
 29 28  1  0
 29 30  2  0
 30 25  1  0
 31 32  1  0
 33 31  2  0
M  END
$$$$
