HDW.pdb
     RDKit          3D

 33 35  0  0  1  0  0  0  0  0999 V2000
    8.1384  -20.8133   22.3158 N   0  0  0  0  0  0  0  0  0  0  0  0
    7.9542  -19.4680   22.9333 C   0  0  1  0  0  0  0  0  0  0  0  0
    7.2922  -19.7641   24.2513 C   0  0  0  0  0  0  0  0  0  0  0  0
    5.9930  -20.4215   24.1803 C   0  0  0  0  0  0  0  0  0  0  0  0
    5.4644  -20.8282   22.9443 C   0  0  0  0  0  0  0  0  0  0  0  0
    4.2747  -21.3972   23.1687 N   0  0  0  0  0  0  0  0  0  0  0  0
    4.0447  -21.3566   24.5158 C   0  0  0  0  0  0  0  0  0  0  0  0
    5.0854  -20.7700   25.0922 N   0  0  0  0  0  0  0  0  0  0  0  0
    9.3245  -18.9539   23.1785 C   0  0  0  0  0  0  0  0  0  0  0  0
   10.1890  -19.8338   23.5335 O   0  0  0  0  0  0  0  0  0  0  0  0
    9.7335  -17.6039   23.0456 N   0  0  0  0  0  0  0  0  0  0  0  0
   11.1298  -17.3029   23.3731 C   0  0  1  0  0  0  0  0  0  0  0  0
   11.5435  -16.1801   22.4480 C   0  0  0  0  0  0  0  0  0  0  0  0
   12.9537  -15.7859   22.5384 C   0  0  0  0  0  0  0  0  0  0  0  0
   13.8307  -16.3023   23.2603 O   0  0  0  0  0  0  0  0  0  0  0  0
   11.2672  -16.8775   24.7756 C   0  0  0  0  0  0  0  0  0  0  0  0
   12.4193  -16.7606   25.2483 O   0  0  0  0  0  0  0  0  0  0  0  0
   13.3513  -14.6955   21.7077 O   0  0  0  0  0  0  0  0  0  0  0  0
   10.1837  -16.5824   25.6482 N   0  0  0  0  0  0  0  0  0  0  0  0
   10.3133  -16.2878   27.0619 C   0  0  1  0  0  0  0  0  0  0  0  0
    9.5004  -15.1227   27.4877 C   0  0  0  0  0  0  0  0  0  0  0  0
    8.3145  -14.8015   26.7125 C   0  0  0  0  0  0  0  0  0  0  0  0
    7.5026  -15.7541   26.1010 C   0  0  0  0  0  0  0  0  0  0  0  0
    6.4711  -15.1510   25.4875 N   0  0  0  0  0  0  0  0  0  0  0  0
    6.5949  -13.8172   25.6869 C   0  0  0  0  0  0  0  0  0  0  0  0
    5.8110  -12.7888   25.2634 C   0  0  0  0  0  0  0  0  0  0  0  0
    6.1242  -11.4783   25.5735 C   0  0  0  0  0  0  0  0  0  0  0  0
    7.2556  -11.2323   26.3260 C   0  0  0  0  0  0  0  0  0  0  0  0
    8.0520  -12.2715   26.7569 C   0  0  0  0  0  0  0  0  0  0  0  0
    7.7381  -13.5949   26.4466 C   0  0  0  0  0  0  0  0  0  0  0  0
   10.3414  -17.4683   27.9164 C   0  0  0  0  0  0  0  0  0  0  0  0
   10.1039  -18.7242   27.3783 O   0  0  0  0  0  0  0  0  0  0  0  0
   10.5755  -17.4439   29.1551 O   0  0  0  0  0  0  0  0  0  0  0  0
  2  1  1  6
  3  2  1  0
  3  4  1  0
  4  5  2  0
  5  6  1  0
  7  6  1  0
  8  4  1  0
  8  7  2  0
  9  2  1  0
  9 10  2  0
 11  9  1  0
 12 11  1  0
 12 13  1  6
 14 13  1  0
 15 14  2  0
 16 19  1  0
 16 12  1  0
 17 16  2  0
 18 14  1  0
 20 19  1  0
 20 31  1  0
 21 22  1  0
 20 21  1  1
 22 30  1  0
 22 23  2  0
 23 24  1  0
 25 26  2  0
 25 24  1  0
 27 26  1  0
 28 27  2  0
 29 28  1  0
 29 30  2  0
 30 25  1  0
 31 32  1  0
 33 31  2  0
M  END
$$$$
