HDW.pdb
     RDKit          3D

 33 35  0  0  1  0  0  0  0  0999 V2000
    7.8836  -17.1517   20.2071 N   0  0  0  0  0  0  0  0  0  0  0  0
    8.8700  -16.2410   20.8573 C   0  0  1  0  0  0  0  0  0  0  0  0
    8.0258  -15.1133   21.3852 C   0  0  0  0  0  0  0  0  0  0  0  0
    7.7461  -14.0319   20.4485 C   0  0  0  0  0  0  0  0  0  0  0  0
    8.2001  -14.1007   19.1212 C   0  0  0  0  0  0  0  0  0  0  0  0
    7.8077  -12.9885   18.4901 N   0  0  0  0  0  0  0  0  0  0  0  0
    7.1187  -12.2239   19.3901 C   0  0  0  0  0  0  0  0  0  0  0  0
    7.0984  -12.8711   20.5477 N   0  0  0  0  0  0  0  0  0  0  0  0
    9.4274  -17.0102   21.9974 C   0  0  0  0  0  0  0  0  0  0  0  0
    8.6443  -17.8924   22.5037 O   0  0  0  0  0  0  0  0  0  0  0  0
   10.7246  -16.8487   22.5439 N   0  0  0  0  0  0  0  0  0  0  0  0
   11.0746  -17.7102   23.6766 C   0  0  1  0  0  0  0  0  0  0  0  0
   12.5700  -17.9217   23.5946 C   0  0  0  0  0  0  0  0  0  0  0  0
   13.0409  -18.5719   22.3667 C   0  0  0  0  0  0  0  0  0  0  0  0
   13.7713  -18.0716   21.4874 O   0  0  0  0  0  0  0  0  0  0  0  0
   10.7245  -17.0735   24.9568 C   0  0  0  0  0  0  0  0  0  0  0  0
   11.1017  -15.8977   25.1556 O   0  0  0  0  0  0  0  0  0  0  0  0
   12.6112  -19.9186   22.1696 O   0  0  0  0  0  0  0  0  0  0  0  0
    9.9812  -17.6928   25.9992 N   0  0  0  0  0  0  0  0  0  0  0  0
    9.8576  -17.1780   27.3489 C   0  0  1  0  0  0  0  0  0  0  0  0
    8.4944  -16.6815   27.6569 C   0  0  0  0  0  0  0  0  0  0  0  0
    7.8645  -15.7872   26.7009 C   0  0  0  0  0  0  0  0  0  0  0  0
    7.1182  -16.2185   25.6065 C   0  0  0  0  0  0  0  0  0  0  0  0
    6.6420  -15.1596   24.9310 N   0  0  0  0  0  0  0  0  0  0  0  0
    7.0655  -14.0407   25.5657 C   0  0  0  0  0  0  0  0  0  0  0  0
    6.8555  -12.7294   25.2693 C   0  0  0  0  0  0  0  0  0  0  0  0
    7.3930  -11.7256   26.0536 C   0  0  0  0  0  0  0  0  0  0  0  0
    8.1524  -12.0825   27.1503 C   0  0  0  0  0  0  0  0  0  0  0  0
    8.3672  -13.4098   27.4537 C   0  0  0  0  0  0  0  0  0  0  0  0
    7.8253  -14.4249   26.6650 C   0  0  0  0  0  0  0  0  0  0  0  0
   10.5553  -17.9693   28.3547 C   0  0  0  0  0  0  0  0  0  0  0  0
   11.1689  -19.1617   28.0011 O   0  0  0  0  0  0  0  0  0  0  0  0
   10.6547  -17.6471   29.5696 O   0  0  0  0  0  0  0  0  0  0  0  0
  2  1  1  6
  3  2  1  0
  3  4  1  0
  4  5  2  0
  5  6  1  0
  7  6  1  0
  8  4  1  0
  8  7  2  0
  9  2  1  0
  9 10  2  0
 11  9  1  0
 12 11  1  0
 12 13  1  1
 14 13  1  0
 15 14  2  0
 16 19  1  0
 16 12  1  0
 17 16  2  0
 18 14  1  0
 20 19  1  0
 20 31  1  0
 21 22  1  0
 20 21  1  1
 22 30  1  0
 22 23  2  0
 23 24  1  0
 25 26  2  0
 25 24  1  0
 27 26  1  0
 28 27  2  0
 29 28  1  0
 29 30  2  0
 30 25  1  0
 31 32  1  0
 33 31  2  0
M  END
$$$$
