HDW.pdb
     RDKit          3D

 33 35  0  0  1  0  0  0  0  0999 V2000
    9.3246  -14.5435   21.3040 N   0  0  0  0  0  0  0  0  0  0  0  0
    8.0456  -15.2293   21.6490 C   0  0  1  0  0  0  0  0  0  0  0  0
    7.4411  -15.5586   20.3114 C   0  0  0  0  0  0  0  0  0  0  0  0
    7.5426  -14.5218   19.2916 C   0  0  0  0  0  0  0  0  0  0  0  0
    8.7664  -14.2662   18.6518 C   0  0  0  0  0  0  0  0  0  0  0  0
    8.5759  -13.2771   17.7716 N   0  0  0  0  0  0  0  0  0  0  0  0
    7.2618  -12.9064   17.8445 C   0  0  0  0  0  0  0  0  0  0  0  0
    6.6716  -13.6654   18.7583 N   0  0  0  0  0  0  0  0  0  0  0  0
    8.4418  -16.4868   22.3300 C   0  0  0  0  0  0  0  0  0  0  0  0
    7.4773  -17.2772   22.6347 O   0  0  0  0  0  0  0  0  0  0  0  0
    9.7685  -16.8668   22.6507 N   0  0  0  0  0  0  0  0  0  0  0  0
    9.9358  -18.1312   23.3724 C   0  0  1  0  0  0  0  0  0  0  0  0
   11.1180  -18.8246   22.7326 C   0  0  0  0  0  0  0  0  0  0  0  0
   11.4544  -20.1346   23.3009 C   0  0  0  0  0  0  0  0  0  0  0  0
   10.6686  -20.9427   23.8360 O   0  0  0  0  0  0  0  0  0  0  0  0
   10.2011  -17.8969   24.8012 C   0  0  0  0  0  0  0  0  0  0  0  0
   10.5162  -18.8760   25.5129 O   0  0  0  0  0  0  0  0  0  0  0  0
   12.8288  -20.5124   23.2271 O   0  0  0  0  0  0  0  0  0  0  0  0
   10.1298  -16.6319   25.4472 N   0  0  0  0  0  0  0  0  0  0  0  0
   10.1202  -16.4329   26.8833 C   0  0  1  0  0  0  0  0  0  0  0  0
    8.7530  -16.2855   27.4385 C   0  0  0  0  0  0  0  0  0  0  0  0
    7.8064  -15.4628   26.7052 C   0  0  0  0  0  0  0  0  0  0  0  0
    6.6911  -15.9655   26.0389 C   0  0  0  0  0  0  0  0  0  0  0  0
    5.9962  -14.9584   25.4848 N   0  0  0  0  0  0  0  0  0  0  0  0
    6.6396  -13.8031   25.7771 C   0  0  0  0  0  0  0  0  0  0  0  0
    6.3387  -12.5199   25.4392 C   0  0  0  0  0  0  0  0  0  0  0  0
    7.1446  -11.4694   25.8375 C   0  0  0  0  0  0  0  0  0  0  0  0
    8.2682  -11.7502   26.5895 C   0  0  0  0  0  0  0  0  0  0  0  0
    8.5762  -13.0489   26.9337 C   0  0  0  0  0  0  0  0  0  0  0  0
    7.7645  -14.1108   26.5343 C   0  0  0  0  0  0  0  0  0  0  0  0
   11.0811  -17.2574   27.6055 C   0  0  0  0  0  0  0  0  0  0  0  0
   11.2512  -17.0944   28.9721 O   0  0  0  0  0  0  0  0  0  0  0  0
   11.7992  -18.1455   27.0711 O   0  0  0  0  0  0  0  0  0  0  0  0
  2  1  1  6
  3  2  1  0
  3  4  1  0
  4  5  2  0
  5  6  1  0
  7  6  1  0
  8  4  1  0
  8  7  2  0
  9  2  1  0
  9 10  2  0
 11  9  1  0
 12 11  1  0
 12 13  1  6
 14 13  1  0
 15 14  2  0
 16 19  1  0
 16 12  1  0
 17 16  2  0
 18 14  1  0
 20 19  1  0
 20 31  1  0
 21 22  1  0
 20 21  1  1
 22 30  1  0
 22 23  2  0
 23 24  1  0
 25 26  2  0
 25 24  1  0
 27 26  1  0
 28 27  2  0
 29 28  1  0
 29 30  2  0
 30 25  1  0
 31 32  1  0
 33 31  2  0
M  END
$$$$
