HDW.pdb
     RDKit          3D

 33 35  0  0  1  0  0  0  0  0999 V2000
    7.1005  -16.6174   20.2098 N   0  0  0  0  0  0  0  0  0  0  0  0
    8.4601  -16.0888   20.5215 C   0  0  1  0  0  0  0  0  0  0  0  0
    8.1974  -14.7005   21.0378 C   0  0  0  0  0  0  0  0  0  0  0  0
    8.1077  -13.6504   20.0306 C   0  0  0  0  0  0  0  0  0  0  0  0
    8.3011  -13.9457   18.6712 C   0  0  0  0  0  0  0  0  0  0  0  0
    8.1636  -12.8110   17.9763 N   0  0  0  0  0  0  0  0  0  0  0  0
    7.8889  -11.8113   18.8677 C   0  0  0  0  0  0  0  0  0  0  0  0
    7.8619  -12.3414   20.0833 N   0  0  0  0  0  0  0  0  0  0  0  0
    8.9696  -16.9347   21.6292 C   0  0  0  0  0  0  0  0  0  0  0  0
    8.0956  -17.2897   22.4996 O   0  0  0  0  0  0  0  0  0  0  0  0
   10.3091  -17.3695   21.7841 N   0  0  0  0  0  0  0  0  0  0  0  0
   10.6062  -18.1797   22.9685 C   0  0  1  0  0  0  0  0  0  0  0  0
   11.8938  -18.9118   22.6620 C   0  0  0  0  0  0  0  0  0  0  0  0
   12.4056  -19.7540   23.7488 C   0  0  0  0  0  0  0  0  0  0  0  0
   11.7390  -20.4959   24.4984 O   0  0  0  0  0  0  0  0  0  0  0  0
   10.7782  -17.3346   24.1615 C   0  0  0  0  0  0  0  0  0  0  0  0
   11.5319  -16.3400   24.0783 O   0  0  0  0  0  0  0  0  0  0  0  0
   13.8165  -19.7110   23.9598 O   0  0  0  0  0  0  0  0  0  0  0  0
   10.1479  -17.5577   25.4166 N   0  0  0  0  0  0  0  0  0  0  0  0
   10.4519  -16.8373   26.6375 C   0  0  1  0  0  0  0  0  0  0  0  0
   10.0552  -15.4094   26.5816 C   0  0  0  0  0  0  0  0  0  0  0  0
    8.6626  -15.1010   26.3058 C   0  0  0  0  0  0  0  0  0  0  0  0
    7.6698  -16.0644   26.1416 C   0  0  0  0  0  0  0  0  0  0  0  0
    6.4844  -15.4690   25.9302 N   0  0  0  0  0  0  0  0  0  0  0  0
    6.6853  -14.1299   25.9526 C   0  0  0  0  0  0  0  0  0  0  0  0
    5.8049  -13.1063   25.7831 C   0  0  0  0  0  0  0  0  0  0  0  0
    6.2232  -11.7895   25.8351 C   0  0  0  0  0  0  0  0  0  0  0  0
    7.5606  -11.5321   26.0635 C   0  0  0  0  0  0  0  0  0  0  0  0
    8.4552  -12.5665   26.2358 C   0  0  0  0  0  0  0  0  0  0  0  0
    8.0361  -13.8961   26.1850 C   0  0  0  0  0  0  0  0  0  0  0  0
   10.1807  -17.5892   27.8564 C   0  0  0  0  0  0  0  0  0  0  0  0
   10.5980  -17.0995   29.0849 O   0  0  0  0  0  0  0  0  0  0  0  0
    9.5711  -18.6924   27.8904 O   0  0  0  0  0  0  0  0  0  0  0  0
  2  1  1  1
  3  2  1  0
  3  4  1  0
  4  5  2  0
  5  6  1  0
  7  6  1  0
  8  4  1  0
  8  7  2  0
  9  2  1  0
  9 10  2  0
 11  9  1  0
 12 11  1  0
 12 13  1  6
 14 13  1  0
 15 14  2  0
 16 19  1  0
 16 12  1  0
 17 16  2  0
 18 14  1  0
 20 19  1  0
 20 31  1  0
 21 22  1  0
 20 21  1  1
 22 30  1  0
 22 23  2  0
 23 24  1  0
 25 26  2  0
 25 24  1  0
 27 26  1  0
 28 27  2  0
 29 28  1  0
 29 30  2  0
 30 25  1  0
 31 32  1  0
 33 31  2  0
M  END
$$$$
