HDW.pdb
     RDKit          3D

 33 35  0  0  1  0  0  0  0  0999 V2000
   10.2277  -15.0346   18.4659 N   0  0  0  0  0  0  0  0  0  0  0  0
    9.3220  -14.7188   19.6083 C   0  0  1  0  0  0  0  0  0  0  0  0
    7.9440  -14.9460   19.0492 C   0  0  0  0  0  0  0  0  0  0  0  0
    7.8036  -14.7784   17.6079 C   0  0  0  0  0  0  0  0  0  0  0  0
    8.9266  -14.5166   16.8061 C   0  0  0  0  0  0  0  0  0  0  0  0
    8.5151  -14.4098   15.5377 N   0  0  0  0  0  0  0  0  0  0  0  0
    7.1609  -14.5981   15.5253 C   0  0  0  0  0  0  0  0  0  0  0  0
    6.7655  -14.8155   16.7726 N   0  0  0  0  0  0  0  0  0  0  0  0
    9.6087  -15.7488   20.6373 C   0  0  0  0  0  0  0  0  0  0  0  0
    9.0008  -16.8686   20.4819 O   0  0  0  0  0  0  0  0  0  0  0  0
   10.4838  -15.5897   21.7401 N   0  0  0  0  0  0  0  0  0  0  0  0
   10.6227  -16.7363   22.6421 C   0  0  1  0  0  0  0  0  0  0  0  0
   11.8317  -17.5053   22.1578 C   0  0  0  0  0  0  0  0  0  0  0  0
   12.1827  -18.6834   22.9586 C   0  0  0  0  0  0  0  0  0  0  0  0
   13.3116  -18.9792   23.4001 O   0  0  0  0  0  0  0  0  0  0  0  0
   10.8276  -16.2975   24.0322 C   0  0  0  0  0  0  0  0  0  0  0  0
   12.0002  -16.2120   24.4590 O   0  0  0  0  0  0  0  0  0  0  0  0
   11.1105  -19.5769   23.2571 O   0  0  0  0  0  0  0  0  0  0  0  0
    9.7885  -15.9564   24.9413 N   0  0  0  0  0  0  0  0  0  0  0  0
    9.6995  -16.4207   26.3119 C   0  0  1  0  0  0  0  0  0  0  0  0
    8.3056  -16.4757   26.8155 C   0  0  0  0  0  0  0  0  0  0  0  0
    7.3951  -15.4177   26.4129 C   0  0  0  0  0  0  0  0  0  0  0  0
    6.0948  -15.6386   25.9645 C   0  0  0  0  0  0  0  0  0  0  0  0
    5.4964  -14.4657   25.6990 N   0  0  0  0  0  0  0  0  0  0  0  0
    6.3851  -13.4793   25.9658 C   0  0  0  0  0  0  0  0  0  0  0  0
    6.2600  -12.1292   25.8512 C   0  0  0  0  0  0  0  0  0  0  0  0
    7.3076  -11.2858   26.1720 C   0  0  0  0  0  0  0  0  0  0  0  0
    8.4909  -11.8444   26.6133 C   0  0  0  0  0  0  0  0  0  0  0  0
    8.6212  -13.2115   26.7307 C   0  0  0  0  0  0  0  0  0  0  0  0
    7.5657  -14.0650   26.4090 C   0  0  0  0  0  0  0  0  0  0  0  0
   10.5988  -17.5236   26.6270 C   0  0  0  0  0  0  0  0  0  0  0  0
   11.4094  -17.4630   27.7506 O   0  0  0  0  0  0  0  0  0  0  0  0
   10.7052  -18.5736   25.9369 O   0  0  0  0  0  0  0  0  0  0  0  0
  2  1  1  6
  3  2  1  0
  3  4  1  0
  4  5  2  0
  5  6  1  0
  7  6  1  0
  8  4  1  0
  8  7  2  0
  9  2  1  0
  9 10  2  0
 11  9  1  0
 12 11  1  0
 12 13  1  6
 14 13  1  0
 15 14  2  0
 16 19  1  0
 16 12  1  0
 17 16  2  0
 18 14  1  0
 20 19  1  0
 20 31  1  0
 21 22  1  0
 20 21  1  6
 22 30  1  0
 22 23  2  0
 23 24  1  0
 25 26  2  0
 25 24  1  0
 27 26  1  0
 28 27  2  0
 29 28  1  0
 29 30  2  0
 30 25  1  0
 31 32  1  0
 33 31  2  0
M  END
$$$$
