HDW.pdb
     RDKit          3D

 33 35  0  0  1  0  0  0  0  0999 V2000
    7.9639  -17.2652   20.1980 N   0  0  0  0  0  0  0  0  0  0  0  0
    8.9045  -16.2508   20.7561 C   0  0  1  0  0  0  0  0  0  0  0  0
    8.0110  -15.1023   21.1377 C   0  0  0  0  0  0  0  0  0  0  0  0
    7.7734  -14.1057   20.1006 C   0  0  0  0  0  0  0  0  0  0  0  0
    8.3352  -14.2565   18.8223 C   0  0  0  0  0  0  0  0  0  0  0  0
    7.9595  -13.2106   18.0778 N   0  0  0  0  0  0  0  0  0  0  0  0
    7.1758  -12.4075   18.8590 C   0  0  0  0  0  0  0  0  0  0  0  0
    7.0829  -12.9664   20.0584 N   0  0  0  0  0  0  0  0  0  0  0  0
    9.4648  -16.8645   21.9855 C   0  0  0  0  0  0  0  0  0  0  0  0
    8.8147  -17.8711   22.4458 O   0  0  0  0  0  0  0  0  0  0  0  0
   10.6338  -16.4348   22.6611 N   0  0  0  0  0  0  0  0  0  0  0  0
   11.1145  -17.2859   23.7529 C   0  0  1  0  0  0  0  0  0  0  0  0
   12.6150  -17.3741   23.5847 C   0  0  0  0  0  0  0  0  0  0  0  0
   13.0665  -17.9846   22.3294 C   0  0  0  0  0  0  0  0  0  0  0  0
   12.7675  -19.1162   21.8972 O   0  0  0  0  0  0  0  0  0  0  0  0
   10.7873  -16.7036   25.0647 C   0  0  0  0  0  0  0  0  0  0  0  0
   11.1545  -15.5313   25.2998 O   0  0  0  0  0  0  0  0  0  0  0  0
   13.9390  -17.1893   21.5273 O   0  0  0  0  0  0  0  0  0  0  0  0
   10.0769  -17.3722   26.0995 N   0  0  0  0  0  0  0  0  0  0  0  0
    9.9949  -16.9212   27.4749 C   0  0  1  0  0  0  0  0  0  0  0  0
    8.6363  -16.4633   27.8544 C   0  0  0  0  0  0  0  0  0  0  0  0
    7.8930  -15.6689   26.8916 C   0  0  0  0  0  0  0  0  0  0  0  0
    7.1378  -16.2100   25.8536 C   0  0  0  0  0  0  0  0  0  0  0  0
    6.5462  -15.2261   25.1563 N   0  0  0  0  0  0  0  0  0  0  0  0
    6.9028  -14.0480   25.7212 C   0  0  0  0  0  0  0  0  0  0  0  0
    6.5718  -12.7734   25.3787 C   0  0  0  0  0  0  0  0  0  0  0  0
    7.0580  -11.6937   26.0924 C   0  0  0  0  0  0  0  0  0  0  0  0
    7.8917  -11.9360   27.1662 C   0  0  0  0  0  0  0  0  0  0  0  0
    8.2291  -13.2258   27.5162 C   0  0  0  0  0  0  0  0  0  0  0  0
    7.7393  -14.3174   26.7988 C   0  0  0  0  0  0  0  0  0  0  0  0
   10.7419  -17.7446   28.4175 C   0  0  0  0  0  0  0  0  0  0  0  0
   10.8839  -17.3401   29.7364 O   0  0  0  0  0  0  0  0  0  0  0  0
   11.2911  -18.8410   28.1239 O   0  0  0  0  0  0  0  0  0  0  0  0
  2  1  1  1
  3  2  1  0
  3  4  1  0
  4  5  2  0
  5  6  1  0
  7  6  1  0
  8  4  1  0
  8  7  2  0
  9  2  1  0
  9 10  2  0
 11  9  1  0
 12 11  1  0
 12 13  1  6
 14 13  1  0
 15 14  2  0
 16 19  1  0
 16 12  1  0
 17 16  2  0
 18 14  1  0
 20 19  1  0
 20 31  1  0
 21 22  1  0
 20 21  1  1
 22 30  1  0
 22 23  2  0
 23 24  1  0
 25 26  2  0
 25 24  1  0
 27 26  1  0
 28 27  2  0
 29 28  1  0
 29 30  2  0
 30 25  1  0
 31 32  1  0
 33 31  2  0
M  END
$$$$
