HDW.pdb
     RDKit          3D

 33 35  0  0  1  0  0  0  0  0999 V2000
    8.2106  -16.9316   19.2641 N   0  0  0  0  0  0  0  0  0  0  0  0
    9.1352  -16.0421   20.0252 C   0  0  1  0  0  0  0  0  0  0  0  0
    8.2809  -14.8572   20.3846 C   0  0  0  0  0  0  0  0  0  0  0  0
    7.9690  -13.9403   19.2951 C   0  0  0  0  0  0  0  0  0  0  0  0
    8.9950  -13.3809   18.5160 C   0  0  0  0  0  0  0  0  0  0  0  0
    8.4331  -12.5860   17.5985 N   0  0  0  0  0  0  0  0  0  0  0  0
    7.0793  -12.6336   17.7840 C   0  0  0  0  0  0  0  0  0  0  0  0
    6.8329  -13.4483   18.8014 N   0  0  0  0  0  0  0  0  0  0  0  0
    9.4781  -16.7908   21.2597 C   0  0  0  0  0  0  0  0  0  0  0  0
    8.5002  -17.4005   21.8252 O   0  0  0  0  0  0  0  0  0  0  0  0
   10.7695  -16.8823   21.8353 N   0  0  0  0  0  0  0  0  0  0  0  0
   10.9167  -17.7791   22.9849 C   0  0  1  0  0  0  0  0  0  0  0  0
   12.2209  -18.5160   22.7760 C   0  0  0  0  0  0  0  0  0  0  0  0
   12.6161  -19.4064   23.8730 C   0  0  0  0  0  0  0  0  0  0  0  0
   11.8624  -20.1142   24.5713 O   0  0  0  0  0  0  0  0  0  0  0  0
   10.9612  -17.0228   24.2470 C   0  0  0  0  0  0  0  0  0  0  0  0
   11.7063  -16.0202   24.3101 O   0  0  0  0  0  0  0  0  0  0  0  0
   14.0130  -19.4593   24.1611 O   0  0  0  0  0  0  0  0  0  0  0  0
   10.2153  -17.3412   25.4153 N   0  0  0  0  0  0  0  0  0  0  0  0
   10.4494  -16.7749   26.7292 C   0  0  1  0  0  0  0  0  0  0  0  0
    9.9053  -15.4029   26.8740 C   0  0  0  0  0  0  0  0  0  0  0  0
    8.5247  -15.1744   26.4840 C   0  0  0  0  0  0  0  0  0  0  0  0
    7.5520  -16.1708   26.4440 C   0  0  0  0  0  0  0  0  0  0  0  0
    6.3719  -15.6445   26.0771 N   0  0  0  0  0  0  0  0  0  0  0  0
    6.5564  -14.3182   25.8752 C   0  0  0  0  0  0  0  0  0  0  0  0
    5.6742  -13.3569   25.4890 C   0  0  0  0  0  0  0  0  0  0  0  0
    6.0747  -12.0431   25.3303 C   0  0  0  0  0  0  0  0  0  0  0  0
    7.3961  -11.7239   25.5726 C   0  0  0  0  0  0  0  0  0  0  0  0
    8.2927  -12.6950   25.9639 C   0  0  0  0  0  0  0  0  0  0  0  0
    7.8915  -14.0212   26.1261 C   0  0  0  0  0  0  0  0  0  0  0  0
   10.2652  -17.7174   27.8257 C   0  0  0  0  0  0  0  0  0  0  0  0
    9.7349  -18.9754   27.5820 O   0  0  0  0  0  0  0  0  0  0  0  0
   10.5619  -17.4769   29.0274 O   0  0  0  0  0  0  0  0  0  0  0  0
  2  1  1  6
  3  2  1  0
  3  4  1  0
  4  5  2  0
  5  6  1  0
  7  6  1  0
  8  4  1  0
  8  7  2  0
  9  2  1  0
  9 10  2  0
 11  9  1  0
 12 11  1  0
 12 13  1  6
 14 13  1  0
 15 14  2  0
 16 19  1  0
 16 12  1  0
 17 16  2  0
 18 14  1  0
 20 19  1  0
 20 31  1  0
 21 22  1  0
 20 21  1  1
 22 30  1  0
 22 23  2  0
 23 24  1  0
 25 26  2  0
 25 24  1  0
 27 26  1  0
 28 27  2  0
 29 28  1  0
 29 30  2  0
 30 25  1  0
 31 32  1  0
 33 31  2  0
M  END
$$$$
