HDW.pdb
     RDKit          3D

 33 35  0  0  1  0  0  0  0  0999 V2000
    6.9431  -16.7545   19.8985 N   0  0  0  0  0  0  0  0  0  0  0  0
    8.4073  -16.4726   19.9391 C   0  0  1  0  0  0  0  0  0  0  0  0
    8.4831  -14.9734   20.0368 C   0  0  0  0  0  0  0  0  0  0  0  0
    8.3814  -14.2450   18.7780 C   0  0  0  0  0  0  0  0  0  0  0  0
    7.6430  -13.0529   18.6997 C   0  0  0  0  0  0  0  0  0  0  0  0
    7.7172  -12.6005   17.4431 N   0  0  0  0  0  0  0  0  0  0  0  0
    8.4843  -13.4807   16.7316 C   0  0  0  0  0  0  0  0  0  0  0  0
    8.8657  -14.4497   17.5532 N   0  0  0  0  0  0  0  0  0  0  0  0
    8.8908  -17.0708   21.2081 C   0  0  0  0  0  0  0  0  0  0  0  0
    7.9918  -17.2692   22.1026 O   0  0  0  0  0  0  0  0  0  0  0  0
   10.2313  -17.4330   21.4895 N   0  0  0  0  0  0  0  0  0  0  0  0
   10.4621  -18.2067   22.7125 C   0  0  1  0  0  0  0  0  0  0  0  0
   11.7103  -19.0231   22.4614 C   0  0  0  0  0  0  0  0  0  0  0  0
   11.6048  -20.0052   21.3766 C   0  0  0  0  0  0  0  0  0  0  0  0
   12.2055  -19.9805   20.2833 O   0  0  0  0  0  0  0  0  0  0  0  0
   10.6629  -17.3218   23.8716 C   0  0  0  0  0  0  0  0  0  0  0  0
   11.4949  -16.3934   23.7702 O   0  0  0  0  0  0  0  0  0  0  0  0
   10.7183  -21.0992   21.6095 O   0  0  0  0  0  0  0  0  0  0  0  0
    9.9782  -17.4357   25.1129 N   0  0  0  0  0  0  0  0  0  0  0  0
   10.4391  -16.8775   26.3690 C   0  0  1  0  0  0  0  0  0  0  0  0
    9.7143  -15.6423   26.7546 C   0  0  0  0  0  0  0  0  0  0  0  0
    8.5020  -15.3100   26.0263 C   0  0  0  0  0  0  0  0  0  0  0  0
    7.3242  -16.0506   26.0964 C   0  0  0  0  0  0  0  0  0  0  0  0
    6.3760  -15.4759   25.3381 N   0  0  0  0  0  0  0  0  0  0  0  0
    6.9147  -14.3701   24.7715 C   0  0  0  0  0  0  0  0  0  0  0  0
    6.3642  -13.4611   23.9217 C   0  0  0  0  0  0  0  0  0  0  0  0
    7.1007  -12.3924   23.4453 C   0  0  0  0  0  0  0  0  0  0  0  0
    8.4145  -12.2653   23.8511 C   0  0  0  0  0  0  0  0  0  0  0  0
    8.9755  -13.1841   24.7119 C   0  0  0  0  0  0  0  0  0  0  0  0
    8.2347  -14.2628   25.1953 C   0  0  0  0  0  0  0  0  0  0  0  0
   10.7169  -17.8727   27.3971 C   0  0  0  0  0  0  0  0  0  0  0  0
   11.3675  -17.5052   28.5654 O   0  0  0  0  0  0  0  0  0  0  0  0
   10.4006  -19.0903   27.3119 O   0  0  0  0  0  0  0  0  0  0  0  0
  2  1  1  1
  3  2  1  0
  3  4  1  0
  4  5  2  0
  5  6  1  0
  7  6  1  0
  8  4  1  0
  8  7  2  0
  9  2  1  0
  9 10  2  0
 11  9  1  0
 12 11  1  0
 12 13  1  6
 14 13  1  0
 15 14  2  0
 16 19  1  0
 16 12  1  0
 17 16  2  0
 18 14  1  0
 20 19  1  0
 20 31  1  0
 21 22  1  0
 20 21  1  1
 22 30  1  0
 22 23  2  0
 23 24  1  0
 25 26  2  0
 25 24  1  0
 27 26  1  0
 28 27  2  0
 29 28  1  0
 29 30  2  0
 30 25  1  0
 31 32  1  0
 33 31  2  0
M  END
$$$$
