HDW.pdb
     RDKit          3D

 33 35  0  0  1  0  0  0  0  0999 V2000
    7.8211  -17.2171   19.0940 N   0  0  0  0  0  0  0  0  0  0  0  0
    8.8032  -16.3494   19.8066 C   0  0  1  0  0  0  0  0  0  0  0  0
    7.9685  -15.2093   20.3230 C   0  0  0  0  0  0  0  0  0  0  0  0
    7.7573  -14.1021   19.3986 C   0  0  0  0  0  0  0  0  0  0  0  0
    8.1975  -14.1883   18.0677 C   0  0  0  0  0  0  0  0  0  0  0  0
    7.8778  -13.0458   17.4499 N   0  0  0  0  0  0  0  0  0  0  0  0
    7.2478  -12.2452   18.3618 C   0  0  0  0  0  0  0  0  0  0  0  0
    7.1906  -12.9011   19.5133 N   0  0  0  0  0  0  0  0  0  0  0  0
    9.2886  -17.1586   20.9519 C   0  0  0  0  0  0  0  0  0  0  0  0
    8.4487  -18.0066   21.4241 O   0  0  0  0  0  0  0  0  0  0  0  0
   10.5757  -17.0680   21.5372 N   0  0  0  0  0  0  0  0  0  0  0  0
   10.8636  -17.9869   22.6419 C   0  0  1  0  0  0  0  0  0  0  0  0
   12.2159  -18.5933   22.3397 C   0  0  0  0  0  0  0  0  0  0  0  0
   12.7602  -19.4581   23.3924 C   0  0  0  0  0  0  0  0  0  0  0  0
   12.1949  -20.4335   23.9269 O   0  0  0  0  0  0  0  0  0  0  0  0
   10.9067  -17.2741   23.9291 C   0  0  0  0  0  0  0  0  0  0  0  0
   11.6094  -16.2427   24.0110 O   0  0  0  0  0  0  0  0  0  0  0  0
   14.0763  -19.1390   23.8435 O   0  0  0  0  0  0  0  0  0  0  0  0
   10.2040  -17.6654   25.1020 N   0  0  0  0  0  0  0  0  0  0  0  0
   10.4582  -17.1490   26.4326 C   0  0  1  0  0  0  0  0  0  0  0  0
   10.1209  -15.7113   26.5702 C   0  0  0  0  0  0  0  0  0  0  0  0
    8.7588  -15.3013   26.2753 C   0  0  0  0  0  0  0  0  0  0  0  0
    7.6961  -16.1880   26.1169 C   0  0  0  0  0  0  0  0  0  0  0  0
    6.5621  -15.5068   25.8838 N   0  0  0  0  0  0  0  0  0  0  0  0
    6.8655  -14.1869   25.8863 C   0  0  0  0  0  0  0  0  0  0  0  0
    6.0684  -13.1016   25.6912 C   0  0  0  0  0  0  0  0  0  0  0  0
    6.5866  -11.8202   25.7259 C   0  0  0  0  0  0  0  0  0  0  0  0
    7.9378  -11.6628   25.9637 C   0  0  0  0  0  0  0  0  0  0  0  0
    8.7483  -12.7600   26.1618 C   0  0  0  0  0  0  0  0  0  0  0  0
    8.2283  -14.0540   26.1286 C   0  0  0  0  0  0  0  0  0  0  0  0
   10.0821  -18.0594   27.5070 C   0  0  0  0  0  0  0  0  0  0  0  0
   10.4296  -17.7715   28.8184 O   0  0  0  0  0  0  0  0  0  0  0  0
    9.4385  -19.1305   27.3387 O   0  0  0  0  0  0  0  0  0  0  0  0
  2  1  1  6
  3  2  1  0
  3  4  1  0
  4  5  2  0
  5  6  1  0
  7  6  1  0
  8  4  1  0
  8  7  2  0
  9  2  1  0
  9 10  2  0
 11  9  1  0
 12 11  1  0
 12 13  1  6
 14 13  1  0
 15 14  2  0
 16 19  1  0
 16 12  1  0
 17 16  2  0
 18 14  1  0
 20 19  1  0
 20 31  1  0
 21 22  1  0
 20 21  1  1
 22 30  1  0
 22 23  2  0
 23 24  1  0
 25 26  2  0
 25 24  1  0
 27 26  1  0
 28 27  2  0
 29 28  1  0
 29 30  2  0
 30 25  1  0
 31 32  1  0
 33 31  2  0
M  END
$$$$
