HDW.pdb
     RDKit          3D

 33 35  0  0  1  0  0  0  0  0999 V2000
   10.2384  -15.2142   19.0757 N   0  0  0  0  0  0  0  0  0  0  0  0
    8.9847  -15.1179   19.8784 C   0  0  1  0  0  0  0  0  0  0  0  0
    7.9059  -15.5236   18.9117 C   0  0  0  0  0  0  0  0  0  0  0  0
    7.8594  -14.7816   17.6577 C   0  0  0  0  0  0  0  0  0  0  0  0
    8.8526  -13.8379   17.3485 C   0  0  0  0  0  0  0  0  0  0  0  0
    8.5676  -13.3124   16.1519 N   0  0  0  0  0  0  0  0  0  0  0  0
    7.4193  -13.9039   15.7036 C   0  0  0  0  0  0  0  0  0  0  0  0
    7.0209  -14.7744   16.6217 N   0  0  0  0  0  0  0  0  0  0  0  0
    9.1102  -16.1529   20.9344 C   0  0  0  0  0  0  0  0  0  0  0  0
    8.0940  -16.2776   21.7087 O   0  0  0  0  0  0  0  0  0  0  0  0
   10.2346  -16.9908   21.1366 N   0  0  0  0  0  0  0  0  0  0  0  0
   10.2394  -17.8047   22.3553 C   0  0  1  0  0  0  0  0  0  0  0  0
   11.2736  -18.8856   22.1322 C   0  0  0  0  0  0  0  0  0  0  0  0
   12.4991  -18.4455   21.4564 C   0  0  0  0  0  0  0  0  0  0  0  0
   12.6201  -18.1314   20.2550 O   0  0  0  0  0  0  0  0  0  0  0  0
   10.5995  -16.9974   23.5324 C   0  0  0  0  0  0  0  0  0  0  0  0
   11.3143  -15.9857   23.3599 O   0  0  0  0  0  0  0  0  0  0  0  0
   13.6690  -18.3731   22.2708 O   0  0  0  0  0  0  0  0  0  0  0  0
   10.1944  -17.2756   24.8670 N   0  0  0  0  0  0  0  0  0  0  0  0
   10.2412  -16.3277   25.9630 C   0  0  1  0  0  0  0  0  0  0  0  0
    9.7117  -14.9917   25.5965 C   0  0  0  0  0  0  0  0  0  0  0  0
    8.3072  -14.7233   25.8532 C   0  0  0  0  0  0  0  0  0  0  0  0
    7.3174  -15.7035   25.8676 C   0  0  0  0  0  0  0  0  0  0  0  0
    6.1296  -15.1505   26.1637 N   0  0  0  0  0  0  0  0  0  0  0  0
    6.3257  -13.8225   26.3428 C   0  0  0  0  0  0  0  0  0  0  0  0
    5.4391  -12.8367   26.6487 C   0  0  0  0  0  0  0  0  0  0  0  0
    5.8500  -11.5230   26.7796 C   0  0  0  0  0  0  0  0  0  0  0  0
    7.1862  -11.2294   26.5922 C   0  0  0  0  0  0  0  0  0  0  0  0
    8.0872  -12.2255   26.2824 C   0  0  0  0  0  0  0  0  0  0  0  0
    7.6760  -13.5520   26.1507 C   0  0  0  0  0  0  0  0  0  0  0  0
    9.8742  -16.8927   27.2556 C   0  0  0  0  0  0  0  0  0  0  0  0
    9.3399  -18.1702   27.3315 O   0  0  0  0  0  0  0  0  0  0  0  0
   10.0092  -16.2944   28.3572 O   0  0  0  0  0  0  0  0  0  0  0  0
  2  1  1  6
  3  2  1  0
  3  4  1  0
  4  5  2  0
  5  6  1  0
  7  6  1  0
  8  4  1  0
  8  7  2  0
  9  2  1  0
  9 10  2  0
 11  9  1  0
 12 11  1  0
 12 13  1  6
 14 13  1  0
 15 14  2  0
 16 19  1  0
 16 12  1  0
 17 16  2  0
 18 14  1  0
 20 19  1  0
 20 31  1  0
 21 22  1  0
 20 21  1  6
 22 30  1  0
 22 23  2  0
 23 24  1  0
 25 26  2  0
 25 24  1  0
 27 26  1  0
 28 27  2  0
 29 28  1  0
 29 30  2  0
 30 25  1  0
 31 32  1  0
 33 31  2  0
M  END
$$$$
