HDW.pdb
     RDKit          3D

 33 35  0  0  1  0  0  0  0  0999 V2000
    8.7085  -17.0554   19.8676 N   0  0  0  0  0  0  0  0  0  0  0  0
    9.3805  -16.0408   20.7303 C   0  0  1  0  0  0  0  0  0  0  0  0
    8.2843  -15.0645   21.0590 C   0  0  0  0  0  0  0  0  0  0  0  0
    7.8200  -14.2303   19.9573 C   0  0  0  0  0  0  0  0  0  0  0  0
    8.2801  -12.9108   19.8169 C   0  0  0  0  0  0  0  0  0  0  0  0
    7.6996  -12.3818   18.7341 N   0  0  0  0  0  0  0  0  0  0  0  0
    6.8864  -13.3382   18.1924 C   0  0  0  0  0  0  0  0  0  0  0  0
    6.9788  -14.4282   18.9425 N   0  0  0  0  0  0  0  0  0  0  0  0
    9.7745  -16.7675   21.9627 C   0  0  0  0  0  0  0  0  0  0  0  0
    8.9217  -17.6237   22.3953 O   0  0  0  0  0  0  0  0  0  0  0  0
   10.9905  -16.5926   22.6684 N   0  0  0  0  0  0  0  0  0  0  0  0
   11.2066  -17.4553   23.8332 C   0  0  1  0  0  0  0  0  0  0  0  0
   12.6695  -17.8384   23.8042 C   0  0  0  0  0  0  0  0  0  0  0  0
   13.0613  -18.7187   22.6980 C   0  0  0  0  0  0  0  0  0  0  0  0
   13.6951  -18.3961   21.6728 O   0  0  0  0  0  0  0  0  0  0  0  0
   10.8954  -16.7463   25.0851 C   0  0  0  0  0  0  0  0  0  0  0  0
   11.3467  -15.5899   25.2380 O   0  0  0  0  0  0  0  0  0  0  0  0
   12.6702  -20.0860   22.8201 O   0  0  0  0  0  0  0  0  0  0  0  0
   10.1119  -17.2740   26.1482 N   0  0  0  0  0  0  0  0  0  0  0  0
    9.9232  -16.6355   27.4361 C   0  0  1  0  0  0  0  0  0  0  0  0
    8.5020  -16.3272   27.7271 C   0  0  0  0  0  0  0  0  0  0  0  0
    7.7666  -15.5327   26.7584 C   0  0  0  0  0  0  0  0  0  0  0  0
    6.9192  -16.0712   25.7927 C   0  0  0  0  0  0  0  0  0  0  0  0
    6.3629  -15.0848   25.0702 N   0  0  0  0  0  0  0  0  0  0  0  0
    6.8334  -13.9079   25.5472 C   0  0  0  0  0  0  0  0  0  0  0  0
    6.5768  -12.6325   25.1485 C   0  0  0  0  0  0  0  0  0  0  0  0
    7.1774  -11.5552   25.7732 C   0  0  0  0  0  0  0  0  0  0  0  0
    8.0486  -11.8008   26.8160 C   0  0  0  0  0  0  0  0  0  0  0  0
    8.3109  -13.0914   27.2228 C   0  0  0  0  0  0  0  0  0  0  0  0
    7.7056  -14.1805   26.5953 C   0  0  0  0  0  0  0  0  0  0  0  0
   10.7492  -17.1886   28.5021 C   0  0  0  0  0  0  0  0  0  0  0  0
   11.5336  -18.3078   28.2667 O   0  0  0  0  0  0  0  0  0  0  0  0
   10.8159  -16.7145   29.6685 O   0  0  0  0  0  0  0  0  0  0  0  0
  2  1  1  6
  3  2  1  0
  3  4  1  0
  4  5  2  0
  5  6  1  0
  7  6  1  0
  8  4  1  0
  8  7  2  0
  9  2  1  0
  9 10  2  0
 11  9  1  0
 12 11  1  0
 12 13  1  1
 14 13  1  0
 15 14  2  0
 16 19  1  0
 16 12  1  0
 17 16  2  0
 18 14  1  0
 20 19  1  0
 20 31  1  0
 21 22  1  0
 20 21  1  1
 22 30  1  0
 22 23  2  0
 23 24  1  0
 25 26  2  0
 25 24  1  0
 27 26  1  0
 28 27  2  0
 29 28  1  0
 29 30  2  0
 30 25  1  0
 31 32  1  0
 33 31  2  0
M  END
$$$$
