HDW.pdb
     RDKit          3D

 33 35  0  0  1  0  0  0  0  0999 V2000
    7.4800  -16.9546   20.2899 N   0  0  0  0  0  0  0  0  0  0  0  0
    8.7214  -16.1978   20.6232 C   0  0  1  0  0  0  0  0  0  0  0  0
    8.2154  -14.8502   21.0603 C   0  0  0  0  0  0  0  0  0  0  0  0
    8.0832  -13.8463   20.0115 C   0  0  0  0  0  0  0  0  0  0  0  0
    8.4381  -14.1465   18.6862 C   0  0  0  0  0  0  0  0  0  0  0  0
    8.2188  -13.0574   17.9410 N   0  0  0  0  0  0  0  0  0  0  0  0
    7.7351  -12.0816   18.7677 C   0  0  0  0  0  0  0  0  0  0  0  0
    7.6652  -12.5808   19.9946 N   0  0  0  0  0  0  0  0  0  0  0  0
    9.3125  -16.9003   21.7890 C   0  0  0  0  0  0  0  0  0  0  0  0
    8.5164  -17.6811   22.4249 O   0  0  0  0  0  0  0  0  0  0  0  0
   10.6532  -16.7785   22.2307 N   0  0  0  0  0  0  0  0  0  0  0  0
   11.0492  -17.6084   23.3718 C   0  0  1  0  0  0  0  0  0  0  0  0
   12.5086  -17.9436   23.1584 C   0  0  0  0  0  0  0  0  0  0  0  0
   13.0858  -18.8676   24.1410 C   0  0  0  0  0  0  0  0  0  0  0  0
   12.5047  -19.8133   24.7109 O   0  0  0  0  0  0  0  0  0  0  0  0
   10.8786  -16.8833   24.6414 C   0  0  0  0  0  0  0  0  0  0  0  0
   11.3750  -15.7396   24.7409 O   0  0  0  0  0  0  0  0  0  0  0  0
   14.4575  -18.6509   24.4705 O   0  0  0  0  0  0  0  0  0  0  0  0
   10.1848  -17.3817   25.7784 N   0  0  0  0  0  0  0  0  0  0  0  0
   10.0529  -16.6832   27.0420 C   0  0  1  0  0  0  0  0  0  0  0  0
    8.6410  -16.4967   27.4561 C   0  0  0  0  0  0  0  0  0  0  0  0
    7.7118  -15.9554   26.4794 C   0  0  0  0  0  0  0  0  0  0  0  0
    6.8652  -16.7353   25.6949 C   0  0  0  0  0  0  0  0  0  0  0  0
    6.1076  -15.9465   24.9151 N   0  0  0  0  0  0  0  0  0  0  0  0
    6.4454  -14.6612   25.1760 C   0  0  0  0  0  0  0  0  0  0  0  0
    5.9714  -13.5025   24.6430 C   0  0  0  0  0  0  0  0  0  0  0  0
    6.4655  -12.2763   25.0479 C   0  0  0  0  0  0  0  0  0  0  0  0
    7.4561  -12.2508   26.0096 C   0  0  0  0  0  0  0  0  0  0  0  0
    7.9387  -13.4226   26.5519 C   0  0  0  0  0  0  0  0  0  0  0  0
    7.4414  -14.6613   26.1463 C   0  0  0  0  0  0  0  0  0  0  0  0
   11.0279  -17.0835   28.0487 C   0  0  0  0  0  0  0  0  0  0  0  0
   11.9247  -18.1072   27.7823 O   0  0  0  0  0  0  0  0  0  0  0  0
   11.1313  -16.5542   29.1884 O   0  0  0  0  0  0  0  0  0  0  0  0
  2  1  1  1
  3  2  1  0
  3  4  1  0
  4  5  2  0
  5  6  1  0
  7  6  1  0
  8  4  1  0
  8  7  2  0
  9  2  1  0
  9 10  2  0
 11  9  1  0
 12 11  1  0
 12 13  1  6
 14 13  1  0
 15 14  2  0
 16 19  1  0
 16 12  1  0
 17 16  2  0
 18 14  1  0
 20 19  1  0
 20 31  1  0
 21 22  1  0
 20 21  1  1
 22 30  1  0
 22 23  2  0
 23 24  1  0
 25 26  2  0
 25 24  1  0
 27 26  1  0
 28 27  2  0
 29 28  1  0
 29 30  2  0
 30 25  1  0
 31 32  1  0
 33 31  2  0
M  END
$$$$
