MQQ.pdb
     RDKit          3D

 27 26  0  0  1  0  0  0  0  0999 V2000
    8.8747  -11.8723   20.2946 C   0  0  0  0  0  0  0  0  0  0  0  0
    7.4093  -12.9220   20.2136 S   0  0  0  0  0  0  0  0  0  0  0  0
    7.8761  -14.4789   19.3845 C   0  0  0  0  0  0  0  0  0  0  0  0
    6.6641  -15.3809   19.4210 C   0  0  0  0  0  0  0  0  0  0  0  0
    7.0485  -16.7154   18.8307 C   0  0  2  0  0  0  0  0  0  0  0  0
    5.9063  -17.6005   18.7409 N   0  0  0  0  0  0  0  0  0  0  0  0
    8.1395  -17.3029   19.6250 C   0  0  0  0  0  0  0  0  0  0  0  0
    7.8604  -17.7750   20.7588 O   0  0  0  0  0  0  0  0  0  0  0  0
   13.4277  -19.4680   17.3550 N   0  0  0  0  0  0  0  0  0  0  0  0
   13.4789  -18.0922   17.7068 C   0  0  0  0  0  0  0  0  0  0  0  0
   14.3566  -17.3604   17.2077 O   0  0  0  0  0  0  0  0  0  0  0  0
   12.4943  -17.5205   18.6645 C   0  0  0  0  0  0  0  0  0  0  0  0
   11.5335  -18.6063   19.0905 C   0  0  0  0  0  0  0  0  0  0  0  0
   10.4594  -18.0701   20.0005 C   0  0  2  0  0  0  0  0  0  0  0  0
    9.4841  -17.3713   19.1990 N   0  0  0  0  0  0  0  0  0  0  0  0
   11.1291  -17.0919   20.9187 C   0  0  0  0  0  0  0  0  0  0  0  0
   11.5160  -16.0081   20.4530 O   0  0  0  0  0  0  0  0  0  0  0  0
    8.6575  -14.2355   24.2289 N   0  0  0  0  0  0  0  0  0  0  0  0
    8.7589  -15.4809   24.9116 C   0  0  0  0  0  0  0  0  0  0  0  0
    7.8555  -15.9505   25.6419 O   0  0  0  0  0  0  0  0  0  0  0  0
   10.0350  -16.2523   24.7254 C   0  0  0  0  0  0  0  0  0  0  0  0
   10.9815  -15.5030   23.8276 C   0  0  0  0  0  0  0  0  0  0  0  0
   11.9632  -16.4380   23.2163 C   0  0  2  0  0  0  0  0  0  0  0  0
   11.3309  -17.3682   22.2922 N   0  0  0  0  0  0  0  0  0  0  0  0
   12.8816  -17.1098   24.1362 C   0  0  0  0  0  0  0  0  0  0  0  0
   13.6310  -16.4129   24.9174 O   0  0  0  0  0  0  0  0  0  0  0  0
   13.0558  -18.4733   24.2846 O   0  0  0  0  0  0  0  0  0  0  0  0
  2  1  1  0
  3  4  1  0
  3  2  1  0
  4  5  1  0
  5  6  1  1
  7  5  1  0
  7  8  2  0
  9 10  1  0
 10 12  1  0
 10 11  2  0
 12 13  1  0
 14 13  1  6
 14 15  1  0
 15  7  1  0
 16 14  1  0
 17 16  2  0
 19 20  2  0
 19 18  1  0
 21 19  1  0
 22 21  1  0
 23 22  1  1
 23 24  1  0
 24 16  1  0
 25 23  1  0
 26 25  2  0
 27 25  1  0
M  END
$$$$
