MQQ.pdb
     RDKit          3D

 27 26  0  0  1  0  0  0  0  0999 V2000
    7.8479  -11.7121   27.0178 C   0  0  0  0  0  0  0  0  0  0  0  0
    6.1700  -12.2022   26.5703 S   0  0  0  0  0  0  0  0  0  0  0  0
    5.9451  -13.9476   27.0522 C   0  0  0  0  0  0  0  0  0  0  0  0
    6.9552  -14.7565   26.2715 C   0  0  0  0  0  0  0  0  0  0  0  0
    6.2147  -15.5689   25.2376 C   0  0  2  0  0  0  0  0  0  0  0  0
    5.7055  -16.8012   25.8016 N   0  0  0  0  0  0  0  0  0  0  0  0
    7.0987  -15.8138   24.0865 C   0  0  0  0  0  0  0  0  0  0  0  0
    7.8258  -16.8421   24.1049 O   0  0  0  0  0  0  0  0  0  0  0  0
    7.4539  -12.8351   18.5596 N   0  0  0  0  0  0  0  0  0  0  0  0
    8.6360  -13.6235   18.5487 C   0  0  0  0  0  0  0  0  0  0  0  0
    9.3318  -13.6774   17.5152 O   0  0  0  0  0  0  0  0  0  0  0  0
    9.0480  -14.3835   19.7595 C   0  0  0  0  0  0  0  0  0  0  0  0
    7.9760  -14.2466   20.8158 C   0  0  0  0  0  0  0  0  0  0  0  0
    8.1903  -15.2129   21.9514 C   0  0  2  0  0  0  0  0  0  0  0  0
    7.1870  -14.9682   22.9591 N   0  0  0  0  0  0  0  0  0  0  0  0
    9.5421  -14.9050   22.5225 C   0  0  0  0  0  0  0  0  0  0  0  0
    9.7484  -13.7713   22.9844 O   0  0  0  0  0  0  0  0  0  0  0  0
   11.8304  -14.3701   27.8822 N   0  0  0  0  0  0  0  0  0  0  0  0
   11.2510  -15.5661   27.3713 C   0  0  0  0  0  0  0  0  0  0  0  0
   10.3071  -16.1753   27.9264 O   0  0  0  0  0  0  0  0  0  0  0  0
   11.8267  -16.1034   26.0914 C   0  0  0  0  0  0  0  0  0  0  0  0
   10.8241  -16.0003   24.9745 C   0  0  0  0  0  0  0  0  0  0  0  0
   11.5147  -16.0109   23.6575 C   0  0  2  0  0  0  0  0  0  0  0  0
   10.5823  -15.8646   22.5493 N   0  0  0  0  0  0  0  0  0  0  0  0
   12.4740  -17.0931   23.4348 C   0  0  0  0  0  0  0  0  0  0  0  0
   13.4939  -17.2163   24.2108 O   0  0  0  0  0  0  0  0  0  0  0  0
   12.4215  -18.0561   22.4441 O   0  0  0  0  0  0  0  0  0  0  0  0
  2  1  1  0
  3  4  1  0
  3  2  1  0
  4  5  1  0
  5  6  1  1
  7  5  1  0
  7  8  2  0
  9 10  1  0
 10 12  1  0
 10 11  2  0
 12 13  1  0
 14 13  1  6
 14 15  1  0
 15  7  1  0
 16 14  1  0
 17 16  2  0
 19 20  2  0
 19 18  1  0
 21 19  1  0
 22 21  1  0
 23 22  1  1
 23 24  1  0
 24 16  1  0
 25 23  1  0
 26 25  2  0
 27 25  1  0
M  END
$$$$
