MQQ.pdb
     RDKit          3D

 27 26  0  0  1  0  0  0  0  0999 V2000
    7.2276  -10.7048   26.7826 C   0  0  0  0  0  0  0  0  0  0  0  0
    5.5991  -11.4817   26.7761 S   0  0  0  0  0  0  0  0  0  0  0  0
    5.8335  -13.2839   26.9379 C   0  0  0  0  0  0  0  0  0  0  0  0
    5.8208  -13.8596   25.5407 C   0  0  0  0  0  0  0  0  0  0  0  0
    6.9233  -14.8852   25.4406 C   0  0  2  0  0  0  0  0  0  0  0  0
    8.1144  -14.4481   26.1378 N   0  0  0  0  0  0  0  0  0  0  0  0
    7.1904  -15.1759   24.0226 C   0  0  0  0  0  0  0  0  0  0  0  0
    6.3522  -15.8728   23.3916 O   0  0  0  0  0  0  0  0  0  0  0  0
    9.4971  -13.2293   18.8061 N   0  0  0  0  0  0  0  0  0  0  0  0
    8.1739  -13.2834   19.3212 C   0  0  0  0  0  0  0  0  0  0  0  0
    7.2592  -12.6691   18.7372 O   0  0  0  0  0  0  0  0  0  0  0  0
    7.8734  -14.0663   20.5501 C   0  0  0  0  0  0  0  0  0  0  0  0
    9.1543  -14.6748   21.0723 C   0  0  0  0  0  0  0  0  0  0  0  0
    8.9045  -15.5412   22.2791 C   0  0  2  0  0  0  0  0  0  0  0  0
    8.3294  -14.7247   23.3204 N   0  0  0  0  0  0  0  0  0  0  0  0
   10.2451  -16.0377   22.7311 C   0  0  0  0  0  0  0  0  0  0  0  0
   11.2498  -15.3556   22.4732 O   0  0  0  0  0  0  0  0  0  0  0  0
   10.9831  -18.5565   28.1208 N   0  0  0  0  0  0  0  0  0  0  0  0
   10.8846  -17.1742   27.7938 C   0  0  0  0  0  0  0  0  0  0  0  0
   10.6325  -16.2766   28.6309 O   0  0  0  0  0  0  0  0  0  0  0  0
   11.1004  -16.8029   26.3537 C   0  0  0  0  0  0  0  0  0  0  0  0
   11.3934  -18.0263   25.5287 C   0  0  0  0  0  0  0  0  0  0  0  0
   11.6262  -17.6488   24.1093 C   0  0  2  0  0  0  0  0  0  0  0  0
   10.3958  -17.2542   23.4390 N   0  0  0  0  0  0  0  0  0  0  0  0
   12.4174  -18.5839   23.3089 C   0  0  0  0  0  0  0  0  0  0  0  0
   11.8866  -19.1646   22.2898 O   0  0  0  0  0  0  0  0  0  0  0  0
   13.7366  -18.9420   23.5163 O   0  0  0  0  0  0  0  0  0  0  0  0
  2  1  1  0
  3  4  1  0
  3  2  1  0
  4  5  1  0
  5  6  1  6
  7  5  1  0
  7  8  2  0
  9 10  1  0
 10 12  1  0
 10 11  2  0
 12 13  1  0
 14 13  1  6
 14 15  1  0
 15  7  1  0
 16 14  1  0
 17 16  2  0
 19 20  2  0
 19 18  1  0
 21 19  1  0
 22 21  1  0
 23 22  1  1
 23 24  1  0
 24 16  1  0
 25 23  1  0
 26 25  2  0
 27 25  1  0
M  END
$$$$
