MQQ.pdb
     RDKit          3D

 27 26  0  0  1  0  0  0  0  0999 V2000
    7.1997  -11.9537   20.2648 C   0  0  0  0  0  0  0  0  0  0  0  0
    7.7512  -12.6140   18.6787 S   0  0  0  0  0  0  0  0  0  0  0  0
    7.3533  -14.3942   18.6400 C   0  0  0  0  0  0  0  0  0  0  0  0
    6.9245  -14.7828   20.0361 C   0  0  0  0  0  0  0  0  0  0  0  0
    7.9529  -15.7318   20.6009 C   0  0  2  0  0  0  0  0  0  0  0  0
    8.1101  -16.8998   19.7601 N   0  0  0  0  0  0  0  0  0  0  0  0
    7.5791  -16.0910   21.9785 C   0  0  0  0  0  0  0  0  0  0  0  0
    7.2908  -15.1606   22.7769 O   0  0  0  0  0  0  0  0  0  0  0  0
    7.9591  -21.7195   25.3096 N   0  0  0  0  0  0  0  0  0  0  0  0
    6.8139  -20.9625   25.6765 C   0  0  0  0  0  0  0  0  0  0  0  0
    5.8149  -21.5435   26.1449 O   0  0  0  0  0  0  0  0  0  0  0  0
    6.7991  -19.4847   25.5056 C   0  0  0  0  0  0  0  0  0  0  0  0
    7.1438  -19.1507   24.0727 C   0  0  0  0  0  0  0  0  0  0  0  0
    7.1145  -17.6647   23.8276 C   0  0  2  0  0  0  0  0  0  0  0  0
    7.5235  -17.4149   22.4666 N   0  0  0  0  0  0  0  0  0  0  0  0
    8.1214  -17.0599   24.7596 C   0  0  0  0  0  0  0  0  0  0  0  0
    9.3243  -17.3075   24.5775 O   0  0  0  0  0  0  0  0  0  0  0  0
    7.3133  -11.8050   27.8006 N   0  0  0  0  0  0  0  0  0  0  0  0
    6.6564  -12.3912   26.6817 C   0  0  0  0  0  0  0  0  0  0  0  0
    5.7185  -11.8420   26.0582 O   0  0  0  0  0  0  0  0  0  0  0  0
    7.1387  -13.7468   26.2481 C   0  0  0  0  0  0  0  0  0  0  0  0
    8.2562  -14.2213   27.1365 C   0  0  0  0  0  0  0  0  0  0  0  0
    8.6915  -15.5855   26.7353 C   0  0  2  0  0  0  0  0  0  0  0  0
    7.7411  -16.2203   25.8338 N   0  0  0  0  0  0  0  0  0  0  0  0
    9.1110  -16.4785   27.8159 C   0  0  0  0  0  0  0  0  0  0  0  0
    8.4845  -17.5859   28.0127 O   0  0  0  0  0  0  0  0  0  0  0  0
   10.1540  -16.2759   28.7005 O   0  0  0  0  0  0  0  0  0  0  0  0
  2  1  1  0
  3  4  1  0
  3  2  1  0
  4  5  1  0
  5  6  1  6
  7  5  1  0
  7  8  2  0
  9 10  1  0
 10 12  1  0
 10 11  2  0
 12 13  1  0
 14 13  1  6
 14 15  1  0
 15  7  1  0
 16 14  1  0
 17 16  2  0
 19 20  2  0
 19 18  1  0
 21 19  1  0
 22 21  1  0
 23 22  1  1
 23 24  1  0
 24 16  1  0
 25 23  1  0
 26 25  2  0
 27 25  1  0
M  END
$$$$
