MQQ.pdb
     RDKit          3D

 27 26  0  0  1  0  0  0  0  0999 V2000
    7.6226  -11.7802   26.8195 C   0  0  0  0  0  0  0  0  0  0  0  0
    6.1302  -12.0234   25.8349 S   0  0  0  0  0  0  0  0  0  0  0  0
    6.6215  -12.7573   24.2383 C   0  0  0  0  0  0  0  0  0  0  0  0
    7.1061  -14.1596   24.5257 C   0  0  0  0  0  0  0  0  0  0  0  0
    8.4121  -14.3681   23.7991 C   0  0  2  0  0  0  0  0  0  0  0  0
    8.2677  -14.1332   22.3778 N   0  0  0  0  0  0  0  0  0  0  0  0
    8.9180  -15.7203   24.0853 C   0  0  0  0  0  0  0  0  0  0  0  0
    8.7557  -16.1813   25.2462 O   0  0  0  0  0  0  0  0  0  0  0  0
   11.8598  -19.7327   20.2194 N   0  0  0  0  0  0  0  0  0  0  0  0
   11.8006  -20.4765   21.4287 C   0  0  0  0  0  0  0  0  0  0  0  0
   12.2599  -21.6353   21.4630 O   0  0  0  0  0  0  0  0  0  0  0  0
   11.1954  -19.8830   22.6514 C   0  0  0  0  0  0  0  0  0  0  0  0
   10.7057  -18.4894   22.3323 C   0  0  0  0  0  0  0  0  0  0  0  0
   10.0530  -17.8443   23.5269 C   0  0  2  0  0  0  0  0  0  0  0  0
    9.5772  -16.5379   23.1413 N   0  0  0  0  0  0  0  0  0  0  0  0
   11.1244  -17.6880   24.5642 C   0  0  0  0  0  0  0  0  0  0  0  0
   11.8993  -16.7220   24.4778 O   0  0  0  0  0  0  0  0  0  0  0  0
   10.1843  -14.5302   28.0217 N   0  0  0  0  0  0  0  0  0  0  0  0
   10.6420  -15.2906   29.1350 C   0  0  0  0  0  0  0  0  0  0  0  0
   10.7920  -14.8192   30.2863 O   0  0  0  0  0  0  0  0  0  0  0  0
   10.9546  -16.7386   28.8824 C   0  0  0  0  0  0  0  0  0  0  0  0
   10.6550  -17.1045   27.4543 C   0  0  0  0  0  0  0  0  0  0  0  0
   11.5483  -18.2051   27.0045 C   0  0  2  0  0  0  0  0  0  0  0  0
   11.2755  -18.6051   25.6317 N   0  0  0  0  0  0  0  0  0  0  0  0
   11.6677  -19.3541   27.9026 C   0  0  0  0  0  0  0  0  0  0  0  0
   11.0806  -20.4617   27.6090 O   0  0  0  0  0  0  0  0  0  0  0  0
   12.3718  -19.4071   29.0913 O   0  0  0  0  0  0  0  0  0  0  0  0
  2  1  1  0
  3  4  1  0
  3  2  1  0
  4  5  1  0
  5  6  1  6
  7  5  1  0
  7  8  2  0
  9 10  1  0
 10 12  1  0
 10 11  2  0
 12 13  1  0
 14 13  1  6
 14 15  1  0
 15  7  1  0
 16 14  1  0
 17 16  2  0
 19 20  2  0
 19 18  1  0
 21 19  1  0
 22 21  1  0
 23 22  1  1
 23 24  1  0
 24 16  1  0
 25 23  1  0
 26 25  2  0
 27 25  1  0
M  END
$$$$
