MQQ.pdb
     RDKit          3D

 27 26  0  0  1  0  0  0  0  0999 V2000
    8.4687  -12.3010   26.9286 C   0  0  0  0  0  0  0  0  0  0  0  0
    6.8595  -11.8466   26.2506 S   0  0  0  0  0  0  0  0  0  0  0  0
    6.0528  -13.3673   25.6458 C   0  0  0  0  0  0  0  0  0  0  0  0
    7.1329  -14.4145   25.5014 C   0  0  0  0  0  0  0  0  0  0  0  0
    6.6336  -15.4839   24.5611 C   0  0  2  0  0  0  0  0  0  0  0  0
    5.4276  -16.1070   25.0645 N   0  0  0  0  0  0  0  0  0  0  0  0
    7.7049  -16.4660   24.3280 C   0  0  0  0  0  0  0  0  0  0  0  0
    7.4092  -17.6894   24.3757 O   0  0  0  0  0  0  0  0  0  0  0  0
    8.0126  -17.9358   18.9676 N   0  0  0  0  0  0  0  0  0  0  0  0
    8.8397  -18.3851   20.0320 C   0  0  0  0  0  0  0  0  0  0  0  0
    8.7247  -19.5539   20.4512 O   0  0  0  0  0  0  0  0  0  0  0  0
    9.8399  -17.4722   20.6482 C   0  0  0  0  0  0  0  0  0  0  0  0
    9.1625  -16.6505   21.7204 C   0  0  0  0  0  0  0  0  0  0  0  0
    9.7940  -16.8717   23.0700 C   0  0  2  0  0  0  0  0  0  0  0  0
    9.0480  -16.1261   24.0546 N   0  0  0  0  0  0  0  0  0  0  0  0
   11.1840  -16.3156   22.9855 C   0  0  0  0  0  0  0  0  0  0  0  0
   11.3376  -15.1617   22.5542 O   0  0  0  0  0  0  0  0  0  0  0  0
    9.6123  -18.7815   27.1281 N   0  0  0  0  0  0  0  0  0  0  0  0
   10.8563  -18.6170   27.8009 C   0  0  0  0  0  0  0  0  0  0  0  0
   11.0382  -18.8999   29.0079 O   0  0  0  0  0  0  0  0  0  0  0  0
   11.9970  -18.0705   26.9895 C   0  0  0  0  0  0  0  0  0  0  0  0
   11.5393  -17.7201   25.5999 C   0  0  0  0  0  0  0  0  0  0  0  0
   12.6938  -17.2838   24.7703 C   0  0  2  0  0  0  0  0  0  0  0  0
   12.3179  -17.0648   23.3811 N   0  0  0  0  0  0  0  0  0  0  0  0
   13.9193  -18.0737   24.8942 C   0  0  0  0  0  0  0  0  0  0  0  0
   14.8942  -17.6369   25.6128 O   0  0  0  0  0  0  0  0  0  0  0  0
   14.1783  -19.2988   24.3081 O   0  0  0  0  0  0  0  0  0  0  0  0
  2  1  1  0
  3  4  1  0
  3  2  1  0
  4  5  1  0
  5  6  1  1
  7  5  1  0
  7  8  2  0
  9 10  1  0
 10 12  1  0
 10 11  2  0
 12 13  1  0
 14 13  1  6
 14 15  1  0
 15  7  1  0
 16 14  1  0
 17 16  2  0
 19 20  2  0
 19 18  1  0
 21 19  1  0
 22 21  1  0
 23 22  1  1
 23 24  1  0
 24 16  1  0
 25 23  1  0
 26 25  2  0
 27 25  1  0
M  END
$$$$
