MQQ.pdb
     RDKit          3D

 27 26  0  0  1  0  0  0  0  0999 V2000
    6.1506  -12.3395   18.8451 C   0  0  0  0  0  0  0  0  0  0  0  0
    7.5835  -12.2038   19.9332 S   0  0  0  0  0  0  0  0  0  0  0  0
    8.1540  -13.8915   20.3273 C   0  0  0  0  0  0  0  0  0  0  0  0
    7.9339  -14.7334   19.0917 C   0  0  0  0  0  0  0  0  0  0  0  0
    8.5490  -16.0910   19.3274 C   0  0  2  0  0  0  0  0  0  0  0  0
    7.9928  -16.7244   20.5044 N   0  0  0  0  0  0  0  0  0  0  0  0
   10.0119  -15.9541   19.4149 C   0  0  0  0  0  0  0  0  0  0  0  0
   10.6271  -15.5063   18.4112 O   0  0  0  0  0  0  0  0  0  0  0  0
   13.7906  -14.4041   17.8524 N   0  0  0  0  0  0  0  0  0  0  0  0
   14.4931  -14.6716   19.0582 C   0  0  0  0  0  0  0  0  0  0  0  0
   15.5967  -15.2506   19.0134 O   0  0  0  0  0  0  0  0  0  0  0  0
   13.9218  -14.2664   20.3708 C   0  0  0  0  0  0  0  0  0  0  0  0
   12.4448  -14.5857   20.3852 C   0  0  0  0  0  0  0  0  0  0  0  0
   12.1985  -16.0611   20.5633 C   0  0  2  0  0  0  0  0  0  0  0  0
   10.7746  -16.2941   20.5537 N   0  0  0  0  0  0  0  0  0  0  0  0
   12.7442  -16.4237   21.9120 C   0  0  0  0  0  0  0  0  0  0  0  0
   13.8374  -15.9482   22.2587 O   0  0  0  0  0  0  0  0  0  0  0  0
    9.7545  -20.7249   24.2515 N   0  0  0  0  0  0  0  0  0  0  0  0
   10.5485  -21.0501   23.1152 C   0  0  0  0  0  0  0  0  0  0  0  0
   10.7543  -22.2217   22.7214 O   0  0  0  0  0  0  0  0  0  0  0  0
   11.1610  -19.9000   22.3666 C   0  0  0  0  0  0  0  0  0  0  0  0
   12.5787  -19.6706   22.8144 C   0  0  0  0  0  0  0  0  0  0  0  0
   12.6914  -18.3704   23.5275 C   0  0  2  0  0  0  0  0  0  0  0  0
   12.0522  -17.2871   22.7948 N   0  0  0  0  0  0  0  0  0  0  0  0
   14.0249  -18.0041   24.0057 C   0  0  0  0  0  0  0  0  0  0  0  0
   15.0041  -17.9206   23.1740 O   0  0  0  0  0  0  0  0  0  0  0  0
   14.3882  -17.7174   25.3085 O   0  0  0  0  0  0  0  0  0  0  0  0
  2  1  1  0
  3  4  1  0
  3  2  1  0
  4  5  1  0
  5  6  1  1
  7  5  1  0
  7  8  2  0
  9 10  1  0
 10 12  1  0
 10 11  2  0
 12 13  1  0
 14 13  1  1
 14 15  1  0
 15  7  1  0
 16 14  1  0
 17 16  2  0
 19 20  2  0
 19 18  1  0
 21 19  1  0
 22 21  1  0
 23 22  1  6
 23 24  1  0
 24 16  1  0
 25 23  1  0
 26 25  2  0
 27 25  1  0
M  END
$$$$
