MQQ.pdb
     RDKit          3D

 27 26  0  0  1  0  0  0  0  0999 V2000
    7.0287  -10.9823   26.8100 C   0  0  0  0  0  0  0  0  0  0  0  0
    6.2725  -12.3847   27.6568 S   0  0  0  0  0  0  0  0  0  0  0  0
    5.1000  -13.1743   26.5032 C   0  0  0  0  0  0  0  0  0  0  0  0
    5.8728  -14.2195   25.7323 C   0  0  0  0  0  0  0  0  0  0  0  0
    7.1501  -13.5911   25.2315 C   0  0  2  0  0  0  0  0  0  0  0  0
    6.9479  -12.2042   24.8686 N   0  0  0  0  0  0  0  0  0  0  0  0
    7.6745  -14.3837   24.1076 C   0  0  0  0  0  0  0  0  0  0  0  0
    7.7766  -15.6301   24.2571 O   0  0  0  0  0  0  0  0  0  0  0  0
    9.3956  -13.4048   17.9876 N   0  0  0  0  0  0  0  0  0  0  0  0
    8.0503  -13.7423   18.2963 C   0  0  0  0  0  0  0  0  0  0  0  0
    7.2191  -13.8681   17.3752 O   0  0  0  0  0  0  0  0  0  0  0  0
    7.6278  -13.9461   19.7082 C   0  0  0  0  0  0  0  0  0  0  0  0
    8.8452  -13.8807   20.6012 C   0  0  0  0  0  0  0  0  0  0  0  0
    8.6543  -14.6883   21.8584 C   0  0  2  0  0  0  0  0  0  0  0  0
    8.0736  -13.8369   22.8683 N   0  0  0  0  0  0  0  0  0  0  0  0
   10.0220  -15.1121   22.3035 C   0  0  0  0  0  0  0  0  0  0  0  0
   10.7327  -14.2909   22.9048 O   0  0  0  0  0  0  0  0  0  0  0  0
    9.9576  -18.8479   26.5008 N   0  0  0  0  0  0  0  0  0  0  0  0
   10.5358  -17.5609   26.6918 C   0  0  0  0  0  0  0  0  0  0  0  0
   10.8944  -17.1169   27.8074 O   0  0  0  0  0  0  0  0  0  0  0  0
   10.7130  -16.7103   25.4657 C   0  0  0  0  0  0  0  0  0  0  0  0
   10.1170  -17.3859   24.2609 C   0  0  0  0  0  0  0  0  0  0  0  0
   11.0428  -17.2855   23.1014 C   0  0  2  0  0  0  0  0  0  0  0  0
   10.5216  -16.4137   22.0587 N   0  0  0  0  0  0  0  0  0  0  0  0
   11.5520  -18.5477   22.5643 C   0  0  0  0  0  0  0  0  0  0  0  0
   12.7942  -18.6536   22.2429 O   0  0  0  0  0  0  0  0  0  0  0  0
   10.8308  -19.7073   22.3481 O   0  0  0  0  0  0  0  0  0  0  0  0
  2  1  1  0
  3  4  1  0
  3  2  1  0
  4  5  1  0
  5  6  1  6
  7  5  1  0
  7  8  2  0
  9 10  1  0
 10 12  1  0
 10 11  2  0
 12 13  1  0
 14 13  1  6
 14 15  1  0
 15  7  1  0
 16 14  1  0
 17 16  2  0
 19 20  2  0
 19 18  1  0
 21 19  1  0
 22 21  1  0
 23 22  1  1
 23 24  1  0
 24 16  1  0
 25 23  1  0
 26 25  2  0
 27 25  1  0
M  END
$$$$
