MQQ.pdb
     RDKit          3D

 27 26  0  0  1  0  0  0  0  0999 V2000
    7.5633  -11.2647   27.5023 C   0  0  0  0  0  0  0  0  0  0  0  0
    5.8752  -11.1907   26.8693 S   0  0  0  0  0  0  0  0  0  0  0  0
    5.3693  -12.8835   26.4136 C   0  0  0  0  0  0  0  0  0  0  0  0
    6.4926  -13.4763   25.5947 C   0  0  0  0  0  0  0  0  0  0  0  0
    6.0817  -14.8614   25.1590 C   0  0  2  0  0  0  0  0  0  0  0  0
    6.0832  -15.7863   26.2728 N   0  0  0  0  0  0  0  0  0  0  0  0
    6.9630  -15.3104   24.0690 C   0  0  0  0  0  0  0  0  0  0  0  0
    7.6890  -16.3197   24.2704 O   0  0  0  0  0  0  0  0  0  0  0  0
    7.8527  -12.7399   18.3893 N   0  0  0  0  0  0  0  0  0  0  0  0
    8.7076  -13.8739   18.3408 C   0  0  0  0  0  0  0  0  0  0  0  0
    9.3163  -14.1426   17.2862 O   0  0  0  0  0  0  0  0  0  0  0  0
    8.8807  -14.7407   19.5376 C   0  0  0  0  0  0  0  0  0  0  0  0
    7.9650  -14.2528   20.6362 C   0  0  0  0  0  0  0  0  0  0  0  0
    7.9297  -15.2137   21.7958 C   0  0  2  0  0  0  0  0  0  0  0  0
    7.0501  -14.6811   22.8079 N   0  0  0  0  0  0  0  0  0  0  0  0
    9.3248  -15.2726   22.3421 C   0  0  0  0  0  0  0  0  0  0  0  0
    9.8461  -14.2246   22.7560 O   0  0  0  0  0  0  0  0  0  0  0  0
   11.1351  -20.0405   26.0348 N   0  0  0  0  0  0  0  0  0  0  0  0
   11.7217  -18.7959   26.4007 C   0  0  0  0  0  0  0  0  0  0  0  0
   11.9690  -18.4632   27.5833 O   0  0  0  0  0  0  0  0  0  0  0  0
   12.0516  -17.8486   25.2818 C   0  0  0  0  0  0  0  0  0  0  0  0
   10.8472  -17.6174   24.4102 C   0  0  0  0  0  0  0  0  0  0  0  0
   11.1873  -16.6975   23.2924 C   0  0  2  0  0  0  0  0  0  0  0  0
   10.0588  -16.4816   22.3987 N   0  0  0  0  0  0  0  0  0  0  0  0
   12.4227  -16.9877   22.5640 C   0  0  0  0  0  0  0  0  0  0  0  0
   12.3695  -17.5689   21.4165 O   0  0  0  0  0  0  0  0  0  0  0  0
   13.7121  -16.6993   22.9713 O   0  0  0  0  0  0  0  0  0  0  0  0
  2  1  1  0
  3  4  1  0
  3  2  1  0
  4  5  1  0
  5  6  1  1
  7  5  1  0
  7  8  2  0
  9 10  1  0
 10 12  1  0
 10 11  2  0
 12 13  1  0
 14 13  1  6
 14 15  1  0
 15  7  1  0
 16 14  1  0
 17 16  2  0
 19 20  2  0
 19 18  1  0
 21 19  1  0
 22 21  1  0
 23 22  1  1
 23 24  1  0
 24 16  1  0
 25 23  1  0
 26 25  2  0
 27 25  1  0
M  END
$$$$
