MQQ.pdb
     RDKit          3D

 27 26  0  0  1  0  0  0  0  0999 V2000
    7.5542  -11.8801   26.5441 C   0  0  0  0  0  0  0  0  0  0  0  0
    6.2915  -13.0239   27.1384 S   0  0  0  0  0  0  0  0  0  0  0  0
    6.6002  -14.6514   26.3736 C   0  0  0  0  0  0  0  0  0  0  0  0
    5.8983  -14.6522   25.0352 C   0  0  0  0  0  0  0  0  0  0  0  0
    6.1555  -15.9800   24.3658 C   0  0  2  0  0  0  0  0  0  0  0  0
    6.4870  -17.0031   25.3349 N   0  0  0  0  0  0  0  0  0  0  0  0
    7.2110  -15.8180   23.3529 C   0  0  0  0  0  0  0  0  0  0  0  0
    7.8724  -16.8360   23.0170 O   0  0  0  0  0  0  0  0  0  0  0  0
    9.3407  -14.0725   18.6274 N   0  0  0  0  0  0  0  0  0  0  0  0
    7.9783  -13.6811   18.7269 C   0  0  0  0  0  0  0  0  0  0  0  0
    7.2225  -13.8237   17.7453 O   0  0  0  0  0  0  0  0  0  0  0  0
    7.4490  -13.1036   19.9917 C   0  0  0  0  0  0  0  0  0  0  0  0
    8.5170  -13.1889   21.0574 C   0  0  0  0  0  0  0  0  0  0  0  0
    8.5467  -14.5488   21.7046 C   0  0  2  0  0  0  0  0  0  0  0  0
    7.5336  -14.5919   22.7312 N   0  0  0  0  0  0  0  0  0  0  0  0
    9.8962  -14.6866   22.3434 C   0  0  0  0  0  0  0  0  0  0  0  0
   10.3888  -13.6988   22.9117 O   0  0  0  0  0  0  0  0  0  0  0  0
    9.5623  -17.6710   27.3047 N   0  0  0  0  0  0  0  0  0  0  0  0
   10.6960  -16.8253   27.1418 C   0  0  0  0  0  0  0  0  0  0  0  0
   11.0921  -16.0159   28.0125 O   0  0  0  0  0  0  0  0  0  0  0  0
   11.4388  -16.9330   25.8399 C   0  0  0  0  0  0  0  0  0  0  0  0
   10.6354  -16.3308   24.7195 C   0  0  0  0  0  0  0  0  0  0  0  0
   11.3934  -16.4051   23.4423 C   0  0  2  0  0  0  0  0  0  0  0  0
   10.6192  -15.9032   22.3164 N   0  0  0  0  0  0  0  0  0  0  0  0
   12.0407  -17.6828   23.1433 C   0  0  0  0  0  0  0  0  0  0  0  0
   11.4427  -18.5463   22.3988 O   0  0  0  0  0  0  0  0  0  0  0  0
   13.2829  -18.1046   23.5799 O   0  0  0  0  0  0  0  0  0  0  0  0
  2  1  1  0
  3  4  1  0
  3  2  1  0
  4  5  1  0
  5  6  1  1
  7  5  1  0
  7  8  2  0
  9 10  1  0
 10 12  1  0
 10 11  2  0
 12 13  1  0
 14 13  1  1
 14 15  1  0
 15  7  1  0
 16 14  1  0
 17 16  2  0
 19 20  2  0
 19 18  1  0
 21 19  1  0
 22 21  1  0
 23 22  1  1
 23 24  1  0
 24 16  1  0
 25 23  1  0
 26 25  2  0
 27 25  1  0
M  END
$$$$
