MQQ.pdb
     RDKit          3D

 27 26  0  0  1  0  0  0  0  0999 V2000
    6.7885  -10.9717   25.5768 C   0  0  0  0  0  0  0  0  0  0  0  0
    5.7795  -12.0126   26.6511 S   0  0  0  0  0  0  0  0  0  0  0  0
    5.4992  -13.6002   25.7966 C   0  0  0  0  0  0  0  0  0  0  0  0
    6.8588  -14.1762   25.4747 C   0  0  0  0  0  0  0  0  0  0  0  0
    6.6598  -15.4814   24.7440 C   0  0  2  0  0  0  0  0  0  0  0  0
    5.9783  -16.4517   25.5748 N   0  0  0  0  0  0  0  0  0  0  0  0
    7.9622  -15.9786   24.2719 C   0  0  0  0  0  0  0  0  0  0  0  0
    8.4495  -16.9941   24.8355 O   0  0  0  0  0  0  0  0  0  0  0  0
   11.5870  -13.7550   19.6202 N   0  0  0  0  0  0  0  0  0  0  0  0
   12.3718  -14.8275   20.1231 C   0  0  0  0  0  0  0  0  0  0  0  0
   13.4882  -15.0635   19.6201 O   0  0  0  0  0  0  0  0  0  0  0  0
   11.8712  -15.6690   21.2433 C   0  0  0  0  0  0  0  0  0  0  0  0
   10.5116  -15.1651   21.6688 C   0  0  0  0  0  0  0  0  0  0  0  0
    9.9335  -16.0016   22.7803 C   0  0  2  0  0  0  0  0  0  0  0  0
    8.7053  -15.3892   23.2257 N   0  0  0  0  0  0  0  0  0  0  0  0
   10.9304  -15.9687   23.8999 C   0  0  0  0  0  0  0  0  0  0  0  0
   11.2520  -14.8689   24.3777 O   0  0  0  0  0  0  0  0  0  0  0  0
   10.6556  -14.6051   28.1783 N   0  0  0  0  0  0  0  0  0  0  0  0
   11.2045  -15.6827   28.9298 C   0  0  0  0  0  0  0  0  0  0  0  0
   11.4519  -15.6215   30.1567 O   0  0  0  0  0  0  0  0  0  0  0  0
   11.4925  -16.9527   28.1799 C   0  0  0  0  0  0  0  0  0  0  0  0
   10.9414  -16.8796   26.7819 C   0  0  0  0  0  0  0  0  0  0  0  0
   11.9816  -17.2745   25.7952 C   0  0  2  0  0  0  0  0  0  0  0  0
   11.5107  -17.1488   24.4235 N   0  0  0  0  0  0  0  0  0  0  0  0
   12.6539  -18.5519   26.0348 C   0  0  0  0  0  0  0  0  0  0  0  0
   12.0611  -19.6550   25.7355 O   0  0  0  0  0  0  0  0  0  0  0  0
   13.9157  -18.7369   26.5686 O   0  0  0  0  0  0  0  0  0  0  0  0
  2  1  1  0
  3  4  1  0
  3  2  1  0
  4  5  1  0
  5  6  1  1
  7  5  1  0
  7  8  2  0
  9 10  1  0
 10 12  1  0
 10 11  2  0
 12 13  1  0
 14 13  1  6
 14 15  1  0
 15  7  1  0
 16 14  1  0
 17 16  2  0
 19 20  2  0
 19 18  1  0
 21 19  1  0
 22 21  1  0
 23 22  1  1
 23 24  1  0
 24 16  1  0
 25 23  1  0
 26 25  2  0
 27 25  1  0
M  END
$$$$
