GQQ.pdb
     RDKit          3D

 23 22  0  0  1  0  0  0  0  0999 V2000
    6.2881  -19.7191   18.7596 N   0  0  0  0  0  0  0  0  0  0  0  0
    7.2480  -19.5349   19.8254 C   0  0  0  0  0  0  0  0  0  0  0  0
    6.5294  -19.2036   21.0904 C   0  0  0  0  0  0  0  0  0  0  0  0
    5.3473  -19.6135   21.3097 O   0  0  0  0  0  0  0  0  0  0  0  0
    6.1768  -21.1040   26.2631 N   0  0  0  0  0  0  0  0  0  0  0  0
    7.4279  -21.0016   25.6186 C   0  0  0  0  0  0  0  0  0  0  0  0
    8.4336  -21.5212   26.1161 O   0  0  0  0  0  0  0  0  0  0  0  0
    7.5172  -20.2619   24.3364 C   0  0  0  0  0  0  0  0  0  0  0  0
    6.2782  -19.4596   24.1433 C   0  0  0  0  0  0  0  0  0  0  0  0
    6.5144  -18.2036   23.4022 C   0  0  2  0  0  0  0  0  0  0  0  0
    7.1233  -18.4229   22.1009 N   0  0  0  0  0  0  0  0  0  0  0  0
    7.3452  -17.1868   24.0761 C   0  0  0  0  0  0  0  0  0  0  0  0
    8.5804  -17.1428   23.8870 O   0  0  0  0  0  0  0  0  0  0  0  0
    5.0260  -12.0922   26.9963 N   0  0  0  0  0  0  0  0  0  0  0  0
    6.3658  -11.6545   26.8013 C   0  0  0  0  0  0  0  0  0  0  0  0
    6.6744  -10.4892   27.1541 O   0  0  0  0  0  0  0  0  0  0  0  0
    7.2992  -12.6296   26.1866 C   0  0  0  0  0  0  0  0  0  0  0  0
    6.6760  -13.9690   25.8994 C   0  0  0  0  0  0  0  0  0  0  0  0
    7.5803  -14.9766   25.2808 C   0  0  2  0  0  0  0  0  0  0  0  0
    6.8183  -16.2027   24.9704 N   0  0  0  0  0  0  0  0  0  0  0  0
    8.6572  -15.3263   26.2310 C   0  0  0  0  0  0  0  0  0  0  0  0
    8.6607  -16.4509   27.0332 O   0  0  0  0  0  0  0  0  0  0  0  0
    9.6474  -14.5210   26.3051 O   0  0  0  0  0  0  0  0  0  0  0  0
  2  1  1  0
  3  2  1  0
  3  4  2  0
  5  6  1  0
  6  7  2  0
  8  9  1  0
  8  6  1  0
 10  9  1  1
 10 11  1  0
 10 12  1  0
 11  3  1  0
 12 13  2  0
 12 20  1  0
 15 17  1  0
 15 14  1  0
 16 15  2  0
 19 18  1  1
 18 17  1  0
 19 21  1  0
 20 19  1  0
 21 23  2  0
 21 22  1  0
M  END
$$$$
