GQQ.pdb
     RDKit          3D

 23 22  0  0  1  0  0  0  0  0999 V2000
    6.5020  -18.9480   17.5854 N   0  0  0  0  0  0  0  0  0  0  0  0
    5.6320  -19.8272   18.3348 C   0  0  0  0  0  0  0  0  0  0  0  0
    5.4080  -19.2623   19.6975 C   0  0  0  0  0  0  0  0  0  0  0  0
    6.0315  -18.2315   20.1000 O   0  0  0  0  0  0  0  0  0  0  0  0
    0.2484  -19.9314   23.0000 N   0  0  0  0  0  0  0  0  0  0  0  0
    0.4376  -19.4721   21.6792 C   0  0  0  0  0  0  0  0  0  0  0  0
   -0.5334  -19.2717   20.9402 O   0  0  0  0  0  0  0  0  0  0  0  0
    1.8178  -19.2339   21.1920 C   0  0  0  0  0  0  0  0  0  0  0  0
    2.7807  -19.4802   22.3003 C   0  0  0  0  0  0  0  0  0  0  0  0
    4.1868  -19.2663   21.9006 C   0  0  2  0  0  0  0  0  0  0  0  0
    4.4975  -19.8414   20.6026 N   0  0  0  0  0  0  0  0  0  0  0  0
    5.2194  -19.7683   22.8278 C   0  0  0  0  0  0  0  0  0  0  0  0
    5.7271  -20.8997   22.6674 O   0  0  0  0  0  0  0  0  0  0  0  0
    9.6653  -18.2333   28.6630 N   0  0  0  0  0  0  0  0  0  0  0  0
    8.7447  -17.8693   27.6409 C   0  0  0  0  0  0  0  0  0  0  0  0
    8.4334  -16.6589   27.5160 O   0  0  0  0  0  0  0  0  0  0  0  0
    8.2220  -18.9708   26.7963 C   0  0  0  0  0  0  0  0  0  0  0  0
    7.2948  -18.5110   25.7037 C   0  0  0  0  0  0  0  0  0  0  0  0
    6.7290  -19.5896   24.8479 C   0  0  2  0  0  0  0  0  0  0  0  0
    5.7050  -19.0227   23.9477 N   0  0  0  0  0  0  0  0  0  0  0  0
    6.0853  -20.6122   25.6992 C   0  0  0  0  0  0  0  0  0  0  0  0
    4.7209  -20.7453   25.8693 O   0  0  0  0  0  0  0  0  0  0  0  0
    6.8589  -21.4220   26.3159 O   0  0  0  0  0  0  0  0  0  0  0  0
  2  1  1  0
  3  2  1  0
  3  4  2  0
  5  6  1  0
  6  7  2  0
  8  9  1  0
  8  6  1  0
 10  9  1  1
 10 11  1  0
 10 12  1  0
 11  3  1  0
 12 13  2  0
 12 20  1  0
 15 17  1  0
 15 14  1  0
 16 15  2  0
 19 18  1  1
 18 17  1  0
 19 21  1  0
 20 19  1  0
 21 23  2  0
 21 22  1  0
M  END
$$$$
