GQQ.pdb
     RDKit          3D

 23 22  0  0  1  0  0  0  0  0999 V2000
    8.5532  -15.8134   19.4482 N   0  0  0  0  0  0  0  0  0  0  0  0
    7.5118  -15.6903   20.4441 C   0  0  0  0  0  0  0  0  0  0  0  0
    8.1107  -15.2522   21.7386 C   0  0  0  0  0  0  0  0  0  0  0  0
    9.3657  -15.2799   21.9330 O   0  0  0  0  0  0  0  0  0  0  0  0
    5.2587  -12.1337   26.3995 N   0  0  0  0  0  0  0  0  0  0  0  0
    6.5721  -12.2667   26.8980 C   0  0  0  0  0  0  0  0  0  0  0  0
    6.9358  -11.6189   27.8866 O   0  0  0  0  0  0  0  0  0  0  0  0
    7.5082  -13.1945   26.2183 C   0  0  0  0  0  0  0  0  0  0  0  0
    6.9493  -13.5737   24.8917 C   0  0  0  0  0  0  0  0  0  0  0  0
    7.8588  -14.4344   24.1077 C   0  0  2  0  0  0  0  0  0  0  0  0
    7.3179  -14.7878   22.8059 N   0  0  0  0  0  0  0  0  0  0  0  0
    8.2710  -15.7040   24.7374 C   0  0  0  0  0  0  0  0  0  0  0  0
    7.4860  -16.6758   24.7902 O   0  0  0  0  0  0  0  0  0  0  0  0
   12.5868  -18.4460   22.6596 N   0  0  0  0  0  0  0  0  0  0  0  0
   12.2527  -17.1582   23.1643 C   0  0  0  0  0  0  0  0  0  0  0  0
   12.1532  -16.2031   22.3548 O   0  0  0  0  0  0  0  0  0  0  0  0
   12.0478  -17.0529   24.6295 C   0  0  0  0  0  0  0  0  0  0  0  0
   10.9255  -17.9105   25.1491 C   0  0  0  0  0  0  0  0  0  0  0  0
    9.9001  -17.2003   25.9615 C   0  0  2  0  0  0  0  0  0  0  0  0
    9.5608  -15.9151   25.3184 N   0  0  0  0  0  0  0  0  0  0  0  0
   10.4418  -16.9181   27.3075 C   0  0  0  0  0  0  0  0  0  0  0  0
   10.5697  -15.6553   27.8526 O   0  0  0  0  0  0  0  0  0  0  0  0
   10.8151  -17.9237   28.0033 O   0  0  0  0  0  0  0  0  0  0  0  0
  2  1  1  0
  3  2  1  0
  3  4  2  0
  5  6  1  0
  6  7  2  0
  8  9  1  0
  8  6  1  0
 10  9  1  1
 10 11  1  0
 10 12  1  0
 11  3  1  0
 12 13  2  0
 12 20  1  0
 15 17  1  0
 15 14  1  0
 16 15  2  0
 19 18  1  6
 18 17  1  0
 19 21  1  0
 20 19  1  0
 21 23  2  0
 21 22  1  0
M  END
$$$$
