GQQ.pdb
     RDKit          3D

 23 22  0  0  1  0  0  0  0  0999 V2000
   10.3158  -19.3015   36.9304 N   0  0  0  0  0  0  0  0  0  0  0  0
    9.8164  -17.9765   37.2241 C   0  0  0  0  0  0  0  0  0  0  0  0
   10.9356  -16.9932   37.1408 C   0  0  0  0  0  0  0  0  0  0  0  0
   12.1295  -17.3633   36.9151 O   0  0  0  0  0  0  0  0  0  0  0  0
   11.7183  -12.6923   33.5246 N   0  0  0  0  0  0  0  0  0  0  0  0
   12.0998  -14.0503   33.4857 C   0  0  0  0  0  0  0  0  0  0  0  0
   12.3556  -14.5988   32.4074 O   0  0  0  0  0  0  0  0  0  0  0  0
   12.1890  -14.8083   34.7572 C   0  0  0  0  0  0  0  0  0  0  0  0
   11.7772  -13.9283   35.8851 C   0  0  0  0  0  0  0  0  0  0  0  0
   11.7839  -14.6220   37.1895 C   0  0  2  0  0  0  0  0  0  0  0  0
   10.7253  -15.6107   37.3077 N   0  0  0  0  0  0  0  0  0  0  0  0
   11.6829  -13.7695   38.3900 C   0  0  0  0  0  0  0  0  0  0  0  0
   10.6155  -13.7015   39.0378 O   0  0  0  0  0  0  0  0  0  0  0  0
   10.6941  -12.8801   44.5337 N   0  0  0  0  0  0  0  0  0  0  0  0
   11.7840  -13.2629   43.7028 C   0  0  0  0  0  0  0  0  0  0  0  0
   12.3880  -14.3337   43.9595 O   0  0  0  0  0  0  0  0  0  0  0  0
   12.1192  -12.3472   42.5851 C   0  0  0  0  0  0  0  0  0  0  0  0
   12.1845  -13.0252   41.2431 C   0  0  0  0  0  0  0  0  0  0  0  0
   12.6028  -12.1584   40.1075 C   0  0  2  0  0  0  0  0  0  0  0  0
   12.7648  -12.9791   38.8907 N   0  0  0  0  0  0  0  0  0  0  0  0
   13.9021  -11.5261   40.4184 C   0  0  0  0  0  0  0  0  0  0  0  0
   15.0620  -11.7198   39.6936 O   0  0  0  0  0  0  0  0  0  0  0  0
   13.9393  -10.7491   41.4330 O   0  0  0  0  0  0  0  0  0  0  0  0
  2  1  1  0
  3  2  1  0
  3  4  2  0
  5  6  1  0
  6  7  2  0
  8  9  1  0
  8  6  1  0
 10  9  1  6
 10 11  1  0
 10 12  1  0
 11  3  1  0
 12 13  2  0
 12 20  1  0
 15 17  1  0
 15 14  1  0
 16 15  2  0
 19 18  1  1
 18 17  1  0
 19 21  1  0
 20 19  1  0
 21 23  2  0
 21 22  1  0
M  END
$$$$
