GQQ.pdb
     RDKit          3D

 23 22  0  0  1  0  0  0  0  0999 V2000
    9.3457  -16.6031   17.9220 N   0  0  0  0  0  0  0  0  0  0  0  0
   10.1213  -15.6024   18.6209 C   0  0  0  0  0  0  0  0  0  0  0  0
   11.4937  -16.1278   18.8794 C   0  0  0  0  0  0  0  0  0  0  0  0
   11.8009  -17.3348   18.6299 O   0  0  0  0  0  0  0  0  0  0  0  0
   16.9400  -14.1244   17.3835 N   0  0  0  0  0  0  0  0  0  0  0  0
   15.9397  -13.2262   17.8123 C   0  0  0  0  0  0  0  0  0  0  0  0
   15.9503  -12.0491   17.4337 O   0  0  0  0  0  0  0  0  0  0  0  0
   14.8768  -13.7158   18.7231 C   0  0  0  0  0  0  0  0  0  0  0  0
   14.8418  -15.2035   18.6845 C   0  0  0  0  0  0  0  0  0  0  0  0
   13.8713  -15.7822   19.6362 C   0  0  2  0  0  0  0  0  0  0  0  0
   12.5137  -15.3150   19.4109 N   0  0  0  0  0  0  0  0  0  0  0  0
   14.1452  -15.5662   21.0703 C   0  0  0  0  0  0  0  0  0  0  0  0
   13.8004  -14.5047   21.6341 O   0  0  0  0  0  0  0  0  0  0  0  0
   11.5130  -17.7640   25.8091 N   0  0  0  0  0  0  0  0  0  0  0  0
   12.8072  -18.2488   25.4700 C   0  0  0  0  0  0  0  0  0  0  0  0
   13.4208  -18.9581   26.3054 O   0  0  0  0  0  0  0  0  0  0  0  0
   13.3296  -17.8670   24.1354 C   0  0  0  0  0  0  0  0  0  0  0  0
   14.7694  -17.4291   24.1492 C   0  0  0  0  0  0  0  0  0  0  0  0
   15.0825  -16.2319   23.3219 C   0  0  2  0  0  0  0  0  0  0  0  0
   14.8060  -16.5246   21.9012 N   0  0  0  0  0  0  0  0  0  0  0  0
   16.5157  -15.8964   23.4573 C   0  0  0  0  0  0  0  0  0  0  0  0
   17.0769  -15.2836   24.5608 O   0  0  0  0  0  0  0  0  0  0  0  0
   17.2761  -16.1997   22.4752 O   0  0  0  0  0  0  0  0  0  0  0  0
  2  1  1  0
  3  2  1  0
  3  4  2  0
  5  6  1  0
  6  7  2  0
  8  9  1  0
  8  6  1  0
 10  9  1  6
 10 11  1  0
 10 12  1  0
 11  3  1  0
 12 13  2  0
 12 20  1  0
 15 17  1  0
 15 14  1  0
 16 15  2  0
 19 18  1  1
 18 17  1  0
 19 21  1  0
 20 19  1  0
 21 23  2  0
 21 22  1  0
M  END
$$$$
