GQQ.pdb
     RDKit          3D

 23 22  0  0  1  0  0  0  0  0999 V2000
    5.4343  -20.2981   17.4251 N   0  0  0  0  0  0  0  0  0  0  0  0
    6.7529  -19.7054   17.4602 C   0  0  0  0  0  0  0  0  0  0  0  0
    7.7690  -20.7673   17.7180 C   0  0  0  0  0  0  0  0  0  0  0  0
    7.4582  -21.8602   18.2857 O   0  0  0  0  0  0  0  0  0  0  0  0
   11.5953  -23.0788   14.3124 N   0  0  0  0  0  0  0  0  0  0  0  0
   12.3228  -23.4827   15.4520 C   0  0  0  0  0  0  0  0  0  0  0  0
   13.0561  -24.4774   15.4074 O   0  0  0  0  0  0  0  0  0  0  0  0
   12.1942  -22.6961   16.7026 C   0  0  0  0  0  0  0  0  0  0  0  0
   11.1746  -21.6286   16.5103 C   0  0  0  0  0  0  0  0  0  0  0  0
   10.1267  -21.6381   17.5517 C   0  0  2  0  0  0  0  0  0  0  0  0
    9.1185  -20.6118   17.3462 N   0  0  0  0  0  0  0  0  0  0  0  0
   10.5829  -21.4893   18.9474 C   0  0  0  0  0  0  0  0  0  0  0  0
   10.9432  -20.3755   19.3868 O   0  0  0  0  0  0  0  0  0  0  0  0
    8.8915  -24.9868   23.7906 N   0  0  0  0  0  0  0  0  0  0  0  0
    9.8098  -24.1391   24.4710 C   0  0  0  0  0  0  0  0  0  0  0  0
    9.9129  -24.2435   25.7183 O   0  0  0  0  0  0  0  0  0  0  0  0
   10.5796  -23.1875   23.6332 C   0  0  0  0  0  0  0  0  0  0  0  0
   10.3008  -23.3125   22.1596 C   0  0  0  0  0  0  0  0  0  0  0  0
   11.0167  -22.3413   21.2877 C   0  0  2  0  0  0  0  0  0  0  0  0
   10.6463  -22.5741   19.8774 N   0  0  0  0  0  0  0  0  0  0  0  0
   12.4758  -22.5347   21.4234 C   0  0  0  0  0  0  0  0  0  0  0  0
   13.2703  -21.8861   22.3488 O   0  0  0  0  0  0  0  0  0  0  0  0
   13.0268  -23.3627   20.6200 O   0  0  0  0  0  0  0  0  0  0  0  0
  2  1  1  0
  3  2  1  0
  3  4  2  0
  5  6  1  0
  6  7  2  0
  8  9  1  0
  8  6  1  0
 10  9  1  6
 10 11  1  0
 10 12  1  0
 11  3  1  0
 12 13  2  0
 12 20  1  0
 15 17  1  0
 15 14  1  0
 16 15  2  0
 19 18  1  1
 18 17  1  0
 19 21  1  0
 20 19  1  0
 21 23  2  0
 21 22  1  0
M  END
$$$$
