GQQ.pdb
     RDKit          3D

 23 22  0  0  1  0  0  0  0  0999 V2000
    7.4823  -12.7288   18.3986 N   0  0  0  0  0  0  0  0  0  0  0  0
    8.6767  -13.3535   18.9226 C   0  0  0  0  0  0  0  0  0  0  0  0
    8.3136  -14.2389   20.0674 C   0  0  0  0  0  0  0  0  0  0  0  0
    7.2499  -14.0561   20.7372 O   0  0  0  0  0  0  0  0  0  0  0  0
   10.4673  -19.9726   21.1521 N   0  0  0  0  0  0  0  0  0  0  0  0
    9.6987  -19.7774   22.3193 C   0  0  0  0  0  0  0  0  0  0  0  0
    9.5512  -20.6962   23.1336 O   0  0  0  0  0  0  0  0  0  0  0  0
    9.0714  -18.4542   22.5536 C   0  0  0  0  0  0  0  0  0  0  0  0
    9.3754  -17.5550   21.4068 C   0  0  0  0  0  0  0  0  0  0  0  0
    8.8029  -16.2025   21.5672 C   0  0  2  0  0  0  0  0  0  0  0  0
    9.1287  -15.3177   20.4614 N   0  0  0  0  0  0  0  0  0  0  0  0
    9.1700  -15.4728   22.7964 C   0  0  0  0  0  0  0  0  0  0  0  0
   10.2438  -14.8358   22.8651 O   0  0  0  0  0  0  0  0  0  0  0  0
    5.1521  -12.4530   26.2188 N   0  0  0  0  0  0  0  0  0  0  0  0
    6.3303  -12.0358   26.8988 C   0  0  0  0  0  0  0  0  0  0  0  0
    6.2353  -11.1318   27.7656 O   0  0  0  0  0  0  0  0  0  0  0  0
    7.5919  -12.7164   26.5181 C   0  0  0  0  0  0  0  0  0  0  0  0
    7.4268  -13.7316   25.4194 C   0  0  0  0  0  0  0  0  0  0  0  0
    8.6503  -14.5058   25.0738 C   0  0  2  0  0  0  0  0  0  0  0  0
    8.3514  -15.4386   23.9688 N   0  0  0  0  0  0  0  0  0  0  0  0
    9.0847  -15.2961   26.2450 C   0  0  0  0  0  0  0  0  0  0  0  0
    9.8117  -14.7915   27.3056 O   0  0  0  0  0  0  0  0  0  0  0  0
    8.7580  -16.5320   26.2622 O   0  0  0  0  0  0  0  0  0  0  0  0
  2  1  1  0
  3  2  1  0
  3  4  2  0
  5  6  1  0
  6  7  2  0
  8  9  1  0
  8  6  1  0
 10  9  1  6
 10 11  1  0
 10 12  1  0
 11  3  1  0
 12 13  2  0
 12 20  1  0
 15 17  1  0
 15 14  1  0
 16 15  2  0
 19 18  1  1
 18 17  1  0
 19 21  1  0
 20 19  1  0
 21 23  2  0
 21 22  1  0
M  END
$$$$
