GQQ.pdb
     RDKit          3D

 23 22  0  0  1  0  0  0  0  0999 V2000
   11.6762  -19.7964   22.5661 N   0  0  0  0  0  0  0  0  0  0  0  0
   10.7620  -20.4994   23.4386 C   0  0  0  0  0  0  0  0  0  0  0  0
    9.8603  -19.5179   24.1093 C   0  0  0  0  0  0  0  0  0  0  0  0
    9.8286  -18.2975   23.7584 O   0  0  0  0  0  0  0  0  0  0  0  0
    6.0709  -20.0614   28.0893 N   0  0  0  0  0  0  0  0  0  0  0  0
    6.0138  -21.1131   27.1502 C   0  0  0  0  0  0  0  0  0  0  0  0
    5.6214  -22.2356   27.4893 O   0  0  0  0  0  0  0  0  0  0  0  0
    6.4315  -20.8510   25.7516 C   0  0  0  0  0  0  0  0  0  0  0  0
    6.6485  -19.3897   25.5680 C   0  0  0  0  0  0  0  0  0  0  0  0
    8.0532  -18.9843   25.7809 C   0  0  2  0  0  0  0  0  0  0  0  0
    9.0024  -19.8936   25.1611 N   0  0  0  0  0  0  0  0  0  0  0  0
    8.4898  -18.8305   27.1823 C   0  0  0  0  0  0  0  0  0  0  0  0
    7.9406  -19.4811   28.0980 O   0  0  0  0  0  0  0  0  0  0  0  0
   11.0358  -21.7934   29.2613 N   0  0  0  0  0  0  0  0  0  0  0  0
   11.8604  -20.9896   28.4255 C   0  0  0  0  0  0  0  0  0  0  0  0
   12.6019  -21.5589   27.5869 O   0  0  0  0  0  0  0  0  0  0  0  0
   11.7720  -19.5219   28.6209 C   0  0  0  0  0  0  0  0  0  0  0  0
   10.5948  -19.0897   29.4529 C   0  0  0  0  0  0  0  0  0  0  0  0
    9.9242  -17.8363   29.0113 C   0  0  2  0  0  0  0  0  0  0  0  0
    9.5427  -17.9522   27.5896 N   0  0  0  0  0  0  0  0  0  0  0  0
   10.8575  -16.6986   29.1512 C   0  0  0  0  0  0  0  0  0  0  0  0
   11.2493  -15.8737   28.1147 O   0  0  0  0  0  0  0  0  0  0  0  0
   11.3275  -16.4761   30.3191 O   0  0  0  0  0  0  0  0  0  0  0  0
  2  1  1  0
  3  2  1  0
  3  4  2  0
  5  6  1  0
  6  7  2  0
  8  9  1  0
  8  6  1  0
 10  9  1  1
 10 11  1  0
 10 12  1  0
 11  3  1  0
 12 13  2  0
 12 20  1  0
 15 17  1  0
 15 14  1  0
 16 15  2  0
 19 18  1  6
 18 17  1  0
 19 21  1  0
 20 19  1  0
 21 23  2  0
 21 22  1  0
M  END
$$$$
