GQQ.pdb
     RDKit          3D

 23 22  0  0  1  0  0  0  0  0999 V2000
   13.3522  -17.4405   19.6348 N   0  0  0  0  0  0  0  0  0  0  0  0
   11.9368  -17.6641   19.8296 C   0  0  0  0  0  0  0  0  0  0  0  0
   11.4204  -16.7157   20.8592 C   0  0  0  0  0  0  0  0  0  0  0  0
   12.2054  -16.0736   21.6241 O   0  0  0  0  0  0  0  0  0  0  0  0
    6.9638  -12.1348   19.4429 N   0  0  0  0  0  0  0  0  0  0  0  0
    7.0890  -13.4480   19.9440 C   0  0  0  0  0  0  0  0  0  0  0  0
    6.1056  -14.1959   19.9947 O   0  0  0  0  0  0  0  0  0  0  0  0
    8.4173  -13.9163   20.4083 C   0  0  0  0  0  0  0  0  0  0  0  0
    8.2345  -14.9119   21.4999 C   0  0  0  0  0  0  0  0  0  0  0  0
    9.5081  -15.5018   21.9612 C   0  0  2  0  0  0  0  0  0  0  0  0
   10.0420  -16.4855   21.0342 N   0  0  0  0  0  0  0  0  0  0  0  0
    9.4911  -16.1544   23.2848 C   0  0  0  0  0  0  0  0  0  0  0  0
    9.1935  -17.3636   23.3976 O   0  0  0  0  0  0  0  0  0  0  0  0
   10.4045  -13.4613   28.9776 N   0  0  0  0  0  0  0  0  0  0  0  0
   10.3576  -14.8325   29.3550 C   0  0  0  0  0  0  0  0  0  0  0  0
   10.6203  -15.1373   30.5448 O   0  0  0  0  0  0  0  0  0  0  0  0
    9.9967  -15.8011   28.2914 C   0  0  0  0  0  0  0  0  0  0  0  0
   10.0747  -15.2326   26.9001 C   0  0  0  0  0  0  0  0  0  0  0  0
    9.6984  -16.1672   25.8044 C   0  0  2  0  0  0  0  0  0  0  0  0
    9.8041  -15.4754   24.5042 N   0  0  0  0  0  0  0  0  0  0  0  0
    8.2985  -16.6059   25.9854 C   0  0  0  0  0  0  0  0  0  0  0  0
    7.1960  -15.9311   25.4981 O   0  0  0  0  0  0  0  0  0  0  0  0
    8.1112  -17.6866   26.6422 O   0  0  0  0  0  0  0  0  0  0  0  0
  2  1  1  0
  3  2  1  0
  3  4  2  0
  5  6  1  0
  6  7  2  0
  8  9  1  0
  8  6  1  0
 10  9  1  6
 10 11  1  0
 10 12  1  0
 11  3  1  0
 12 13  2  0
 12 20  1  0
 15 17  1  0
 15 14  1  0
 16 15  2  0
 19 18  1  1
 18 17  1  0
 19 21  1  0
 20 19  1  0
 21 23  2  0
 21 22  1  0
M  END
$$$$
