GQQ.pdb
     RDKit          3D

 23 22  0  0  1  0  0  0  0  0999 V2000
    3.1500  -24.2155   24.7854 N   0  0  0  0  0  0  0  0  0  0  0  0
    3.3613  -22.7853   24.8208 C   0  0  0  0  0  0  0  0  0  0  0  0
    4.7369  -22.4735   24.3341 C   0  0  0  0  0  0  0  0  0  0  0  0
    5.6870  -23.3088   24.4478 O   0  0  0  0  0  0  0  0  0  0  0  0
    7.9409  -17.9981   19.7876 N   0  0  0  0  0  0  0  0  0  0  0  0
    7.6933  -19.3134   20.2349 C   0  0  0  0  0  0  0  0  0  0  0  0
    7.4217  -20.2094   19.4271 O   0  0  0  0  0  0  0  0  0  0  0  0
    7.7640  -19.6036   21.6874 C   0  0  0  0  0  0  0  0  0  0  0  0
    6.3966  -19.8963   22.1982 C   0  0  0  0  0  0  0  0  0  0  0  0
    6.3914  -20.8799   23.3006 C   0  0  2  0  0  0  0  0  0  0  0  0
    5.0499  -21.2421   23.7265 N   0  0  0  0  0  0  0  0  0  0  0  0
    7.1209  -20.5005   24.5261 C   0  0  0  0  0  0  0  0  0  0  0  0
    6.5690  -19.8104   25.4108 O   0  0  0  0  0  0  0  0  0  0  0  0
   10.1189  -21.3821   30.6564 N   0  0  0  0  0  0  0  0  0  0  0  0
    9.4429  -21.6704   29.4380 C   0  0  0  0  0  0  0  0  0  0  0  0
    8.3170  -22.2243   29.4921 O   0  0  0  0  0  0  0  0  0  0  0  0
   10.1392  -21.2853   28.1862 C   0  0  0  0  0  0  0  0  0  0  0  0
    9.3513  -21.5786   26.9380 C   0  0  0  0  0  0  0  0  0  0  0  0
    9.1638  -20.4270   26.0136 C   0  0  2  0  0  0  0  0  0  0  0  0
    8.4744  -20.8809   24.7893 N   0  0  0  0  0  0  0  0  0  0  0  0
   10.4820  -19.8795   25.6294 C   0  0  0  0  0  0  0  0  0  0  0  0
   11.4010  -19.3527   26.5160 O   0  0  0  0  0  0  0  0  0  0  0  0
   10.7770  -19.9009   24.3856 O   0  0  0  0  0  0  0  0  0  0  0  0
  2  1  1  0
  3  2  1  0
  3  4  2  0
  5  6  1  0
  6  7  2  0
  8  9  1  0
  8  6  1  0
 10  9  1  6
 10 11  1  0
 10 12  1  0
 11  3  1  0
 12 13  2  0
 12 20  1  0
 15 17  1  0
 15 14  1  0
 16 15  2  0
 19 18  1  1
 18 17  1  0
 19 21  1  0
 20 19  1  0
 21 23  2  0
 21 22  1  0
M  END
$$$$
