GQQ.pdb
     RDKit          3D

 23 22  0  0  1  0  0  0  0  0999 V2000
    8.2082  -19.3834   20.1582 N   0  0  0  0  0  0  0  0  0  0  0  0
    7.4511  -18.2982   20.7419 C   0  0  0  0  0  0  0  0  0  0  0  0
    8.2798  -17.0574   20.7423 C   0  0  0  0  0  0  0  0  0  0  0  0
    9.5102  -17.0802   20.4278 O   0  0  0  0  0  0  0  0  0  0  0  0
    9.1933  -12.5348   18.6284 N   0  0  0  0  0  0  0  0  0  0  0  0
    8.0492  -13.3292   18.4025 C   0  0  0  0  0  0  0  0  0  0  0  0
    7.8761  -13.8827   17.3103 O   0  0  0  0  0  0  0  0  0  0  0  0
    7.0588  -13.4898   19.4945 C   0  0  0  0  0  0  0  0  0  0  0  0
    7.7511  -13.3783   20.8077 C   0  0  0  0  0  0  0  0  0  0  0  0
    8.5311  -14.5848   21.1523 C   0  0  2  0  0  0  0  0  0  0  0  0
    7.7415  -15.8033   21.0902 N   0  0  0  0  0  0  0  0  0  0  0  0
    9.1876  -14.5901   22.4741 C   0  0  0  0  0  0  0  0  0  0  0  0
   10.1016  -13.7784   22.7372 O   0  0  0  0  0  0  0  0  0  0  0  0
    5.6787  -12.7347   26.1283 N   0  0  0  0  0  0  0  0  0  0  0  0
    6.7845  -12.7061   27.0234 C   0  0  0  0  0  0  0  0  0  0  0  0
    6.7211  -11.9614   28.0328 O   0  0  0  0  0  0  0  0  0  0  0  0
    7.9378  -13.5734   26.6805 C   0  0  0  0  0  0  0  0  0  0  0  0
    7.8653  -14.1618   25.2973 C   0  0  0  0  0  0  0  0  0  0  0  0
    8.9668  -15.0975   24.9409 C   0  0  2  0  0  0  0  0  0  0  0  0
    8.8401  -15.4963   23.5248 N   0  0  0  0  0  0  0  0  0  0  0  0
    8.8747  -16.3134   25.7764 C   0  0  0  0  0  0  0  0  0  0  0  0
    9.2419  -16.3806   27.1064 O   0  0  0  0  0  0  0  0  0  0  0  0
    8.4229  -17.3689   25.2141 O   0  0  0  0  0  0  0  0  0  0  0  0
  2  1  1  0
  3  2  1  0
  3  4  2  0
  5  6  1  0
  6  7  2  0
  8  9  1  0
  8  6  1  0
 10  9  1  1
 10 11  1  0
 10 12  1  0
 11  3  1  0
 12 13  2  0
 12 20  1  0
 15 17  1  0
 15 14  1  0
 16 15  2  0
 19 18  1  1
 18 17  1  0
 19 21  1  0
 20 19  1  0
 21 23  2  0
 21 22  1  0
M  END
$$$$
