GQQ.pdb
     RDKit          3D

 23 22  0  0  1  0  0  0  0  0999 V2000
    4.0093  -19.2070   21.3123 N   0  0  0  0  0  0  0  0  0  0  0  0
    3.8808  -17.7846   21.5396 C   0  0  0  0  0  0  0  0  0  0  0  0
    5.2140  -17.1333   21.3826 C   0  0  0  0  0  0  0  0  0  0  0  0
    6.2712  -17.8166   21.2127 O   0  0  0  0  0  0  0  0  0  0  0  0
    7.8212  -13.4536   18.3619 N   0  0  0  0  0  0  0  0  0  0  0  0
    8.5924  -13.4076   19.5428 C   0  0  0  0  0  0  0  0  0  0  0  0
    9.7998  -13.6728   19.5135 O   0  0  0  0  0  0  0  0  0  0  0  0
    7.9326  -13.0365   20.8179 C   0  0  0  0  0  0  0  0  0  0  0  0
    6.5977  -13.6915   20.8905 C   0  0  0  0  0  0  0  0  0  0  0  0
    6.6604  -15.0714   21.4146 C   0  0  2  0  0  0  0  0  0  0  0  0
    5.3668  -15.7336   21.4147 N   0  0  0  0  0  0  0  0  0  0  0  0
    7.2034  -15.2350   22.7772 C   0  0  0  0  0  0  0  0  0  0  0  0
    6.5919  -14.7793   23.7681 O   0  0  0  0  0  0  0  0  0  0  0  0
    8.3232  -19.3228   28.0527 N   0  0  0  0  0  0  0  0  0  0  0  0
    8.8592  -19.1427   26.7470 C   0  0  0  0  0  0  0  0  0  0  0  0
    9.0794  -20.1591   26.0426 O   0  0  0  0  0  0  0  0  0  0  0  0
    9.1169  -17.7450   26.3228 C   0  0  0  0  0  0  0  0  0  0  0  0
    8.6170  -17.4281   24.9392 C   0  0  0  0  0  0  0  0  0  0  0  0
    8.9125  -16.0533   24.4508 C   0  0  2  0  0  0  0  0  0  0  0  0
    8.4337  -15.9069   23.0617 N   0  0  0  0  0  0  0  0  0  0  0  0
   10.3727  -15.8246   24.4660 C   0  0  0  0  0  0  0  0  0  0  0  0
   11.1214  -15.6117   25.6072 O   0  0  0  0  0  0  0  0  0  0  0  0
   10.9702  -15.8256   23.3356 O   0  0  0  0  0  0  0  0  0  0  0  0
  2  1  1  0
  3  2  1  0
  3  4  2  0
  5  6  1  0
  6  7  2  0
  8  9  1  0
  8  6  1  0
 10  9  1  1
 10 11  1  0
 10 12  1  0
 11  3  1  0
 12 13  2  0
 12 20  1  0
 15 17  1  0
 15 14  1  0
 16 15  2  0
 19 18  1  6
 18 17  1  0
 19 21  1  0
 20 19  1  0
 21 23  2  0
 21 22  1  0
M  END
$$$$
