GQQ.pdb
     RDKit          3D

 23 22  0  0  1  0  0  0  0  0999 V2000
    9.3876  -20.1409   17.7922 N   0  0  0  0  0  0  0  0  0  0  0  0
    8.5082  -19.3671   18.6403 C   0  0  0  0  0  0  0  0  0  0  0  0
    9.2549  -18.2032   19.2008 C   0  0  0  0  0  0  0  0  0  0  0  0
   10.5187  -18.1169   19.1065 O   0  0  0  0  0  0  0  0  0  0  0  0
    6.8670  -12.7032   20.9558 N   0  0  0  0  0  0  0  0  0  0  0  0
    7.0253  -13.1423   19.6241 C   0  0  0  0  0  0  0  0  0  0  0  0
    6.4337  -12.5703   18.7011 O   0  0  0  0  0  0  0  0  0  0  0  0
    7.9113  -14.2993   19.3494 C   0  0  0  0  0  0  0  0  0  0  0  0
    8.4323  -14.8370   20.6361 C   0  0  0  0  0  0  0  0  0  0  0  0
    9.2980  -16.0208   20.4578 C   0  0  2  0  0  0  0  0  0  0  0  0
    8.5986  -17.1457   19.8599 N   0  0  0  0  0  0  0  0  0  0  0  0
    9.9549  -16.5458   21.6707 C   0  0  0  0  0  0  0  0  0  0  0  0
    9.4182  -17.4495   22.3481 O   0  0  0  0  0  0  0  0  0  0  0  0
   16.4966  -17.6156   24.9812 N   0  0  0  0  0  0  0  0  0  0  0  0
   15.6332  -16.7898   24.2083 C   0  0  0  0  0  0  0  0  0  0  0  0
   16.1434  -15.9021   23.4809 O   0  0  0  0  0  0  0  0  0  0  0  0
   14.1787  -17.0529   24.3311 C   0  0  0  0  0  0  0  0  0  0  0  0
   13.3651  -16.5147   23.1851 C   0  0  0  0  0  0  0  0  0  0  0  0
   11.8981  -16.7502   23.2750 C   0  0  2  0  0  0  0  0  0  0  0  0
   11.2178  -16.0764   22.1509 N   0  0  0  0  0  0  0  0  0  0  0  0
   11.3812  -16.1835   24.5385 C   0  0  0  0  0  0  0  0  0  0  0  0
   11.4785  -16.7985   25.7716 O   0  0  0  0  0  0  0  0  0  0  0  0
   10.8051  -15.0443   24.4687 O   0  0  0  0  0  0  0  0  0  0  0  0
  2  1  1  0
  3  2  1  0
  3  4  2  0
  5  6  1  0
  6  7  2  0
  8  9  1  0
  8  6  1  0
 10  9  1  1
 10 11  1  0
 10 12  1  0
 11  3  1  0
 12 13  2  0
 12 20  1  0
 15 17  1  0
 15 14  1  0
 16 15  2  0
 19 18  1  6
 18 17  1  0
 19 21  1  0
 20 19  1  0
 21 23  2  0
 21 22  1  0
M  END
$$$$
