HYS.pdb
     RDKit          3D

 29 30  0  0  1  0  0  0  0  0999 V2000
   10.9920  -13.6588   19.1916 N   0  0  0  0  0  0  0  0  0  0  0  0
    9.7162  -14.1149   19.6386 C   0  0  1  0  0  0  0  0  0  0  0  0
    9.3184  -15.3472   18.8330 C   0  0  0  0  0  0  0  0  0  0  0  0
    8.9085  -14.8988   17.4764 C   0  0  0  0  0  0  0  0  0  0  0  0
    8.6028  -13.6234   17.0811 C   0  0  0  0  0  0  0  0  0  0  0  0
    8.2779  -13.6475   15.7573 N   0  0  0  0  0  0  0  0  0  0  0  0
    8.3775  -14.9028   15.3358 C   0  0  0  0  0  0  0  0  0  0  0  0
    8.7592  -15.6739   16.3672 N   0  0  0  0  0  0  0  0  0  0  0  0
    9.6707  -14.4027   21.0940 C   0  0  0  0  0  0  0  0  0  0  0  0
   10.7491  -14.6761   21.6716 O   0  0  0  0  0  0  0  0  0  0  0  0
    7.7038  -12.2430   29.0307 O   0  0  0  0  0  0  0  0  0  0  0  0
    7.5369  -12.7029   27.7224 C   0  0  0  0  0  0  0  0  0  0  0  0
    6.8227  -11.9964   26.7771 C   0  0  0  0  0  0  0  0  0  0  0  0
    6.6725  -12.4717   25.4928 C   0  0  0  0  0  0  0  0  0  0  0  0
    7.2323  -13.6801   25.0949 C   0  0  0  0  0  0  0  0  0  0  0  0
    7.0498  -14.1597   23.6996 C   0  0  0  0  0  0  0  0  0  0  0  0
    8.3624  -14.5969   23.1646 C   0  0  2  0  0  0  0  0  0  0  0  0
    8.4076  -14.3500   21.7404 N   0  0  0  0  0  0  0  0  0  0  0  0
    8.7375  -15.9815   23.4245 C   0  0  0  0  0  0  0  0  0  0  0  0
    8.0402  -16.9081   22.9503 O   0  0  0  0  0  0  0  0  0  0  0  0
    7.9413  -14.3696   26.0541 C   0  0  0  0  0  0  0  0  0  0  0  0
    8.0928  -13.8945   27.3420 C   0  0  0  0  0  0  0  0  0  0  0  0
   12.4216  -17.3294   23.9860 O   0  0  0  0  0  0  0  0  0  0  0  0
   11.3960  -18.2086   23.6819 C   0  0  0  0  0  0  0  0  0  0  0  0
   10.1590  -17.7673   24.4336 C   0  0  2  0  0  0  0  0  0  0  0  0
    9.8648  -16.3770   24.1962 N   0  0  0  0  0  0  0  0  0  0  0  0
   10.3581  -17.9681   25.8815 C   0  0  0  0  0  0  0  0  0  0  0  0
   10.2932  -16.9909   26.6614 O   0  0  0  0  0  0  0  0  0  0  0  0
   10.6178  -19.2498   26.3682 O   0  0  0  0  0  0  0  0  0  0  0  0
  2  1  1  6
  2  9  1  0
  3  2  1  0
  3  4  1  0
  4  5  2  0
  4  8  1  0
  5  6  1  0
  6  7  1  0
  8  7  2  0
  9 18  1  0
  9 10  2  0
 11 12  1  0
 12 22  2  0
 13 12  1  0
 13 14  2  0
 14 15  1  0
 15 21  2  0
 15 16  1  0
 17 16  1  6
 18 17  1  0
 19 17  1  0
 19 20  2  0
 22 21  1  0
 23 24  1  0
 25 24  1  6
 25 26  1  0
 26 19  1  0
 27 25  1  0
 28 27  2  0
 29 27  1  0
M  END
$$$$
