HYS.pdb
     RDKit          3D

 29 30  0  0  1  0  0  0  0  0999 V2000
   11.1737  -13.4759   20.4194 N   0  0  0  0  0  0  0  0  0  0  0  0
   10.0068  -14.2090   20.7891 C   0  0  1  0  0  0  0  0  0  0  0  0
    9.7665  -15.3116   19.7632 C   0  0  0  0  0  0  0  0  0  0  0  0
    9.1376  -14.6973   18.5646 C   0  0  0  0  0  0  0  0  0  0  0  0
    9.6232  -13.6609   17.8119 C   0  0  0  0  0  0  0  0  0  0  0  0
    8.7398  -13.4071   16.8050 N   0  0  0  0  0  0  0  0  0  0  0  0
    7.7296  -14.2608   16.9242 C   0  0  0  0  0  0  0  0  0  0  0  0
    7.9564  -15.0500   17.9870 N   0  0  0  0  0  0  0  0  0  0  0  0
   10.0764  -14.7742   22.1597 C   0  0  0  0  0  0  0  0  0  0  0  0
   11.1967  -14.8160   22.7206 O   0  0  0  0  0  0  0  0  0  0  0  0
    6.9347  -10.4813   27.1251 O   0  0  0  0  0  0  0  0  0  0  0  0
    7.0813  -11.7347   26.5265 C   0  0  0  0  0  0  0  0  0  0  0  0
    6.4577  -12.0640   25.3410 C   0  0  0  0  0  0  0  0  0  0  0  0
    6.6183  -13.3077   24.7707 C   0  0  0  0  0  0  0  0  0  0  0  0
    7.4133  -14.2819   25.3632 C   0  0  0  0  0  0  0  0  0  0  0  0
    7.5637  -15.6122   24.7169 C   0  0  0  0  0  0  0  0  0  0  0  0
    8.9162  -15.7056   24.1150 C   0  0  2  0  0  0  0  0  0  0  0  0
    8.8687  -15.2321   22.7495 N   0  0  0  0  0  0  0  0  0  0  0  0
    9.5483  -17.0190   24.1466 C   0  0  0  0  0  0  0  0  0  0  0  0
    9.0564  -17.9557   23.4757 O   0  0  0  0  0  0  0  0  0  0  0  0
    8.0269  -13.9325   26.5462 C   0  0  0  0  0  0  0  0  0  0  0  0
    7.8669  -12.6862   27.1192 C   0  0  0  0  0  0  0  0  0  0  0  0
   13.3904  -17.8301   25.0792 O   0  0  0  0  0  0  0  0  0  0  0  0
   12.6167  -18.7966   24.4592 C   0  0  0  0  0  0  0  0  0  0  0  0
   11.2049  -18.6830   24.9919 C   0  0  2  0  0  0  0  0  0  0  0  0
   10.7132  -17.3319   24.9002 N   0  0  0  0  0  0  0  0  0  0  0  0
   11.1708  -19.1039   26.4055 C   0  0  0  0  0  0  0  0  0  0  0  0
   10.7649  -18.3088   27.2833 O   0  0  0  0  0  0  0  0  0  0  0  0
   11.5927  -20.3884   26.7505 O   0  0  0  0  0  0  0  0  0  0  0  0
  2  1  1  6
  2  9  1  0
  3  2  1  0
  3  4  1  0
  4  5  2  0
  4  8  1  0
  5  6  1  0
  6  7  1  0
  8  7  2  0
  9 18  1  0
  9 10  2  0
 11 12  1  0
 12 22  2  0
 13 12  1  0
 13 14  2  0
 14 15  1  0
 15 21  2  0
 15 16  1  0
 17 16  1  6
 18 17  1  0
 19 17  1  0
 19 20  2  0
 22 21  1  0
 23 24  1  0
 25 24  1  1
 25 26  1  0
 26 19  1  0
 27 25  1  0
 28 27  2  0
 29 27  1  0
M  END
$$$$
