HYS.pdb
     RDKit          3D

 29 30  0  0  1  0  0  0  0  0999 V2000
    9.9355  -18.0915   17.8193 N   0  0  0  0  0  0  0  0  0  0  0  0
    9.1521  -18.0411   19.0107 C   0  0  1  0  0  0  0  0  0  0  0  0
    8.9556  -19.4590   19.5369 C   0  0  0  0  0  0  0  0  0  0  0  0
    8.1362  -20.2083   18.5487 C   0  0  0  0  0  0  0  0  0  0  0  0
    7.6653  -19.7530   17.3457 C   0  0  0  0  0  0  0  0  0  0  0  0
    6.9594  -20.7558   16.7504 N   0  0  0  0  0  0  0  0  0  0  0  0
    6.9876  -21.8094   17.5582 C   0  0  0  0  0  0  0  0  0  0  0  0
    7.6977  -21.4929   18.6534 N   0  0  0  0  0  0  0  0  0  0  0  0
    9.7332  -17.1679   20.0608 C   0  0  0  0  0  0  0  0  0  0  0  0
   10.9758  -17.0035   20.0652 O   0  0  0  0  0  0  0  0  0  0  0  0
    7.7381  -11.6306   17.5189 O   0  0  0  0  0  0  0  0  0  0  0  0
    7.9340  -12.3563   18.6961 C   0  0  0  0  0  0  0  0  0  0  0  0
    9.0724  -12.2241   19.4639 C   0  0  0  0  0  0  0  0  0  0  0  0
    9.2419  -12.9516   20.6215 C   0  0  0  0  0  0  0  0  0  0  0  0
    8.2761  -13.8477   21.0648 C   0  0  0  0  0  0  0  0  0  0  0  0
    8.4942  -14.6140   22.3199 C   0  0  0  0  0  0  0  0  0  0  0  0
    9.4082  -15.7482   22.0396 C   0  0  2  0  0  0  0  0  0  0  0  0
    8.8440  -16.5735   20.9947 N   0  0  0  0  0  0  0  0  0  0  0  0
    9.7630  -16.5885   23.1769 C   0  0  0  0  0  0  0  0  0  0  0  0
    8.8718  -17.2547   23.7525 O   0  0  0  0  0  0  0  0  0  0  0  0
    7.1474  -13.9644   20.2836 C   0  0  0  0  0  0  0  0  0  0  0  0
    6.9760  -13.2359   19.1228 C   0  0  0  0  0  0  0  0  0  0  0  0
   12.3461  -19.1042   23.1800 O   0  0  0  0  0  0  0  0  0  0  0  0
   11.4422  -19.0733   24.2284 C   0  0  0  0  0  0  0  0  0  0  0  0
   11.3775  -17.6552   24.7528 C   0  0  2  0  0  0  0  0  0  0  0  0
   11.0789  -16.7167   23.7012 N   0  0  0  0  0  0  0  0  0  0  0  0
   12.6713  -17.2894   25.3600 C   0  0  0  0  0  0  0  0  0  0  0  0
   13.3130  -16.3097   24.9175 O   0  0  0  0  0  0  0  0  0  0  0  0
   13.1678  -18.0419   26.4250 O   0  0  0  0  0  0  0  0  0  0  0  0
  2  1  1  6
  2  9  1  0
  3  2  1  0
  3  4  1  0
  4  5  2  0
  4  8  1  0
  5  6  1  0
  6  7  1  0
  8  7  2  0
  9 18  1  0
  9 10  2  0
 11 12  1  0
 12 22  2  0
 13 12  1  0
 13 14  2  0
 14 15  1  0
 15 21  2  0
 15 16  1  0
 17 16  1  1
 18 17  1  0
 19 17  1  0
 19 20  2  0
 22 21  1  0
 23 24  1  0
 25 24  1  6
 25 26  1  0
 26 19  1  0
 27 25  1  0
 28 27  2  0
 29 27  1  0
M  END
$$$$
