HYS.pdb
     RDKit          3D

 29 30  0  0  1  0  0  0  0  0999 V2000
   10.3178  -15.7393   19.8436 N   0  0  0  0  0  0  0  0  0  0  0  0
    9.3271  -15.1820   20.7060 C   0  0  1  0  0  0  0  0  0  0  0  0
    7.9444  -15.5265   20.1626 C   0  0  0  0  0  0  0  0  0  0  0  0
    7.6291  -14.5736   19.0663 C   0  0  0  0  0  0  0  0  0  0  0  0
    8.4217  -13.5617   18.5927 C   0  0  0  0  0  0  0  0  0  0  0  0
    7.7574  -12.9280   17.5850 N   0  0  0  0  0  0  0  0  0  0  0  0
    6.5818  -13.5264   17.4320 C   0  0  0  0  0  0  0  0  0  0  0  0
    6.4892  -14.5268   18.3234 N   0  0  0  0  0  0  0  0  0  0  0  0
    9.4605  -15.6218   22.1172 C   0  0  0  0  0  0  0  0  0  0  0  0
    9.9423  -16.7585   22.3341 O   0  0  0  0  0  0  0  0  0  0  0  0
   10.4102  -15.3590   30.7461 O   0  0  0  0  0  0  0  0  0  0  0  0
   10.0801  -15.0066   29.4355 C   0  0  0  0  0  0  0  0  0  0  0  0
    8.7783  -14.7868   29.0359 C   0  0  0  0  0  0  0  0  0  0  0  0
    8.4786  -14.4401   27.7366 C   0  0  0  0  0  0  0  0  0  0  0  0
    9.4720  -14.2971   26.7750 C   0  0  0  0  0  0  0  0  0  0  0  0
    9.1097  -13.9203   25.3832 C   0  0  0  0  0  0  0  0  0  0  0  0
    9.2422  -15.1128   24.5110 C   0  0  2  0  0  0  0  0  0  0  0  0
    9.0336  -14.7265   23.1332 N   0  0  0  0  0  0  0  0  0  0  0  0
    8.3801  -16.2448   24.8286 C   0  0  0  0  0  0  0  0  0  0  0  0
    7.1506  -16.1657   24.6010 O   0  0  0  0  0  0  0  0  0  0  0  0
   10.7648  -14.5210   27.1949 C   0  0  0  0  0  0  0  0  0  0  0  0
   11.0669  -14.8687   28.4969 C   0  0  0  0  0  0  0  0  0  0  0  0
    8.8847  -19.9663   24.3156 O   0  0  0  0  0  0  0  0  0  0  0  0
    7.6586  -19.5167   24.7757 C   0  0  0  0  0  0  0  0  0  0  0  0
    7.9098  -18.4752   25.8445 C   0  0  2  0  0  0  0  0  0  0  0  0
    8.8359  -17.4681   25.3929 N   0  0  0  0  0  0  0  0  0  0  0  0
    8.4641  -19.1216   27.0491 C   0  0  0  0  0  0  0  0  0  0  0  0
    9.5630  -18.7399   27.5120 O   0  0  0  0  0  0  0  0  0  0  0  0
    7.7553  -20.1555   27.6621 O   0  0  0  0  0  0  0  0  0  0  0  0
  2  1  1  6
  2  9  1  0
  3  2  1  0
  3  4  1  0
  4  5  2  0
  4  8  1  0
  5  6  1  0
  6  7  1  0
  8  7  2  0
  9 18  1  0
  9 10  2  0
 11 12  1  0
 12 22  2  0
 13 12  1  0
 13 14  2  0
 14 15  1  0
 15 21  2  0
 15 16  1  0
 17 16  1  1
 18 17  1  0
 19 17  1  0
 19 20  2  0
 22 21  1  0
 23 24  1  0
 25 24  1  6
 25 26  1  0
 26 19  1  0
 27 25  1  0
 28 27  2  0
 29 27  1  0
M  END
$$$$
