HYS.pdb
     RDKit          3D

 29 30  0  0  1  0  0  0  0  0999 V2000
   10.2019  -17.1774   19.1298 N   0  0  0  0  0  0  0  0  0  0  0  0
    8.9736  -17.1304   19.8541 C   0  0  1  0  0  0  0  0  0  0  0  0
    8.4192  -18.5451   19.9854 C   0  0  0  0  0  0  0  0  0  0  0  0
    7.5893  -18.8285   18.7853 C   0  0  0  0  0  0  0  0  0  0  0  0
    7.3368  -17.9878   17.7337 C   0  0  0  0  0  0  0  0  0  0  0  0
    6.5312  -18.6366   16.8456 N   0  0  0  0  0  0  0  0  0  0  0  0
    6.2863  -19.8494   17.3280 C   0  0  0  0  0  0  0  0  0  0  0  0
    6.9213  -19.9809   18.5041 N   0  0  0  0  0  0  0  0  0  0  0  0
    9.1007  -16.4911   21.1876 C   0  0  0  0  0  0  0  0  0  0  0  0
   10.1800  -16.6382   21.8079 O   0  0  0  0  0  0  0  0  0  0  0  0
    7.3729  -11.7491   28.2955 O   0  0  0  0  0  0  0  0  0  0  0  0
    7.2851  -12.3284   27.0275 C   0  0  0  0  0  0  0  0  0  0  0  0
    6.4661  -13.4066   26.7637 C   0  0  0  0  0  0  0  0  0  0  0  0
    6.3973  -13.9601   25.5040 C   0  0  0  0  0  0  0  0  0  0  0  0
    7.1478  -13.4578   24.4474 C   0  0  0  0  0  0  0  0  0  0  0  0
    7.0458  -14.0811   23.1015 C   0  0  0  0  0  0  0  0  0  0  0  0
    8.1282  -15.0841   22.9515 C   0  0  2  0  0  0  0  0  0  0  0  0
    7.9908  -15.7529   21.6768 N   0  0  0  0  0  0  0  0  0  0  0  0
    8.2354  -16.0822   24.0088 C   0  0  0  0  0  0  0  0  0  0  0  0
    7.3482  -16.9598   24.1199 O   0  0  0  0  0  0  0  0  0  0  0  0
    7.9589  -12.3813   24.7323 C   0  0  0  0  0  0  0  0  0  0  0  0
    8.0290  -11.8252   25.9946 C   0  0  0  0  0  0  0  0  0  0  0  0
   11.4024  -17.8244   24.9164 O   0  0  0  0  0  0  0  0  0  0  0  0
   10.2275  -18.3493   25.4277 C   0  0  0  0  0  0  0  0  0  0  0  0
    9.3763  -17.2013   25.9255 C   0  0  2  0  0  0  0  0  0  0  0  0
    9.2979  -16.1417   24.9525 N   0  0  0  0  0  0  0  0  0  0  0  0
    9.9516  -16.6584   27.1708 C   0  0  0  0  0  0  0  0  0  0  0  0
   10.2985  -15.4567   27.2254 O   0  0  0  0  0  0  0  0  0  0  0  0
   10.1036  -17.4931   28.2786 O   0  0  0  0  0  0  0  0  0  0  0  0
  2  1  1  1
  2  9  1  0
  3  2  1  0
  3  4  1  0
  4  5  2  0
  4  8  1  0
  5  6  1  0
  6  7  1  0
  8  7  2  0
  9 18  1  0
  9 10  2  0
 11 12  1  0
 12 22  2  0
 13 12  1  0
 13 14  2  0
 14 15  1  0
 15 21  2  0
 15 16  1  0
 17 16  1  1
 18 17  1  0
 19 17  1  0
 19 20  2  0
 22 21  1  0
 23 24  1  0
 25 24  1  6
 25 26  1  0
 26 19  1  0
 27 25  1  0
 28 27  2  0
 29 27  1  0
M  END
$$$$
