HYS.pdb
     RDKit          3D

 29 30  0  0  1  0  0  0  0  0999 V2000
    9.7935  -16.9408   18.4751 N   0  0  0  0  0  0  0  0  0  0  0  0
    8.6214  -16.9385   19.2885 C   0  0  1  0  0  0  0  0  0  0  0  0
    8.0944  -18.3649   19.4054 C   0  0  0  0  0  0  0  0  0  0  0  0
    7.5744  -18.7750   18.0747 C   0  0  0  0  0  0  0  0  0  0  0  0
    6.2632  -18.8740   17.6908 C   0  0  0  0  0  0  0  0  0  0  0  0
    6.2233  -19.2824   16.3907 N   0  0  0  0  0  0  0  0  0  0  0  0
    7.4745  -19.4347   15.9726 C   0  0  0  0  0  0  0  0  0  0  0  0
    8.3056  -19.1306   16.9828 N   0  0  0  0  0  0  0  0  0  0  0  0
    8.8390  -16.3481   20.6328 C   0  0  0  0  0  0  0  0  0  0  0  0
    9.9809  -16.4492   21.1398 O   0  0  0  0  0  0  0  0  0  0  0  0
    7.3805  -12.2923   28.2105 O   0  0  0  0  0  0  0  0  0  0  0  0
    7.2537  -12.7424   26.8944 C   0  0  0  0  0  0  0  0  0  0  0  0
    7.8606  -12.1025   25.8337 C   0  0  0  0  0  0  0  0  0  0  0  0
    7.7200  -12.5665   24.5442 C   0  0  0  0  0  0  0  0  0  0  0  0
    6.9628  -13.6962   24.2567 C   0  0  0  0  0  0  0  0  0  0  0  0
    6.8355  -14.1675   22.8525 C   0  0  0  0  0  0  0  0  0  0  0  0
    7.9571  -15.0899   22.5501 C   0  0  2  0  0  0  0  0  0  0  0  0
    7.7390  -15.7055   21.2599 N   0  0  0  0  0  0  0  0  0  0  0  0
    8.2249  -16.1275   23.5386 C   0  0  0  0  0  0  0  0  0  0  0  0
    7.3687  -17.0188   23.7437 O   0  0  0  0  0  0  0  0  0  0  0  0
    6.3654  -14.3200   25.3300 C   0  0  0  0  0  0  0  0  0  0  0  0
    6.5054  -13.8561   26.6234 C   0  0  0  0  0  0  0  0  0  0  0  0
   11.7737  -17.5606   24.2795 O   0  0  0  0  0  0  0  0  0  0  0  0
   10.6607  -18.2802   24.6801 C   0  0  0  0  0  0  0  0  0  0  0  0
    9.6398  -17.3045   25.2240 C   0  0  2  0  0  0  0  0  0  0  0  0
    9.4155  -16.2120   24.3120 N   0  0  0  0  0  0  0  0  0  0  0  0
   10.1102  -16.7575   26.5109 C   0  0  0  0  0  0  0  0  0  0  0  0
   10.3432  -17.5293   27.4687 O   0  0  0  0  0  0  0  0  0  0  0  0
   10.2909  -15.3807   26.6474 O   0  0  0  0  0  0  0  0  0  0  0  0
  2  1  1  1
  2  9  1  0
  3  2  1  0
  3  4  1  0
  4  5  2  0
  4  8  1  0
  5  6  1  0
  6  7  1  0
  8  7  2  0
  9 18  1  0
  9 10  2  0
 11 12  1  0
 12 22  2  0
 13 12  1  0
 13 14  2  0
 14 15  1  0
 15 21  2  0
 15 16  1  0
 17 16  1  1
 18 17  1  0
 19 17  1  0
 19 20  2  0
 22 21  1  0
 23 24  1  0
 25 24  1  6
 25 26  1  0
 26 19  1  0
 27 25  1  0
 28 27  2  0
 29 27  1  0
M  END
$$$$
