HYS.pdb
     RDKit          3D

 29 30  0  0  1  0  0  0  0  0999 V2000
   11.1804  -13.9506   20.7320 N   0  0  0  0  0  0  0  0  0  0  0  0
    9.8779  -14.3323   21.1719 C   0  0  1  0  0  0  0  0  0  0  0  0
    9.3257  -15.3948   20.2274 C   0  0  0  0  0  0  0  0  0  0  0  0
    8.8258  -14.7112   19.0058 C   0  0  0  0  0  0  0  0  0  0  0  0
    8.9363  -13.3817   18.6948 C   0  0  0  0  0  0  0  0  0  0  0  0
    8.3453  -13.1704   17.4846 N   0  0  0  0  0  0  0  0  0  0  0  0
    7.8780  -14.3351   17.0503 C   0  0  0  0  0  0  0  0  0  0  0  0
    8.1617  -15.2795   17.9621 N   0  0  0  0  0  0  0  0  0  0  0  0
    9.8479  -14.8121   22.5761 C   0  0  0  0  0  0  0  0  0  0  0  0
   10.9349  -14.8765   23.1971 O   0  0  0  0  0  0  0  0  0  0  0  0
    6.6164  -10.2668   27.2398 O   0  0  0  0  0  0  0  0  0  0  0  0
    6.7477  -11.5448   26.6916 C   0  0  0  0  0  0  0  0  0  0  0  0
    6.0504  -11.9419   25.5696 C   0  0  0  0  0  0  0  0  0  0  0  0
    6.1974  -13.2086   25.0481 C   0  0  0  0  0  0  0  0  0  0  0  0
    7.0522  -14.1386   25.6282 C   0  0  0  0  0  0  0  0  0  0  0  0
    7.1855  -15.4956   25.0358 C   0  0  0  0  0  0  0  0  0  0  0  0
    8.5561  -15.6509   24.4903 C   0  0  2  0  0  0  0  0  0  0  0  0
    8.5889  -15.1683   23.1276 N   0  0  0  0  0  0  0  0  0  0  0  0
    9.1226  -16.9934   24.5385 C   0  0  0  0  0  0  0  0  0  0  0  0
    8.5270  -17.9344   23.9645 O   0  0  0  0  0  0  0  0  0  0  0  0
    7.7388  -13.7218   26.7474 C   0  0  0  0  0  0  0  0  0  0  0  0
    7.5925  -12.4524   27.2714 C   0  0  0  0  0  0  0  0  0  0  0  0
   12.9312  -17.9194   25.7407 O   0  0  0  0  0  0  0  0  0  0  0  0
   12.2231  -18.8663   25.0202 C   0  0  0  0  0  0  0  0  0  0  0  0
   10.7539  -18.7020   25.3432 C   0  0  2  0  0  0  0  0  0  0  0  0
   10.3330  -17.3311   25.2046 N   0  0  0  0  0  0  0  0  0  0  0  0
   10.4970  -19.1378   26.7290 C   0  0  0  0  0  0  0  0  0  0  0  0
    9.9612  -18.3502   27.5413 O   0  0  0  0  0  0  0  0  0  0  0  0
   10.8552  -20.4282   27.1212 O   0  0  0  0  0  0  0  0  0  0  0  0
  2  1  1  6
  2  9  1  0
  3  2  1  0
  3  4  1  0
  4  5  2  0
  4  8  1  0
  5  6  1  0
  6  7  1  0
  8  7  2  0
  9 18  1  0
  9 10  2  0
 11 12  1  0
 12 22  2  0
 13 12  1  0
 13 14  2  0
 14 15  1  0
 15 21  2  0
 15 16  1  0
 17 16  1  6
 18 17  1  0
 19 17  1  0
 19 20  2  0
 22 21  1  0
 23 24  1  0
 25 24  1  1
 25 26  1  0
 26 19  1  0
 27 25  1  0
 28 27  2  0
 29 27  1  0
M  END
$$$$
