HYS.pdb
     RDKit          3D

 29 30  0  0  1  0  0  0  0  0999 V2000
   10.8793  -14.0633   19.9699 N   0  0  0  0  0  0  0  0  0  0  0  0
    9.7672  -14.3237   20.8251 C   0  0  1  0  0  0  0  0  0  0  0  0
    8.8560  -15.3484   20.1577 C   0  0  0  0  0  0  0  0  0  0  0  0
    8.2184  -14.7016   18.9810 C   0  0  0  0  0  0  0  0  0  0  0  0
    8.3942  -13.4151   18.5447 C   0  0  0  0  0  0  0  0  0  0  0  0
    7.6263  -13.2267   17.4342 N   0  0  0  0  0  0  0  0  0  0  0  0
    6.9877  -14.3635   17.1824 C   0  0  0  0  0  0  0  0  0  0  0  0
    7.3365  -15.2679   18.1121 N   0  0  0  0  0  0  0  0  0  0  0  0
   10.1617  -14.7777   22.1820 C   0  0  0  0  0  0  0  0  0  0  0  0
   11.1950  -15.4793   22.2882 O   0  0  0  0  0  0  0  0  0  0  0  0
   10.4495  -15.8783   30.8099 O   0  0  0  0  0  0  0  0  0  0  0  0
   10.0695  -15.4504   29.5357 C   0  0  0  0  0  0  0  0  0  0  0  0
    9.1096  -16.1056   28.7928 C   0  0  0  0  0  0  0  0  0  0  0  0
    8.7523  -15.6634   27.5379 C   0  0  0  0  0  0  0  0  0  0  0  0
    9.3417  -14.5412   26.9676 C   0  0  0  0  0  0  0  0  0  0  0  0
    8.9289  -14.0935   25.6114 C   0  0  0  0  0  0  0  0  0  0  0  0
    9.7181  -14.8353   24.5979 C   0  0  2  0  0  0  0  0  0  0  0  0
    9.3430  -14.3883   23.2748 N   0  0  0  0  0  0  0  0  0  0  0  0
    9.6380  -16.2899   24.6544 C   0  0  0  0  0  0  0  0  0  0  0  0
    8.5853  -16.8636   24.2906 O   0  0  0  0  0  0  0  0  0  0  0  0
   10.2976  -13.9017   27.7262 C   0  0  0  0  0  0  0  0  0  0  0  0
   10.6569  -14.3438   28.9843 C   0  0  0  0  0  0  0  0  0  0  0  0
   11.9801  -18.8895   23.3898 O   0  0  0  0  0  0  0  0  0  0  0  0
   10.7225  -19.2346   23.8552 C   0  0  0  0  0  0  0  0  0  0  0  0
   10.5155  -18.5627   25.1953 C   0  0  2  0  0  0  0  0  0  0  0  0
   10.6900  -17.1355   25.1028 N   0  0  0  0  0  0  0  0  0  0  0  0
   11.4827  -19.0950   26.1739 C   0  0  0  0  0  0  0  0  0  0  0  0
   11.5361  -20.3268   26.3911 O   0  0  0  0  0  0  0  0  0  0  0  0
   12.3308  -18.2168   26.8494 O   0  0  0  0  0  0  0  0  0  0  0  0
  2  1  1  6
  2  9  1  0
  3  2  1  0
  3  4  1  0
  4  5  2  0
  4  8  1  0
  5  6  1  0
  6  7  1  0
  8  7  2  0
  9 18  1  0
  9 10  2  0
 11 12  1  0
 12 22  2  0
 13 12  1  0
 13 14  2  0
 14 15  1  0
 15 21  2  0
 15 16  1  0
 17 16  1  1
 18 17  1  0
 19 17  1  0
 19 20  2  0
 22 21  1  0
 23 24  1  0
 25 24  1  6
 25 26  1  0
 26 19  1  0
 27 25  1  0
 28 27  2  0
 29 27  1  0
M  END
$$$$
