HYS.pdb
     RDKit          3D

 29 30  0  0  1  0  0  0  0  0999 V2000
   10.1509  -16.6653   19.6076 N   0  0  0  0  0  0  0  0  0  0  0  0
    9.2585  -16.8950   20.6969 C   0  0  1  0  0  0  0  0  0  0  0  0
    8.7912  -18.3462   20.6593 C   0  0  0  0  0  0  0  0  0  0  0  0
    7.7105  -18.4566   19.6448 C   0  0  0  0  0  0  0  0  0  0  0  0
    7.2551  -17.4732   18.8070 C   0  0  0  0  0  0  0  0  0  0  0  0
    6.2571  -17.9905   18.0357 N   0  0  0  0  0  0  0  0  0  0  0  0
    6.0925  -19.2622   18.3810 C   0  0  0  0  0  0  0  0  0  0  0  0
    6.9669  -19.5598   19.3560 N   0  0  0  0  0  0  0  0  0  0  0  0
    9.8475  -16.5678   22.0194 C   0  0  0  0  0  0  0  0  0  0  0  0
   11.0876  -16.6895   22.1553 O   0  0  0  0  0  0  0  0  0  0  0  0
   10.4446  -14.7074   30.5202 O   0  0  0  0  0  0  0  0  0  0  0  0
    9.9847  -14.7994   29.2045 C   0  0  0  0  0  0  0  0  0  0  0  0
    9.2083  -15.8518   28.7659 C   0  0  0  0  0  0  0  0  0  0  0  0
    8.7670  -15.9195   27.4625 C   0  0  0  0  0  0  0  0  0  0  0  0
    9.0840  -14.9332   26.5357 C   0  0  0  0  0  0  0  0  0  0  0  0
    8.5882  -15.0402   25.1383 C   0  0  0  0  0  0  0  0  0  0  0  0
    9.5271  -15.8816   24.3568 C   0  0  2  0  0  0  0  0  0  0  0  0
    8.9682  -16.1373   23.0478 N   0  0  0  0  0  0  0  0  0  0  0  0
    9.9222  -17.1458   24.9660 C   0  0  0  0  0  0  0  0  0  0  0  0
    9.0656  -18.0455   25.1289 O   0  0  0  0  0  0  0  0  0  0  0  0
    9.8601  -13.8914   26.9943 C   0  0  0  0  0  0  0  0  0  0  0  0
   10.3032  -13.8221   28.3006 C   0  0  0  0  0  0  0  0  0  0  0  0
   13.6377  -18.6009   24.9049 O   0  0  0  0  0  0  0  0  0  0  0  0
   12.5933  -19.4696   25.1731 C   0  0  0  0  0  0  0  0  0  0  0  0
   11.5599  -18.7255   25.9907 C   0  0  2  0  0  0  0  0  0  0  0  0
   11.2411  -17.4492   25.4032 N   0  0  0  0  0  0  0  0  0  0  0  0
   12.0716  -18.5030   27.3564 C   0  0  0  0  0  0  0  0  0  0  0  0
   12.1699  -17.3377   27.8034 O   0  0  0  0  0  0  0  0  0  0  0  0
   12.4419  -19.5978   28.1384 O   0  0  0  0  0  0  0  0  0  0  0  0
  2  1  1  6
  2  9  1  0
  3  2  1  0
  3  4  1  0
  4  5  2  0
  4  8  1  0
  5  6  1  0
  6  7  1  0
  8  7  2  0
  9 18  1  0
  9 10  2  0
 11 12  1  0
 12 22  2  0
 13 12  1  0
 13 14  2  0
 14 15  1  0
 15 21  2  0
 15 16  1  0
 17 16  1  1
 18 17  1  0
 19 17  1  0
 19 20  2  0
 22 21  1  0
 23 24  1  0
 25 24  1  6
 25 26  1  0
 26 19  1  0
 27 25  1  0
 28 27  2  0
 29 27  1  0
M  END
$$$$
