HYS.pdb
     RDKit          3D

 29 30  0  0  1  0  0  0  0  0999 V2000
   13.5527  -19.1354   42.3233 N   0  0  0  0  0  0  0  0  0  0  0  0
   13.9552  -18.2439   43.3620 C   0  0  1  0  0  0  0  0  0  0  0  0
   15.4600  -18.3739   43.5736 C   0  0  0  0  0  0  0  0  0  0  0  0
   15.7455  -19.7651   44.0123 C   0  0  0  0  0  0  0  0  0  0  0  0
   15.0411  -20.5098   44.9210 C   0  0  0  0  0  0  0  0  0  0  0  0
   15.6373  -21.7305   45.0342 N   0  0  0  0  0  0  0  0  0  0  0  0
   16.6856  -21.7494   44.2192 C   0  0  0  0  0  0  0  0  0  0  0  0
   16.7645  -20.5642   43.5923 N   0  0  0  0  0  0  0  0  0  0  0  0
   13.5824  -16.8309   43.1022 C   0  0  0  0  0  0  0  0  0  0  0  0
   13.1739  -16.5336   41.9551 O   0  0  0  0  0  0  0  0  0  0  0  0
    7.2793  -16.1828   45.2584 O   0  0  0  0  0  0  0  0  0  0  0  0
    8.5787  -15.6706   45.2420 C   0  0  0  0  0  0  0  0  0  0  0  0
    9.6341  -16.3156   45.8527 C   0  0  0  0  0  0  0  0  0  0  0  0
   10.9070  -15.7895   45.8224 C   0  0  0  0  0  0  0  0  0  0  0  0
   11.1823  -14.5896   45.1769 C   0  0  0  0  0  0  0  0  0  0  0  0
   12.5691  -14.0541   45.1643 C   0  0  0  0  0  0  0  0  0  0  0  0
   13.2651  -14.5470   43.9506 C   0  0  2  0  0  0  0  0  0  0  0  0
   13.7120  -15.9045   44.1705 N   0  0  0  0  0  0  0  0  0  0  0  0
   14.3851  -13.7430   43.4766 C   0  0  0  0  0  0  0  0  0  0  0  0
   15.5494  -14.1976   43.5619 O   0  0  0  0  0  0  0  0  0  0  0  0
   10.1145  -13.9620   44.5737 C   0  0  0  0  0  0  0  0  0  0  0  0
    8.8379  -14.4881   44.6032 C   0  0  0  0  0  0  0  0  0  0  0  0
   17.1906  -11.6992   40.9046 O   0  0  0  0  0  0  0  0  0  0  0  0
   16.1125  -12.4631   41.3187 C   0  0  0  0  0  0  0  0  0  0  0  0
   15.4100  -11.7203   42.4344 C   0  0  2  0  0  0  0  0  0  0  0  0
   14.2587  -12.4455   42.9081 N   0  0  0  0  0  0  0  0  0  0  0  0
   14.9702  -10.3973   41.9521 C   0  0  0  0  0  0  0  0  0  0  0  0
   13.7481  -10.1422   41.8588 O   0  0  0  0  0  0  0  0  0  0  0  0
   15.9245   -9.4408   41.6038 O   0  0  0  0  0  0  0  0  0  0  0  0
  2  1  1  6
  2  9  1  0
  3  2  1  0
  3  4  1  0
  4  5  2  0
  4  8  1  0
  5  6  1  0
  6  7  1  0
  8  7  2  0
  9 18  1  0
  9 10  2  0
 11 12  1  0
 12 22  2  0
 13 12  1  0
 13 14  2  0
 14 15  1  0
 15 21  2  0
 15 16  1  0
 17 16  1  1
 18 17  1  0
 19 17  1  0
 19 20  2  0
 22 21  1  0
 23 24  1  0
 25 24  1  6
 25 26  1  0
 26 19  1  0
 27 25  1  0
 28 27  2  0
 29 27  1  0
M  END
$$$$
