HYS.pdb
     RDKit          3D

 29 30  0  0  1  0  0  0  0  0999 V2000
    9.9740  -15.9511   13.0734 N   0  0  0  0  0  0  0  0  0  0  0  0
    9.3723  -15.6990   14.3423 C   0  0  1  0  0  0  0  0  0  0  0  0
    8.1025  -16.5347   14.4653 C   0  0  0  0  0  0  0  0  0  0  0  0
    7.0632  -15.9254   13.5948 C   0  0  0  0  0  0  0  0  0  0  0  0
    7.2185  -14.8785   12.7251 C   0  0  0  0  0  0  0  0  0  0  0  0
    6.0195  -14.6345   12.1240 N   0  0  0  0  0  0  0  0  0  0  0  0
    5.1383  -15.5043   12.6040 C   0  0  0  0  0  0  0  0  0  0  0  0
    5.7563  -16.2942   13.4973 N   0  0  0  0  0  0  0  0  0  0  0  0
   10.2820  -15.9558   15.4866 C   0  0  0  0  0  0  0  0  0  0  0  0
   11.0322  -16.9581   15.4258 O   0  0  0  0  0  0  0  0  0  0  0  0
   15.0998  -14.8812   22.6164 O   0  0  0  0  0  0  0  0  0  0  0  0
   14.1370  -14.6899   21.6227 C   0  0  0  0  0  0  0  0  0  0  0  0
   14.4687  -14.3317   20.3326 C   0  0  0  0  0  0  0  0  0  0  0  0
   13.4999  -14.1490   19.3703 C   0  0  0  0  0  0  0  0  0  0  0  0
   12.1502  -14.3171   19.6567 C   0  0  0  0  0  0  0  0  0  0  0  0
   11.1337  -14.1125   18.5914 C   0  0  0  0  0  0  0  0  0  0  0  0
   11.1277  -15.2959   17.6970 C   0  0  2  0  0  0  0  0  0  0  0  0
   10.2449  -15.0491   16.5787 N   0  0  0  0  0  0  0  0  0  0  0  0
   10.7779  -16.5700   18.3134 C   0  0  0  0  0  0  0  0  0  0  0  0
    9.5919  -16.7837   18.6558 O   0  0  0  0  0  0  0  0  0  0  0  0
   11.8407  -14.6748   20.9507 C   0  0  0  0  0  0  0  0  0  0  0  0
   12.8107  -14.8583   21.9165 C   0  0  0  0  0  0  0  0  0  0  0  0
   12.9211  -19.9019   17.9132 O   0  0  0  0  0  0  0  0  0  0  0  0
   11.6353  -20.0570   18.4031 C   0  0  0  0  0  0  0  0  0  0  0  0
   11.2946  -18.8342   19.2269 C   0  0  2  0  0  0  0  0  0  0  0  0
   11.7023  -17.6212   18.5647 N   0  0  0  0  0  0  0  0  0  0  0  0
   11.9728  -18.9101   20.5348 C   0  0  0  0  0  0  0  0  0  0  0  0
   12.7543  -17.9972   20.8859 O   0  0  0  0  0  0  0  0  0  0  0  0
   11.7353  -20.0025   21.3697 O   0  0  0  0  0  0  0  0  0  0  0  0
  2  1  1  6
  2  9  1  0
  3  2  1  0
  3  4  1  0
  4  5  2  0
  4  8  1  0
  5  6  1  0
  6  7  1  0
  8  7  2  0
  9 18  1  0
  9 10  2  0
 11 12  1  0
 12 22  2  0
 13 12  1  0
 13 14  2  0
 14 15  1  0
 15 21  2  0
 15 16  1  0
 17 16  1  1
 18 17  1  0
 19 17  1  0
 19 20  2  0
 22 21  1  0
 23 24  1  0
 25 24  1  6
 25 26  1  0
 26 19  1  0
 27 25  1  0
 28 27  2  0
 29 27  1  0
M  END
$$$$
