RNA.pdb
     RDKit          3D

 25 24  0  0  1  0  0  0  0  0999 V2000
    8.6385  -13.3794   18.5427 N   0  0  0  0  0  0  0  0  0  0  0  0
    8.4238  -12.9857   19.9110 C   0  0  0  0  0  0  0  0  0  0  0  0
    9.0301  -11.9491   20.3691 N   0  0  0  0  0  0  0  0  0  0  0  0
    7.5463  -13.7387   20.7369 N   0  0  0  0  0  0  0  0  0  0  0  0
    6.8523  -14.8870   20.1455 C   0  0  0  0  0  0  0  0  0  0  0  0
    6.0154  -15.5668   21.1839 C   0  0  0  0  0  0  0  0  0  0  0  0
    6.3763  -16.9737   21.5188 C   0  0  0  0  0  0  0  0  0  0  0  0
    6.5721  -17.2400   22.9757 C   0  0  2  0  0  0  0  0  0  0  0  0
    6.1793  -16.1856   23.8420 N   0  0  0  0  0  0  0  0  0  0  0  0
    8.0223  -17.6222   23.2413 C   0  0  0  0  0  0  0  0  0  0  0  0
    8.5793  -18.5292   22.5954 O   0  0  0  0  0  0  0  0  0  0  0  0
    8.9200  -11.6536   21.3590 N   0  0  0  0  0  0  0  0  0  0  0  0
   11.9878  -14.2048   21.7304 C   0  0  0  0  0  0  0  0  0  0  0  0
   11.7475  -15.2663   22.6290 O   0  0  0  0  0  0  0  0  0  0  0  0
   12.7140  -15.7096   23.2901 C   0  0  0  0  0  0  0  0  0  0  0  0
   10.4061  -15.8165   22.7668 C   0  0  2  0  0  0  0  0  0  0  0  0
   10.0745  -16.3752   24.1039 N   0  0  0  0  0  0  0  0  0  0  0  0
    8.7559  -16.9379   24.2348 C   0  0  0  0  0  0  0  0  0  0  0  0
   10.4854  -15.5380   25.2591 O   0  0  0  0  0  0  0  0  0  0  0  0
   11.6116  -14.9973   25.2599 C   0  0  0  0  0  0  0  0  0  0  0  0
    9.2005  -13.5079   27.9855 C   0  0  2  0  0  0  0  0  0  0  0  0
   10.1115  -14.5829   27.5168 N   0  0  0  0  0  0  0  0  0  0  0  0
    9.6377  -15.3281   26.3751 C   0  0  0  0  0  0  0  0  0  0  0  0
   10.3921  -15.5891   28.6538 O   0  0  0  0  0  0  0  0  0  0  0  0
   10.9166  -15.1021   29.8338 O   0  0  0  0  0  0  0  0  0  0  0  0
  2  1  1  0
  3  2  2  0
  4  2  1  0
  5  4  1  0
  6  5  1  0
  7  6  1  0
  8 10  1  0
  8  9  1  1
  8  7  1  0
 10 17  1  0
 11 10  2  0
 13 12  1  0
 14 13  2  0
 15 13  1  0
 16 15  1  6
 17 16  1  0
 18 16  1  0
 19 18  2  0
 21 20  1  6
 21 23  1  0
 21 22  1  0
 22 18  1  0
 23 24  1  0
 25 23  2  0
M  END
$$$$
