RNA.pdb
     RDKit          3D

 25 24  0  0  1  0  0  0  0  0999 V2000
    7.5664  -12.8848   14.3174 N   0  0  0  0  0  0  0  0  0  0  0  0
    8.6222  -13.5759   15.0111 C   0  0  0  0  0  0  0  0  0  0  0  0
    9.5180  -14.1987   14.3315 N   0  0  0  0  0  0  0  0  0  0  0  0
    8.6672  -13.5608   16.4312 N   0  0  0  0  0  0  0  0  0  0  0  0
    7.6649  -14.3400   17.1650 C   0  0  0  0  0  0  0  0  0  0  0  0
    7.2360  -13.5939   18.3898 C   0  0  0  0  0  0  0  0  0  0  0  0
    8.1311  -13.6868   19.5781 C   0  0  0  0  0  0  0  0  0  0  0  0
    8.6302  -15.0623   19.8799 C   0  0  2  0  0  0  0  0  0  0  0  0
    7.7390  -15.8800   20.6239 N   0  0  0  0  0  0  0  0  0  0  0  0
    9.9774  -14.9802   20.5857 C   0  0  0  0  0  0  0  0  0  0  0  0
   10.8028  -14.0931   20.2996 O   0  0  0  0  0  0  0  0  0  0  0  0
   10.3095  -14.6828   14.7987 N   0  0  0  0  0  0  0  0  0  0  0  0
    9.4349  -17.8058   24.4441 C   0  0  0  0  0  0  0  0  0  0  0  0
   10.4667  -16.8441   24.3933 O   0  0  0  0  0  0  0  0  0  0  0  0
   10.4112  -15.8771   25.1865 C   0  0  0  0  0  0  0  0  0  0  0  0
   11.5548  -16.9909   23.4365 C   0  0  2  0  0  0  0  0  0  0  0  0
   11.5467  -16.0313   22.3011 N   0  0  0  0  0  0  0  0  0  0  0  0
   10.3022  -15.9224   21.5859 C   0  0  0  0  0  0  0  0  0  0  0  0
   12.7407  -16.0832   21.4203 O   0  0  0  0  0  0  0  0  0  0  0  0
   13.1715  -17.1887   21.0289 C   0  0  0  0  0  0  0  0  0  0  0  0
   14.7114  -13.8186   19.2049 C   0  0  2  0  0  0  0  0  0  0  0  0
   14.5270  -15.0021   20.0826 N   0  0  0  0  0  0  0  0  0  0  0  0
   13.4192  -14.9111   21.0032 C   0  0  0  0  0  0  0  0  0  0  0  0
   15.8049  -15.2696   20.9069 O   0  0  0  0  0  0  0  0  0  0  0  0
   16.9695  -15.5512   20.2218 O   0  0  0  0  0  0  0  0  0  0  0  0
  2  1  1  0
  3  2  2  0
  4  2  1  0
  5  4  1  0
  6  5  1  0
  7  6  1  0
  8 10  1  0
  8  9  1  1
  8  7  1  0
 10 17  1  0
 11 10  2  0
 13 12  1  0
 14 13  2  0
 15 13  1  0
 16 15  1  1
 17 16  1  0
 18 16  1  0
 19 18  2  0
 21 20  1  6
 21 23  1  0
 21 22  1  0
 22 18  1  0
 23 24  1  0
 25 23  2  0
M  END
$$$$
