RNA.pdb
     RDKit          3D

 25 24  0  0  1  0  0  0  0  0999 V2000
    9.1127  -15.4232   16.8947 N   0  0  0  0  0  0  0  0  0  0  0  0
    8.4692  -14.1489   16.7056 C   0  0  0  0  0  0  0  0  0  0  0  0
    7.7019  -13.9773   15.6889 N   0  0  0  0  0  0  0  0  0  0  0  0
    8.6831  -13.1000   17.6400 N   0  0  0  0  0  0  0  0  0  0  0  0
    7.8210  -13.0403   18.8247 C   0  0  0  0  0  0  0  0  0  0  0  0
    7.4705  -14.4257   19.2703 C   0  0  0  0  0  0  0  0  0  0  0  0
    7.5007  -14.6847   20.7379 C   0  0  0  0  0  0  0  0  0  0  0  0
    8.8194  -15.1492   21.2646 C   0  0  2  0  0  0  0  0  0  0  0  0
    9.4039  -16.2351   20.5608 N   0  0  0  0  0  0  0  0  0  0  0  0
    8.6940  -15.4914   22.7435 C   0  0  0  0  0  0  0  0  0  0  0  0
    7.9983  -14.7989   23.5094 O   0  0  0  0  0  0  0  0  0  0  0  0
    7.2514  -13.0600   15.5021 N   0  0  0  0  0  0  0  0  0  0  0  0
   11.0039  -19.6934   26.6843 C   0  0  0  0  0  0  0  0  0  0  0  0
    9.9510  -18.8568   26.2559 O   0  0  0  0  0  0  0  0  0  0  0  0
    9.1024  -18.4961   27.1027 C   0  0  0  0  0  0  0  0  0  0  0  0
    9.8720  -18.4381   24.8632 C   0  0  2  0  0  0  0  0  0  0  0  0
    9.4209  -17.0398   24.6367 N   0  0  0  0  0  0  0  0  0  0  0  0
    9.3740  -16.6148   23.2621 C   0  0  0  0  0  0  0  0  0  0  0  0
   10.0040  -16.0301   25.5559 O   0  0  0  0  0  0  0  0  0  0  0  0
   11.1801  -15.6451   25.3839 C   0  0  0  0  0  0  0  0  0  0  0  0
    9.0477  -13.2342   27.6347 C   0  0  2  0  0  0  0  0  0  0  0  0
    9.8584  -14.4682   27.4763 N   0  0  0  0  0  0  0  0  0  0  0  0
    9.2676  -15.4813   26.6350 C   0  0  0  0  0  0  0  0  0  0  0  0
   10.1473  -15.1068   28.8521 O   0  0  0  0  0  0  0  0  0  0  0  0
   10.7722  -14.3308   29.8071 O   0  0  0  0  0  0  0  0  0  0  0  0
  2  1  1  0
  3  2  2  0
  4  2  1  0
  5  4  1  0
  6  5  1  0
  7  6  1  0
  8 10  1  0
  8  9  1  6
  8  7  1  0
 10 17  1  0
 11 10  2  0
 13 12  1  0
 14 13  2  0
 15 13  1  0
 16 15  1  6
 17 16  1  0
 18 16  1  0
 19 18  2  0
 21 20  1  6
 21 23  1  0
 21 22  1  0
 22 18  1  0
 23 24  1  0
 25 23  2  0
M  END
$$$$
