RNA.pdb
     RDKit          3D

 25 24  0  0  1  0  0  0  0  0999 V2000
    7.8834  -12.0959   18.5908 N   0  0  0  0  0  0  0  0  0  0  0  0
    8.0090  -13.2400   17.7255 C   0  0  0  0  0  0  0  0  0  0  0  0
    8.6499  -13.1225   16.6175 N   0  0  0  0  0  0  0  0  0  0  0  0
    7.4310  -14.4822   18.1026 N   0  0  0  0  0  0  0  0  0  0  0  0
    6.7460  -14.5637   19.3965 C   0  0  0  0  0  0  0  0  0  0  0  0
    7.5171  -15.4474   20.3267 C   0  0  0  0  0  0  0  0  0  0  0  0
    8.6400  -14.8140   21.0749 C   0  0  0  0  0  0  0  0  0  0  0  0
    9.4402  -15.7537   21.9166 C   0  0  2  0  0  0  0  0  0  0  0  0
    9.4759  -17.0970   21.4576 N   0  0  0  0  0  0  0  0  0  0  0  0
    8.9468  -15.7061   23.3568 C   0  0  0  0  0  0  0  0  0  0  0  0
    8.5268  -14.6477   23.8604 O   0  0  0  0  0  0  0  0  0  0  0  0
    8.7643  -13.9289   15.9726 N   0  0  0  0  0  0  0  0  0  0  0  0
    6.2609  -18.0038   24.1978 C   0  0  0  0  0  0  0  0  0  0  0  0
    6.8734  -18.8308   25.1636 O   0  0  0  0  0  0  0  0  0  0  0  0
    6.3896  -19.9692   25.3576 C   0  0  0  0  0  0  0  0  0  0  0  0
    8.0335  -18.3533   25.9034 C   0  0  2  0  0  0  0  0  0  0  0  0
    8.5389  -17.0115   25.5108 N   0  0  0  0  0  0  0  0  0  0  0  0
    8.9601  -16.8805   24.1405 C   0  0  0  0  0  0  0  0  0  0  0  0
    9.4605  -16.3729   26.4840 O   0  0  0  0  0  0  0  0  0  0  0  0
   10.6730  -16.6741   26.4750 C   0  0  0  0  0  0  0  0  0  0  0  0
    9.5333  -13.5375   28.9401 C   0  0  2  0  0  0  0  0  0  0  0  0
    9.9339  -14.8565   28.3881 N   0  0  0  0  0  0  0  0  0  0  0  0
    9.0102  -15.4241   27.4352 C   0  0  0  0  0  0  0  0  0  0  0  0
   10.1291  -15.8828   29.5250 O   0  0  0  0  0  0  0  0  0  0  0  0
   11.0833  -15.6116   30.4845 O   0  0  0  0  0  0  0  0  0  0  0  0
  2  1  1  0
  3  2  2  0
  4  2  1  0
  5  4  1  0
  6  5  1  0
  7  6  1  0
  8 10  1  0
  8  9  1  6
  8  7  1  0
 10 17  1  0
 11 10  2  0
 13 12  1  0
 14 13  2  0
 15 13  1  0
 16 15  1  6
 17 16  1  0
 18 16  1  0
 19 18  2  0
 21 20  1  6
 21 23  1  0
 21 22  1  0
 22 18  1  0
 23 24  1  0
 25 23  2  0
M  END
$$$$
