RNA.pdb
     RDKit          3D

 25 24  0  0  1  0  0  0  0  0999 V2000
    8.2056  -12.6722   17.3581 N   0  0  0  0  0  0  0  0  0  0  0  0
    8.8363  -12.8574   18.6392 C   0  0  0  0  0  0  0  0  0  0  0  0
    9.0412  -11.8361   19.3922 N   0  0  0  0  0  0  0  0  0  0  0  0
    9.2208  -14.1592   19.0596 N   0  0  0  0  0  0  0  0  0  0  0  0
    8.1651  -15.1397   19.3322 C   0  0  0  0  0  0  0  0  0  0  0  0
    7.3401  -14.6898   20.4973 C   0  0  0  0  0  0  0  0  0  0  0  0
    7.8146  -15.0965   21.8506 C   0  0  0  0  0  0  0  0  0  0  0  0
    8.0855  -16.5574   22.0060 C   0  0  2  0  0  0  0  0  0  0  0  0
    6.9922  -17.4115   21.7033 N   0  0  0  0  0  0  0  0  0  0  0  0
    8.5974  -16.8417   23.4121 C   0  0  0  0  0  0  0  0  0  0  0  0
    7.8199  -16.8977   24.3829 O   0  0  0  0  0  0  0  0  0  0  0  0
    9.6710  -11.8916   20.2165 N   0  0  0  0  0  0  0  0  0  0  0  0
   12.3899  -19.6061   22.9314 C   0  0  0  0  0  0  0  0  0  0  0  0
   11.7065  -19.3848   24.1462 O   0  0  0  0  0  0  0  0  0  0  0  0
   10.9824  -20.3041   24.5916 C   0  0  0  0  0  0  0  0  0  0  0  0
   11.8521  -18.1153   24.8449 C   0  0  2  0  0  0  0  0  0  0  0  0
   10.6355  -17.2621   24.8885 N   0  0  0  0  0  0  0  0  0  0  0  0
    9.9775  -17.0494   23.6259 C   0  0  0  0  0  0  0  0  0  0  0  0
   10.7524  -16.0353   25.7166 O   0  0  0  0  0  0  0  0  0  0  0  0
   11.6053  -15.1710   25.4225 C   0  0  0  0  0  0  0  0  0  0  0  0
    9.0020  -13.6658   27.6593 C   0  0  2  0  0  0  0  0  0  0  0  0
   10.1242  -14.6383   27.6667 N   0  0  0  0  0  0  0  0  0  0  0  0
    9.9235  -15.8063   26.8429 C   0  0  0  0  0  0  0  0  0  0  0  0
   10.4147  -15.1192   29.1048 O   0  0  0  0  0  0  0  0  0  0  0  0
   10.7843  -14.1746   30.0406 O   0  0  0  0  0  0  0  0  0  0  0  0
  2  1  1  0
  3  2  2  0
  4  2  1  0
  5  4  1  0
  6  5  1  0
  7  6  1  0
  8 10  1  0
  8  9  1  1
  8  7  1  0
 10 17  1  0
 11 10  2  0
 13 12  1  0
 14 13  2  0
 15 13  1  0
 16 15  1  1
 17 16  1  0
 18 16  1  0
 19 18  2  0
 21 20  1  6
 21 23  1  0
 21 22  1  0
 22 18  1  0
 23 24  1  0
 25 23  2  0
M  END
$$$$
