RNA.pdb
     RDKit          3D

 25 24  0  0  1  0  0  0  0  0999 V2000
    7.9663  -14.4221   16.3673 N   0  0  0  0  0  0  0  0  0  0  0  0
    7.9653  -13.5281   17.4961 C   0  0  0  0  0  0  0  0  0  0  0  0
    8.4880  -12.3604   17.3732 N   0  0  0  0  0  0  0  0  0  0  0  0
    7.3869  -13.9396   18.7270 N   0  0  0  0  0  0  0  0  0  0  0  0
    8.2848  -14.2922   19.8314 C   0  0  0  0  0  0  0  0  0  0  0  0
    9.4165  -15.1286   19.3210 C   0  0  0  0  0  0  0  0  0  0  0  0
   10.4877  -15.4739   20.2983 C   0  0  0  0  0  0  0  0  0  0  0  0
   10.1686  -16.6243   21.1964 C   0  0  2  0  0  0  0  0  0  0  0  0
    8.9160  -17.2493   20.9579 N   0  0  0  0  0  0  0  0  0  0  0  0
   10.2658  -16.1865   22.6520 C   0  0  0  0  0  0  0  0  0  0  0  0
   11.2086  -15.4781   23.0512 O   0  0  0  0  0  0  0  0  0  0  0  0
    8.5731  -11.7193   18.1863 N   0  0  0  0  0  0  0  0  0  0  0  0
    7.0090  -16.4702   23.2889 C   0  0  0  0  0  0  0  0  0  0  0  0
    6.7792  -16.2328   24.6610 O   0  0  0  0  0  0  0  0  0  0  0  0
    5.5935  -16.1613   25.0567 C   0  0  0  0  0  0  0  0  0  0  0  0
    7.9038  -16.0769   25.5731 C   0  0  1  0  0  0  0  0  0  0  0  0
    9.2468  -16.3274   24.9870 N   0  0  0  0  0  0  0  0  0  0  0  0
    9.2707  -16.5852   23.5709 C   0  0  0  0  0  0  0  0  0  0  0  0
   10.1224  -17.2312   25.7748 O   0  0  0  0  0  0  0  0  0  0  0  0
   10.4978  -16.8871   26.9156 C   0  0  0  0  0  0  0  0  0  0  0  0
   12.8573  -18.8781   26.0744 C   0  0  1  0  0  0  0  0  0  0  0  0
   11.4378  -19.3141   26.0580 N   0  0  0  0  0  0  0  0  0  0  0  0
   10.5547  -18.4844   25.2740 C   0  0  0  0  0  0  0  0  0  0  0  0
   10.8742  -19.3780   27.4940 O   0  0  0  0  0  0  0  0  0  0  0  0
   11.5293  -20.1745   28.4113 O   0  0  0  0  0  0  0  0  0  0  0  0
  2  1  1  0
  3  2  2  0
  4  2  1  0
  5  4  1  0
  6  5  1  0
  7  6  1  0
  8 10  1  0
  8  9  1  6
  8  7  1  0
 10 17  1  0
 11 10  2  0
 13 12  1  0
 14 13  2  0
 15 13  1  0
 16 15  1  6
 17 16  1  0
 18 16  1  0
 19 18  2  0
 21 20  1  6
 21 23  1  0
 21 22  1  0
 22 18  1  0
 23 24  1  0
 25 23  2  0
M  END
$$$$
