RNA.pdb
     RDKit          3D

 25 24  0  0  1  0  0  0  0  0999 V2000
    8.4656  -12.0809   18.1454 N   0  0  0  0  0  0  0  0  0  0  0  0
    7.9085  -13.1826   17.4042 C   0  0  0  0  0  0  0  0  0  0  0  0
    6.9799  -12.9561   16.5449 N   0  0  0  0  0  0  0  0  0  0  0  0
    8.3891  -14.5015   17.6244 N   0  0  0  0  0  0  0  0  0  0  0  0
    8.4330  -15.0025   19.0018 C   0  0  0  0  0  0  0  0  0  0  0  0
    7.2501  -14.4959   19.7664 C   0  0  0  0  0  0  0  0  0  0  0  0
    7.0758  -15.0163   21.1523 C   0  0  0  0  0  0  0  0  0  0  0  0
    8.3363  -15.4690   21.8141 C   0  0  2  0  0  0  0  0  0  0  0  0
    8.8711  -16.6908   21.3265 N   0  0  0  0  0  0  0  0  0  0  0  0
    8.1278  -15.5537   23.3205 C   0  0  0  0  0  0  0  0  0  0  0  0
    7.6516  -14.5979   23.9608 O   0  0  0  0  0  0  0  0  0  0  0  0
    6.5808  -13.7222   15.9677 N   0  0  0  0  0  0  0  0  0  0  0  0
    6.6514  -18.9827   27.7653 C   0  0  0  0  0  0  0  0  0  0  0  0
    7.9055  -18.7445   27.1635 O   0  0  0  0  0  0  0  0  0  0  0  0
    8.9270  -18.8050   27.8850 C   0  0  0  0  0  0  0  0  0  0  0  0
    7.9866  -18.4372   25.7422 C   0  0  1  0  0  0  0  0  0  0  0  0
    8.2672  -17.0165   25.4064 N   0  0  0  0  0  0  0  0  0  0  0  0
    8.4761  -16.7355   24.0101 C   0  0  0  0  0  0  0  0  0  0  0  0
    9.2307  -16.3324   26.3053 O   0  0  0  0  0  0  0  0  0  0  0  0
   10.4576  -16.4632   26.1094 C   0  0  0  0  0  0  0  0  0  0  0  0
    9.2787  -13.3926   28.5378 C   0  0  2  0  0  0  0  0  0  0  0  0
    9.7615  -14.7353   28.1265 N   0  0  0  0  0  0  0  0  0  0  0  0
    8.8051  -15.5277   27.3914 C   0  0  0  0  0  0  0  0  0  0  0  0
   10.2037  -15.5530   29.3593 O   0  0  0  0  0  0  0  0  0  0  0  0
   11.1677  -15.0098   30.1841 O   0  0  0  0  0  0  0  0  0  0  0  0
  2  1  1  0
  3  2  2  0
  4  2  1  0
  5  4  1  0
  6  5  1  0
  7  6  1  0
  8 10  1  0
  8  9  1  6
  8  7  1  0
 10 17  1  0
 11 10  2  0
 13 12  1  0
 14 13  2  0
 15 13  1  0
 16 15  1  6
 17 16  1  0
 18 16  1  0
 19 18  2  0
 21 20  1  6
 21 23  1  0
 21 22  1  0
 22 18  1  0
 23 24  1  0
 25 23  2  0
M  END
$$$$
