RNA.pdb
     RDKit          3D

 25 24  0  0  1  0  0  0  0  0999 V2000
    8.1332  -13.5657   16.3368 N   0  0  0  0  0  0  0  0  0  0  0  0
    8.2672  -13.4879   17.7684 C   0  0  0  0  0  0  0  0  0  0  0  0
    8.6642  -12.3888   18.3035 N   0  0  0  0  0  0  0  0  0  0  0  0
    7.9580  -14.6178   18.5727 N   0  0  0  0  0  0  0  0  0  0  0  0
    7.0038  -14.4454   19.6727 C   0  0  0  0  0  0  0  0  0  0  0  0
    7.7133  -13.9331   20.8872 C   0  0  0  0  0  0  0  0  0  0  0  0
    7.3628  -14.5729   22.1871 C   0  0  0  0  0  0  0  0  0  0  0  0
    7.8690  -15.9685   22.3545 C   0  0  2  0  0  0  0  0  0  0  0  0
    7.4556  -16.8867   21.3532 N   0  0  0  0  0  0  0  0  0  0  0  0
    7.4914  -16.4936   23.7335 C   0  0  0  0  0  0  0  0  0  0  0  0
    6.4792  -17.1990   23.9005 O   0  0  0  0  0  0  0  0  0  0  0  0
    8.6561  -12.2570   19.3339 N   0  0  0  0  0  0  0  0  0  0  0  0
   10.1097  -18.8509   27.7598 C   0  0  0  0  0  0  0  0  0  0  0  0
    9.2213  -19.3115   26.7647 O   0  0  0  0  0  0  0  0  0  0  0  0
    8.7445  -20.4627   26.8867 C   0  0  0  0  0  0  0  0  0  0  0  0
    8.8834  -18.4562   25.6353 C   0  0  2  0  0  0  0  0  0  0  0  0
    8.5997  -17.0352   25.9670 N   0  0  0  0  0  0  0  0  0  0  0  0
    8.3010  -16.1812   24.8472 C   0  0  0  0  0  0  0  0  0  0  0  0
    9.5179  -16.4217   26.9594 O   0  0  0  0  0  0  0  0  0  0  0  0
    9.7658  -17.0237   28.0257 C   0  0  0  0  0  0  0  0  0  0  0  0
    9.3036  -13.2811   28.1095 C   0  0  1  0  0  0  0  0  0  0  0  0
   10.3779  -14.2727   27.8491 N   0  0  0  0  0  0  0  0  0  0  0  0
   10.1298  -15.1625   26.7401 C   0  0  0  0  0  0  0  0  0  0  0  0
   10.6307  -15.1391   29.1018 O   0  0  0  0  0  0  0  0  0  0  0  0
   11.1754  -14.5271   30.2125 O   0  0  0  0  0  0  0  0  0  0  0  0
  2  1  1  0
  3  2  2  0
  4  2  1  0
  5  4  1  0
  6  5  1  0
  7  6  1  0
  8 10  1  0
  8  9  1  6
  8  7  1  0
 10 17  1  0
 11 10  2  0
 13 12  1  0
 14 13  2  0
 15 13  1  0
 16 15  1  1
 17 16  1  0
 18 16  1  0
 19 18  2  0
 21 20  1  6
 21 23  1  0
 21 22  1  0
 22 18  1  0
 23 24  1  0
 25 23  2  0
M  END
$$$$
