RNA.pdb
     RDKit          3D

 25 24  0  0  1  0  0  0  0  0999 V2000
    7.4928  -12.1502   20.1290 N   0  0  0  0  0  0  0  0  0  0  0  0
    8.5484  -13.0436   19.7275 C   0  0  0  0  0  0  0  0  0  0  0  0
    9.3523  -12.6855   18.7907 N   0  0  0  0  0  0  0  0  0  0  0  0
    8.6944  -14.3034   20.3684 N   0  0  0  0  0  0  0  0  0  0  0  0
    7.6217  -14.7562   21.2597 C   0  0  0  0  0  0  0  0  0  0  0  0
    6.8657  -15.8779   20.6184 C   0  0  0  0  0  0  0  0  0  0  0  0
    7.0186  -17.2266   21.2345 C   0  0  0  0  0  0  0  0  0  0  0  0
    5.7401  -17.8631   21.6729 C   0  0  2  0  0  0  0  0  0  0  0  0
    4.5749  -17.0735   21.4847 N   0  0  0  0  0  0  0  0  0  0  0  0
    5.8500  -18.2942   23.1296 C   0  0  0  0  0  0  0  0  0  0  0  0
    5.1882  -17.7307   24.0210 O   0  0  0  0  0  0  0  0  0  0  0  0
   10.0963  -13.3231   18.4456 N   0  0  0  0  0  0  0  0  0  0  0  0
    4.5361  -20.9619   23.7633 C   0  0  0  0  0  0  0  0  0  0  0  0
    5.4476  -21.8583   24.3612 O   0  0  0  0  0  0  0  0  0  0  0  0
    5.1511  -23.0746   24.3820 C   0  0  0  0  0  0  0  0  0  0  0  0
    6.6913  -21.3614   24.9332 C   0  0  2  0  0  0  0  0  0  0  0  0
    6.9218  -19.8989   24.7988 N   0  0  0  0  0  0  0  0  0  0  0  0
    6.7141  -19.3534   23.4829 C   0  0  0  0  0  0  0  0  0  0  0  0
    8.1406  -19.3858   25.4738 O   0  0  0  0  0  0  0  0  0  0  0  0
    8.4465  -19.8161   26.6062 C   0  0  0  0  0  0  0  0  0  0  0  0
   10.9370  -16.9088   24.8461 C   0  0  1  0  0  0  0  0  0  0  0  0
   10.1816  -17.9794   25.5449 N   0  0  0  0  0  0  0  0  0  0  0  0
    8.9792  -18.4132   24.8748 C   0  0  0  0  0  0  0  0  0  0  0  0
    9.7914  -17.5263   26.9683 O   0  0  0  0  0  0  0  0  0  0  0  0
   10.7849  -17.4706   27.9247 O   0  0  0  0  0  0  0  0  0  0  0  0
  2  1  1  0
  3  2  2  0
  4  2  1  0
  5  4  1  0
  6  5  1  0
  7  6  1  0
  8 10  1  0
  8  9  1  1
  8  7  1  0
 10 17  1  0
 11 10  2  0
 13 12  1  0
 14 13  2  0
 15 13  1  0
 16 15  1  1
 17 16  1  0
 18 16  1  0
 19 18  2  0
 21 20  1  6
 21 23  1  0
 21 22  1  0
 22 18  1  0
 23 24  1  0
 25 23  2  0
M  END
$$$$
