RNA.pdb
     RDKit          3D

 25 24  0  0  1  0  0  0  0  0999 V2000
    8.0807  -12.4880   19.5152 N   0  0  0  0  0  0  0  0  0  0  0  0
    8.0975  -13.3562   18.3665 C   0  0  0  0  0  0  0  0  0  0  0  0
    8.4839  -12.8905   17.2326 N   0  0  0  0  0  0  0  0  0  0  0  0
    7.6933  -14.7123   18.4957 N   0  0  0  0  0  0  0  0  0  0  0  0
    7.4811  -15.2470   19.8445 C   0  0  0  0  0  0  0  0  0  0  0  0
    8.7909  -15.3582   20.5606 C   0  0  0  0  0  0  0  0  0  0  0  0
    8.7574  -15.9453   21.9303 C   0  0  0  0  0  0  0  0  0  0  0  0
    9.1609  -17.3817   22.0058 C   0  0  2  0  0  0  0  0  0  0  0  0
    8.3675  -18.2746   21.2381 N   0  0  0  0  0  0  0  0  0  0  0  0
    9.1974  -17.8329   23.4601 C   0  0  0  0  0  0  0  0  0  0  0  0
    8.7527  -18.9443   23.8022 O   0  0  0  0  0  0  0  0  0  0  0  0
    8.4890  -13.4836   16.3796 N   0  0  0  0  0  0  0  0  0  0  0  0
   10.2872  -19.8130   28.2775 C   0  0  0  0  0  0  0  0  0  0  0  0
   10.9748  -18.8828   27.4689 O   0  0  0  0  0  0  0  0  0  0  0  0
   11.9540  -18.2805   27.9649 C   0  0  0  0  0  0  0  0  0  0  0  0
   10.5399  -18.6441   26.0996 C   0  0  1  0  0  0  0  0  0  0  0  0
    9.9762  -17.2953   25.8296 N   0  0  0  0  0  0  0  0  0  0  0  0
    9.7465  -16.9816   24.4436 C   0  0  0  0  0  0  0  0  0  0  0  0
   10.5929  -16.1861   26.6002 O   0  0  0  0  0  0  0  0  0  0  0  0
   11.7507  -16.3168   27.0510 C   0  0  0  0  0  0  0  0  0  0  0  0
    9.3058  -13.0868   28.3263 C   0  0  1  0  0  0  0  0  0  0  0  0
   10.2933  -14.1329   27.9580 N   0  0  0  0  0  0  0  0  0  0  0  0
    9.9080  -14.9704   26.8475 C   0  0  0  0  0  0  0  0  0  0  0  0
   10.5838  -15.0522   29.1640 O   0  0  0  0  0  0  0  0  0  0  0  0
   11.3185  -14.5333   30.2108 O   0  0  0  0  0  0  0  0  0  0  0  0
  2  1  1  0
  3  2  2  0
  4  2  1  0
  5  4  1  0
  6  5  1  0
  7  6  1  0
  8 10  1  0
  8  9  1  6
  8  7  1  0
 10 17  1  0
 11 10  2  0
 13 12  1  0
 14 13  2  0
 15 13  1  0
 16 15  1  1
 17 16  1  0
 18 16  1  0
 19 18  2  0
 21 20  1  6
 21 23  1  0
 21 22  1  0
 22 18  1  0
 23 24  1  0
 25 23  2  0
M  END
$$$$
