RNA.pdb
     RDKit          3D

 25 24  0  0  1  0  0  0  0  0999 V2000
    8.3603  -14.6522   18.1615 N   0  0  0  0  0  0  0  0  0  0  0  0
    8.2643  -13.5429   19.0745 C   0  0  0  0  0  0  0  0  0  0  0  0
    8.1639  -12.3503   18.6059 N   0  0  0  0  0  0  0  0  0  0  0  0
    8.2772  -13.7743   20.4764 N   0  0  0  0  0  0  0  0  0  0  0  0
    8.0091  -15.1333   20.9573 C   0  0  0  0  0  0  0  0  0  0  0  0
    6.5447  -15.3021   21.2179 C   0  0  0  0  0  0  0  0  0  0  0  0
    6.1003  -16.6413   21.6985 C   0  0  0  0  0  0  0  0  0  0  0  0
    6.1634  -16.8276   23.1795 C   0  0  2  0  0  0  0  0  0  0  0  0
    5.7716  -15.7001   23.9487 N   0  0  0  0  0  0  0  0  0  0  0  0
    7.5609  -17.2773   23.5850 C   0  0  0  0  0  0  0  0  0  0  0  0
    8.1187  -18.2375   23.0219 O   0  0  0  0  0  0  0  0  0  0  0  0
    8.2624  -11.5191   19.2213 N   0  0  0  0  0  0  0  0  0  0  0  0
   13.0007  -16.7227   24.0959 C   0  0  0  0  0  0  0  0  0  0  0  0
   11.9171  -17.5050   24.5494 O   0  0  0  0  0  0  0  0  0  0  0  0
   12.1531  -18.4199   25.3708 C   0  0  0  0  0  0  0  0  0  0  0  0
   10.5708  -17.2396   24.0616 C   0  0  2  0  0  0  0  0  0  0  0  0
    9.5735  -16.8645   25.0982 N   0  0  0  0  0  0  0  0  0  0  0  0
    8.2439  -16.5959   24.6159 C   0  0  0  0  0  0  0  0  0  0  0  0
   10.0506  -15.8904   26.1120 O   0  0  0  0  0  0  0  0  0  0  0  0
   10.5349  -14.8002   25.7407 C   0  0  0  0  0  0  0  0  0  0  0  0
    9.3496  -14.0005   28.5322 C   0  0  2  0  0  0  0  0  0  0  0  0
   10.3153  -15.1260   28.4561 N   0  0  0  0  0  0  0  0  0  0  0  0
    9.9774  -16.1551   27.5022 C   0  0  0  0  0  0  0  0  0  0  0  0
   10.4750  -15.7969   29.8375 O   0  0  0  0  0  0  0  0  0  0  0  0
   10.2637  -17.1581   29.9239 O   0  0  0  0  0  0  0  0  0  0  0  0
  2  1  1  0
  3  2  2  0
  4  2  1  0
  5  4  1  0
  6  5  1  0
  7  6  1  0
  8 10  1  0
  8  9  1  1
  8  7  1  0
 10 17  1  0
 11 10  2  0
 13 12  1  0
 14 13  2  0
 15 13  1  0
 16 15  1  1
 17 16  1  0
 18 16  1  0
 19 18  2  0
 21 20  1  6
 21 23  1  0
 21 22  1  0
 22 18  1  0
 23 24  1  0
 25 23  2  0
M  END
$$$$
