RNA.pdb
     RDKit          3D

 25 24  0  0  1  0  0  0  0  0999 V2000
    6.8481  -12.9551   19.1325 N   0  0  0  0  0  0  0  0  0  0  0  0
    8.2502  -13.2107   19.3376 C   0  0  0  0  0  0  0  0  0  0  0  0
    9.0968  -12.2636   19.1417 N   0  0  0  0  0  0  0  0  0  0  0  0
    8.6835  -14.4978   19.7557 N   0  0  0  0  0  0  0  0  0  0  0  0
    7.6752  -15.4440   20.2439 C   0  0  0  0  0  0  0  0  0  0  0  0
    7.2965  -15.1038   21.6516 C   0  0  0  0  0  0  0  0  0  0  0  0
    7.1758  -16.2423   22.6062 C   0  0  0  0  0  0  0  0  0  0  0  0
    8.1774  -17.3332   22.4093 C   0  0  2  0  0  0  0  0  0  0  0  0
    7.6326  -18.6369   22.2678 N   0  0  0  0  0  0  0  0  0  0  0  0
    9.1949  -17.3117   23.5424 C   0  0  0  0  0  0  0  0  0  0  0  0
    9.0587  -18.0361   24.5458 O   0  0  0  0  0  0  0  0  0  0  0  0
   10.1173  -12.4200   19.2574 N   0  0  0  0  0  0  0  0  0  0  0  0
   13.5851  -16.4268   21.6345 C   0  0  0  0  0  0  0  0  0  0  0  0
   13.2145  -16.9033   22.9102 O   0  0  0  0  0  0  0  0  0  0  0  0
   13.3372  -18.1277   23.1411 C   0  0  0  0  0  0  0  0  0  0  0  0
   12.7046  -15.9799   23.9145 C   0  0  2  0  0  0  0  0  0  0  0  0
   11.3517  -16.2911   24.4462 N   0  0  0  0  0  0  0  0  0  0  0  0
   10.3174  -16.4593   23.4592 C   0  0  0  0  0  0  0  0  0  0  0  0
   10.9328  -15.4853   25.6208 O   0  0  0  0  0  0  0  0  0  0  0  0
   11.7445  -15.2767   26.5474 C   0  0  0  0  0  0  0  0  0  0  0  0
    8.0695  -13.2879   26.7000 C   0  0  2  0  0  0  0  0  0  0  0  0
    9.2744  -14.1374   26.8785 N   0  0  0  0  0  0  0  0  0  0  0  0
    9.6302  -14.9386   25.7319 C   0  0  0  0  0  0  0  0  0  0  0  0
    9.0930  -15.0888   28.0810 O   0  0  0  0  0  0  0  0  0  0  0  0
    9.1645  -16.4472   27.8478 O   0  0  0  0  0  0  0  0  0  0  0  0
  2  1  1  0
  3  2  2  0
  4  2  1  0
  5  4  1  0
  6  5  1  0
  7  6  1  0
  8 10  1  0
  8  9  1  1
  8  7  1  0
 10 17  1  0
 11 10  2  0
 13 12  1  0
 14 13  2  0
 15 13  1  0
 16 15  1  6
 17 16  1  0
 18 16  1  0
 19 18  2  0
 21 20  1  6
 21 23  1  0
 21 22  1  0
 22 18  1  0
 23 24  1  0
 25 23  2  0
M  END
$$$$
