YIE.pdb
     RDKit          3D

 30 30  0  0  1  0  0  0  0  0999 V2000
   10.9946  -17.6185   30.6771 O   0  0  0  0  0  0  0  0  0  0  0  0
   10.2454  -17.9546   29.5522 C   0  0  0  0  0  0  0  0  0  0  0  0
   10.4212  -17.1964   28.4127 C   0  0  0  0  0  0  0  0  0  0  0  0
    9.6944  -17.5134   27.3044 C   0  0  0  0  0  0  0  0  0  0  0  0
    8.8096  -18.5678   27.3359 C   0  0  0  0  0  0  0  0  0  0  0  0
    7.9984  -18.9401   26.1675 C   0  0  0  0  0  0  0  0  0  0  0  0
    6.6684  -18.2223   26.1011 C   0  0  2  0  0  0  0  0  0  0  0  0
    5.7134  -19.2169   25.6163 N   0  0  0  0  0  0  0  0  0  0  0  0
    6.7983  -17.0902   25.1712 C   0  0  0  0  0  0  0  0  0  0  0  0
    6.5519  -17.2628   23.9487 O   0  0  0  0  0  0  0  0  0  0  0  0
    8.6206  -19.3451   28.4817 C   0  0  0  0  0  0  0  0  0  0  0  0
    9.3601  -19.0118   29.5876 C   0  0  0  0  0  0  0  0  0  0  0  0
    5.9058  -12.1278   26.9907 C   0  0  0  0  0  0  0  0  0  0  0  0
    5.9043  -13.2370   25.9874 C   0  0  0  0  0  0  0  0  0  0  0  0
    7.2724  -13.4343   25.3511 C   0  0  2  0  0  0  0  0  0  0  0  0
    7.5778  -12.1874   24.5857 C   0  0  0  0  0  0  0  0  0  0  0  0
    7.3102  -14.7038   24.5357 C   0  0  2  0  0  0  0  0  0  0  0  0
    7.1857  -15.7863   25.5329 N   0  0  0  0  0  0  0  0  0  0  0  0
    8.5423  -14.8816   23.7489 C   0  0  0  0  0  0  0  0  0  0  0  0
    8.8393  -14.0196   22.8577 O   0  0  0  0  0  0  0  0  0  0  0  0
    9.4463  -15.9476   23.9016 N   0  0  0  0  0  0  0  0  0  0  0  0
   10.7257  -16.0167   23.1115 C   0  0  1  0  0  0  0  0  0  0  0  0
   11.5935  -17.0211   23.7771 C   0  0  0  0  0  0  0  0  0  0  0  0
   12.3010  -16.5845   24.9888 C   0  0  0  0  0  0  0  0  0  0  0  0
   12.7249  -17.5818   25.9744 C   0  0  0  0  0  0  0  0  0  0  0  0
   12.7580  -18.8434   25.7413 O   0  0  0  0  0  0  0  0  0  0  0  0
   10.2984  -16.3839   21.7791 C   0  0  0  0  0  0  0  0  0  0  0  0
   11.0447  -16.1431   20.6521 O   0  0  0  0  0  0  0  0  0  0  0  0
   13.1388  -17.2205   27.2697 O   0  0  0  0  0  0  0  0  0  0  0  0
    9.1928  -16.9474   21.5870 O   0  0  0  0  0  0  0  0  0  0  0  0
  2  3  2  0
  2  1  1  0
  4  3  1  0
  5  4  2  0
  6  5  1  0
  7  6  1  0
  7  9  1  0
  7  8  1  6
  9 10  2  0
 11  5  1  0
 11 12  2  0
 12  2  1  0
 13 14  1  0
 15 16  1  6
 15 14  1  0
 17 15  1  0
 18  9  1  0
 17 18  1  1
 19 21  1  0
 19 17  1  0
 20 19  2  0
 22 27  1  0
 22 21  1  0
 22 23  1  1
 24 23  1  0
 25 24  1  0
 26 25  2  0
 27 28  1  0
 29 25  1  0
 30 27  2  0
M  END
$$$$
