YIE.pdb
     RDKit          3D

 30 30  0  0  1  0  0  0  0  0999 V2000
   10.3265  -18.8643   30.4290 O   0  0  0  0  0  0  0  0  0  0  0  0
    9.5502  -19.0881   29.2946 C   0  0  0  0  0  0  0  0  0  0  0  0
   10.0323  -18.6305   28.0853 C   0  0  0  0  0  0  0  0  0  0  0  0
    9.2831  -18.8418   26.9668 C   0  0  0  0  0  0  0  0  0  0  0  0
    8.0760  -19.4979   27.0567 C   0  0  0  0  0  0  0  0  0  0  0  0
    7.2305  -19.7401   25.8784 C   0  0  0  0  0  0  0  0  0  0  0  0
    6.1056  -18.7402   25.7254 C   0  0  2  0  0  0  0  0  0  0  0  0
    5.0492  -19.4502   25.0070 N   0  0  0  0  0  0  0  0  0  0  0  0
    6.6090  -17.5893   24.9603 C   0  0  0  0  0  0  0  0  0  0  0  0
    6.7189  -17.6789   23.7093 O   0  0  0  0  0  0  0  0  0  0  0  0
    7.5744  -19.9674   28.2736 C   0  0  0  0  0  0  0  0  0  0  0  0
    8.3414  -19.7459   29.3887 C   0  0  0  0  0  0  0  0  0  0  0  0
    5.9458  -12.6545   26.8511 C   0  0  0  0  0  0  0  0  0  0  0  0
    6.0953  -13.7051   25.7971 C   0  0  0  0  0  0  0  0  0  0  0  0
    7.5536  -14.0613   25.5476 C   0  0  2  0  0  0  0  0  0  0  0  0
    8.1996  -12.8509   24.9548 C   0  0  0  0  0  0  0  0  0  0  0  0
    7.6679  -15.3137   24.7132 C   0  0  2  0  0  0  0  0  0  0  0  0
    6.9926  -16.3540   25.5153 N   0  0  0  0  0  0  0  0  0  0  0  0
    9.0522  -15.7217   24.4201 C   0  0  0  0  0  0  0  0  0  0  0  0
    9.8219  -16.0428   25.3846 O   0  0  0  0  0  0  0  0  0  0  0  0
    9.6135  -15.7927   23.1330 N   0  0  0  0  0  0  0  0  0  0  0  0
   10.9725  -16.3953   22.8968 C   0  0  1  0  0  0  0  0  0  0  0  0
   10.9412  -17.0236   21.5517 C   0  0  0  0  0  0  0  0  0  0  0  0
   10.0587  -18.1868   21.3856 C   0  0  0  0  0  0  0  0  0  0  0  0
   10.0160  -18.8804   20.0961 C   0  0  0  0  0  0  0  0  0  0  0  0
   10.1563  -20.1494   19.9656 O   0  0  0  0  0  0  0  0  0  0  0  0
   11.8805  -15.2751   23.0132 C   0  0  0  0  0  0  0  0  0  0  0  0
   13.2158  -15.4107   23.3024 O   0  0  0  0  0  0  0  0  0  0  0  0
    9.8091  -18.1925   18.8863 O   0  0  0  0  0  0  0  0  0  0  0  0
   11.4761  -14.0965   22.8587 O   0  0  0  0  0  0  0  0  0  0  0  0
  2  3  2  0
  2  1  1  0
  4  3  1  0
  5  4  2  0
  6  5  1  0
  7  6  1  0
  7  9  1  0
  7  8  1  6
  9 10  2  0
 11  5  1  0
 11 12  2  0
 12  2  1  0
 13 14  1  0
 15 16  1  6
 15 14  1  0
 17 15  1  0
 18  9  1  0
 17 18  1  1
 19 21  1  0
 19 17  1  0
 20 19  2  0
 22 27  1  0
 22 21  1  0
 22 23  1  6
 24 23  1  0
 25 24  1  0
 26 25  2  0
 27 28  1  0
 29 25  1  0
 30 27  2  0
M  END
$$$$
