YIE.pdb
     RDKit          3D

 30 30  0  0  1  0  0  0  0  0999 V2000
    8.5171  -20.4691   30.1757 O   0  0  0  0  0  0  0  0  0  0  0  0
    8.0257  -20.3077   28.8826 C   0  0  0  0  0  0  0  0  0  0  0  0
    7.5840  -21.4332   28.2177 C   0  0  0  0  0  0  0  0  0  0  0  0
    7.1010  -21.2906   26.9514 C   0  0  0  0  0  0  0  0  0  0  0  0
    7.0610  -20.0466   26.3625 C   0  0  0  0  0  0  0  0  0  0  0  0
    6.5568  -19.8468   24.9958 C   0  0  0  0  0  0  0  0  0  0  0  0
    5.6972  -18.6114   24.8431 C   0  0  2  0  0  0  0  0  0  0  0  0
    4.7348  -18.9347   23.7917 N   0  0  0  0  0  0  0  0  0  0  0  0
    6.5652  -17.4865   24.4628 C   0  0  0  0  0  0  0  0  0  0  0  0
    7.1132  -17.4842   23.3293 O   0  0  0  0  0  0  0  0  0  0  0  0
    7.5043  -18.8976   27.0227 C   0  0  0  0  0  0  0  0  0  0  0  0
    7.9871  -19.0597   28.2961 C   0  0  0  0  0  0  0  0  0  0  0  0
    5.9372  -12.6282   26.8088 C   0  0  0  0  0  0  0  0  0  0  0  0
    6.2526  -13.5777   25.6971 C   0  0  0  0  0  0  0  0  0  0  0  0
    7.6209  -14.2217   25.8660 C   0  0  2  0  0  0  0  0  0  0  0  0
    8.6297  -13.1218   25.7875 C   0  0  0  0  0  0  0  0  0  0  0  0
    7.8195  -15.3363   24.8680 C   0  0  2  0  0  0  0  0  0  0  0  0
    6.8503  -16.3735   25.2759 N   0  0  0  0  0  0  0  0  0  0  0  0
    9.1811  -15.8972   24.8497 C   0  0  0  0  0  0  0  0  0  0  0  0
    9.6032  -16.5349   25.8699 O   0  0  0  0  0  0  0  0  0  0  0  0
   10.0798  -15.7900   23.7738 N   0  0  0  0  0  0  0  0  0  0  0  0
   11.3144  -16.6470   23.6883 C   0  0  1  0  0  0  0  0  0  0  0  0
   11.7896  -16.5851   22.2829 C   0  0  0  0  0  0  0  0  0  0  0  0
   13.0513  -17.2751   21.9804 C   0  0  0  0  0  0  0  0  0  0  0  0
   13.5424  -17.3068   20.6007 C   0  0  0  0  0  0  0  0  0  0  0  0
   14.4976  -16.5669   20.1681 O   0  0  0  0  0  0  0  0  0  0  0  0
   12.2190  -16.0600   24.6526 C   0  0  0  0  0  0  0  0  0  0  0  0
   13.2424  -16.7537   25.2497 O   0  0  0  0  0  0  0  0  0  0  0  0
   12.9949  -18.1707   19.6345 O   0  0  0  0  0  0  0  0  0  0  0  0
   12.1013  -14.8598   25.0022 O   0  0  0  0  0  0  0  0  0  0  0  0
  2  3  2  0
  2  1  1  0
  4  3  1  0
  5  4  2  0
  6  5  1  0
  7  6  1  0
  7  9  1  0
  7  8  1  6
  9 10  2  0
 11  5  1  0
 11 12  2  0
 12  2  1  0
 13 14  1  0
 15 16  1  6
 15 14  1  0
 17 15  1  0
 18  9  1  0
 17 18  1  1
 19 21  1  0
 19 17  1  0
 20 19  2  0
 22 27  1  0
 22 21  1  0
 22 23  1  6
 24 23  1  0
 25 24  1  0
 26 25  2  0
 27 28  1  0
 29 25  1  0
 30 27  2  0
M  END
$$$$
