YIE.pdb
     RDKit          3D

 30 30  0  0  1  0  0  0  0  0999 V2000
    2.6738  -20.2030   19.7491 O   0  0  0  0  0  0  0  0  0  0  0  0
    3.6627  -19.5402   20.4719 C   0  0  0  0  0  0  0  0  0  0  0  0
    3.2770  -18.8420   21.5979 C   0  0  0  0  0  0  0  0  0  0  0  0
    4.2338  -18.1881   22.3148 C   0  0  0  0  0  0  0  0  0  0  0  0
    5.5499  -18.2320   21.9129 C   0  0  0  0  0  0  0  0  0  0  0  0
    6.6140  -17.5346   22.6501 C   0  0  0  0  0  0  0  0  0  0  0  0
    6.5930  -16.0332   22.4661 C   0  0  2  0  0  0  0  0  0  0  0  0
    7.0408  -15.8032   21.0939 N   0  0  0  0  0  0  0  0  0  0  0  0
    7.5088  -15.4329   23.4480 C   0  0  0  0  0  0  0  0  0  0  0  0
    8.7451  -15.4159   23.2108 O   0  0  0  0  0  0  0  0  0  0  0  0
    5.9563  -18.9347   20.7754 C   0  0  0  0  0  0  0  0  0  0  0  0
    4.9802  -19.5867   20.0661 C   0  0  0  0  0  0  0  0  0  0  0  0
    5.6985  -11.5269   26.6984 C   0  0  0  0  0  0  0  0  0  0  0  0
    6.6301  -12.3025   25.8224 C   0  0  0  0  0  0  0  0  0  0  0  0
    7.2855  -13.4574   26.5657 C   0  0  2  0  0  0  0  0  0  0  0  0
    8.0524  -12.8614   27.7017 C   0  0  0  0  0  0  0  0  0  0  0  0
    8.1038  -14.3088   25.6259 C   0  0  2  0  0  0  0  0  0  0  0  0
    7.1185  -14.8551   24.6708 N   0  0  0  0  0  0  0  0  0  0  0  0
    8.8325  -15.4070   26.2830 C   0  0  0  0  0  0  0  0  0  0  0  0
    8.1788  -16.2688   26.9581 O   0  0  0  0  0  0  0  0  0  0  0  0
   10.2247  -15.5946   26.2263 N   0  0  0  0  0  0  0  0  0  0  0  0
   10.8962  -16.7401   26.9356 C   0  0  1  0  0  0  0  0  0  0  0  0
   12.2651  -16.8571   26.3722 C   0  0  0  0  0  0  0  0  0  0  0  0
   12.3699  -16.9980   24.9132 C   0  0  0  0  0  0  0  0  0  0  0  0
   13.6771  -16.8557   24.2677 C   0  0  0  0  0  0  0  0  0  0  0  0
   14.6336  -17.7005   24.4036 O   0  0  0  0  0  0  0  0  0  0  0  0
   10.8537  -16.3642   28.3320 C   0  0  0  0  0  0  0  0  0  0  0  0
   10.9762  -17.2642   29.3616 O   0  0  0  0  0  0  0  0  0  0  0  0
   13.9813  -15.7647   23.4330 O   0  0  0  0  0  0  0  0  0  0  0  0
   10.6906  -15.1673   28.6746 O   0  0  0  0  0  0  0  0  0  0  0  0
  2  3  2  0
  2  1  1  0
  4  3  1  0
  5  4  2  0
  6  5  1  0
  7  6  1  0
  7  9  1  0
  7  8  1  6
  9 10  2  0
 11  5  1  0
 11 12  2  0
 12  2  1  0
 13 14  1  0
 15 16  1  1
 15 14  1  0
 17 15  1  0
 18  9  1  0
 17 18  1  6
 19 21  1  0
 19 17  1  0
 20 19  2  0
 22 27  1  0
 22 21  1  0
 22 23  1  6
 24 23  1  0
 25 24  1  0
 26 25  2  0
 27 28  1  0
 29 25  1  0
 30 27  2  0
M  END
$$$$
