YIE.pdb
     RDKit          3D

 30 30  0  0  1  0  0  0  0  0999 V2000
    6.6596  -14.2039   15.5090 O   0  0  0  0  0  0  0  0  0  0  0  0
    6.9051  -14.4440   16.8587 C   0  0  0  0  0  0  0  0  0  0  0  0
    7.1103  -13.3534   17.6788 C   0  0  0  0  0  0  0  0  0  0  0  0
    7.3522  -13.5732   19.0017 C   0  0  0  0  0  0  0  0  0  0  0  0
    7.3882  -14.8586   19.4940 C   0  0  0  0  0  0  0  0  0  0  0  0
    7.6544  -15.1434   20.9117 C   0  0  0  0  0  0  0  0  0  0  0  0
    8.6536  -14.1980   21.5411 C   0  0  2  0  0  0  0  0  0  0  0  0
    9.8889  -14.3744   20.7801 N   0  0  0  0  0  0  0  0  0  0  0  0
    8.8226  -14.5745   22.9528 C   0  0  0  0  0  0  0  0  0  0  0  0
    9.8395  -15.2304   23.3004 O   0  0  0  0  0  0  0  0  0  0  0  0
    7.1822  -15.9731   18.6766 C   0  0  0  0  0  0  0  0  0  0  0  0
    6.9401  -15.7333   17.3481 C   0  0  0  0  0  0  0  0  0  0  0  0
    5.9007  -11.4531   26.2306 C   0  0  0  0  0  0  0  0  0  0  0  0
    7.0541  -12.1660   25.5993 C   0  0  0  0  0  0  0  0  0  0  0  0
    7.2142  -13.5811   26.1353 C   0  0  2  0  0  0  0  0  0  0  0  0
    7.4037  -13.4654   27.6133 C   0  0  0  0  0  0  0  0  0  0  0  0
    8.3181  -14.3111   25.4099 C   0  0  2  0  0  0  0  0  0  0  0  0
    7.9224  -14.2589   23.9878 N   0  0  0  0  0  0  0  0  0  0  0  0
    8.4984  -15.7103   25.8325 C   0  0  0  0  0  0  0  0  0  0  0  0
    7.5174  -16.5190   25.7360 O   0  0  0  0  0  0  0  0  0  0  0  0
    9.6926  -16.2474   26.3447 N   0  0  0  0  0  0  0  0  0  0  0  0
    9.7912  -17.6878   26.7707 C   0  0  1  0  0  0  0  0  0  0  0  0
   11.0748  -18.2111   26.2384 C   0  0  0  0  0  0  0  0  0  0  0  0
   11.2497  -18.1750   24.7798 C   0  0  0  0  0  0  0  0  0  0  0  0
   12.4981  -18.6661   24.1914 C   0  0  0  0  0  0  0  0  0  0  0  0
   13.4675  -19.1491   24.8798 O   0  0  0  0  0  0  0  0  0  0  0  0
    9.7191  -17.6346   28.2145 C   0  0  0  0  0  0  0  0  0  0  0  0
    9.5678  -18.7465   29.0058 O   0  0  0  0  0  0  0  0  0  0  0  0
   12.7255  -18.6477   22.8030 O   0  0  0  0  0  0  0  0  0  0  0  0
    9.7856  -16.5396   28.8252 O   0  0  0  0  0  0  0  0  0  0  0  0
  2  3  2  0
  2  1  1  0
  4  3  1  0
  5  4  2  0
  6  5  1  0
  7  6  1  0
  7  9  1  0
  7  8  1  6
  9 10  2  0
 11  5  1  0
 11 12  2  0
 12  2  1  0
 13 14  1  0
 15 16  1  1
 15 14  1  0
 17 15  1  0
 18  9  1  0
 17 18  1  6
 19 21  1  0
 19 17  1  0
 20 19  2  0
 22 27  1  0
 22 21  1  0
 22 23  1  1
 24 23  1  0
 25 24  1  0
 26 25  2  0
 27 28  1  0
 29 25  1  0
 30 27  2  0
M  END
$$$$
