YIE.pdb
     RDKit          3D

 30 30  0  0  1  0  0  0  0  0999 V2000
    4.8453  -20.7217   18.1268 O   0  0  0  0  0  0  0  0  0  0  0  0
    5.5721  -19.7715   18.8399 C   0  0  0  0  0  0  0  0  0  0  0  0
    5.3965  -19.7215   20.2077 C   0  0  0  0  0  0  0  0  0  0  0  0
    6.1008  -18.7964   20.9185 C   0  0  0  0  0  0  0  0  0  0  0  0
    6.9632  -17.9386   20.2734 C   0  0  0  0  0  0  0  0  0  0  0  0
    7.7363  -16.9193   20.9982 C   0  0  0  0  0  0  0  0  0  0  0  0
    6.8808  -15.9900   21.8306 C   0  0  2  0  0  0  0  0  0  0  0  0
    6.2392  -15.0905   20.8737 N   0  0  0  0  0  0  0  0  0  0  0  0
    7.7567  -15.2629   22.7619 C   0  0  0  0  0  0  0  0  0  0  0  0
    8.7696  -14.6621   22.3167 O   0  0  0  0  0  0  0  0  0  0  0  0
    7.1521  -17.9769   18.8894 C   0  0  0  0  0  0  0  0  0  0  0  0
    6.4353  -18.9140   18.1901 C   0  0  0  0  0  0  0  0  0  0  0  0
    5.6875  -12.1978   26.2613 C   0  0  0  0  0  0  0  0  0  0  0  0
    6.7882  -12.6804   25.3711 C   0  0  0  0  0  0  0  0  0  0  0  0
    7.6342  -13.7547   26.0388 C   0  0  2  0  0  0  0  0  0  0  0  0
    8.3718  -13.0920   27.1571 C   0  0  0  0  0  0  0  0  0  0  0  0
    8.5101  -14.4563   25.0297 C   0  0  2  0  0  0  0  0  0  0  0  0
    7.5616  -15.1727   24.1530 N   0  0  0  0  0  0  0  0  0  0  0  0
    9.4700  -15.4060   25.6176 C   0  0  0  0  0  0  0  0  0  0  0  0
    9.0306  -16.4503   26.2024 O   0  0  0  0  0  0  0  0  0  0  0  0
   10.8678  -15.2584   25.5863 N   0  0  0  0  0  0  0  0  0  0  0  0
   11.7898  -16.4358   25.7591 C   0  0  1  0  0  0  0  0  0  0  0  0
   13.0445  -16.1151   25.0328 C   0  0  0  0  0  0  0  0  0  0  0  0
   14.1991  -16.9869   25.2905 C   0  0  0  0  0  0  0  0  0  0  0  0
   15.4860  -16.6833   24.6601 C   0  0  0  0  0  0  0  0  0  0  0  0
   16.4784  -16.1607   25.2839 O   0  0  0  0  0  0  0  0  0  0  0  0
   11.9422  -16.5574   27.1926 C   0  0  0  0  0  0  0  0  0  0  0  0
   12.3671  -17.7060   27.8133 O   0  0  0  0  0  0  0  0  0  0  0  0
   15.7323  -16.9529   23.3013 O   0  0  0  0  0  0  0  0  0  0  0  0
   11.6783  -15.5951   27.9547 O   0  0  0  0  0  0  0  0  0  0  0  0
  2  3  2  0
  2  1  1  0
  4  3  1  0
  5  4  2  0
  6  5  1  0
  7  6  1  0
  7  9  1  0
  7  8  1  6
  9 10  2  0
 11  5  1  0
 11 12  2  0
 12  2  1  0
 13 14  1  0
 15 16  1  1
 15 14  1  0
 17 15  1  0
 18  9  1  0
 17 18  1  6
 19 21  1  0
 19 17  1  0
 20 19  2  0
 22 27  1  0
 22 21  1  0
 22 23  1  6
 24 23  1  0
 25 24  1  0
 26 25  2  0
 27 28  1  0
 29 25  1  0
 30 27  2  0
M  END
$$$$
