YIE.pdb
     RDKit          3D

 30 30  0  0  1  0  0  0  0  0999 V2000
    6.1189  -15.0489   15.4760 O   0  0  0  0  0  0  0  0  0  0  0  0
    6.5522  -15.1206   16.7976 C   0  0  0  0  0  0  0  0  0  0  0  0
    7.0836  -13.9794   17.3627 C   0  0  0  0  0  0  0  0  0  0  0  0
    7.5123  -14.0348   18.6551 C   0  0  0  0  0  0  0  0  0  0  0  0
    7.4112  -15.2086   19.3675 C   0  0  0  0  0  0  0  0  0  0  0  0
    7.8688  -15.3171   20.7606 C   0  0  0  0  0  0  0  0  0  0  0  0
    8.2791  -13.9934   21.3672 C   0  0  2  0  0  0  0  0  0  0  0  0
    9.4235  -13.5420   20.5780 N   0  0  0  0  0  0  0  0  0  0  0  0
    8.6407  -14.2204   22.7746 C   0  0  0  0  0  0  0  0  0  0  0  0
    9.8520  -14.3647   23.0862 O   0  0  0  0  0  0  0  0  0  0  0  0
    6.8753  -16.3724   18.8096 C   0  0  0  0  0  0  0  0  0  0  0  0
    6.4491  -16.2984   17.5082 C   0  0  0  0  0  0  0  0  0  0  0  0
    5.6870  -11.5957   26.2352 C   0  0  0  0  0  0  0  0  0  0  0  0
    6.8521  -12.2438   25.5574 C   0  0  0  0  0  0  0  0  0  0  0  0
    7.0581  -13.6783   26.0215 C   0  0  2  0  0  0  0  0  0  0  0  0
    7.2610  -13.6296   27.5015 C   0  0  0  0  0  0  0  0  0  0  0  0
    8.1740  -14.3399   25.2503 C   0  0  2  0  0  0  0  0  0  0  0  0
    7.7274  -14.2938   23.8431 N   0  0  0  0  0  0  0  0  0  0  0  0
    8.4432  -15.7318   25.6490 C   0  0  0  0  0  0  0  0  0  0  0  0
    7.4705  -16.5515   25.7360 O   0  0  0  0  0  0  0  0  0  0  0  0
    9.7156  -16.2503   25.9473 N   0  0  0  0  0  0  0  0  0  0  0  0
    9.9029  -17.6779   26.3864 C   0  0  1  0  0  0  0  0  0  0  0  0
   11.1911  -18.1433   25.8129 C   0  0  0  0  0  0  0  0  0  0  0  0
   11.3703  -17.9719   24.3644 C   0  0  0  0  0  0  0  0  0  0  0  0
   12.6268  -18.3918   23.7393 C   0  0  0  0  0  0  0  0  0  0  0  0
   13.7224  -17.7295   23.8290 O   0  0  0  0  0  0  0  0  0  0  0  0
    9.8813  -17.6085   27.8313 C   0  0  0  0  0  0  0  0  0  0  0  0
    9.8109  -18.7152   28.6408 O   0  0  0  0  0  0  0  0  0  0  0  0
   12.7251  -19.5761   22.9861 O   0  0  0  0  0  0  0  0  0  0  0  0
    9.9190  -16.5033   28.4260 O   0  0  0  0  0  0  0  0  0  0  0  0
  2  3  2  0
  2  1  1  0
  4  3  1  0
  5  4  2  0
  6  5  1  0
  7  6  1  0
  7  9  1  0
  7  8  1  6
  9 10  2  0
 11  5  1  0
 11 12  2  0
 12  2  1  0
 13 14  1  0
 15 16  1  1
 15 14  1  0
 17 15  1  0
 18  9  1  0
 17 18  1  6
 19 21  1  0
 19 17  1  0
 20 19  2  0
 22 27  1  0
 22 21  1  0
 22 23  1  1
 24 23  1  0
 25 24  1  0
 26 25  2  0
 27 28  1  0
 29 25  1  0
 30 27  2  0
M  END
$$$$
