YIE.pdb
     RDKit          3D

 30 30  0  0  1  0  0  0  0  0999 V2000
    7.7441  -10.9277   26.4585 O   0  0  0  0  0  0  0  0  0  0  0  0
    7.4760  -12.2937   26.4176 C   0  0  0  0  0  0  0  0  0  0  0  0
    8.5376  -13.1514   26.2138 C   0  0  0  0  0  0  0  0  0  0  0  0
    8.2902  -14.4908   26.1709 C   0  0  0  0  0  0  0  0  0  0  0  0
    7.0063  -14.9623   26.3288 C   0  0  0  0  0  0  0  0  0  0  0  0
    6.6914  -16.3977   26.2808 C   0  0  0  0  0  0  0  0  0  0  0  0
    6.1632  -16.8564   24.9396 C   0  0  2  0  0  0  0  0  0  0  0  0
    5.7128  -18.2312   25.1484 N   0  0  0  0  0  0  0  0  0  0  0  0
    7.2579  -16.7825   23.9601 C   0  0  0  0  0  0  0  0  0  0  0  0
    8.1684  -17.6517   23.9836 O   0  0  0  0  0  0  0  0  0  0  0  0
    5.9210  -14.1068   26.5362 C   0  0  0  0  0  0  0  0  0  0  0  0
    6.1884  -12.7622   26.5764 C   0  0  0  0  0  0  0  0  0  0  0  0
    7.9716  -12.3102   20.5053 C   0  0  0  0  0  0  0  0  0  0  0  0
    8.2088  -13.3538   21.5501 C   0  0  0  0  0  0  0  0  0  0  0  0
    8.1357  -14.7622   20.9784 C   0  0  2  0  0  0  0  0  0  0  0  0
    6.7628  -14.9286   20.4116 C   0  0  0  0  0  0  0  0  0  0  0  0
    8.5210  -15.7869   22.0173 C   0  0  2  0  0  0  0  0  0  0  0  0
    7.3872  -15.7965   22.9639 N   0  0  0  0  0  0  0  0  0  0  0  0
    9.7725  -15.4836   22.7319 C   0  0  0  0  0  0  0  0  0  0  0  0
    9.7279  -14.7635   23.7831 O   0  0  0  0  0  0  0  0  0  0  0  0
   11.0472  -15.9344   22.3465 N   0  0  0  0  0  0  0  0  0  0  0  0
   12.1988  -15.9676   23.3153 C   0  0  1  0  0  0  0  0  0  0  0  0
   12.0006  -17.1547   24.1849 C   0  0  0  0  0  0  0  0  0  0  0  0
   13.1057  -17.5048   25.0881 C   0  0  0  0  0  0  0  0  0  0  0  0
   13.0140  -18.7194   25.9018 C   0  0  0  0  0  0  0  0  0  0  0  0
   13.3092  -19.8906   25.4680 O   0  0  0  0  0  0  0  0  0  0  0  0
   13.3702  -16.0344   22.4690 C   0  0  0  0  0  0  0  0  0  0  0  0
   14.6202  -15.6366   22.8748 O   0  0  0  0  0  0  0  0  0  0  0  0
   12.5928  -18.6873   27.2439 O   0  0  0  0  0  0  0  0  0  0  0  0
   13.2934  -16.4631   21.2914 O   0  0  0  0  0  0  0  0  0  0  0  0
  2  3  2  0
  2  1  1  0
  4  3  1  0
  5  4  2  0
  6  5  1  0
  7  6  1  0
  7  9  1  0
  7  8  1  1
  9 10  2  0
 11  5  1  0
 11 12  2  0
 12  2  1  0
 13 14  1  0
 15 16  1  1
 15 14  1  0
 17 15  1  0
 18  9  1  0
 17 18  1  1
 19 21  1  0
 19 17  1  0
 20 19  2  0
 22 27  1  0
 22 21  1  0
 22 23  1  1
 24 23  1  0
 25 24  1  0
 26 25  2  0
 27 28  1  0
 29 25  1  0
 30 27  2  0
M  END
$$$$
