YIE.pdb
     RDKit          3D

 30 30  0  0  1  0  0  0  0  0999 V2000
    7.8257  -22.9292   13.9388 O   0  0  0  0  0  0  0  0  0  0  0  0
    8.2279  -22.0289   14.9223 C   0  0  0  0  0  0  0  0  0  0  0  0
    7.2758  -21.1747   15.4401 C   0  0  0  0  0  0  0  0  0  0  0  0
    7.6551  -20.2880   16.4028 C   0  0  0  0  0  0  0  0  0  0  0  0
    8.9608  -20.2567   16.8385 C   0  0  0  0  0  0  0  0  0  0  0  0
    9.4168  -19.3113   17.8682 C   0  0  0  0  0  0  0  0  0  0  0  0
    9.3348  -17.8632   17.4384 C   0  0  2  0  0  0  0  0  0  0  0  0
   10.3323  -17.7144   16.3805 N   0  0  0  0  0  0  0  0  0  0  0  0
    9.6406  -17.0162   18.6013 C   0  0  0  0  0  0  0  0  0  0  0  0
   10.8344  -16.8985   18.9837 O   0  0  0  0  0  0  0  0  0  0  0  0
    9.9363  -21.1151   16.3244 C   0  0  0  0  0  0  0  0  0  0  0  0
    9.5370  -22.0007   15.3564 C   0  0  0  0  0  0  0  0  0  0  0  0
    6.6491  -12.6707   19.4387 C   0  0  0  0  0  0  0  0  0  0  0  0
    7.8378  -13.5768   19.3841 C   0  0  0  0  0  0  0  0  0  0  0  0
    7.9450  -14.4545   20.6225 C   0  0  2  0  0  0  0  0  0  0  0  0
    8.0465  -13.5357   21.7969 C   0  0  0  0  0  0  0  0  0  0  0  0
    9.0803  -15.4399   20.4887 C   0  0  2  0  0  0  0  0  0  0  0  0
    8.6903  -16.2997   19.3528 N   0  0  0  0  0  0  0  0  0  0  0  0
    9.3126  -16.2625   21.6879 C   0  0  0  0  0  0  0  0  0  0  0  0
    8.3597  -16.9758   22.1451 O   0  0  0  0  0  0  0  0  0  0  0  0
   10.5285  -16.3339   22.3901 N   0  0  0  0  0  0  0  0  0  0  0  0
   10.7058  -17.2518   23.5700 C   0  0  1  0  0  0  0  0  0  0  0  0
   11.6145  -18.3438   23.1380 C   0  0  0  0  0  0  0  0  0  0  0  0
   12.7824  -17.9538   22.3359 C   0  0  0  0  0  0  0  0  0  0  0  0
   13.6960  -18.9876   21.8436 C   0  0  0  0  0  0  0  0  0  0  0  0
   14.8498  -19.2199   22.3552 O   0  0  0  0  0  0  0  0  0  0  0  0
   11.2466  -16.3969   24.6041 C   0  0  0  0  0  0  0  0  0  0  0  0
   11.4721  -15.0533   24.4336 O   0  0  0  0  0  0  0  0  0  0  0  0
   13.3653  -19.8188   20.7576 O   0  0  0  0  0  0  0  0  0  0  0  0
   11.5497  -16.8587   25.7317 O   0  0  0  0  0  0  0  0  0  0  0  0
  2  3  2  0
  2  1  1  0
  4  3  1  0
  5  4  2  0
  6  5  1  0
  7  6  1  0
  7  9  1  0
  7  8  1  6
  9 10  2  0
 11  5  1  0
 11 12  2  0
 12  2  1  0
 13 14  1  0
 15 16  1  1
 15 14  1  0
 17 15  1  0
 18  9  1  0
 17 18  1  6
 19 21  1  0
 19 17  1  0
 20 19  2  0
 22 27  1  0
 22 21  1  0
 22 23  1  6
 24 23  1  0
 25 24  1  0
 26 25  2  0
 27 28  1  0
 29 25  1  0
 30 27  2  0
M  END
$$$$
