YIE.pdb
     RDKit          3D

 30 30  0  0  1  0  0  0  0  0999 V2000
    7.4169  -14.0220   15.3687 O   0  0  0  0  0  0  0  0  0  0  0  0
    7.5276  -13.9668   16.7559 C   0  0  0  0  0  0  0  0  0  0  0  0
    7.8170  -15.1386   17.4247 C   0  0  0  0  0  0  0  0  0  0  0  0
    7.9278  -15.0998   18.7824 C   0  0  0  0  0  0  0  0  0  0  0  0
    7.7525  -13.9125   19.4570 C   0  0  0  0  0  0  0  0  0  0  0  0
    7.8538  -13.8253   20.9213 C   0  0  0  0  0  0  0  0  0  0  0  0
    8.2303  -15.1338   21.5804 C   0  0  2  0  0  0  0  0  0  0  0  0
    6.9998  -15.9219   21.6115 N   0  0  0  0  0  0  0  0  0  0  0  0
    8.7290  -14.8448   22.9335 C   0  0  0  0  0  0  0  0  0  0  0  0
    9.8781  -14.3506   23.0766 O   0  0  0  0  0  0  0  0  0  0  0  0
    7.4593  -12.7177   18.7942 C   0  0  0  0  0  0  0  0  0  0  0  0
    7.3515  -12.7752   17.4281 C   0  0  0  0  0  0  0  0  0  0  0  0
    6.1463  -12.0202   26.1030 C   0  0  0  0  0  0  0  0  0  0  0  0
    7.2934  -12.7522   25.4821 C   0  0  0  0  0  0  0  0  0  0  0  0
    7.6043  -14.0513   26.2109 C   0  0  2  0  0  0  0  0  0  0  0  0
    8.0027  -13.6821   27.6032 C   0  0  0  0  0  0  0  0  0  0  0  0
    8.6264  -14.8635   25.4535 C   0  0  2  0  0  0  0  0  0  0  0  0
    8.0168  -15.0771   24.1252 N   0  0  0  0  0  0  0  0  0  0  0  0
    8.9510  -16.1590   26.0741 C   0  0  0  0  0  0  0  0  0  0  0  0
    8.0404  -17.0461   26.1711 O   0  0  0  0  0  0  0  0  0  0  0  0
   10.2139  -16.5134   26.5802 N   0  0  0  0  0  0  0  0  0  0  0  0
   10.4902  -17.8920   27.1177 C   0  0  1  0  0  0  0  0  0  0  0  0
   11.6531  -18.4267   26.3649 C   0  0  0  0  0  0  0  0  0  0  0  0
   12.1556  -19.7458   26.7736 C   0  0  0  0  0  0  0  0  0  0  0  0
   13.3092  -20.3238   26.0801 C   0  0  0  0  0  0  0  0  0  0  0  0
   14.4149  -19.6991   25.8957 O   0  0  0  0  0  0  0  0  0  0  0  0
   10.7364  -17.6786   28.5272 C   0  0  0  0  0  0  0  0  0  0  0  0
   10.6170  -18.6659   29.4739 O   0  0  0  0  0  0  0  0  0  0  0  0
   13.2885  -21.6316   25.5615 O   0  0  0  0  0  0  0  0  0  0  0  0
   11.0717  -16.5491   28.9611 O   0  0  0  0  0  0  0  0  0  0  0  0
  2  3  2  0
  2  1  1  0
  4  3  1  0
  5  4  2  0
  6  5  1  0
  7  6  1  0
  7  9  1  0
  7  8  1  1
  9 10  2  0
 11  5  1  0
 11 12  2  0
 12  2  1  0
 13 14  1  0
 15 16  1  1
 15 14  1  0
 17 15  1  0
 18  9  1  0
 17 18  1  6
 19 21  1  0
 19 17  1  0
 20 19  2  0
 22 27  1  0
 22 21  1  0
 22 23  1  6
 24 23  1  0
 25 24  1  0
 26 25  2  0
 27 28  1  0
 29 25  1  0
 30 27  2  0
M  END
$$$$
