YIE.pdb
     RDKit          3D

 30 30  0  0  1  0  0  0  0  0999 V2000
    7.6321  -14.0146   15.2292 O   0  0  0  0  0  0  0  0  0  0  0  0
    7.8537  -13.9189   16.6008 C   0  0  0  0  0  0  0  0  0  0  0  0
    7.4347  -12.7706   17.2410 C   0  0  0  0  0  0  0  0  0  0  0  0
    7.6454  -12.6627   18.5830 C   0  0  0  0  0  0  0  0  0  0  0  0
    8.2629  -13.6834   19.2704 C   0  0  0  0  0  0  0  0  0  0  0  0
    8.5187  -13.6067   20.7163 C   0  0  0  0  0  0  0  0  0  0  0  0
    8.4485  -14.9468   21.4147 C   0  0  2  0  0  0  0  0  0  0  0  0
    7.0415  -15.3390   21.3632 N   0  0  0  0  0  0  0  0  0  0  0  0
    8.9178  -14.7740   22.7979 C   0  0  0  0  0  0  0  0  0  0  0  0
   10.1305  -14.5115   23.0112 O   0  0  0  0  0  0  0  0  0  0  0  0
    8.6925  -14.8523   18.6366 C   0  0  0  0  0  0  0  0  0  0  0  0
    8.4725  -14.9438   17.2860 C   0  0  0  0  0  0  0  0  0  0  0  0
    6.2234  -11.8749   25.9607 C   0  0  0  0  0  0  0  0  0  0  0  0
    7.3839  -12.6061   25.3644 C   0  0  0  0  0  0  0  0  0  0  0  0
    7.6396  -13.9360   26.0584 C   0  0  2  0  0  0  0  0  0  0  0  0
    8.0002  -13.6230   27.4746 C   0  0  0  0  0  0  0  0  0  0  0  0
    8.6665  -14.7478   25.3073 C   0  0  2  0  0  0  0  0  0  0  0  0
    8.1095  -14.8781   23.9456 N   0  0  0  0  0  0  0  0  0  0  0  0
    8.9201  -16.0813   25.8787 C   0  0  0  0  0  0  0  0  0  0  0  0
    7.9614  -16.9190   25.9484 O   0  0  0  0  0  0  0  0  0  0  0  0
   10.1629  -16.5241   26.3646 N   0  0  0  0  0  0  0  0  0  0  0  0
   10.3858  -17.9556   26.7734 C   0  0  1  0  0  0  0  0  0  0  0  0
   11.7122  -18.3578   26.2407 C   0  0  0  0  0  0  0  0  0  0  0  0
   12.2360  -19.6577   26.6828 C   0  0  0  0  0  0  0  0  0  0  0  0
   13.5568  -20.0956   26.2253 C   0  0  0  0  0  0  0  0  0  0  0  0
   13.8804  -20.2078   24.9885 O   0  0  0  0  0  0  0  0  0  0  0  0
   10.3042  -17.9271   28.2174 C   0  0  0  0  0  0  0  0  0  0  0  0
   10.4721  -16.7859   28.9622 O   0  0  0  0  0  0  0  0  0  0  0  0
   14.5859  -20.4258   27.1262 O   0  0  0  0  0  0  0  0  0  0  0  0
   10.0780  -18.9738   28.8729 O   0  0  0  0  0  0  0  0  0  0  0  0
  2  3  2  0
  2  1  1  0
  4  3  1  0
  5  4  2  0
  6  5  1  0
  7  6  1  0
  7  9  1  0
  7  8  1  1
  9 10  2  0
 11  5  1  0
 11 12  2  0
 12  2  1  0
 13 14  1  0
 15 16  1  1
 15 14  1  0
 17 15  1  0
 18  9  1  0
 17 18  1  6
 19 21  1  0
 19 17  1  0
 20 19  2  0
 22 27  1  0
 22 21  1  0
 22 23  1  1
 24 23  1  0
 25 24  1  0
 26 25  2  0
 27 28  1  0
 29 25  1  0
 30 27  2  0
M  END
$$$$
