YIE.pdb
     RDKit          3D

 30 30  0  0  1  0  0  0  0  0999 V2000
    5.3737  -19.6566   17.3535 O   0  0  0  0  0  0  0  0  0  0  0  0
    6.0107  -19.0772   18.4480 C   0  0  0  0  0  0  0  0  0  0  0  0
    7.3768  -19.2391   18.5566 C   0  0  0  0  0  0  0  0  0  0  0  0
    8.0136  -18.6780   19.6228 C   0  0  0  0  0  0  0  0  0  0  0  0
    7.2976  -17.9694   20.5614 C   0  0  0  0  0  0  0  0  0  0  0  0
    7.9410  -17.3548   21.7320 C   0  0  0  0  0  0  0  0  0  0  0  0
    7.8424  -15.8454   21.7533 C   0  0  2  0  0  0  0  0  0  0  0  0
    8.5610  -15.3919   20.5641 N   0  0  0  0  0  0  0  0  0  0  0  0
    8.4698  -15.3571   22.9907 C   0  0  0  0  0  0  0  0  0  0  0  0
    9.7230  -15.2507   23.0483 O   0  0  0  0  0  0  0  0  0  0  0  0
    5.9143  -17.7964   20.4654 C   0  0  0  0  0  0  0  0  0  0  0  0
    5.2900  -18.3678   19.3862 C   0  0  0  0  0  0  0  0  0  0  0  0
    5.9763  -11.7328   25.9816 C   0  0  0  0  0  0  0  0  0  0  0  0
    7.0845  -12.4996   25.3329 C   0  0  0  0  0  0  0  0  0  0  0  0
    7.4729  -13.7326   26.1356 C   0  0  2  0  0  0  0  0  0  0  0  0
    7.9276  -13.2514   27.4755 C   0  0  0  0  0  0  0  0  0  0  0  0
    8.4818  -14.5684   25.3863 C   0  0  2  0  0  0  0  0  0  0  0  0
    7.7760  -14.9844   24.1573 N   0  0  0  0  0  0  0  0  0  0  0  0
    8.9533  -15.7531   26.1231 C   0  0  0  0  0  0  0  0  0  0  0  0
    8.1211  -16.6738   26.4155 O   0  0  0  0  0  0  0  0  0  0  0  0
   10.2790  -15.9643   26.5411 N   0  0  0  0  0  0  0  0  0  0  0  0
   10.7005  -17.2439   27.2126 C   0  0  1  0  0  0  0  0  0  0  0  0
   12.0954  -17.5197   26.7849 C   0  0  0  0  0  0  0  0  0  0  0  0
   12.3182  -17.7228   25.3467 C   0  0  0  0  0  0  0  0  0  0  0  0
   13.6749  -17.9785   24.8568 C   0  0  0  0  0  0  0  0  0  0  0  0
   14.2530  -19.1221   24.9268 O   0  0  0  0  0  0  0  0  0  0  0  0
   10.5509  -16.9674   28.6247 C   0  0  0  0  0  0  0  0  0  0  0  0
   10.5896  -17.9390   29.5940 O   0  0  0  0  0  0  0  0  0  0  0  0
   14.4536  -16.9708   24.2587 O   0  0  0  0  0  0  0  0  0  0  0  0
   10.3661  -15.7962   29.0381 O   0  0  0  0  0  0  0  0  0  0  0  0
  2  3  2  0
  2  1  1  0
  4  3  1  0
  5  4  2  0
  6  5  1  0
  7  6  1  0
  7  9  1  0
  7  8  1  6
  9 10  2  0
 11  5  1  0
 11 12  2  0
 12  2  1  0
 13 14  1  0
 15 16  1  1
 15 14  1  0
 17 15  1  0
 18  9  1  0
 17 18  1  6
 19 21  1  0
 19 17  1  0
 20 19  2  0
 22 27  1  0
 22 21  1  0
 22 23  1  1
 24 23  1  0
 25 24  1  0
 26 25  2  0
 27 28  1  0
 29 25  1  0
 30 27  2  0
M  END
$$$$
