YIE.pdb
     RDKit          3D

 30 30  0  0  1  0  0  0  0  0999 V2000
    4.9495  -23.4581   28.9702 O   0  0  0  0  0  0  0  0  0  0  0  0
    5.4313  -22.5263   28.0540 C   0  0  0  0  0  0  0  0  0  0  0  0
    5.4907  -22.9008   26.7273 C   0  0  0  0  0  0  0  0  0  0  0  0
    5.9605  -21.9995   25.8195 C   0  0  0  0  0  0  0  0  0  0  0  0
    6.3627  -20.7488   26.2313 C   0  0  0  0  0  0  0  0  0  0  0  0
    6.8844  -19.7479   25.2890 C   0  0  0  0  0  0  0  0  0  0  0  0
    5.8652  -18.7032   24.8908 C   0  0  2  0  0  0  0  0  0  0  0  0
    5.0936  -19.3063   23.8059 N   0  0  0  0  0  0  0  0  0  0  0  0
    6.5842  -17.4994   24.4469 C   0  0  0  0  0  0  0  0  0  0  0  0
    7.0450  -17.4508   23.2763 O   0  0  0  0  0  0  0  0  0  0  0  0
    6.3084  -20.3545   27.5709 C   0  0  0  0  0  0  0  0  0  0  0  0
    5.8330  -21.2741   28.4705 C   0  0  0  0  0  0  0  0  0  0  0  0
    5.8105  -12.5693   26.5457 C   0  0  0  0  0  0  0  0  0  0  0  0
    6.2075  -13.5707   25.5082 C   0  0  0  0  0  0  0  0  0  0  0  0
    7.5650  -14.1919   25.8028 C   0  0  2  0  0  0  0  0  0  0  0  0
    8.5700  -13.0877   25.7359 C   0  0  0  0  0  0  0  0  0  0  0  0
    7.8381  -15.3544   24.8800 C   0  0  2  0  0  0  0  0  0  0  0  0
    6.8131  -16.3565   25.2360 N   0  0  0  0  0  0  0  0  0  0  0  0
    9.1835  -15.9364   25.0211 C   0  0  0  0  0  0  0  0  0  0  0  0
    9.4458  -16.6522   26.0431 O   0  0  0  0  0  0  0  0  0  0  0  0
   10.2321  -15.7691   24.0995 N   0  0  0  0  0  0  0  0  0  0  0  0
   11.5068  -16.5632   24.2017 C   0  0  1  0  0  0  0  0  0  0  0  0
   12.2561  -16.3461   22.9383 C   0  0  0  0  0  0  0  0  0  0  0  0
   13.6054  -16.9234   22.8621 C   0  0  0  0  0  0  0  0  0  0  0  0
   14.4341  -16.6647   21.6822 C   0  0  0  0  0  0  0  0  0  0  0  0
   15.2137  -15.6516   21.5685 O   0  0  0  0  0  0  0  0  0  0  0  0
   12.1573  -16.0363   25.3816 C   0  0  0  0  0  0  0  0  0  0  0  0
   13.0214  -16.7671   26.1590 O   0  0  0  0  0  0  0  0  0  0  0  0
   14.4385  -17.5274   20.5708 O   0  0  0  0  0  0  0  0  0  0  0  0
   11.9496  -14.8581   25.7626 O   0  0  0  0  0  0  0  0  0  0  0  0
  2  3  2  0
  2  1  1  0
  4  3  1  0
  5  4  2  0
  6  5  1  0
  7  6  1  0
  7  9  1  0
  7  8  1  6
  9 10  2  0
 11  5  1  0
 11 12  2  0
 12  2  1  0
 13 14  1  0
 15 16  1  6
 15 14  1  0
 17 15  1  0
 18  9  1  0
 17 18  1  1
 19 21  1  0
 19 17  1  0
 20 19  2  0
 22 27  1  0
 22 21  1  0
 22 23  1  6
 24 23  1  0
 25 24  1  0
 26 25  2  0
 27 28  1  0
 29 25  1  0
 30 27  2  0
M  END
$$$$
