VIQ.pdb
     RDKit          3D

 25 24  0  0  1  0  0  0  0  0999 V2000
   19.3914  -13.1626  -18.5126 C   0  0  0  0  0  0  0  0  0  0  0  0
   18.6152  -11.9777  -19.0110 C   0  0  2  0  0  0  0  0  0  0  0  0
   18.2290  -12.1933  -20.4451 C   0  0  0  0  0  0  0  0  0  0  0  0
   19.3294  -10.6679  -18.8095 C   0  0  2  0  0  0  0  0  0  0  0  0
   20.4101  -10.6123  -19.7767 N   0  0  0  0  0  0  0  0  0  0  0  0
   19.8492  -10.5155  -17.4253 C   0  0  0  0  0  0  0  0  0  0  0  0
   19.1455  -10.6649  -16.4120 O   0  0  0  0  0  0  0  0  0  0  0  0
   23.9892  -13.0722  -15.6632 C   0  0  0  0  0  0  0  0  0  0  0  0
   22.6519  -12.3046  -15.6758 C   0  0  0  0  0  0  0  0  0  0  0  0
   22.9696  -10.8434  -15.7475 C   0  0  2  0  0  0  0  0  0  0  0  0
   23.8631  -10.4844  -14.5773 C   0  0  0  0  0  0  0  0  0  0  0  0
   21.7820   -9.9315  -15.8893 C   0  0  2  0  0  0  0  0  0  0  0  0
   21.2174  -10.1824  -17.2381 N   0  0  0  0  0  0  0  0  0  0  0  0
   22.1613   -8.5106  -15.8260 C   0  0  0  0  0  0  0  0  0  0  0  0
   22.8086   -8.0052  -16.7859 O   0  0  0  0  0  0  0  0  0  0  0  0
   20.3542   -3.7456  -17.6344 N   0  0  0  0  0  0  0  0  0  0  0  0
   19.5524   -4.5420  -16.7850 C   0  0  0  0  0  0  0  0  0  0  0  0
   18.3089   -4.4582  -16.8700 O   0  0  0  0  0  0  0  0  0  0  0  0
   20.1467   -5.4687  -15.8018 C   0  0  0  0  0  0  0  0  0  0  0  0
   21.6573   -5.4714  -15.9297 C   0  0  0  0  0  0  0  0  0  0  0  0
   22.2998   -6.2233  -14.7805 C   0  0  2  0  0  0  0  0  0  0  0  0
   21.8634   -7.6155  -14.7651 N   0  0  0  0  0  0  0  0  0  0  0  0
   21.9147   -5.5101  -13.5437 C   0  0  0  0  0  0  0  0  0  0  0  0
   21.1199   -6.0143  -12.7315 O   0  0  0  0  0  0  0  0  0  0  0  0
   22.4605   -4.2609  -13.3053 O   0  0  0  0  0  0  0  0  0  0  0  0
  2  1  1  6
  2  3  1  0
  4  2  1  0
  4  6  1  0
  4  5  1  6
  6  7  2  0
  9  8  1  0
 10  9  1  0
 10 11  1  1
 12 10  1  0
 13  6  1  0
 12 13  1  6
 14 15  2  0
 14 12  1  0
 16 17  1  0
 17 18  2  0
 19 17  1  0
 19 20  1  0
 21 20  1  6
 21 22  1  0
 22 14  1  0
 23 21  1  0
 23 25  1  0
 24 23  2  0
M  END
$$$$
