VIQ.pdb
     RDKit          3D

 25 24  0  0  1  0  0  0  0  0999 V2000
   26.1500  -19.1973  -16.1926 C   0  0  0  0  0  0  0  0  0  0  0  0
   27.1963  -18.7902  -15.1953 C   0  0  2  0  0  0  0  0  0  0  0  0
   28.2739  -18.0059  -15.8851 C   0  0  0  0  0  0  0  0  0  0  0  0
   27.7546  -19.9464  -14.4095 C   0  0  2  0  0  0  0  0  0  0  0  0
   28.5015  -20.7773  -15.3359 N   0  0  0  0  0  0  0  0  0  0  0  0
   26.6918  -20.7335  -13.7310 C   0  0  0  0  0  0  0  0  0  0  0  0
   26.0990  -21.6845  -14.2682 O   0  0  0  0  0  0  0  0  0  0  0  0
   26.6599  -20.5167   -8.1816 C   0  0  0  0  0  0  0  0  0  0  0  0
   26.5966  -21.1851   -9.5697 C   0  0  0  0  0  0  0  0  0  0  0  0
   25.3451  -20.7135  -10.2423 C   0  0  2  0  0  0  0  0  0  0  0  0
   24.1554  -21.1468   -9.4097 C   0  0  0  0  0  0  0  0  0  0  0  0
   25.2172  -21.0788  -11.6957 C   0  0  2  0  0  0  0  0  0  0  0  0
   26.3263  -20.3913  -12.4016 N   0  0  0  0  0  0  0  0  0  0  0  0
   23.9550  -20.5979  -12.2809 C   0  0  0  0  0  0  0  0  0  0  0  0
   23.8598  -19.3851  -12.6217 O   0  0  0  0  0  0  0  0  0  0  0  0
   22.4603  -19.9580  -17.0865 N   0  0  0  0  0  0  0  0  0  0  0  0
   21.0890  -20.1482  -16.8002 C   0  0  0  0  0  0  0  0  0  0  0  0
   20.2351  -19.6952  -17.5916 O   0  0  0  0  0  0  0  0  0  0  0  0
   20.6415  -20.8676  -15.5915 C   0  0  0  0  0  0  0  0  0  0  0  0
   21.8370  -21.3032  -14.7674 C   0  0  0  0  0  0  0  0  0  0  0  0
   21.6781  -20.8906  -13.3171 C   0  0  2  0  0  0  0  0  0  0  0  0
   22.7938  -21.3805  -12.5147 N   0  0  0  0  0  0  0  0  0  0  0  0
   20.3850  -21.4445  -12.8614 C   0  0  0  0  0  0  0  0  0  0  0  0
   20.3387  -22.4039  -12.0722 O   0  0  0  0  0  0  0  0  0  0  0  0
   19.2179  -20.8700  -13.3339 O   0  0  0  0  0  0  0  0  0  0  0  0
  2  1  1  6
  2  3  1  0
  4  2  1  0
  4  6  1  0
  4  5  1  6
  6  7  2  0
  9  8  1  0
 10  9  1  0
 10 11  1  1
 12 10  1  0
 13  6  1  0
 12 13  1  6
 14 15  2  0
 14 12  1  0
 16 17  1  0
 17 18  2  0
 19 17  1  0
 19 20  1  0
 21 20  1  6
 21 22  1  0
 22 14  1  0
 23 21  1  0
 23 25  1  0
 24 23  2  0
M  END
$$$$
