VIQ.pdb
     RDKit          3D

 25 24  0  0  1  0  0  0  0  0999 V2000
   18.2773  -14.7352  -18.4609 C   0  0  0  0  0  0  0  0  0  0  0  0
   19.7314  -14.7983  -18.8306 C   0  0  2  0  0  0  0  0  0  0  0  0
   20.2409  -16.1971  -18.6411 C   0  0  0  0  0  0  0  0  0  0  0  0
   20.5769  -13.7864  -18.1046 C   0  0  2  0  0  0  0  0  0  0  0  0
   20.7966  -14.2913  -16.7617 N   0  0  0  0  0  0  0  0  0  0  0  0
   19.9423  -12.4427  -18.0677 C   0  0  0  0  0  0  0  0  0  0  0  0
   19.6531  -11.7966  -19.0891 O   0  0  0  0  0  0  0  0  0  0  0  0
   15.4523  -10.0264  -15.2565 C   0  0  0  0  0  0  0  0  0  0  0  0
   16.8132   -9.5615  -15.8127 C   0  0  0  0  0  0  0  0  0  0  0  0
   17.6403  -10.7837  -16.0647 C   0  0  2  0  0  0  0  0  0  0  0  0
   17.7244  -11.5843  -14.7808 C   0  0  0  0  0  0  0  0  0  0  0  0
   18.9814  -10.5353  -16.6985 C   0  0  2  0  0  0  0  0  0  0  0  0
   19.6465  -11.8570  -16.8078 N   0  0  0  0  0  0  0  0  0  0  0  0
   19.8392   -9.6761  -15.8662 C   0  0  0  0  0  0  0  0  0  0  0  0
   20.3380  -10.1497  -14.8065 O   0  0  0  0  0  0  0  0  0  0  0  0
   22.5131   -3.9673  -17.0174 N   0  0  0  0  0  0  0  0  0  0  0  0
   22.8625   -4.2487  -15.6768 C   0  0  0  0  0  0  0  0  0  0  0  0
   23.6044   -3.4528  -15.0630 O   0  0  0  0  0  0  0  0  0  0  0  0
   22.3735   -5.4574  -14.9851 C   0  0  0  0  0  0  0  0  0  0  0  0
   21.4641   -6.2538  -15.9001 C   0  0  0  0  0  0  0  0  0  0  0  0
   21.0099   -7.5376  -15.2335 C   0  0  2  0  0  0  0  0  0  0  0  0
   20.1805   -8.3254  -16.1392 N   0  0  0  0  0  0  0  0  0  0  0  0
   20.2731   -7.1407  -14.0144 C   0  0  0  0  0  0  0  0  0  0  0  0
   19.1079   -6.7119  -14.0782 O   0  0  0  0  0  0  0  0  0  0  0  0
   20.9102   -7.2566  -12.7913 O   0  0  0  0  0  0  0  0  0  0  0  0
  2  1  1  1
  2  3  1  0
  4  2  1  0
  4  6  1  0
  4  5  1  1
  6  7  2  0
  9  8  1  0
 10  9  1  0
 10 11  1  1
 12 10  1  0
 13  6  1  0
 12 13  1  1
 14 15  2  0
 14 12  1  0
 16 17  1  0
 17 18  2  0
 19 17  1  0
 19 20  1  0
 21 20  1  6
 21 22  1  0
 22 14  1  0
 23 21  1  0
 23 25  1  0
 24 23  2  0
M  END
$$$$
