VIQ.pdb
     RDKit          3D

 25 24  0  0  1  0  0  0  0  0999 V2000
   25.6471  -17.2667  -15.8847 C   0  0  0  0  0  0  0  0  0  0  0  0
   26.7661  -17.2037  -14.8853 C   0  0  2  0  0  0  0  0  0  0  0  0
   27.7590  -16.1589  -15.3034 C   0  0  0  0  0  0  0  0  0  0  0  0
   27.4203  -18.5364  -14.6361 C   0  0  2  0  0  0  0  0  0  0  0  0
   28.0551  -18.9442  -15.8759 N   0  0  0  0  0  0  0  0  0  0  0  0
   26.4503  -19.5640  -14.1750 C   0  0  0  0  0  0  0  0  0  0  0  0
   25.9344  -20.4037  -14.9321 O   0  0  0  0  0  0  0  0  0  0  0  0
   26.8281  -20.8996   -8.8476 C   0  0  0  0  0  0  0  0  0  0  0  0
   26.6757  -21.1929  -10.3537 C   0  0  0  0  0  0  0  0  0  0  0  0
   25.3468  -20.6566  -10.7868 C   0  0  2  0  0  0  0  0  0  0  0  0
   24.2575  -21.4100  -10.0503 C   0  0  0  0  0  0  0  0  0  0  0  0
   25.1279  -20.5998  -12.2737 C   0  0  2  0  0  0  0  0  0  0  0  0
   26.0865  -19.5984  -12.8022 N   0  0  0  0  0  0  0  0  0  0  0  0
   23.7728  -20.1400  -12.6192 C   0  0  0  0  0  0  0  0  0  0  0  0
   23.4659  -18.9309  -12.4198 O   0  0  0  0  0  0  0  0  0  0  0  0
   21.0661  -18.4864  -16.9706 N   0  0  0  0  0  0  0  0  0  0  0  0
   19.8458  -18.8314  -16.3458 C   0  0  0  0  0  0  0  0  0  0  0  0
   18.7963  -18.2566  -16.7047 O   0  0  0  0  0  0  0  0  0  0  0  0
   19.7807  -19.8521  -15.2816 C   0  0  0  0  0  0  0  0  0  0  0  0
   21.1696  -20.3725  -14.9680 C   0  0  0  0  0  0  0  0  0  0  0  0
   21.4170  -20.3971  -13.4723 C   0  0  2  0  0  0  0  0  0  0  0  0
   22.7391  -20.9383  -13.1755 N   0  0  0  0  0  0  0  0  0  0  0  0
   20.3387  -21.2181  -12.8809 C   0  0  0  0  0  0  0  0  0  0  0  0
   20.5470  -22.3890  -12.5187 O   0  0  0  0  0  0  0  0  0  0  0  0
   19.0832  -20.6539  -12.7371 O   0  0  0  0  0  0  0  0  0  0  0  0
  2  1  1  6
  2  3  1  0
  4  2  1  0
  4  6  1  0
  4  5  1  6
  6  7  2  0
  9  8  1  0
 10  9  1  0
 10 11  1  1
 12 10  1  0
 13  6  1  0
 12 13  1  6
 14 15  2  0
 14 12  1  0
 16 17  1  0
 17 18  2  0
 19 17  1  0
 19 20  1  0
 21 20  1  6
 21 22  1  0
 22 14  1  0
 23 21  1  0
 23 25  1  0
 24 23  2  0
M  END
$$$$
