VIQ.pdb
     RDKit          3D

 25 24  0  0  1  0  0  0  0  0999 V2000
   23.8775  -22.8850  -17.1566 C   0  0  0  0  0  0  0  0  0  0  0  0
   25.1713  -22.1587  -16.9252 C   0  0  2  0  0  0  0  0  0  0  0  0
   25.9973  -22.1860  -18.1779 C   0  0  0  0  0  0  0  0  0  0  0  0
   25.9369  -22.6672  -15.7330 C   0  0  2  0  0  0  0  0  0  0  0  0
   26.3607  -24.0215  -16.0378 N   0  0  0  0  0  0  0  0  0  0  0  0
   25.1282  -22.6334  -14.4864 C   0  0  0  0  0  0  0  0  0  0  0  0
   24.4195  -23.5812  -14.1070 O   0  0  0  0  0  0  0  0  0  0  0  0
   27.4884  -21.0071  -10.1820 C   0  0  0  0  0  0  0  0  0  0  0  0
   26.5330  -21.7618  -11.1282 C   0  0  0  0  0  0  0  0  0  0  0  0
   25.3436  -20.8840  -11.3647 C   0  0  2  0  0  0  0  0  0  0  0  0
   24.6778  -20.6021  -10.0329 C   0  0  0  0  0  0  0  0  0  0  0  0
   24.3844  -21.3676  -12.4174 C   0  0  2  0  0  0  0  0  0  0  0  0
   25.1583  -21.4648  -13.6793 N   0  0  0  0  0  0  0  0  0  0  0  0
   23.2838  -20.4171  -12.6457 C   0  0  0  0  0  0  0  0  0  0  0  0
   23.5043  -19.3750  -13.3249 O   0  0  0  0  0  0  0  0  0  0  0  0
   19.7110  -23.5549  -15.9306 N   0  0  0  0  0  0  0  0  0  0  0  0
   19.6174  -22.1644  -16.1681 C   0  0  0  0  0  0  0  0  0  0  0  0
   19.5599  -21.7523  -17.3460 O   0  0  0  0  0  0  0  0  0  0  0  0
   19.5859  -21.1888  -15.0609 C   0  0  0  0  0  0  0  0  0  0  0  0
   20.8207  -21.3387  -14.1942 C   0  0  0  0  0  0  0  0  0  0  0  0
   20.7965  -20.3586  -13.0377 C   0  0  2  0  0  0  0  0  0  0  0  0
   21.9532  -20.5537  -12.1700 N   0  0  0  0  0  0  0  0  0  0  0  0
   19.5235  -20.5857  -12.3204 C   0  0  0  0  0  0  0  0  0  0  0  0
   19.4968  -21.1857  -11.2319 O   0  0  0  0  0  0  0  0  0  0  0  0
   18.3529  -20.1138  -12.8883 O   0  0  0  0  0  0  0  0  0  0  0  0
  2  1  1  6
  2  3  1  0
  4  2  1  0
  4  6  1  0
  4  5  1  6
  6  7  2  0
  9  8  1  0
 10  9  1  0
 10 11  1  1
 12 10  1  0
 13  6  1  0
 12 13  1  6
 14 15  2  0
 14 12  1  0
 16 17  1  0
 17 18  2  0
 19 17  1  0
 19 20  1  0
 21 20  1  6
 21 22  1  0
 22 14  1  0
 23 21  1  0
 23 25  1  0
 24 23  2  0
M  END
$$$$
