VIQ.pdb
     RDKit          3D

 25 24  0  0  1  0  0  0  0  0999 V2000
   23.2914  -15.2332  -17.6816 C   0  0  0  0  0  0  0  0  0  0  0  0
   21.8419  -14.8881  -17.8672 C   0  0  2  0  0  0  0  0  0  0  0  0
   21.2729  -15.6888  -19.0018 C   0  0  0  0  0  0  0  0  0  0  0  0
   21.5962  -13.4128  -18.0386 C   0  0  2  0  0  0  0  0  0  0  0  0
   22.1821  -13.0222  -19.3076 N   0  0  0  0  0  0  0  0  0  0  0  0
   22.1663  -12.6123  -16.9234 C   0  0  0  0  0  0  0  0  0  0  0  0
   21.8928  -12.8157  -15.7283 O   0  0  0  0  0  0  0  0  0  0  0  0
   27.2804  -11.5038  -16.6453 C   0  0  0  0  0  0  0  0  0  0  0  0
   25.8300  -11.7785  -16.1997 C   0  0  0  0  0  0  0  0  0  0  0  0
   25.0522  -10.5129  -16.3853 C   0  0  2  0  0  0  0  0  0  0  0  0
   25.6877   -9.4262  -15.5417 C   0  0  0  0  0  0  0  0  0  0  0  0
   23.5672  -10.6325  -16.1791 C   0  0  2  0  0  0  0  0  0  0  0  0
   23.0702  -11.5591  -17.2258 N   0  0  0  0  0  0  0  0  0  0  0  0
   22.8750   -9.3463  -16.3623 C   0  0  0  0  0  0  0  0  0  0  0  0
   23.0596   -8.6970  -17.4301 O   0  0  0  0  0  0  0  0  0  0  0  0
   17.2735   -7.9638  -16.6399 N   0  0  0  0  0  0  0  0  0  0  0  0
   18.2437   -8.3383  -17.5977 C   0  0  0  0  0  0  0  0  0  0  0  0
   17.8677   -8.8366  -18.6797 O   0  0  0  0  0  0  0  0  0  0  0  0
   19.6875   -8.1556  -17.3515 C   0  0  0  0  0  0  0  0  0  0  0  0
   19.9138   -7.5555  -15.9778 C   0  0  0  0  0  0  0  0  0  0  0  0
   21.3943   -7.4277  -15.6766 C   0  0  2  0  0  0  0  0  0  0  0  0
   21.9881   -8.7385  -15.4353 N   0  0  0  0  0  0  0  0  0  0  0  0
   21.5087   -6.5438  -14.4967 C   0  0  0  0  0  0  0  0  0  0  0  0
   21.7937   -7.0008  -13.3762 O   0  0  0  0  0  0  0  0  0  0  0  0
   21.2911   -5.1875  -14.6647 O   0  0  0  0  0  0  0  0  0  0  0  0
  2  1  1  6
  2  3  1  0
  4  2  1  0
  4  6  1  0
  4  5  1  6
  6  7  2  0
  9  8  1  0
 10  9  1  0
 10 11  1  1
 12 10  1  0
 13  6  1  0
 12 13  1  6
 14 15  2  0
 14 12  1  0
 16 17  1  0
 17 18  2  0
 19 17  1  0
 19 20  1  0
 21 20  1  1
 21 22  1  0
 22 14  1  0
 23 21  1  0
 23 25  1  0
 24 23  2  0
M  END
$$$$
