VIQ.pdb
     RDKit          3D

 25 24  0  0  1  0  0  0  0  0999 V2000
   25.0335  -36.0608  -11.2219 C   0  0  0  0  0  0  0  0  0  0  0  0
   24.5647  -37.3738  -10.6642 C   0  0  2  0  0  0  0  0  0  0  0  0
   23.4427  -37.9085  -11.5052 C   0  0  0  0  0  0  0  0  0  0  0  0
   24.1948  -37.3059   -9.2066 C   0  0  2  0  0  0  0  0  0  0  0  0
   22.9105  -36.6356   -9.1179 N   0  0  0  0  0  0  0  0  0  0  0  0
   25.2194  -36.5962   -8.3966 C   0  0  0  0  0  0  0  0  0  0  0  0
   26.4014  -36.9705   -8.3119 O   0  0  0  0  0  0  0  0  0  0  0  0
   24.9492  -31.1769   -8.3475 C   0  0  0  0  0  0  0  0  0  0  0  0
   25.4867  -32.6207   -8.4122 C   0  0  0  0  0  0  0  0  0  0  0  0
   25.4056  -33.1959   -7.0324 C   0  0  2  0  0  0  0  0  0  0  0  0
   26.1382  -32.2729   -6.0795 C   0  0  0  0  0  0  0  0  0  0  0  0
   25.8273  -34.6342   -6.9076 C   0  0  2  0  0  0  0  0  0  0  0  0
   24.8410  -35.4304   -7.6786 N   0  0  0  0  0  0  0  0  0  0  0  0
   25.7850  -35.1071   -5.5142 C   0  0  0  0  0  0  0  0  0  0  0  0
   24.6642  -35.2551   -4.9505 O   0  0  0  0  0  0  0  0  0  0  0  0
   29.0554  -39.5299   -2.7713 N   0  0  0  0  0  0  0  0  0  0  0  0
   28.2497  -39.0632   -1.7074 C   0  0  0  0  0  0  0  0  0  0  0  0
   28.2577  -39.6829   -0.6228 O   0  0  0  0  0  0  0  0  0  0  0  0
   27.4006  -37.8638   -1.8459 C   0  0  0  0  0  0  0  0  0  0  0  0
   27.5188  -37.2961   -3.2466 C   0  0  0  0  0  0  0  0  0  0  0  0
   26.7680  -35.9844   -3.3676 C   0  0  2  0  0  0  0  0  0  0  0  0
   26.9093  -35.4295   -4.7096 N   0  0  0  0  0  0  0  0  0  0  0  0
   27.3256  -35.0837   -2.3360 C   0  0  0  0  0  0  0  0  0  0  0  0
   28.0883  -34.1506   -2.6412 O   0  0  0  0  0  0  0  0  0  0  0  0
   26.9795  -35.3008   -1.0137 O   0  0  0  0  0  0  0  0  0  0  0  0
  2  1  1  6
  2  3  1  0
  4  2  1  0
  4  6  1  0
  4  5  1  6
  6  7  2  0
  9  8  1  0
 10  9  1  0
 10 11  1  1
 12 10  1  0
 13  6  1  0
 12 13  1  6
 14 15  2  0
 14 12  1  0
 16 17  1  0
 17 18  2  0
 19 17  1  0
 19 20  1  0
 21 20  1  6
 21 22  1  0
 22 14  1  0
 23 21  1  0
 23 25  1  0
 24 23  2  0
M  END
$$$$
