VIQ.pdb
     RDKit          3D

 25 24  0  0  1  0  0  0  0  0999 V2000
   19.9808  -15.3010  -18.1189 C   0  0  0  0  0  0  0  0  0  0  0  0
   19.2082  -14.2981  -18.9264 C   0  0  2  0  0  0  0  0  0  0  0  0
   18.8561  -14.8870  -20.2611 C   0  0  0  0  0  0  0  0  0  0  0  0
   19.9088  -12.9725  -19.0614 C   0  0  2  0  0  0  0  0  0  0  0  0
   21.0748  -13.1840  -19.8993 N   0  0  0  0  0  0  0  0  0  0  0  0
   20.2990  -12.4036  -17.7448 C   0  0  0  0  0  0  0  0  0  0  0  0
   19.4908  -12.2001  -16.8230 O   0  0  0  0  0  0  0  0  0  0  0  0
   22.2205  -13.8894  -14.4276 C   0  0  0  0  0  0  0  0  0  0  0  0
   23.2009  -13.7346  -15.6077 C   0  0  0  0  0  0  0  0  0  0  0  0
   23.3776  -12.2696  -15.8599 C   0  0  2  0  0  0  0  0  0  0  0  0
   24.1217  -11.6629  -14.6874 C   0  0  0  0  0  0  0  0  0  0  0  0
   22.1232  -11.5212  -16.2185 C   0  0  2  0  0  0  0  0  0  0  0  0
   21.6612  -12.0716  -17.5164 N   0  0  0  0  0  0  0  0  0  0  0  0
   22.3698  -10.0827  -16.4107 C   0  0  0  0  0  0  0  0  0  0  0  0
   23.0892   -9.7078  -17.3791 O   0  0  0  0  0  0  0  0  0  0  0  0
   22.3826   -6.6085  -19.9657 N   0  0  0  0  0  0  0  0  0  0  0  0
   21.5205   -5.7932  -19.1971 C   0  0  0  0  0  0  0  0  0  0  0  0
   20.8238   -4.9323  -19.7750 O   0  0  0  0  0  0  0  0  0  0  0  0
   21.4229   -5.9336  -17.7310 C   0  0  0  0  0  0  0  0  0  0  0  0
   21.3581   -7.3989  -17.3473 C   0  0  0  0  0  0  0  0  0  0  0  0
   21.9758   -7.6322  -15.9824 C   0  0  2  0  0  0  0  0  0  0  0  0
   21.8641   -9.0350  -15.5971 N   0  0  0  0  0  0  0  0  0  0  0  0
   21.2633   -6.7423  -15.0406 C   0  0  0  0  0  0  0  0  0  0  0  0
   20.3171   -7.1608  -14.3513 O   0  0  0  0  0  0  0  0  0  0  0  0
   21.6732   -5.4243  -14.9400 O   0  0  0  0  0  0  0  0  0  0  0  0
  2  1  1  6
  2  3  1  0
  4  2  1  0
  4  6  1  0
  4  5  1  6
  6  7  2  0
  9  8  1  0
 10  9  1  0
 10 11  1  1
 12 10  1  0
 13  6  1  0
 12 13  1  6
 14 15  2  0
 14 12  1  0
 16 17  1  0
 17 18  2  0
 19 17  1  0
 19 20  1  0
 21 20  1  6
 21 22  1  0
 22 14  1  0
 23 21  1  0
 23 25  1  0
 24 23  2  0
M  END
$$$$
