VIQ.pdb
     RDKit          3D

 25 24  0  0  1  0  0  0  0  0999 V2000
   16.8378  -13.4675  -16.5431 C   0  0  0  0  0  0  0  0  0  0  0  0
   18.2434  -13.7524  -16.9881 C   0  0  2  0  0  0  0  0  0  0  0  0
   19.0225  -14.3471  -15.8517 C   0  0  0  0  0  0  0  0  0  0  0  0
   18.9362  -12.5552  -17.5820 C   0  0  2  0  0  0  0  0  0  0  0  0
   20.1277  -13.0366  -18.2566 N   0  0  0  0  0  0  0  0  0  0  0  0
   19.2835  -11.5373  -16.5560 C   0  0  0  0  0  0  0  0  0  0  0  0
   18.4827  -11.1361  -15.6946 O   0  0  0  0  0  0  0  0  0  0  0  0
   24.4295  -11.5206  -15.1562 C   0  0  0  0  0  0  0  0  0  0  0  0
   22.9707  -11.2768  -14.7202 C   0  0  0  0  0  0  0  0  0  0  0  0
   22.4868  -10.0484  -15.4259 C   0  0  2  0  0  0  0  0  0  0  0  0
   23.1110   -8.8345  -14.7675 C   0  0  0  0  0  0  0  0  0  0  0  0
   20.9948   -9.9388  -15.5799 C   0  0  2  0  0  0  0  0  0  0  0  0
   20.5935  -10.9878  -16.5492 N   0  0  0  0  0  0  0  0  0  0  0  0
   20.5875   -8.6399  -16.1402 C   0  0  0  0  0  0  0  0  0  0  0  0
   20.7727   -8.4171  -17.3698 O   0  0  0  0  0  0  0  0  0  0  0  0
   15.7237   -3.3966  -16.8227 N   0  0  0  0  0  0  0  0  0  0  0  0
   16.2664   -4.6741  -16.5541 C   0  0  0  0  0  0  0  0  0  0  0  0
   15.5705   -5.5132  -15.9440 O   0  0  0  0  0  0  0  0  0  0  0  0
   17.6326   -5.0407  -16.9757 C   0  0  0  0  0  0  0  0  0  0  0  0
   18.0688   -6.3191  -16.2874 C   0  0  0  0  0  0  0  0  0  0  0  0
   19.5696   -6.3370  -16.0727 C   0  0  2  0  0  0  0  0  0  0  0  0
   19.9842   -7.5749  -15.4210 N   0  0  0  0  0  0  0  0  0  0  0  0
   19.8919   -5.1478  -15.2550 C   0  0  0  0  0  0  0  0  0  0  0  0
   19.9487   -5.2161  -14.0151 O   0  0  0  0  0  0  0  0  0  0  0  0
   20.1309   -3.9477  -15.9016 O   0  0  0  0  0  0  0  0  0  0  0  0
  2  1  1  1
  2  3  1  0
  4  2  1  0
  4  6  1  0
  4  5  1  1
  6  7  2  0
  9  8  1  0
 10  9  1  0
 10 11  1  1
 12 10  1  0
 13  6  1  0
 12 13  1  6
 14 15  2  0
 14 12  1  0
 16 17  1  0
 17 18  2  0
 19 17  1  0
 19 20  1  0
 21 20  1  1
 21 22  1  0
 22 14  1  0
 23 21  1  0
 23 25  1  0
 24 23  2  0
M  END
$$$$
