VIQ.pdb
     RDKit          3D

 25 24  0  0  1  0  0  0  0  0999 V2000
   17.6498  -10.4775  -20.0561 C   0  0  0  0  0  0  0  0  0  0  0  0
   18.2329  -10.1871  -18.7032 C   0  0  2  0  0  0  0  0  0  0  0  0
   18.7914   -8.7943  -18.6819 C   0  0  0  0  0  0  0  0  0  0  0  0
   19.2452  -11.2081  -18.2572 C   0  0  2  0  0  0  0  0  0  0  0  0
   18.5578  -12.4825  -18.1574 N   0  0  0  0  0  0  0  0  0  0  0  0
   19.8798  -10.8460  -16.9628 C   0  0  0  0  0  0  0  0  0  0  0  0
   19.2999  -10.9430  -15.8679 O   0  0  0  0  0  0  0  0  0  0  0  0
   24.5617  -12.6782  -15.6643 C   0  0  0  0  0  0  0  0  0  0  0  0
   23.1278  -12.1235  -15.5466 C   0  0  0  0  0  0  0  0  0  0  0  0
   23.2081  -10.6333  -15.6649 C   0  0  2  0  0  0  0  0  0  0  0  0
   24.1282  -10.1106  -14.5801 C   0  0  0  0  0  0  0  0  0  0  0  0
   21.8859   -9.9184  -15.7172 C   0  0  2  0  0  0  0  0  0  0  0  0
   21.2159  -10.3634  -16.9638 N   0  0  0  0  0  0  0  0  0  0  0  0
   22.0465   -8.4574  -15.7988 C   0  0  0  0  0  0  0  0  0  0  0  0
   22.8038   -7.9722  -16.6859 O   0  0  0  0  0  0  0  0  0  0  0  0
   18.5036   -3.7362  -16.5549 N   0  0  0  0  0  0  0  0  0  0  0  0
   19.6830   -3.0733  -16.1448 C   0  0  0  0  0  0  0  0  0  0  0  0
   19.7362   -1.8274  -16.2191 O   0  0  0  0  0  0  0  0  0  0  0  0
   20.8513   -3.8152  -15.6319 C   0  0  0  0  0  0  0  0  0  0  0  0
   20.5657   -5.3041  -15.6250 C   0  0  0  0  0  0  0  0  0  0  0  0
   21.7278   -6.0787  -15.0346 C   0  0  2  0  0  0  0  0  0  0  0  0
   21.4157   -7.5020  -14.9593 N   0  0  0  0  0  0  0  0  0  0  0  0
   21.9851   -5.4983  -13.6991 C   0  0  0  0  0  0  0  0  0  0  0  0
   21.5730   -6.0540  -12.6662 O   0  0  0  0  0  0  0  0  0  0  0  0
   22.6991   -4.3154  -13.6202 O   0  0  0  0  0  0  0  0  0  0  0  0
  2  1  1  6
  2  3  1  0
  4  2  1  0
  4  6  1  0
  4  5  1  1
  6  7  2  0
  9  8  1  0
 10  9  1  0
 10 11  1  1
 12 10  1  0
 13  6  1  0
 12 13  1  6
 14 15  2  0
 14 12  1  0
 16 17  1  0
 17 18  2  0
 19 17  1  0
 19 20  1  0
 21 20  1  1
 21 22  1  0
 22 14  1  0
 23 21  1  0
 23 25  1  0
 24 23  2  0
M  END
$$$$
