VIQ.pdb
     RDKit          3D

 25 24  0  0  1  0  0  0  0  0999 V2000
   28.5565  -22.3464  -14.4365 C   0  0  0  0  0  0  0  0  0  0  0  0
   28.0649  -21.9373  -15.7951 C   0  0  2  0  0  0  0  0  0  0  0  0
   29.1789  -21.2851  -16.5605 C   0  0  0  0  0  0  0  0  0  0  0  0
   26.8313  -21.0759  -15.7497 C   0  0  2  0  0  0  0  0  0  0  0  0
   27.2490  -19.7444  -15.3509 N   0  0  0  0  0  0  0  0  0  0  0  0
   25.8038  -21.6098  -14.8177 C   0  0  0  0  0  0  0  0  0  0  0  0
   25.3242  -22.7523  -14.9130 O   0  0  0  0  0  0  0  0  0  0  0  0
   26.3405  -20.7900   -9.6039 C   0  0  0  0  0  0  0  0  0  0  0  0
   25.9841  -21.4484  -10.9519 C   0  0  0  0  0  0  0  0  0  0  0  0
   24.7238  -20.8106  -11.4478 C   0  0  2  0  0  0  0  0  0  0  0  0
   23.6476  -20.9826  -10.3948 C   0  0  0  0  0  0  0  0  0  0  0  0
   24.2833  -21.2356  -12.8217 C   0  0  2  0  0  0  0  0  0  0  0  0
   25.3386  -20.7824  -13.7609 N   0  0  0  0  0  0  0  0  0  0  0  0
   23.0240  -20.5897  -13.2265 C   0  0  0  0  0  0  0  0  0  0  0  0
   22.9636  -19.3282  -13.2561 O   0  0  0  0  0  0  0  0  0  0  0  0
   20.8201  -17.9536  -16.1470 N   0  0  0  0  0  0  0  0  0  0  0  0
   19.5016  -18.4568  -16.2301 C   0  0  0  0  0  0  0  0  0  0  0  0
   18.5753  -17.6822  -16.5502 O   0  0  0  0  0  0  0  0  0  0  0  0
   19.1924  -19.8723  -15.9485 C   0  0  0  0  0  0  0  0  0  0  0  0
   20.4461  -20.6075  -15.5171 C   0  0  0  0  0  0  0  0  0  0  0  0
   20.6325  -20.5308  -14.0144 C   0  0  2  0  0  0  0  0  0  0  0  0
   21.8293  -21.2573  -13.6039 N   0  0  0  0  0  0  0  0  0  0  0  0
   19.4079  -21.0972  -13.4092 C   0  0  0  0  0  0  0  0  0  0  0  0
   19.2685  -22.3245  -13.2686 O   0  0  0  0  0  0  0  0  0  0  0  0
   18.4120  -20.2281  -12.9989 O   0  0  0  0  0  0  0  0  0  0  0  0
  2  1  1  1
  2  3  1  0
  4  2  1  0
  4  6  1  0
  4  5  1  1
  6  7  2  0
  9  8  1  0
 10  9  1  0
 10 11  1  1
 12 10  1  0
 13  6  1  0
 12 13  1  6
 14 15  2  0
 14 12  1  0
 16 17  1  0
 17 18  2  0
 19 17  1  0
 19 20  1  0
 21 20  1  6
 21 22  1  0
 22 14  1  0
 23 21  1  0
 23 25  1  0
 24 23  2  0
M  END
$$$$
