LEM.pdb
     RDKit          3D

 26 25  0  0  1  0  0  0  0  0999 V2000
   26.9143  -14.0334  -14.7026 C   0  0  0  0  0  0  0  0  0  0  0  0
   26.4774  -15.2186  -15.5253 C   0  0  1  0  0  0  0  0  0  0  0  0
   27.6616  -15.6910  -16.3443 C   0  0  0  0  0  0  0  0  0  0  0  0
   26.0116  -16.3375  -14.6412 C   0  0  0  0  0  0  0  0  0  0  0  0
   25.7207  -17.6114  -15.3829 C   0  0  2  0  0  0  0  0  0  0  0  0
   24.5938  -17.4278  -16.2487 N   0  0  0  0  0  0  0  0  0  0  0  0
   25.4256  -18.6697  -14.4074 C   0  0  0  0  0  0  0  0  0  0  0  0
   24.2876  -18.6598  -13.8313 O   0  0  0  0  0  0  0  0  0  0  0  0
   26.3308  -19.7258  -14.0485 N   0  0  0  0  0  0  0  0  0  0  0  0
   25.8989  -20.7783  -13.1939 C   0  0  1  0  0  0  0  0  0  0  0  0
   26.2558  -22.1179  -13.7143 C   0  0  0  0  0  0  0  0  0  0  0  0
   25.4565  -22.7080  -14.8017 C   0  0  0  0  0  0  0  0  0  0  0  0
   26.1591  -22.9728  -16.0715 C   0  0  0  0  0  0  0  0  0  0  0  0
   25.5742  -23.4312  -17.1074 O   0  0  0  0  0  0  0  0  0  0  0  0
   26.2864  -20.5717  -11.7740 C   0  0  0  0  0  0  0  0  0  0  0  0
   27.4901  -20.4293  -11.4377 O   0  0  0  0  0  0  0  0  0  0  0  0
   27.5189  -22.7302  -16.2012 O   0  0  0  0  0  0  0  0  0  0  0  0
   28.2900  -18.5346   -5.0868 C   0  0  0  0  0  0  0  0  0  0  0  0
   27.7358  -18.3896   -6.8163 S   0  0  0  0  0  0  0  0  0  0  0  0
   26.7609  -19.8804   -7.2794 C   0  0  0  0  0  0  0  0  0  0  0  0
   26.5168  -19.7706   -8.7504 C   0  0  0  0  0  0  0  0  0  0  0  0
   25.7064  -20.8630   -9.3619 C   0  0  2  0  0  0  0  0  0  0  0  0
   25.3148  -20.5262  -10.7359 N   0  0  0  0  0  0  0  0  0  0  0  0
   24.4816  -21.0992   -8.5867 C   0  0  0  0  0  0  0  0  0  0  0  0
   24.5932  -21.4997   -7.2410 O   0  0  0  0  0  0  0  0  0  0  0  0
   23.3101  -20.9709   -9.0335 O   0  0  0  0  0  0  0  0  0  0  0  0
  2  1  1  1
  2  3  1  0
  4  5  1  0
  4  2  1  0
  5  6  1  6
  7  8  2  0
  7  5  1  0
  9  7  1  0
 10  9  1  0
 10 11  1  6
 12 13  1  0
 12 11  1  0
 13 14  2  0
 13 17  1  0
 15 23  1  0
 15 10  1  0
 16 15  2  0
 19 20  1  0
 19 18  1  0
 20 21  1  0
 22 21  1  1
 22 24  1  0
 22 23  1  0
 24 25  1  0
 26 24  2  0
M  END
$$$$
