LEM.pdb
     RDKit          3D

 26 25  0  0  1  0  0  0  0  0999 V2000
   27.6716  -11.6114  -17.5104 C   0  0  0  0  0  0  0  0  0  0  0  0
   26.9848  -11.6779  -16.1702 C   0  0  1  0  0  0  0  0  0  0  0  0
   27.9457  -11.1624  -15.1178 C   0  0  0  0  0  0  0  0  0  0  0  0
   25.7464  -10.8313  -16.1642 C   0  0  0  0  0  0  0  0  0  0  0  0
   24.6196  -11.4049  -16.9759 C   0  0  2  0  0  0  0  0  0  0  0  0
   25.0509  -11.6276  -18.3241 N   0  0  0  0  0  0  0  0  0  0  0  0
   23.4992  -10.4544  -16.9674 C   0  0  0  0  0  0  0  0  0  0  0  0
   23.6689   -9.3160  -17.5172 O   0  0  0  0  0  0  0  0  0  0  0  0
   22.2136  -10.7118  -16.3804 N   0  0  0  0  0  0  0  0  0  0  0  0
   21.1632   -9.7612  -16.5139 C   0  0  1  0  0  0  0  0  0  0  0  0
   19.8208  -10.3747  -16.3954 C   0  0  0  0  0  0  0  0  0  0  0  0
   18.6239   -9.5232  -16.5054 C   0  0  0  0  0  0  0  0  0  0  0  0
   17.3176  -10.2032  -16.4222 C   0  0  0  0  0  0  0  0  0  0  0  0
   17.1969  -11.4522  -16.1971 O   0  0  0  0  0  0  0  0  0  0  0  0
   21.3466   -8.5656  -15.6503 C   0  0  0  0  0  0  0  0  0  0  0  0
   21.8141   -8.6637  -14.4866 O   0  0  0  0  0  0  0  0  0  0  0  0
   16.1329   -9.5006  -16.5885 O   0  0  0  0  0  0  0  0  0  0  0  0
   23.0864   -0.9094  -15.7105 C   0  0  0  0  0  0  0  0  0  0  0  0
   22.6545   -2.4721  -16.5415 S   0  0  0  0  0  0  0  0  0  0  0  0
   22.0699   -3.6935  -15.2948 C   0  0  0  0  0  0  0  0  0  0  0  0
   21.7954   -4.9533  -16.0517 C   0  0  0  0  0  0  0  0  0  0  0  0
   21.2856   -6.1011  -15.2476 C   0  0  2  0  0  0  0  0  0  0  0  0
   21.0021   -7.2612  -16.1013 N   0  0  0  0  0  0  0  0  0  0  0  0
   20.0454   -5.7381  -14.5499 C   0  0  0  0  0  0  0  0  0  0  0  0
   18.8177   -6.2148  -15.0493 O   0  0  0  0  0  0  0  0  0  0  0  0
   19.9839   -5.0190  -13.5168 O   0  0  0  0  0  0  0  0  0  0  0  0
  2  1  1  6
  2  3  1  0
  4  5  1  0
  4  2  1  0
  5  6  1  6
  7  8  2  0
  7  5  1  0
  9  7  1  0
 10  9  1  0
 10 11  1  1
 12 13  1  0
 12 11  1  0
 13 14  2  0
 13 17  1  0
 15 23  1  0
 15 10  1  0
 16 15  2  0
 19 20  1  0
 19 18  1  0
 20 21  1  0
 22 21  1  6
 22 24  1  0
 22 23  1  0
 24 25  1  0
 26 24  2  0
M  END
$$$$
