LEM.pdb
     RDKit          3D

 26 25  0  0  1  0  0  0  0  0999 V2000
   27.1143  -15.6779  -16.9650 C   0  0  0  0  0  0  0  0  0  0  0  0
   27.1737  -17.1078  -16.4912 C   0  0  1  0  0  0  0  0  0  0  0  0
   28.3752  -17.7715  -17.1334 C   0  0  0  0  0  0  0  0  0  0  0  0
   27.3158  -17.1685  -14.9991 C   0  0  0  0  0  0  0  0  0  0  0  0
   27.4528  -18.5653  -14.4625 C   0  0  2  0  0  0  0  0  0  0  0  0
   27.0495  -19.5141  -15.4576 N   0  0  0  0  0  0  0  0  0  0  0  0
   26.5975  -18.7019  -13.2757 C   0  0  0  0  0  0  0  0  0  0  0  0
   26.6172  -17.7686  -12.4064 O   0  0  0  0  0  0  0  0  0  0  0  0
   25.7317  -19.8185  -13.0165 N   0  0  0  0  0  0  0  0  0  0  0  0
   24.9133  -19.8338  -11.8526 C   0  0  1  0  0  0  0  0  0  0  0  0
   23.5343  -20.2956  -12.1315 C   0  0  0  0  0  0  0  0  0  0  0  0
   22.7473  -19.6298  -13.1837 C   0  0  0  0  0  0  0  0  0  0  0  0
   22.2018  -20.4925  -14.2486 C   0  0  0  0  0  0  0  0  0  0  0  0
   21.9018  -21.7180  -14.0653 O   0  0  0  0  0  0  0  0  0  0  0  0
   25.5493  -20.5276  -10.7025 C   0  0  0  0  0  0  0  0  0  0  0  0
   26.0624  -21.6692  -10.8285 O   0  0  0  0  0  0  0  0  0  0  0  0
   21.9846  -20.0006  -15.5275 O   0  0  0  0  0  0  0  0  0  0  0  0
   28.8053  -19.9150   -3.5297 C   0  0  0  0  0  0  0  0  0  0  0  0
   28.0479  -19.1817   -5.0156 S   0  0  0  0  0  0  0  0  0  0  0  0
   27.3251  -20.5127   -6.0612 C   0  0  0  0  0  0  0  0  0  0  0  0
   26.7981  -19.8333   -7.2843 C   0  0  0  0  0  0  0  0  0  0  0  0
   26.1125  -20.7113   -8.2758 C   0  0  2  0  0  0  0  0  0  0  0  0
   25.6054  -19.9321   -9.4118 N   0  0  0  0  0  0  0  0  0  0  0  0
   24.9747  -21.4048   -7.6582 C   0  0  0  0  0  0  0  0  0  0  0  0
   25.2240  -22.3778   -6.6708 O   0  0  0  0  0  0  0  0  0  0  0  0
   23.7644  -21.1986   -7.9429 O   0  0  0  0  0  0  0  0  0  0  0  0
  2  1  1  6
  2  3  1  0
  4  5  1  0
  4  2  1  0
  5  6  1  6
  7  8  2  0
  7  5  1  0
  9  7  1  0
 10  9  1  0
 10 11  1  6
 12 13  1  0
 12 11  1  0
 13 14  2  0
 13 17  1  0
 15 23  1  0
 15 10  1  0
 16 15  2  0
 19 20  1  0
 19 18  1  0
 20 21  1  0
 22 21  1  1
 22 24  1  0
 22 23  1  0
 24 25  1  0
 26 24  2  0
M  END
$$$$
