LEM.pdb
     RDKit          3D

 26 25  0  0  1  0  0  0  0  0999 V2000
   33.4847  -32.3278   -6.5869 C   0  0  0  0  0  0  0  0  0  0  0  0
   33.0370  -33.7437   -6.3273 C   0  0  1  0  0  0  0  0  0  0  0  0
   34.2334  -34.6586   -6.4950 C   0  0  0  0  0  0  0  0  0  0  0  0
   32.4997  -33.8849   -4.9339 C   0  0  0  0  0  0  0  0  0  0  0  0
   31.9176  -35.2399   -4.6462 C   0  0  2  0  0  0  0  0  0  0  0  0
   31.3257  -35.7810   -5.8337 N   0  0  0  0  0  0  0  0  0  0  0  0
   30.8922  -35.1022   -3.6030 C   0  0  0  0  0  0  0  0  0  0  0  0
   31.2474  -34.6554   -2.4623 O   0  0  0  0  0  0  0  0  0  0  0  0
   29.5053  -35.4365   -3.7712 N   0  0  0  0  0  0  0  0  0  0  0  0
   28.5832  -35.2184   -2.7096 C   0  0  1  0  0  0  0  0  0  0  0  0
   27.3579  -34.5158   -3.1542 C   0  0  0  0  0  0  0  0  0  0  0  0
   26.3415  -34.1338   -2.1588 C   0  0  0  0  0  0  0  0  0  0  0  0
   25.1817  -33.3701   -2.6563 C   0  0  0  0  0  0  0  0  0  0  0  0
   23.9755  -33.7409   -2.4751 O   0  0  0  0  0  0  0  0  0  0  0  0
   28.3083  -36.4444   -1.9159 C   0  0  0  0  0  0  0  0  0  0  0  0
   28.3622  -37.5879   -2.4372 O   0  0  0  0  0  0  0  0  0  0  0  0
   25.3523  -32.1867   -3.3601 O   0  0  0  0  0  0  0  0  0  0  0  0
   31.8706  -41.2391    1.9154 C   0  0  0  0  0  0  0  0  0  0  0  0
   31.4853  -39.7315    0.9679 S   0  0  0  0  0  0  0  0  0  0  0  0
   29.6978  -39.3306    1.1451 C   0  0  0  0  0  0  0  0  0  0  0  0
   29.4548  -38.1427    0.2704 C   0  0  0  0  0  0  0  0  0  0  0  0
   28.0715  -37.5860    0.2933 C   0  0  2  0  0  0  0  0  0  0  0  0
   27.9730  -36.3781   -0.5350 N   0  0  0  0  0  0  0  0  0  0  0  0
   27.6758  -37.2303    1.6621 C   0  0  0  0  0  0  0  0  0  0  0  0
   27.3496  -38.2595    2.5666 O   0  0  0  0  0  0  0  0  0  0  0  0
   27.6016  -36.0538    2.1080 O   0  0  0  0  0  0  0  0  0  0  0  0
  2  1  1  1
  2  3  1  0
  4  5  1  0
  4  2  1  0
  5  6  1  6
  7  8  2  0
  7  5  1  0
  9  7  1  0
 10  9  1  0
 10 11  1  6
 12 13  1  0
 12 11  1  0
 13 14  2  0
 13 17  1  0
 15 23  1  0
 15 10  1  0
 16 15  2  0
 19 20  1  0
 19 18  1  0
 20 21  1  0
 22 21  1  1
 22 24  1  0
 22 23  1  0
 24 25  1  0
 26 24  2  0
M  END
$$$$
