LEM.pdb
     RDKit          3D

 26 25  0  0  1  0  0  0  0  0999 V2000
   18.7616  -21.4309  -14.8371 C   0  0  0  0  0  0  0  0  0  0  0  0
   19.6898  -20.2878  -14.5142 C   0  0  1  0  0  0  0  0  0  0  0  0
   18.8615  -19.0255  -14.3837 C   0  0  0  0  0  0  0  0  0  0  0  0
   20.4137  -20.5381  -13.2244 C   0  0  0  0  0  0  0  0  0  0  0  0
   21.5999  -19.6401  -13.0143 C   0  0  2  0  0  0  0  0  0  0  0  0
   22.1019  -19.1877  -14.2779 N   0  0  0  0  0  0  0  0  0  0  0  0
   22.6455  -20.3950  -12.3102 C   0  0  0  0  0  0  0  0  0  0  0  0
   22.3356  -20.9856  -11.2229 O   0  0  0  0  0  0  0  0  0  0  0  0
   24.0050  -20.5196  -12.7574 N   0  0  0  0  0  0  0  0  0  0  0  0
   24.9306  -21.3100  -12.0203 C   0  0  1  0  0  0  0  0  0  0  0  0
   25.5754  -22.3539  -12.8493 C   0  0  0  0  0  0  0  0  0  0  0  0
   24.7477  -23.4133  -13.4513 C   0  0  0  0  0  0  0  0  0  0  0  0
   25.4344  -24.3590  -14.3514 C   0  0  0  0  0  0  0  0  0  0  0  0
   25.6783  -24.1011  -15.5758 O   0  0  0  0  0  0  0  0  0  0  0  0
   25.8956  -20.4966  -11.2356 C   0  0  0  0  0  0  0  0  0  0  0  0
   26.4350  -19.4699  -11.7227 O   0  0  0  0  0  0  0  0  0  0  0  0
   25.8564  -25.6005  -13.8982 O   0  0  0  0  0  0  0  0  0  0  0  0
   26.4552  -20.3997   -5.0659 C   0  0  0  0  0  0  0  0  0  0  0  0
   28.2406  -20.1081   -5.2817 S   0  0  0  0  0  0  0  0  0  0  0  0
   28.6250  -19.9282   -7.0725 C   0  0  0  0  0  0  0  0  0  0  0  0
   27.3844  -20.3340   -7.8015 C   0  0  0  0  0  0  0  0  0  0  0  0
   27.4394  -20.2391   -9.2888 C   0  0  2  0  0  0  0  0  0  0  0  0
   26.2504  -20.8431   -9.9023 N   0  0  0  0  0  0  0  0  0  0  0  0
   28.6221  -20.9353   -9.8116 C   0  0  0  0  0  0  0  0  0  0  0  0
   28.5143  -22.2962  -10.1579 O   0  0  0  0  0  0  0  0  0  0  0  0
   29.7532  -20.4060   -9.9814 O   0  0  0  0  0  0  0  0  0  0  0  0
  2  1  1  1
  2  3  1  0
  4  5  1  0
  4  2  1  0
  5  6  1  6
  7  8  2  0
  7  5  1  0
  9  7  1  0
 10  9  1  0
 10 11  1  6
 12 13  1  0
 12 11  1  0
 13 14  2  0
 13 17  1  0
 15 23  1  0
 15 10  1  0
 16 15  2  0
 19 20  1  0
 19 18  1  0
 20 21  1  0
 22 21  1  1
 22 24  1  0
 22 23  1  0
 24 25  1  0
 26 24  2  0
M  END
$$$$
