LEM.pdb
     RDKit          3D

 26 25  0  0  1  0  0  0  0  0999 V2000
   27.2900  -15.1343  -17.0042 C   0  0  0  0  0  0  0  0  0  0  0  0
   27.4245  -16.6013  -16.6842 C   0  0  1  0  0  0  0  0  0  0  0  0
   28.8913  -16.9730  -16.7671 C   0  0  0  0  0  0  0  0  0  0  0  0
   26.9192  -16.8931  -15.3023 C   0  0  0  0  0  0  0  0  0  0  0  0
   27.1965  -18.2964  -14.8424 C   0  0  2  0  0  0  0  0  0  0  0  0
   26.9703  -19.2176  -15.9163 N   0  0  0  0  0  0  0  0  0  0  0  0
   26.2983  -18.6134  -13.7236 C   0  0  0  0  0  0  0  0  0  0  0  0
   26.1973  -17.7696  -12.7724 O   0  0  0  0  0  0  0  0  0  0  0  0
   25.5173  -19.8144  -13.6177 N   0  0  0  0  0  0  0  0  0  0  0  0
   24.6398  -20.0018  -12.5133 C   0  0  1  0  0  0  0  0  0  0  0  0
   23.3837  -20.6877  -12.8934 C   0  0  0  0  0  0  0  0  0  0  0  0
   22.3826  -19.9690  -13.7003 C   0  0  0  0  0  0  0  0  0  0  0  0
   21.1310  -20.6904  -13.9986 C   0  0  0  0  0  0  0  0  0  0  0  0
   20.1543  -20.1595  -14.6228 O   0  0  0  0  0  0  0  0  0  0  0  0
   25.3106  -20.6053  -11.3325 C   0  0  0  0  0  0  0  0  0  0  0  0
   25.9828  -21.6640  -11.4311 O   0  0  0  0  0  0  0  0  0  0  0  0
   20.9536  -22.0090  -13.6057 O   0  0  0  0  0  0  0  0  0  0  0  0
   29.6629  -19.6376   -5.5155 C   0  0  0  0  0  0  0  0  0  0  0  0
   27.9529  -19.1052   -5.8494 S   0  0  0  0  0  0  0  0  0  0  0  0
   27.0484  -20.4469   -6.7264 C   0  0  0  0  0  0  0  0  0  0  0  0
   26.5207  -19.8328   -7.9832 C   0  0  0  0  0  0  0  0  0  0  0  0
   25.7400  -20.7377   -8.8753 C   0  0  2  0  0  0  0  0  0  0  0  0
   25.2218  -20.0132  -10.0420 N   0  0  0  0  0  0  0  0  0  0  0  0
   24.5973  -21.3175   -8.1578 C   0  0  0  0  0  0  0  0  0  0  0  0
   24.8412  -22.1820   -7.0729 O   0  0  0  0  0  0  0  0  0  0  0  0
   23.3872  -21.1023   -8.4363 O   0  0  0  0  0  0  0  0  0  0  0  0
  2  1  1  1
  2  3  1  0
  4  5  1  0
  4  2  1  0
  5  6  1  6
  7  8  2  0
  7  5  1  0
  9  7  1  0
 10  9  1  0
 10 11  1  6
 12 13  1  0
 12 11  1  0
 13 14  2  0
 13 17  1  0
 15 23  1  0
 15 10  1  0
 16 15  2  0
 19 20  1  0
 19 18  1  0
 20 21  1  0
 22 21  1  1
 22 24  1  0
 22 23  1  0
 24 25  1  0
 26 24  2  0
M  END
$$$$
