LEM.pdb
     RDKit          3D

 26 25  0  0  1  0  0  0  0  0999 V2000
   27.8690  -18.5609   -8.0186 C   0  0  0  0  0  0  0  0  0  0  0  0
   27.2777  -19.9077   -8.3487 C   0  0  1  0  0  0  0  0  0  0  0  0
   26.3365  -20.3010   -7.2281 C   0  0  0  0  0  0  0  0  0  0  0  0
   26.5131  -19.8517   -9.6381 C   0  0  0  0  0  0  0  0  0  0  0  0
   25.8559  -21.1516  -10.0068 C   0  0  2  0  0  0  0  0  0  0  0  0
   26.8475  -22.1731  -10.1693 N   0  0  0  0  0  0  0  0  0  0  0  0
   25.1237  -20.9703  -11.2677 C   0  0  0  0  0  0  0  0  0  0  0  0
   25.7857  -20.9840  -12.3578 O   0  0  0  0  0  0  0  0  0  0  0  0
   23.7038  -20.7762  -11.3675 N   0  0  0  0  0  0  0  0  0  0  0  0
   23.0769  -20.7264  -12.6439 C   0  0  1  0  0  0  0  0  0  0  0  0
   21.6005  -20.8015  -12.5570 C   0  0  0  0  0  0  0  0  0  0  0  0
   20.8056  -20.8703  -13.7951 C   0  0  0  0  0  0  0  0  0  0  0  0
   19.9458  -22.0568  -13.9649 C   0  0  0  0  0  0  0  0  0  0  0  0
   18.8225  -22.1915  -13.3772 O   0  0  0  0  0  0  0  0  0  0  0  0
   23.5644  -19.6052  -13.4889 C   0  0  0  0  0  0  0  0  0  0  0  0
   23.6838  -18.4411  -13.0274 O   0  0  0  0  0  0  0  0  0  0  0  0
   20.3270  -23.1049  -14.7901 O   0  0  0  0  0  0  0  0  0  0  0  0
   29.0382  -18.2887  -15.8143 C   0  0  0  0  0  0  0  0  0  0  0  0
   28.0723  -18.2836  -17.3591 S   0  0  0  0  0  0  0  0  0  0  0  0
   26.3362  -17.7888  -17.0003 C   0  0  0  0  0  0  0  0  0  0  0  0
   25.7935  -18.8341  -16.0794 C   0  0  0  0  0  0  0  0  0  0  0  0
   24.3754  -18.6571  -15.6529 C   0  0  2  0  0  0  0  0  0  0  0  0
   23.9164  -19.7995  -14.8535 N   0  0  0  0  0  0  0  0  0  0  0  0
   23.4919  -18.5364  -16.8197 C   0  0  0  0  0  0  0  0  0  0  0  0
   23.2459  -17.2589  -17.3592 O   0  0  0  0  0  0  0  0  0  0  0  0
   22.9209  -19.5021  -17.3941 O   0  0  0  0  0  0  0  0  0  0  0  0
  2  1  1  1
  2  3  1  0
  4  5  1  0
  4  2  1  0
  5  6  1  6
  7  8  2  0
  7  5  1  0
  9  7  1  0
 10  9  1  0
 10 11  1  1
 12 13  1  0
 12 11  1  0
 13 14  2  0
 13 17  1  0
 15 23  1  0
 15 10  1  0
 16 15  2  0
 19 20  1  0
 19 18  1  0
 20 21  1  0
 22 21  1  6
 22 24  1  0
 22 23  1  0
 24 25  1  0
 26 24  2  0
M  END
$$$$
