LEM.pdb
     RDKit          3D

 26 25  0  0  1  0  0  0  0  0999 V2000
   28.9523  -20.1719  -12.2540 C   0  0  0  0  0  0  0  0  0  0  0  0
   28.0977  -21.0579  -11.3838 C   0  0  1  0  0  0  0  0  0  0  0  0
   28.6244  -20.9808   -9.9650 C   0  0  0  0  0  0  0  0  0  0  0  0
   26.6679  -20.6045  -11.4043 C   0  0  0  0  0  0  0  0  0  0  0  0
   25.7530  -21.5279  -12.1579 C   0  0  2  0  0  0  0  0  0  0  0  0
   26.3875  -21.9689  -13.3646 N   0  0  0  0  0  0  0  0  0  0  0  0
   24.5172  -20.8044  -12.4867 C   0  0  0  0  0  0  0  0  0  0  0  0
   23.8434  -20.2946  -11.5312 O   0  0  0  0  0  0  0  0  0  0  0  0
   24.0039  -20.6259  -13.8165 N   0  0  0  0  0  0  0  0  0  0  0  0
   22.7814  -19.9280  -14.0235 C   0  0  1  0  0  0  0  0  0  0  0  0
   22.8395  -19.0080  -15.1823 C   0  0  0  0  0  0  0  0  0  0  0  0
   23.0053  -19.5610  -16.5374 C   0  0  0  0  0  0  0  0  0  0  0  0
   23.0252  -18.5926  -17.6500 C   0  0  0  0  0  0  0  0  0  0  0  0
   22.9272  -17.3332  -17.4775 O   0  0  0  0  0  0  0  0  0  0  0  0
   21.5948  -20.8228  -14.0362 C   0  0  0  0  0  0  0  0  0  0  0  0
   21.6498  -21.9764  -14.5348 O   0  0  0  0  0  0  0  0  0  0  0  0
   23.1544  -19.0155  -18.9650 O   0  0  0  0  0  0  0  0  0  0  0  0
   14.8599  -22.6901  -10.4068 C   0  0  0  0  0  0  0  0  0  0  0  0
   16.3350  -21.6441  -10.6292 S   0  0  0  0  0  0  0  0  0  0  0  0
   17.1724  -22.0850  -12.2077 C   0  0  0  0  0  0  0  0  0  0  0  0
   18.4240  -21.2682  -12.2504 C   0  0  0  0  0  0  0  0  0  0  0  0
   19.2055  -21.3354  -13.5188 C   0  0  2  0  0  0  0  0  0  0  0  0
   20.3481  -20.4145  -13.4862 N   0  0  0  0  0  0  0  0  0  0  0  0
   18.3652  -20.9744  -14.6679 C   0  0  0  0  0  0  0  0  0  0  0  0
   18.4010  -19.6513  -15.1495 O   0  0  0  0  0  0  0  0  0  0  0  0
   17.5960  -21.7667  -15.2752 O   0  0  0  0  0  0  0  0  0  0  0  0
  2  1  1  6
  2  3  1  0
  4  5  1  0
  4  2  1  0
  5  6  1  6
  7  8  2  0
  7  5  1  0
  9  7  1  0
 10  9  1  0
 10 11  1  6
 12 13  1  0
 12 11  1  0
 13 14  2  0
 13 17  1  0
 15 23  1  0
 15 10  1  0
 16 15  2  0
 19 20  1  0
 19 18  1  0
 20 21  1  0
 22 21  1  1
 22 24  1  0
 22 23  1  0
 24 25  1  0
 26 24  2  0
M  END
$$$$
