LEM.pdb
     RDKit          3D

 26 25  0  0  1  0  0  0  0  0999 V2000
   18.0419  -13.4110  -18.7394 C   0  0  0  0  0  0  0  0  0  0  0  0
   18.0836  -12.9388  -17.3084 C   0  0  1  0  0  0  0  0  0  0  0  0
   19.1868  -13.6911  -16.5919 C   0  0  0  0  0  0  0  0  0  0  0  0
   18.3664  -11.4671  -17.2417 C   0  0  0  0  0  0  0  0  0  0  0  0
   18.4577  -10.9333  -15.8401 C   0  0  2  0  0  0  0  0  0  0  0  0
   17.2031  -11.1021  -15.1689 N   0  0  0  0  0  0  0  0  0  0  0  0
   18.7968   -9.5049  -15.8994 C   0  0  0  0  0  0  0  0  0  0  0  0
   17.8762   -8.6779  -16.2085 O   0  0  0  0  0  0  0  0  0  0  0  0
   20.1002   -8.9627  -15.6334 N   0  0  0  0  0  0  0  0  0  0  0  0
   20.3236   -7.5604  -15.7240 C   0  0  1  0  0  0  0  0  0  0  0  0
   21.0781   -7.0275  -14.5667 C   0  0  0  0  0  0  0  0  0  0  0  0
   21.3881   -5.5887  -14.5056 C   0  0  0  0  0  0  0  0  0  0  0  0
   22.0986   -5.1149  -13.3029 C   0  0  0  0  0  0  0  0  0  0  0  0
   22.4998   -3.9132  -13.1604 O   0  0  0  0  0  0  0  0  0  0  0  0
   20.8801   -7.1429  -17.0372 C   0  0  0  0  0  0  0  0  0  0  0  0
   21.8277   -7.7704  -17.5764 O   0  0  0  0  0  0  0  0  0  0  0  0
   22.3697   -5.9731  -12.2470 O   0  0  0  0  0  0  0  0  0  0  0  0
   19.3466   -6.1223  -23.8163 C   0  0  0  0  0  0  0  0  0  0  0  0
   18.9616   -4.9303  -22.4934 S   0  0  0  0  0  0  0  0  0  0  0  0
   20.3960   -4.7941  -21.3482 C   0  0  0  0  0  0  0  0  0  0  0  0
   19.9073   -5.2738  -20.0192 C   0  0  0  0  0  0  0  0  0  0  0  0
   20.9603   -5.6345  -19.0267 C   0  0  2  0  0  0  0  0  0  0  0  0
   20.3665   -6.0178  -17.7402 N   0  0  0  0  0  0  0  0  0  0  0  0
   21.8625   -4.5002  -18.7892 C   0  0  0  0  0  0  0  0  0  0  0  0
   22.7479   -4.1078  -19.8118 O   0  0  0  0  0  0  0  0  0  0  0  0
   21.9133   -3.8311  -17.7224 O   0  0  0  0  0  0  0  0  0  0  0  0
  2  1  1  6
  2  3  1  0
  4  5  1  0
  4  2  1  0
  5  6  1  6
  7  8  2  0
  7  5  1  0
  9  7  1  0
 10  9  1  0
 10 11  1  1
 12 13  1  0
 12 11  1  0
 13 14  2  0
 13 17  1  0
 15 23  1  0
 15 10  1  0
 16 15  2  0
 19 20  1  0
 19 18  1  0
 20 21  1  0
 22 21  1  6
 22 24  1  0
 22 23  1  0
 24 25  1  0
 26 24  2  0
M  END
$$$$
