LEM.pdb
     RDKit          3D

 26 25  0  0  1  0  0  0  0  0999 V2000
   27.5411  -14.2787  -16.1372 C   0  0  0  0  0  0  0  0  0  0  0  0
   27.1615  -15.6904  -16.5054 C   0  0  1  0  0  0  0  0  0  0  0  0
   28.1540  -16.1967  -17.5325 C   0  0  0  0  0  0  0  0  0  0  0  0
   27.1999  -16.5833  -15.3005 C   0  0  0  0  0  0  0  0  0  0  0  0
   26.9116  -18.0253  -15.6089 C   0  0  2  0  0  0  0  0  0  0  0  0
   26.1734  -18.1264  -16.8328 N   0  0  0  0  0  0  0  0  0  0  0  0
   26.1222  -18.5954  -14.5085 C   0  0  0  0  0  0  0  0  0  0  0  0
   25.2629  -17.8495  -13.9322 O   0  0  0  0  0  0  0  0  0  0  0  0
   26.2460  -19.9430  -14.0267 N   0  0  0  0  0  0  0  0  0  0  0  0
   25.3897  -20.4142  -12.9926 C   0  0  1  0  0  0  0  0  0  0  0  0
   24.5446  -21.5503  -13.4259 C   0  0  0  0  0  0  0  0  0  0  0  0
   23.5149  -22.0754  -12.5128 C   0  0  0  0  0  0  0  0  0  0  0  0
   22.1126  -21.7595  -12.8444 C   0  0  0  0  0  0  0  0  0  0  0  0
   21.6316  -21.8804  -14.0189 O   0  0  0  0  0  0  0  0  0  0  0  0
   26.1035  -20.6610  -11.7126 C   0  0  0  0  0  0  0  0  0  0  0  0
   27.1114  -21.4118  -11.6589 O   0  0  0  0  0  0  0  0  0  0  0  0
   21.2319  -21.3063  -11.8730 O   0  0  0  0  0  0  0  0  0  0  0  0
   30.0431  -19.2232   -7.0060 C   0  0  0  0  0  0  0  0  0  0  0  0
   28.3755  -18.9376   -6.3301 S   0  0  0  0  0  0  0  0  0  0  0  0
   27.2104  -20.1889   -7.0114 C   0  0  0  0  0  0  0  0  0  0  0  0
   26.8877  -19.7365   -8.3994 C   0  0  0  0  0  0  0  0  0  0  0  0
   26.0588  -20.6700   -9.2151 C   0  0  2  0  0  0  0  0  0  0  0  0
   25.6789  -20.0601  -10.4951 N   0  0  0  0  0  0  0  0  0  0  0  0
   24.8268  -21.0311   -8.5020 C   0  0  0  0  0  0  0  0  0  0  0  0
   24.9140  -21.8636   -7.3693 O   0  0  0  0  0  0  0  0  0  0  0  0
   23.6695  -20.6503   -8.8246 O   0  0  0  0  0  0  0  0  0  0  0  0
  2  1  1  1
  2  3  1  0
  4  5  1  0
  4  2  1  0
  5  6  1  6
  7  8  2  0
  7  5  1  0
  9  7  1  0
 10  9  1  0
 10 11  1  6
 12 13  1  0
 12 11  1  0
 13 14  2  0
 13 17  1  0
 15 23  1  0
 15 10  1  0
 16 15  2  0
 19 20  1  0
 19 18  1  0
 20 21  1  0
 22 21  1  1
 22 24  1  0
 22 23  1  0
 24 25  1  0
 26 24  2  0
M  END
$$$$
