LEM.pdb
     RDKit          3D

 26 25  0  0  1  0  0  0  0  0999 V2000
   28.3665  -15.9508  -18.6436 C   0  0  0  0  0  0  0  0  0  0  0  0
   28.2931  -17.3661  -18.1298 C   0  0  1  0  0  0  0  0  0  0  0  0
   29.5768  -18.0764  -18.5091 C   0  0  0  0  0  0  0  0  0  0  0  0
   28.1425  -17.3833  -16.6373 C   0  0  0  0  0  0  0  0  0  0  0  0
   28.1813  -18.7627  -16.0429 C   0  0  2  0  0  0  0  0  0  0  0  0
   27.7831  -19.7297  -17.0225 N   0  0  0  0  0  0  0  0  0  0  0  0
   27.2598  -18.8110  -14.8996 C   0  0  0  0  0  0  0  0  0  0  0  0
   27.4669  -18.0169  -13.9230 O   0  0  0  0  0  0  0  0  0  0  0  0
   26.1315  -19.6940  -14.7961 N   0  0  0  0  0  0  0  0  0  0  0  0
   25.2689  -19.6229  -13.6667 C   0  0  1  0  0  0  0  0  0  0  0  0
   23.8682  -19.9720  -13.9964 C   0  0  0  0  0  0  0  0  0  0  0  0
   22.8527  -19.9737  -12.9295 C   0  0  0  0  0  0  0  0  0  0  0  0
   21.5064  -20.4515  -13.2974 C   0  0  0  0  0  0  0  0  0  0  0  0
   20.8829  -20.0445  -14.3322 O   0  0  0  0  0  0  0  0  0  0  0  0
   25.7979  -20.3498  -12.4832 C   0  0  0  0  0  0  0  0  0  0  0  0
   26.2409  -21.5231  -12.5794 O   0  0  0  0  0  0  0  0  0  0  0  0
   20.8408  -21.3865  -12.5180 O   0  0  0  0  0  0  0  0  0  0  0  0
   29.9020  -18.9288   -7.5123 C   0  0  0  0  0  0  0  0  0  0  0  0
   28.2617  -19.1894   -6.7635 S   0  0  0  0  0  0  0  0  0  0  0  0
   27.3200  -20.4228   -7.7530 C   0  0  0  0  0  0  0  0  0  0  0  0
   26.9368  -19.7268   -9.0195 C   0  0  0  0  0  0  0  0  0  0  0  0
   26.2183  -20.5560  -10.0296 C   0  0  2  0  0  0  0  0  0  0  0  0
   25.8260  -19.7513  -11.1929 N   0  0  0  0  0  0  0  0  0  0  0  0
   25.0013  -21.1412   -9.4523 C   0  0  0  0  0  0  0  0  0  0  0  0
   25.1036  -22.3365   -8.7144 O   0  0  0  0  0  0  0  0  0  0  0  0
   23.8446  -20.6533   -9.5632 O   0  0  0  0  0  0  0  0  0  0  0  0
  2  1  1  1
  2  3  1  0
  4  5  1  0
  4  2  1  0
  5  6  1  6
  7  8  2  0
  7  5  1  0
  9  7  1  0
 10  9  1  0
 10 11  1  6
 12 13  1  0
 12 11  1  0
 13 14  2  0
 13 17  1  0
 15 23  1  0
 15 10  1  0
 16 15  2  0
 19 20  1  0
 19 18  1  0
 20 21  1  0
 22 21  1  1
 22 24  1  0
 22 23  1  0
 24 25  1  0
 26 24  2  0
M  END
$$$$
