LEM.pdb
     RDKit          3D

 26 25  0  0  1  0  0  0  0  0999 V2000
   28.2224  -10.3215  -16.9153 C   0  0  0  0  0  0  0  0  0  0  0  0
   26.9494  -10.9236  -16.3773 C   0  0  1  0  0  0  0  0  0  0  0  0
   26.9126  -10.6967  -14.8794 C   0  0  0  0  0  0  0  0  0  0  0  0
   25.7490  -10.2777  -17.0035 C   0  0  0  0  0  0  0  0  0  0  0  0
   24.4410  -10.7996  -16.4797 C   0  0  2  0  0  0  0  0  0  0  0  0
   24.2314  -12.1419  -16.9355 N   0  0  0  0  0  0  0  0  0  0  0  0
   23.3573   -9.9374  -16.9706 C   0  0  0  0  0  0  0  0  0  0  0  0
   23.0460  -10.0027  -18.2058 O   0  0  0  0  0  0  0  0  0  0  0  0
   22.6138   -9.0162  -16.1569 N   0  0  0  0  0  0  0  0  0  0  0  0
   21.5750   -8.2318  -16.7316 C   0  0  1  0  0  0  0  0  0  0  0  0
   20.2645   -8.4558  -16.0796 C   0  0  0  0  0  0  0  0  0  0  0  0
   19.6254   -9.7794  -16.1761 C   0  0  0  0  0  0  0  0  0  0  0  0
   18.2914   -9.9169  -15.5616 C   0  0  0  0  0  0  0  0  0  0  0  0
   18.0797   -9.7530  -14.3151 O   0  0  0  0  0  0  0  0  0  0  0  0
   21.9340   -6.7956  -16.8622 C   0  0  0  0  0  0  0  0  0  0  0  0
   22.5697   -6.1945  -15.9584 O   0  0  0  0  0  0  0  0  0  0  0  0
   17.1800  -10.2379  -16.3275 O   0  0  0  0  0  0  0  0  0  0  0  0
   23.2396   -1.0396  -22.1304 C   0  0  0  0  0  0  0  0  0  0  0  0
   22.4453   -2.6127  -21.6682 S   0  0  0  0  0  0  0  0  0  0  0  0
   22.5430   -2.8414  -19.8445 C   0  0  0  0  0  0  0  0  0  0  0  0
   22.0630   -4.2322  -19.5789 C   0  0  0  0  0  0  0  0  0  0  0  0
   22.0520   -4.6583  -18.1498 C   0  0  2  0  0  0  0  0  0  0  0  0
   21.5751   -6.0398  -18.0128 N   0  0  0  0  0  0  0  0  0  0  0  0
   21.1700   -3.7936  -17.3554 C   0  0  0  0  0  0  0  0  0  0  0  0
   19.8800   -4.2537  -17.0268 O   0  0  0  0  0  0  0  0  0  0  0  0
   21.4762   -2.6468  -16.9317 O   0  0  0  0  0  0  0  0  0  0  0  0
  2  1  1  6
  2  3  1  0
  4  5  1  0
  4  2  1  0
  5  6  1  6
  7  8  2  0
  7  5  1  0
  9  7  1  0
 10  9  1  0
 10 11  1  1
 12 13  1  0
 12 11  1  0
 13 14  2  0
 13 17  1  0
 15 23  1  0
 15 10  1  0
 16 15  2  0
 19 20  1  0
 19 18  1  0
 20 21  1  0
 22 21  1  6
 22 24  1  0
 22 23  1  0
 24 25  1  0
 26 24  2  0
M  END
$$$$
