ASN.pdb
     RDKit          3D

 20 19  0  0  1  0  0  0  0  0999 V2000
   12.0759  -20.0862   18.1222 C   0  0  0  0  0  0  0  0  0  0  0  0
   11.8971  -18.6437   17.6687 C   0  0  2  0  0  0  0  0  0  0  0  0
   12.9431  -18.2966   16.7422 N   0  0  0  0  0  0  0  0  0  0  0  0
   11.9671  -17.8273   18.9103 C   0  0  0  0  0  0  0  0  0  0  0  0
   13.0759  -17.4277   19.3196 O   0  0  0  0  0  0  0  0  0  0  0  0
    8.5190  -17.1938   21.3980 O   0  0  0  0  0  0  0  0  0  0  0  0
    9.3694  -16.1487   21.0855 C   0  0  0  0  0  0  0  0  0  0  0  0
   10.7521  -16.6566   20.7867 C   0  0  2  0  0  0  0  0  0  0  0  0
   10.8085  -17.5032   19.6221 N   0  0  0  0  0  0  0  0  0  0  0  0
   11.3944  -17.2597   21.9664 C   0  0  0  0  0  0  0  0  0  0  0  0
   11.2559  -18.4987   22.1409 O   0  0  0  0  0  0  0  0  0  0  0  0
   15.1215  -17.4470   22.6223 N   0  0  0  0  0  0  0  0  0  0  0  0
   15.0778  -16.3986   23.5727 C   0  0  0  0  0  0  0  0  0  0  0  0
   15.9391  -15.4969   23.5905 O   0  0  0  0  0  0  0  0  0  0  0  0
   13.9735  -16.4052   24.5497 C   0  0  0  0  0  0  0  0  0  0  0  0
   12.7645  -17.1726   24.0990 C   0  0  2  0  0  0  0  0  0  0  0  0
   12.1515  -16.5590   22.9161 N   0  0  0  0  0  0  0  0  0  0  0  0
   11.7898  -17.2428   25.2114 C   0  0  0  0  0  0  0  0  0  0  0  0
   12.0365  -17.9530   26.3639 O   0  0  0  0  0  0  0  0  0  0  0  0
   10.7078  -16.6300   25.0879 O   0  0  0  0  0  0  0  0  0  0  0  0
  2  1  1  1
  2  4  1  0
  2  3  1  0
  4  5  2  0
  8  7  1  1
  7  6  1  0
  9  4  1  0
  9  8  1  0
 10  8  1  0
 10 11  2  0
 12 13  1  0
 13 15  1  0
 13 14  2  0
 16 15  1  1
 16 17  1  0
 16 18  1  0
 17 10  1  0
 18 19  1  0
 20 18  2  0
M  END
$$$$
