ASN.pdb
     RDKit          3D

 20 19  0  0  1  0  0  0  0  0999 V2000
    7.4371  -20.2547   13.9658 C   0  0  0  0  0  0  0  0  0  0  0  0
    7.2525  -18.7675   14.2353 C   0  0  2  0  0  0  0  0  0  0  0  0
    7.8172  -18.0075   13.1506 N   0  0  0  0  0  0  0  0  0  0  0  0
    7.9602  -18.5073   15.5177 C   0  0  0  0  0  0  0  0  0  0  0  0
    9.2039  -18.4097   15.5228 O   0  0  0  0  0  0  0  0  0  0  0  0
    6.0030  -18.7801   19.3545 O   0  0  0  0  0  0  0  0  0  0  0  0
    6.8107  -17.7023   19.0394 C   0  0  0  0  0  0  0  0  0  0  0  0
    7.8291  -18.0837   18.0019 C   0  0  2  0  0  0  0  0  0  0  0  0
    7.2501  -18.3709   16.7141 N   0  0  0  0  0  0  0  0  0  0  0  0
    8.7377  -19.1428   18.4717 C   0  0  0  0  0  0  0  0  0  0  0  0
    8.8172  -20.1950   17.7853 O   0  0  0  0  0  0  0  0  0  0  0  0
   13.7450  -20.5235   17.8835 N   0  0  0  0  0  0  0  0  0  0  0  0
   12.3432  -20.3258   17.8981 C   0  0  0  0  0  0  0  0  0  0  0  0
   11.5775  -21.0265   17.2067 O   0  0  0  0  0  0  0  0  0  0  0  0
   11.8111  -19.2567   18.7630 C   0  0  0  0  0  0  0  0  0  0  0  0
   10.8236  -19.7352   19.7873 C   0  0  2  0  0  0  0  0  0  0  0  0
    9.5251  -19.0715   19.6298 N   0  0  0  0  0  0  0  0  0  0  0  0
   11.3702  -19.4916   21.1417 C   0  0  0  0  0  0  0  0  0  0  0  0
   11.5429  -18.2247   21.6500 O   0  0  0  0  0  0  0  0  0  0  0  0
   11.6817  -20.4805   21.8393 O   0  0  0  0  0  0  0  0  0  0  0  0
  2  1  1  6
  2  4  1  0
  2  3  1  0
  4  5  2  0
  8  7  1  1
  7  6  1  0
  9  4  1  0
  9  8  1  0
 10  8  1  0
 10 11  2  0
 12 13  1  0
 13 15  1  0
 13 14  2  0
 16 15  1  6
 16 17  1  0
 16 18  1  0
 17 10  1  0
 18 19  1  0
 20 18  2  0
M  END
$$$$
