ASN.pdb
     RDKit          3D

 20 19  0  0  1  0  0  0  0  0999 V2000
   -1.1531  -26.5727   29.7700 C   0  0  0  0  0  0  0  0  0  0  0  0
   -2.6019  -26.7532   29.3382 C   0  0  2  0  0  0  0  0  0  0  0  0
   -2.6507  -27.0669   27.9338 N   0  0  0  0  0  0  0  0  0  0  0  0
   -3.2680  -25.4570   29.6370 C   0  0  0  0  0  0  0  0  0  0  0  0
   -3.3829  -25.0858   30.8225 O   0  0  0  0  0  0  0  0  0  0  0  0
   -4.9514  -21.2464   27.9687 O   0  0  0  0  0  0  0  0  0  0  0  0
   -4.2666  -22.4194   27.7073 C   0  0  0  0  0  0  0  0  0  0  0  0
   -4.5154  -23.4348   28.7872 C   0  0  2  0  0  0  0  0  0  0  0  0
   -3.7654  -24.6520   28.6081 N   0  0  0  0  0  0  0  0  0  0  0  0
   -5.9509  -23.6730   29.0120 C   0  0  0  0  0  0  0  0  0  0  0  0
   -6.5241  -24.5291   28.2886 O   0  0  0  0  0  0  0  0  0  0  0  0
  -10.0190  -25.0999   32.9933 N   0  0  0  0  0  0  0  0  0  0  0  0
   -9.7395  -24.4515   31.7662 C   0  0  0  0  0  0  0  0  0  0  0  0
  -10.6413  -24.1899   30.9454 O   0  0  0  0  0  0  0  0  0  0  0  0
   -8.3374  -24.0917   31.4853 C   0  0  0  0  0  0  0  0  0  0  0  0
   -8.1508  -23.3062   30.2198 C   0  0  2  0  0  0  0  0  0  0  0  0
   -6.7340  -23.0177   29.9730 N   0  0  0  0  0  0  0  0  0  0  0  0
   -8.9289  -22.0494   30.3076 C   0  0  0  0  0  0  0  0  0  0  0  0
  -10.2664  -21.9868   29.9903 O   0  0  0  0  0  0  0  0  0  0  0  0
   -8.3387  -21.0148   30.6856 O   0  0  0  0  0  0  0  0  0  0  0  0
  2  1  1  6
  2  4  1  0
  2  3  1  0
  4  5  2  0
  8  7  1  6
  7  6  1  0
  9  4  1  0
  9  8  1  0
 10  8  1  0
 10 11  2  0
 12 13  1  0
 13 15  1  0
 13 14  2  0
 16 15  1  1
 16 17  1  0
 16 18  1  0
 17 10  1  0
 18 19  1  0
 20 18  2  0
M  END
$$$$
