ASN.pdb
     RDKit          3D

 20 19  0  0  1  0  0  0  0  0999 V2000
    6.6240  -14.3375   18.9633 C   0  0  0  0  0  0  0  0  0  0  0  0
    6.8423  -15.5821   19.8127 C   0  0  2  0  0  0  0  0  0  0  0  0
    5.6557  -15.8555   20.5810 N   0  0  0  0  0  0  0  0  0  0  0  0
    8.0041  -15.2657   20.6865 C   0  0  0  0  0  0  0  0  0  0  0  0
    9.1195  -15.0527   20.1700 O   0  0  0  0  0  0  0  0  0  0  0  0
    7.4793  -14.7824   24.9136 O   0  0  0  0  0  0  0  0  0  0  0  0
    8.3910  -14.0458   24.1791 C   0  0  0  0  0  0  0  0  0  0  0  0
    8.8979  -14.8391   23.0074 C   0  0  2  0  0  0  0  0  0  0  0  0
    7.8612  -15.2044   22.0757 N   0  0  0  0  0  0  0  0  0  0  0  0
    9.7261  -15.9836   23.4222 C   0  0  0  0  0  0  0  0  0  0  0  0
    9.1442  -17.0751   23.6561 O   0  0  0  0  0  0  0  0  0  0  0  0
   14.0724  -16.0284   21.3982 N   0  0  0  0  0  0  0  0  0  0  0  0
   13.4219  -17.0928   22.0677 C   0  0  0  0  0  0  0  0  0  0  0  0
   12.9434  -18.0612   21.4443 O   0  0  0  0  0  0  0  0  0  0  0  0
   13.3261  -17.0210   23.5373 C   0  0  0  0  0  0  0  0  0  0  0  0
   11.9206  -17.0831   24.0610 C   0  0  2  0  0  0  0  0  0  0  0  0
   11.1193  -15.9533   23.5784 N   0  0  0  0  0  0  0  0  0  0  0  0
   11.9530  -17.1018   25.5413 C   0  0  0  0  0  0  0  0  0  0  0  0
   12.4717  -18.1585   26.2539 O   0  0  0  0  0  0  0  0  0  0  0  0
   11.4904  -16.1162   26.1545 O   0  0  0  0  0  0  0  0  0  0  0  0
  2  1  1  6
  2  4  1  0
  2  3  1  0
  4  5  2  0
  8  7  1  1
  7  6  1  0
  9  4  1  0
  9  8  1  0
 10  8  1  0
 10 11  2  0
 12 13  1  0
 13 15  1  0
 13 14  2  0
 16 15  1  6
 16 17  1  0
 16 18  1  0
 17 10  1  0
 18 19  1  0
 20 18  2  0
M  END
$$$$
