ASN.pdb
     RDKit          3D

 20 19  0  0  1  0  0  0  0  0999 V2000
    7.4367  -18.8945   18.1218 C   0  0  0  0  0  0  0  0  0  0  0  0
    7.6070  -17.4454   17.6868 C   0  0  2  0  0  0  0  0  0  0  0  0
    8.3160  -17.3982   16.4345 N   0  0  0  0  0  0  0  0  0  0  0  0
    8.3754  -16.7920   18.7803 C   0  0  0  0  0  0  0  0  0  0  0  0
    9.6223  -16.8286   18.7599 O   0  0  0  0  0  0  0  0  0  0  0  0
    6.5876  -15.6237   22.5517 O   0  0  0  0  0  0  0  0  0  0  0  0
    7.4106  -14.7661   21.8443 C   0  0  0  0  0  0  0  0  0  0  0  0
    8.3591  -15.5370   20.9694 C   0  0  2  0  0  0  0  0  0  0  0  0
    7.7189  -16.1392   19.8276 N   0  0  0  0  0  0  0  0  0  0  0  0
    9.1796  -16.4894   21.7359 C   0  0  0  0  0  0  0  0  0  0  0  0
    9.3070  -17.6552   21.2784 O   0  0  0  0  0  0  0  0  0  0  0  0
   13.7630  -17.9348   23.1202 N   0  0  0  0  0  0  0  0  0  0  0  0
   13.5765  -16.6274   22.6102 C   0  0  0  0  0  0  0  0  0  0  0  0
   14.5378  -15.8540   22.4282 O   0  0  0  0  0  0  0  0  0  0  0  0
   12.1991  -16.2038   22.2981 C   0  0  0  0  0  0  0  0  0  0  0  0
   11.1758  -16.6768   23.2893 C   0  0  2  0  0  0  0  0  0  0  0  0
    9.8333  -16.1988   22.9420 N   0  0  0  0  0  0  0  0  0  0  0  0
   11.5580  -16.2130   24.6425 C   0  0  0  0  0  0  0  0  0  0  0  0
   10.7845  -15.3351   25.3668 O   0  0  0  0  0  0  0  0  0  0  0  0
   12.6236  -16.6419   25.1346 O   0  0  0  0  0  0  0  0  0  0  0  0
  2  1  1  1
  2  4  1  0
  2  3  1  0
  4  5  2  0
  8  7  1  1
  7  6  1  0
  9  4  1  0
  9  8  1  0
 10  8  1  0
 10 11  2  0
 12 13  1  0
 13 15  1  0
 13 14  2  0
 16 15  1  6
 16 17  1  0
 16 18  1  0
 17 10  1  0
 18 19  1  0
 20 18  2  0
M  END
$$$$
