ASN.pdb
     RDKit          3D

 20 19  0  0  1  0  0  0  0  0999 V2000
    6.1602  -18.6728   18.9046 C   0  0  0  0  0  0  0  0  0  0  0  0
    6.5001  -17.3124   18.3114 C   0  0  2  0  0  0  0  0  0  0  0  0
    6.9352  -17.4759   16.9487 N   0  0  0  0  0  0  0  0  0  0  0  0
    7.5816  -16.7642   19.1734 C   0  0  0  0  0  0  0  0  0  0  0  0
    8.7635  -17.1052   18.9655 O   0  0  0  0  0  0  0  0  0  0  0  0
    6.7086  -14.5881   22.7397 O   0  0  0  0  0  0  0  0  0  0  0  0
    7.6860  -14.1147   21.8831 C   0  0  0  0  0  0  0  0  0  0  0  0
    8.2618  -15.2329   21.0602 C   0  0  2  0  0  0  0  0  0  0  0  0
    7.2902  -15.8737   20.2108 N   0  0  0  0  0  0  0  0  0  0  0  0
    9.0316  -16.1883   21.8742 C   0  0  0  0  0  0  0  0  0  0  0  0
    8.4367  -17.2162   22.2919 O   0  0  0  0  0  0  0  0  0  0  0  0
   11.3231  -18.6315   20.8870 N   0  0  0  0  0  0  0  0  0  0  0  0
   12.5473  -18.0951   21.3538 C   0  0  0  0  0  0  0  0  0  0  0  0
   13.6286  -18.3433   20.7842 O   0  0  0  0  0  0  0  0  0  0  0  0
   12.5048  -17.2263   22.5445 C   0  0  0  0  0  0  0  0  0  0  0  0
   11.1210  -16.9823   23.0727 C   0  0  2  0  0  0  0  0  0  0  0  0
   10.3818  -16.0426   22.2231 N   0  0  0  0  0  0  0  0  0  0  0  0
   11.2125  -16.4680   24.4583 C   0  0  0  0  0  0  0  0  0  0  0  0
   11.3530  -17.2996   25.5455 O   0  0  0  0  0  0  0  0  0  0  0  0
   11.1600  -15.2318   24.6338 O   0  0  0  0  0  0  0  0  0  0  0  0
  2  1  1  1
  2  4  1  0
  2  3  1  0
  4  5  2  0
  8  7  1  1
  7  6  1  0
  9  4  1  0
  9  8  1  0
 10  8  1  0
 10 11  2  0
 12 13  1  0
 13 15  1  0
 13 14  2  0
 16 15  1  6
 16 17  1  0
 16 18  1  0
 17 10  1  0
 18 19  1  0
 20 18  2  0
M  END
$$$$
