ASN.pdb
     RDKit          3D

 20 19  0  0  1  0  0  0  0  0999 V2000
    9.3156  -18.8578   18.5257 C   0  0  0  0  0  0  0  0  0  0  0  0
    9.6171  -17.4203   18.1248 C   0  0  2  0  0  0  0  0  0  0  0  0
   10.5269  -17.4119   17.0089 N   0  0  0  0  0  0  0  0  0  0  0  0
   10.2185  -16.7911   19.3312 C   0  0  0  0  0  0  0  0  0  0  0  0
   11.4488  -16.8784   19.5193 O   0  0  0  0  0  0  0  0  0  0  0  0
    7.8183  -15.1653   22.5613 O   0  0  0  0  0  0  0  0  0  0  0  0
    8.9120  -14.4962   22.0422 C   0  0  0  0  0  0  0  0  0  0  0  0
    9.8999  -15.4640   21.4537 C   0  0  2  0  0  0  0  0  0  0  0  0
    9.4240  -16.1049   20.2541 N   0  0  0  0  0  0  0  0  0  0  0  0
   10.4103  -16.4193   22.4510 C   0  0  0  0  0  0  0  0  0  0  0  0
    9.9647  -17.5962   22.4182 O   0  0  0  0  0  0  0  0  0  0  0  0
   14.5681  -18.9114   25.1001 N   0  0  0  0  0  0  0  0  0  0  0  0
   13.9114  -17.7947   25.6711 C   0  0  0  0  0  0  0  0  0  0  0  0
   13.8385  -17.6411   26.9066 O   0  0  0  0  0  0  0  0  0  0  0  0
   13.3107  -16.8099   24.7526 C   0  0  0  0  0  0  0  0  0  0  0  0
   11.8774  -17.0925   24.4073 C   0  0  2  0  0  0  0  0  0  0  0  0
   11.3582  -16.1199   23.4400 N   0  0  0  0  0  0  0  0  0  0  0  0
   11.0660  -17.0769   25.6458 C   0  0  0  0  0  0  0  0  0  0  0  0
   10.2569  -16.0164   25.9837 O   0  0  0  0  0  0  0  0  0  0  0  0
   11.1259  -18.0689   26.4034 O   0  0  0  0  0  0  0  0  0  0  0  0
  2  1  1  1
  2  4  1  0
  2  3  1  0
  4  5  2  0
  8  7  1  1
  7  6  1  0
  9  4  1  0
  9  8  1  0
 10  8  1  0
 10 11  2  0
 12 13  1  0
 13 15  1  0
 13 14  2  0
 16 15  1  1
 16 17  1  0
 16 18  1  0
 17 10  1  0
 18 19  1  0
 20 18  2  0
M  END
$$$$
