ASN.pdb
     RDKit          3D

 20 19  0  0  1  0  0  0  0  0999 V2000
    8.0519  -15.2664   16.6494 C   0  0  0  0  0  0  0  0  0  0  0  0
    7.5982  -14.0071   17.3750 C   0  0  2  0  0  0  0  0  0  0  0  0
    7.8749  -12.8541   16.5582 N   0  0  0  0  0  0  0  0  0  0  0  0
    8.3727  -13.9817   18.6449 C   0  0  0  0  0  0  0  0  0  0  0  0
    9.5285  -13.5122   18.6488 O   0  0  0  0  0  0  0  0  0  0  0  0
    7.2292  -16.4565   21.9759 O   0  0  0  0  0  0  0  0  0  0  0  0
    7.6665  -15.1614   22.1875 C   0  0  0  0  0  0  0  0  0  0  0  0
    8.5445  -14.7030   21.0569 C   0  0  2  0  0  0  0  0  0  0  0  0
    7.8223  -14.4763   19.8309 N   0  0  0  0  0  0  0  0  0  0  0  0
    9.7232  -15.5670   20.8774 C   0  0  0  0  0  0  0  0  0  0  0  0
    9.8207  -16.2101   19.7996 O   0  0  0  0  0  0  0  0  0  0  0  0
   15.1329  -14.3453   20.7465 N   0  0  0  0  0  0  0  0  0  0  0  0
   14.1339  -15.1952   20.2135 C   0  0  0  0  0  0  0  0  0  0  0  0
   14.4163  -16.1252   19.4321 O   0  0  0  0  0  0  0  0  0  0  0  0
   12.7370  -14.9452   20.6137 C   0  0  0  0  0  0  0  0  0  0  0  0
   12.1457  -16.0251   21.4726 C   0  0  2  0  0  0  0  0  0  0  0  0
   10.7507  -15.7310   21.8174 N   0  0  0  0  0  0  0  0  0  0  0  0
   12.9629  -16.1745   22.6983 C   0  0  0  0  0  0  0  0  0  0  0  0
   14.1322  -16.8997   22.7208 O   0  0  0  0  0  0  0  0  0  0  0  0
   12.5666  -15.6166   23.7438 O   0  0  0  0  0  0  0  0  0  0  0  0
  2  1  1  6
  2  4  1  0
  2  3  1  0
  4  5  2  0
  8  7  1  1
  7  6  1  0
  9  4  1  0
  9  8  1  0
 10  8  1  0
 10 11  2  0
 12 13  1  0
 13 15  1  0
 13 14  2  0
 16 15  1  6
 16 17  1  0
 16 18  1  0
 17 10  1  0
 18 19  1  0
 20 18  2  0
M  END
$$$$
