WRF.pdb
     RDKit          3D

 37 39  0  0  1  0  0  0  0  0999 V2000
   26.7319  -22.1655  -10.1618 N   0  0  0  0  0  0  0  0  0  0  0  0
   26.7099  -20.8746  -10.7376 C   0  0  1  0  0  0  0  0  0  0  0  0
   26.9375  -19.7211   -9.7939 C   0  0  0  0  0  0  0  0  0  0  0  0
   26.5369  -20.0952   -8.4243 C   0  0  0  0  0  0  0  0  0  0  0  0
   25.2937  -20.6055   -8.0579 C   0  0  0  0  0  0  0  0  0  0  0  0
   25.2823  -20.8537   -6.7427 N   0  0  0  0  0  0  0  0  0  0  0  0
   26.4700  -20.5280   -6.2172 C   0  0  0  0  0  0  0  0  0  0  0  0
   26.9593  -20.5878   -4.9180 C   0  0  0  0  0  0  0  0  0  0  0  0
   28.2424  -20.1636   -4.6991 C   0  0  0  0  0  0  0  0  0  0  0  0
   29.0507  -19.6847   -5.7217 C   0  0  0  0  0  0  0  0  0  0  0  0
   28.5571  -19.6300   -7.0024 C   0  0  0  0  0  0  0  0  0  0  0  0
   27.2686  -20.0500   -7.2594 C   0  0  0  0  0  0  0  0  0  0  0  0
   27.6344  -20.7406  -11.9024 C   0  0  0  0  0  0  0  0  0  0  0  0
   28.8651  -21.0232  -11.7306 O   0  0  0  0  0  0  0  0  0  0  0  0
   30.2589  -25.7171  -16.0768 N   0  0  0  0  0  0  0  0  0  0  0  0
   31.0620  -24.6730  -16.5875 C   0  0  0  0  0  0  0  0  0  0  0  0
   32.1287  -24.9703  -17.2683 N   0  0  0  0  0  0  0  0  0  0  0  0
   30.7094  -23.3254  -16.3618 N   0  0  0  0  0  0  0  0  0  0  0  0
   29.9135  -22.9590  -15.2225 C   0  0  0  0  0  0  0  0  0  0  0  0
   28.4980  -22.7411  -15.6661 C   0  0  0  0  0  0  0  0  0  0  0  0
   27.6395  -22.2710  -14.5268 C   0  0  0  0  0  0  0  0  0  0  0  0
   27.6081  -20.7922  -14.3724 C   0  0  2  0  0  0  0  0  0  0  0  0
   27.0912  -20.3088  -13.1295 N   0  0  0  0  0  0  0  0  0  0  0  0
   26.8002  -20.1605  -15.4832 C   0  0  0  0  0  0  0  0  0  0  0  0
   25.5624  -20.2933  -15.5942 O   0  0  0  0  0  0  0  0  0  0  0  0
   32.8055  -24.2495  -17.5523 N   0  0  0  0  0  0  0  0  0  0  0  0
   27.4350  -19.3595  -16.4858 C   0  0  2  0  0  0  0  0  0  0  0  0
   26.7102  -18.7335  -17.5727 C   0  0  0  0  0  0  0  0  0  0  0  0
   26.9717  -17.2508  -17.6454 C   0  0  0  0  0  0  0  0  0  0  0  0
   26.6453  -16.5415  -16.4090 C   0  0  0  0  0  0  0  0  0  0  0  0
   27.5003  -15.7952  -15.6539 C   0  0  0  0  0  0  0  0  0  0  0  0
   27.1279  -15.1540  -14.5005 C   0  0  0  0  0  0  0  0  0  0  0  0
   25.8035  -15.2738  -14.0806 C   0  0  0  0  0  0  0  0  0  0  0  0
   24.9125  -16.0112  -14.8057 C   0  0  0  0  0  0  0  0  0  0  0  0
   25.3271  -16.6335  -15.9493 C   0  0  0  0  0  0  0  0  0  0  0  0
   26.9466  -19.4246  -18.8638 O   0  0  0  0  0  0  0  0  0  0  0  0
   27.7017  -20.4150  -18.8825 O   0  0  0  0  0  0  0  0  0  0  0  0
  2 13  1  0
  2  1  1  1
  3  2  1  0
  4  3  1  0
  4  5  2  0
  6  5  1  0
  7 12  2  0
  7  6  1  0
  8  7  1  0
  9 10  1  0
  9  8  2  0
 10 11  2  0
 11 12  1  0
 12  4  1  0
 13 14  2  0
 16 15  1  0
 16 18  1  0
 17 16  2  0
 19 18  1  0
 19 20  1  0
 21 20  1  0
 22 21  1  1
 23 22  1  0
 23 13  1  0
 24 25  2  0
 24 22  1  0
 26 24  1  0
 27 35  1  0
 27 26  1  0
 27 28  1  1
 29 28  1  0
 30 29  2  0
 31 30  1  0
 32 31  2  0
 32 33  1  0
 33 34  2  0
 34 29  1  0
 35 37  1  0
 36 35  2  0
M  END
$$$$
