WRF.pdb
     RDKit          3D

 37 39  0  0  1  0  0  0  0  0999 V2000
   23.7376  -19.8273  -22.7686 N   0  0  0  0  0  0  0  0  0  0  0  0
   24.1856  -19.2187  -21.5740 C   0  0  1  0  0  0  0  0  0  0  0  0
   23.5576  -17.8927  -21.2268 C   0  0  0  0  0  0  0  0  0  0  0  0
   23.8351  -16.9035  -22.2854 C   0  0  0  0  0  0  0  0  0  0  0  0
   23.1747  -16.8242  -23.5092 C   0  0  0  0  0  0  0  0  0  0  0  0
   23.6641  -15.7982  -24.2158 N   0  0  0  0  0  0  0  0  0  0  0  0
   24.6263  -15.1899  -23.5105 C   0  0  0  0  0  0  0  0  0  0  0  0
   25.4370  -14.0977  -23.7942 C   0  0  0  0  0  0  0  0  0  0  0  0
   26.3504  -13.7179  -22.8477 C   0  0  0  0  0  0  0  0  0  0  0  0
   26.4847  -14.3835  -21.6363 C   0  0  0  0  0  0  0  0  0  0  0  0
   25.6781  -15.4620  -21.3661 C   0  0  0  0  0  0  0  0  0  0  0  0
   24.7460  -15.8717  -22.2967 C   0  0  0  0  0  0  0  0  0  0  0  0
   24.0970  -20.1243  -20.3901 C   0  0  0  0  0  0  0  0  0  0  0  0
   23.0839  -20.8912  -20.2925 O   0  0  0  0  0  0  0  0  0  0  0  0
   28.4490  -25.4363  -16.7381 N   0  0  0  0  0  0  0  0  0  0  0  0
   28.7654  -24.3803  -17.6217 C   0  0  0  0  0  0  0  0  0  0  0  0
   29.4415  -24.6394  -18.7011 N   0  0  0  0  0  0  0  0  0  0  0  0
   28.3513  -23.0618  -17.3355 N   0  0  0  0  0  0  0  0  0  0  0  0
   27.6349  -22.7671  -16.1250 C   0  0  0  0  0  0  0  0  0  0  0  0
   26.3202  -22.1382  -16.4770 C   0  0  0  0  0  0  0  0  0  0  0  0
   26.4046  -21.4014  -17.7832 C   0  0  0  0  0  0  0  0  0  0  0  0
   25.0967  -20.8786  -18.2604 C   0  0  2  0  0  0  0  0  0  0  0  0
   25.1427  -20.0797  -19.4458 N   0  0  0  0  0  0  0  0  0  0  0  0
   24.4271  -20.0602  -17.1800 C   0  0  0  0  0  0  0  0  0  0  0  0
   24.9258  -19.0214  -16.6959 O   0  0  0  0  0  0  0  0  0  0  0  0
   29.7863  -23.8890  -19.3146 N   0  0  0  0  0  0  0  0  0  0  0  0
   23.1562  -20.4495  -16.6482 C   0  0  1  0  0  0  0  0  0  0  0  0
   22.3870  -19.6145  -15.7483 C   0  0  0  0  0  0  0  0  0  0  0  0
   21.5091  -18.6415  -16.4930 C   0  0  0  0  0  0  0  0  0  0  0  0
   20.4768  -19.2901  -17.3004 C   0  0  0  0  0  0  0  0  0  0  0  0
   19.2231  -19.6323  -16.8889 C   0  0  0  0  0  0  0  0  0  0  0  0
   18.3005  -20.2410  -17.7002 C   0  0  0  0  0  0  0  0  0  0  0  0
   18.6674  -20.5237  -19.0156 C   0  0  0  0  0  0  0  0  0  0  0  0
   19.9126  -20.1986  -19.4708 C   0  0  0  0  0  0  0  0  0  0  0  0
   20.8007  -19.5927  -18.6274 C   0  0  0  0  0  0  0  0  0  0  0  0
   21.6393  -20.4198  -14.7519 O   0  0  0  0  0  0  0  0  0  0  0  0
   21.6171  -21.6586  -14.8794 O   0  0  0  0  0  0  0  0  0  0  0  0
  2 13  1  0
  2  1  1  6
  3  2  1  0
  4  3  1  0
  4  5  2  0
  6  5  1  0
  7 12  2  0
  7  6  1  0
  8  7  1  0
  9 10  1  0
  9  8  2  0
 10 11  2  0
 11 12  1  0
 12  4  1  0
 13 14  2  0
 16 15  1  0
 16 18  1  0
 17 16  2  0
 19 18  1  0
 19 20  1  0
 21 20  1  0
 22 21  1  1
 23 22  1  0
 23 13  1  0
 24 25  2  0
 24 22  1  0
 26 24  1  0
 27 35  1  0
 27 26  1  0
 27 28  1  6
 29 28  1  0
 30 29  2  0
 31 30  1  0
 32 31  2  0
 32 33  1  0
 33 34  2  0
 34 29  1  0
 35 37  1  0
 36 35  2  0
M  END
$$$$
