WRF.pdb
     RDKit          3D

 37 39  0  0  1  0  0  0  0  0999 V2000
   27.7466  -21.0329  -15.7265 N   0  0  0  0  0  0  0  0  0  0  0  0
   26.9221  -20.2194  -14.9161 C   0  0  1  0  0  0  0  0  0  0  0  0
   25.7633  -19.5480  -15.6085 C   0  0  0  0  0  0  0  0  0  0  0  0
   26.2561  -18.5869  -16.6132 C   0  0  0  0  0  0  0  0  0  0  0  0
   26.2561  -18.7886  -17.9914 C   0  0  0  0  0  0  0  0  0  0  0  0
   26.7529  -17.7061  -18.6019 N   0  0  0  0  0  0  0  0  0  0  0  0
   27.0850  -16.7896  -17.6838 C   0  0  0  0  0  0  0  0  0  0  0  0
   27.6377  -15.5197  -17.7960 C   0  0  0  0  0  0  0  0  0  0  0  0
   27.8706  -14.8208  -16.6420 C   0  0  0  0  0  0  0  0  0  0  0  0
   27.5749  -15.3386  -15.3879 C   0  0  0  0  0  0  0  0  0  0  0  0
   27.0286  -16.5950  -15.2884 C   0  0  0  0  0  0  0  0  0  0  0  0
   26.7797  -17.3271  -16.4306 C   0  0  0  0  0  0  0  0  0  0  0  0
   26.4198  -20.9268  -13.7009 C   0  0  0  0  0  0  0  0  0  0  0  0
   26.0406  -22.1374  -13.8219 O   0  0  0  0  0  0  0  0  0  0  0  0
   27.8241  -19.1618   -5.9576 N   0  0  0  0  0  0  0  0  0  0  0  0
   27.8260  -20.5426   -6.2564 C   0  0  0  0  0  0  0  0  0  0  0  0
   28.7705  -21.2934   -5.7731 N   0  0  0  0  0  0  0  0  0  0  0  0
   26.8145  -21.0985   -7.0684 N   0  0  0  0  0  0  0  0  0  0  0  0
   25.7553  -20.2749   -7.5836 C   0  0  0  0  0  0  0  0  0  0  0  0
   25.3032  -20.8292   -8.9012 C   0  0  0  0  0  0  0  0  0  0  0  0
   26.0334  -20.1795  -10.0417 C   0  0  0  0  0  0  0  0  0  0  0  0
   25.6120  -20.6725  -11.3799 C   0  0  2  0  0  0  0  0  0  0  0  0
   26.3946  -20.2132  -12.4854 N   0  0  0  0  0  0  0  0  0  0  0  0
   24.1714  -20.3028  -11.6512 C   0  0  0  0  0  0  0  0  0  0  0  0
   23.7721  -19.1229  -11.7537 O   0  0  0  0  0  0  0  0  0  0  0  0
   28.7989  -22.3061   -5.9514 N   0  0  0  0  0  0  0  0  0  0  0  0
   23.1723  -21.3162  -11.8072 C   0  0  2  0  0  0  0  0  0  0  0  0
   21.7997  -21.0238  -12.1664 C   0  0  0  0  0  0  0  0  0  0  0  0
   21.4189  -21.6390  -13.4888 C   0  0  0  0  0  0  0  0  0  0  0  0
   21.5873  -20.7310  -14.6225 C   0  0  0  0  0  0  0  0  0  0  0  0
   21.9887  -19.4295  -14.5648 C   0  0  0  0  0  0  0  0  0  0  0  0
   22.1261  -18.6306  -15.6707 C   0  0  0  0  0  0  0  0  0  0  0  0
   21.8394  -19.1820  -16.9191 C   0  0  0  0  0  0  0  0  0  0  0  0
   21.4343  -20.4813  -17.0243 C   0  0  0  0  0  0  0  0  0  0  0  0
   21.3107  -21.2413  -15.8956 C   0  0  0  0  0  0  0  0  0  0  0  0
   20.8574  -21.3731  -11.0754 O   0  0  0  0  0  0  0  0  0  0  0  0
   21.3020  -21.9417  -10.0602 O   0  0  0  0  0  0  0  0  0  0  0  0
  2 13  1  0
  2  1  1  6
  3  2  1  0
  4  3  1  0
  4  5  2  0
  6  5  1  0
  7 12  2  0
  7  6  1  0
  8  7  1  0
  9 10  1  0
  9  8  2  0
 10 11  2  0
 11 12  1  0
 12  4  1  0
 13 14  2  0
 16 15  1  0
 16 18  1  0
 17 16  2  0
 19 18  1  0
 19 20  1  0
 21 20  1  0
 22 21  1  1
 23 22  1  0
 23 13  1  0
 24 25  2  0
 24 22  1  0
 26 24  1  0
 27 35  1  0
 27 26  1  0
 27 28  1  6
 29 28  1  0
 30 29  2  0
 31 30  1  0
 32 31  2  0
 32 33  1  0
 33 34  2  0
 34 29  1  0
 35 37  1  0
 36 35  2  0
M  END
$$$$
