WRF.pdb
     RDKit          3D

 37 39  0  0  1  0  0  0  0  0999 V2000
   22.5323  -15.5452  -17.2512 N   0  0  0  0  0  0  0  0  0  0  0  0
   21.7072  -16.4409  -16.5335 C   0  0  1  0  0  0  0  0  0  0  0  0
   20.2451  -16.4387  -16.9013 C   0  0  0  0  0  0  0  0  0  0  0  0
   19.6329  -15.1425  -16.5534 C   0  0  0  0  0  0  0  0  0  0  0  0
   19.7394  -13.9726  -17.3019 C   0  0  0  0  0  0  0  0  0  0  0  0
   19.0445  -12.9959  -16.7066 N   0  0  0  0  0  0  0  0  0  0  0  0
   18.4787  -13.4689  -15.5889 C   0  0  0  0  0  0  0  0  0  0  0  0
   17.6766  -12.8671  -14.6269 C   0  0  0  0  0  0  0  0  0  0  0  0
   17.2561  -13.6357  -13.5749 C   0  0  0  0  0  0  0  0  0  0  0  0
   17.6041  -14.9740  -13.4473 C   0  0  0  0  0  0  0  0  0  0  0  0
   18.3973  -15.5590  -14.4041 C   0  0  0  0  0  0  0  0  0  0  0  0
   18.8385  -14.8145  -15.4783 C   0  0  0  0  0  0  0  0  0  0  0  0
   22.2133  -17.8455  -16.5573 C   0  0  0  0  0  0  0  0  0  0  0  0
   22.8119  -18.2526  -17.6060 O   0  0  0  0  0  0  0  0  0  0  0  0
   26.1616  -24.1810  -14.9402 N   0  0  0  0  0  0  0  0  0  0  0  0
   24.9497  -24.2856  -15.6586 C   0  0  0  0  0  0  0  0  0  0  0  0
   24.2390  -25.3682  -15.5466 N   0  0  0  0  0  0  0  0  0  0  0  0
   24.5168  -23.2276  -16.4861 N   0  0  0  0  0  0  0  0  0  0  0  0
   25.0090  -21.8926  -16.2833 C   0  0  0  0  0  0  0  0  0  0  0  0
   24.5641  -21.4080  -14.9361 C   0  0  0  0  0  0  0  0  0  0  0  0
   24.0182  -20.0111  -15.0159 C   0  0  0  0  0  0  0  0  0  0  0  0
   22.5632  -19.9541  -15.3182 C   0  0  2  0  0  0  0  0  0  0  0  0
   22.0001  -18.6429  -15.4145 N   0  0  0  0  0  0  0  0  0  0  0  0
   21.7755  -20.7175  -14.2778 C   0  0  0  0  0  0  0  0  0  0  0  0
   22.1751  -20.8956  -13.1071 O   0  0  0  0  0  0  0  0  0  0  0  0
   23.3825  -25.5106  -16.0983 N   0  0  0  0  0  0  0  0  0  0  0  0
   20.5011  -21.2866  -14.5964 C   0  0  1  0  0  0  0  0  0  0  0  0
   19.6030  -21.8236  -13.5945 C   0  0  0  0  0  0  0  0  0  0  0  0
   18.8753  -20.7353  -12.8473 C   0  0  0  0  0  0  0  0  0  0  0  0
   19.6975  -20.0761  -11.8336 C   0  0  0  0  0  0  0  0  0  0  0  0
   20.0883  -20.6044  -10.6392 C   0  0  0  0  0  0  0  0  0  0  0  0
   20.8621  -19.9294   -9.7306 C   0  0  0  0  0  0  0  0  0  0  0  0
   21.2692  -18.6339  -10.0484 C   0  0  0  0  0  0  0  0  0  0  0  0
   20.9014  -18.0650  -11.2335 C   0  0  0  0  0  0  0  0  0  0  0  0
   20.1293  -18.7743  -12.1096 C   0  0  0  0  0  0  0  0  0  0  0  0
   18.6882  -22.8434  -14.1633 O   0  0  0  0  0  0  0  0  0  0  0  0
   18.6119  -22.9543  -15.4016 O   0  0  0  0  0  0  0  0  0  0  0  0
  2 13  1  0
  2  1  1  6
  3  2  1  0
  4  3  1  0
  4  5  2  0
  6  5  1  0
  7 12  2  0
  7  6  1  0
  8  7  1  0
  9 10  1  0
  9  8  2  0
 10 11  2  0
 11 12  1  0
 12  4  1  0
 13 14  2  0
 16 15  1  0
 16 18  1  0
 17 16  2  0
 19 18  1  0
 19 20  1  0
 21 20  1  0
 22 21  1  1
 23 22  1  0
 23 13  1  0
 24 25  2  0
 24 22  1  0
 26 24  1  0
 27 35  1  0
 27 26  1  0
 27 28  1  1
 29 28  1  0
 30 29  2  0
 31 30  1  0
 32 31  2  0
 32 33  1  0
 33 34  2  0
 34 29  1  0
 35 37  1  0
 36 35  2  0
M  END
$$$$
