WRF.pdb
     RDKit          3D

 37 39  0  0  1  0  0  0  0  0999 V2000
   21.4183  -19.6593  -17.3494 N   0  0  0  0  0  0  0  0  0  0  0  0
   21.8535  -19.4386  -16.0226 C   0  0  1  0  0  0  0  0  0  0  0  0
   20.7712  -19.2830  -14.9847 C   0  0  0  0  0  0  0  0  0  0  0  0
   20.0078  -18.0438  -15.2247 C   0  0  0  0  0  0  0  0  0  0  0  0
   19.6551  -17.5424  -16.4755 C   0  0  0  0  0  0  0  0  0  0  0  0
   18.9491  -16.4156  -16.3228 N   0  0  0  0  0  0  0  0  0  0  0  0
   18.8174  -16.1454  -15.0179 C   0  0  0  0  0  0  0  0  0  0  0  0
   18.1896  -15.1057  -14.3429 C   0  0  0  0  0  0  0  0  0  0  0  0
   18.2411  -15.1099  -12.9748 C   0  0  0  0  0  0  0  0  0  0  0  0
   18.8920  -16.1063  -12.2593 C   0  0  0  0  0  0  0  0  0  0  0  0
   19.5093  -17.1296  -12.9366 C   0  0  0  0  0  0  0  0  0  0  0  0
   19.4766  -17.1576  -14.3153 C   0  0  0  0  0  0  0  0  0  0  0  0
   22.8346  -20.4617  -15.5536 C   0  0  0  0  0  0  0  0  0  0  0  0
   22.4224  -21.6541  -15.3740 O   0  0  0  0  0  0  0  0  0  0  0  0
   29.1614  -22.6560  -18.5089 N   0  0  0  0  0  0  0  0  0  0  0  0
   28.9466  -23.0292  -17.1634 C   0  0  0  0  0  0  0  0  0  0  0  0
   29.9720  -23.2109  -16.3856 N   0  0  0  0  0  0  0  0  0  0  0  0
   27.6353  -23.2012  -16.6709 N   0  0  0  0  0  0  0  0  0  0  0  0
   26.4987  -22.9013  -17.4978 C   0  0  0  0  0  0  0  0  0  0  0  0
   25.8785  -21.6196  -17.0283 C   0  0  0  0  0  0  0  0  0  0  0  0
   26.2675  -21.3174  -15.6094 C   0  0  0  0  0  0  0  0  0  0  0  0
   25.1208  -20.9328  -14.7440 C   0  0  2  0  0  0  0  0  0  0  0  0
   24.1650  -20.0491  -15.3365 N   0  0  0  0  0  0  0  0  0  0  0  0
   25.6129  -20.2891  -13.4676 C   0  0  0  0  0  0  0  0  0  0  0  0
   25.9301  -19.0831  -13.3838 O   0  0  0  0  0  0  0  0  0  0  0  0
   29.8617  -23.5252  -15.4123 N   0  0  0  0  0  0  0  0  0  0  0  0
   25.7410  -21.0538  -12.2641 C   0  0  1  0  0  0  0  0  0  0  0  0
   26.2375  -20.4960  -11.0228 C   0  0  0  0  0  0  0  0  0  0  0  0
   25.3868  -19.3496  -10.5389 C   0  0  0  0  0  0  0  0  0  0  0  0
   24.0199  -19.7426  -10.1995 C   0  0  0  0  0  0  0  0  0  0  0  0
   23.5870  -20.2078   -8.9935 C   0  0  0  0  0  0  0  0  0  0  0  0
   22.2862  -20.5602   -8.7414 C   0  0  0  0  0  0  0  0  0  0  0  0
   21.3593  -20.4348   -9.7758 C   0  0  0  0  0  0  0  0  0  0  0  0
   21.7483  -19.9731  -11.0001 C   0  0  0  0  0  0  0  0  0  0  0  0
   23.0555  -19.6334  -11.2072 C   0  0  0  0  0  0  0  0  0  0  0  0
   26.4383  -21.5412   -9.9895 O   0  0  0  0  0  0  0  0  0  0  0  0
   26.0947  -22.7105  -10.2468 O   0  0  0  0  0  0  0  0  0  0  0  0
  2 13  1  0
  2  1  1  6
  3  2  1  0
  4  3  1  0
  4  5  2  0
  6  5  1  0
  7 12  2  0
  7  6  1  0
  8  7  1  0
  9 10  1  0
  9  8  2  0
 10 11  2  0
 11 12  1  0
 12  4  1  0
 13 14  2  0
 16 15  1  0
 16 18  1  0
 17 16  2  0
 19 18  1  0
 19 20  1  0
 21 20  1  0
 22 21  1  6
 23 22  1  0
 23 13  1  0
 24 25  2  0
 24 22  1  0
 26 24  1  0
 27 35  1  0
 27 26  1  0
 27 28  1  6
 29 28  1  0
 30 29  2  0
 31 30  1  0
 32 31  2  0
 32 33  1  0
 33 34  2  0
 34 29  1  0
 35 37  1  0
 36 35  2  0
M  END
$$$$
