WRF.pdb
     RDKit          3D

 37 39  0  0  1  0  0  0  0  0999 V2000
   26.5048  -22.7245  -11.1387 N   0  0  0  0  0  0  0  0  0  0  0  0
   26.1475  -21.3568  -11.1451 C   0  0  1  0  0  0  0  0  0  0  0  0
   27.2882  -20.3710  -11.1287 C   0  0  0  0  0  0  0  0  0  0  0  0
   28.2195  -20.6859  -10.0289 C   0  0  0  0  0  0  0  0  0  0  0  0
   29.4694  -21.2828  -10.1755 C   0  0  0  0  0  0  0  0  0  0  0  0
   30.0522  -21.4004   -8.9763 N   0  0  0  0  0  0  0  0  0  0  0  0
   29.2388  -20.9053   -8.0349 C   0  0  0  0  0  0  0  0  0  0  0  0
   29.3702  -20.7986   -6.6557 C   0  0  0  0  0  0  0  0  0  0  0  0
   28.3342  -20.2390   -5.9573 C   0  0  0  0  0  0  0  0  0  0  0  0
   27.1787  -19.7849   -6.5796 C   0  0  0  0  0  0  0  0  0  0  0  0
   27.0593  -19.8950   -7.9436 C   0  0  0  0  0  0  0  0  0  0  0  0
   28.0842  -20.4531   -8.6791 C   0  0  0  0  0  0  0  0  0  0  0  0
   25.2146  -21.0036  -12.2561 C   0  0  0  0  0  0  0  0  0  0  0  0
   24.7877  -19.8049  -12.3265 O   0  0  0  0  0  0  0  0  0  0  0  0
   26.9551  -25.7856  -16.6166 N   0  0  0  0  0  0  0  0  0  0  0  0
   25.7614  -25.5333  -17.3288 C   0  0  0  0  0  0  0  0  0  0  0  0
   25.0337  -26.5369  -17.7200 N   0  0  0  0  0  0  0  0  0  0  0  0
   25.3646  -24.2087  -17.6105 N   0  0  0  0  0  0  0  0  0  0  0  0
   26.0953  -23.0958  -17.0690 C   0  0  0  0  0  0  0  0  0  0  0  0
   25.6572  -22.8669  -15.6536 C   0  0  0  0  0  0  0  0  0  0  0  0
   24.4279  -22.0055  -15.5994 C   0  0  0  0  0  0  0  0  0  0  0  0
   23.9250  -21.7672  -14.2203 C   0  0  2  0  0  0  0  0  0  0  0  0
   24.8590  -22.0192  -13.1669 N   0  0  0  0  0  0  0  0  0  0  0  0
   22.6941  -22.6033  -13.9534 C   0  0  0  0  0  0  0  0  0  0  0  0
   22.7347  -23.7425  -13.4409 O   0  0  0  0  0  0  0  0  0  0  0  0
   24.1601  -26.3973  -18.2449 N   0  0  0  0  0  0  0  0  0  0  0  0
   21.3904  -22.1136  -14.2850 C   0  0  1  0  0  0  0  0  0  0  0  0
   20.1735  -22.6635  -13.7235 C   0  0  0  0  0  0  0  0  0  0  0  0
   20.2086  -22.6896  -12.2168 C   0  0  0  0  0  0  0  0  0  0  0  0
   20.2540  -21.3585  -11.6131 C   0  0  0  0  0  0  0  0  0  0  0  0
   19.2380  -20.4502  -11.5783 C   0  0  0  0  0  0  0  0  0  0  0  0
   19.3478  -19.2147  -10.9939 C   0  0  0  0  0  0  0  0  0  0  0  0
   20.5645  -18.8724  -10.4048 C   0  0  0  0  0  0  0  0  0  0  0  0
   21.6093  -19.7509  -10.4160 C   0  0  0  0  0  0  0  0  0  0  0  0
   21.4556  -20.9718  -11.0098 C   0  0  0  0  0  0  0  0  0  0  0  0
   18.9650  -21.9913  -14.2604 O   0  0  0  0  0  0  0  0  0  0  0  0
   19.1076  -20.9531  -14.9337 O   0  0  0  0  0  0  0  0  0  0  0  0
  2 13  1  0
  2  1  1  6
  3  2  1  0
  4  3  1  0
  4  5  2  0
  6  5  1  0
  7 12  2  0
  7  6  1  0
  8  7  1  0
  9 10  1  0
  9  8  2  0
 10 11  2  0
 11 12  1  0
 12  4  1  0
 13 14  2  0
 16 15  1  0
 16 18  1  0
 17 16  2  0
 19 18  1  0
 19 20  1  0
 21 20  1  0
 22 21  1  6
 23 22  1  0
 23 13  1  0
 24 25  2  0
 24 22  1  0
 26 24  1  0
 27 35  1  0
 27 26  1  0
 27 28  1  1
 29 28  1  0
 30 29  2  0
 31 30  1  0
 32 31  2  0
 32 33  1  0
 33 34  2  0
 34 29  1  0
 35 37  1  0
 36 35  2  0
M  END
$$$$
