WRF.pdb
     RDKit          3D

 37 39  0  0  1  0  0  0  0  0999 V2000
   26.9867  -18.8991  -19.3086 N   0  0  0  0  0  0  0  0  0  0  0  0
   27.1557  -19.2708  -17.9553 C   0  0  1  0  0  0  0  0  0  0  0  0
   26.9535  -18.1791  -16.9353 C   0  0  0  0  0  0  0  0  0  0  0  0
   27.7598  -16.9952  -17.2877 C   0  0  0  0  0  0  0  0  0  0  0  0
   27.2523  -15.7335  -17.5891 C   0  0  0  0  0  0  0  0  0  0  0  0
   28.2633  -14.8931  -17.8402 N   0  0  0  0  0  0  0  0  0  0  0  0
   29.4262  -15.5457  -17.7184 C   0  0  0  0  0  0  0  0  0  0  0  0
   30.7437  -15.1346  -17.8788 C   0  0  0  0  0  0  0  0  0  0  0  0
   31.7303  -16.0643  -17.6873 C   0  0  0  0  0  0  0  0  0  0  0  0
   31.4530  -17.3811  -17.3441 C   0  0  0  0  0  0  0  0  0  0  0  0
   30.1469  -17.7769  -17.1879 C   0  0  0  0  0  0  0  0  0  0  0  0
   29.1275  -16.8661  -17.3723 C   0  0  0  0  0  0  0  0  0  0  0  0
   26.3335  -20.4560  -17.5697 C   0  0  0  0  0  0  0  0  0  0  0  0
   25.2058  -20.6186  -18.1404 O   0  0  0  0  0  0  0  0  0  0  0  0
   30.6098  -25.7159  -15.3231 N   0  0  0  0  0  0  0  0  0  0  0  0
   31.1688  -25.0597  -16.4423 C   0  0  0  0  0  0  0  0  0  0  0  0
   32.4619  -25.0066  -16.5641 N   0  0  0  0  0  0  0  0  0  0  0  0
   30.3334  -24.4708  -17.4154 N   0  0  0  0  0  0  0  0  0  0  0  0
   28.9091  -24.6563  -17.3650 C   0  0  0  0  0  0  0  0  0  0  0  0
   28.3213  -23.6633  -16.4077 C   0  0  0  0  0  0  0  0  0  0  0  0
   26.8258  -23.7886  -16.3475 C   0  0  0  0  0  0  0  0  0  0  0  0
   26.1231  -22.4885  -16.1809 C   0  0  2  0  0  0  0  0  0  0  0  0
   26.8538  -21.3306  -16.5941 N   0  0  0  0  0  0  0  0  0  0  0  0
   25.7180  -22.2862  -14.7385 C   0  0  0  0  0  0  0  0  0  0  0  0
   25.7470  -23.1962  -13.8822 O   0  0  0  0  0  0  0  0  0  0  0  0
   32.9091  -24.5684  -17.3803 N   0  0  0  0  0  0  0  0  0  0  0  0
   25.2706  -21.0073  -14.2761 C   0  0  1  0  0  0  0  0  0  0  0  0
   24.7303  -20.7916  -12.9494 C   0  0  0  0  0  0  0  0  0  0  0  0
   25.6781  -20.0123  -12.0739 C   0  0  0  0  0  0  0  0  0  0  0  0
   26.9649  -20.6774  -11.8737 C   0  0  0  0  0  0  0  0  0  0  0  0
   28.0686  -20.5603  -12.6652 C   0  0  0  0  0  0  0  0  0  0  0  0
   29.2482  -21.2147  -12.4198 C   0  0  0  0  0  0  0  0  0  0  0  0
   29.3192  -22.0432  -11.3002 C   0  0  0  0  0  0  0  0  0  0  0  0
   28.2384  -22.1903  -10.4796 C   0  0  0  0  0  0  0  0  0  0  0  0
   27.0823  -21.5190  -10.7622 C   0  0  0  0  0  0  0  0  0  0  0  0
   23.3708  -20.2003  -12.9966 O   0  0  0  0  0  0  0  0  0  0  0  0
   22.8926  -19.8879  -14.1035 O   0  0  0  0  0  0  0  0  0  0  0  0
  2 13  1  0
  2  1  1  6
  3  2  1  0
  4  3  1  0
  4  5  2  0
  6  5  1  0
  7 12  2  0
  7  6  1  0
  8  7  1  0
  9 10  1  0
  9  8  2  0
 10 11  2  0
 11 12  1  0
 12  4  1  0
 13 14  2  0
 16 15  1  0
 16 18  1  0
 17 16  2  0
 19 18  1  0
 19 20  1  0
 21 20  1  0
 22 21  1  1
 23 22  1  0
 23 13  1  0
 24 25  2  0
 24 22  1  0
 26 24  1  0
 27 35  1  0
 27 26  1  0
 27 28  1  1
 29 28  1  0
 30 29  2  0
 31 30  1  0
 32 31  2  0
 32 33  1  0
 33 34  2  0
 34 29  1  0
 35 37  1  0
 36 35  2  0
M  END
$$$$
