WRF.pdb
     RDKit          3D

 37 39  0  0  1  0  0  0  0  0999 V2000
   17.4971  -14.8634    2.5970 N   0  0  0  0  0  0  0  0  0  0  0  0
   17.8090  -15.8610    3.5489 C   0  0  1  0  0  0  0  0  0  0  0  0
   18.7678  -16.9337    3.0986 C   0  0  0  0  0  0  0  0  0  0  0  0
   18.2096  -17.6668    1.9466 C   0  0  0  0  0  0  0  0  0  0  0  0
   18.6406  -17.5465    0.6275 C   0  0  0  0  0  0  0  0  0  0  0  0
   17.9303  -18.3707   -0.1520 N   0  0  0  0  0  0  0  0  0  0  0  0
   17.0414  -19.0363    0.5963 C   0  0  0  0  0  0  0  0  0  0  0  0
   16.0809  -19.9868    0.2728 C   0  0  0  0  0  0  0  0  0  0  0  0
   15.3053  -20.4812    1.2869 C   0  0  0  0  0  0  0  0  0  0  0  0
   15.4510  -20.0648    2.6037 C   0  0  0  0  0  0  0  0  0  0  0  0
   16.4038  -19.1247    2.9125 C   0  0  0  0  0  0  0  0  0  0  0  0
   17.2036  -18.6056    1.9157 C   0  0  0  0  0  0  0  0  0  0  0  0
   18.2829  -15.2984    4.8483 C   0  0  0  0  0  0  0  0  0  0  0  0
   18.7515  -14.1134    4.8568 O   0  0  0  0  0  0  0  0  0  0  0  0
   13.5903  -14.0806   11.2291 N   0  0  0  0  0  0  0  0  0  0  0  0
   13.2925  -14.8897   10.1100 C   0  0  0  0  0  0  0  0  0  0  0  0
   12.0494  -15.0975    9.7921 N   0  0  0  0  0  0  0  0  0  0  0  0
   14.3320  -15.4635    9.3472 N   0  0  0  0  0  0  0  0  0  0  0  0
   15.5829  -14.7754    9.1817 C   0  0  0  0  0  0  0  0  0  0  0  0
   16.4686  -15.5832    8.2812 C   0  0  0  0  0  0  0  0  0  0  0  0
   17.8244  -14.9512    8.1458 C   0  0  0  0  0  0  0  0  0  0  0  0
   18.7432  -15.6947    7.2431 C   0  0  2  0  0  0  0  0  0  0  0  0
   18.1836  -16.1124    5.9949 N   0  0  0  0  0  0  0  0  0  0  0  0
   19.2885  -16.9225    7.9365 C   0  0  0  0  0  0  0  0  0  0  0  0
   18.6842  -18.0159    7.9745 O   0  0  0  0  0  0  0  0  0  0  0  0
   11.7881  -15.7171    9.0135 N   0  0  0  0  0  0  0  0  0  0  0  0
   20.5570  -16.8864    8.5992 C   0  0  2  0  0  0  0  0  0  0  0  0
   21.1629  -18.0520    9.2095 C   0  0  0  0  0  0  0  0  0  0  0  0
   22.6679  -18.0107    9.1341 C   0  0  0  0  0  0  0  0  0  0  0  0
   23.2528  -16.8578    9.8176 C   0  0  0  0  0  0  0  0  0  0  0  0
   23.2959  -15.5771    9.3527 C   0  0  0  0  0  0  0  0  0  0  0  0
   23.8620  -14.5391   10.0469 C   0  0  0  0  0  0  0  0  0  0  0  0
   24.4225  -14.8114   11.2945 C   0  0  0  0  0  0  0  0  0  0  0  0
   24.4019  -16.0795   11.7995 C   0  0  0  0  0  0  0  0  0  0  0  0
   23.8271  -17.0840   11.0732 C   0  0  0  0  0  0  0  0  0  0  0  0
   20.6607  -18.2778   10.5868 O   0  0  0  0  0  0  0  0  0  0  0  0
   20.0522  -17.3545   11.1603 O   0  0  0  0  0  0  0  0  0  0  0  0
  2 13  1  0
  2  1  1  6
  3  2  1  0
  4  3  1  0
  4  5  2  0
  6  5  1  0
  7 12  2  0
  7  6  1  0
  8  7  1  0
  9 10  1  0
  9  8  2  0
 10 11  2  0
 11 12  1  0
 12  4  1  0
 13 14  2  0
 16 15  1  0
 16 18  1  0
 17 16  2  0
 19 18  1  0
 19 20  1  0
 21 20  1  0
 22 21  1  1
 23 22  1  0
 23 13  1  0
 24 25  2  0
 24 22  1  0
 26 24  1  0
 27 35  1  0
 27 26  1  0
 27 28  1  6
 29 28  1  0
 30 29  2  0
 31 30  1  0
 32 31  2  0
 32 33  1  0
 33 34  2  0
 34 29  1  0
 35 37  1  0
 36 35  2  0
M  END
$$$$
