WRF.pdb
     RDKit          3D

 37 39  0  0  1  0  0  0  0  0999 V2000
   24.0737  -18.6480  -20.1710 N   0  0  0  0  0  0  0  0  0  0  0  0
   24.0227  -18.3869  -18.7826 C   0  0  1  0  0  0  0  0  0  0  0  0
   22.7092  -17.8730  -18.2501 C   0  0  0  0  0  0  0  0  0  0  0  0
   22.3433  -16.6125  -18.9233 C   0  0  0  0  0  0  0  0  0  0  0  0
   21.2259  -16.4248  -19.7335 C   0  0  0  0  0  0  0  0  0  0  0  0
   21.1910  -15.1568  -20.1604 N   0  0  0  0  0  0  0  0  0  0  0  0
   22.2426  -14.4910  -19.6666 C   0  0  0  0  0  0  0  0  0  0  0  0
   22.6609  -13.1740  -19.8130 C   0  0  0  0  0  0  0  0  0  0  0  0
   23.8093  -12.7941  -19.1719 C   0  0  0  0  0  0  0  0  0  0  0  0
   24.5517  -13.6738  -18.3951 C   0  0  0  0  0  0  0  0  0  0  0  0
   24.1291  -14.9734  -18.2569 C   0  0  0  0  0  0  0  0  0  0  0  0
   22.9758  -15.3905  -18.8883 C   0  0  0  0  0  0  0  0  0  0  0  0
   24.4627  -19.5491  -17.9548 C   0  0  0  0  0  0  0  0  0  0  0  0
   24.0843  -20.7149  -18.3036 O   0  0  0  0  0  0  0  0  0  0  0  0
   27.0165  -21.2172  -10.8861 N   0  0  0  0  0  0  0  0  0  0  0  0
   28.0938  -21.0980  -11.7922 C   0  0  0  0  0  0  0  0  0  0  0  0
   29.0696  -21.9545  -11.7314 N   0  0  0  0  0  0  0  0  0  0  0  0
   28.1088  -20.0627  -12.7511 N   0  0  0  0  0  0  0  0  0  0  0  0
   27.0327  -19.1124  -12.8177 C   0  0  0  0  0  0  0  0  0  0  0  0
   26.7206  -18.8289  -14.2565 C   0  0  0  0  0  0  0  0  0  0  0  0
   26.8458  -20.0702  -15.0928 C   0  0  0  0  0  0  0  0  0  0  0  0
   25.6553  -20.3420  -15.9416 C   0  0  2  0  0  0  0  0  0  0  0  0
   25.2746  -19.2895  -16.8321 N   0  0  0  0  0  0  0  0  0  0  0  0
   24.4565  -20.6736  -15.0823 C   0  0  0  0  0  0  0  0  0  0  0  0
   24.5119  -21.4264  -14.0862 O   0  0  0  0  0  0  0  0  0  0  0  0
   29.8807  -21.8936  -12.3613 N   0  0  0  0  0  0  0  0  0  0  0  0
   23.1681  -20.1248  -15.3798 C   0  0  1  0  0  0  0  0  0  0  0  0
   21.9983  -20.3658  -14.5600 C   0  0  0  0  0  0  0  0  0  0  0  0
   21.8129  -19.2972  -13.5131 C   0  0  0  0  0  0  0  0  0  0  0  0
   21.5096  -17.9809  -14.0731 C   0  0  0  0  0  0  0  0  0  0  0  0
   22.4143  -17.0335  -14.4501 C   0  0  0  0  0  0  0  0  0  0  0  0
   22.0611  -15.8148  -14.9699 C   0  0  0  0  0  0  0  0  0  0  0  0
   20.7035  -15.5329  -15.1195 C   0  0  0  0  0  0  0  0  0  0  0  0
   19.7625  -16.4523  -14.7552 C   0  0  0  0  0  0  0  0  0  0  0  0
   20.1596  -17.6544  -14.2412 C   0  0  0  0  0  0  0  0  0  0  0  0
   20.7834  -20.5839  -15.3827 O   0  0  0  0  0  0  0  0  0  0  0  0
   19.7234  -20.9020  -14.8112 O   0  0  0  0  0  0  0  0  0  0  0  0
  2 13  1  0
  2  1  1  6
  3  2  1  0
  4  3  1  0
  4  5  2  0
  6  5  1  0
  7 12  2  0
  7  6  1  0
  8  7  1  0
  9 10  1  0
  9  8  2  0
 10 11  2  0
 11 12  1  0
 12  4  1  0
 13 14  2  0
 16 15  1  0
 16 18  1  0
 17 16  2  0
 19 18  1  0
 19 20  1  0
 21 20  1  0
 22 21  1  1
 23 22  1  0
 23 13  1  0
 24 25  2  0
 24 22  1  0
 26 24  1  0
 27 35  1  0
 27 26  1  0
 27 28  1  1
 29 28  1  0
 30 29  2  0
 31 30  1  0
 32 31  2  0
 32 33  1  0
 33 34  2  0
 34 29  1  0
 35 37  1  0
 36 35  2  0
M  END
$$$$
