WRF.pdb
     RDKit          3D

 37 39  0  0  1  0  0  0  0  0999 V2000
   29.5015  -20.4521   -9.3522 N   0  0  0  0  0  0  0  0  0  0  0  0
   28.3017  -21.1212   -9.6855 C   0  0  1  0  0  0  0  0  0  0  0  0
   27.3346  -21.3569   -8.5531 C   0  0  0  0  0  0  0  0  0  0  0  0
   27.5474  -20.3624   -7.4845 C   0  0  0  0  0  0  0  0  0  0  0  0
   27.2035  -19.0145   -7.5561 C   0  0  0  0  0  0  0  0  0  0  0  0
   27.5178  -18.4110   -6.4035 N   0  0  0  0  0  0  0  0  0  0  0  0
   28.0588  -19.3044   -5.5655 C   0  0  0  0  0  0  0  0  0  0  0  0
   28.5501  -19.1857   -4.2712 C   0  0  0  0  0  0  0  0  0  0  0  0
   29.0570  -20.3093   -3.6754 C   0  0  0  0  0  0  0  0  0  0  0  0
   29.0922  -21.5394   -4.3190 C   0  0  0  0  0  0  0  0  0  0  0  0
   28.6037  -21.6456   -5.5985 C   0  0  0  0  0  0  0  0  0  0  0  0
   28.0848  -20.5339   -6.2290 C   0  0  0  0  0  0  0  0  0  0  0  0
   27.5743  -20.4815  -10.8219 C   0  0  0  0  0  0  0  0  0  0  0  0
   27.2888  -19.2427  -10.7335 O   0  0  0  0  0  0  0  0  0  0  0  0
   28.7001  -25.1185  -16.0223 N   0  0  0  0  0  0  0  0  0  0  0  0
   27.3678  -25.0766  -16.4902 C   0  0  0  0  0  0  0  0  0  0  0  0
   26.7028  -26.1873  -16.6070 N   0  0  0  0  0  0  0  0  0  0  0  0
   26.7673  -23.8442  -16.8251 N   0  0  0  0  0  0  0  0  0  0  0  0
   27.2918  -22.6106  -16.3067 C   0  0  0  0  0  0  0  0  0  0  0  0
   26.7670  -22.4028  -14.9177 C   0  0  0  0  0  0  0  0  0  0  0  0
   27.1545  -21.0515  -14.3887 C   0  0  0  0  0  0  0  0  0  0  0  0
   26.5625  -20.7367  -13.0613 C   0  0  2  0  0  0  0  0  0  0  0  0
   27.2450  -21.2867  -11.9311 N   0  0  0  0  0  0  0  0  0  0  0  0
   25.1243  -21.1988  -12.9995 C   0  0  0  0  0  0  0  0  0  0  0  0
   24.7856  -22.4008  -13.0504 O   0  0  0  0  0  0  0  0  0  0  0  0
   25.7095  -26.1956  -16.8746 N   0  0  0  0  0  0  0  0  0  0  0  0
   24.0562  -20.2535  -12.8766 C   0  0  2  0  0  0  0  0  0  0  0  0
   22.6781  -20.6426  -12.6574 C   0  0  0  0  0  0  0  0  0  0  0  0
   21.9114  -19.5962  -11.8897 C   0  0  0  0  0  0  0  0  0  0  0  0
   20.5292  -19.9797  -11.6058 C   0  0  0  0  0  0  0  0  0  0  0  0
   20.1034  -20.7770  -10.5853 C   0  0  0  0  0  0  0  0  0  0  0  0
   18.7872  -21.0986  -10.3754 C   0  0  0  0  0  0  0  0  0  0  0  0
   17.8362  -20.5809  -11.2542 C   0  0  0  0  0  0  0  0  0  0  0  0
   18.2173  -19.7778  -12.2902 C   0  0  0  0  0  0  0  0  0  0  0  0
   19.5404  -19.4832  -12.4620 C   0  0  0  0  0  0  0  0  0  0  0  0
   22.0084  -21.0368  -13.9209 O   0  0  0  0  0  0  0  0  0  0  0  0
   22.2995  -20.4274  -14.9675 O   0  0  0  0  0  0  0  0  0  0  0  0
  2 13  1  0
  2  1  1  1
  3  2  1  0
  4  3  1  0
  4  5  2  0
  6  5  1  0
  7 12  2  0
  7  6  1  0
  8  7  1  0
  9 10  1  0
  9  8  2  0
 10 11  2  0
 11 12  1  0
 12  4  1  0
 13 14  2  0
 16 15  1  0
 16 18  1  0
 17 16  2  0
 19 18  1  0
 19 20  1  0
 21 20  1  0
 22 21  1  6
 23 22  1  0
 23 13  1  0
 24 25  2  0
 24 22  1  0
 26 24  1  0
 27 35  1  0
 27 26  1  0
 27 28  1  6
 29 28  1  0
 30 29  2  0
 31 30  1  0
 32 31  2  0
 32 33  1  0
 33 34  2  0
 34 29  1  0
 35 37  1  0
 36 35  2  0
M  END
$$$$
