WRF.pdb
     RDKit          3D

 37 39  0  0  1  0  0  0  0  0999 V2000
   21.2157  -21.3885  -15.3276 N   0  0  0  0  0  0  0  0  0  0  0  0
   22.1420  -20.4344  -14.8482 C   0  0  1  0  0  0  0  0  0  0  0  0
   21.6003  -19.4045  -13.8896 C   0  0  0  0  0  0  0  0  0  0  0  0
   20.7019  -18.4719  -14.5961 C   0  0  0  0  0  0  0  0  0  0  0  0
   21.1017  -17.3202  -15.2697 C   0  0  0  0  0  0  0  0  0  0  0  0
   20.0324  -16.7253  -15.8121 N   0  0  0  0  0  0  0  0  0  0  0  0
   18.9340  -17.4356  -15.5257 C   0  0  0  0  0  0  0  0  0  0  0  0
   17.5949  -17.2447  -15.8433 C   0  0  0  0  0  0  0  0  0  0  0  0
   16.6924  -18.1661  -15.3841 C   0  0  0  0  0  0  0  0  0  0  0  0
   17.0737  -19.2640  -14.6240 C   0  0  0  0  0  0  0  0  0  0  0  0
   18.4002  -19.4433  -14.3159 C   0  0  0  0  0  0  0  0  0  0  0  0
   19.3371  -18.5348  -14.7628 C   0  0  0  0  0  0  0  0  0  0  0  0
   23.3642  -21.0553  -14.2564 C   0  0  0  0  0  0  0  0  0  0  0  0
   23.2171  -21.8728  -13.2899 O   0  0  0  0  0  0  0  0  0  0  0  0
   30.3645  -24.4886  -15.4745 N   0  0  0  0  0  0  0  0  0  0  0  0
   29.5634  -24.1471  -16.5869 C   0  0  0  0  0  0  0  0  0  0  0  0
   29.2328  -25.0733  -17.4369 N   0  0  0  0  0  0  0  0  0  0  0  0
   29.1274  -22.8176  -16.7713 N   0  0  0  0  0  0  0  0  0  0  0  0
   29.3267  -21.8336  -15.7430 C   0  0  0  0  0  0  0  0  0  0  0  0
   28.2082  -21.9330  -14.7495 C   0  0  0  0  0  0  0  0  0  0  0  0
   26.9249  -21.4046  -15.3237 C   0  0  0  0  0  0  0  0  0  0  0  0
   25.8206  -21.3092  -14.3322 C   0  0  2  0  0  0  0  0  0  0  0  0
   24.6145  -20.7014  -14.8029 N   0  0  0  0  0  0  0  0  0  0  0  0
   26.2725  -20.5463  -13.1077 C   0  0  0  0  0  0  0  0  0  0  0  0
   26.4574  -19.3103  -13.0972 O   0  0  0  0  0  0  0  0  0  0  0  0
   28.6031  -24.8801  -18.2271 N   0  0  0  0  0  0  0  0  0  0  0  0
   26.5156  -21.2249  -11.8707 C   0  0  2  0  0  0  0  0  0  0  0  0
   27.3124  -20.6580  -10.8020 C   0  0  0  0  0  0  0  0  0  0  0  0
   26.8486  -21.1221   -9.4449 C   0  0  0  0  0  0  0  0  0  0  0  0
   27.5518  -20.4757   -8.3377 C   0  0  0  0  0  0  0  0  0  0  0  0
   27.2135  -19.2974   -7.7416 C   0  0  0  0  0  0  0  0  0  0  0  0
   27.9191  -18.7448   -6.7039 C   0  0  0  0  0  0  0  0  0  0  0  0
   29.0417  -19.4271   -6.2359 C   0  0  0  0  0  0  0  0  0  0  0  0
   29.4174  -20.6106   -6.8029 C   0  0  0  0  0  0  0  0  0  0  0  0
   28.6848  -21.1248   -7.8353 C   0  0  0  0  0  0  0  0  0  0  0  0
   28.7634  -20.8751  -11.0207 O   0  0  0  0  0  0  0  0  0  0  0  0
   29.1626  -22.0244  -11.2874 O   0  0  0  0  0  0  0  0  0  0  0  0
  2 13  1  0
  2  1  1  1
  3  2  1  0
  4  3  1  0
  4  5  2  0
  6  5  1  0
  7 12  2  0
  7  6  1  0
  8  7  1  0
  9 10  1  0
  9  8  2  0
 10 11  2  0
 11 12  1  0
 12  4  1  0
 13 14  2  0
 16 15  1  0
 16 18  1  0
 17 16  2  0
 19 18  1  0
 19 20  1  0
 21 20  1  0
 22 21  1  6
 23 22  1  0
 23 13  1  0
 24 25  2  0
 24 22  1  0
 26 24  1  0
 27 35  1  0
 27 26  1  0
 27 28  1  1
 29 28  1  0
 30 29  2  0
 31 30  1  0
 32 31  2  0
 32 33  1  0
 33 34  2  0
 34 29  1  0
 35 37  1  0
 36 35  2  0
M  END
$$$$
