WRF.pdb
     RDKit          3D

 37 39  0  0  1  0  0  0  0  0999 V2000
   27.2873  -22.5458  -10.9682 N   0  0  0  0  0  0  0  0  0  0  0  0
   26.4661  -21.4852  -10.5220 C   0  0  1  0  0  0  0  0  0  0  0  0
   27.1806  -20.2505  -10.0343 C   0  0  0  0  0  0  0  0  0  0  0  0
   28.2026  -20.6133   -9.0343 C   0  0  0  0  0  0  0  0  0  0  0  0
   29.4820  -21.0833   -9.3216 C   0  0  0  0  0  0  0  0  0  0  0  0
   30.1488  -21.2915   -8.1799 N   0  0  0  0  0  0  0  0  0  0  0  0
   29.3632  -20.9790   -7.1415 C   0  0  0  0  0  0  0  0  0  0  0  0
   29.5755  -21.0238   -5.7691 C   0  0  0  0  0  0  0  0  0  0  0  0
   28.5477  -20.6376   -4.9513 C   0  0  0  0  0  0  0  0  0  0  0  0
   27.3232  -20.2113   -5.4486 C   0  0  0  0  0  0  0  0  0  0  0  0
   27.1240  -20.1707   -6.8071 C   0  0  0  0  0  0  0  0  0  0  0  0
   28.1383  -20.5520   -7.6608 C   0  0  0  0  0  0  0  0  0  0  0  0
   25.4337  -21.0865  -11.5244 C   0  0  0  0  0  0  0  0  0  0  0  0
   25.2954  -19.8471  -11.7866 O   0  0  0  0  0  0  0  0  0  0  0  0
   26.6595  -23.4236  -16.5530 N   0  0  0  0  0  0  0  0  0  0  0  0
   26.6160  -24.8068  -16.2691 C   0  0  0  0  0  0  0  0  0  0  0  0
   27.6985  -25.5142  -16.4007 N   0  0  0  0  0  0  0  0  0  0  0  0
   25.4126  -25.4114  -15.8472 N   0  0  0  0  0  0  0  0  0  0  0  0
   24.2499  -24.6123  -15.5731 C   0  0  0  0  0  0  0  0  0  0  0  0
   24.5726  -23.6414  -14.4771 C   0  0  0  0  0  0  0  0  0  0  0  0
   23.3631  -22.8390  -14.0906 C   0  0  0  0  0  0  0  0  0  0  0  0
   23.6397  -21.7952  -13.0681 C   0  0  2  0  0  0  0  0  0  0  0  0
   24.6693  -22.1070  -12.1257 N   0  0  0  0  0  0  0  0  0  0  0  0
   22.3854  -21.4716  -12.2886 C   0  0  0  0  0  0  0  0  0  0  0  0
   22.3709  -21.2971  -11.0511 O   0  0  0  0  0  0  0  0  0  0  0  0
   27.7197  -26.5159  -16.1676 N   0  0  0  0  0  0  0  0  0  0  0  0
   21.1228  -21.3470  -12.9519 C   0  0  1  0  0  0  0  0  0  0  0  0
   20.3905  -20.0995  -13.0289 C   0  0  0  0  0  0  0  0  0  0  0  0
   21.2599  -18.9631  -13.5032 C   0  0  0  0  0  0  0  0  0  0  0  0
   20.5548  -17.6842  -13.5793 C   0  0  0  0  0  0  0  0  0  0  0  0
   20.1744  -16.9056  -12.5271 C   0  0  0  0  0  0  0  0  0  0  0  0
   19.5132  -15.7128  -12.6689 C   0  0  0  0  0  0  0  0  0  0  0  0
   19.2157  -15.2760  -13.9595 C   0  0  0  0  0  0  0  0  0  0  0  0
   19.5778  -16.0235  -15.0428 C   0  0  0  0  0  0  0  0  0  0  0  0
   20.2355  -17.2064  -14.8549 C   0  0  0  0  0  0  0  0  0  0  0  0
   19.1431  -20.2398  -13.8192 O   0  0  0  0  0  0  0  0  0  0  0  0
   19.2157  -20.6985  -14.9749 O   0  0  0  0  0  0  0  0  0  0  0  0
  2 13  1  0
  2  1  1  6
  3  2  1  0
  4  3  1  0
  4  5  2  0
  6  5  1  0
  7 12  2  0
  7  6  1  0
  8  7  1  0
  9 10  1  0
  9  8  2  0
 10 11  2  0
 11 12  1  0
 12  4  1  0
 13 14  2  0
 16 15  1  0
 16 18  1  0
 17 16  2  0
 19 18  1  0
 19 20  1  0
 21 20  1  0
 22 21  1  6
 23 22  1  0
 23 13  1  0
 24 25  2  0
 24 22  1  0
 26 24  1  0
 27 35  1  0
 27 26  1  0
 27 28  1  1
 29 28  1  0
 30 29  2  0
 31 30  1  0
 32 31  2  0
 32 33  1  0
 33 34  2  0
 34 29  1  0
 35 37  1  0
 36 35  2  0
M  END
$$$$
