RYC.pdb
     RDKit          3D

 30 30  0  0  1  0  0  0  0  0999 V2000
    7.2860  -11.8647   18.5402 N   0  0  0  0  0  0  0  0  0  0  0  0
    7.5219  -13.2318   18.1394 C   0  0  0  0  0  0  0  0  0  0  0  0
    7.7789  -13.4922   16.9063 N   0  0  0  0  0  0  0  0  0  0  0  0
    7.4787  -14.2924   19.0662 N   0  0  0  0  0  0  0  0  0  0  0  0
    7.4740  -15.6726   18.6333 C   0  0  0  0  0  0  0  0  0  0  0  0
    8.9191  -16.1491   18.6717 C   0  0  0  0  0  0  0  0  0  0  0  0
    9.4847  -15.8686   20.0209 C   0  0  0  0  0  0  0  0  0  0  0  0
    9.3480  -16.9916   21.0124 C   0  0  2  0  0  0  0  0  0  0  0  0
    7.9518  -17.2245   21.3168 N   0  0  0  0  0  0  0  0  0  0  0  0
   10.0503  -16.5864   22.2843 C   0  0  0  0  0  0  0  0  0  0  0  0
   11.2469  -16.1981   22.1769 O   0  0  0  0  0  0  0  0  0  0  0  0
    7.9803  -14.4099   16.4983 O   0  0  0  0  0  0  0  0  0  0  0  0
   10.7259  -14.8605   31.0401 C   0  0  0  0  0  0  0  0  0  0  0  0
   10.3569  -15.0759   29.7168 C   0  0  0  0  0  0  0  0  0  0  0  0
   10.4320  -14.0488   28.7932 C   0  0  0  0  0  0  0  0  0  0  0  0
   10.0679  -14.2630   27.4920 C   0  0  0  0  0  0  0  0  0  0  0  0
    9.6137  -15.5087   27.0550 C   0  0  0  0  0  0  0  0  0  0  0  0
    9.1820  -15.6762   25.6729 C   0  0  1  0  0  0  0  0  0  0  0  0
   10.1953  -16.2197   24.7401 N   0  0  0  0  0  0  0  0  0  0  0  0
    9.4111  -16.6361   23.5330 C   0  0  0  0  0  0  0  0  0  0  0  0
   10.8928  -17.4068   25.2476 O   0  0  0  0  0  0  0  0  0  0  0  0
   10.2359  -18.4972   25.4853 C   0  0  0  0  0  0  0  0  0  0  0  0
    9.5388  -16.5242   27.9627 C   0  0  0  0  0  0  0  0  0  0  0  0
    9.9054  -16.3011   29.2664 N   0  0  0  0  0  0  0  0  0  0  0  0
   12.2711  -17.5404   25.5237 C   0  0  2  0  0  0  0  0  0  0  0  0
   12.8533  -18.7654   26.0168 C   0  0  0  0  0  0  0  0  0  0  0  0
   14.2202  -19.0190   25.3894 S   0  0  0  0  0  0  0  0  0  0  0  0
   14.8267  -20.5695   26.1158 C   0  0  0  0  0  0  0  0  0  0  0  0
   13.0836  -18.6836   27.4541 O   0  0  0  0  0  0  0  0  0  0  0  0
   13.6652  -17.6798   27.9365 O   0  0  0  0  0  0  0  0  0  0  0  0
  1  2  1  0
  2  3  2  0
  4  2  1  0
  4  5  1  0
  6  5  1  0
  7  8  1  0
  7  6  1  0
  8 10  1  0
  8  9  1  1
 10 11  2  0
 12 13  1  0
 13 23  2  0
 13 14  1  0
 14 15  2  0
 15 16  1  0
 16 17  1  0
 18 17  1  6
 19 18  1  0
 19 10  1  0
 20 21  2  0
 20 18  1  0
 22 16  2  0
 23 22  1  0
 24 20  1  0
 25 28  1  0
 25 24  1  0
 25 26  1  1
 27 26  1  0
 28 30  1  0
 29 28  2  0
M  END
$$$$
