RYC.pdb
     RDKit          3D

 30 30  0  0  1  0  0  0  0  0999 V2000
    8.2475  -12.8942   17.5611 N   0  0  0  0  0  0  0  0  0  0  0  0
    8.2428  -13.0833   18.9927 C   0  0  0  0  0  0  0  0  0  0  0  0
    9.0082  -12.3563   19.7275 N   0  0  0  0  0  0  0  0  0  0  0  0
    7.4187  -14.0461   19.6089 N   0  0  0  0  0  0  0  0  0  0  0  0
    6.5269  -14.8818   18.8353 C   0  0  0  0  0  0  0  0  0  0  0  0
    6.6878  -16.3006   19.3625 C   0  0  0  0  0  0  0  0  0  0  0  0
    6.5935  -16.2773   20.8489 C   0  0  0  0  0  0  0  0  0  0  0  0
    6.6939  -17.6236   21.5124 C   0  0  2  0  0  0  0  0  0  0  0  0
    5.5014  -18.4019   21.2502 N   0  0  0  0  0  0  0  0  0  0  0  0
    6.8034  -17.4092   23.0013 C   0  0  0  0  0  0  0  0  0  0  0  0
    5.7219  -17.2923   23.6424 O   0  0  0  0  0  0  0  0  0  0  0  0
    9.1176  -12.4077   20.7446 O   0  0  0  0  0  0  0  0  0  0  0  0
   10.2297  -17.0384   31.1468 C   0  0  0  0  0  0  0  0  0  0  0  0
    9.9587  -17.2586   29.8007 C   0  0  0  0  0  0  0  0  0  0  0  0
   10.8984  -16.9412   28.8365 C   0  0  0  0  0  0  0  0  0  0  0  0
   10.6293  -17.1583   27.5129 C   0  0  0  0  0  0  0  0  0  0  0  0
    9.4134  -17.7006   27.0930 C   0  0  0  0  0  0  0  0  0  0  0  0
    9.1472  -17.8612   25.6689 C   0  0  1  0  0  0  0  0  0  0  0  0
    8.0541  -17.0286   25.1173 N   0  0  0  0  0  0  0  0  0  0  0  0
    8.0455  -17.3410   23.6518 C   0  0  0  0  0  0  0  0  0  0  0  0
    8.2765  -15.5853   25.2623 O   0  0  0  0  0  0  0  0  0  0  0  0
    9.2554  -15.0106   24.6389 C   0  0  0  0  0  0  0  0  0  0  0  0
    8.4843  -18.0156   28.0409 C   0  0  0  0  0  0  0  0  0  0  0  0
    8.7617  -17.7942   29.3668 N   0  0  0  0  0  0  0  0  0  0  0  0
    7.5197  -14.6725   26.0289 C   0  0  2  0  0  0  0  0  0  0  0  0
    7.8832  -13.2833   26.1714 C   0  0  0  0  0  0  0  0  0  0  0  0
    6.8454  -12.5218   26.9898 S   0  0  0  0  0  0  0  0  0  0  0  0
    5.3017  -12.5932   26.0353 C   0  0  0  0  0  0  0  0  0  0  0  0
    9.1393  -13.1521   26.8998 O   0  0  0  0  0  0  0  0  0  0  0  0
    9.6861  -14.1721   27.3890 O   0  0  0  0  0  0  0  0  0  0  0  0
  1  2  1  0
  2  3  2  0
  4  2  1  0
  4  5  1  0
  6  5  1  0
  7  8  1  0
  7  6  1  0
  8 10  1  0
  8  9  1  1
 10 11  2  0
 12 13  1  0
 13 23  2  0
 13 14  1  0
 14 15  2  0
 15 16  1  0
 16 17  1  0
 18 17  1  1
 19 18  1  0
 19 10  1  0
 20 21  2  0
 20 18  1  0
 22 16  2  0
 23 22  1  0
 24 20  1  0
 25 28  1  0
 25 24  1  0
 25 26  1  6
 27 26  1  0
 28 30  1  0
 29 28  2  0
M  END
$$$$
