RYC.pdb
     RDKit          3D

 30 30  0  0  1  0  0  0  0  0999 V2000
    7.7990  -12.6229   17.1713 N   0  0  0  0  0  0  0  0  0  0  0  0
    8.6154  -13.7925   16.9458 C   0  0  0  0  0  0  0  0  0  0  0  0
    8.4540  -14.4762   15.8684 N   0  0  0  0  0  0  0  0  0  0  0  0
    9.5884  -14.2063   17.8773 N   0  0  0  0  0  0  0  0  0  0  0  0
    9.2353  -14.9976   19.0356 C   0  0  0  0  0  0  0  0  0  0  0  0
    8.4451  -16.1941   18.5249 C   0  0  0  0  0  0  0  0  0  0  0  0
    8.1157  -17.0820   19.6747 C   0  0  0  0  0  0  0  0  0  0  0  0
    9.2609  -17.3614   20.6092 C   0  0  2  0  0  0  0  0  0  0  0  0
    9.0770  -18.6423   21.2586 N   0  0  0  0  0  0  0  0  0  0  0  0
    9.2770  -16.2891   21.6699 C   0  0  0  0  0  0  0  0  0  0  0  0
    8.9879  -15.1167   21.3009 O   0  0  0  0  0  0  0  0  0  0  0  0
    8.9888  -15.2984   15.5732 O   0  0  0  0  0  0  0  0  0  0  0  0
    5.8963  -11.6716   27.8813 C   0  0  0  0  0  0  0  0  0  0  0  0
    6.4084  -12.5574   26.9395 C   0  0  0  0  0  0  0  0  0  0  0  0
    7.0730  -12.0842   25.8224 C   0  0  0  0  0  0  0  0  0  0  0  0
    7.5754  -12.9576   24.8970 C   0  0  0  0  0  0  0  0  0  0  0  0
    7.4378  -14.3390   25.0445 C   0  0  0  0  0  0  0  0  0  0  0  0
    7.9382  -15.2301   24.0052 C   0  0  1  0  0  0  0  0  0  0  0  0
    9.3959  -15.4890   24.0220 N   0  0  0  0  0  0  0  0  0  0  0  0
    9.5977  -16.5726   23.0068 C   0  0  0  0  0  0  0  0  0  0  0  0
    9.8953  -15.9875   25.3087 O   0  0  0  0  0  0  0  0  0  0  0  0
    9.8580  -17.2541   25.5760 C   0  0  0  0  0  0  0  0  0  0  0  0
    6.7836  -14.8095   26.1452 C   0  0  0  0  0  0  0  0  0  0  0  0
    6.2819  -13.9268   27.0687 N   0  0  0  0  0  0  0  0  0  0  0  0
   10.4554  -15.2335   26.3629 C   0  0  2  0  0  0  0  0  0  0  0  0
   11.2296  -15.8307   27.4243 C   0  0  0  0  0  0  0  0  0  0  0  0
   11.7217  -14.7759   28.4099 S   0  0  0  0  0  0  0  0  0  0  0  0
   10.2766  -13.7522   28.8136 C   0  0  0  0  0  0  0  0  0  0  0  0
   10.4106  -16.7522   28.2027 O   0  0  0  0  0  0  0  0  0  0  0  0
    9.1705  -16.8019   28.0073 O   0  0  0  0  0  0  0  0  0  0  0  0
  1  2  1  0
  2  3  2  0
  4  2  1  0
  4  5  1  0
  6  5  1  0
  7  8  1  0
  7  6  1  0
  8 10  1  0
  8  9  1  1
 10 11  2  0
 12 13  1  0
 13 23  2  0
 13 14  1  0
 14 15  2  0
 15 16  1  0
 16 17  1  0
 18 17  1  6
 19 18  1  0
 19 10  1  0
 20 21  2  0
 20 18  1  0
 22 16  2  0
 23 22  1  0
 24 20  1  0
 25 28  1  0
 25 24  1  0
 25 26  1  6
 27 26  1  0
 28 30  1  0
 29 28  2  0
M  END
$$$$
