RYC.pdb
     RDKit          3D

 30 30  0  0  1  0  0  0  0  0999 V2000
    8.8129  -13.2073   16.9546 N   0  0  0  0  0  0  0  0  0  0  0  0
    8.2278  -14.1450   16.0253 C   0  0  0  0  0  0  0  0  0  0  0  0
    8.3203  -13.9219   14.7619 N   0  0  0  0  0  0  0  0  0  0  0  0
    7.5563  -15.3026   16.4666 N   0  0  0  0  0  0  0  0  0  0  0  0
    7.7933  -15.8568   17.7815 C   0  0  0  0  0  0  0  0  0  0  0  0
    9.1925  -16.4556   17.7594 C   0  0  0  0  0  0  0  0  0  0  0  0
    9.8372  -16.2263   19.0826 C   0  0  0  0  0  0  0  0  0  0  0  0
    9.1600  -16.9010   20.2440 C   0  0  2  0  0  0  0  0  0  0  0  0
    7.8239  -17.3172   19.8724 N   0  0  0  0  0  0  0  0  0  0  0  0
    9.0510  -15.9043   21.3708 C   0  0  0  0  0  0  0  0  0  0  0  0
    8.6206  -14.7544   21.0763 O   0  0  0  0  0  0  0  0  0  0  0  0
    7.9415  -14.4977   14.0042 O   0  0  0  0  0  0  0  0  0  0  0  0
    5.9138  -11.5049   27.8256 C   0  0  0  0  0  0  0  0  0  0  0  0
    6.3573  -12.3370   26.8035 C   0  0  0  0  0  0  0  0  0  0  0  0
    6.0628  -13.6885   26.8236 C   0  0  0  0  0  0  0  0  0  0  0  0
    6.5007  -14.5051   25.8173 C   0  0  0  0  0  0  0  0  0  0  0  0
    7.2503  -14.0112   24.7481 C   0  0  0  0  0  0  0  0  0  0  0  0
    7.7448  -14.9274   23.7280 C   0  0  1  0  0  0  0  0  0  0  0  0
    9.2009  -15.1952   23.7502 N   0  0  0  0  0  0  0  0  0  0  0  0
    9.4095  -16.2314   22.6880 C   0  0  0  0  0  0  0  0  0  0  0  0
    9.6819  -15.7559   25.0181 O   0  0  0  0  0  0  0  0  0  0  0  0
    8.9561  -16.6059   25.6721 C   0  0  0  0  0  0  0  0  0  0  0  0
    7.5423  -12.6789   24.7244 C   0  0  0  0  0  0  0  0  0  0  0  0
    7.0998  -11.8662   25.7381 N   0  0  0  0  0  0  0  0  0  0  0  0
   10.9085  -15.4891   25.6646 C   0  0  2  0  0  0  0  0  0  0  0  0
   11.0196  -15.3348   27.0951 C   0  0  0  0  0  0  0  0  0  0  0  0
   10.0044  -14.3260   27.6224 S   0  0  0  0  0  0  0  0  0  0  0  0
   10.2985  -14.2048   29.4107 C   0  0  0  0  0  0  0  0  0  0  0  0
   10.7219  -16.5909   27.7728 O   0  0  0  0  0  0  0  0  0  0  0  0
   11.3025  -16.8706   28.8513 O   0  0  0  0  0  0  0  0  0  0  0  0
  1  2  1  0
  2  3  2  0
  4  2  1  0
  4  5  1  0
  6  5  1  0
  7  8  1  0
  7  6  1  0
  8 10  1  0
  8  9  1  6
 10 11  2  0
 12 13  1  0
 13 23  2  0
 13 14  1  0
 14 15  2  0
 15 16  1  0
 16 17  1  0
 18 17  1  6
 19 18  1  0
 19 10  1  0
 20 21  2  0
 20 18  1  0
 22 16  2  0
 23 22  1  0
 24 20  1  0
 25 28  1  0
 25 24  1  0
 25 26  1  6
 27 26  1  0
 28 30  1  0
 29 28  2  0
M  END
$$$$
