RYC.pdb
     RDKit          3D

 30 30  0  0  1  0  0  0  0  0999 V2000
    8.7207  -15.5729   13.1327 N   0  0  0  0  0  0  0  0  0  0  0  0
    7.9933  -14.9729   14.2262 C   0  0  0  0  0  0  0  0  0  0  0  0
    7.3295  -13.8900   14.0234 N   0  0  0  0  0  0  0  0  0  0  0  0
    7.9902  -15.5441   15.5145 N   0  0  0  0  0  0  0  0  0  0  0  0
    7.2992  -14.9133   16.6176 C   0  0  0  0  0  0  0  0  0  0  0  0
    7.4541  -15.8365   17.8177 C   0  0  0  0  0  0  0  0  0  0  0  0
    8.4850  -15.2712   18.7323 C   0  0  0  0  0  0  0  0  0  0  0  0
    8.1404  -13.9334   19.3275 C   0  0  2  0  0  0  0  0  0  0  0  0
    8.8604  -12.8799   18.6433 N   0  0  0  0  0  0  0  0  0  0  0  0
    8.5654  -13.9369   20.7746 C   0  0  0  0  0  0  0  0  0  0  0  0
    9.8067  -13.9256   21.0052 O   0  0  0  0  0  0  0  0  0  0  0  0
    6.6583  -13.4493   14.6593 O   0  0  0  0  0  0  0  0  0  0  0  0
    7.8036  -13.5131   29.6034 C   0  0  0  0  0  0  0  0  0  0  0  0
    7.6221  -13.4353   28.2269 C   0  0  0  0  0  0  0  0  0  0  0  0
    6.7854  -14.3268   27.5798 C   0  0  0  0  0  0  0  0  0  0  0  0
    6.6089  -14.2486   26.2255 C   0  0  0  0  0  0  0  0  0  0  0  0
    7.2576  -13.2797   25.4579 C   0  0  0  0  0  0  0  0  0  0  0  0
    7.0850  -13.2696   24.0105 C   0  0  1  0  0  0  0  0  0  0  0  0
    8.1518  -13.9335   23.2273 N   0  0  0  0  0  0  0  0  0  0  0  0
    7.6312  -13.9525   21.8223 C   0  0  0  0  0  0  0  0  0  0  0  0
    8.4037  -15.3230   23.6264 O   0  0  0  0  0  0  0  0  0  0  0  0
    7.6851  -16.2825   23.1365 C   0  0  0  0  0  0  0  0  0  0  0  0
    8.0830  -12.3983   26.0924 C   0  0  0  0  0  0  0  0  0  0  0  0
    8.2553  -12.4836   27.4515 N   0  0  0  0  0  0  0  0  0  0  0  0
    9.3890  -15.7943   24.5212 C   0  0  2  0  0  0  0  0  0  0  0  0
    9.5558  -17.1936   24.8322 C   0  0  0  0  0  0  0  0  0  0  0  0
   10.3392  -17.9130   23.7390 S   0  0  0  0  0  0  0  0  0  0  0  0
   10.5665  -19.6180   24.3226 C   0  0  0  0  0  0  0  0  0  0  0  0
   10.3329  -17.3600   26.0545 O   0  0  0  0  0  0  0  0  0  0  0  0
   10.7911  -16.3499   26.6447 O   0  0  0  0  0  0  0  0  0  0  0  0
  1  2  1  0
  2  3  2  0
  4  2  1  0
  4  5  1  0
  6  5  1  0
  7  8  1  0
  7  6  1  0
  8 10  1  0
  8  9  1  6
 10 11  2  0
 12 13  1  0
 13 23  2  0
 13 14  1  0
 14 15  2  0
 15 16  1  0
 16 17  1  0
 18 17  1  6
 19 18  1  0
 19 10  1  0
 20 21  2  0
 20 18  1  0
 22 16  2  0
 23 22  1  0
 24 20  1  0
 25 28  1  0
 25 24  1  0
 25 26  1  1
 27 26  1  0
 28 30  1  0
 29 28  2  0
M  END
$$$$
