RYC.pdb
     RDKit          3D

 30 30  0  0  1  0  0  0  0  0999 V2000
   10.2390  -20.9377   24.3104 N   0  0  0  0  0  0  0  0  0  0  0  0
    9.5216  -21.3561   23.1291 C   0  0  0  0  0  0  0  0  0  0  0  0
    8.8883  -22.4756   23.1391 N   0  0  0  0  0  0  0  0  0  0  0  0
    9.4958  -20.5679   21.9612 N   0  0  0  0  0  0  0  0  0  0  0  0
   10.3854  -20.8338   20.8521 C   0  0  0  0  0  0  0  0  0  0  0  0
   10.0475  -19.8218   19.7665 C   0  0  0  0  0  0  0  0  0  0  0  0
   10.6450  -18.5064   20.1294 C   0  0  0  0  0  0  0  0  0  0  0  0
    9.7898  -17.3110   19.8095 C   0  0  2  0  0  0  0  0  0  0  0  0
   10.3509  -16.5770   18.6948 N   0  0  0  0  0  0  0  0  0  0  0  0
    9.7747  -16.4051   21.0154 C   0  0  0  0  0  0  0  0  0  0  0  0
   10.8182  -15.7289   21.2346 O   0  0  0  0  0  0  0  0  0  0  0  0
    8.4468  -22.9421   22.3412 O   0  0  0  0  0  0  0  0  0  0  0  0
    6.3926  -11.7808   27.7825 C   0  0  0  0  0  0  0  0  0  0  0  0
    6.6224  -12.5108   26.6215 C   0  0  0  0  0  0  0  0  0  0  0  0
    6.1619  -13.8103   26.5090 C   0  0  0  0  0  0  0  0  0  0  0  0
    6.3897  -14.5266   25.3660 C   0  0  0  0  0  0  0  0  0  0  0  0
    7.0855  -13.9796   24.2863 C   0  0  0  0  0  0  0  0  0  0  0  0
    7.3551  -14.7984   23.1110 C   0  0  1  0  0  0  0  0  0  0  0  0
    8.7239  -15.3537   23.0097 N   0  0  0  0  0  0  0  0  0  0  0  0
    8.6573  -16.3125   21.8600 C   0  0  0  0  0  0  0  0  0  0  0  0
    9.1468  -16.1096   24.1943 O   0  0  0  0  0  0  0  0  0  0  0  0
    8.5368  -17.2042   24.5212 C   0  0  0  0  0  0  0  0  0  0  0  0
    7.5407  -12.6981   24.3931 C   0  0  0  0  0  0  0  0  0  0  0  0
    7.3085  -11.9863   25.5434 N   0  0  0  0  0  0  0  0  0  0  0  0
   10.1993  -15.7968   25.0820 C   0  0  2  0  0  0  0  0  0  0  0  0
   10.6088  -16.6783   26.1487 C   0  0  0  0  0  0  0  0  0  0  0  0
   12.1064  -16.5653   26.4144 S   0  0  0  0  0  0  0  0  0  0  0  0
   12.9289  -17.0428   24.8668 C   0  0  0  0  0  0  0  0  0  0  0  0
    9.9537  -16.3124   27.3987 O   0  0  0  0  0  0  0  0  0  0  0  0
    9.1833  -15.3204   27.4320 O   0  0  0  0  0  0  0  0  0  0  0  0
  1  2  1  0
  2  3  2  0
  4  2  1  0
  4  5  1  0
  6  5  1  0
  7  8  1  0
  7  6  1  0
  8 10  1  0
  8  9  1  6
 10 11  2  0
 12 13  1  0
 13 23  2  0
 13 14  1  0
 14 15  2  0
 15 16  1  0
 16 17  1  0
 18 17  1  6
 19 18  1  0
 19 10  1  0
 20 21  2  0
 20 18  1  0
 22 16  2  0
 23 22  1  0
 24 20  1  0
 25 28  1  0
 25 24  1  0
 25 26  1  6
 27 26  1  0
 28 30  1  0
 29 28  2  0
M  END
$$$$
