RYC.pdb
     RDKit          3D

 30 30  0  0  1  0  0  0  0  0999 V2000
    8.8841  -22.6785   20.9997 N   0  0  0  0  0  0  0  0  0  0  0  0
    8.9509  -22.1692   19.6502 C   0  0  0  0  0  0  0  0  0  0  0  0
    9.2161  -22.9758   18.6840 N   0  0  0  0  0  0  0  0  0  0  0  0
    8.7319  -20.8073   19.3617 N   0  0  0  0  0  0  0  0  0  0  0  0
    8.1251  -19.9196   20.3293 C   0  0  0  0  0  0  0  0  0  0  0  0
    8.9412  -20.0413   21.6083 C   0  0  0  0  0  0  0  0  0  0  0  0
    9.8993  -18.9029   21.6802 C   0  0  0  0  0  0  0  0  0  0  0  0
    9.3998  -17.6145   21.0857 C   0  0  2  0  0  0  0  0  0  0  0  0
   10.2286  -17.2254   19.9641 N   0  0  0  0  0  0  0  0  0  0  0  0
    9.4932  -16.5405   22.1406 C   0  0  0  0  0  0  0  0  0  0  0  0
   10.6380  -16.0563   22.3626 O   0  0  0  0  0  0  0  0  0  0  0  0
    9.2929  -22.7433   17.6894 O   0  0  0  0  0  0  0  0  0  0  0  0
    6.7283  -10.5975   28.1305 C   0  0  0  0  0  0  0  0  0  0  0  0
    6.8492  -11.5031   27.0822 C   0  0  0  0  0  0  0  0  0  0  0  0
    6.2084  -12.7277   27.1377 C   0  0  0  0  0  0  0  0  0  0  0  0
    6.3292  -13.6172   26.1054 C   0  0  0  0  0  0  0  0  0  0  0  0
    7.0931  -13.3253   24.9739 C   0  0  0  0  0  0  0  0  0  0  0  0
    7.2407  -14.3255   23.9240 C   0  0  1  0  0  0  0  0  0  0  0  0
    8.5556  -15.0029   23.8562 N   0  0  0  0  0  0  0  0  0  0  0  0
    8.3654  -16.0945   22.8473 C   0  0  0  0  0  0  0  0  0  0  0  0
    8.9654  -15.6306   25.1177 O   0  0  0  0  0  0  0  0  0  0  0  0
    8.2710  -16.6024   25.6182 C   0  0  0  0  0  0  0  0  0  0  0  0
    7.7261  -12.1184   24.9151 C   0  0  0  0  0  0  0  0  0  0  0  0
    7.6003  -11.2317   25.9552 N   0  0  0  0  0  0  0  0  0  0  0  0
   10.0884  -15.3100   25.9113 C   0  0  2  0  0  0  0  0  0  0  0  0
   10.4246  -16.0307   27.1155 C   0  0  0  0  0  0  0  0  0  0  0  0
   11.9357  -16.1188   27.3030 S   0  0  0  0  0  0  0  0  0  0  0  0
   12.5769  -16.9622   25.8275 C   0  0  0  0  0  0  0  0  0  0  0  0
    9.9173  -15.3333   28.2911 O   0  0  0  0  0  0  0  0  0  0  0  0
    9.3703  -14.2096   28.1620 O   0  0  0  0  0  0  0  0  0  0  0  0
  1  2  1  0
  2  3  2  0
  4  2  1  0
  4  5  1  0
  6  5  1  0
  7  8  1  0
  7  6  1  0
  8 10  1  0
  8  9  1  6
 10 11  2  0
 12 13  1  0
 13 23  2  0
 13 14  1  0
 14 15  2  0
 15 16  1  0
 16 17  1  0
 18 17  1  6
 19 18  1  0
 19 10  1  0
 20 21  2  0
 20 18  1  0
 22 16  2  0
 23 22  1  0
 24 20  1  0
 25 28  1  0
 25 24  1  0
 25 26  1  6
 27 26  1  0
 28 30  1  0
 29 28  2  0
M  END
$$$$
