RYC.pdb
     RDKit          3D

 30 30  0  0  1  0  0  0  0  0999 V2000
   11.3637  -22.7507   21.6678 N   0  0  0  0  0  0  0  0  0  0  0  0
   11.2192  -22.8576   20.2350 C   0  0  0  0  0  0  0  0  0  0  0  0
   10.8940  -23.9889   19.7165 N   0  0  0  0  0  0  0  0  0  0  0  0
   11.4249  -21.7517   19.3862 N   0  0  0  0  0  0  0  0  0  0  0  0
   11.7746  -20.4510   19.9136 C   0  0  0  0  0  0  0  0  0  0  0  0
   10.5967  -19.9900   20.7603 C   0  0  0  0  0  0  0  0  0  0  0  0
   10.9388  -18.6866   21.3953 C   0  0  0  0  0  0  0  0  0  0  0  0
   10.3274  -17.4802   20.7369 C   0  0  2  0  0  0  0  0  0  0  0  0
   11.1831  -17.0033   19.6707 N   0  0  0  0  0  0  0  0  0  0  0  0
   10.2047  -16.3894   21.7713 C   0  0  0  0  0  0  0  0  0  0  0  0
   11.2368  -15.6978   21.9970 O   0  0  0  0  0  0  0  0  0  0  0  0
   10.7618  -24.1969   18.7223 O   0  0  0  0  0  0  0  0  0  0  0  0
    6.1575  -10.9674   27.5257 C   0  0  0  0  0  0  0  0  0  0  0  0
    6.5039  -11.8242   26.4866 C   0  0  0  0  0  0  0  0  0  0  0  0
    6.0119  -13.1165   26.4515 C   0  0  0  0  0  0  0  0  0  0  0  0
    6.3547  -13.9577   25.4286 C   0  0  0  0  0  0  0  0  0  0  0  0
    7.2015  -13.5481   24.3971 C   0  0  0  0  0  0  0  0  0  0  0  0
    7.5858  -14.4957   23.3583 C   0  0  1  0  0  0  0  0  0  0  0  0
    8.9699  -15.0156   23.4371 N   0  0  0  0  0  0  0  0  0  0  0  0
    9.0034  -16.1478   22.4561 C   0  0  0  0  0  0  0  0  0  0  0  0
    9.3261  -15.5580   24.7534 O   0  0  0  0  0  0  0  0  0  0  0  0
    8.5852  -16.4642   25.3073 C   0  0  0  0  0  0  0  0  0  0  0  0
    7.6883  -12.2741   24.4278 C   0  0  0  0  0  0  0  0  0  0  0  0
    7.3401  -11.4364   25.4578 N   0  0  0  0  0  0  0  0  0  0  0  0
   10.4401  -15.2155   25.5504 C   0  0  2  0  0  0  0  0  0  0  0  0
   10.5709  -15.6272   26.9273 C   0  0  0  0  0  0  0  0  0  0  0  0
    9.5407  -14.9326   27.8119 S   0  0  0  0  0  0  0  0  0  0  0  0
   10.1571  -13.2437   28.0703 C   0  0  0  0  0  0  0  0  0  0  0  0
   10.3146  -17.0560   27.0638 O   0  0  0  0  0  0  0  0  0  0  0  0
    9.9204  -17.7166   26.0704 O   0  0  0  0  0  0  0  0  0  0  0  0
  1  2  1  0
  2  3  2  0
  4  2  1  0
  4  5  1  0
  6  5  1  0
  7  8  1  0
  7  6  1  0
  8 10  1  0
  8  9  1  6
 10 11  2  0
 12 13  1  0
 13 23  2  0
 13 14  1  0
 14 15  2  0
 15 16  1  0
 16 17  1  0
 18 17  1  6
 19 18  1  0
 19 10  1  0
 20 21  2  0
 20 18  1  0
 22 16  2  0
 23 22  1  0
 24 20  1  0
 25 28  1  0
 25 24  1  0
 25 26  1  6
 27 26  1  0
 28 30  1  0
 29 28  2  0
M  END
$$$$
