RYC.pdb
     RDKit          3D

 30 30  0  0  1  0  0  0  0  0999 V2000
    9.9755  -14.3768   14.9953 N   0  0  0  0  0  0  0  0  0  0  0  0
    8.6477  -14.7387   14.5580 C   0  0  0  0  0  0  0  0  0  0  0  0
    8.4914  -15.2924   13.4076 N   0  0  0  0  0  0  0  0  0  0  0  0
    7.5141  -14.5016   15.3610 N   0  0  0  0  0  0  0  0  0  0  0  0
    7.6329  -13.9237   16.6817 C   0  0  0  0  0  0  0  0  0  0  0  0
    8.7178  -14.7070   17.4072 C   0  0  0  0  0  0  0  0  0  0  0  0
    8.6427  -14.4013   18.8631 C   0  0  0  0  0  0  0  0  0  0  0  0
    8.9379  -15.5634   19.7716 C   0  0  2  0  0  0  0  0  0  0  0  0
    7.8015  -16.4590   19.8254 N   0  0  0  0  0  0  0  0  0  0  0  0
    9.1858  -15.0266   21.1592 C   0  0  0  0  0  0  0  0  0  0  0  0
   10.2519  -14.3738   21.3368 O   0  0  0  0  0  0  0  0  0  0  0  0
    7.6114  -15.6076   12.9888 O   0  0  0  0  0  0  0  0  0  0  0  0
    6.6285  -11.0781   28.6003 C   0  0  0  0  0  0  0  0  0  0  0  0
    6.7504  -11.7282   27.3771 C   0  0  0  0  0  0  0  0  0  0  0  0
    6.1130  -12.9366   27.1601 C   0  0  0  0  0  0  0  0  0  0  0  0
    6.2350  -13.5745   25.9561 C   0  0  0  0  0  0  0  0  0  0  0  0
    6.9965  -13.0366   24.9170 C   0  0  0  0  0  0  0  0  0  0  0  0
    7.1455  -13.7786   23.6712 C   0  0  1  0  0  0  0  0  0  0  0  0
    8.4559  -14.4354   23.4623 N   0  0  0  0  0  0  0  0  0  0  0  0
    8.2792  -15.2387   22.2098 C   0  0  0  0  0  0  0  0  0  0  0  0
    8.8326  -15.3630   24.5353 O   0  0  0  0  0  0  0  0  0  0  0  0
    9.1437  -14.9112   25.7084 C   0  0  0  0  0  0  0  0  0  0  0  0
    7.6261  -11.8448   25.1269 C   0  0  0  0  0  0  0  0  0  0  0  0
    7.4993  -11.2113   26.3379 N   0  0  0  0  0  0  0  0  0  0  0  0
    8.9001  -16.7717   24.4682 C   0  0  1  0  0  0  0  0  0  0  0  0
    9.2711  -17.5901   25.5974 C   0  0  0  0  0  0  0  0  0  0  0  0
    8.1661  -18.5811   25.9482 S   0  0  0  0  0  0  0  0  0  0  0  0
    6.6421  -17.9132   25.2197 C   0  0  0  0  0  0  0  0  0  0  0  0
   10.4449  -18.3965   25.2849 O   0  0  0  0  0  0  0  0  0  0  0  0
   10.9547  -18.3377   24.1381 O   0  0  0  0  0  0  0  0  0  0  0  0
  1  2  1  0
  2  3  2  0
  4  2  1  0
  4  5  1  0
  6  5  1  0
  7  8  1  0
  7  6  1  0
  8 10  1  0
  8  9  1  1
 10 11  2  0
 12 13  1  0
 13 23  2  0
 13 14  1  0
 14 15  2  0
 15 16  1  0
 16 17  1  0
 18 17  1  6
 19 18  1  0
 19 10  1  0
 20 21  2  0
 20 18  1  0
 22 16  2  0
 23 22  1  0
 24 20  1  0
 25 28  1  0
 25 24  1  0
 25 26  1  1
 27 26  1  0
 28 30  1  0
 29 28  2  0
M  END
$$$$
