RYC.pdb
     RDKit          3D

 30 30  0  0  1  0  0  0  0  0999 V2000
    8.5019  -16.2883   14.3793 N   0  0  0  0  0  0  0  0  0  0  0  0
    8.1518  -15.1514   15.1978 C   0  0  0  0  0  0  0  0  0  0  0  0
    8.4995  -13.9717   14.8209 N   0  0  0  0  0  0  0  0  0  0  0  0
    7.4360  -15.2996   16.4026 N   0  0  0  0  0  0  0  0  0  0  0  0
    7.8015  -16.3028   17.3784 C   0  0  0  0  0  0  0  0  0  0  0  0
    9.3211  -16.2966   17.4657 C   0  0  0  0  0  0  0  0  0  0  0  0
    9.7235  -15.9669   18.8615 C   0  0  0  0  0  0  0  0  0  0  0  0
    9.2864  -14.6110   19.3445 C   0  0  2  0  0  0  0  0  0  0  0  0
   10.1369  -13.5814   18.7852 N   0  0  0  0  0  0  0  0  0  0  0  0
    9.4247  -14.5776   20.8461 C   0  0  0  0  0  0  0  0  0  0  0  0
   10.5982  -14.5423   21.3107 O   0  0  0  0  0  0  0  0  0  0  0  0
    8.2938  -13.0870   15.2940 O   0  0  0  0  0  0  0  0  0  0  0  0
    6.8086  -12.3551   29.0669 C   0  0  0  0  0  0  0  0  0  0  0  0
    6.9327  -12.6843   27.7215 C   0  0  0  0  0  0  0  0  0  0  0  0
    7.6177  -11.8496   26.8570 C   0  0  0  0  0  0  0  0  0  0  0  0
    7.7379  -12.1753   25.5338 C   0  0  0  0  0  0  0  0  0  0  0  0
    7.1815  -13.3458   25.0150 C   0  0  0  0  0  0  0  0  0  0  0  0
    7.2847  -13.6243   23.5880 C   0  0  1  0  0  0  0  0  0  0  0  0
    8.5268  -14.3000   23.1490 N   0  0  0  0  0  0  0  0  0  0  0  0
    8.3065  -14.5856   21.6946 C   0  0  0  0  0  0  0  0  0  0  0  0
    8.7746  -15.5811   23.8205 O   0  0  0  0  0  0  0  0  0  0  0  0
    8.0340  -16.6099   23.5557 C   0  0  0  0  0  0  0  0  0  0  0  0
    6.5056  -14.1719   25.8645 C   0  0  0  0  0  0  0  0  0  0  0  0
    6.3889  -13.8378   27.1906 N   0  0  0  0  0  0  0  0  0  0  0  0
    9.7774  -15.8728   24.7707 C   0  0  1  0  0  0  0  0  0  0  0  0
    9.9414  -17.1817   25.3558 C   0  0  0  0  0  0  0  0  0  0  0  0
   11.4144  -17.5679   25.4414 S   0  0  0  0  0  0  0  0  0  0  0  0
   11.7847  -18.4793   23.9145 C   0  0  0  0  0  0  0  0  0  0  0  0
    9.4447  -17.1987   26.7264 O   0  0  0  0  0  0  0  0  0  0  0  0
    9.0305  -16.1357   27.2529 O   0  0  0  0  0  0  0  0  0  0  0  0
  1  2  1  0
  2  3  2  0
  4  2  1  0
  4  5  1  0
  6  5  1  0
  7  8  1  0
  7  6  1  0
  8 10  1  0
  8  9  1  6
 10 11  2  0
 12 13  1  0
 13 23  2  0
 13 14  1  0
 14 15  2  0
 15 16  1  0
 16 17  1  0
 18 17  1  6
 19 18  1  0
 19 10  1  0
 20 21  2  0
 20 18  1  0
 22 16  2  0
 23 22  1  0
 24 20  1  0
 25 28  1  0
 25 24  1  0
 25 26  1  1
 27 26  1  0
 28 30  1  0
 29 28  2  0
M  END
$$$$
