RYC.pdb
     RDKit          3D

 30 30  0  0  1  0  0  0  0  0999 V2000
    8.4975  -23.4859   20.2487 N   0  0  0  0  0  0  0  0  0  0  0  0
    8.9701  -23.0536   18.9545 C   0  0  0  0  0  0  0  0  0  0  0  0
    9.8303  -23.7731   18.3245 N   0  0  0  0  0  0  0  0  0  0  0  0
    8.5122  -21.8607   18.3604 N   0  0  0  0  0  0  0  0  0  0  0  0
    8.2040  -20.6922   19.1553 C   0  0  0  0  0  0  0  0  0  0  0  0
    9.4625  -20.3518   19.9408 C   0  0  0  0  0  0  0  0  0  0  0  0
    9.1576  -19.2395   20.8837 C   0  0  0  0  0  0  0  0  0  0  0  0
    9.2481  -17.8607   20.2891 C   0  0  2  0  0  0  0  0  0  0  0  0
   10.4245  -17.7520   19.4521 N   0  0  0  0  0  0  0  0  0  0  0  0
    9.3743  -16.8676   21.4172 C   0  0  0  0  0  0  0  0  0  0  0  0
   10.5433  -16.5889   21.8045 O   0  0  0  0  0  0  0  0  0  0  0  0
   10.2507  -23.5746   17.4119 O   0  0  0  0  0  0  0  0  0  0  0  0
    6.8511  -11.2356   27.7970 C   0  0  0  0  0  0  0  0  0  0  0  0
    6.9421  -12.0321   26.6608 C   0  0  0  0  0  0  0  0  0  0  0  0
    6.2705  -13.2398   26.5970 C   0  0  0  0  0  0  0  0  0  0  0  0
    6.3621  -14.0219   25.4783 C   0  0  0  0  0  0  0  0  0  0  0  0
    7.1259  -13.6350   24.3757 C   0  0  0  0  0  0  0  0  0  0  0  0
    7.2413  -14.5262   23.2280 C   0  0  1  0  0  0  0  0  0  0  0  0
    8.4757  -15.3412   23.1635 N   0  0  0  0  0  0  0  0  0  0  0  0
    8.2500  -16.2764   22.0145 C   0  0  0  0  0  0  0  0  0  0  0  0
    8.7115  -16.1570   24.3603 O   0  0  0  0  0  0  0  0  0  0  0  0
    7.8808  -17.0967   24.6828 C   0  0  0  0  0  0  0  0  0  0  0  0
    7.7892  -12.4445   24.4345 C   0  0  0  0  0  0  0  0  0  0  0  0
    7.6927  -11.6658   25.5607 N   0  0  0  0  0  0  0  0  0  0  0  0
    9.7912  -16.0622   25.2651 C   0  0  2  0  0  0  0  0  0  0  0  0
    9.9819  -16.9910   26.3530 C   0  0  0  0  0  0  0  0  0  0  0  0
   11.4244  -17.4827   26.4132 S   0  0  0  0  0  0  0  0  0  0  0  0
   12.0336  -17.4640   24.7021 C   0  0  0  0  0  0  0  0  0  0  0  0
    9.7283  -16.3423   27.6339 O   0  0  0  0  0  0  0  0  0  0  0  0
    9.4764  -15.1120   27.6709 O   0  0  0  0  0  0  0  0  0  0  0  0
  1  2  1  0
  2  3  2  0
  4  2  1  0
  4  5  1  0
  6  5  1  0
  7  8  1  0
  7  6  1  0
  8 10  1  0
  8  9  1  6
 10 11  2  0
 12 13  1  0
 13 23  2  0
 13 14  1  0
 14 15  2  0
 15 16  1  0
 16 17  1  0
 18 17  1  6
 19 18  1  0
 19 10  1  0
 20 21  2  0
 20 18  1  0
 22 16  2  0
 23 22  1  0
 24 20  1  0
 25 28  1  0
 25 24  1  0
 25 26  1  6
 27 26  1  0
 28 30  1  0
 29 28  2  0
M  END
$$$$
