RYC.pdb
     RDKit          3D

 30 30  0  0  1  0  0  0  0  0999 V2000
    7.8636  -12.7907   17.1283 N   0  0  0  0  0  0  0  0  0  0  0  0
    8.2733  -14.0820   16.6285 C   0  0  0  0  0  0  0  0  0  0  0  0
    9.2885  -14.1611   15.8426 N   0  0  0  0  0  0  0  0  0  0  0  0
    7.5890  -15.2626   16.9803 N   0  0  0  0  0  0  0  0  0  0  0  0
    7.5922  -15.7598   18.3386 C   0  0  0  0  0  0  0  0  0  0  0  0
    8.6132  -16.8875   18.3905 C   0  0  0  0  0  0  0  0  0  0  0  0
    9.7445  -16.4751   19.2673 C   0  0  0  0  0  0  0  0  0  0  0  0
    9.8153  -17.1885   20.5897 C   0  0  2  0  0  0  0  0  0  0  0  0
    8.7149  -18.1210   20.7158 N   0  0  0  0  0  0  0  0  0  0  0  0
    9.6955  -16.1611   21.6874 C   0  0  0  0  0  0  0  0  0  0  0  0
   10.6820  -15.3921   21.8599 O   0  0  0  0  0  0  0  0  0  0  0  0
    9.6394  -14.9994   15.3701 O   0  0  0  0  0  0  0  0  0  0  0  0
    5.9155  -10.7037   27.5704 C   0  0  0  0  0  0  0  0  0  0  0  0
    6.2178  -11.6679   26.6150 C   0  0  0  0  0  0  0  0  0  0  0  0
    7.1942  -11.4295   25.6646 C   0  0  0  0  0  0  0  0  0  0  0  0
    7.4894  -12.3793   24.7254 C   0  0  0  0  0  0  0  0  0  0  0  0
    6.8253  -13.6068   24.6925 C   0  0  0  0  0  0  0  0  0  0  0  0
    7.1320  -14.5663   23.6389 C   0  0  1  0  0  0  0  0  0  0  0  0
    8.5365  -15.0306   23.5757 N   0  0  0  0  0  0  0  0  0  0  0  0
    8.5448  -16.0580   22.4848 C   0  0  0  0  0  0  0  0  0  0  0  0
    9.0014  -15.6841   24.8046 O   0  0  0  0  0  0  0  0  0  0  0  0
    9.2692  -14.9785   25.8570 C   0  0  0  0  0  0  0  0  0  0  0  0
    5.8622  -13.8460   25.6284 C   0  0  0  0  0  0  0  0  0  0  0  0
    5.5714  -12.8876   26.5670 N   0  0  0  0  0  0  0  0  0  0  0  0
    9.2032  -17.0650   25.0194 C   0  0  1  0  0  0  0  0  0  0  0  0
    9.5263  -17.6145   26.3140 C   0  0  0  0  0  0  0  0  0  0  0  0
    8.5948  -18.7677   26.6728 S   0  0  0  0  0  0  0  0  0  0  0  0
    6.9795  -18.0170   27.0285 C   0  0  0  0  0  0  0  0  0  0  0  0
   10.8723  -18.1749   26.3138 O   0  0  0  0  0  0  0  0  0  0  0  0
   11.5657  -18.1317   25.2670 O   0  0  0  0  0  0  0  0  0  0  0  0
  1  2  1  0
  2  3  2  0
  4  2  1  0
  4  5  1  0
  6  5  1  0
  7  8  1  0
  7  6  1  0
  8 10  1  0
  8  9  1  6
 10 11  2  0
 12 13  1  0
 13 23  2  0
 13 14  1  0
 14 15  2  0
 15 16  1  0
 16 17  1  0
 18 17  1  6
 19 18  1  0
 19 10  1  0
 20 21  2  0
 20 18  1  0
 22 16  2  0
 23 22  1  0
 24 20  1  0
 25 28  1  0
 25 24  1  0
 25 26  1  1
 27 26  1  0
 28 30  1  0
 29 28  2  0
M  END
$$$$
