HGN.pdb
     RDKit          3D

 23 23  0  0  1  0  0  0  0  0999 V2000
    9.0782  -15.5855   20.9631 N   0  0  0  0  0  0  0  0  0  0  0  0
    8.5754  -16.3865   19.8771 C   0  0  1  0  0  0  0  0  0  0  0  0
    8.8465  -15.6487   18.5839 C   0  0  0  0  0  0  0  0  0  0  0  0
    8.1217  -14.3379   18.6373 C   0  0  0  0  0  0  0  0  0  0  0  0
    6.9267  -13.9973   18.0352 C   0  0  0  0  0  0  0  0  0  0  0  0
    6.6305  -12.7239   18.3371 N   0  0  0  0  0  0  0  0  0  0  0  0
    7.6110  -12.2381   19.1215 C   0  0  0  0  0  0  0  0  0  0  0  0
    8.5117  -13.2207   19.2999 N   0  0  0  0  0  0  0  0  0  0  0  0
    9.2025  -17.7137   19.9122 C   0  0  0  0  0  0  0  0  0  0  0  0
    9.0566  -18.5474   18.9529 O   0  0  0  0  0  0  0  0  0  0  0  0
   10.0072  -18.1768   20.9900 N   0  0  0  0  0  0  0  0  0  0  0  0
   11.2433  -17.5712   21.3722 C   0  0  0  0  0  0  0  0  0  0  0  0
   11.2613  -17.0747   22.7526 C   0  0  0  0  0  0  0  0  0  0  0  0
   12.3305  -16.6297   23.2358 O   0  0  0  0  0  0  0  0  0  0  0  0
    7.9890  -13.8742   23.2791 N   0  0  0  0  0  0  0  0  0  0  0  0
    8.0883  -15.2541   23.5848 C   0  0  0  0  0  0  0  0  0  0  0  0
    7.7374  -16.0842   22.7155 O   0  0  0  0  0  0  0  0  0  0  0  0
    8.5879  -15.7576   24.8846 C   0  0  0  0  0  0  0  0  0  0  0  0
    9.9683  -16.3551   24.7923 C   0  0  2  0  0  0  0  0  0  0  0  0
   10.0777  -17.0966   23.5381 N   0  0  0  0  0  0  0  0  0  0  0  0
   10.2792  -17.1996   25.9663 C   0  0  0  0  0  0  0  0  0  0  0  0
   10.2994  -16.7378   27.1081 O   0  0  0  0  0  0  0  0  0  0  0  0
   10.5518  -18.5392   25.7603 O   0  0  0  0  0  0  0  0  0  0  0  0
  2  1  1  1
  2  9  1  0
  2  3  1  0
  4  3  1  0
  5  4  2  0
  6  5  1  0
  7  6  1  0
  7  8  2  0
  8  4  1  0
  9 11  1  0
 10  9  2  0
 11 12  1  0
 12 13  1  0
 13 14  2  0
 13 20  1  0
 16 15  1  0
 17 16  2  0
 18 16  1  0
 19 21  1  0
 19 18  1  1
 20 19  1  0
 21 23  1  0
 22 21  2  0
M  END
$$$$
