HGN.pdb
     RDKit          3D

 23 23  0  0  1  0  0  0  0  0999 V2000
    7.8538  -19.4003   19.9114 N   0  0  0  0  0  0  0  0  0  0  0  0
    8.0727  -18.2022   19.1430 C   0  0  1  0  0  0  0  0  0  0  0  0
    6.7677  -17.8273   18.4747 C   0  0  0  0  0  0  0  0  0  0  0  0
    6.4652  -18.8630   17.4344 C   0  0  0  0  0  0  0  0  0  0  0  0
    7.2303  -19.9513   17.0647 C   0  0  0  0  0  0  0  0  0  0  0  0
    6.5943  -20.6256   16.0946 N   0  0  0  0  0  0  0  0  0  0  0  0
    5.4351  -19.9930   15.8324 C   0  0  0  0  0  0  0  0  0  0  0  0
    5.3625  -18.9257   16.6474 N   0  0  0  0  0  0  0  0  0  0  0  0
    8.5835  -17.1409   20.0198 C   0  0  0  0  0  0  0  0  0  0  0  0
    8.8294  -15.9670   19.5748 O   0  0  0  0  0  0  0  0  0  0  0  0
    8.8431  -17.3213   21.4067 N   0  0  0  0  0  0  0  0  0  0  0  0
    9.2973  -16.2773   22.2696 C   0  0  0  0  0  0  0  0  0  0  0  0
    9.4964  -16.6988   23.6606 C   0  0  0  0  0  0  0  0  0  0  0  0
    9.8846  -15.8615   24.5109 O   0  0  0  0  0  0  0  0  0  0  0  0
    6.3621  -19.0112   26.8021 N   0  0  0  0  0  0  0  0  0  0  0  0
    7.1959  -19.1665   25.6672 C   0  0  0  0  0  0  0  0  0  0  0  0
    6.7193  -18.9113   24.5377 O   0  0  0  0  0  0  0  0  0  0  0  0
    8.6037  -19.6166   25.7571 C   0  0  0  0  0  0  0  0  0  0  0  0
    9.5897  -18.5428   25.3756 C   0  0  2  0  0  0  0  0  0  0  0  0
    9.2520  -18.0447   24.0441 N   0  0  0  0  0  0  0  0  0  0  0  0
   10.9849  -19.0287   25.4500 C   0  0  0  0  0  0  0  0  0  0  0  0
   11.4201  -19.8689   24.6613 O   0  0  0  0  0  0  0  0  0  0  0  0
   11.8087  -18.5172   26.4353 O   0  0  0  0  0  0  0  0  0  0  0  0
  2  1  1  1
  2  9  1  0
  2  3  1  0
  4  3  1  0
  5  4  2  0
  6  5  1  0
  7  6  1  0
  7  8  2  0
  8  4  1  0
  9 11  1  0
 10  9  2  0
 11 12  1  0
 12 13  1  0
 13 14  2  0
 13 20  1  0
 16 15  1  0
 17 16  2  0
 18 16  1  0
 19 21  1  0
 19 18  1  6
 20 19  1  0
 21 23  1  0
 22 21  2  0
M  END
$$$$
