HGN.pdb
     RDKit          3D

 23 23  0  0  1  0  0  0  0  0999 V2000
    7.7281  -16.2083   20.7750 N   0  0  0  0  0  0  0  0  0  0  0  0
    9.1085  -16.0850   20.3839 C   0  0  1  0  0  0  0  0  0  0  0  0
    9.3870  -14.6257   20.0957 C   0  0  0  0  0  0  0  0  0  0  0  0
    8.5370  -14.2125   18.9324 C   0  0  0  0  0  0  0  0  0  0  0  0
    7.3104  -13.5788   18.9529 C   0  0  0  0  0  0  0  0  0  0  0  0
    6.8926  -13.3904   17.6918 N   0  0  0  0  0  0  0  0  0  0  0  0
    7.8258  -13.8903   16.8599 C   0  0  0  0  0  0  0  0  0  0  0  0
    8.8197  -14.3871   17.6175 N   0  0  0  0  0  0  0  0  0  0  0  0
    9.9707  -16.6261   21.4421 C   0  0  0  0  0  0  0  0  0  0  0  0
   11.2449  -16.6325   21.3280 O   0  0  0  0  0  0  0  0  0  0  0  0
    9.4762  -17.1770   22.6569 N   0  0  0  0  0  0  0  0  0  0  0  0
   10.3072  -17.7880   23.6452 C   0  0  0  0  0  0  0  0  0  0  0  0
   10.7188  -16.8798   24.7213 C   0  0  0  0  0  0  0  0  0  0  0  0
   11.4304  -15.8823   24.4503 O   0  0  0  0  0  0  0  0  0  0  0  0
   10.0781  -14.8660   30.0481 N   0  0  0  0  0  0  0  0  0  0  0  0
    9.8386  -14.5041   28.6995 C   0  0  0  0  0  0  0  0  0  0  0  0
    9.9054  -13.2935   28.3861 O   0  0  0  0  0  0  0  0  0  0  0  0
    9.5132  -15.4918   27.6455 C   0  0  0  0  0  0  0  0  0  0  0  0
   10.7194  -16.2553   27.1626 C   0  0  2  0  0  0  0  0  0  0  0  0
   10.3157  -17.1262   26.0611 N   0  0  0  0  0  0  0  0  0  0  0  0
   11.3657  -17.0090   28.2591 C   0  0  0  0  0  0  0  0  0  0  0  0
   11.4496  -18.2377   28.2375 O   0  0  0  0  0  0  0  0  0  0  0  0
   11.8837  -16.3019   29.3282 O   0  0  0  0  0  0  0  0  0  0  0  0
  2  1  1  1
  2  9  1  0
  2  3  1  0
  4  3  1  0
  5  4  2  0
  6  5  1  0
  7  6  1  0
  7  8  2  0
  8  4  1  0
  9 11  1  0
 10  9  2  0
 11 12  1  0
 12 13  1  0
 13 14  2  0
 13 20  1  0
 16 15  1  0
 17 16  2  0
 18 16  1  0
 19 21  1  0
 19 18  1  1
 20 19  1  0
 21 23  1  0
 22 21  2  0
M  END
$$$$
