HGN.pdb
     RDKit          3D

 23 23  0  0  1  0  0  0  0  0999 V2000
    9.6283  -17.1890   19.1830 N   0  0  0  0  0  0  0  0  0  0  0  0
   10.1589  -15.9467   19.6816 C   0  0  1  0  0  0  0  0  0  0  0  0
    9.0178  -15.1564   20.2846 C   0  0  0  0  0  0  0  0  0  0  0  0
    8.2594  -14.5096   19.1652 C   0  0  0  0  0  0  0  0  0  0  0  0
    8.5103  -14.5822   17.8094 C   0  0  0  0  0  0  0  0  0  0  0  0
    7.5917  -13.8566   17.1536 N   0  0  0  0  0  0  0  0  0  0  0  0
    6.7545  -13.3184   18.0604 C   0  0  0  0  0  0  0  0  0  0  0  0
    7.1642  -13.7177   19.2775 N   0  0  0  0  0  0  0  0  0  0  0  0
   11.2292  -16.2207   20.6488 C   0  0  0  0  0  0  0  0  0  0  0  0
   11.9071  -15.2754   21.1811 O   0  0  0  0  0  0  0  0  0  0  0  0
   11.5965  -17.5295   21.0679 N   0  0  0  0  0  0  0  0  0  0  0  0
   12.6572  -17.7983   21.9862 C   0  0  0  0  0  0  0  0  0  0  0  0
   12.3287  -17.4896   23.3823 C   0  0  0  0  0  0  0  0  0  0  0  0
   13.2493  -17.4111   24.2314 O   0  0  0  0  0  0  0  0  0  0  0  0
    9.0877  -13.8022   25.1017 N   0  0  0  0  0  0  0  0  0  0  0  0
    9.2130  -15.0510   24.4445 C   0  0  0  0  0  0  0  0  0  0  0  0
    9.2982  -15.0615   23.1952 O   0  0  0  0  0  0  0  0  0  0  0  0
    9.2476  -16.3425   25.1680 C   0  0  0  0  0  0  0  0  0  0  0  0
   10.6095  -16.9873   25.1550 C   0  0  2  0  0  0  0  0  0  0  0  0
   10.9785  -17.2809   23.7721 N   0  0  0  0  0  0  0  0  0  0  0  0
   10.6525  -18.1938   26.0099 C   0  0  0  0  0  0  0  0  0  0  0  0
   10.6714  -18.1152   27.2390 O   0  0  0  0  0  0  0  0  0  0  0  0
   10.6716  -19.4336   25.3986 O   0  0  0  0  0  0  0  0  0  0  0  0
  2  1  1  1
  2  9  1  0
  2  3  1  0
  4  3  1  0
  5  4  2  0
  6  5  1  0
  7  6  1  0
  7  8  2  0
  8  4  1  0
  9 11  1  0
 10  9  2  0
 11 12  1  0
 12 13  1  0
 13 14  2  0
 13 20  1  0
 16 15  1  0
 17 16  2  0
 18 16  1  0
 19 21  1  0
 19 18  1  6
 20 19  1  0
 21 23  1  0
 22 21  2  0
M  END
$$$$
