HGN.pdb
     RDKit          3D

 23 23  0  0  1  0  0  0  0  0999 V2000
    8.8166  -15.5952   23.0816 N   0  0  0  0  0  0  0  0  0  0  0  0
    9.3546  -16.3559   21.9837 C   0  0  1  0  0  0  0  0  0  0  0  0
    9.6902  -15.3937   20.8648 C   0  0  0  0  0  0  0  0  0  0  0  0
    8.5245  -14.4694   20.6830 C   0  0  0  0  0  0  0  0  0  0  0  0
    7.1891  -14.7944   20.5497 C   0  0  0  0  0  0  0  0  0  0  0  0
    6.4751  -13.6673   20.4083 N   0  0  0  0  0  0  0  0  0  0  0  0
    7.3242  -12.6231   20.4480 C   0  0  0  0  0  0  0  0  0  0  0  0
    8.5645  -13.1155   20.6146 N   0  0  0  0  0  0  0  0  0  0  0  0
   10.5218  -17.1212   22.4395 C   0  0  0  0  0  0  0  0  0  0  0  0
   11.2157  -17.8276   21.6295 O   0  0  0  0  0  0  0  0  0  0  0  0
   10.9718  -17.1433   23.7888 N   0  0  0  0  0  0  0  0  0  0  0  0
   12.2908  -16.7689   24.1897 C   0  0  0  0  0  0  0  0  0  0  0  0
   12.5034  -16.8001   25.6410 C   0  0  0  0  0  0  0  0  0  0  0  0
   13.6262  -16.4908   26.1082 O   0  0  0  0  0  0  0  0  0  0  0  0
    8.8710  -12.9695   26.9821 N   0  0  0  0  0  0  0  0  0  0  0  0
    9.6219  -14.0533   27.5005 C   0  0  0  0  0  0  0  0  0  0  0  0
    9.8043  -14.1145   28.7379 O   0  0  0  0  0  0  0  0  0  0  0  0
   10.1998  -15.1154   26.6458 C   0  0  0  0  0  0  0  0  0  0  0  0
   10.8329  -16.2291   27.4392 C   0  0  2  0  0  0  0  0  0  0  0  0
   11.4470  -17.1774   26.5126 N   0  0  0  0  0  0  0  0  0  0  0  0
    9.8581  -16.8832   28.3393 C   0  0  0  0  0  0  0  0  0  0  0  0
    9.5259  -16.3756   29.4113 O   0  0  0  0  0  0  0  0  0  0  0  0
    9.3153  -18.0946   27.9532 O   0  0  0  0  0  0  0  0  0  0  0  0
  2  1  1  1
  2  9  1  0
  2  3  1  0
  4  3  1  0
  5  4  2  0
  6  5  1  0
  7  6  1  0
  7  8  2  0
  8  4  1  0
  9 11  1  0
 10  9  2  0
 11 12  1  0
 12 13  1  0
 13 14  2  0
 13 20  1  0
 16 15  1  0
 17 16  2  0
 18 16  1  0
 19 21  1  0
 19 18  1  6
 20 19  1  0
 21 23  1  0
 22 21  2  0
M  END
$$$$
