HGN.pdb
     RDKit          3D

 23 23  0  0  1  0  0  0  0  0999 V2000
    8.1995  -16.6184   20.4823 N   0  0  0  0  0  0  0  0  0  0  0  0
    7.3548  -15.7804   21.2934 C   0  0  1  0  0  0  0  0  0  0  0  0
    6.2979  -15.1710   20.3979 C   0  0  0  0  0  0  0  0  0  0  0  0
    6.9943  -14.4159   19.3064 C   0  0  0  0  0  0  0  0  0  0  0  0
    8.3515  -14.2974   19.0811 C   0  0  0  0  0  0  0  0  0  0  0  0
    8.5512  -13.5327   17.9968 N   0  0  0  0  0  0  0  0  0  0  0  0
    7.3497  -13.1566   17.5197 C   0  0  0  0  0  0  0  0  0  0  0  0
    6.4103  -13.6948   18.3174 N   0  0  0  0  0  0  0  0  0  0  0  0
    6.7794  -16.5725   22.3876 C   0  0  0  0  0  0  0  0  0  0  0  0
    6.0958  -16.0260   23.3207 O   0  0  0  0  0  0  0  0  0  0  0  0
    6.9285  -17.9826   22.5027 N   0  0  0  0  0  0  0  0  0  0  0  0
    8.0061  -18.7152   21.9173 C   0  0  0  0  0  0  0  0  0  0  0  0
    9.1803  -18.8444   22.7872 C   0  0  0  0  0  0  0  0  0  0  0  0
    9.9479  -19.8273   22.6478 O   0  0  0  0  0  0  0  0  0  0  0  0
    9.8518  -14.9284   22.2403 N   0  0  0  0  0  0  0  0  0  0  0  0
   10.9514  -15.7112   22.6705 C   0  0  0  0  0  0  0  0  0  0  0  0
   11.8143  -16.0425   21.8257 O   0  0  0  0  0  0  0  0  0  0  0  0
   11.1256  -16.1546   24.0725 C   0  0  0  0  0  0  0  0  0  0  0  0
   10.8003  -17.6122   24.2730 C   0  0  2  0  0  0  0  0  0  0  0  0
    9.4479  -17.8650   23.7809 N   0  0  0  0  0  0  0  0  0  0  0  0
   10.9633  -18.0207   25.6853 C   0  0  0  0  0  0  0  0  0  0  0  0
   10.0143  -18.4349   26.3525 O   0  0  0  0  0  0  0  0  0  0  0  0
   12.2190  -17.9295   26.2564 O   0  0  0  0  0  0  0  0  0  0  0  0
  2  1  1  6
  2  9  1  0
  2  3  1  0
  4  3  1  0
  5  4  2  0
  6  5  1  0
  7  6  1  0
  7  8  2  0
  8  4  1  0
  9 11  1  0
 10  9  2  0
 11 12  1  0
 12 13  1  0
 13 14  2  0
 13 20  1  0
 16 15  1  0
 17 16  2  0
 18 16  1  0
 19 21  1  0
 19 18  1  1
 20 19  1  0
 21 23  1  0
 22 21  2  0
M  END
$$$$
