HGN.pdb
     RDKit          3D

 23 23  0  0  1  0  0  0  0  0999 V2000
    8.8892  -14.8633   21.7534 N   0  0  0  0  0  0  0  0  0  0  0  0
    7.4641  -14.7298   21.9115 C   0  0  1  0  0  0  0  0  0  0  0  0
    6.8081  -15.1082   20.6013 C   0  0  0  0  0  0  0  0  0  0  0  0
    7.4211  -14.2735   19.5179 C   0  0  0  0  0  0  0  0  0  0  0  0
    7.3857  -12.9007   19.3737 C   0  0  0  0  0  0  0  0  0  0  0  0
    8.0604  -12.5583   18.2656 N   0  0  0  0  0  0  0  0  0  0  0  0
    8.5295  -13.6833   17.6937 C   0  0  0  0  0  0  0  0  0  0  0  0
    8.1388  -14.7193   18.4570 N   0  0  0  0  0  0  0  0  0  0  0  0
    7.0121  -15.5651   23.0314 C   0  0  0  0  0  0  0  0  0  0  0  0
    5.7928  -15.9375   23.1378 O   0  0  0  0  0  0  0  0  0  0  0  0
    7.8698  -16.0218   24.0703 N   0  0  0  0  0  0  0  0  0  0  0  0
    7.4158  -16.7656   25.2022 C   0  0  0  0  0  0  0  0  0  0  0  0
    8.4434  -16.9753   26.2281 C   0  0  0  0  0  0  0  0  0  0  0  0
    9.3420  -17.8303   26.0375 O   0  0  0  0  0  0  0  0  0  0  0  0
    7.0706  -12.7392   27.3295 N   0  0  0  0  0  0  0  0  0  0  0  0
    8.2892  -13.4231   27.0958 C   0  0  0  0  0  0  0  0  0  0  0  0
    8.7007  -13.5224   25.9173 O   0  0  0  0  0  0  0  0  0  0  0  0
    9.0967  -14.0247   28.1814 C   0  0  0  0  0  0  0  0  0  0  0  0
    9.5690  -15.4190   27.8593 C   0  0  2  0  0  0  0  0  0  0  0  0
    8.4231  -16.2169   27.4291 N   0  0  0  0  0  0  0  0  0  0  0  0
   10.2777  -16.0350   29.0023 C   0  0  0  0  0  0  0  0  0  0  0  0
   11.2578  -15.4984   29.5208 O   0  0  0  0  0  0  0  0  0  0  0  0
    9.8161  -17.2437   29.4893 O   0  0  0  0  0  0  0  0  0  0  0  0
  2  1  1  6
  2  9  1  0
  2  3  1  0
  4  3  1  0
  5  4  2  0
  6  5  1  0
  7  6  1  0
  7  8  2  0
  8  4  1  0
  9 11  1  0
 10  9  2  0
 11 12  1  0
 12 13  1  0
 13 14  2  0
 13 20  1  0
 16 15  1  0
 17 16  2  0
 18 16  1  0
 19 21  1  0
 19 18  1  1
 20 19  1  0
 21 23  1  0
 22 21  2  0
M  END
$$$$
