HGN.pdb
     RDKit          3D

 23 23  0  0  1  0  0  0  0  0999 V2000
   11.7359  -13.7170   19.4115 N   0  0  0  0  0  0  0  0  0  0  0  0
   10.7379  -14.3298   20.2494 C   0  0  1  0  0  0  0  0  0  0  0  0
    9.9838  -15.3443   19.4173 C   0  0  0  0  0  0  0  0  0  0  0  0
    9.0534  -14.5990   18.5088 C   0  0  0  0  0  0  0  0  0  0  0  0
    8.9121  -13.2330   18.3645 C   0  0  0  0  0  0  0  0  0  0  0  0
    7.9678  -12.9842   17.4444 N   0  0  0  0  0  0  0  0  0  0  0  0
    7.4983  -14.1629   16.9936 C   0  0  0  0  0  0  0  0  0  0  0  0
    8.1599  -15.1376   17.6423 N   0  0  0  0  0  0  0  0  0  0  0  0
   11.3820  -14.9300   21.4245 C   0  0  0  0  0  0  0  0  0  0  0  0
   12.5656  -15.4116   21.3649 O   0  0  0  0  0  0  0  0  0  0  0  0
   10.7608  -15.0259   22.7007 N   0  0  0  0  0  0  0  0  0  0  0  0
   11.4288  -15.4949   23.8731 C   0  0  0  0  0  0  0  0  0  0  0  0
   10.9538  -16.7993   24.3475 C   0  0  0  0  0  0  0  0  0  0  0  0
    9.7324  -17.0775   24.2721 O   0  0  0  0  0  0  0  0  0  0  0  0
   10.9530  -22.4010   24.3591 N   0  0  0  0  0  0  0  0  0  0  0  0
   11.6878  -21.4805   25.1465 C   0  0  0  0  0  0  0  0  0  0  0  0
   12.0234  -21.8207   26.3039 O   0  0  0  0  0  0  0  0  0  0  0  0
   12.0761  -20.1361   24.6624 C   0  0  0  0  0  0  0  0  0  0  0  0
   11.4254  -19.0209   25.4395 C   0  0  2  0  0  0  0  0  0  0  0  0
   11.8684  -17.7421   24.8887 N   0  0  0  0  0  0  0  0  0  0  0  0
   11.7033  -19.1282   26.8884 C   0  0  0  0  0  0  0  0  0  0  0  0
   12.7804  -18.7724   27.3685 O   0  0  0  0  0  0  0  0  0  0  0  0
   10.7188  -19.6429   27.7114 O   0  0  0  0  0  0  0  0  0  0  0  0
  2  1  1  6
  2  9  1  0
  2  3  1  0
  4  3  1  0
  5  4  2  0
  6  5  1  0
  7  6  1  0
  7  8  2  0
  8  4  1  0
  9 11  1  0
 10  9  2  0
 11 12  1  0
 12 13  1  0
 13 14  2  0
 13 20  1  0
 16 15  1  0
 17 16  2  0
 18 16  1  0
 19 21  1  0
 19 18  1  6
 20 19  1  0
 21 23  1  0
 22 21  2  0
M  END
$$$$
