HGN.pdb
     RDKit          3D

 23 23  0  0  1  0  0  0  0  0999 V2000
   11.0272  -20.8921   18.0485 N   0  0  0  0  0  0  0  0  0  0  0  0
   11.4602  -19.5195   18.0933 C   0  0  1  0  0  0  0  0  0  0  0  0
   11.2360  -18.9109   16.7260 C   0  0  0  0  0  0  0  0  0  0  0  0
   12.0972  -19.6464   15.7443 C   0  0  0  0  0  0  0  0  0  0  0  0
   11.7002  -20.4406   14.6868 C   0  0  0  0  0  0  0  0  0  0  0  0
   12.7885  -20.9104   14.0581 N   0  0  0  0  0  0  0  0  0  0  0  0
   13.8781  -20.4345   14.6899 C   0  0  0  0  0  0  0  0  0  0  0  0
   13.4527  -19.6693   15.7107 N   0  0  0  0  0  0  0  0  0  0  0  0
   10.7352  -18.8083   19.1538 C   0  0  0  0  0  0  0  0  0  0  0  0
    9.6338  -19.2559   19.6263 O   0  0  0  0  0  0  0  0  0  0  0  0
   11.1835  -17.5893   19.7340 N   0  0  0  0  0  0  0  0  0  0  0  0
   10.5415  -16.9569   20.8425 C   0  0  0  0  0  0  0  0  0  0  0  0
   11.0145  -17.4242   22.1503 C   0  0  0  0  0  0  0  0  0  0  0  0
   11.3870  -18.6150   22.2838 O   0  0  0  0  0  0  0  0  0  0  0  0
   14.4061  -16.3314   22.4005 N   0  0  0  0  0  0  0  0  0  0  0  0
   13.9523  -17.0122   23.5572 C   0  0  0  0  0  0  0  0  0  0  0  0
   14.3124  -18.1989   23.7303 O   0  0  0  0  0  0  0  0  0  0  0  0
   13.0725  -16.3839   24.5689 C   0  0  0  0  0  0  0  0  0  0  0  0
   11.6620  -16.9131   24.5314 C   0  0  2  0  0  0  0  0  0  0  0  0
   11.0512  -16.5363   23.2587 N   0  0  0  0  0  0  0  0  0  0  0  0
   10.8698  -16.4434   25.6889 C   0  0  0  0  0  0  0  0  0  0  0  0
   10.2796  -15.3623   25.6729 O   0  0  0  0  0  0  0  0  0  0  0  0
   10.7997  -17.2498   26.8097 O   0  0  0  0  0  0  0  0  0  0  0  0
  2  1  1  6
  2  9  1  0
  2  3  1  0
  4  3  1  0
  5  4  2  0
  6  5  1  0
  7  6  1  0
  7  8  2  0
  8  4  1  0
  9 11  1  0
 10  9  2  0
 11 12  1  0
 12 13  1  0
 13 14  2  0
 13 20  1  0
 16 15  1  0
 17 16  2  0
 18 16  1  0
 19 21  1  0
 19 18  1  1
 20 19  1  0
 21 23  1  0
 22 21  2  0
M  END
$$$$
