HGN.pdb
     RDKit          3D

 23 23  0  0  1  0  0  0  0  0999 V2000
    7.5308  -17.0583   20.3819 N   0  0  0  0  0  0  0  0  0  0  0  0
    7.3562  -16.0109   21.3546 C   0  0  1  0  0  0  0  0  0  0  0  0
    6.4928  -14.9333   20.7354 C   0  0  0  0  0  0  0  0  0  0  0  0
    7.3956  -13.9527   20.0500 C   0  0  0  0  0  0  0  0  0  0  0  0
    8.7665  -14.0159   19.8972 C   0  0  0  0  0  0  0  0  0  0  0  0
    9.1829  -12.9346   19.2207 N   0  0  0  0  0  0  0  0  0  0  0  0
    8.1074  -12.1766   18.9350 C   0  0  0  0  0  0  0  0  0  0  0  0
    7.0274  -12.7988   19.4400 N   0  0  0  0  0  0  0  0  0  0  0  0
    6.7706  -16.5690   22.5800 C   0  0  0  0  0  0  0  0  0  0  0  0
    5.5612  -16.9845   22.6137 O   0  0  0  0  0  0  0  0  0  0  0  0
    7.4801  -16.6933   23.8068 N   0  0  0  0  0  0  0  0  0  0  0  0
    6.9407  -17.3163   24.9737 C   0  0  0  0  0  0  0  0  0  0  0  0
    7.8417  -17.2932   26.1313 C   0  0  0  0  0  0  0  0  0  0  0  0
    7.4627  -17.7896   27.2198 O   0  0  0  0  0  0  0  0  0  0  0  0
   10.9768  -15.0524   29.5335 N   0  0  0  0  0  0  0  0  0  0  0  0
    9.7237  -14.5918   29.0595 C   0  0  0  0  0  0  0  0  0  0  0  0
    9.1299  -13.7026   29.7112 O   0  0  0  0  0  0  0  0  0  0  0  0
    9.0857  -15.1143   27.8297 C   0  0  0  0  0  0  0  0  0  0  0  0
    9.8672  -16.2340   27.1921 C   0  0  2  0  0  0  0  0  0  0  0  0
    9.1342  -16.7137   26.0228 N   0  0  0  0  0  0  0  0  0  0  0  0
   10.1513  -17.3209   28.1545 C   0  0  0  0  0  0  0  0  0  0  0  0
    9.9222  -17.1953   29.3582 O   0  0  0  0  0  0  0  0  0  0  0  0
   10.6875  -18.5015   27.6750 O   0  0  0  0  0  0  0  0  0  0  0  0
  2  1  1  6
  2  9  1  0
  2  3  1  0
  4  3  1  0
  5  4  2  0
  6  5  1  0
  7  6  1  0
  7  8  2  0
  8  4  1  0
  9 11  1  0
 10  9  2  0
 11 12  1  0
 12 13  1  0
 13 14  2  0
 13 20  1  0
 16 15  1  0
 17 16  2  0
 18 16  1  0
 19 21  1  0
 19 18  1  1
 20 19  1  0
 21 23  1  0
 22 21  2  0
M  END
$$$$
