HGN.pdb
     RDKit          3D

 23 23  0  0  1  0  0  0  0  0999 V2000
   11.8397  -14.3981   20.0618 N   0  0  0  0  0  0  0  0  0  0  0  0
   10.6755  -14.9404   20.7131 C   0  0  1  0  0  0  0  0  0  0  0  0
    9.7547  -15.4927   19.6468 C   0  0  0  0  0  0  0  0  0  0  0  0
    9.1864  -14.3366   18.8807 C   0  0  0  0  0  0  0  0  0  0  0  0
    9.5318  -13.0025   18.9665 C   0  0  0  0  0  0  0  0  0  0  0  0
    8.7802  -12.2984   18.1065 N   0  0  0  0  0  0  0  0  0  0  0  0
    7.9578  -13.1527   17.4688 C   0  0  0  0  0  0  0  0  0  0  0  0
    8.2086  -14.3862   17.9422 N   0  0  0  0  0  0  0  0  0  0  0  0
   11.0857  -15.9589   21.6879 C   0  0  0  0  0  0  0  0  0  0  0  0
   12.2385  -16.5109   21.6329 O   0  0  0  0  0  0  0  0  0  0  0  0
   10.2570  -16.4097   22.7527 N   0  0  0  0  0  0  0  0  0  0  0  0
   10.6641  -17.3838   23.7149 C   0  0  0  0  0  0  0  0  0  0  0  0
   11.2343  -16.8098   24.9388 C   0  0  0  0  0  0  0  0  0  0  0  0
   12.0154  -15.8311   24.8571 O   0  0  0  0  0  0  0  0  0  0  0  0
    8.8376  -13.6557   28.7080 N   0  0  0  0  0  0  0  0  0  0  0  0
    9.9637  -14.4550   28.3913 C   0  0  0  0  0  0  0  0  0  0  0  0
   10.9668  -14.3948   29.1385 O   0  0  0  0  0  0  0  0  0  0  0  0
   10.0074  -15.3570   27.2179 C   0  0  0  0  0  0  0  0  0  0  0  0
   10.9097  -16.5463   27.4238 C   0  0  2  0  0  0  0  0  0  0  0  0
   10.9056  -17.3567   26.2081 N   0  0  0  0  0  0  0  0  0  0  0  0
   10.5192  -17.3302   28.6159 C   0  0  0  0  0  0  0  0  0  0  0  0
   10.9422  -17.0533   29.7391 O   0  0  0  0  0  0  0  0  0  0  0  0
    9.6569  -18.3978   28.4485 O   0  0  0  0  0  0  0  0  0  0  0  0
  2  1  1  6
  2  9  1  0
  2  3  1  0
  4  3  1  0
  5  4  2  0
  6  5  1  0
  7  6  1  0
  7  8  2  0
  8  4  1  0
  9 11  1  0
 10  9  2  0
 11 12  1  0
 12 13  1  0
 13 14  2  0
 13 20  1  0
 16 15  1  0
 17 16  2  0
 18 16  1  0
 19 21  1  0
 19 18  1  6
 20 19  1  0
 21 23  1  0
 22 21  2  0
M  END
$$$$
