HGN.pdb
     RDKit          3D

 23 23  0  0  1  0  0  0  0  0999 V2000
    9.3181  -16.1569   21.6518 N   0  0  0  0  0  0  0  0  0  0  0  0
    9.2227  -16.8151   20.3745 C   0  0  1  0  0  0  0  0  0  0  0  0
    9.5102  -15.7930   19.2962 C   0  0  0  0  0  0  0  0  0  0  0  0
    8.5795  -14.6351   19.4950 C   0  0  0  0  0  0  0  0  0  0  0  0
    7.2686  -14.5115   19.0793 C   0  0  0  0  0  0  0  0  0  0  0  0
    6.7977  -13.3149   19.4623 N   0  0  0  0  0  0  0  0  0  0  0  0
    7.7793  -12.6658   20.1163 C   0  0  0  0  0  0  0  0  0  0  0  0
    8.8565  -13.4707   20.1329 N   0  0  0  0  0  0  0  0  0  0  0  0
   10.1501  -17.9528   20.3358 C   0  0  0  0  0  0  0  0  0  0  0  0
   11.3928  -17.8115   20.6046 O   0  0  0  0  0  0  0  0  0  0  0  0
    9.7569  -19.2791   20.0042 N   0  0  0  0  0  0  0  0  0  0  0  0
   10.6624  -20.3825   19.9474 C   0  0  0  0  0  0  0  0  0  0  0  0
   11.1425  -20.8271   21.2605 C   0  0  0  0  0  0  0  0  0  0  0  0
   11.0113  -22.0302   21.5920 O   0  0  0  0  0  0  0  0  0  0  0  0
   14.3923  -21.7858   22.2535 N   0  0  0  0  0  0  0  0  0  0  0  0
   14.6978  -20.6009   22.9676 C   0  0  0  0  0  0  0  0  0  0  0  0
   15.8964  -20.2484   23.0529 O   0  0  0  0  0  0  0  0  0  0  0  0
   13.6647  -19.7621   23.6167 C   0  0  0  0  0  0  0  0  0  0  0  0
   12.2718  -20.3138   23.4539 C   0  0  2  0  0  0  0  0  0  0  0  0
   11.7519  -19.9036   22.1516 N   0  0  0  0  0  0  0  0  0  0  0  0
   11.3850  -19.8983   24.5625 C   0  0  0  0  0  0  0  0  0  0  0  0
   10.4277  -19.1455   24.3776 O   0  0  0  0  0  0  0  0  0  0  0  0
   11.6506  -20.3756   25.8326 O   0  0  0  0  0  0  0  0  0  0  0  0
  2  1  1  1
  2  9  1  0
  2  3  1  0
  4  3  1  0
  5  4  2  0
  6  5  1  0
  7  6  1  0
  7  8  2  0
  8  4  1  0
  9 11  1  0
 10  9  2  0
 11 12  1  0
 12 13  1  0
 13 14  2  0
 13 20  1  0
 16 15  1  0
 17 16  2  0
 18 16  1  0
 19 21  1  0
 19 18  1  1
 20 19  1  0
 21 23  1  0
 22 21  2  0
M  END
$$$$
