HGN.pdb
     RDKit          3D

 23 23  0  0  1  0  0  0  0  0999 V2000
    8.8379  -15.8477   20.9981 N   0  0  0  0  0  0  0  0  0  0  0  0
    8.1602  -14.8330   21.7627 C   0  0  1  0  0  0  0  0  0  0  0  0
    6.9144  -14.4271   21.0054 C   0  0  0  0  0  0  0  0  0  0  0  0
    7.3269  -14.0005   19.6291 C   0  0  0  0  0  0  0  0  0  0  0  0
    7.8726  -12.7945   19.2360 C   0  0  0  0  0  0  0  0  0  0  0  0
    8.0959  -12.8242   17.9133 N   0  0  0  0  0  0  0  0  0  0  0  0
    7.7049  -14.0253   17.4471 C   0  0  0  0  0  0  0  0  0  0  0  0
    7.2399  -14.7336   18.4914 N   0  0  0  0  0  0  0  0  0  0  0  0
    7.8626  -15.3448   23.1064 C   0  0  0  0  0  0  0  0  0  0  0  0
    7.2299  -14.6390   23.9655 O   0  0  0  0  0  0  0  0  0  0  0  0
    8.2429  -16.6387   23.5589 N   0  0  0  0  0  0  0  0  0  0  0  0
    8.1334  -17.0662   24.9176 C   0  0  0  0  0  0  0  0  0  0  0  0
    9.2008  -16.5615   25.7884 C   0  0  0  0  0  0  0  0  0  0  0  0
   10.3160  -16.2685   25.2934 O   0  0  0  0  0  0  0  0  0  0  0  0
    8.1278  -12.9666   27.5828 N   0  0  0  0  0  0  0  0  0  0  0  0
    9.3880  -13.5856   27.7723 C   0  0  0  0  0  0  0  0  0  0  0  0
   10.3566  -13.1888   27.0850 O   0  0  0  0  0  0  0  0  0  0  0  0
    9.6105  -14.6792   28.7454 C   0  0  0  0  0  0  0  0  0  0  0  0
   10.0322  -15.9703   28.0926 C   0  0  2  0  0  0  0  0  0  0  0  0
    8.9752  -16.4051   27.1823 N   0  0  0  0  0  0  0  0  0  0  0  0
   10.3650  -17.0072   29.0937 C   0  0  0  0  0  0  0  0  0  0  0  0
   11.2566  -16.8394   29.9269 O   0  0  0  0  0  0  0  0  0  0  0  0
    9.6479  -18.1891   29.0809 O   0  0  0  0  0  0  0  0  0  0  0  0
  2  1  1  6
  2  9  1  0
  2  3  1  0
  4  3  1  0
  5  4  2  0
  6  5  1  0
  7  6  1  0
  7  8  2  0
  8  4  1  0
  9 11  1  0
 10  9  2  0
 11 12  1  0
 12 13  1  0
 13 14  2  0
 13 20  1  0
 16 15  1  0
 17 16  2  0
 18 16  1  0
 19 21  1  0
 19 18  1  1
 20 19  1  0
 21 23  1  0
 22 21  2  0
M  END
$$$$
