LPE.pdb
     RDKit          3D

 25 25  0  0  1  0  0  0  0  0999 V2000
   23.1313  -12.9993  -20.1949 C   0  0  0  0  0  0  0  0  0  0  0  0
   22.0043  -12.0788  -20.5428 C   0  0  2  0  0  0  0  0  0  0  0  0
   22.2200  -11.3684  -21.8601 C   0  0  0  0  0  0  0  0  0  0  0  0
   21.6736  -11.1286  -19.4129 C   0  0  0  0  0  0  0  0  0  0  0  0
   21.2906  -11.9861  -18.2206 C   0  0  2  0  0  0  0  0  0  0  0  0
   20.0458  -12.6525  -18.5825 N   0  0  0  0  0  0  0  0  0  0  0  0
   21.0718  -11.1900  -17.0030 C   0  0  0  0  0  0  0  0  0  0  0  0
   19.8930  -10.8037  -16.7162 O   0  0  0  0  0  0  0  0  0  0  0  0
   22.1563  -10.8488  -16.1479 N   0  0  0  0  0  0  0  0  0  0  0  0
   23.5103  -11.3233  -16.2885 C   0  0  0  0  0  0  0  0  0  0  0  0
   23.9868  -11.4559  -14.8365 C   0  0  0  0  0  0  0  0  0  0  0  0
   23.0132  -10.6721  -14.0151 C   0  0  0  0  0  0  0  0  0  0  0  0
   22.1432   -9.9738  -14.9958 C   0  0  1  0  0  0  0  0  0  0  0  0
   22.6300   -8.6407  -15.4244 C   0  0  0  0  0  0  0  0  0  0  0  0
   23.3203   -8.5456  -16.4544 O   0  0  0  0  0  0  0  0  0  0  0  0
   22.3044   -7.5146  -14.6645 N   0  0  0  0  0  0  0  0  0  0  0  0
   22.4840   -6.1744  -15.2434 C   0  0  1  0  0  0  0  0  0  0  0  0
   21.5684   -6.1642  -16.4380 C   0  0  0  0  0  0  0  0  0  0  0  0
   20.1249   -5.9202  -16.1991 C   0  0  0  0  0  0  0  0  0  0  0  0
   19.3717   -5.7413  -17.4395 C   0  0  0  0  0  0  0  0  0  0  0  0
   19.4358   -4.6179  -18.0354 O   0  0  0  0  0  0  0  0  0  0  0  0
   22.2716   -5.0923  -14.3170 C   0  0  0  0  0  0  0  0  0  0  0  0
   21.6097   -5.3047  -13.2434 O   0  0  0  0  0  0  0  0  0  0  0  0
   18.6034   -6.7363  -17.9792 O   0  0  0  0  0  0  0  0  0  0  0  0
   22.7374   -3.7904  -14.4686 O   0  0  0  0  0  0  0  0  0  0  0  0
  2  1  1  1
  3  2  1  0
  4  2  1  0
  4  5  1  0
  5  6  1  6
  7  5  1  0
  7  8  2  0
  9  7  1  0
 10  9  1  0
 11 12  1  0
 11 10  1  0
 12 13  1  0
 13  9  1  0
 13 14  1  6
 14 16  1  0
 15 14  2  0
 17 16  1  0
 17 22  1  0
 17 18  1  6
 19 18  1  0
 20 19  1  0
 21 20  2  0
 22 23  2  0
 22 25  1  0
 24 20  1  0
M  END
$$$$
