LPE.pdb
     RDKit          3D

 25 25  0  0  1  0  0  0  0  0999 V2000
   20.7941  -15.3837  -21.7953 C   0  0  0  0  0  0  0  0  0  0  0  0
   21.8645  -16.0429  -20.9839 C   0  0  2  0  0  0  0  0  0  0  0  0
   23.2409  -15.8651  -21.5842 C   0  0  0  0  0  0  0  0  0  0  0  0
   21.5412  -17.4893  -20.6797 C   0  0  0  0  0  0  0  0  0  0  0  0
   22.7566  -18.0695  -19.9799 C   0  0  2  0  0  0  0  0  0  0  0  0
   23.4475  -18.8826  -20.9729 N   0  0  0  0  0  0  0  0  0  0  0  0
   22.3936  -18.9177  -18.8341 C   0  0  0  0  0  0  0  0  0  0  0  0
   22.3133  -20.1782  -18.9944 O   0  0  0  0  0  0  0  0  0  0  0  0
   22.1326  -18.3485  -17.5567 N   0  0  0  0  0  0  0  0  0  0  0  0
   22.1047  -16.9375  -17.2625 C   0  0  0  0  0  0  0  0  0  0  0  0
   22.6688  -16.8663  -15.8378 C   0  0  0  0  0  0  0  0  0  0  0  0
   22.5933  -18.2597  -15.2997 C   0  0  0  0  0  0  0  0  0  0  0  0
   21.8381  -19.0344  -16.3174 C   0  0  1  0  0  0  0  0  0  0  0  0
   20.3671  -19.0403  -16.1328 C   0  0  0  0  0  0  0  0  0  0  0  0
   19.6850  -18.1328  -16.6400 O   0  0  0  0  0  0  0  0  0  0  0  0
   19.7728  -20.0657  -15.3930 N   0  0  0  0  0  0  0  0  0  0  0  0
   18.3072  -20.1908  -15.3775 C   0  0  1  0  0  0  0  0  0  0  0  0
   18.0657  -21.6743  -15.2978 C   0  0  0  0  0  0  0  0  0  0  0  0
   16.6627  -22.1500  -15.3710 C   0  0  0  0  0  0  0  0  0  0  0  0
   16.5590  -23.6074  -15.3145 C   0  0  0  0  0  0  0  0  0  0  0  0
   17.6182  -24.2871  -15.1214 O   0  0  0  0  0  0  0  0  0  0  0  0
   17.6549  -19.4219  -14.3492 C   0  0  0  0  0  0  0  0  0  0  0  0
   18.3069  -19.0972  -13.2979 O   0  0  0  0  0  0  0  0  0  0  0  0
   15.3673  -24.2626  -15.4616 O   0  0  0  0  0  0  0  0  0  0  0  0
   16.3401  -18.9689  -14.3847 O   0  0  0  0  0  0  0  0  0  0  0  0
  2  1  1  6
  3  2  1  0
  4  2  1  0
  4  5  1  0
  5  6  1  6
  7  5  1  0
  7  8  2  0
  9  7  1  0
 10  9  1  0
 11 12  1  0
 11 10  1  0
 12 13  1  0
 13  9  1  0
 13 14  1  1
 14 16  1  0
 15 14  2  0
 17 16  1  0
 17 22  1  0
 17 18  1  1
 19 18  1  0
 20 19  1  0
 21 20  2  0
 22 23  2  0
 22 25  1  0
 24 20  1  0
M  END
$$$$
