LPE.pdb
     RDKit          3D

 25 25  0  0  1  0  0  0  0  0999 V2000
   28.5715  -15.8792  -16.4076 C   0  0  0  0  0  0  0  0  0  0  0  0
   27.1990  -16.1384  -16.9439 C   0  0  2  0  0  0  0  0  0  0  0  0
   26.3706  -14.8782  -17.0535 C   0  0  0  0  0  0  0  0  0  0  0  0
   26.4898  -17.2410  -16.1887 C   0  0  0  0  0  0  0  0  0  0  0  0
   27.2156  -18.5323  -16.5196 C   0  0  2  0  0  0  0  0  0  0  0  0
   26.8334  -18.8751  -17.8838 N   0  0  0  0  0  0  0  0  0  0  0  0
   26.8360  -19.6356  -15.6236 C   0  0  0  0  0  0  0  0  0  0  0  0
   25.9180  -20.4411  -15.9837 O   0  0  0  0  0  0  0  0  0  0  0  0
   27.4791  -19.8113  -14.3670 N   0  0  0  0  0  0  0  0  0  0  0  0
   28.4844  -18.9376  -13.8154 C   0  0  0  0  0  0  0  0  0  0  0  0
   29.4084  -19.9010  -13.0597 C   0  0  0  0  0  0  0  0  0  0  0  0
   28.6364  -21.1733  -12.9109 C   0  0  0  0  0  0  0  0  0  0  0  0
   27.2671  -20.8618  -13.3951 C   0  0  1  0  0  0  0  0  0  0  0  0
   26.3395  -20.3495  -12.3583 C   0  0  0  0  0  0  0  0  0  0  0  0
   26.4385  -19.1689  -11.9809 O   0  0  0  0  0  0  0  0  0  0  0  0
   25.3699  -21.2016  -11.8239 N   0  0  0  0  0  0  0  0  0  0  0  0
   24.3304  -20.6512  -10.9406 C   0  0  1  0  0  0  0  0  0  0  0  0
   23.0404  -20.9715  -11.6468 C   0  0  0  0  0  0  0  0  0  0  0  0
   21.7730  -20.6092  -10.9666 C   0  0  0  0  0  0  0  0  0  0  0  0
   20.5962  -20.8660  -11.7956 C   0  0  0  0  0  0  0  0  0  0  0  0
   20.7656  -21.3419  -12.9643 O   0  0  0  0  0  0  0  0  0  0  0  0
   24.3990  -21.1156   -9.5791 C   0  0  0  0  0  0  0  0  0  0  0  0
   25.0086  -22.2092   -9.3179 O   0  0  0  0  0  0  0  0  0  0  0  0
   19.3245  -20.6130  -11.3596 O   0  0  0  0  0  0  0  0  0  0  0  0
   23.8584  -20.4692   -8.4724 O   0  0  0  0  0  0  0  0  0  0  0  0
  2  1  1  1
  3  2  1  0
  4  2  1  0
  4  5  1  0
  5  6  1  6
  7  5  1  0
  7  8  2  0
  9  7  1  0
 10  9  1  0
 11 12  1  0
 11 10  1  0
 12 13  1  0
 13  9  1  0
 13 14  1  1
 14 16  1  0
 15 14  2  0
 17 16  1  0
 17 22  1  0
 17 18  1  6
 19 18  1  0
 20 19  1  0
 21 20  2  0
 22 23  2  0
 22 25  1  0
 24 20  1  0
M  END
$$$$
