LPE.pdb
     RDKit          3D

 25 25  0  0  1  0  0  0  0  0999 V2000
   16.0986  -12.7372  -18.3915 C   0  0  0  0  0  0  0  0  0  0  0  0
   16.5199  -12.6369  -16.9594 C   0  0  2  0  0  0  0  0  0  0  0  0
   15.3568  -12.3785  -16.0285 C   0  0  0  0  0  0  0  0  0  0  0  0
   17.6540  -11.6545  -16.7655 C   0  0  0  0  0  0  0  0  0  0  0  0
   18.8722  -12.2563  -17.4418 C   0  0  2  0  0  0  0  0  0  0  0  0
   19.2101  -13.4525  -16.6805 N   0  0  0  0  0  0  0  0  0  0  0  0
   20.0257  -11.3433  -17.4374 C   0  0  0  0  0  0  0  0  0  0  0  0
   20.9686  -11.5368  -16.6038 O   0  0  0  0  0  0  0  0  0  0  0  0
   20.0989  -10.2532  -18.3484 N   0  0  0  0  0  0  0  0  0  0  0  0
   19.1462   -9.9749  -19.3939 C   0  0  0  0  0  0  0  0  0  0  0  0
   20.0183   -9.4013  -20.5180 C   0  0  0  0  0  0  0  0  0  0  0  0
   21.3180   -9.0316  -19.8768 C   0  0  0  0  0  0  0  0  0  0  0  0
   21.1036   -9.2146  -18.4184 C   0  0  1  0  0  0  0  0  0  0  0  0
   20.5827   -8.0215  -17.7091 C   0  0  0  0  0  0  0  0  0  0  0  0
   19.3555   -7.8256  -17.6649 O   0  0  0  0  0  0  0  0  0  0  0  0
   21.4792   -7.1385  -17.1022 N   0  0  0  0  0  0  0  0  0  0  0  0
   20.9614   -6.0045  -16.3215 C   0  0  1  0  0  0  0  0  0  0  0  0
   21.6488   -6.1314  -14.9885 C   0  0  0  0  0  0  0  0  0  0  0  0
   21.3408   -5.1144  -13.9537 C   0  0  0  0  0  0  0  0  0  0  0  0
   22.0457   -5.3597  -12.6963 C   0  0  0  0  0  0  0  0  0  0  0  0
   22.9978   -4.5804  -12.3688 O   0  0  0  0  0  0  0  0  0  0  0  0
   21.1199   -4.7221  -16.9573 C   0  0  0  0  0  0  0  0  0  0  0  0
   20.2601   -3.8010  -16.7379 O   0  0  0  0  0  0  0  0  0  0  0  0
   21.7180   -6.3942  -11.8634 O   0  0  0  0  0  0  0  0  0  0  0  0
   22.1568   -4.3621  -17.8119 O   0  0  0  0  0  0  0  0  0  0  0  0
  2  1  1  6
  3  2  1  0
  4  2  1  0
  4  5  1  0
  5  6  1  1
  7  5  1  0
  7  8  2  0
  9  7  1  0
 10  9  1  0
 11 12  1  0
 11 10  1  0
 12 13  1  0
 13  9  1  0
 13 14  1  6
 14 16  1  0
 15 14  2  0
 17 16  1  0
 17 22  1  0
 17 18  1  1
 19 18  1  0
 20 19  1  0
 21 20  2  0
 22 23  2  0
 22 25  1  0
 24 20  1  0
M  END
$$$$
