LPE.pdb
     RDKit          3D

 25 25  0  0  1  0  0  0  0  0999 V2000
   24.2831  -23.0448  -15.2681 C   0  0  0  0  0  0  0  0  0  0  0  0
   25.4104  -22.3037  -14.6212 C   0  0  2  0  0  0  0  0  0  0  0  0
   26.7561  -22.6660  -15.2078 C   0  0  0  0  0  0  0  0  0  0  0  0
   25.3791  -22.4197  -13.1131 C   0  0  0  0  0  0  0  0  0  0  0  0
   25.9031  -21.1054  -12.5640 C   0  0  2  0  0  0  0  0  0  0  0  0
   25.6258  -21.1235  -11.1331 N   0  0  0  0  0  0  0  0  0  0  0  0
   25.2381  -19.9397  -13.1666 C   0  0  0  0  0  0  0  0  0  0  0  0
   24.0800  -19.6043  -12.7575 O   0  0  0  0  0  0  0  0  0  0  0  0
   25.8709  -19.1878  -14.1952 N   0  0  0  0  0  0  0  0  0  0  0  0
   27.2295  -19.3661  -14.6430 C   0  0  0  0  0  0  0  0  0  0  0  0
   27.6719  -17.9398  -14.9937 C   0  0  0  0  0  0  0  0  0  0  0  0
   26.4143  -17.1369  -15.0968 C   0  0  0  0  0  0  0  0  0  0  0  0
   25.3082  -18.1234  -14.9974 C   0  0  1  0  0  0  0  0  0  0  0  0
   24.8702  -18.7030  -16.2896 C   0  0  0  0  0  0  0  0  0  0  0  0
   25.3774  -19.7677  -16.6838 O   0  0  0  0  0  0  0  0  0  0  0  0
   23.8948  -18.0436  -17.0417 N   0  0  0  0  0  0  0  0  0  0  0  0
   22.7265  -18.7934  -17.5280 C   0  0  1  0  0  0  0  0  0  0  0  0
   22.1146  -19.3707  -16.2799 C   0  0  0  0  0  0  0  0  0  0  0  0
   20.8526  -20.1374  -16.4211 C   0  0  0  0  0  0  0  0  0  0  0  0
   20.2086  -20.4025  -15.1354 C   0  0  0  0  0  0  0  0  0  0  0  0
   19.6452  -19.4375  -14.5251 O   0  0  0  0  0  0  0  0  0  0  0  0
   21.8193  -18.0223  -18.3383 C   0  0  0  0  0  0  0  0  0  0  0  0
   21.7460  -16.7567  -18.1692 O   0  0  0  0  0  0  0  0  0  0  0  0
   20.1911  -21.6473  -14.5686 O   0  0  0  0  0  0  0  0  0  0  0  0
   20.9876  -18.5283  -19.3319 O   0  0  0  0  0  0  0  0  0  0  0  0
  2  1  1  6
  3  2  1  0
  4  2  1  0
  4  5  1  0
  5  6  1  1
  7  5  1  0
  7  8  2  0
  9  7  1  0
 10  9  1  0
 11 12  1  0
 11 10  1  0
 12 13  1  0
 13  9  1  0
 13 14  1  6
 14 16  1  0
 15 14  2  0
 17 16  1  0
 17 22  1  0
 17 18  1  1
 19 18  1  0
 20 19  1  0
 21 20  2  0
 22 23  2  0
 22 25  1  0
 24 20  1  0
M  END
$$$$
