LPE.pdb
     RDKit          3D

 25 25  0  0  1  0  0  0  0  0999 V2000
   15.0271  -13.1682  -15.4676 C   0  0  0  0  0  0  0  0  0  0  0  0
   16.5117  -13.2193  -15.2887 C   0  0  2  0  0  0  0  0  0  0  0  0
   16.9187  -13.9059  -14.0045 C   0  0  0  0  0  0  0  0  0  0  0  0
   17.1538  -11.8593  -15.4541 C   0  0  0  0  0  0  0  0  0  0  0  0
   17.5810  -11.7529  -16.9065 C   0  0  2  0  0  0  0  0  0  0  0  0
   18.6707  -12.7053  -17.0804 N   0  0  0  0  0  0  0  0  0  0  0  0
   18.0609  -10.4064  -17.2539 C   0  0  0  0  0  0  0  0  0  0  0  0
   19.3055  -10.2209  -17.4481 O   0  0  0  0  0  0  0  0  0  0  0  0
   17.1554   -9.3159  -17.3742 N   0  0  0  0  0  0  0  0  0  0  0  0
   15.7334   -9.3838  -17.1471 C   0  0  0  0  0  0  0  0  0  0  0  0
   15.1676   -8.3961  -18.1753 C   0  0  0  0  0  0  0  0  0  0  0  0
   16.3266   -7.5615  -18.6191 C   0  0  0  0  0  0  0  0  0  0  0  0
   17.4517   -7.9448  -17.7281 C   0  0  1  0  0  0  0  0  0  0  0  0
   17.5529   -7.1575  -16.4760 C   0  0  0  0  0  0  0  0  0  0  0  0
   16.9402   -7.5399  -15.4638 O   0  0  0  0  0  0  0  0  0  0  0  0
   18.3353   -6.0003  -16.4547 N   0  0  0  0  0  0  0  0  0  0  0  0
   18.6154   -5.3399  -15.1705 C   0  0  1  0  0  0  0  0  0  0  0  0
   20.0931   -5.5422  -14.9676 C   0  0  0  0  0  0  0  0  0  0  0  0
   20.7199   -4.9090  -13.7817 C   0  0  0  0  0  0  0  0  0  0  0  0
   22.1363   -5.2460  -13.6467 C   0  0  0  0  0  0  0  0  0  0  0  0
   22.6229   -5.3783  -12.4775 O   0  0  0  0  0  0  0  0  0  0  0  0
   18.1838   -3.9677  -15.1001 C   0  0  0  0  0  0  0  0  0  0  0  0
   17.7676   -3.4960  -13.9865 O   0  0  0  0  0  0  0  0  0  0  0  0
   22.9529   -5.4230  -14.7297 O   0  0  0  0  0  0  0  0  0  0  0  0
   18.1805   -3.0622  -16.1561 O   0  0  0  0  0  0  0  0  0  0  0  0
  2  1  1  1
  3  2  1  0
  4  2  1  0
  4  5  1  0
  5  6  1  1
  7  5  1  0
  7  8  2  0
  9  7  1  0
 10  9  1  0
 11 12  1  0
 11 10  1  0
 12 13  1  0
 13  9  1  0
 13 14  1  1
 14 16  1  0
 15 14  2  0
 17 16  1  0
 17 22  1  0
 17 18  1  6
 19 18  1  0
 20 19  1  0
 21 20  2  0
 22 23  2  0
 22 25  1  0
 24 20  1  0
M  END
$$$$
