LPE.pdb
     RDKit          3D

 25 25  0  0  1  0  0  0  0  0999 V2000
   23.9404  -15.6912  -15.4845 C   0  0  0  0  0  0  0  0  0  0  0  0
   24.9157  -14.7878  -16.1709 C   0  0  2  0  0  0  0  0  0  0  0  0
   26.3043  -14.8751  -15.5789 C   0  0  0  0  0  0  0  0  0  0  0  0
   24.4081  -13.3657  -16.2650 C   0  0  0  0  0  0  0  0  0  0  0  0
   23.2147  -13.3901  -17.2024 C   0  0  2  0  0  0  0  0  0  0  0  0
   23.7214  -13.8382  -18.4936 N   0  0  0  0  0  0  0  0  0  0  0  0
   22.5990  -12.0638  -17.3630 C   0  0  0  0  0  0  0  0  0  0  0  0
   23.0045  -11.2991  -18.2968 O   0  0  0  0  0  0  0  0  0  0  0  0
   21.5622  -11.6287  -16.4916 N   0  0  0  0  0  0  0  0  0  0  0  0
   21.1010  -12.3384  -15.3246 C   0  0  0  0  0  0  0  0  0  0  0  0
   19.5983  -12.0315  -15.2999 C   0  0  0  0  0  0  0  0  0  0  0  0
   19.4066  -10.8611  -16.2112 C   0  0  0  0  0  0  0  0  0  0  0  0
   20.7765  -10.4167  -16.5747 C   0  0  1  0  0  0  0  0  0  0  0  0
   21.3731   -9.4173  -15.6566 C   0  0  0  0  0  0  0  0  0  0  0  0
   22.0586   -9.8055  -14.6945 O   0  0  0  0  0  0  0  0  0  0  0  0
   21.1557   -8.0569  -15.8886 N   0  0  0  0  0  0  0  0  0  0  0  0
   21.8729   -7.0609  -15.0779 C   0  0  1  0  0  0  0  0  0  0  0  0
   21.8252   -5.8070  -15.9090 C   0  0  0  0  0  0  0  0  0  0  0  0
   22.4369   -4.5800  -15.3428 C   0  0  0  0  0  0  0  0  0  0  0  0
   22.2495   -3.4106  -16.2003 C   0  0  0  0  0  0  0  0  0  0  0  0
   21.6539   -3.5613  -17.3155 O   0  0  0  0  0  0  0  0  0  0  0  0
   21.3691   -6.9101  -13.7372 C   0  0  0  0  0  0  0  0  0  0  0  0
   20.1274   -7.1117  -13.5058 O   0  0  0  0  0  0  0  0  0  0  0  0
   22.6907   -2.1652  -15.8461 O   0  0  0  0  0  0  0  0  0  0  0  0
   22.1228   -6.5635  -12.6206 O   0  0  0  0  0  0  0  0  0  0  0  0
  2  1  1  1
  3  2  1  0
  4  2  1  0
  4  5  1  0
  5  6  1  6
  7  5  1  0
  7  8  2  0
  9  7  1  0
 10  9  1  0
 11 12  1  0
 11 10  1  0
 12 13  1  0
 13  9  1  0
 13 14  1  1
 14 16  1  0
 15 14  2  0
 17 16  1  0
 17 22  1  0
 17 18  1  6
 19 18  1  0
 20 19  1  0
 21 20  2  0
 22 23  2  0
 22 25  1  0
 24 20  1  0
M  END
$$$$
