LPE.pdb
     RDKit          3D

 25 25  0  0  1  0  0  0  0  0999 V2000
   27.1384  -21.8471   -4.4714 C   0  0  0  0  0  0  0  0  0  0  0  0
   28.1340  -20.8807   -5.0314 C   0  0  2  0  0  0  0  0  0  0  0  0
   29.2922  -20.6304   -4.0921 C   0  0  0  0  0  0  0  0  0  0  0  0
   27.4818  -19.6022   -5.5099 C   0  0  0  0  0  0  0  0  0  0  0  0
   28.4417  -18.9674   -6.4994 C   0  0  2  0  0  0  0  0  0  0  0  0
   28.5223  -17.5572   -6.1397 N   0  0  0  0  0  0  0  0  0  0  0  0
   27.9731  -19.0817   -7.8892 C   0  0  0  0  0  0  0  0  0  0  0  0
   27.1743  -18.2038   -8.3502 O   0  0  0  0  0  0  0  0  0  0  0  0
   28.3997  -20.1559   -8.7186 N   0  0  0  0  0  0  0  0  0  0  0  0
   29.0680  -21.3483   -8.2607 C   0  0  0  0  0  0  0  0  0  0  0  0
   30.0299  -21.6733   -9.4105 C   0  0  0  0  0  0  0  0  0  0  0  0
   29.5463  -20.8802  -10.5827 C   0  0  0  0  0  0  0  0  0  0  0  0
   28.2535  -20.2892  -10.1517 C   0  0  1  0  0  0  0  0  0  0  0  0
   27.0625  -21.1313  -10.4167 C   0  0  0  0  0  0  0  0  0  0  0  0
   26.6576  -21.9098   -9.5357 O   0  0  0  0  0  0  0  0  0  0  0  0
   26.4154  -21.0353  -11.6511 N   0  0  0  0  0  0  0  0  0  0  0  0
   24.9453  -21.0349  -11.6993 C   0  0  1  0  0  0  0  0  0  0  0  0
   24.6146  -20.0968  -12.8290 C   0  0  0  0  0  0  0  0  0  0  0  0
   23.1836  -19.8990  -13.1654 C   0  0  0  0  0  0  0  0  0  0  0  0
   22.9931  -19.0257  -14.3225 C   0  0  0  0  0  0  0  0  0  0  0  0
   24.0215  -18.5531  -14.9058 O   0  0  0  0  0  0  0  0  0  0  0  0
   24.3530  -22.3426  -11.8141 C   0  0  0  0  0  0  0  0  0  0  0  0
   25.0338  -23.2986  -12.3224 O   0  0  0  0  0  0  0  0  0  0  0  0
   21.7522  -18.7006  -14.7976 O   0  0  0  0  0  0  0  0  0  0  0  0
   23.0700  -22.6917  -11.4053 O   0  0  0  0  0  0  0  0  0  0  0  0
  2  1  1  1
  3  2  1  0
  4  2  1  0
  4  5  1  0
  5  6  1  1
  7  5  1  0
  7  8  2  0
  9  7  1  0
 10  9  1  0
 11 12  1  0
 11 10  1  0
 12 13  1  0
 13  9  1  0
 13 14  1  1
 14 16  1  0
 15 14  2  0
 17 16  1  0
 17 22  1  0
 17 18  1  6
 19 18  1  0
 20 19  1  0
 21 20  2  0
 22 23  2  0
 22 25  1  0
 24 20  1  0
M  END
$$$$
