LPE.pdb
     RDKit          3D

 25 25  0  0  1  0  0  0  0  0999 V2000
   21.9464  -12.8048  -20.1360 C   0  0  0  0  0  0  0  0  0  0  0  0
   20.6898  -11.9979  -20.2267 C   0  0  2  0  0  0  0  0  0  0  0  0
   20.5582  -11.2743  -21.5479 C   0  0  0  0  0  0  0  0  0  0  0  0
   20.5133  -11.0802  -19.0369 C   0  0  0  0  0  0  0  0  0  0  0  0
   20.5460  -11.9593  -17.8001 C   0  0  2  0  0  0  0  0  0  0  0  0
   19.2950  -12.7073  -17.8000 N   0  0  0  0  0  0  0  0  0  0  0  0
   20.6373  -11.1775  -16.5573 C   0  0  0  0  0  0  0  0  0  0  0  0
   19.5709  -10.8907  -15.9235 O   0  0  0  0  0  0  0  0  0  0  0  0
   21.8962  -10.7409  -16.0590 N   0  0  0  0  0  0  0  0  0  0  0  0
   23.1773  -11.0520  -16.6423 C   0  0  0  0  0  0  0  0  0  0  0  0
   24.0971  -11.1744  -15.4208 C   0  0  0  0  0  0  0  0  0  0  0  0
   23.3585  -10.5338  -14.2889 C   0  0  0  0  0  0  0  0  0  0  0  0
   22.1594   -9.9097  -14.9044 C   0  0  1  0  0  0  0  0  0  0  0  0
   22.3517   -8.5168  -15.3741 C   0  0  0  0  0  0  0  0  0  0  0  0
   22.4555   -8.2928  -16.5928 O   0  0  0  0  0  0  0  0  0  0  0  0
   22.4122   -7.4800  -14.4396 N   0  0  0  0  0  0  0  0  0  0  0  0
   22.1684   -6.0968  -14.8767 C   0  0  1  0  0  0  0  0  0  0  0  0
   20.7917   -6.1402  -15.4835 C   0  0  0  0  0  0  0  0  0  0  0  0
   20.2090   -4.8637  -15.9644 C   0  0  0  0  0  0  0  0  0  0  0  0
   18.8957   -5.0420  -16.5819 C   0  0  0  0  0  0  0  0  0  0  0  0
   17.8579   -4.7623  -15.8994 O   0  0  0  0  0  0  0  0  0  0  0  0
   22.3365   -5.1076  -13.8436 C   0  0  0  0  0  0  0  0  0  0  0  0
   22.0571   -5.4096  -12.6326 O   0  0  0  0  0  0  0  0  0  0  0  0
   18.7451   -5.4976  -17.8629 O   0  0  0  0  0  0  0  0  0  0  0  0
   22.7984   -3.8088  -14.0304 O   0  0  0  0  0  0  0  0  0  0  0  0
  2  1  1  1
  3  2  1  0
  4  2  1  0
  4  5  1  0
  5  6  1  1
  7  5  1  0
  7  8  2  0
  9  7  1  0
 10  9  1  0
 11 12  1  0
 11 10  1  0
 12 13  1  0
 13  9  1  0
 13 14  1  6
 14 16  1  0
 15 14  2  0
 17 16  1  0
 17 22  1  0
 17 18  1  1
 19 18  1  0
 20 19  1  0
 21 20  2  0
 22 23  2  0
 22 25  1  0
 24 20  1  0
M  END
$$$$
