LPE.pdb
     RDKit          3D

 25 25  0  0  1  0  0  0  0  0999 V2000
   22.5745  -11.3974  -22.3159 C   0  0  0  0  0  0  0  0  0  0  0  0
   23.6270  -11.2883  -21.2581 C   0  0  2  0  0  0  0  0  0  0  0  0
   24.4149  -12.5676  -21.0886 C   0  0  0  0  0  0  0  0  0  0  0  0
   23.0712  -10.7658  -19.9515 C   0  0  0  0  0  0  0  0  0  0  0  0
   23.5039  -11.7418  -18.8727 C   0  0  2  0  0  0  0  0  0  0  0  0
   22.6187  -12.8940  -18.9884 N   0  0  0  0  0  0  0  0  0  0  0  0
   23.3801  -11.1759  -17.5205 C   0  0  0  0  0  0  0  0  0  0  0  0
   22.2951  -11.3399  -16.8748 O   0  0  0  0  0  0  0  0  0  0  0  0
   24.4527  -10.4515  -16.9301 N   0  0  0  0  0  0  0  0  0  0  0  0
   25.7503  -10.2503  -17.5250 C   0  0  0  0  0  0  0  0  0  0  0  0
   26.6955  -10.2695  -16.3170 C   0  0  0  0  0  0  0  0  0  0  0  0
   25.8251  -10.0787  -15.1157 C   0  0  0  0  0  0  0  0  0  0  0  0
   24.4745   -9.7725  -15.6528 C   0  0  1  0  0  0  0  0  0  0  0  0
   24.2089   -8.3336  -15.8917 C   0  0  0  0  0  0  0  0  0  0  0  0
   24.7917   -7.7522  -16.8236 O   0  0  0  0  0  0  0  0  0  0  0  0
   23.3080   -7.6561  -15.0663 N   0  0  0  0  0  0  0  0  0  0  0  0
   22.8620   -6.3046  -15.4377 C   0  0  1  0  0  0  0  0  0  0  0  0
   21.5795   -6.5347  -16.1912 C   0  0  0  0  0  0  0  0  0  0  0  0
   20.8025   -5.3430  -16.6111 C   0  0  0  0  0  0  0  0  0  0  0  0
   19.5979   -5.6929  -17.3624 C   0  0  0  0  0  0  0  0  0  0  0  0
   19.3588   -6.9220  -17.5937 O   0  0  0  0  0  0  0  0  0  0  0  0
   22.7505   -5.3893  -14.3313 C   0  0  0  0  0  0  0  0  0  0  0  0
   22.7323   -4.1304  -14.5563 O   0  0  0  0  0  0  0  0  0  0  0  0
   18.7227   -4.7481  -17.8235 O   0  0  0  0  0  0  0  0  0  0  0  0
   22.6468   -5.7450  -12.9906 O   0  0  0  0  0  0  0  0  0  0  0  0
  2  1  1  6
  3  2  1  0
  4  2  1  0
  4  5  1  0
  5  6  1  1
  7  5  1  0
  7  8  2  0
  9  7  1  0
 10  9  1  0
 11 12  1  0
 11 10  1  0
 12 13  1  0
 13  9  1  0
 13 14  1  6
 14 16  1  0
 15 14  2  0
 17 16  1  0
 17 22  1  0
 17 18  1  1
 19 18  1  0
 20 19  1  0
 21 20  2  0
 22 23  2  0
 22 25  1  0
 24 20  1  0
M  END
$$$$
