LPE.pdb
     RDKit          3D

 25 25  0  0  1  0  0  0  0  0999 V2000
   13.1437  -10.6432   -9.3830 C   0  0  0  0  0  0  0  0  0  0  0  0
   13.8496  -10.9665  -10.6619 C   0  0  2  0  0  0  0  0  0  0  0  0
   14.3246  -12.4009  -10.7167 C   0  0  0  0  0  0  0  0  0  0  0  0
   14.9479   -9.9740  -10.9744 C   0  0  0  0  0  0  0  0  0  0  0  0
   14.2645   -8.6753  -11.3615 C   0  0  2  0  0  0  0  0  0  0  0  0
   13.4501   -8.9778  -12.5319 N   0  0  0  0  0  0  0  0  0  0  0  0
   15.2251   -7.6159  -11.7066 C   0  0  0  0  0  0  0  0  0  0  0  0
   15.4732   -7.3769  -12.9324 O   0  0  0  0  0  0  0  0  0  0  0  0
   15.8761   -6.8605  -10.6921 N   0  0  0  0  0  0  0  0  0  0  0  0
   15.7619   -7.0956   -9.2744 C   0  0  0  0  0  0  0  0  0  0  0  0
   15.8273   -5.6832   -8.6794 C   0  0  0  0  0  0  0  0  0  0  0  0
   16.3711   -4.8090   -9.7643 C   0  0  0  0  0  0  0  0  0  0  0  0
   16.7724   -5.7362  -10.8531 C   0  0  1  0  0  0  0  0  0  0  0  0
   18.1638   -6.2401  -10.7633 C   0  0  0  0  0  0  0  0  0  0  0  0
   18.3865   -7.3160  -10.1810 O   0  0  0  0  0  0  0  0  0  0  0  0
   19.2003   -5.4980  -11.3348 N   0  0  0  0  0  0  0  0  0  0  0  0
   20.3138   -6.1981  -11.9932 C   0  0  1  0  0  0  0  0  0  0  0  0
   19.6436   -7.0701  -13.0209 C   0  0  0  0  0  0  0  0  0  0  0  0
   20.5078   -7.7628  -14.0075 C   0  0  0  0  0  0  0  0  0  0  0  0
   19.7587   -8.6786  -14.8666 C   0  0  0  0  0  0  0  0  0  0  0  0
   18.8119   -8.2107  -15.5778 O   0  0  0  0  0  0  0  0  0  0  0  0
   21.3353   -5.3298  -12.5192 C   0  0  0  0  0  0  0  0  0  0  0  0
   20.9985   -4.2311  -13.0806 O   0  0  0  0  0  0  0  0  0  0  0  0
   20.0396  -10.0158  -14.9315 O   0  0  0  0  0  0  0  0  0  0  0  0
   22.7054   -5.5653  -12.4705 O   0  0  0  0  0  0  0  0  0  0  0  0
  2  1  1  1
  3  2  1  0
  4  2  1  0
  4  5  1  0
  5  6  1  6
  7  5  1  0
  7  8  2  0
  9  7  1  0
 10  9  1  0
 11 12  1  0
 11 10  1  0
 12 13  1  0
 13  9  1  0
 13 14  1  1
 14 16  1  0
 15 14  2  0
 17 16  1  0
 17 22  1  0
 17 18  1  6
 19 18  1  0
 20 19  1  0
 21 20  2  0
 22 23  2  0
 22 25  1  0
 24 20  1  0
M  END
$$$$
