LPE.pdb
     RDKit          3D

 25 25  0  0  1  0  0  0  0  0999 V2000
   28.4107  -17.7807  -15.1312 C   0  0  0  0  0  0  0  0  0  0  0  0
   27.4803  -18.2405  -16.2088 C   0  0  2  0  0  0  0  0  0  0  0  0
   26.9999  -17.1056  -17.0848 C   0  0  0  0  0  0  0  0  0  0  0  0
   26.3454  -19.0795  -15.6636 C   0  0  0  0  0  0  0  0  0  0  0  0
   26.9754  -20.3098  -15.0365 C   0  0  2  0  0  0  0  0  0  0  0  0
   27.5366  -21.0843  -16.1364 N   0  0  0  0  0  0  0  0  0  0  0  0
   25.9953  -21.1385  -14.3177 C   0  0  0  0  0  0  0  0  0  0  0  0
   25.4849  -22.1470  -14.9039 O   0  0  0  0  0  0  0  0  0  0  0  0
   25.6137  -20.8273  -12.9830 N   0  0  0  0  0  0  0  0  0  0  0  0
   26.2747  -19.8738  -12.1275 C   0  0  0  0  0  0  0  0  0  0  0  0
   26.1428  -20.5032  -10.7349 C   0  0  0  0  0  0  0  0  0  0  0  0
   25.0805  -21.5486  -10.8594 C   0  0  0  0  0  0  0  0  0  0  0  0
   24.5116  -21.3717  -12.2200 C   0  0  1  0  0  0  0  0  0  0  0  0
   23.3785  -20.4195  -12.3043 C   0  0  0  0  0  0  0  0  0  0  0  0
   23.6081  -19.2146  -12.5087 O   0  0  0  0  0  0  0  0  0  0  0  0
   22.0725  -20.8923  -12.1534 N   0  0  0  0  0  0  0  0  0  0  0  0
   21.0319  -20.4572  -13.0975 C   0  0  1  0  0  0  0  0  0  0  0  0
   21.6027  -20.7858  -14.4509 C   0  0  0  0  0  0  0  0  0  0  0  0
   20.7434  -20.5532  -15.6373 C   0  0  0  0  0  0  0  0  0  0  0  0
   20.9916  -19.2567  -16.2664 C   0  0  0  0  0  0  0  0  0  0  0  0
   20.1511  -18.3183  -16.0815 O   0  0  0  0  0  0  0  0  0  0  0  0
   19.7285  -21.0157  -12.8458 C   0  0  0  0  0  0  0  0  0  0  0  0
   19.6237  -22.2514  -12.5332 O   0  0  0  0  0  0  0  0  0  0  0  0
   22.0918  -19.0192  -17.0437 O   0  0  0  0  0  0  0  0  0  0  0  0
   18.5237  -20.3224  -12.9000 O   0  0  0  0  0  0  0  0  0  0  0  0
  2  1  1  1
  3  2  1  0
  4  2  1  0
  4  5  1  0
  5  6  1  6
  7  5  1  0
  7  8  2  0
  9  7  1  0
 10  9  1  0
 11 12  1  0
 11 10  1  0
 12 13  1  0
 13  9  1  0
 13 14  1  1
 14 16  1  0
 15 14  2  0
 17 16  1  0
 17 22  1  0
 17 18  1  6
 19 18  1  0
 20 19  1  0
 21 20  2  0
 22 23  2  0
 22 25  1  0
 24 20  1  0
M  END
$$$$
