RAH.pdb
     RDKit          3D

 27 27  0  0  1  0  0  0  0  0999 V2000
   24.3932  -38.4983  -13.5864 N   0  0  0  0  0  0  0  0  0  0  0  0
   23.1075  -38.5694  -12.9970 C   0  0  0  0  0  0  0  0  0  0  0  0
   22.4693  -39.6738  -12.8039 N   0  0  0  0  0  0  0  0  0  0  0  0
   22.4305  -37.3683  -12.5715 N   0  0  0  0  0  0  0  0  0  0  0  0
   23.0146  -36.0664  -12.8118 C   0  0  0  0  0  0  0  0  0  0  0  0
   22.0607  -34.9947  -12.3499 C   0  0  0  0  0  0  0  0  0  0  0  0
   22.7688  -34.0596  -11.4393 C   0  0  0  0  0  0  0  0  0  0  0  0
   21.9040  -32.9994  -10.8069 C   0  0  2  0  0  0  0  0  0  0  0  0
   22.1620  -31.7754  -11.5863 N   0  0  0  0  0  0  0  0  0  0  0  0
   22.2195  -32.7426   -9.3995 C   0  0  0  0  0  0  0  0  0  0  0  0
   23.0604  -31.8423   -9.0876 O   0  0  0  0  0  0  0  0  0  0  0  0
   21.5017  -39.5870  -12.4206 C   0  0  0  0  0  0  0  0  0  0  0  0
   20.8068  -33.8596   -6.1302 C   0  0  1  0  0  0  0  0  0  0  0  0
   21.9488  -33.2283   -6.9278 N   0  0  0  0  0  0  0  0  0  0  0  0
   21.6441  -33.4394   -8.3174 C   0  0  0  0  0  0  0  0  0  0  0  0
   23.2583  -33.7748   -6.5087 O   0  0  0  0  0  0  0  0  0  0  0  0
   23.9357  -34.3214   -7.4105 N   0  0  0  0  0  0  0  0  0  0  0  0
   23.7707  -33.7217   -5.2131 C   0  0  1  0  0  0  0  0  0  0  0  0
   25.0279  -34.2234   -4.7191 C   0  0  0  0  0  0  0  0  0  0  0  0
   26.1238  -33.6284   -5.5613 C   0  0  0  0  0  0  0  0  0  0  0  0
   27.4762  -34.0490   -5.2346 C   0  0  0  0  0  0  0  0  0  0  0  0
   27.8728  -34.8917   -4.2233 N   0  0  0  0  0  0  0  0  0  0  0  0
   29.2325  -35.0197   -4.2577 C   0  0  0  0  0  0  0  0  0  0  0  0
   29.6725  -34.2592   -5.2855 N   0  0  0  0  0  0  0  0  0  0  0  0
   28.6016  -33.6812   -5.8638 C   0  0  0  0  0  0  0  0  0  0  0  0
   25.2357  -34.0243   -3.2644 O   0  0  0  0  0  0  0  0  0  0  0  0
   24.3623  -33.3675   -2.4274 O   0  0  0  0  0  0  0  0  0  0  0  0
  2  1  1  0
  2  4  1  0
  3  2  2  0
  5  4  1  0
  6  5  1  0
  7  6  1  0
  8  9  1  6
  8  7  1  0
 10 11  2  0
 10  8  1  0
 13 12  1  6
 13 14  1  0
 13 15  1  0
 14 10  1  0
 15 17  1  0
 16 15  2  0
 17 18  1  0
 18 25  1  0
 18 19  1  1
 20 19  1  0
 21 20  2  0
 22 21  1  0
 23 22  1  0
 23 24  2  0
 24 20  1  0
 25 27  2  0
 25 26  1  0
M  END
$$$$
