RAH.pdb
     RDKit          3D

 27 27  0  0  1  0  0  0  0  0999 V2000
   22.7857  -15.4809  -21.4630 N   0  0  0  0  0  0  0  0  0  0  0  0
   22.5413  -14.7747  -20.2600 C   0  0  0  0  0  0  0  0  0  0  0  0
   21.4920  -14.0528  -20.0549 N   0  0  0  0  0  0  0  0  0  0  0  0
   23.4878  -14.8332  -19.1725 N   0  0  0  0  0  0  0  0  0  0  0  0
   24.7356  -15.5515  -19.3167 C   0  0  0  0  0  0  0  0  0  0  0  0
   24.5168  -17.0079  -18.9963 C   0  0  0  0  0  0  0  0  0  0  0  0
   25.8141  -17.7283  -19.0528 C   0  0  0  0  0  0  0  0  0  0  0  0
   25.7370  -19.2125  -18.8014 C   0  0  2  0  0  0  0  0  0  0  0  0
   24.6655  -19.3796  -17.8033 N   0  0  0  0  0  0  0  0  0  0  0  0
   26.9758  -19.7862  -18.2700 C   0  0  0  0  0  0  0  0  0  0  0  0
   28.0829  -19.5672  -18.8542 O   0  0  0  0  0  0  0  0  0  0  0  0
   21.4520  -13.5448  -19.1434 C   0  0  0  0  0  0  0  0  0  0  0  0
   27.8946  -21.7660  -15.2281 C   0  0  2  0  0  0  0  0  0  0  0  0
   28.2198  -21.2727  -16.6387 N   0  0  0  0  0  0  0  0  0  0  0  0
   27.0453  -20.5942  -17.1168 C   0  0  0  0  0  0  0  0  0  0  0  0
   28.6658  -22.3870  -17.5041 O   0  0  0  0  0  0  0  0  0  0  0  0
   27.7745  -22.9293  -18.1986 N   0  0  0  0  0  0  0  0  0  0  0  0
   29.9752  -22.8573  -17.5930 C   0  0  1  0  0  0  0  0  0  0  0  0
   30.5121  -23.8714  -18.4645 C   0  0  0  0  0  0  0  0  0  0  0  0
   30.1396  -23.5090  -19.8767 C   0  0  0  0  0  0  0  0  0  0  0  0
   30.6467  -24.3915  -20.9144 C   0  0  0  0  0  0  0  0  0  0  0  0
   31.0624  -25.6950  -20.7795 N   0  0  0  0  0  0  0  0  0  0  0  0
   31.4719  -26.1602  -21.9970 C   0  0  0  0  0  0  0  0  0  0  0  0
   31.3093  -25.1480  -22.8788 N   0  0  0  0  0  0  0  0  0  0  0  0
   30.8112  -24.0896  -22.2102 C   0  0  0  0  0  0  0  0  0  0  0  0
   31.9632  -24.1217  -18.2890 O   0  0  0  0  0  0  0  0  0  0  0  0
   32.7555  -23.5222  -17.3365 O   0  0  0  0  0  0  0  0  0  0  0  0
  2  1  1  0
  2  4  1  0
  3  2  2  0
  5  4  1  0
  6  5  1  0
  7  6  1  0
  8  9  1  1
  8  7  1  0
 10 11  2  0
 10  8  1  0
 13 12  1  1
 13 14  1  0
 13 15  1  0
 14 10  1  0
 15 17  1  0
 16 15  2  0
 17 18  1  0
 18 25  1  0
 18 19  1  1
 20 19  1  0
 21 20  2  0
 22 21  1  0
 23 22  1  0
 23 24  2  0
 24 20  1  0
 25 27  2  0
 25 26  1  0
M  END
$$$$
