RAH.pdb
     RDKit          3D

 27 27  0  0  1  0  0  0  0  0999 V2000
   30.5186  -28.3996  -17.8001 N   0  0  0  0  0  0  0  0  0  0  0  0
   29.8743  -29.4560  -18.4887 C   0  0  0  0  0  0  0  0  0  0  0  0
   30.4289  -30.5954  -18.7307 N   0  0  0  0  0  0  0  0  0  0  0  0
   28.5219  -29.2998  -18.9671 N   0  0  0  0  0  0  0  0  0  0  0  0
   27.8309  -28.0359  -18.8295 C   0  0  0  0  0  0  0  0  0  0  0  0
   27.2699  -27.9192  -17.4354 C   0  0  0  0  0  0  0  0  0  0  0  0
   26.5170  -26.6455  -17.3090 C   0  0  0  0  0  0  0  0  0  0  0  0
   27.2822  -25.4053  -17.6941 C   0  0  2  0  0  0  0  0  0  0  0  0
   28.3735  -25.3036  -16.7088 N   0  0  0  0  0  0  0  0  0  0  0  0
   26.4818  -24.1793  -17.6459 C   0  0  0  0  0  0  0  0  0  0  0  0
   26.0995  -23.7099  -16.5286 O   0  0  0  0  0  0  0  0  0  0  0  0
   29.8491  -31.2896  -19.2527 C   0  0  0  0  0  0  0  0  0  0  0  0
   25.5681  -21.5507  -20.1251 C   0  0  1  0  0  0  0  0  0  0  0  0
   25.3382  -22.2165  -18.7676 N   0  0  0  0  0  0  0  0  0  0  0  0
   26.0838  -23.4462  -18.7825 C   0  0  0  0  0  0  0  0  0  0  0  0
   23.8942  -22.3911  -18.4965 O   0  0  0  0  0  0  0  0  0  0  0  0
   23.2389  -21.3361  -18.3279 N   0  0  0  0  0  0  0  0  0  0  0  0
   23.2365  -23.6179  -18.4191 C   0  0  2  0  0  0  0  0  0  0  0  0
   21.8234  -23.8785  -18.3107 C   0  0  0  0  0  0  0  0  0  0  0  0
   21.4070  -23.5775  -16.8964 C   0  0  0  0  0  0  0  0  0  0  0  0
   22.1249  -24.2950  -15.8559 C   0  0  0  0  0  0  0  0  0  0  0  0
   23.1762  -25.1675  -16.0093 N   0  0  0  0  0  0  0  0  0  0  0  0
   23.5552  -25.6286  -14.7804 C   0  0  0  0  0  0  0  0  0  0  0  0
   22.7412  -25.0430  -13.8733 N   0  0  0  0  0  0  0  0  0  0  0  0
   21.8852  -24.2425  -14.5379 C   0  0  0  0  0  0  0  0  0  0  0  0
   20.9945  -23.1825  -19.3245 O   0  0  0  0  0  0  0  0  0  0  0  0
   20.6152  -21.8610  -19.2580 O   0  0  0  0  0  0  0  0  0  0  0  0
  2  1  1  0
  2  4  1  0
  3  2  2  0
  5  4  1  0
  6  5  1  0
  7  6  1  0
  8  9  1  1
  8  7  1  0
 10 11  2  0
 10  8  1  0
 13 12  1  1
 13 14  1  0
 13 15  1  0
 14 10  1  0
 15 17  1  0
 16 15  2  0
 17 18  1  0
 18 25  1  0
 18 19  1  1
 20 19  1  0
 21 20  2  0
 22 21  1  0
 23 22  1  0
 23 24  2  0
 24 20  1  0
 25 27  2  0
 25 26  1  0
M  END
$$$$
