RAH.pdb
     RDKit          3D

 27 27  0  0  1  0  0  0  0  0999 V2000
   20.3923  -18.2782  -17.1589 N   0  0  0  0  0  0  0  0  0  0  0  0
   21.1702  -17.1105  -16.9669 C   0  0  0  0  0  0  0  0  0  0  0  0
   20.6919  -15.9140  -17.0298 N   0  0  0  0  0  0  0  0  0  0  0  0
   22.5814  -17.2104  -16.6828 N   0  0  0  0  0  0  0  0  0  0  0  0
   23.2290  -18.5018  -16.6009 C   0  0  0  0  0  0  0  0  0  0  0  0
   23.9746  -18.7721  -17.8826 C   0  0  0  0  0  0  0  0  0  0  0  0
   24.5376  -20.1458  -17.8483 C   0  0  0  0  0  0  0  0  0  0  0  0
   26.0406  -20.2228  -17.7650 C   0  0  2  0  0  0  0  0  0  0  0  0
   26.4264  -21.2784  -18.7184 N   0  0  0  0  0  0  0  0  0  0  0  0
   26.5405  -20.5776  -16.4345 C   0  0  0  0  0  0  0  0  0  0  0  0
   26.3101  -21.7305  -15.9523 O   0  0  0  0  0  0  0  0  0  0  0  0
   21.3649  -15.1374  -16.8437 C   0  0  0  0  0  0  0  0  0  0  0  0
   29.1184  -19.4064  -14.1220 C   0  0  1  0  0  0  0  0  0  0  0  0
   27.7137  -19.9937  -14.2662 N   0  0  0  0  0  0  0  0  0  0  0  0
   27.2870  -19.7110  -15.6102 C   0  0  0  0  0  0  0  0  0  0  0  0
   26.8057  -19.4680  -13.2230 O   0  0  0  0  0  0  0  0  0  0  0  0
   26.3331  -18.3267  -13.4351 N   0  0  0  0  0  0  0  0  0  0  0  0
   26.4534  -20.1418  -12.0544 C   0  0  1  0  0  0  0  0  0  0  0  0
   25.1784  -20.1785  -11.3839 C   0  0  0  0  0  0  0  0  0  0  0  0
   24.1212  -20.4496  -12.4199 C   0  0  0  0  0  0  0  0  0  0  0  0
   22.7553  -20.5276  -11.9292 C   0  0  0  0  0  0  0  0  0  0  0  0
   22.1821  -19.7914  -10.9194 N   0  0  0  0  0  0  0  0  0  0  0  0
   20.8809  -20.1796  -10.7686 C   0  0  0  0  0  0  0  0  0  0  0  0
   20.6528  -21.1508  -11.6813 N   0  0  0  0  0  0  0  0  0  0  0  0
   21.7924  -21.3484  -12.3725 C   0  0  0  0  0  0  0  0  0  0  0  0
   25.1206  -21.1112  -10.2324 O   0  0  0  0  0  0  0  0  0  0  0  0
   24.5734  -20.8131   -9.0051 O   0  0  0  0  0  0  0  0  0  0  0  0
  2  1  1  0
  2  4  1  0
  3  2  2  0
  5  4  1  0
  6  5  1  0
  7  6  1  0
  8  9  1  6
  8  7  1  0
 10 11  2  0
 10  8  1  0
 13 12  1  6
 13 14  1  0
 13 15  1  0
 14 10  1  0
 15 17  1  0
 16 15  2  0
 17 18  1  0
 18 25  1  0
 18 19  1  1
 20 19  1  0
 21 20  2  0
 22 21  1  0
 23 22  1  0
 23 24  2  0
 24 20  1  0
 25 27  2  0
 25 26  1  0
M  END
$$$$
