RAH.pdb
     RDKit          3D

 27 27  0  0  1  0  0  0  0  0999 V2000
   29.7651  -20.8963  -17.8486 N   0  0  0  0  0  0  0  0  0  0  0  0
   29.0676  -21.2798  -19.0199 C   0  0  0  0  0  0  0  0  0  0  0  0
   29.6385  -21.7939  -20.0563 N   0  0  0  0  0  0  0  0  0  0  0  0
   27.6379  -21.1066  -19.1096 N   0  0  0  0  0  0  0  0  0  0  0  0
   26.8518  -20.8274  -17.9273 C   0  0  0  0  0  0  0  0  0  0  0  0
   27.1001  -21.8969  -16.8947 C   0  0  0  0  0  0  0  0  0  0  0  0
   26.1695  -21.7092  -15.7528 C   0  0  0  0  0  0  0  0  0  0  0  0
   26.2828  -22.7363  -14.6555 C   0  0  2  0  0  0  0  0  0  0  0  0
   25.8719  -24.0092  -15.2745 N   0  0  0  0  0  0  0  0  0  0  0  0
   25.4188  -22.4668  -13.5035 C   0  0  0  0  0  0  0  0  0  0  0  0
   24.1913  -22.7940  -13.5356 O   0  0  0  0  0  0  0  0  0  0  0  0
   29.0198  -21.9906  -20.8743 C   0  0  0  0  0  0  0  0  0  0  0  0
   25.9208  -20.7369  -10.2107 C   0  0  1  0  0  0  0  0  0  0  0  0
   24.9999  -21.3074  -11.2902 N   0  0  0  0  0  0  0  0  0  0  0  0
   25.8534  -21.8495  -12.3129 C   0  0  0  0  0  0  0  0  0  0  0  0
   24.0511  -20.2825  -11.7786 O   0  0  0  0  0  0  0  0  0  0  0  0
   24.5582  -19.3249  -12.4083 N   0  0  0  0  0  0  0  0  0  0  0  0
   22.6703  -20.3138  -11.5880 C   0  0  1  0  0  0  0  0  0  0  0  0
   21.6322  -19.7606  -12.4203 C   0  0  0  0  0  0  0  0  0  0  0  0
   21.8771  -20.2241  -13.8308 C   0  0  0  0  0  0  0  0  0  0  0  0
   20.9738  -19.6957  -14.8395 C   0  0  0  0  0  0  0  0  0  0  0  0
   19.9308  -18.8187  -14.6567 N   0  0  0  0  0  0  0  0  0  0  0  0
   19.3306  -18.5833  -15.8612 C   0  0  0  0  0  0  0  0  0  0  0  0
   20.0004  -19.3119  -16.7826 N   0  0  0  0  0  0  0  0  0  0  0  0
   20.9875  -19.9762  -16.1504 C   0  0  0  0  0  0  0  0  0  0  0  0
   20.2553  -20.0384  -11.9448 O   0  0  0  0  0  0  0  0  0  0  0  0
   19.2592  -19.0960  -11.8245 O   0  0  0  0  0  0  0  0  0  0  0  0
  2  1  1  0
  2  4  1  0
  3  2  2  0
  5  4  1  0
  6  5  1  0
  7  6  1  0
  8  9  1  6
  8  7  1  0
 10 11  2  0
 10  8  1  0
 13 12  1  1
 13 14  1  0
 13 15  1  0
 14 10  1  0
 15 17  1  0
 16 15  2  0
 17 18  1  0
 18 25  1  0
 18 19  1  1
 20 19  1  0
 21 20  2  0
 22 21  1  0
 23 22  1  0
 23 24  2  0
 24 20  1  0
 25 27  2  0
 25 26  1  0
M  END
$$$$
