DVC.pdb
     RDKit          3D

 22 21  0  0  1  0  0  0  0  0999 V2000
   14.9934  -13.8219  -14.8209 N   0  0  0  0  0  0  0  0  0  0  0  0
   15.7825  -12.9969  -13.9345 C   0  0  1  0  0  0  0  0  0  0  0  0
   17.1888  -12.9251  -14.4382 C   0  0  0  0  0  0  0  0  0  0  0  0
   17.7633  -14.2947  -14.3979 C   0  0  0  0  0  0  0  0  0  0  0  0
   17.6794  -15.0178  -13.3772 O   0  0  0  0  0  0  0  0  0  0  0  0
   15.1434  -11.6694  -13.7902 C   0  0  0  0  0  0  0  0  0  0  0  0
   14.5822  -11.2124  -14.8317 O   0  0  0  0  0  0  0  0  0  0  0  0
   18.4041  -14.7683  -15.5256 O   0  0  0  0  0  0  0  0  0  0  0  0
   14.5366  -10.0835  -10.1467 C   0  0  0  0  0  0  0  0  0  0  0  0
   13.7261   -9.4803  -11.2457 C   0  0  1  0  0  0  0  0  0  0  0  0
   13.3856   -8.0436  -10.9406 C   0  0  0  0  0  0  0  0  0  0  0  0
   14.3720   -9.6687  -12.5783 C   0  0  2  0  0  0  0  0  0  0  0  0
   15.1348  -10.9243  -12.5881 N   0  0  0  0  0  0  0  0  0  0  0  0
   15.3386   -8.5828  -12.8096 C   0  0  0  0  0  0  0  0  0  0  0  0
   16.3583   -8.5528  -12.0130 O   0  0  0  0  0  0  0  0  0  0  0  0
   15.2133   -7.6262  -13.8141 N   0  0  0  0  0  0  0  0  0  0  0  0
   16.3065   -6.6580  -13.9619 C   0  0  1  0  0  0  0  0  0  0  0  0
   16.3985   -6.3930  -15.4690 C   0  0  0  0  0  0  0  0  0  0  0  0
   17.0303   -7.9074  -16.2346 S   0  0  0  0  0  0  0  0  0  0  0  0
   15.9547   -5.4350  -13.2576 C   0  0  0  0  0  0  0  0  0  0  0  0
   14.6786   -5.2374  -12.7496 O   0  0  0  0  0  0  0  0  0  0  0  0
   16.7876   -4.5218  -13.0862 O   0  0  0  0  0  0  0  0  0  0  0  0
  2  1  1  6
  3  2  1  0
  3  4  1  0
  4  8  1  0
  5  4  2  0
  6  2  1  0
  6  7  2  0
 10  9  1  1
 10 12  1  0
 11 10  1  0
 12 14  1  0
 12 13  1  1
 13  6  1  0
 14 15  2  0
 16 14  1  0
 16 17  1  0
 17 20  1  0
 18 19  1  0
 17 18  1  6
 20 22  2  0
 20 21  1  0
M  END
$$$$
