DVC.pdb
     RDKit          3D

 22 21  0  0  1  0  0  0  0  0999 V2000
   14.3562  -23.1865   -2.1889 N   0  0  0  0  0  0  0  0  0  0  0  0
   13.6443  -22.2461   -1.3535 C   0  0  1  0  0  0  0  0  0  0  0  0
   12.1733  -22.4890   -1.4688 C   0  0  0  0  0  0  0  0  0  0  0  0
   11.6520  -21.6446   -2.5746 C   0  0  0  0  0  0  0  0  0  0  0  0
   12.3488  -21.3643   -3.5783 O   0  0  0  0  0  0  0  0  0  0  0  0
   14.1460  -22.3369    0.0364 C   0  0  0  0  0  0  0  0  0  0  0  0
   14.1381  -23.4965    0.5500 O   0  0  0  0  0  0  0  0  0  0  0  0
   10.3612  -21.1638   -2.4773 O   0  0  0  0  0  0  0  0  0  0  0  0
   17.2006  -22.7073    1.5395 C   0  0  0  0  0  0  0  0  0  0  0  0
   16.6226  -21.4572    2.1154 C   0  0  1  0  0  0  0  0  0  0  0  0
   17.1883  -20.2364    1.4349 C   0  0  0  0  0  0  0  0  0  0  0  0
   15.1303  -21.4922    2.1303 C   0  0  2  0  0  0  0  0  0  0  0  0
   14.6132  -21.2287    0.7805 N   0  0  0  0  0  0  0  0  0  0  0  0
   14.6257  -20.4140    2.9962 C   0  0  0  0  0  0  0  0  0  0  0  0
   14.4316  -19.2704    2.4222 O   0  0  0  0  0  0  0  0  0  0  0  0
   14.3516  -20.5657    4.3533 N   0  0  0  0  0  0  0  0  0  0  0  0
   13.9635  -19.3633    5.1003 C   0  0  1  0  0  0  0  0  0  0  0  0
   12.8357  -19.8232    6.0311 C   0  0  0  0  0  0  0  0  0  0  0  0
   12.3226  -18.3783    6.9943 S   0  0  0  0  0  0  0  0  0  0  0  0
   15.1014  -18.9020    5.8799 C   0  0  0  0  0  0  0  0  0  0  0  0
   15.2680  -17.5591    6.1870 O   0  0  0  0  0  0  0  0  0  0  0  0
   15.9666  -19.6975    6.2992 O   0  0  0  0  0  0  0  0  0  0  0  0
  2  1  1  6
  3  2  1  0
  3  4  1  0
  4  8  1  0
  5  4  2  0
  6  2  1  0
  6  7  2  0
 10  9  1  6
 10 12  1  0
 11 10  1  0
 12 14  1  0
 12 13  1  6
 13  6  1  0
 14 15  2  0
 16 14  1  0
 16 17  1  0
 17 20  1  0
 18 19  1  0
 17 18  1  1
 20 22  2  0
 20 21  1  0
M  END
$$$$
