DVC.pdb
     RDKit          3D

 22 21  0  0  1  0  0  0  0  0999 V2000
   12.7758   -9.8554  -12.5291 N   0  0  0  0  0  0  0  0  0  0  0  0
   14.1273   -9.8687  -12.0170 C   0  0  1  0  0  0  0  0  0  0  0  0
   15.0423  -10.4684  -13.0365 C   0  0  0  0  0  0  0  0  0  0  0  0
   14.7991  -11.9338  -13.0689 C   0  0  0  0  0  0  0  0  0  0  0  0
   14.7192  -12.6147  -12.0192 O   0  0  0  0  0  0  0  0  0  0  0  0
   14.5188   -8.4997  -11.6115 C   0  0  0  0  0  0  0  0  0  0  0  0
   14.1210   -7.5654  -12.3713 O   0  0  0  0  0  0  0  0  0  0  0  0
   14.6595  -12.5463  -14.2985 O   0  0  0  0  0  0  0  0  0  0  0  0
   14.0128   -6.1777   -8.4867 C   0  0  0  0  0  0  0  0  0  0  0  0
   15.4472   -6.4553   -8.7932 C   0  0  1  0  0  0  0  0  0  0  0  0
   16.0151   -7.4785   -7.8426 C   0  0  0  0  0  0  0  0  0  0  0  0
   15.6496   -6.8020  -10.2310 C   0  0  2  0  0  0  0  0  0  0  0  0
   15.2855   -8.2069  -10.4597 N   0  0  0  0  0  0  0  0  0  0  0  0
   17.0769   -6.6732  -10.5675 C   0  0  0  0  0  0  0  0  0  0  0  0
   17.7991   -6.0048   -9.7269 O   0  0  0  0  0  0  0  0  0  0  0  0
   17.6643   -7.2239  -11.7041 N   0  0  0  0  0  0  0  0  0  0  0  0
   19.0792   -6.9177  -11.9462 C   0  0  1  0  0  0  0  0  0  0  0  0
   19.7899   -8.2753  -11.9054 C   0  0  0  0  0  0  0  0  0  0  0  0
   21.4990   -7.9936  -12.4329 S   0  0  0  0  0  0  0  0  0  0  0  0
   19.2154   -6.3190  -13.2647 C   0  0  0  0  0  0  0  0  0  0  0  0
   20.2607   -5.4553  -13.5596 O   0  0  0  0  0  0  0  0  0  0  0  0
   18.3976   -6.5611  -14.1754 O   0  0  0  0  0  0  0  0  0  0  0  0
  2  1  1  6
  3  2  1  0
  3  4  1  0
  4  8  1  0
  5  4  2  0
  6  2  1  0
  6  7  2  0
 10  9  1  6
 10 12  1  0
 11 10  1  0
 12 14  1  0
 12 13  1  1
 13  6  1  0
 14 15  2  0
 16 14  1  0
 16 17  1  0
 17 20  1  0
 18 19  1  0
 17 18  1  6
 20 22  2  0
 20 21  1  0
M  END
$$$$
