DVC.pdb
     RDKit          3D

 22 21  0  0  1  0  0  0  0  0999 V2000
   18.9474  -12.5869  -17.3582 N   0  0  0  0  0  0  0  0  0  0  0  0
   19.4084  -11.2681  -17.7288 C   0  0  1  0  0  0  0  0  0  0  0  0
   18.2772  -10.4922  -18.3243 C   0  0  0  0  0  0  0  0  0  0  0  0
   18.0537  -10.9902  -19.7062 C   0  0  0  0  0  0  0  0  0  0  0  0
   19.0031  -11.3508  -20.4413 O   0  0  0  0  0  0  0  0  0  0  0  0
   20.0183  -10.6060  -16.5534 C   0  0  0  0  0  0  0  0  0  0  0  0
   19.3423  -10.6551  -15.4815 O   0  0  0  0  0  0  0  0  0  0  0  0
   16.7572  -11.0511  -20.1775 O   0  0  0  0  0  0  0  0  0  0  0  0
   23.2649  -11.3043  -14.9648 C   0  0  0  0  0  0  0  0  0  0  0  0
   23.1622   -9.8187  -15.0700 C   0  0  1  0  0  0  0  0  0  0  0  0
   24.1482   -9.2783  -16.0745 C   0  0  0  0  0  0  0  0  0  0  0  0
   21.7580   -9.3764  -15.3173 C   0  0  2  0  0  0  0  0  0  0  0  0
   21.2709   -9.9499  -16.5792 N   0  0  0  0  0  0  0  0  0  0  0  0
   21.7284   -7.9133  -15.4766 C   0  0  0  0  0  0  0  0  0  0  0  0
   22.1763   -7.4567  -16.6018 O   0  0  0  0  0  0  0  0  0  0  0  0
   21.2514   -7.0317  -14.5096 N   0  0  0  0  0  0  0  0  0  0  0  0
   21.3215   -5.5973  -14.8130 C   0  0  1  0  0  0  0  0  0  0  0  0
   19.8677   -5.1130  -14.7706 C   0  0  0  0  0  0  0  0  0  0  0  0
   19.0026   -5.9162  -16.1437 S   0  0  0  0  0  0  0  0  0  0  0  0
   22.1025   -4.9326  -13.7815 C   0  0  0  0  0  0  0  0  0  0  0  0
   22.3976   -3.5791  -13.8610 O   0  0  0  0  0  0  0  0  0  0  0  0
   22.5338   -5.5561  -12.7905 O   0  0  0  0  0  0  0  0  0  0  0  0
  2  1  1  1
  3  2  1  0
  3  4  1  0
  4  8  1  0
  5  4  2  0
  6  2  1  0
  6  7  2  0
 10  9  1  6
 10 12  1  0
 11 10  1  0
 12 14  1  0
 12 13  1  6
 13  6  1  0
 14 15  2  0
 16 14  1  0
 16 17  1  0
 17 20  1  0
 18 19  1  0
 17 18  1  1
 20 22  2  0
 20 21  1  0
M  END
$$$$
