DVC.pdb
     RDKit          3D

 22 21  0  0  1  0  0  0  0  0999 V2000
   19.1715  -12.6818  -16.9266 N   0  0  0  0  0  0  0  0  0  0  0  0
   19.6146  -11.3998  -17.4259 C   0  0  1  0  0  0  0  0  0  0  0  0
   18.4610  -10.6797  -18.0479 C   0  0  0  0  0  0  0  0  0  0  0  0
   18.0970  -11.3887  -19.3018 C   0  0  0  0  0  0  0  0  0  0  0  0
   17.0133  -12.0076  -19.4214 O   0  0  0  0  0  0  0  0  0  0  0  0
   20.2613  -10.6375  -16.3339 C   0  0  0  0  0  0  0  0  0  0  0  0
   19.6463  -10.6355  -15.2247 O   0  0  0  0  0  0  0  0  0  0  0  0
   18.9893  -11.3542  -20.3550 O   0  0  0  0  0  0  0  0  0  0  0  0
   23.4583  -11.0663  -14.5365 C   0  0  0  0  0  0  0  0  0  0  0  0
   23.3945   -9.6524  -15.0112 C   0  0  1  0  0  0  0  0  0  0  0  0
   24.3377   -9.4265  -16.1657 C   0  0  0  0  0  0  0  0  0  0  0  0
   21.9926   -9.2260  -15.2961 C   0  0  2  0  0  0  0  0  0  0  0  0
   21.4848   -9.9421  -16.4743 N   0  0  0  0  0  0  0  0  0  0  0  0
   21.9772   -7.7927  -15.6312 C   0  0  0  0  0  0  0  0  0  0  0  0
   22.4691   -7.4755  -16.7856 O   0  0  0  0  0  0  0  0  0  0  0  0
   21.4697   -6.8005  -14.7958 N   0  0  0  0  0  0  0  0  0  0  0  0
   21.6455   -5.4069  -15.2217 C   0  0  1  0  0  0  0  0  0  0  0  0
   20.2224   -4.8638  -15.3936 C   0  0  0  0  0  0  0  0  0  0  0  0
   19.5283   -5.6561  -16.8664 S   0  0  0  0  0  0  0  0  0  0  0  0
   22.3391   -4.6751  -14.1733 C   0  0  0  0  0  0  0  0  0  0  0  0
   22.6216   -5.2641  -12.9491 O   0  0  0  0  0  0  0  0  0  0  0  0
   22.7035   -3.4932  -14.3385 O   0  0  0  0  0  0  0  0  0  0  0  0
  2  1  1  1
  3  2  1  0
  3  4  1  0
  4  8  1  0
  5  4  2  0
  6  2  1  0
  6  7  2  0
 10  9  1  6
 10 12  1  0
 11 10  1  0
 12 14  1  0
 12 13  1  6
 13  6  1  0
 14 15  2  0
 16 14  1  0
 16 17  1  0
 17 20  1  0
 18 19  1  0
 17 18  1  1
 20 22  2  0
 20 21  1  0
M  END
$$$$
