DVC.pdb
     RDKit          3D

 22 21  0  0  1  0  0  0  0  0999 V2000
   21.5254  -20.9723  -15.7814 N   0  0  0  0  0  0  0  0  0  0  0  0
   22.1560  -19.8260  -15.1672 C   0  0  1  0  0  0  0  0  0  0  0  0
   21.3005  -19.3248  -14.0477 C   0  0  0  0  0  0  0  0  0  0  0  0
   20.1337  -18.6203  -14.6391 C   0  0  0  0  0  0  0  0  0  0  0  0
   20.1801  -18.1072  -15.7821 O   0  0  0  0  0  0  0  0  0  0  0  0
   23.5285  -20.1822  -14.7415 C   0  0  0  0  0  0  0  0  0  0  0  0
   23.6950  -21.3829  -14.3683 O   0  0  0  0  0  0  0  0  0  0  0  0
   18.9735  -18.5380  -13.8948 O   0  0  0  0  0  0  0  0  0  0  0  0
   27.0920  -19.0556  -16.3056 C   0  0  0  0  0  0  0  0  0  0  0  0
   27.0118  -18.9409  -14.8193 C   0  0  1  0  0  0  0  0  0  0  0  0
   26.9498  -17.4966  -14.3910 C   0  0  0  0  0  0  0  0  0  0  0  0
   25.9091  -19.7758  -14.2577 C   0  0  2  0  0  0  0  0  0  0  0  0
   24.6132  -19.2748  -14.7354 N   0  0  0  0  0  0  0  0  0  0  0  0
   25.8991  -19.6483  -12.7913 C   0  0  0  0  0  0  0  0  0  0  0  0
   25.1494  -18.7099  -12.3092 O   0  0  0  0  0  0  0  0  0  0  0  0
   26.6278  -20.4662  -11.9310 N   0  0  0  0  0  0  0  0  0  0  0  0
   26.5688  -20.1575  -10.4973 C   0  0  1  0  0  0  0  0  0  0  0  0
   25.2084  -20.6910  -10.0340 C   0  0  0  0  0  0  0  0  0  0  0  0
   25.1488  -20.4957   -8.2348 S   0  0  0  0  0  0  0  0  0  0  0  0
   27.6432  -20.8627   -9.8162 C   0  0  0  0  0  0  0  0  0  0  0  0
   27.9470  -20.6030   -8.4874 O   0  0  0  0  0  0  0  0  0  0  0  0
   28.3283  -21.7248  -10.4029 O   0  0  0  0  0  0  0  0  0  0  0  0
  2  1  1  1
  3  2  1  0
  3  4  1  0
  4  8  1  0
  5  4  2  0
  6  2  1  0
  6  7  2  0
 10  9  1  6
 10 12  1  0
 11 10  1  0
 12 14  1  0
 12 13  1  6
 13  6  1  0
 14 15  2  0
 16 14  1  0
 16 17  1  0
 17 20  1  0
 18 19  1  0
 17 18  1  1
 20 22  2  0
 20 21  1  0
M  END
$$$$
