DVC.pdb
     RDKit          3D

 22 21  0  0  1  0  0  0  0  0999 V2000
   14.1226  -11.3745  -11.7478 N   0  0  0  0  0  0  0  0  0  0  0  0
   15.2981  -10.6147  -11.3873 C   0  0  1  0  0  0  0  0  0  0  0  0
   16.3538  -10.8024  -12.4298 C   0  0  0  0  0  0  0  0  0  0  0  0
   16.6272  -12.2577  -12.5522 C   0  0  0  0  0  0  0  0  0  0  0  0
   16.8536  -12.9751  -11.5493 O   0  0  0  0  0  0  0  0  0  0  0  0
   14.9284   -9.1968  -11.1765 C   0  0  0  0  0  0  0  0  0  0  0  0
   14.1927   -8.6807  -12.0715 O   0  0  0  0  0  0  0  0  0  0  0  0
   16.6278  -12.8189  -13.8138 O   0  0  0  0  0  0  0  0  0  0  0  0
   15.7423   -7.3490   -7.6935 C   0  0  0  0  0  0  0  0  0  0  0  0
   14.7670   -6.6214   -8.5584 C   0  0  1  0  0  0  0  0  0  0  0  0
   14.8756   -5.1307   -8.3600 C   0  0  0  0  0  0  0  0  0  0  0  0
   14.8728   -7.0407   -9.9872 C   0  0  2  0  0  0  0  0  0  0  0  0
   15.3456   -8.4296  -10.0641 N   0  0  0  0  0  0  0  0  0  0  0  0
   15.8815   -6.2106  -10.6656 C   0  0  0  0  0  0  0  0  0  0  0  0
   17.1120   -6.4232  -10.3254 O   0  0  0  0  0  0  0  0  0  0  0  0
   15.5828   -5.2475  -11.6265 N   0  0  0  0  0  0  0  0  0  0  0  0
   16.6975   -4.4463  -12.1459 C   0  0  1  0  0  0  0  0  0  0  0  0
   16.7975   -4.8228  -13.6286 C   0  0  0  0  0  0  0  0  0  0  0  0
   18.0028   -3.6993  -14.3793 S   0  0  0  0  0  0  0  0  0  0  0  0
   16.3720   -3.0355  -12.0069 C   0  0  0  0  0  0  0  0  0  0  0  0
   15.0879   -2.6205  -11.6840 O   0  0  0  0  0  0  0  0  0  0  0  0
   17.2356   -2.1504  -12.1733 O   0  0  0  0  0  0  0  0  0  0  0  0
  2  1  1  6
  3  2  1  0
  3  4  1  0
  4  8  1  0
  5  4  2  0
  6  2  1  0
  6  7  2  0
 10  9  1  1
 10 12  1  0
 11 10  1  0
 12 14  1  0
 12 13  1  1
 13  6  1  0
 14 15  2  0
 16 14  1  0
 16 17  1  0
 17 20  1  0
 18 19  1  0
 17 18  1  6
 20 22  2  0
 20 21  1  0
M  END
$$$$
