DVC.pdb
     RDKit          3D

 22 21  0  0  1  0  0  0  0  0999 V2000
   14.5936  -11.1150  -11.1517 N   0  0  0  0  0  0  0  0  0  0  0  0
   15.7126  -10.2033  -11.0771 C   0  0  1  0  0  0  0  0  0  0  0  0
   16.5338  -10.3169  -12.3217 C   0  0  0  0  0  0  0  0  0  0  0  0
   17.0135  -11.7188  -12.4311 C   0  0  0  0  0  0  0  0  0  0  0  0
   17.5051  -12.3283  -11.4520 O   0  0  0  0  0  0  0  0  0  0  0  0
   15.2195   -8.8306  -10.8237 C   0  0  0  0  0  0  0  0  0  0  0  0
   14.3658   -8.3906  -11.6520 O   0  0  0  0  0  0  0  0  0  0  0  0
   16.9070  -12.3528  -13.6531 O   0  0  0  0  0  0  0  0  0  0  0  0
   13.0322   -7.5306   -8.3308 C   0  0  0  0  0  0  0  0  0  0  0  0
   14.2536   -6.6732   -8.2906 C   0  0  1  0  0  0  0  0  0  0  0  0
   15.1053   -7.0011   -7.0905 C   0  0  0  0  0  0  0  0  0  0  0  0
   15.0028   -6.7150   -9.5811 C   0  0  2  0  0  0  0  0  0  0  0  0
   15.6453   -8.0266   -9.7408 N   0  0  0  0  0  0  0  0  0  0  0  0
   16.0821   -5.7145   -9.5511 C   0  0  0  0  0  0  0  0  0  0  0  0
   17.1523   -6.0546   -8.9077 O   0  0  0  0  0  0  0  0  0  0  0  0
   16.0085   -4.4674  -10.1670 N   0  0  0  0  0  0  0  0  0  0  0  0
   17.1403   -3.5531   -9.9735 C   0  0  1  0  0  0  0  0  0  0  0  0
   17.5839   -3.1680  -11.3894 C   0  0  0  0  0  0  0  0  0  0  0  0
   18.2927   -4.6536  -12.1439 S   0  0  0  0  0  0  0  0  0  0  0  0
   16.6805   -2.3758   -9.2537 C   0  0  0  0  0  0  0  0  0  0  0  0
   17.5743   -1.5202   -8.6255 O   0  0  0  0  0  0  0  0  0  0  0  0
   15.4672   -2.0948   -9.1761 O   0  0  0  0  0  0  0  0  0  0  0  0
  2  1  1  6
  3  2  1  0
  3  4  1  0
  4  8  1  0
  5  4  2  0
  6  2  1  0
  6  7  2  0
 10  9  1  6
 10 12  1  0
 11 10  1  0
 12 14  1  0
 12 13  1  1
 13  6  1  0
 14 15  2  0
 16 14  1  0
 16 17  1  0
 17 20  1  0
 18 19  1  0
 17 18  1  6
 20 22  2  0
 20 21  1  0
M  END
$$$$
