DVC.pdb
     RDKit          3D

 22 21  0  0  1  0  0  0  0  0999 V2000
   17.7968  -11.4989  -16.1999 N   0  0  0  0  0  0  0  0  0  0  0  0
   18.2585  -10.1477  -16.4232 C   0  0  1  0  0  0  0  0  0  0  0  0
   17.0848   -9.2236  -16.4932 C   0  0  0  0  0  0  0  0  0  0  0  0
   16.2307   -9.6485  -17.6322 C   0  0  0  0  0  0  0  0  0  0  0  0
   16.7107   -9.8919  -18.7645 O   0  0  0  0  0  0  0  0  0  0  0  0
   19.2350   -9.7761  -15.3744 C   0  0  0  0  0  0  0  0  0  0  0  0
   18.8303   -9.8948  -14.1783 O   0  0  0  0  0  0  0  0  0  0  0  0
   14.8721   -9.7739  -17.4195 O   0  0  0  0  0  0  0  0  0  0  0  0
   22.8509  -11.0302  -14.8669 C   0  0  0  0  0  0  0  0  0  0  0  0
   22.7974   -9.5408  -14.7807 C   0  0  1  0  0  0  0  0  0  0  0  0
   23.4166   -8.9060  -16.0001 C   0  0  0  0  0  0  0  0  0  0  0  0
   21.4171   -9.0516  -14.4912 C   0  0  2  0  0  0  0  0  0  0  0  0
   20.5445   -9.3144  -15.6436 N   0  0  0  0  0  0  0  0  0  0  0  0
   21.4462   -7.5916  -14.3050 C   0  0  0  0  0  0  0  0  0  0  0  0
   22.0613   -7.1674  -13.2483 O   0  0  0  0  0  0  0  0  0  0  0  0
   20.8689   -6.6801  -15.1858 N   0  0  0  0  0  0  0  0  0  0  0  0
   20.9807   -5.2557  -14.8498 C   0  0  1  0  0  0  0  0  0  0  0  0
   21.7413   -4.6310  -16.0250 C   0  0  0  0  0  0  0  0  0  0  0  0
   23.4975   -4.9899  -15.7689 S   0  0  0  0  0  0  0  0  0  0  0  0
   19.6461   -4.6851  -14.7552 C   0  0  0  0  0  0  0  0  0  0  0  0
   19.4493   -3.3786  -14.3312 O   0  0  0  0  0  0  0  0  0  0  0  0
   18.6330   -5.3504  -15.0516 O   0  0  0  0  0  0  0  0  0  0  0  0
  2  1  1  1
  3  2  1  0
  3  4  1  0
  4  8  1  0
  5  4  2  0
  6  2  1  0
  6  7  2  0
 10  9  1  6
 10 12  1  0
 11 10  1  0
 12 14  1  0
 12 13  1  6
 13  6  1  0
 14 15  2  0
 16 14  1  0
 16 17  1  0
 17 20  1  0
 18 19  1  0
 17 18  1  6
 20 22  2  0
 20 21  1  0
M  END
$$$$
