DVC.pdb
     RDKit          3D

 22 21  0  0  1  0  0  0  0  0999 V2000
   22.6407  -13.9957  -18.3665 N   0  0  0  0  0  0  0  0  0  0  0  0
   22.8537  -12.6066  -18.7042 C   0  0  1  0  0  0  0  0  0  0  0  0
   21.7198  -12.1176  -19.5476 C   0  0  0  0  0  0  0  0  0  0  0  0
   21.7820  -12.8196  -20.8556 C   0  0  0  0  0  0  0  0  0  0  0  0
   22.8437  -12.8909  -21.5186 O   0  0  0  0  0  0  0  0  0  0  0  0
   23.0457  -11.8177  -17.4662 C   0  0  0  0  0  0  0  0  0  0  0  0
   22.2330  -12.0646  -16.5244 O   0  0  0  0  0  0  0  0  0  0  0  0
   20.6285  -13.4046  -21.3392 O   0  0  0  0  0  0  0  0  0  0  0  0
   26.2150  -11.3439  -15.3365 C   0  0  0  0  0  0  0  0  0  0  0  0
   25.5708  -10.0225  -15.5961 C   0  0  1  0  0  0  0  0  0  0  0  0
   26.3842   -9.2061  -16.5683 C   0  0  0  0  0  0  0  0  0  0  0  0
   24.1404  -10.1723  -15.9961 C   0  0  2  0  0  0  0  0  0  0  0  0
   24.0565  -10.8424  -17.3010 N   0  0  0  0  0  0  0  0  0  0  0  0
   23.5387   -8.8395  -16.1639 C   0  0  0  0  0  0  0  0  0  0  0  0
   23.7752   -8.2488  -17.2909 O   0  0  0  0  0  0  0  0  0  0  0  0
   22.7499   -8.2118  -15.2026 N   0  0  0  0  0  0  0  0  0  0  0  0
   22.2240   -6.8806  -15.5278 C   0  0  1  0  0  0  0  0  0  0  0  0
   20.7525   -7.1145  -15.8886 C   0  0  0  0  0  0  0  0  0  0  0  0
   19.9946   -5.4838  -16.1008 S   0  0  0  0  0  0  0  0  0  0  0  0
   22.3236   -6.0315  -14.3511 C   0  0  0  0  0  0  0  0  0  0  0  0
   22.3880   -4.6499  -14.4627 O   0  0  0  0  0  0  0  0  0  0  0  0
   22.3548   -6.5158  -13.2016 O   0  0  0  0  0  0  0  0  0  0  0  0
  2  1  1  1
  3  2  1  0
  3  4  1  0
  4  8  1  0
  5  4  2  0
  6  2  1  0
  6  7  2  0
 10  9  1  6
 10 12  1  0
 11 10  1  0
 12 14  1  0
 12 13  1  6
 13  6  1  0
 14 15  2  0
 16 14  1  0
 16 17  1  0
 17 20  1  0
 18 19  1  0
 17 18  1  1
 20 22  2  0
 20 21  1  0
M  END
$$$$
