DVC.pdb
     RDKit          3D

 22 21  0  0  1  0  0  0  0  0999 V2000
   16.4878  -13.8037  -17.6192 N   0  0  0  0  0  0  0  0  0  0  0  0
   16.2658  -12.6522  -16.7744 C   0  0  1  0  0  0  0  0  0  0  0  0
   16.4980  -13.0283  -15.3457 C   0  0  0  0  0  0  0  0  0  0  0  0
   15.4442  -13.9967  -14.9469 C   0  0  0  0  0  0  0  0  0  0  0  0
   15.7064  -15.0179  -14.2685 O   0  0  0  0  0  0  0  0  0  0  0  0
   17.1163  -11.5295  -17.2304 C   0  0  0  0  0  0  0  0  0  0  0  0
   18.2477  -11.8528  -17.7036 O   0  0  0  0  0  0  0  0  0  0  0  0
   14.1448  -13.7491  -15.3431 O   0  0  0  0  0  0  0  0  0  0  0  0
   15.5882   -7.8999  -17.8702 C   0  0  0  0  0  0  0  0  0  0  0  0
   16.9778   -8.0907  -18.3812 C   0  0  1  0  0  0  0  0  0  0  0  0
   17.7275   -6.7828  -18.4107 C   0  0  0  0  0  0  0  0  0  0  0  0
   17.6961   -9.1716  -17.6434 C   0  0  2  0  0  0  0  0  0  0  0  0
   16.7320  -10.1702  -17.1618 N   0  0  0  0  0  0  0  0  0  0  0  0
   18.3463   -8.6004  -16.4527 C   0  0  0  0  0  0  0  0  0  0  0  0
   17.5921   -8.4520  -15.4116 O   0  0  0  0  0  0  0  0  0  0  0  0
   19.6886   -8.2328  -16.3964 N   0  0  0  0  0  0  0  0  0  0  0  0
   20.1924   -7.7173  -15.1177 C   0  0  1  0  0  0  0  0  0  0  0  0
   21.1578   -8.7945  -14.6103 C   0  0  0  0  0  0  0  0  0  0  0  0
   21.9763   -8.1217  -13.1419 S   0  0  0  0  0  0  0  0  0  0  0  0
   20.9082   -6.4740  -15.3572 C   0  0  0  0  0  0  0  0  0  0  0  0
   21.7901   -6.3433  -16.4205 O   0  0  0  0  0  0  0  0  0  0  0  0
   20.7541   -5.4828  -14.6151 O   0  0  0  0  0  0  0  0  0  0  0  0
  2  1  1  6
  3  2  1  0
  3  4  1  0
  4  8  1  0
  5  4  2  0
  6  2  1  0
  6  7  2  0
 10  9  1  1
 10 12  1  0
 11 10  1  0
 12 14  1  0
 12 13  1  1
 13  6  1  0
 14 15  2  0
 16 14  1  0
 16 17  1  0
 17 20  1  0
 18 19  1  0
 17 18  1  6
 20 22  2  0
 20 21  1  0
M  END
$$$$
