NLV.pdb
     RDKit          3D

 24 23  0  0  1  0  0  0  0  0999 V2000
   10.6181  -16.1322   18.5099 N   0  0  0  0  0  0  0  0  0  0  0  0
    9.4635  -15.6393   19.1680 C   0  0  0  0  0  0  0  0  0  0  0  0
    8.3958  -15.5894   18.5174 O   0  0  0  0  0  0  0  0  0  0  0  0
    9.5400  -15.2071   20.5677 C   0  0  0  0  0  0  0  0  0  0  0  0
    8.7686  -16.1445   21.4839 C   0  0  2  0  0  0  0  0  0  0  0  0
    7.3726  -16.1063   21.1492 N   0  0  0  0  0  0  0  0  0  0  0  0
    9.0231  -15.6924   22.8796 C   0  0  0  0  0  0  0  0  0  0  0  0
   10.2511  -15.4806   23.1653 O   0  0  0  0  0  0  0  0  0  0  0  0
    8.1772  -12.1548   25.9808 C   0  0  0  0  0  0  0  0  0  0  0  0
    7.0116  -13.0340   25.4771 C   0  0  2  0  0  0  0  0  0  0  0  0
    5.7954  -12.4433   26.1450 C   0  0  0  0  0  0  0  0  0  0  0  0
    7.2823  -14.4196   25.9005 C   0  0  0  0  0  0  0  0  0  0  0  0
    8.3084  -15.1966   25.1749 C   0  0  2  0  0  0  0  0  0  0  0  0
    7.9871  -15.5099   23.8211 N   0  0  0  0  0  0  0  0  0  0  0  0
    8.8128  -16.4131   25.8485 C   0  0  0  0  0  0  0  0  0  0  0  0
    8.0371  -17.4171   26.0271 O   0  0  0  0  0  0  0  0  0  0  0  0
   12.6054  -19.1933   27.1848 C   0  0  0  0  0  0  0  0  0  0  0  0
   12.0293  -18.0187   26.4318 C   0  0  1  0  0  0  0  0  0  0  0  0
   12.0119  -18.2166   24.9427 C   0  0  0  0  0  0  0  0  0  0  0  0
   10.6483  -17.7019   26.9755 C   0  0  2  0  0  0  0  0  0  0  0  0
   10.1600  -16.5100   26.3119 N   0  0  0  0  0  0  0  0  0  0  0  0
   10.6499  -17.5334   28.4311 C   0  0  0  0  0  0  0  0  0  0  0  0
   10.6323  -16.2608   28.9736 O   0  0  0  0  0  0  0  0  0  0  0  0
   10.6676  -18.5289   29.2285 O   0  0  0  0  0  0  0  0  0  0  0  0
  1  2  1  0
  2  3  2  0
  4  2  1  0
  4  5  1  0
  5  6  1  6
  7  8  2  0
  7  5  1  0
 10  9  1  1
 10 11  1  0
 10 12  1  0
 13 12  1  1
 13 14  1  0
 14  7  1  0
 15 13  1  0
 16 15  2  0
 18 17  1  1
 19 18  1  0
 20 18  1  0
 20 21  1  6
 21 15  1  0
 22 20  1  0
 23 22  1  0
 24 22  2  0
M  END
$$$$
