NLV.pdb
     RDKit          3D

 24 23  0  0  1  0  0  0  0  0999 V2000
    9.0128  -15.9957   18.1244 N   0  0  0  0  0  0  0  0  0  0  0  0
    9.5246  -15.4975   19.3487 C   0  0  0  0  0  0  0  0  0  0  0  0
   10.7671  -15.4676   19.4945 O   0  0  0  0  0  0  0  0  0  0  0  0
    8.6091  -15.0363   20.3979 C   0  0  0  0  0  0  0  0  0  0  0  0
    8.2446  -16.1613   21.3544 C   0  0  2  0  0  0  0  0  0  0  0  0
    6.8310  -16.4076   21.2939 N   0  0  0  0  0  0  0  0  0  0  0  0
    8.6817  -15.7341   22.7121 C   0  0  0  0  0  0  0  0  0  0  0  0
    9.9475  -15.6965   22.8872 O   0  0  0  0  0  0  0  0  0  0  0  0
    8.2593  -11.9997   25.5666 C   0  0  0  0  0  0  0  0  0  0  0  0
    7.0326  -12.9135   25.3538 C   0  0  2  0  0  0  0  0  0  0  0  0
    5.9387  -12.2450   26.1479 C   0  0  0  0  0  0  0  0  0  0  0  0
    7.3783  -14.2514   25.8668 C   0  0  0  0  0  0  0  0  0  0  0  0
    8.2472  -15.1231   25.0494 C   0  0  2  0  0  0  0  0  0  0  0  0
    7.7684  -15.3947   23.7337 N   0  0  0  0  0  0  0  0  0  0  0  0
    8.6891  -16.3879   25.6764 C   0  0  0  0  0  0  0  0  0  0  0  0
    7.8857  -17.3832   25.7505 O   0  0  0  0  0  0  0  0  0  0  0  0
   12.4206  -19.3108   26.8735 C   0  0  0  0  0  0  0  0  0  0  0  0
   11.8848  -18.0418   26.2564 C   0  0  1  0  0  0  0  0  0  0  0  0
   11.9767  -18.0238   24.7570 C   0  0  0  0  0  0  0  0  0  0  0  0
   10.4643  -17.8099   26.7378 C   0  0  2  0  0  0  0  0  0  0  0  0
   10.0053  -16.5417   26.2083 N   0  0  0  0  0  0  0  0  0  0  0  0
   10.3613  -17.8410   28.1991 C   0  0  0  0  0  0  0  0  0  0  0  0
   10.3847  -16.6561   28.9131 O   0  0  0  0  0  0  0  0  0  0  0  0
   10.2499  -18.9338   28.8475 O   0  0  0  0  0  0  0  0  0  0  0  0
  1  2  1  0
  2  3  2  0
  4  2  1  0
  4  5  1  0
  5  6  1  1
  7  8  2  0
  7  5  1  0
 10  9  1  1
 10 11  1  0
 10 12  1  0
 13 12  1  1
 13 14  1  0
 14  7  1  0
 15 13  1  0
 16 15  2  0
 18 17  1  6
 19 18  1  0
 20 18  1  0
 20 21  1  1
 21 15  1  0
 22 20  1  0
 23 22  1  0
 24 22  2  0
M  END
$$$$
