NLV.pdb
     RDKit          3D

 24 23  0  0  1  0  0  0  0  0999 V2000
   10.3012  -18.3434   19.1841 N   0  0  0  0  0  0  0  0  0  0  0  0
   10.7310  -16.9930   19.1546 C   0  0  0  0  0  0  0  0  0  0  0  0
   11.3536  -16.5992   18.1431 O   0  0  0  0  0  0  0  0  0  0  0  0
   10.4440  -16.1026   20.2845 C   0  0  0  0  0  0  0  0  0  0  0  0
    9.8775  -16.8695   21.4694 C   0  0  2  0  0  0  0  0  0  0  0  0
    8.6176  -17.4559   21.1073 N   0  0  0  0  0  0  0  0  0  0  0  0
    9.7425  -15.8979   22.5896 C   0  0  0  0  0  0  0  0  0  0  0  0
   10.7854  -15.1983   22.8290 O   0  0  0  0  0  0  0  0  0  0  0  0
    5.6414  -13.1303   26.2375 C   0  0  0  0  0  0  0  0  0  0  0  0
    7.1341  -13.3364   25.8990 C   0  0  2  0  0  0  0  0  0  0  0  0
    7.5971  -11.9731   25.4505 C   0  0  0  0  0  0  0  0  0  0  0  0
    7.2139  -14.3493   24.8311 C   0  0  0  0  0  0  0  0  0  0  0  0
    8.5340  -14.9171   24.4877 C   0  0  2  0  0  0  0  0  0  0  0  0
    8.5519  -15.7567   23.3349 N   0  0  0  0  0  0  0  0  0  0  0  0
    9.2711  -15.5819   25.5844 C   0  0  0  0  0  0  0  0  0  0  0  0
    9.6594  -16.7959   25.4540 O   0  0  0  0  0  0  0  0  0  0  0  0
   11.3488  -15.1760   30.0792 C   0  0  0  0  0  0  0  0  0  0  0  0
   10.4492  -14.5844   29.0213 C   0  0  1  0  0  0  0  0  0  0  0  0
   10.8216  -13.1798   28.6403 C   0  0  0  0  0  0  0  0  0  0  0  0
   10.4169  -15.5065   27.8163 C   0  0  2  0  0  0  0  0  0  0  0  0
    9.5735  -14.9037   26.8041 N   0  0  0  0  0  0  0  0  0  0  0  0
    9.9508  -16.8526   28.1596 C   0  0  0  0  0  0  0  0  0  0  0  0
   10.8721  -17.8453   28.4428 O   0  0  0  0  0  0  0  0  0  0  0  0
    8.7110  -17.1489   28.2075 O   0  0  0  0  0  0  0  0  0  0  0  0
  1  2  1  0
  2  3  2  0
  4  2  1  0
  4  5  1  0
  5  6  1  6
  7  8  2  0
  7  5  1  0
 10  9  1  6
 10 11  1  0
 10 12  1  0
 13 12  1  1
 13 14  1  0
 14  7  1  0
 15 13  1  0
 16 15  2  0
 18 17  1  1
 19 18  1  0
 20 18  1  0
 20 21  1  6
 21 15  1  0
 22 20  1  0
 23 22  1  0
 24 22  2  0
M  END
$$$$
