NLV.pdb
     RDKit          3D

 24 23  0  0  1  0  0  0  0  0999 V2000
    7.2328  -20.5470   18.4204 N   0  0  0  0  0  0  0  0  0  0  0  0
    8.5749  -20.3723   17.9993 C   0  0  0  0  0  0  0  0  0  0  0  0
    8.9275  -20.9154   16.9285 O   0  0  0  0  0  0  0  0  0  0  0  0
    9.5042  -19.5759   18.8080 C   0  0  0  0  0  0  0  0  0  0  0  0
    9.7519  -18.2089   18.1890 C   0  0  2  0  0  0  0  0  0  0  0  0
   10.9098  -18.2652   17.3414 N   0  0  0  0  0  0  0  0  0  0  0  0
    9.9267  -17.2493   19.3141 C   0  0  0  0  0  0  0  0  0  0  0  0
   11.1135  -17.1752   19.7838 O   0  0  0  0  0  0  0  0  0  0  0  0
    8.9865  -12.6193   19.8041 C   0  0  0  0  0  0  0  0  0  0  0  0
    7.8152  -13.6195   19.9175 C   0  0  2  0  0  0  0  0  0  0  0  0
    6.6073  -12.7426   20.1325 C   0  0  0  0  0  0  0  0  0  0  0  0
    8.0930  -14.5043   21.0632 C   0  0  0  0  0  0  0  0  0  0  0  0
    9.0993  -15.5747   20.9066 C   0  0  2  0  0  0  0  0  0  0  0  0
    8.8626  -16.4765   19.8272 N   0  0  0  0  0  0  0  0  0  0  0  0
    9.4329  -16.3488   22.1221 C   0  0  0  0  0  0  0  0  0  0  0  0
    8.6724  -17.3073   22.5023 O   0  0  0  0  0  0  0  0  0  0  0  0
   12.8276  -17.8447   25.3057 C   0  0  0  0  0  0  0  0  0  0  0  0
   12.4419  -17.0543   24.0790 C   0  0  1  0  0  0  0  0  0  0  0  0
   12.9307  -17.6674   22.7975 C   0  0  0  0  0  0  0  0  0  0  0  0
   10.9387  -16.8459   24.0678 C   0  0  2  0  0  0  0  0  0  0  0  0
   10.5965  -16.0616   22.8986 N   0  0  0  0  0  0  0  0  0  0  0  0
   10.4581  -16.2039   25.2941 C   0  0  0  0  0  0  0  0  0  0  0  0
    9.9900  -14.9027   25.2483 O   0  0  0  0  0  0  0  0  0  0  0  0
   10.4550  -16.8068   26.4182 O   0  0  0  0  0  0  0  0  0  0  0  0
  1  2  1  0
  2  3  2  0
  4  2  1  0
  4  5  1  0
  5  6  1  6
  7  8  2  0
  7  5  1  0
 10  9  1  1
 10 11  1  0
 10 12  1  0
 13 12  1  1
 13 14  1  0
 14  7  1  0
 15 13  1  0
 16 15  2  0
 18 17  1  1
 19 18  1  0
 20 18  1  0
 20 21  1  6
 21 15  1  0
 22 20  1  0
 23 22  1  0
 24 22  2  0
M  END
$$$$
