NLV.pdb
     RDKit          3D

 24 23  0  0  1  0  0  0  0  0999 V2000
    7.7867  -17.2654   18.8826 N   0  0  0  0  0  0  0  0  0  0  0  0
    7.8401  -18.0445   20.0655 C   0  0  0  0  0  0  0  0  0  0  0  0
    7.4753  -19.2395   19.9958 O   0  0  0  0  0  0  0  0  0  0  0  0
    8.3119  -17.4493   21.3204 C   0  0  0  0  0  0  0  0  0  0  0  0
    8.6043  -15.9655   21.1589 C   0  0  2  0  0  0  0  0  0  0  0  0
    9.7374  -15.7879   20.2946 N   0  0  0  0  0  0  0  0  0  0  0  0
    8.8490  -15.4213   22.5231 C   0  0  0  0  0  0  0  0  0  0  0  0
   10.0662  -15.4608   22.9121 O   0  0  0  0  0  0  0  0  0  0  0  0
    5.9927  -12.3045   27.0088 C   0  0  0  0  0  0  0  0  0  0  0  0
    7.3251  -12.9383   26.5525 C   0  0  2  0  0  0  0  0  0  0  0  0
    8.3127  -11.8010   26.6248 C   0  0  0  0  0  0  0  0  0  0  0  0
    7.1323  -13.4443   25.1815 C   0  0  0  0  0  0  0  0  0  0  0  0
    8.1184  -14.3967   24.6305 C   0  0  2  0  0  0  0  0  0  0  0  0
    7.8154  -14.8993   23.3306 N   0  0  0  0  0  0  0  0  0  0  0  0
    8.5094  -15.5219   25.5076 C   0  0  0  0  0  0  0  0  0  0  0  0
    7.6946  -16.4890   25.7136 O   0  0  0  0  0  0  0  0  0  0  0  0
   12.2009  -18.1817   27.2406 C   0  0  0  0  0  0  0  0  0  0  0  0
   11.5702  -17.1767   26.3075 C   0  0  1  0  0  0  0  0  0  0  0  0
   11.4511  -17.6699   24.8935 C   0  0  0  0  0  0  0  0  0  0  0  0
   10.2287  -16.7428   26.8690 C   0  0  2  0  0  0  0  0  0  0  0  0
    9.7882  -15.5700   26.1411 N   0  0  0  0  0  0  0  0  0  0  0  0
   10.2885  -16.4795   28.3092 C   0  0  0  0  0  0  0  0  0  0  0  0
   10.3834  -15.1763   28.7642 O   0  0  0  0  0  0  0  0  0  0  0  0
   10.2566  -17.4187   29.1717 O   0  0  0  0  0  0  0  0  0  0  0  0
  1  2  1  0
  2  3  2  0
  4  2  1  0
  4  5  1  0
  5  6  1  6
  7  8  2  0
  7  5  1  0
 10  9  1  6
 10 11  1  0
 10 12  1  0
 13 12  1  1
 13 14  1  0
 14  7  1  0
 15 13  1  0
 16 15  2  0
 18 17  1  1
 19 18  1  0
 20 18  1  0
 20 21  1  6
 21 15  1  0
 22 20  1  0
 23 22  1  0
 24 22  2  0
M  END
$$$$
