NLV.pdb
     RDKit          3D

 24 23  0  0  1  0  0  0  0  0999 V2000
    8.7468  -17.0672   18.8948 N   0  0  0  0  0  0  0  0  0  0  0  0
    9.6229  -16.0046   19.2299 C   0  0  0  0  0  0  0  0  0  0  0  0
   10.4255  -15.6100   18.3546 O   0  0  0  0  0  0  0  0  0  0  0  0
    9.5733  -15.4008   20.5658 C   0  0  0  0  0  0  0  0  0  0  0  0
    8.5507  -16.0932   21.4535 C   0  0  2  0  0  0  0  0  0  0  0  0
    7.2290  -15.6594   21.0967 N   0  0  0  0  0  0  0  0  0  0  0  0
    8.8937  -15.7472   22.8605 C   0  0  0  0  0  0  0  0  0  0  0  0
   10.1417  -15.7736   23.1364 O   0  0  0  0  0  0  0  0  0  0  0  0
    8.3715  -12.1104   25.8512 C   0  0  0  0  0  0  0  0  0  0  0  0
    7.1367  -12.9651   25.4908 C   0  0  2  0  0  0  0  0  0  0  0  0
    6.0028  -12.2940   26.2244 C   0  0  0  0  0  0  0  0  0  0  0  0
    7.3914  -14.3384   25.9618 C   0  0  0  0  0  0  0  0  0  0  0  0
    8.3003  -15.2009   25.1788 C   0  0  2  0  0  0  0  0  0  0  0  0
    7.9153  -15.4141   23.8221 N   0  0  0  0  0  0  0  0  0  0  0  0
    8.6674  -16.4974   25.7891 C   0  0  0  0  0  0  0  0  0  0  0  0
    7.8261  -17.4636   25.7997 O   0  0  0  0  0  0  0  0  0  0  0  0
   12.1742  -19.6778   26.8447 C   0  0  0  0  0  0  0  0  0  0  0  0
   11.6938  -18.3691   26.2661 C   0  0  1  0  0  0  0  0  0  0  0  0
   11.6510  -18.3618   24.7645 C   0  0  0  0  0  0  0  0  0  0  0  0
   10.3473  -18.0165   26.8710 C   0  0  2  0  0  0  0  0  0  0  0  0
    9.9518  -16.7142   26.3743 N   0  0  0  0  0  0  0  0  0  0  0  0
   10.3739  -18.0378   28.3359 C   0  0  0  0  0  0  0  0  0  0  0  0
   10.2940  -19.2461   29.0052 O   0  0  0  0  0  0  0  0  0  0  0  0
   10.4687  -16.9702   29.0276 O   0  0  0  0  0  0  0  0  0  0  0  0
  1  2  1  0
  2  3  2  0
  4  2  1  0
  4  5  1  0
  5  6  1  6
  7  8  2  0
  7  5  1  0
 10  9  1  1
 10 11  1  0
 10 12  1  0
 13 12  1  1
 13 14  1  0
 14  7  1  0
 15 13  1  0
 16 15  2  0
 18 17  1  1
 19 18  1  0
 20 18  1  0
 20 21  1  1
 21 15  1  0
 22 20  1  0
 23 22  1  0
 24 22  2  0
M  END
$$$$
