NLV.pdb
     RDKit          3D

 24 23  0  0  1  0  0  0  0  0999 V2000
    9.2807  -20.4748   21.0265 N   0  0  0  0  0  0  0  0  0  0  0  0
    9.2953  -19.3125   20.2155 C   0  0  0  0  0  0  0  0  0  0  0  0
    9.4932  -19.4578   18.9884 O   0  0  0  0  0  0  0  0  0  0  0  0
    9.0825  -17.9911   20.8158 C   0  0  0  0  0  0  0  0  0  0  0  0
    8.9030  -18.0854   22.3231 C   0  0  2  0  0  0  0  0  0  0  0  0
    7.5600  -18.4950   22.6248 N   0  0  0  0  0  0  0  0  0  0  0  0
    9.2182  -16.7417   22.8818 C   0  0  0  0  0  0  0  0  0  0  0  0
   10.3834  -16.2973   22.6000 O   0  0  0  0  0  0  0  0  0  0  0  0
    6.0561  -14.0840   26.3125 C   0  0  0  0  0  0  0  0  0  0  0  0
    7.2671  -13.3139   25.7418 C   0  0  2  0  0  0  0  0  0  0  0  0
    6.8334  -11.8702   25.7849 C   0  0  0  0  0  0  0  0  0  0  0  0
    7.5006  -13.8019   24.3706 C   0  0  0  0  0  0  0  0  0  0  0  0
    8.6451  -14.7028   24.1224 C   0  0  2  0  0  0  0  0  0  0  0  0
    8.3006  -16.0092   23.6656 N   0  0  0  0  0  0  0  0  0  0  0  0
    9.6431  -14.8152   25.2084 C   0  0  0  0  0  0  0  0  0  0  0  0
   10.7237  -14.1285   25.1615 O   0  0  0  0  0  0  0  0  0  0  0  0
   11.0555  -14.9994   29.6195 C   0  0  0  0  0  0  0  0  0  0  0  0
   10.1874  -14.7365   28.4130 C   0  0  1  0  0  0  0  0  0  0  0  0
   10.3605  -13.3568   27.8441 C   0  0  0  0  0  0  0  0  0  0  0  0
   10.4358  -15.8119   27.3714 C   0  0  2  0  0  0  0  0  0  0  0  0
    9.4383  -15.6757   26.3294 N   0  0  0  0  0  0  0  0  0  0  0  0
   10.4170  -17.1587   27.9484 C   0  0  0  0  0  0  0  0  0  0  0  0
   11.4281  -17.5502   28.8078 O   0  0  0  0  0  0  0  0  0  0  0  0
    9.4915  -17.9960   27.6848 O   0  0  0  0  0  0  0  0  0  0  0  0
  1  2  1  0
  2  3  2  0
  4  2  1  0
  4  5  1  0
  5  6  1  6
  7  8  2  0
  7  5  1  0
 10  9  1  6
 10 11  1  0
 10 12  1  0
 13 12  1  1
 13 14  1  0
 14  7  1  0
 15 13  1  0
 16 15  2  0
 18 17  1  1
 19 18  1  0
 20 18  1  0
 20 21  1  6
 21 15  1  0
 22 20  1  0
 23 22  1  0
 24 22  2  0
M  END
$$$$
