NLV.pdb
     RDKit          3D

 24 23  0  0  1  0  0  0  0  0999 V2000
    9.7841  -19.2998   20.1128 N   0  0  0  0  0  0  0  0  0  0  0  0
    9.6677  -18.0099   19.5370 C   0  0  0  0  0  0  0  0  0  0  0  0
    9.7881  -17.9105   18.2954 O   0  0  0  0  0  0  0  0  0  0  0  0
    9.4136  -16.8422   20.3877 C   0  0  0  0  0  0  0  0  0  0  0  0
    9.3918  -17.2195   21.8609 C   0  0  2  0  0  0  0  0  0  0  0  0
    8.2406  -18.0335   22.1340 N   0  0  0  0  0  0  0  0  0  0  0  0
    9.3746  -15.9468   22.6336 C   0  0  0  0  0  0  0  0  0  0  0  0
   10.4049  -15.2056   22.4802 O   0  0  0  0  0  0  0  0  0  0  0  0
    5.7742  -12.6631   26.4361 C   0  0  0  0  0  0  0  0  0  0  0  0
    7.2154  -12.8936   25.9311 C   0  0  2  0  0  0  0  0  0  0  0  0
    7.6321  -11.5478   25.3931 C   0  0  0  0  0  0  0  0  0  0  0  0
    7.1625  -13.9361   24.8904 C   0  0  0  0  0  0  0  0  0  0  0  0
    8.4314  -14.4554   24.3398 C   0  0  2  0  0  0  0  0  0  0  0  0
    8.3012  -15.5819   23.4749 N   0  0  0  0  0  0  0  0  0  0  0  0
    9.5158  -14.7123   25.3125 C   0  0  0  0  0  0  0  0  0  0  0  0
   10.5137  -13.9123   25.3882 O   0  0  0  0  0  0  0  0  0  0  0  0
   11.0205  -15.0077   29.4868 C   0  0  0  0  0  0  0  0  0  0  0  0
   10.1825  -14.8093   28.2471 C   0  0  1  0  0  0  0  0  0  0  0  0
   10.4074  -13.4809   27.5825 C   0  0  0  0  0  0  0  0  0  0  0  0
   10.4167  -15.9653   27.2921 C   0  0  2  0  0  0  0  0  0  0  0  0
    9.4865  -15.8398   26.1883 N   0  0  0  0  0  0  0  0  0  0  0  0
   10.2816  -17.2667   27.9518 C   0  0  0  0  0  0  0  0  0  0  0  0
   11.2229  -17.6626   28.8854 O   0  0  0  0  0  0  0  0  0  0  0  0
    9.3164  -18.0600   27.6945 O   0  0  0  0  0  0  0  0  0  0  0  0
  1  2  1  0
  2  3  2  0
  4  2  1  0
  4  5  1  0
  5  6  1  6
  7  8  2  0
  7  5  1  0
 10  9  1  6
 10 11  1  0
 10 12  1  0
 13 12  1  1
 13 14  1  0
 14  7  1  0
 15 13  1  0
 16 15  2  0
 18 17  1  1
 19 18  1  0
 20 18  1  0
 20 21  1  6
 21 15  1  0
 22 20  1  0
 23 22  1  0
 24 22  2  0
M  END
$$$$
