NLV.pdb
     RDKit          3D

 24 23  0  0  1  0  0  0  0  0999 V2000
    8.4596  -16.9796   18.2437 N   0  0  0  0  0  0  0  0  0  0  0  0
    9.5218  -16.0820   18.5177 C   0  0  0  0  0  0  0  0  0  0  0  0
   10.3023  -15.7964   17.5822 O   0  0  0  0  0  0  0  0  0  0  0  0
    9.6824  -15.5171   19.8619 C   0  0  0  0  0  0  0  0  0  0  0  0
    8.7443  -16.1775   20.8603 C   0  0  2  0  0  0  0  0  0  0  0  0
    7.3861  -16.0287   20.4182 N   0  0  0  0  0  0  0  0  0  0  0  0
    8.9807  -15.5216   22.1760 C   0  0  0  0  0  0  0  0  0  0  0  0
   10.2096  -15.3918   22.5039 O   0  0  0  0  0  0  0  0  0  0  0  0
    6.0300  -12.6140   26.7252 C   0  0  0  0  0  0  0  0  0  0  0  0
    7.3681  -13.2525   26.2927 C   0  0  2  0  0  0  0  0  0  0  0  0
    8.3772  -12.1486   26.4852 C   0  0  0  0  0  0  0  0  0  0  0  0
    7.2311  -13.6653   24.8843 C   0  0  0  0  0  0  0  0  0  0  0  0
    8.2110  -14.6193   24.3250 C   0  0  2  0  0  0  0  0  0  0  0  0
    7.9278  -15.0746   23.0034 N   0  0  0  0  0  0  0  0  0  0  0  0
    8.5603  -15.7791   25.1741 C   0  0  0  0  0  0  0  0  0  0  0  0
    7.6772  -16.6677   25.4428 O   0  0  0  0  0  0  0  0  0  0  0  0
   12.1290  -18.7834   26.5920 C   0  0  0  0  0  0  0  0  0  0  0  0
   11.5909  -17.6289   25.7821 C   0  0  1  0  0  0  0  0  0  0  0  0
   11.4735  -17.9336   24.3157 C   0  0  0  0  0  0  0  0  0  0  0  0
   10.2684  -17.1746   26.3720 C   0  0  2  0  0  0  0  0  0  0  0  0
    9.8726  -15.9474   25.7113 N   0  0  0  0  0  0  0  0  0  0  0  0
   10.3413  -16.9933   27.8242 C   0  0  0  0  0  0  0  0  0  0  0  0
   10.1841  -18.0847   28.6598 O   0  0  0  0  0  0  0  0  0  0  0  0
   10.5464  -15.8517   28.3552 O   0  0  0  0  0  0  0  0  0  0  0  0
  1  2  1  0
  2  3  2  0
  4  2  1  0
  4  5  1  0
  5  6  1  6
  7  8  2  0
  7  5  1  0
 10  9  1  6
 10 11  1  0
 10 12  1  0
 13 12  1  1
 13 14  1  0
 14  7  1  0
 15 13  1  0
 16 15  2  0
 18 17  1  1
 19 18  1  0
 20 18  1  0
 20 21  1  6
 21 15  1  0
 22 20  1  0
 23 22  1  0
 24 22  2  0
M  END
$$$$
