NLV.pdb
     RDKit          3D

 24 23  0  0  1  0  0  0  0  0999 V2000
    7.1873  -12.5244   18.4542 N   0  0  0  0  0  0  0  0  0  0  0  0
    8.1104  -13.4634   18.9787 C   0  0  0  0  0  0  0  0  0  0  0  0
    8.6353  -14.2747   18.1836 O   0  0  0  0  0  0  0  0  0  0  0  0
    8.4265  -13.4663   20.4112 C   0  0  0  0  0  0  0  0  0  0  0  0
    8.1811  -14.8320   21.0339 C   0  0  2  0  0  0  0  0  0  0  0  0
    6.7915  -15.1743   20.9149 N   0  0  0  0  0  0  0  0  0  0  0  0
    8.6174  -14.7448   22.4549 C   0  0  0  0  0  0  0  0  0  0  0  0
    9.8789  -14.6315   22.6285 O   0  0  0  0  0  0  0  0  0  0  0  0
    8.0664  -11.8366   26.0981 C   0  0  0  0  0  0  0  0  0  0  0  0
    6.9225  -12.7625   25.6297 C   0  0  2  0  0  0  0  0  0  0  0  0
    5.7476  -12.3479   26.4792 C   0  0  0  0  0  0  0  0  0  0  0  0
    7.3452  -14.1532   25.8747 C   0  0  0  0  0  0  0  0  0  0  0  0
    8.1988  -14.8235   24.8722 C   0  0  2  0  0  0  0  0  0  0  0  0
    7.7078  -14.7840   23.5338 N   0  0  0  0  0  0  0  0  0  0  0  0
    8.6315  -16.2017   25.1906 C   0  0  0  0  0  0  0  0  0  0  0  0
    7.8228  -17.1823   25.0293 O   0  0  0  0  0  0  0  0  0  0  0  0
   12.2327  -19.4333   25.7162 C   0  0  0  0  0  0  0  0  0  0  0  0
   11.7306  -18.0588   25.3461 C   0  0  1  0  0  0  0  0  0  0  0  0
   11.7090  -17.8115   23.8644 C   0  0  0  0  0  0  0  0  0  0  0  0
   10.3678  -17.8354   25.9756 C   0  0  2  0  0  0  0  0  0  0  0  0
    9.9444  -16.4824   25.6769 N   0  0  0  0  0  0  0  0  0  0  0  0
   10.3768  -18.0798   27.4203 C   0  0  0  0  0  0  0  0  0  0  0  0
   10.1215  -19.3515   27.9019 O   0  0  0  0  0  0  0  0  0  0  0  0
   10.6137  -17.1520   28.2631 O   0  0  0  0  0  0  0  0  0  0  0  0
  1  2  1  0
  2  3  2  0
  4  2  1  0
  4  5  1  0
  5  6  1  1
  7  8  2  0
  7  5  1  0
 10  9  1  1
 10 11  1  0
 10 12  1  0
 13 12  1  1
 13 14  1  0
 14  7  1  0
 15 13  1  0
 16 15  2  0
 18 17  1  6
 19 18  1  0
 20 18  1  0
 20 21  1  1
 21 15  1  0
 22 20  1  0
 23 22  1  0
 24 22  2  0
M  END
$$$$
