NLV.pdb
     RDKit          3D

 24 23  0  0  1  0  0  0  0  0999 V2000
    8.4608  -19.2966   18.9946 N   0  0  0  0  0  0  0  0  0  0  0  0
    7.6764  -18.3966   19.7587 C   0  0  0  0  0  0  0  0  0  0  0  0
    6.5002  -18.1852   19.3874 O   0  0  0  0  0  0  0  0  0  0  0  0
    8.2448  -17.7450   20.9436 C   0  0  0  0  0  0  0  0  0  0  0  0
    8.1599  -16.2299   20.8419 C   0  0  2  0  0  0  0  0  0  0  0  0
    9.0091  -15.7689   19.7795 N   0  0  0  0  0  0  0  0  0  0  0  0
    8.5700  -15.6833   22.1648 C   0  0  0  0  0  0  0  0  0  0  0  0
    9.8178  -15.7776   22.4269 O   0  0  0  0  0  0  0  0  0  0  0  0
    6.3198  -12.6080   27.0191 C   0  0  0  0  0  0  0  0  0  0  0  0
    7.5608  -13.3007   26.4147 C   0  0  2  0  0  0  0  0  0  0  0  0
    8.6233  -12.2308   26.4403 C   0  0  0  0  0  0  0  0  0  0  0  0
    7.2115  -13.7296   25.0484 C   0  0  0  0  0  0  0  0  0  0  0  0
    8.0906  -14.6982   24.3612 C   0  0  2  0  0  0  0  0  0  0  0  0
    7.6514  -15.1031   23.0661 N   0  0  0  0  0  0  0  0  0  0  0  0
    8.4863  -15.8944   25.1362 C   0  0  0  0  0  0  0  0  0  0  0  0
    7.6331  -16.8222   25.3658 O   0  0  0  0  0  0  0  0  0  0  0  0
   12.0751  -18.9290   26.3594 C   0  0  0  0  0  0  0  0  0  0  0  0
   11.4757  -17.7902   25.5705 C   0  0  1  0  0  0  0  0  0  0  0  0
   11.1953  -18.1413   24.1370 C   0  0  0  0  0  0  0  0  0  0  0  0
   10.2335  -17.2855   26.2816 C   0  0  2  0  0  0  0  0  0  0  0  0
    9.8115  -16.0553   25.6431 N   0  0  0  0  0  0  0  0  0  0  0  0
   10.4569  -17.0870   27.7161 C   0  0  0  0  0  0  0  0  0  0  0  0
   10.1539  -18.1039   28.6040 O   0  0  0  0  0  0  0  0  0  0  0  0
   10.9261  -15.9972   28.1844 O   0  0  0  0  0  0  0  0  0  0  0  0
  1  2  1  0
  2  3  2  0
  4  2  1  0
  4  5  1  0
  5  6  1  6
  7  8  2  0
  7  5  1  0
 10  9  1  6
 10 11  1  0
 10 12  1  0
 13 12  1  1
 13 14  1  0
 14  7  1  0
 15 13  1  0
 16 15  2  0
 18 17  1  1
 19 18  1  0
 20 18  1  0
 20 21  1  6
 21 15  1  0
 22 20  1  0
 23 22  1  0
 24 22  2  0
M  END
$$$$
