NLV.pdb
     RDKit          3D

 24 23  0  0  1  0  0  0  0  0999 V2000
   10.4605  -19.9836   20.4981 N   0  0  0  0  0  0  0  0  0  0  0  0
    9.5433  -18.9064   20.5843 C   0  0  0  0  0  0  0  0  0  0  0  0
    8.6833  -18.7967   19.6818 O   0  0  0  0  0  0  0  0  0  0  0  0
    9.6172  -17.9621   21.7044 C   0  0  0  0  0  0  0  0  0  0  0  0
    9.2908  -16.5443   21.2613 C   0  0  2  0  0  0  0  0  0  0  0  0
   10.2590  -16.1050   20.2959 N   0  0  0  0  0  0  0  0  0  0  0  0
    9.2948  -15.6963   22.4852 C   0  0  0  0  0  0  0  0  0  0  0  0
   10.4168  -15.1496   22.7621 O   0  0  0  0  0  0  0  0  0  0  0  0
    5.5185  -12.7874   26.3509 C   0  0  0  0  0  0  0  0  0  0  0  0
    6.9874  -13.0890   25.9814 C   0  0  2  0  0  0  0  0  0  0  0  0
    7.5695  -11.7335   25.6682 C   0  0  0  0  0  0  0  0  0  0  0  0
    6.9783  -13.9924   24.8167 C   0  0  0  0  0  0  0  0  0  0  0  0
    8.2245  -14.6999   24.4566 C   0  0  2  0  0  0  0  0  0  0  0  0
    8.1460  -15.5076   23.2838 N   0  0  0  0  0  0  0  0  0  0  0  0
    8.8796  -15.4716   25.5352 C   0  0  0  0  0  0  0  0  0  0  0  0
    8.9979  -16.7434   25.4344 O   0  0  0  0  0  0  0  0  0  0  0  0
   11.2824  -15.4011   29.8783 C   0  0  0  0  0  0  0  0  0  0  0  0
   10.3550  -14.7118   28.9071 C   0  0  1  0  0  0  0  0  0  0  0  0
   10.7606  -13.2990   28.5969 C   0  0  0  0  0  0  0  0  0  0  0  0
   10.2296  -15.5522   27.6496 C   0  0  2  0  0  0  0  0  0  0  0  0
    9.3975  -14.8359   26.7043 N   0  0  0  0  0  0  0  0  0  0  0  0
    9.6891  -16.8861   27.9249 C   0  0  0  0  0  0  0  0  0  0  0  0
   10.5447  -17.9711   27.9952 O   0  0  0  0  0  0  0  0  0  0  0  0
    8.4424  -17.0884   28.1041 O   0  0  0  0  0  0  0  0  0  0  0  0
  1  2  1  0
  2  3  2  0
  4  2  1  0
  4  5  1  0
  5  6  1  6
  7  8  2  0
  7  5  1  0
 10  9  1  6
 10 11  1  0
 10 12  1  0
 13 12  1  1
 13 14  1  0
 14  7  1  0
 15 13  1  0
 16 15  2  0
 18 17  1  1
 19 18  1  0
 20 18  1  0
 20 21  1  6
 21 15  1  0
 22 20  1  0
 23 22  1  0
 24 22  2  0
M  END
$$$$
