NLV.pdb
     RDKit          3D

 24 23  0  0  1  0  0  0  0  0999 V2000
    9.5390  -19.4768   20.0089 N   0  0  0  0  0  0  0  0  0  0  0  0
    9.7509  -18.1676   19.5087 C   0  0  0  0  0  0  0  0  0  0  0  0
   10.1181  -18.0484   18.3184 O   0  0  0  0  0  0  0  0  0  0  0  0
    9.5401  -17.0033   20.3758 C   0  0  0  0  0  0  0  0  0  0  0  0
    9.3345  -17.4169   21.8249 C   0  0  2  0  0  0  0  0  0  0  0  0
    8.0853  -18.1132   21.9557 N   0  0  0  0  0  0  0  0  0  0  0  0
    9.3700  -16.1713   22.6399 C   0  0  0  0  0  0  0  0  0  0  0  0
   10.4286  -15.4668   22.5073 O   0  0  0  0  0  0  0  0  0  0  0  0
    5.8104  -12.6970   26.3065 C   0  0  0  0  0  0  0  0  0  0  0  0
    7.2420  -12.9494   25.7850 C   0  0  2  0  0  0  0  0  0  0  0  0
    7.6079  -11.6627   25.0888 C   0  0  0  0  0  0  0  0  0  0  0  0
    7.1863  -14.1020   24.8679 C   0  0  0  0  0  0  0  0  0  0  0  0
    8.4502  -14.6343   24.3182 C   0  0  2  0  0  0  0  0  0  0  0  0
    8.3144  -15.7927   23.4974 N   0  0  0  0  0  0  0  0  0  0  0  0
    9.5502  -14.8490   25.2835 C   0  0  0  0  0  0  0  0  0  0  0  0
   10.5509  -14.0491   25.3056 O   0  0  0  0  0  0  0  0  0  0  0  0
   10.4211  -15.0051   29.7085 C   0  0  0  0  0  0  0  0  0  0  0  0
    9.7708  -14.8676   28.3533 C   0  0  1  0  0  0  0  0  0  0  0  0
    9.8789  -13.4838   27.7785 C   0  0  0  0  0  0  0  0  0  0  0  0
   10.3401  -15.9151   27.4142 C   0  0  2  0  0  0  0  0  0  0  0  0
    9.5332  -15.9347   26.2109 N   0  0  0  0  0  0  0  0  0  0  0  0
   10.3990  -17.2421   28.0328 C   0  0  0  0  0  0  0  0  0  0  0  0
   11.4849  -17.5840   28.8191 O   0  0  0  0  0  0  0  0  0  0  0  0
    9.4750  -18.1066   27.8716 O   0  0  0  0  0  0  0  0  0  0  0  0
  1  2  1  0
  2  3  2  0
  4  2  1  0
  4  5  1  0
  5  6  1  6
  7  8  2  0
  7  5  1  0
 10  9  1  6
 10 11  1  0
 10 12  1  0
 13 12  1  1
 13 14  1  0
 14  7  1  0
 15 13  1  0
 16 15  2  0
 18 17  1  1
 19 18  1  0
 20 18  1  0
 20 21  1  6
 21 15  1  0
 22 20  1  0
 23 22  1  0
 24 22  2  0
M  END
$$$$
