DKM.pdb
     RDKit          3D

 26 25  0  0  1  0  0  0  0  0999 V2000
    9.1324  -18.1487   18.9117 N   0  0  0  0  0  0  0  0  0  0  0  0
    8.1516  -17.0927   18.8492 C   0  0  1  0  0  0  0  0  0  0  0  0
    7.1955  -17.3293   17.7268 C   0  0  0  0  0  0  0  0  0  0  0  0
    7.9228  -17.2078   16.4432 C   0  0  0  0  0  0  0  0  0  0  0  0
    8.8348  -18.0211   16.1651 O   0  0  0  0  0  0  0  0  0  0  0  0
    7.5117  -16.9522   20.1589 C   0  0  0  0  0  0  0  0  0  0  0  0
    6.5718  -16.1403   20.3250 O   0  0  0  0  0  0  0  0  0  0  0  0
    7.6331  -16.2152   15.5191 O   0  0  0  0  0  0  0  0  0  0  0  0
    7.9699  -17.7483   21.2402 N   0  0  0  0  0  0  0  0  0  0  0  0
    7.3619  -17.7552   22.5391 C   0  0  1  0  0  0  0  0  0  0  0  0
    7.4177  -19.1668   23.1223 C   0  0  0  0  0  0  0  0  0  0  0  0
    6.2650  -19.9994   22.6799 C   0  0  0  0  0  0  0  0  0  0  0  0
    6.3827  -21.3892   23.2408 C   0  0  0  0  0  0  0  0  0  0  0  0
    5.2076  -22.2292   22.8640 C   0  0  0  0  0  0  0  0  0  0  0  0
    5.3744  -23.5913   23.3593 N   0  0  0  0  0  0  0  0  0  0  0  0
    8.1782  -16.9202   23.4549 C   0  0  0  0  0  0  0  0  0  0  0  0
    9.4338  -16.9262   23.3082 O   0  0  0  0  0  0  0  0  0  0  0  0
    6.8718  -10.7895   27.0284 C   0  0  0  0  0  0  0  0  0  0  0  0
    6.1722  -11.9330   25.8453 S   0  0  0  0  0  0  0  0  0  0  0  0
    7.2882  -13.1333   25.1628 C   0  0  0  0  0  0  0  0  0  0  0  0
    7.5768  -14.3293   25.9979 C   0  0  0  0  0  0  0  0  0  0  0  0
    8.4373  -15.3796   25.3865 C   0  0  2  0  0  0  0  0  0  0  0  0
    7.5707  -16.1392   24.4640 N   0  0  0  0  0  0  0  0  0  0  0  0
    8.9734  -16.3248   26.4125 C   0  0  0  0  0  0  0  0  0  0  0  0
   10.1333  -16.0013   27.0986 O   0  0  0  0  0  0  0  0  0  0  0  0
    8.4003  -17.3972   26.6645 O   0  0  0  0  0  0  0  0  0  0  0  0
  2  1  1  1
  2  3  1  0
  3  4  1  0
  4  8  1  0
  5  4  2  0
  6  2  1  0
  7  6  2  0
  9  6  1  0
 10 11  1  1
 10  9  1  0
 11 12  1  0
 12 13  1  0
 14 13  1  0
 14 15  1  0
 16 10  1  0
 17 16  2  0
 19 20  1  0
 19 18  1  0
 22 21  1  1
 21 20  1  0
 22 23  1  0
 23 16  1  0
 24 22  1  0
 24 25  1  0
 26 24  2  0
M  END
$$$$
