DKM.pdb
     RDKit          3D

 26 25  0  0  1  0  0  0  0  0999 V2000
    9.3567  -15.3723   18.0369 N   0  0  0  0  0  0  0  0  0  0  0  0
    8.5992  -14.3071   18.6472 C   0  0  1  0  0  0  0  0  0  0  0  0
    7.5846  -13.7698   17.6922 C   0  0  0  0  0  0  0  0  0  0  0  0
    8.1739  -13.7364   16.3346 C   0  0  0  0  0  0  0  0  0  0  0  0
    9.1214  -14.5050   16.0482 O   0  0  0  0  0  0  0  0  0  0  0  0
    8.0354  -14.7814   19.9128 C   0  0  0  0  0  0  0  0  0  0  0  0
    7.2534  -14.0582   20.5728 O   0  0  0  0  0  0  0  0  0  0  0  0
    7.7143  -12.8759   15.3489 O   0  0  0  0  0  0  0  0  0  0  0  0
    8.3862  -16.0729   20.3838 N   0  0  0  0  0  0  0  0  0  0  0  0
    7.8390  -16.6649   21.5700 C   0  0  1  0  0  0  0  0  0  0  0  0
    8.2789  -18.1256   21.6622 C   0  0  0  0  0  0  0  0  0  0  0  0
    7.2356  -19.0561   21.1491 C   0  0  0  0  0  0  0  0  0  0  0  0
    7.7202  -20.4768   21.2331 C   0  0  0  0  0  0  0  0  0  0  0  0
    6.6682  -21.4376   20.7875 C   0  0  0  0  0  0  0  0  0  0  0  0
    7.1245  -22.8119   20.9645 N   0  0  0  0  0  0  0  0  0  0  0  0
    8.4346  -16.0005   22.7558 C   0  0  0  0  0  0  0  0  0  0  0  0
    9.6604  -15.6942   22.7154 O   0  0  0  0  0  0  0  0  0  0  0  0
    6.6381  -10.8788   28.4606 C   0  0  0  0  0  0  0  0  0  0  0  0
    6.2405  -11.9259   27.0669 S   0  0  0  0  0  0  0  0  0  0  0  0
    7.5042  -13.0640   26.5575 C   0  0  0  0  0  0  0  0  0  0  0  0
    7.1964  -13.9238   25.3839 C   0  0  0  0  0  0  0  0  0  0  0  0
    8.2479  -14.8948   24.9727 C   0  0  2  0  0  0  0  0  0  0  0  0
    7.6548  -15.7173   23.8999 N   0  0  0  0  0  0  0  0  0  0  0  0
    8.6384  -15.7993   26.0963 C   0  0  0  0  0  0  0  0  0  0  0  0
    9.5835  -15.3752   27.0170 O   0  0  0  0  0  0  0  0  0  0  0  0
    8.1328  -16.9264   26.2236 O   0  0  0  0  0  0  0  0  0  0  0  0
  2  1  1  6
  2  3  1  0
  3  4  1  0
  4  8  1  0
  5  4  2  0
  6  2  1  0
  7  6  2  0
  9  6  1  0
 10 11  1  1
 10  9  1  0
 11 12  1  0
 12 13  1  0
 14 13  1  0
 14 15  1  0
 16 10  1  0
 17 16  2  0
 19 20  1  0
 19 18  1  0
 22 21  1  1
 21 20  1  0
 22 23  1  0
 23 16  1  0
 24 22  1  0
 24 25  1  0
 26 24  2  0
M  END
$$$$
