DKM.pdb
     RDKit          3D

 26 25  0  0  1  0  0  0  0  0999 V2000
    9.9789  -16.6771   20.1522 N   0  0  0  0  0  0  0  0  0  0  0  0
    8.7244  -16.0828   20.5450 C   0  0  1  0  0  0  0  0  0  0  0  0
    7.6319  -16.4994   19.6161 C   0  0  0  0  0  0  0  0  0  0  0  0
    8.1213  -16.3961   18.2228 C   0  0  0  0  0  0  0  0  0  0  0  0
    8.6415  -15.3282   17.8233 O   0  0  0  0  0  0  0  0  0  0  0  0
    8.4635  -16.3951   21.9517 C   0  0  0  0  0  0  0  0  0  0  0  0
    7.3547  -16.1251   22.4693 O   0  0  0  0  0  0  0  0  0  0  0  0
    8.0271  -17.4488   17.3249 O   0  0  0  0  0  0  0  0  0  0  0  0
    9.4837  -17.0087   22.7234 N   0  0  0  0  0  0  0  0  0  0  0  0
    9.3262  -17.3850   24.0984 C   0  0  1  0  0  0  0  0  0  0  0  0
   10.2321  -18.5759   24.4096 C   0  0  0  0  0  0  0  0  0  0  0  0
   10.1132  -19.0118   25.8286 C   0  0  0  0  0  0  0  0  0  0  0  0
   10.9585  -20.2314   26.0697 C   0  0  0  0  0  0  0  0  0  0  0  0
   10.7956  -20.7391   27.4640 C   0  0  0  0  0  0  0  0  0  0  0  0
   11.5529  -21.9721   27.6497 N   0  0  0  0  0  0  0  0  0  0  0  0
    9.8215  -16.2807   24.9572 C   0  0  0  0  0  0  0  0  0  0  0  0
   10.9669  -15.8037   24.7147 O   0  0  0  0  0  0  0  0  0  0  0  0
    6.2693  -11.0554   25.1580 C   0  0  0  0  0  0  0  0  0  0  0  0
    7.0615  -11.3381   26.7358 S   0  0  0  0  0  0  0  0  0  0  0  0
    8.5375  -12.3241   26.7049 C   0  0  0  0  0  0  0  0  0  0  0  0
    8.3943  -13.7549   27.0837 C   0  0  0  0  0  0  0  0  0  0  0  0
    9.5586  -14.6401   26.8042 C   0  0  2  0  0  0  0  0  0  0  0  0
    9.0362  -15.7750   26.0178 N   0  0  0  0  0  0  0  0  0  0  0  0
   10.1614  -15.1782   28.0614 C   0  0  0  0  0  0  0  0  0  0  0  0
   10.9745  -14.3622   28.8321 O   0  0  0  0  0  0  0  0  0  0  0  0
    9.9489  -16.3442   28.4319 O   0  0  0  0  0  0  0  0  0  0  0  0
  2  1  1  6
  2  3  1  0
  3  4  1  0
  4  8  1  0
  5  4  2  0
  6  2  1  0
  7  6  2  0
  9  6  1  0
 10 11  1  6
 10  9  1  0
 11 12  1  0
 12 13  1  0
 14 13  1  0
 14 15  1  0
 16 10  1  0
 17 16  2  0
 19 20  1  0
 19 18  1  0
 22 21  1  1
 21 20  1  0
 22 23  1  0
 23 16  1  0
 24 22  1  0
 24 25  1  0
 26 24  2  0
M  END
$$$$
