DKM.pdb
     RDKit          3D

 26 25  0  0  1  0  0  0  0  0999 V2000
    7.1416  -18.1798   18.8703 N   0  0  0  0  0  0  0  0  0  0  0  0
    8.2468  -18.0940   19.7935 C   0  0  1  0  0  0  0  0  0  0  0  0
    9.2812  -17.1429   19.2879 C   0  0  0  0  0  0  0  0  0  0  0  0
    9.9248  -17.7266   18.0894 C   0  0  0  0  0  0  0  0  0  0  0  0
    9.8449  -18.9593   17.8780 O   0  0  0  0  0  0  0  0  0  0  0  0
    7.7361  -17.7673   21.1265 C   0  0  0  0  0  0  0  0  0  0  0  0
    7.0272  -16.7496   21.3055 O   0  0  0  0  0  0  0  0  0  0  0  0
   10.6246  -16.9543   17.1745 O   0  0  0  0  0  0  0  0  0  0  0  0
    8.0543  -18.6191   22.2156 N   0  0  0  0  0  0  0  0  0  0  0  0
    7.5047  -18.4696   23.5319 C   0  0  1  0  0  0  0  0  0  0  0  0
    7.7643  -19.7395   24.3416 C   0  0  0  0  0  0  0  0  0  0  0  0
    7.2939  -19.6102   25.7486 C   0  0  0  0  0  0  0  0  0  0  0  0
    7.5003  -20.9040   26.4861 C   0  0  0  0  0  0  0  0  0  0  0  0
    6.8771  -20.8626   27.8419 C   0  0  0  0  0  0  0  0  0  0  0  0
    7.1989  -22.0739   28.5885 N   0  0  0  0  0  0  0  0  0  0  0  0
    8.2434  -17.3950   24.2405 C   0  0  0  0  0  0  0  0  0  0  0  0
    9.5023  -17.3632   24.1299 O   0  0  0  0  0  0  0  0  0  0  0  0
    6.3249  -10.8454   24.9292 C   0  0  0  0  0  0  0  0  0  0  0  0
    6.7895  -11.5688   26.4969 S   0  0  0  0  0  0  0  0  0  0  0  0
    7.8885  -12.9611   26.4214 C   0  0  0  0  0  0  0  0  0  0  0  0
    7.3759  -14.1820   25.7447 C   0  0  0  0  0  0  0  0  0  0  0  0
    8.3316  -15.3140   25.5945 C   0  0  2  0  0  0  0  0  0  0  0  0
    7.5602  -16.4330   25.0183 N   0  0  0  0  0  0  0  0  0  0  0  0
    8.8833  -15.7534   26.9120 C   0  0  0  0  0  0  0  0  0  0  0  0
    8.5095  -16.9822   27.4329 O   0  0  0  0  0  0  0  0  0  0  0  0
    9.6719  -15.0392   27.5525 O   0  0  0  0  0  0  0  0  0  0  0  0
  2  1  1  6
  2  3  1  0
  3  4  1  0
  4  8  1  0
  5  4  2  0
  6  2  1  0
  7  6  2  0
  9  6  1  0
 10 11  1  1
 10  9  1  0
 11 12  1  0
 12 13  1  0
 14 13  1  0
 14 15  1  0
 16 10  1  0
 17 16  2  0
 19 20  1  0
 19 18  1  0
 22 21  1  1
 21 20  1  0
 22 23  1  0
 23 16  1  0
 24 22  1  0
 24 25  1  0
 26 24  2  0
M  END
$$$$
