DKM.pdb
     RDKit          3D

 26 25  0  0  1  0  0  0  0  0999 V2000
   11.6424  -15.5449   17.8198 N   0  0  0  0  0  0  0  0  0  0  0  0
   11.9647  -15.6107   19.2245 C   0  0  1  0  0  0  0  0  0  0  0  0
   12.7841  -14.4304   19.6314 C   0  0  0  0  0  0  0  0  0  0  0  0
   14.1236  -14.5393   19.0110 C   0  0  0  0  0  0  0  0  0  0  0  0
   14.5672  -15.6639   18.6808 O   0  0  0  0  0  0  0  0  0  0  0  0
   10.7299  -15.7743   19.9944 C   0  0  0  0  0  0  0  0  0  0  0  0
    9.7388  -15.0403   19.7729 O   0  0  0  0  0  0  0  0  0  0  0  0
   14.9229  -13.4306   18.7753 O   0  0  0  0  0  0  0  0  0  0  0  0
   10.6689  -16.7767   20.9967 N   0  0  0  0  0  0  0  0  0  0  0  0
    9.5103  -17.0278   21.8039 C   0  0  1  0  0  0  0  0  0  0  0  0
    9.4507  -18.5116   22.1652 C   0  0  0  0  0  0  0  0  0  0  0  0
    9.0385  -19.3518   21.0069 C   0  0  0  0  0  0  0  0  0  0  0  0
    8.0076  -20.3583   21.4363 C   0  0  0  0  0  0  0  0  0  0  0  0
    7.6497  -21.2810   20.3187 C   0  0  0  0  0  0  0  0  0  0  0  0
    8.8214  -22.0328   19.8827 N   0  0  0  0  0  0  0  0  0  0  0  0
    9.6634  -16.3153   23.0968 C   0  0  0  0  0  0  0  0  0  0  0  0
   10.8025  -16.3119   23.6450 O   0  0  0  0  0  0  0  0  0  0  0  0
    6.2505  -10.7255   27.6436 C   0  0  0  0  0  0  0  0  0  0  0  0
    6.2464  -11.8483   26.2522 S   0  0  0  0  0  0  0  0  0  0  0  0
    7.6041  -12.9886   26.1626 C   0  0  0  0  0  0  0  0  0  0  0  0
    7.6669  -13.8609   24.9599 C   0  0  0  0  0  0  0  0  0  0  0  0
    8.8177  -14.8023   24.8764 C   0  0  2  0  0  0  0  0  0  0  0  0
    8.5672  -15.6585   23.7003 N   0  0  0  0  0  0  0  0  0  0  0  0
    8.9074  -15.6780   26.0840 C   0  0  0  0  0  0  0  0  0  0  0  0
    8.4974  -16.9993   26.0009 O   0  0  0  0  0  0  0  0  0  0  0  0
    9.3427  -15.2462   27.1640 O   0  0  0  0  0  0  0  0  0  0  0  0
  2  1  1  6
  2  3  1  0
  3  4  1  0
  4  8  1  0
  5  4  2  0
  6  2  1  0
  7  6  2  0
  9  6  1  0
 10 11  1  1
 10  9  1  0
 11 12  1  0
 12 13  1  0
 14 13  1  0
 14 15  1  0
 16 10  1  0
 17 16  2  0
 19 20  1  0
 19 18  1  0
 22 21  1  1
 21 20  1  0
 22 23  1  0
 23 16  1  0
 24 22  1  0
 24 25  1  0
 26 24  2  0
M  END
$$$$
