DKM.pdb
     RDKit          3D

 26 25  0  0  1  0  0  0  0  0999 V2000
    8.5744  -18.0082   20.1310 N   0  0  0  0  0  0  0  0  0  0  0  0
    9.9628  -17.6280   20.0359 C   0  0  1  0  0  0  0  0  0  0  0  0
   10.4632  -17.8107   18.6408 C   0  0  0  0  0  0  0  0  0  0  0  0
   10.6725  -19.2547   18.3912 C   0  0  0  0  0  0  0  0  0  0  0  0
   10.0816  -20.1012   19.1016 O   0  0  0  0  0  0  0  0  0  0  0  0
   10.1263  -16.2688   20.5557 C   0  0  0  0  0  0  0  0  0  0  0  0
   11.2570  -15.7295   20.5849 O   0  0  0  0  0  0  0  0  0  0  0  0
   11.5092  -19.7190   17.3873 O   0  0  0  0  0  0  0  0  0  0  0  0
    8.9862  -15.5680   21.0268 N   0  0  0  0  0  0  0  0  0  0  0  0
    8.9939  -14.1776   21.3786 C   0  0  1  0  0  0  0  0  0  0  0  0
    7.7343  -13.5053   20.8335 C   0  0  0  0  0  0  0  0  0  0  0  0
    7.3276  -14.0670   19.5157 C   0  0  0  0  0  0  0  0  0  0  0  0
    8.2038  -13.5177   18.4244 C   0  0  0  0  0  0  0  0  0  0  0  0
    7.7620  -13.9942   17.0805 C   0  0  0  0  0  0  0  0  0  0  0  0
    8.5956  -13.4130   16.0338 N   0  0  0  0  0  0  0  0  0  0  0  0
    8.8957  -14.0562   22.8544 C   0  0  0  0  0  0  0  0  0  0  0  0
    8.4863  -12.9620   23.3373 O   0  0  0  0  0  0  0  0  0  0  0  0
    6.5582  -11.5677   27.7492 C   0  0  0  0  0  0  0  0  0  0  0  0
    7.2627  -12.4872   26.3872 S   0  0  0  0  0  0  0  0  0  0  0  0
    6.7777  -14.1902   26.2586 C   0  0  0  0  0  0  0  0  0  0  0  0
    7.3773  -14.9744   25.1465 C   0  0  0  0  0  0  0  0  0  0  0  0
    8.8630  -15.0709   25.1218 C   0  0  2  0  0  0  0  0  0  0  0  0
    9.2500  -15.1328   23.6986 N   0  0  0  0  0  0  0  0  0  0  0  0
    9.3499  -16.3130   25.7952 C   0  0  0  0  0  0  0  0  0  0  0  0
    9.5080  -16.3258   27.1720 O   0  0  0  0  0  0  0  0  0  0  0  0
    9.6168  -17.3374   25.1459 O   0  0  0  0  0  0  0  0  0  0  0  0
  2  1  1  6
  2  3  1  0
  3  4  1  0
  4  8  1  0
  5  4  2  0
  6  2  1  0
  7  6  2  0
  9  6  1  0
 10 11  1  6
 10  9  1  0
 11 12  1  0
 12 13  1  0
 14 13  1  0
 14 15  1  0
 16 10  1  0
 17 16  2  0
 19 20  1  0
 19 18  1  0
 22 21  1  6
 21 20  1  0
 22 23  1  0
 23 16  1  0
 24 22  1  0
 24 25  1  0
 26 24  2  0
M  END
$$$$
