DKM.pdb
     RDKit          3D

 26 25  0  0  1  0  0  0  0  0999 V2000
   11.5969  -15.4604   18.2800 N   0  0  0  0  0  0  0  0  0  0  0  0
   12.0302  -15.4152   19.6552 C   0  0  1  0  0  0  0  0  0  0  0  0
   12.9048  -14.2282   19.8919 C   0  0  0  0  0  0  0  0  0  0  0  0
   14.1911  -14.4319   19.1881 C   0  0  0  0  0  0  0  0  0  0  0  0
   14.7812  -15.5340   19.2765 O   0  0  0  0  0  0  0  0  0  0  0  0
   10.8584  -15.4776   20.5313 C   0  0  0  0  0  0  0  0  0  0  0  0
   10.0678  -14.5084   20.6080 O   0  0  0  0  0  0  0  0  0  0  0  0
   14.7814  -13.4382   18.4218 O   0  0  0  0  0  0  0  0  0  0  0  0
   10.6284  -16.6516   21.2940 N   0  0  0  0  0  0  0  0  0  0  0  0
    9.4742  -16.8513   22.1217 C   0  0  1  0  0  0  0  0  0  0  0  0
    9.3017  -18.3428   22.4072 C   0  0  0  0  0  0  0  0  0  0  0  0
    8.1739  -18.6050   23.3436 C   0  0  0  0  0  0  0  0  0  0  0  0
    7.9266  -20.0835   23.4575 C   0  0  0  0  0  0  0  0  0  0  0  0
    6.6783  -20.3687   24.2249 C   0  0  0  0  0  0  0  0  0  0  0  0
    6.4900  -21.8074   24.3764 N   0  0  0  0  0  0  0  0  0  0  0  0
    9.7188  -16.2247   23.4446 C   0  0  0  0  0  0  0  0  0  0  0  0
   10.8784  -16.3112   23.9407 O   0  0  0  0  0  0  0  0  0  0  0  0
    5.2344  -12.0724   26.2387 C   0  0  0  0  0  0  0  0  0  0  0  0
    6.7381  -11.9117   27.1926 S   0  0  0  0  0  0  0  0  0  0  0  0
    7.9554  -13.1819   26.9547 C   0  0  0  0  0  0  0  0  0  0  0  0
    7.9791  -13.8449   25.6239 C   0  0  0  0  0  0  0  0  0  0  0  0
    8.9976  -14.9133   25.4274 C   0  0  2  0  0  0  0  0  0  0  0  0
    8.6853  -15.5496   24.1326 N   0  0  0  0  0  0  0  0  0  0  0  0
    8.9202  -15.9570   26.4942 C   0  0  0  0  0  0  0  0  0  0  0  0
    9.6085  -15.7706   27.6826 O   0  0  0  0  0  0  0  0  0  0  0  0
    8.2503  -16.9910   26.3386 O   0  0  0  0  0  0  0  0  0  0  0  0
  2  1  1  6
  2  3  1  0
  3  4  1  0
  4  8  1  0
  5  4  2  0
  6  2  1  0
  7  6  2  0
  9  6  1  0
 10 11  1  1
 10  9  1  0
 11 12  1  0
 12 13  1  0
 14 13  1  0
 14 15  1  0
 16 10  1  0
 17 16  2  0
 19 20  1  0
 19 18  1  0
 22 21  1  1
 21 20  1  0
 22 23  1  0
 23 16  1  0
 24 22  1  0
 24 25  1  0
 26 24  2  0
M  END
$$$$
