DKM.pdb
     RDKit          3D

 26 25  0  0  1  0  0  0  0  0999 V2000
    8.7989  -19.2635   19.8998 N   0  0  0  0  0  0  0  0  0  0  0  0
    9.3294  -19.1608   21.2374 C   0  0  1  0  0  0  0  0  0  0  0  0
   10.2938  -20.2687   21.5068 C   0  0  0  0  0  0  0  0  0  0  0  0
    9.8574  -21.4749   20.7680 C   0  0  0  0  0  0  0  0  0  0  0  0
   10.7132  -22.2615   20.2996 O   0  0  0  0  0  0  0  0  0  0  0  0
    9.8892  -17.8216   21.4316 C   0  0  0  0  0  0  0  0  0  0  0  0
   11.1060  -17.6038   21.2267 O   0  0  0  0  0  0  0  0  0  0  0  0
    8.5187  -21.7772   20.5686 O   0  0  0  0  0  0  0  0  0  0  0  0
    9.0350  -16.7711   21.8556 N   0  0  0  0  0  0  0  0  0  0  0  0
    9.4506  -15.4033   21.9722 C   0  0  1  0  0  0  0  0  0  0  0  0
    8.4418  -14.5002   21.2634 C   0  0  0  0  0  0  0  0  0  0  0  0
    8.3041  -14.8421   19.8205 C   0  0  0  0  0  0  0  0  0  0  0  0
    8.0244  -13.6023   19.0175 C   0  0  0  0  0  0  0  0  0  0  0  0
    7.7423  -13.9315   17.5891 C   0  0  0  0  0  0  0  0  0  0  0  0
    7.3648  -12.7296   16.8535 N   0  0  0  0  0  0  0  0  0  0  0  0
    9.3961  -15.0061   23.4011 C   0  0  0  0  0  0  0  0  0  0  0  0
    9.6388  -13.8008   23.6951 O   0  0  0  0  0  0  0  0  0  0  0  0
    6.5910  -10.6248   27.0423 C   0  0  0  0  0  0  0  0  0  0  0  0
    6.3946  -12.3212   26.5126 S   0  0  0  0  0  0  0  0  0  0  0  0
    7.8846  -13.2772   26.3802 C   0  0  0  0  0  0  0  0  0  0  0  0
    7.7414  -14.6753   25.8943 C   0  0  0  0  0  0  0  0  0  0  0  0
    8.9893  -15.4830   25.8050 C   0  0  2  0  0  0  0  0  0  0  0  0
    9.0821  -15.9478   24.4070 N   0  0  0  0  0  0  0  0  0  0  0  0
    8.9396  -16.6817   26.6960 C   0  0  0  0  0  0  0  0  0  0  0  0
    9.2139  -16.5397   28.0471 O   0  0  0  0  0  0  0  0  0  0  0  0
    8.6570  -17.8060   26.2508 O   0  0  0  0  0  0  0  0  0  0  0  0
  2  1  1  6
  2  3  1  0
  3  4  1  0
  4  8  1  0
  5  4  2  0
  6  2  1  0
  7  6  2  0
  9  6  1  0
 10 11  1  6
 10  9  1  0
 11 12  1  0
 12 13  1  0
 14 13  1  0
 14 15  1  0
 16 10  1  0
 17 16  2  0
 19 20  1  0
 19 18  1  0
 22 21  1  6
 21 20  1  0
 22 23  1  0
 23 16  1  0
 24 22  1  0
 24 25  1  0
 26 24  2  0
M  END
$$$$
