DKM.pdb
     RDKit          3D

 26 25  0  0  1  0  0  0  0  0999 V2000
   10.7862  -18.2396   18.6555 N   0  0  0  0  0  0  0  0  0  0  0  0
    9.7350  -17.2634   18.5028 C   0  0  1  0  0  0  0  0  0  0  0  0
    8.9842  -17.4941   17.2327 C   0  0  0  0  0  0  0  0  0  0  0  0
    9.9420  -17.5036   16.1040 C   0  0  0  0  0  0  0  0  0  0  0  0
   11.1723  -17.4301   16.3311 O   0  0  0  0  0  0  0  0  0  0  0  0
    8.8950  -17.2691   19.7023 C   0  0  0  0  0  0  0  0  0  0  0  0
    7.8580  -16.5679   19.7573 O   0  0  0  0  0  0  0  0  0  0  0  0
    9.5290  -17.5920   14.7831 O   0  0  0  0  0  0  0  0  0  0  0  0
    9.2703  -18.0804   20.8041 N   0  0  0  0  0  0  0  0  0  0  0  0
    8.5311  -18.1505   22.0311 C   0  0  1  0  0  0  0  0  0  0  0  0
    8.9209  -19.4178   22.7912 C   0  0  0  0  0  0  0  0  0  0  0  0
    7.7286  -20.1669   23.2759 C   0  0  0  0  0  0  0  0  0  0  0  0
    8.1537  -21.4507   23.9326 C   0  0  0  0  0  0  0  0  0  0  0  0
    6.9780  -22.2147   24.4451 C   0  0  0  0  0  0  0  0  0  0  0  0
    6.4857  -21.6226   25.6843 N   0  0  0  0  0  0  0  0  0  0  0  0
    8.9461  -17.0255   22.9056 C   0  0  0  0  0  0  0  0  0  0  0  0
   10.1778  -16.7510   22.9807 O   0  0  0  0  0  0  0  0  0  0  0  0
    6.3338  -10.7887   27.1461 C   0  0  0  0  0  0  0  0  0  0  0  0
    6.0380  -12.2793   26.2041 S   0  0  0  0  0  0  0  0  0  0  0  0
    7.4736  -13.2310   25.7738 C   0  0  0  0  0  0  0  0  0  0  0  0
    7.2647  -14.3752   24.8473 C   0  0  0  0  0  0  0  0  0  0  0  0
    8.4662  -15.1848   24.5035 C   0  0  2  0  0  0  0  0  0  0  0  0
    7.9922  -16.2806   23.6354 N   0  0  0  0  0  0  0  0  0  0  0  0
    9.0961  -15.7868   25.7177 C   0  0  0  0  0  0  0  0  0  0  0  0
    8.5285  -16.9121   26.2943 O   0  0  0  0  0  0  0  0  0  0  0  0
   10.1203  -15.2992   26.2230 O   0  0  0  0  0  0  0  0  0  0  0  0
  2  1  1  1
  2  3  1  0
  3  4  1  0
  4  8  1  0
  5  4  2  0
  6  2  1  0
  7  6  2  0
  9  6  1  0
 10 11  1  1
 10  9  1  0
 11 12  1  0
 12 13  1  0
 14 13  1  0
 14 15  1  0
 16 10  1  0
 17 16  2  0
 19 20  1  0
 19 18  1  0
 22 21  1  1
 21 20  1  0
 22 23  1  0
 23 16  1  0
 24 22  1  0
 24 25  1  0
 26 24  2  0
M  END
$$$$
