DKM.pdb
     RDKit          3D

 26 25  0  0  1  0  0  0  0  0999 V2000
   12.4187  -17.1587   19.6901 N   0  0  0  0  0  0  0  0  0  0  0  0
   12.0177  -17.5601   21.0165 C   0  0  1  0  0  0  0  0  0  0  0  0
   13.1762  -18.1325   21.7651 C   0  0  0  0  0  0  0  0  0  0  0  0
   14.1911  -18.6000   20.7941 C   0  0  0  0  0  0  0  0  0  0  0  0
   13.8293  -19.0296   19.6738 O   0  0  0  0  0  0  0  0  0  0  0  0
   11.3735  -16.4290   21.6874 C   0  0  0  0  0  0  0  0  0  0  0  0
   12.0614  -15.5495   22.2561 O   0  0  0  0  0  0  0  0  0  0  0  0
   15.5489  -18.5827   21.0761 O   0  0  0  0  0  0  0  0  0  0  0  0
    9.9574  -16.3407   21.6857 N   0  0  0  0  0  0  0  0  0  0  0  0
    9.2268  -15.2338   22.2317 C   0  0  1  0  0  0  0  0  0  0  0  0
    8.1389  -14.8042   21.2480 C   0  0  0  0  0  0  0  0  0  0  0  0
    8.7112  -14.2624   19.9845 C   0  0  0  0  0  0  0  0  0  0  0  0
    7.6225  -14.0533   18.9690 C   0  0  0  0  0  0  0  0  0  0  0  0
    8.1789  -13.5966   17.6613 C   0  0  0  0  0  0  0  0  0  0  0  0
    7.1030  -13.3495   16.7075 N   0  0  0  0  0  0  0  0  0  0  0  0
    8.5018  -15.6893   23.4438 C   0  0  0  0  0  0  0  0  0  0  0  0
    8.7734  -16.8339   23.9068 O   0  0  0  0  0  0  0  0  0  0  0  0
   10.4672  -14.1500   30.0778 C   0  0  0  0  0  0  0  0  0  0  0  0
   10.3190  -14.0139   28.3012 S   0  0  0  0  0  0  0  0  0  0  0  0
    8.7888  -14.5762   27.5982 C   0  0  0  0  0  0  0  0  0  0  0  0
    8.6846  -14.5506   26.1151 C   0  0  0  0  0  0  0  0  0  0  0  0
    7.3744  -14.9489   25.5301 C   0  0  2  0  0  0  0  0  0  0  0  0
    7.5338  -14.8679   24.0647 N   0  0  0  0  0  0  0  0  0  0  0  0
    6.2791  -14.0165   25.9354 C   0  0  0  0  0  0  0  0  0  0  0  0
    5.3915  -14.3974   26.9294 O   0  0  0  0  0  0  0  0  0  0  0  0
    6.1463  -12.9043   25.3992 O   0  0  0  0  0  0  0  0  0  0  0  0
  2  1  1  6
  2  3  1  0
  3  4  1  0
  4  8  1  0
  5  4  2  0
  6  2  1  0
  7  6  2  0
  9  6  1  0
 10 11  1  6
 10  9  1  0
 11 12  1  0
 12 13  1  0
 14 13  1  0
 14 15  1  0
 16 10  1  0
 17 16  2  0
 19 20  1  0
 19 18  1  0
 22 21  1  1
 21 20  1  0
 22 23  1  0
 23 16  1  0
 24 22  1  0
 24 25  1  0
 26 24  2  0
M  END
$$$$
