DKM.pdb
     RDKit          3D

 26 25  0  0  1  0  0  0  0  0999 V2000
    8.2805  -19.2771   21.4620 N   0  0  0  0  0  0  0  0  0  0  0  0
    9.4440  -19.0464   20.6409 C   0  0  1  0  0  0  0  0  0  0  0  0
    9.1199  -19.2590   19.1987 C   0  0  0  0  0  0  0  0  0  0  0  0
    7.7339  -18.8045   18.9463 C   0  0  0  0  0  0  0  0  0  0  0  0
    7.0516  -18.3355   19.8870 O   0  0  0  0  0  0  0  0  0  0  0  0
    9.9897  -17.7211   20.9410 C   0  0  0  0  0  0  0  0  0  0  0  0
   11.0267  -17.3140   20.3673 O   0  0  0  0  0  0  0  0  0  0  0  0
    7.1479  -18.8766   17.6914 O   0  0  0  0  0  0  0  0  0  0  0  0
    9.3285  -16.9012   21.8916 N   0  0  0  0  0  0  0  0  0  0  0  0
    9.7285  -15.5596   22.2029 C   0  0  1  0  0  0  0  0  0  0  0  0
    8.4900  -14.6731   22.3293 C   0  0  0  0  0  0  0  0  0  0  0  0
    7.6713  -14.6773   21.0854 C   0  0  0  0  0  0  0  0  0  0  0  0
    8.2411  -13.7100   20.0855 C   0  0  0  0  0  0  0  0  0  0  0  0
    7.3929  -13.6322   18.8595 C   0  0  0  0  0  0  0  0  0  0  0  0
    7.9767  -12.7085   17.8930 N   0  0  0  0  0  0  0  0  0  0  0  0
   10.3584  -15.5469   23.5466 C   0  0  0  0  0  0  0  0  0  0  0  0
   10.9691  -14.5012   23.9096 O   0  0  0  0  0  0  0  0  0  0  0  0
    8.4717  -13.2928   29.0814 C   0  0  0  0  0  0  0  0  0  0  0  0
   10.1398  -13.6875   28.5730 S   0  0  0  0  0  0  0  0  0  0  0  0
   10.3884  -15.3097   27.8958 C   0  0  0  0  0  0  0  0  0  0  0  0
   10.1298  -15.4740   26.4407 C   0  0  0  0  0  0  0  0  0  0  0  0
   10.8594  -16.5744   25.7523 C   0  0  2  0  0  0  0  0  0  0  0  0
   10.2793  -16.6719   24.3983 N   0  0  0  0  0  0  0  0  0  0  0  0
   10.6649  -17.8860   26.4418 C   0  0  0  0  0  0  0  0  0  0  0  0
   11.2740  -18.1101   27.6664 O   0  0  0  0  0  0  0  0  0  0  0  0
    9.9672  -18.7823   25.9398 O   0  0  0  0  0  0  0  0  0  0  0  0
  2  1  1  1
  2  3  1  0
  3  4  1  0
  4  8  1  0
  5  4  2  0
  6  2  1  0
  7  6  2  0
  9  6  1  0
 10 11  1  1
 10  9  1  0
 11 12  1  0
 12 13  1  0
 14 13  1  0
 14 15  1  0
 16 10  1  0
 17 16  2  0
 19 20  1  0
 19 18  1  0
 22 21  1  1
 21 20  1  0
 22 23  1  0
 23 16  1  0
 24 22  1  0
 24 25  1  0
 26 24  2  0
M  END
$$$$
