DKM.pdb
     RDKit          3D

 26 25  0  0  1  0  0  0  0  0999 V2000
   11.8851  -18.3248   20.1823 N   0  0  0  0  0  0  0  0  0  0  0  0
   12.8204  -17.4138   20.7957 C   0  0  1  0  0  0  0  0  0  0  0  0
   13.6705  -16.7564   19.7587 C   0  0  0  0  0  0  0  0  0  0  0  0
   14.7960  -17.6562   19.4199 C   0  0  0  0  0  0  0  0  0  0  0  0
   15.2473  -18.4417   20.2859 O   0  0  0  0  0  0  0  0  0  0  0  0
   12.0889  -16.4761   21.6502 C   0  0  0  0  0  0  0  0  0  0  0  0
   12.7036  -15.6265   22.3360 O   0  0  0  0  0  0  0  0  0  0  0  0
   15.3828  -17.6673   18.1634 O   0  0  0  0  0  0  0  0  0  0  0  0
   10.6723  -16.5413   21.6921 N   0  0  0  0  0  0  0  0  0  0  0  0
    9.8522  -15.6104   22.4118 C   0  0  1  0  0  0  0  0  0  0  0  0
    8.5922  -15.3066   21.6019 C   0  0  0  0  0  0  0  0  0  0  0  0
    8.8624  -14.3625   20.4824 C   0  0  0  0  0  0  0  0  0  0  0  0
    7.6061  -14.1194   19.6933 C   0  0  0  0  0  0  0  0  0  0  0  0
    7.8436  -13.1604   18.5742 C   0  0  0  0  0  0  0  0  0  0  0  0
    6.6127  -12.9373   17.8237 N   0  0  0  0  0  0  0  0  0  0  0  0
    9.3710  -16.2586   23.6570 C   0  0  0  0  0  0  0  0  0  0  0  0
    9.3175  -17.5212   23.6904 O   0  0  0  0  0  0  0  0  0  0  0  0
   10.1244  -13.8839   30.3197 C   0  0  0  0  0  0  0  0  0  0  0  0
    9.9226  -13.3118   28.6378 S   0  0  0  0  0  0  0  0  0  0  0  0
    9.8874  -14.5672   27.3830 C   0  0  0  0  0  0  0  0  0  0  0  0
    8.5667  -15.1854   27.0920 C   0  0  0  0  0  0  0  0  0  0  0  0
    8.5259  -16.1884   25.9921 C   0  0  2  0  0  0  0  0  0  0  0  0
    8.9824  -15.4875   24.7758 N   0  0  0  0  0  0  0  0  0  0  0  0
    7.1397  -16.6922   25.7513 C   0  0  0  0  0  0  0  0  0  0  0  0
    6.6148  -17.6695   26.5821 O   0  0  0  0  0  0  0  0  0  0  0  0
    6.4456  -16.2528   24.8200 O   0  0  0  0  0  0  0  0  0  0  0  0
  2  1  1  6
  2  3  1  0
  3  4  1  0
  4  8  1  0
  5  4  2  0
  6  2  1  0
  7  6  2  0
  9  6  1  0
 10 11  1  6
 10  9  1  0
 11 12  1  0
 12 13  1  0
 14 13  1  0
 14 15  1  0
 16 10  1  0
 17 16  2  0
 19 20  1  0
 19 18  1  0
 22 21  1  1
 21 20  1  0
 22 23  1  0
 23 16  1  0
 24 22  1  0
 24 25  1  0
 26 24  2  0
M  END
$$$$
