DKM.pdb
     RDKit          3D

 26 25  0  0  1  0  0  0  0  0999 V2000
   12.7388  -16.6363   19.2455 N   0  0  0  0  0  0  0  0  0  0  0  0
   13.0562  -17.1997   20.5351 C   0  0  1  0  0  0  0  0  0  0  0  0
   14.4514  -16.8465   20.9338 C   0  0  0  0  0  0  0  0  0  0  0  0
   15.3936  -17.4346   19.9552 C   0  0  0  0  0  0  0  0  0  0  0  0
   14.9727  -18.2406   19.0928 O   0  0  0  0  0  0  0  0  0  0  0  0
   12.0368  -16.7901   21.5033 C   0  0  0  0  0  0  0  0  0  0  0  0
   11.7828  -15.5768   21.6864 O   0  0  0  0  0  0  0  0  0  0  0  0
   16.7457  -17.1265   19.9518 O   0  0  0  0  0  0  0  0  0  0  0  0
   11.3384  -17.7862   22.2334 N   0  0  0  0  0  0  0  0  0  0  0  0
   10.3171  -17.4985   23.1985 C   0  0  1  0  0  0  0  0  0  0  0  0
    9.3957  -18.7092   23.3441 C   0  0  0  0  0  0  0  0  0  0  0  0
    8.5353  -18.9032   22.1442 C   0  0  0  0  0  0  0  0  0  0  0  0
    7.7314  -20.1662   22.2804 C   0  0  0  0  0  0  0  0  0  0  0  0
    6.8740  -20.3973   21.0805 C   0  0  0  0  0  0  0  0  0  0  0  0
    6.0908  -21.6177   21.2405 N   0  0  0  0  0  0  0  0  0  0  0  0
   10.9504  -17.3255   24.5294 C   0  0  0  0  0  0  0  0  0  0  0  0
   12.0191  -16.6539   24.5991 O   0  0  0  0  0  0  0  0  0  0  0  0
   10.3514  -12.3856   26.9235 C   0  0  0  0  0  0  0  0  0  0  0  0
    9.7048  -13.4614   28.1969 S   0  0  0  0  0  0  0  0  0  0  0  0
   10.3439  -15.1175   28.2213 C   0  0  0  0  0  0  0  0  0  0  0  0
   10.2211  -15.9005   26.9631 C   0  0  0  0  0  0  0  0  0  0  0  0
   10.7065  -17.3078   27.0016 C   0  0  2  0  0  0  0  0  0  0  0  0
   10.3764  -17.8954   25.6883 N   0  0  0  0  0  0  0  0  0  0  0  0
   10.0148  -18.1049   28.0597 C   0  0  0  0  0  0  0  0  0  0  0  0
   10.6416  -18.3103   29.2787 O   0  0  0  0  0  0  0  0  0  0  0  0
    8.8869  -18.5887   27.8701 O   0  0  0  0  0  0  0  0  0  0  0  0
  2  1  1  6
  2  3  1  0
  3  4  1  0
  4  8  1  0
  5  4  2  0
  6  2  1  0
  7  6  2  0
  9  6  1  0
 10 11  1  1
 10  9  1  0
 11 12  1  0
 12 13  1  0
 14 13  1  0
 14 15  1  0
 16 10  1  0
 17 16  2  0
 19 20  1  0
 19 18  1  0
 22 21  1  6
 21 20  1  0
 22 23  1  0
 23 16  1  0
 24 22  1  0
 24 25  1  0
 26 24  2  0
M  END
$$$$
