DKM.pdb
     RDKit          3D

 26 25  0  0  1  0  0  0  0  0999 V2000
   12.0959  -17.6098   20.5419 N   0  0  0  0  0  0  0  0  0  0  0  0
   12.6651  -16.9288   21.6792 C   0  0  1  0  0  0  0  0  0  0  0  0
   13.9246  -16.2250   21.2939 C   0  0  0  0  0  0  0  0  0  0  0  0
   14.9637  -17.2338   20.9877 C   0  0  0  0  0  0  0  0  0  0  0  0
   15.2808  -17.4589   19.7963 O   0  0  0  0  0  0  0  0  0  0  0  0
   11.6513  -16.0556   22.2743 C   0  0  0  0  0  0  0  0  0  0  0  0
   11.9288  -15.3398   23.2646 O   0  0  0  0  0  0  0  0  0  0  0  0
   15.6127  -17.9530   21.9800 O   0  0  0  0  0  0  0  0  0  0  0  0
   10.3479  -16.0296   21.7144 N   0  0  0  0  0  0  0  0  0  0  0  0
    9.3013  -15.1616   22.1707 C   0  0  1  0  0  0  0  0  0  0  0  0
    8.2272  -15.0438   21.0898 C   0  0  0  0  0  0  0  0  0  0  0  0
    8.7062  -14.2737   19.9087 C   0  0  0  0  0  0  0  0  0  0  0  0
    7.6501  -14.2534   18.8389 C   0  0  0  0  0  0  0  0  0  0  0  0
    8.0901  -13.4572   17.6553 C   0  0  0  0  0  0  0  0  0  0  0  0
    7.0424  -13.4306   16.6404 N   0  0  0  0  0  0  0  0  0  0  0  0
    8.6239  -15.7954   23.3290 C   0  0  0  0  0  0  0  0  0  0  0  0
    8.8578  -17.0156   23.5628 O   0  0  0  0  0  0  0  0  0  0  0  0
    7.0046  -10.5899   27.5084 C   0  0  0  0  0  0  0  0  0  0  0  0
    6.1191  -12.0671   27.0282 S   0  0  0  0  0  0  0  0  0  0  0  0
    7.1157  -13.4560   26.5489 C   0  0  0  0  0  0  0  0  0  0  0  0
    6.3936  -14.6610   26.0614 C   0  0  0  0  0  0  0  0  0  0  0  0
    7.2110  -15.6960   25.3701 C   0  0  2  0  0  0  0  0  0  0  0  0
    7.7410  -15.0572   24.1493 N   0  0  0  0  0  0  0  0  0  0  0  0
    6.3866  -16.8742   24.9633 C   0  0  0  0  0  0  0  0  0  0  0  0
    6.0630  -17.8384   25.9048 O   0  0  0  0  0  0  0  0  0  0  0  0
    5.9837  -17.0086   23.7964 O   0  0  0  0  0  0  0  0  0  0  0  0
  2  1  1  6
  2  3  1  0
  3  4  1  0
  4  8  1  0
  5  4  2  0
  6  2  1  0
  7  6  2  0
  9  6  1  0
 10 11  1  6
 10  9  1  0
 11 12  1  0
 12 13  1  0
 14 13  1  0
 14 15  1  0
 16 10  1  0
 17 16  2  0
 19 20  1  0
 19 18  1  0
 22 21  1  6
 21 20  1  0
 22 23  1  0
 23 16  1  0
 24 22  1  0
 24 25  1  0
 26 24  2  0
M  END
$$$$
