HDK.pdb
     RDKit          3D

 28 28  0  0  1  0  0  0  0  0999 V2000
    7.8839  -16.8791   19.4634 N   0  0  0  0  0  0  0  0  0  0  0  0
    8.8087  -16.1018   20.2664 C   0  0  1  0  0  0  0  0  0  0  0  0
    8.1511  -14.7516   20.5048 C   0  0  0  0  0  0  0  0  0  0  0  0
    8.0864  -14.0344   19.2037 C   0  0  0  0  0  0  0  0  0  0  0  0
    6.9297  -13.7674   18.4899 C   0  0  0  0  0  0  0  0  0  0  0  0
    7.2398  -13.1105   17.3730 N   0  0  0  0  0  0  0  0  0  0  0  0
    8.5719  -12.9658   17.3829 C   0  0  0  0  0  0  0  0  0  0  0  0
    9.1002  -13.5176   18.4810 N   0  0  0  0  0  0  0  0  0  0  0  0
    9.0540  -16.7701   21.5826 C   0  0  0  0  0  0  0  0  0  0  0  0
    8.1231  -17.2901   22.2419 O   0  0  0  0  0  0  0  0  0  0  0  0
   10.3668  -16.8234   22.1079 N   0  0  0  0  0  0  0  0  0  0  0  0
   10.7086  -17.3569   23.4083 C   0  0  1  0  0  0  0  0  0  0  0  0
   12.0577  -18.0239   23.3848 C   0  0  0  0  0  0  0  0  0  0  0  0
   12.4230  -18.6288   24.6652 C   0  0  0  0  0  0  0  0  0  0  0  0
   11.6374  -19.3500   25.3069 O   0  0  0  0  0  0  0  0  0  0  0  0
   10.7417  -16.3280   24.4531 C   0  0  0  0  0  0  0  0  0  0  0  0
   11.5607  -15.3951   24.4008 O   0  0  0  0  0  0  0  0  0  0  0  0
   13.6867  -18.3927   25.1844 O   0  0  0  0  0  0  0  0  0  0  0  0
    9.8304  -16.4129   25.5178 N   0  0  0  0  0  0  0  0  0  0  0  0
    9.8360  -15.3683   26.6241 C   0  0  1  0  0  0  0  0  0  0  0  0
    8.4653  -14.8327   26.5271 C   0  0  0  0  0  0  0  0  0  0  0  0
    8.0985  -13.4560   26.8027 C   0  0  0  0  0  0  0  0  0  0  0  0
    6.6934  -13.0007   26.7290 C   0  0  0  0  0  0  0  0  0  0  0  0
    6.6982  -11.4905   27.0590 C   0  0  0  0  0  0  0  0  0  0  0  0
    5.3483  -11.0157   27.0503 N   0  0  0  0  0  0  0  0  0  0  0  0
   10.2022  -16.1588   27.8094 C   0  0  0  0  0  0  0  0  0  0  0  0
   10.3968  -17.5217   27.8329 O   0  0  0  0  0  0  0  0  0  0  0  0
   10.3685  -15.6030   28.9662 O   0  0  0  0  0  0  0  0  0  0  0  0
  2  1  1  6
  2  3  1  0
  4  3  1  0
  4  5  2  0
  6  5  1  0
  7  8  2  0
  7  6  1  0
  8  4  1  0
  9  2  1  0
 10  9  2  0
 11  9  1  0
 12 11  1  0
 13 14  1  0
 12 13  1  6
 14 15  2  0
 16 12  1  0
 16 19  1  0
 17 16  2  0
 18 14  1  0
 20 19  1  0
 20 21  1  1
 21 22  1  0
 23 22  1  0
 24 25  1  0
 24 23  1  0
 26 20  1  0
 26 27  1  0
 28 26  2  0
M  END
$$$$
