HDK.pdb
     RDKit          3D

 28 28  0  0  1  0  0  0  0  0999 V2000
    9.2323  -17.4254   19.0226 N   0  0  0  0  0  0  0  0  0  0  0  0
   10.1596  -16.5797   19.7501 C   0  0  1  0  0  0  0  0  0  0  0  0
    9.3492  -15.8611   20.8174 C   0  0  0  0  0  0  0  0  0  0  0  0
    8.5856  -14.7683   20.1583 C   0  0  0  0  0  0  0  0  0  0  0  0
    8.6448  -14.4448   18.8128 C   0  0  0  0  0  0  0  0  0  0  0  0
    7.8334  -13.4168   18.5679 N   0  0  0  0  0  0  0  0  0  0  0  0
    7.2714  -13.0973   19.7416 C   0  0  0  0  0  0  0  0  0  0  0  0
    7.7139  -13.9029   20.7135 N   0  0  0  0  0  0  0  0  0  0  0  0
   11.2200  -17.4050   20.4084 C   0  0  0  0  0  0  0  0  0  0  0  0
   10.9378  -18.4118   21.1000 O   0  0  0  0  0  0  0  0  0  0  0  0
   12.5811  -17.0504   20.2540 N   0  0  0  0  0  0  0  0  0  0  0  0
   13.6834  -17.7270   20.9019 C   0  0  1  0  0  0  0  0  0  0  0  0
   15.0006  -17.3254   20.2942 C   0  0  0  0  0  0  0  0  0  0  0  0
   15.1919  -17.8443   18.9405 C   0  0  0  0  0  0  0  0  0  0  0  0
   15.2648  -19.0635   18.7009 O   0  0  0  0  0  0  0  0  0  0  0  0
   13.7553  -17.4464   22.3397 C   0  0  0  0  0  0  0  0  0  0  0  0
   13.8192  -16.2778   22.7569 O   0  0  0  0  0  0  0  0  0  0  0  0
   15.2961  -16.9503   17.8859 O   0  0  0  0  0  0  0  0  0  0  0  0
   13.7510  -18.5222   23.2418 N   0  0  0  0  0  0  0  0  0  0  0  0
   13.6808  -18.2726   24.7411 C   0  0  1  0  0  0  0  0  0  0  0  0
   12.7304  -19.3168   25.1670 C   0  0  0  0  0  0  0  0  0  0  0  0
   12.3800  -19.5969   26.5470 C   0  0  0  0  0  0  0  0  0  0  0  0
   11.5529  -20.7672   26.9124 C   0  0  0  0  0  0  0  0  0  0  0  0
   11.3070  -20.6787   28.4360 C   0  0  0  0  0  0  0  0  0  0  0  0
   10.5387  -21.8154   28.8425 N   0  0  0  0  0  0  0  0  0  0  0  0
   15.0885  -18.3900   25.1517 C   0  0  0  0  0  0  0  0  0  0  0  0
   16.1109  -18.8813   24.3713 O   0  0  0  0  0  0  0  0  0  0  0  0
   15.4797  -18.0286   26.3312 O   0  0  0  0  0  0  0  0  0  0  0  0
  2  1  1  1
  2  3  1  0
  4  3  1  0
  4  5  2  0
  6  5  1  0
  7  8  2  0
  7  6  1  0
  8  4  1  0
  9  2  1  0
 10  9  2  0
 11  9  1  0
 12 11  1  0
 13 14  1  0
 12 13  1  6
 14 15  2  0
 16 12  1  0
 16 19  1  0
 17 16  2  0
 18 14  1  0
 20 19  1  0
 20 21  1  1
 21 22  1  0
 23 22  1  0
 24 25  1  0
 24 23  1  0
 26 20  1  0
 26 27  1  0
 28 26  2  0
M  END
$$$$
