HDK.pdb
     RDKit          3D

 28 28  0  0  1  0  0  0  0  0999 V2000
    7.5694  -17.1124   19.5538 N   0  0  0  0  0  0  0  0  0  0  0  0
    8.6867  -16.3397   20.0625 C   0  0  1  0  0  0  0  0  0  0  0  0
    8.1661  -14.9331   20.3134 C   0  0  0  0  0  0  0  0  0  0  0  0
    8.0283  -14.2515   18.9988 C   0  0  0  0  0  0  0  0  0  0  0  0
    8.2701  -14.8307   17.7640 C   0  0  0  0  0  0  0  0  0  0  0  0
    8.0483  -13.9349   16.8032 N   0  0  0  0  0  0  0  0  0  0  0  0
    7.6724  -12.8081   17.4232 C   0  0  0  0  0  0  0  0  0  0  0  0
    7.6546  -12.9806   18.7496 N   0  0  0  0  0  0  0  0  0  0  0  0
    9.1846  -16.9180   21.3496 C   0  0  0  0  0  0  0  0  0  0  0  0
    8.4071  -17.4419   22.1818 O   0  0  0  0  0  0  0  0  0  0  0  0
   10.5674  -16.8789   21.6473 N   0  0  0  0  0  0  0  0  0  0  0  0
   11.1539  -17.3504   22.8827 C   0  0  1  0  0  0  0  0  0  0  0  0
   12.6252  -17.6220   22.7172 C   0  0  0  0  0  0  0  0  0  0  0  0
   12.9136  -18.6243   21.6921 C   0  0  0  0  0  0  0  0  0  0  0  0
   12.2391  -19.6634   21.5712 O   0  0  0  0  0  0  0  0  0  0  0  0
   11.0015  -16.3944   23.9846 C   0  0  0  0  0  0  0  0  0  0  0  0
   11.6615  -15.3420   24.0089 O   0  0  0  0  0  0  0  0  0  0  0  0
   13.9738  -18.4128   20.8241 O   0  0  0  0  0  0  0  0  0  0  0  0
   10.0950  -16.6871   25.0160 N   0  0  0  0  0  0  0  0  0  0  0  0
    9.8713  -15.6987   26.1510 C   0  0  1  0  0  0  0  0  0  0  0  0
    8.5594  -15.1305   25.7893 C   0  0  0  0  0  0  0  0  0  0  0  0
    8.0081  -13.9110   26.3503 C   0  0  0  0  0  0  0  0  0  0  0  0
    6.6699  -13.4167   25.9606 C   0  0  0  0  0  0  0  0  0  0  0  0
    6.4636  -12.0706   26.6919 C   0  0  0  0  0  0  0  0  0  0  0  0
    5.1587  -11.5742   26.3778 N   0  0  0  0  0  0  0  0  0  0  0  0
    9.9649  -16.5543   27.3440 C   0  0  0  0  0  0  0  0  0  0  0  0
   10.2273  -16.1172   28.6230 O   0  0  0  0  0  0  0  0  0  0  0  0
    9.8058  -17.8364   27.2690 O   0  0  0  0  0  0  0  0  0  0  0  0
  2  1  1  1
  2  3  1  0
  4  3  1  0
  4  5  2  0
  6  5  1  0
  7  8  2  0
  7  6  1  0
  8  4  1  0
  9  2  1  0
 10  9  2  0
 11  9  1  0
 12 11  1  0
 13 14  1  0
 12 13  1  6
 14 15  2  0
 16 12  1  0
 16 19  1  0
 17 16  2  0
 18 14  1  0
 20 19  1  0
 20 21  1  6
 21 22  1  0
 23 22  1  0
 24 25  1  0
 24 23  1  0
 26 20  1  0
 26 27  1  0
 28 26  2  0
M  END
$$$$
