HDK.pdb
     RDKit          3D

 28 28  0  0  1  0  0  0  0  0999 V2000
    8.3254  -16.9568   20.6817 N   0  0  0  0  0  0  0  0  0  0  0  0
    8.8863  -15.9293   21.5384 C   0  0  1  0  0  0  0  0  0  0  0  0
    7.8632  -14.8060   21.5995 C   0  0  0  0  0  0  0  0  0  0  0  0
    7.9439  -14.0396   20.3276 C   0  0  0  0  0  0  0  0  0  0  0  0
    8.8026  -14.3153   19.2763 C   0  0  0  0  0  0  0  0  0  0  0  0
    8.6063  -13.4305   18.2998 N   0  0  0  0  0  0  0  0  0  0  0  0
    7.6384  -12.6095   18.7294 C   0  0  0  0  0  0  0  0  0  0  0  0
    7.2262  -12.9621   19.9521 N   0  0  0  0  0  0  0  0  0  0  0  0
    9.1171  -16.4616   22.9177 C   0  0  0  0  0  0  0  0  0  0  0  0
    8.1665  -16.7981   23.6625 O   0  0  0  0  0  0  0  0  0  0  0  0
   10.4385  -16.5935   23.4062 N   0  0  0  0  0  0  0  0  0  0  0  0
   10.7789  -17.0249   24.7443 C   0  0  1  0  0  0  0  0  0  0  0  0
   12.0675  -17.8027   24.7536 C   0  0  0  0  0  0  0  0  0  0  0  0
   12.0565  -18.9454   23.8411 C   0  0  0  0  0  0  0  0  0  0  0  0
   11.3343  -19.9409   24.0324 O   0  0  0  0  0  0  0  0  0  0  0  0
   10.9307  -15.9057   25.6801 C   0  0  0  0  0  0  0  0  0  0  0  0
   11.7716  -15.0145   25.4741 O   0  0  0  0  0  0  0  0  0  0  0  0
   12.8774  -18.9220   22.7240 O   0  0  0  0  0  0  0  0  0  0  0  0
   10.1084  -15.8558   26.8170 N   0  0  0  0  0  0  0  0  0  0  0  0
   10.2026  -14.6878   27.7875 C   0  0  1  0  0  0  0  0  0  0  0  0
    8.7939  -14.2585   27.8658 C   0  0  0  0  0  0  0  0  0  0  0  0
    8.1012  -13.5161   26.8291 C   0  0  0  0  0  0  0  0  0  0  0  0
    6.6813  -13.1287   26.9730 C   0  0  0  0  0  0  0  0  0  0  0  0
    6.3157  -12.3067   25.7159 C   0  0  0  0  0  0  0  0  0  0  0  0
    5.3152  -13.0169   24.9795 N   0  0  0  0  0  0  0  0  0  0  0  0
   10.8190  -15.3046   28.9723 C   0  0  0  0  0  0  0  0  0  0  0  0
   11.4284  -14.6241   30.0025 O   0  0  0  0  0  0  0  0  0  0  0  0
   10.8371  -16.5886   29.1322 O   0  0  0  0  0  0  0  0  0  0  0  0
  2  1  1  6
  2  3  1  0
  4  3  1  0
  4  5  2  0
  6  5  1  0
  7  8  2  0
  7  6  1  0
  8  4  1  0
  9  2  1  0
 10  9  2  0
 11  9  1  0
 12 11  1  0
 13 14  1  0
 12 13  1  6
 14 15  2  0
 16 12  1  0
 16 19  1  0
 17 16  2  0
 18 14  1  0
 20 19  1  0
 20 21  1  1
 21 22  1  0
 23 22  1  0
 24 25  1  0
 24 23  1  0
 26 20  1  0
 26 27  1  0
 28 26  2  0
M  END
$$$$
