HDK.pdb
     RDKit          3D

 28 28  0  0  1  0  0  0  0  0999 V2000
    8.7876  -17.1636   18.7365 N   0  0  0  0  0  0  0  0  0  0  0  0
    9.1743  -16.2705   19.8122 C   0  0  1  0  0  0  0  0  0  0  0  0
    7.9856  -15.3580   20.0701 C   0  0  0  0  0  0  0  0  0  0  0  0
    7.9247  -14.3587   18.9704 C   0  0  0  0  0  0  0  0  0  0  0  0
    9.0100  -13.6828   18.4377 C   0  0  0  0  0  0  0  0  0  0  0  0
    8.5929  -12.8668   17.4707 N   0  0  0  0  0  0  0  0  0  0  0  0
    7.2646  -13.0261   17.3952 C   0  0  0  0  0  0  0  0  0  0  0  0
    6.8434  -13.9233   18.2935 N   0  0  0  0  0  0  0  0  0  0  0  0
    9.4803  -17.0449   21.0555 C   0  0  0  0  0  0  0  0  0  0  0  0
    8.6279  -17.7884   21.5960 O   0  0  0  0  0  0  0  0  0  0  0  0
   10.7620  -16.9440   21.6466 N   0  0  0  0  0  0  0  0  0  0  0  0
   11.1295  -17.5369   22.9138 C   0  0  1  0  0  0  0  0  0  0  0  0
   12.5354  -18.0732   22.8758 C   0  0  0  0  0  0  0  0  0  0  0  0
   12.9240  -18.7571   24.1087 C   0  0  0  0  0  0  0  0  0  0  0  0
   12.1039  -19.3755   24.8116 O   0  0  0  0  0  0  0  0  0  0  0  0
   11.0476  -16.5882   24.0294 C   0  0  0  0  0  0  0  0  0  0  0  0
   11.7897  -15.5926   24.0728 O   0  0  0  0  0  0  0  0  0  0  0  0
   14.2503  -18.7170   24.5107 O   0  0  0  0  0  0  0  0  0  0  0  0
   10.1146  -16.8224   25.0520 N   0  0  0  0  0  0  0  0  0  0  0  0
   10.0000  -15.8630   26.2274 C   0  0  1  0  0  0  0  0  0  0  0  0
    8.7084  -15.2091   25.9461 C   0  0  0  0  0  0  0  0  0  0  0  0
    8.2530  -13.9829   26.5743 C   0  0  0  0  0  0  0  0  0  0  0  0
    6.9318  -13.3975   26.2597 C   0  0  0  0  0  0  0  0  0  0  0  0
    6.8044  -12.1095   27.1048 C   0  0  0  0  0  0  0  0  0  0  0  0
    5.5379  -11.5036   26.8279 N   0  0  0  0  0  0  0  0  0  0  0  0
   10.0971  -16.7635   27.3866 C   0  0  0  0  0  0  0  0  0  0  0  0
   10.3400  -16.3731   28.6844 O   0  0  0  0  0  0  0  0  0  0  0  0
    9.9607  -18.0441   27.2595 O   0  0  0  0  0  0  0  0  0  0  0  0
  2  1  1  6
  2  3  1  0
  4  3  1  0
  4  5  2  0
  6  5  1  0
  7  8  2  0
  7  6  1  0
  8  4  1  0
  9  2  1  0
 10  9  2  0
 11  9  1  0
 12 11  1  0
 13 14  1  0
 12 13  1  6
 14 15  2  0
 16 12  1  0
 16 19  1  0
 17 16  2  0
 18 14  1  0
 20 19  1  0
 20 21  1  6
 21 22  1  0
 23 22  1  0
 24 25  1  0
 24 23  1  0
 26 20  1  0
 26 27  1  0
 28 26  2  0
M  END
$$$$
