HDK.pdb
     RDKit          3D

 28 28  0  0  1  0  0  0  0  0999 V2000
    9.9587  -15.8578   17.8990 N   0  0  0  0  0  0  0  0  0  0  0  0
    8.7085  -15.4533   18.5135 C   0  0  1  0  0  0  0  0  0  0  0  0
    7.5977  -15.8925   17.5726 C   0  0  0  0  0  0  0  0  0  0  0  0
    7.6838  -15.0648   16.3400 C   0  0  0  0  0  0  0  0  0  0  0  0
    7.6916  -15.5524   15.0435 C   0  0  0  0  0  0  0  0  0  0  0  0
    7.7783  -14.5350   14.1878 N   0  0  0  0  0  0  0  0  0  0  0  0
    7.8245  -13.4229   14.9339 C   0  0  0  0  0  0  0  0  0  0  0  0
    7.7684  -13.7235   16.2361 N   0  0  0  0  0  0  0  0  0  0  0  0
    8.5293  -16.1283   19.8369 C   0  0  0  0  0  0  0  0  0  0  0  0
    7.4560  -16.0459   20.4794 O   0  0  0  0  0  0  0  0  0  0  0  0
    9.5918  -16.8824   20.3888 N   0  0  0  0  0  0  0  0  0  0  0  0
    9.5685  -17.4952   21.6989 C   0  0  1  0  0  0  0  0  0  0  0  0
   10.5671  -18.6175   21.7921 C   0  0  0  0  0  0  0  0  0  0  0  0
   11.9116  -18.2282   21.3687 C   0  0  0  0  0  0  0  0  0  0  0  0
   12.1601  -17.8551   20.2076 O   0  0  0  0  0  0  0  0  0  0  0  0
    9.8686  -16.5451   22.7753 C   0  0  0  0  0  0  0  0  0  0  0  0
   10.7494  -15.6804   22.6326 O   0  0  0  0  0  0  0  0  0  0  0  0
   12.9469  -18.2753   22.2898 O   0  0  0  0  0  0  0  0  0  0  0  0
    9.1431  -16.6273   23.9745 N   0  0  0  0  0  0  0  0  0  0  0  0
    9.3638  -15.6076   25.0820 C   0  0  1  0  0  0  0  0  0  0  0  0
    8.1190  -14.8204   25.0068 C   0  0  0  0  0  0  0  0  0  0  0  0
    7.8534  -13.6248   25.7850 C   0  0  0  0  0  0  0  0  0  0  0  0
    6.5933  -12.8662   25.6311 C   0  0  0  0  0  0  0  0  0  0  0  0
    6.6676  -11.6774   26.6164 C   0  0  0  0  0  0  0  0  0  0  0  0
    5.4591  -10.9185   26.5102 N   0  0  0  0  0  0  0  0  0  0  0  0
    9.5903  -16.4586   26.2605 C   0  0  0  0  0  0  0  0  0  0  0  0
   10.2671  -16.0837   27.3994 O   0  0  0  0  0  0  0  0  0  0  0  0
    9.1541  -17.6761   26.3075 O   0  0  0  0  0  0  0  0  0  0  0  0
  2  1  1  6
  2  3  1  0
  4  3  1  0
  4  5  2  0
  6  5  1  0
  7  8  2  0
  7  6  1  0
  8  4  1  0
  9  2  1  0
 10  9  2  0
 11  9  1  0
 12 11  1  0
 13 14  1  0
 12 13  1  6
 14 15  2  0
 16 12  1  0
 16 19  1  0
 17 16  2  0
 18 14  1  0
 20 19  1  0
 20 21  1  1
 21 22  1  0
 23 22  1  0
 24 25  1  0
 24 23  1  0
 26 20  1  0
 26 27  1  0
 28 26  2  0
M  END
$$$$
