HDK.pdb
     RDKit          3D

 28 28  0  0  1  0  0  0  0  0999 V2000
    9.8050  -15.7697   20.3550 N   0  0  0  0  0  0  0  0  0  0  0  0
    9.0927  -14.8973   21.2692 C   0  0  1  0  0  0  0  0  0  0  0  0
    7.6881  -14.7331   20.7103 C   0  0  0  0  0  0  0  0  0  0  0  0
    7.8029  -14.2266   19.3168 C   0  0  0  0  0  0  0  0  0  0  0  0
    8.1836  -12.9444   18.9567 C   0  0  0  0  0  0  0  0  0  0  0  0
    8.1786  -12.8370   17.6287 N   0  0  0  0  0  0  0  0  0  0  0  0
    7.8003  -14.0336   17.1592 C   0  0  0  0  0  0  0  0  0  0  0  0
    7.5692  -14.8855   18.1643 N   0  0  0  0  0  0  0  0  0  0  0  0
    9.0129  -15.5131   22.6306 C   0  0  0  0  0  0  0  0  0  0  0  0
    8.1847  -15.1190   23.4853 O   0  0  0  0  0  0  0  0  0  0  0  0
    9.8897  -16.5690   22.9749 N   0  0  0  0  0  0  0  0  0  0  0  0
    9.9970  -17.1478   24.2963 C   0  0  1  0  0  0  0  0  0  0  0  0
   10.8954  -18.3555   24.2894 C   0  0  0  0  0  0  0  0  0  0  0  0
   10.4223  -19.4197   23.4050 C   0  0  0  0  0  0  0  0  0  0  0  0
   11.2032  -20.1852   22.8106 O   0  0  0  0  0  0  0  0  0  0  0  0
   10.5289  -16.2061   25.2870 C   0  0  0  0  0  0  0  0  0  0  0  0
   11.5587  -15.5515   25.0530 O   0  0  0  0  0  0  0  0  0  0  0  0
    9.0580  -19.5840   23.2204 O   0  0  0  0  0  0  0  0  0  0  0  0
    9.8545  -16.0545   26.5091 N   0  0  0  0  0  0  0  0  0  0  0  0
   10.3099  -15.0105   27.5180 C   0  0  1  0  0  0  0  0  0  0  0  0
    9.0380  -14.3331   27.8318 C   0  0  0  0  0  0  0  0  0  0  0  0
    8.2495  -13.5793   26.8749 C   0  0  0  0  0  0  0  0  0  0  0  0
    6.9714  -12.9414   27.2581 C   0  0  0  0  0  0  0  0  0  0  0  0
    6.4449  -12.2118   26.0012 C   0  0  0  0  0  0  0  0  0  0  0  0
    5.2055  -11.5750   26.3269 N   0  0  0  0  0  0  0  0  0  0  0  0
   10.9489  -15.8292   28.5599 C   0  0  0  0  0  0  0  0  0  0  0  0
   11.7515  -15.3520   29.5718 O   0  0  0  0  0  0  0  0  0  0  0  0
   10.7986  -17.1141   28.5951 O   0  0  0  0  0  0  0  0  0  0  0  0
  2  1  1  6
  2  3  1  0
  4  3  1  0
  4  5  2  0
  6  5  1  0
  7  8  2  0
  7  6  1  0
  8  4  1  0
  9  2  1  0
 10  9  2  0
 11  9  1  0
 12 11  1  0
 13 14  1  0
 12 13  1  6
 14 15  2  0
 16 12  1  0
 16 19  1  0
 17 16  2  0
 18 14  1  0
 20 19  1  0
 20 21  1  1
 21 22  1  0
 23 22  1  0
 24 25  1  0
 24 23  1  0
 26 20  1  0
 26 27  1  0
 28 26  2  0
M  END
$$$$
