HDK.pdb
     RDKit          3D

 28 28  0  0  1  0  0  0  0  0999 V2000
   10.5052  -15.2142   19.3759 N   0  0  0  0  0  0  0  0  0  0  0  0
    9.2348  -15.1407   20.0723 C   0  0  1  0  0  0  0  0  0  0  0  0
    8.2054  -15.8074   19.1734 C   0  0  0  0  0  0  0  0  0  0  0  0
    7.9914  -14.9325   17.9900 C   0  0  0  0  0  0  0  0  0  0  0  0
    8.7255  -13.7977   17.6864 C   0  0  0  0  0  0  0  0  0  0  0  0
    8.2642  -13.2602   16.5579 N   0  0  0  0  0  0  0  0  0  0  0  0
    7.2547  -14.0445   16.1565 C   0  0  0  0  0  0  0  0  0  0  0  0
    7.0755  -15.0595   17.0092 N   0  0  0  0  0  0  0  0  0  0  0  0
    9.3039  -15.8768   21.3732 C   0  0  0  0  0  0  0  0  0  0  0  0
    8.3025  -15.9950   22.1182 O   0  0  0  0  0  0  0  0  0  0  0  0
   10.5258  -16.4596   21.7849 N   0  0  0  0  0  0  0  0  0  0  0  0
   10.7255  -17.1419   23.0448 C   0  0  1  0  0  0  0  0  0  0  0  0
   12.0349  -17.8841   23.0596 C   0  0  0  0  0  0  0  0  0  0  0  0
   11.9170  -19.2683   22.6030 C   0  0  0  0  0  0  0  0  0  0  0  0
   10.9990  -20.0173   22.9843 O   0  0  0  0  0  0  0  0  0  0  0  0
   10.7216  -16.2281   24.1920 C   0  0  0  0  0  0  0  0  0  0  0  0
   11.6193  -15.3806   24.3326 O   0  0  0  0  0  0  0  0  0  0  0  0
   12.8584  -19.7661   21.7151 O   0  0  0  0  0  0  0  0  0  0  0  0
    9.6844  -16.3253   25.1332 N   0  0  0  0  0  0  0  0  0  0  0  0
    9.6460  -15.3977   26.3387 C   0  0  1  0  0  0  0  0  0  0  0  0
    8.3957  -14.6543   26.0957 C   0  0  0  0  0  0  0  0  0  0  0  0
    7.9652  -13.4970   26.8579 C   0  0  0  0  0  0  0  0  0  0  0  0
    6.7067  -12.7876   26.5420 C   0  0  0  0  0  0  0  0  0  0  0  0
    6.5529  -11.6661   27.5946 C   0  0  0  0  0  0  0  0  0  0  0  0
    5.3029  -11.0037   27.3786 N   0  0  0  0  0  0  0  0  0  0  0  0
    9.6992  -16.3383   27.4685 C   0  0  0  0  0  0  0  0  0  0  0  0
    9.6657  -17.7112   27.3686 O   0  0  0  0  0  0  0  0  0  0  0  0
    9.7789  -15.9208   28.6909 O   0  0  0  0  0  0  0  0  0  0  0  0
  2  1  1  6
  2  3  1  0
  4  3  1  0
  4  5  2  0
  6  5  1  0
  7  8  2  0
  7  6  1  0
  8  4  1  0
  9  2  1  0
 10  9  2  0
 11  9  1  0
 12 11  1  0
 13 14  1  0
 12 13  1  6
 14 15  2  0
 16 12  1  0
 16 19  1  0
 17 16  2  0
 18 14  1  0
 20 19  1  0
 20 21  1  1
 21 22  1  0
 23 22  1  0
 24 25  1  0
 24 23  1  0
 26 20  1  0
 26 27  1  0
 28 26  2  0
M  END
$$$$
