HDK.pdb
     RDKit          3D

 28 28  0  0  1  0  0  0  0  0999 V2000
   10.0020  -15.4927   18.8246 N   0  0  0  0  0  0  0  0  0  0  0  0
    8.9422  -14.9606   19.6600 C   0  0  1  0  0  0  0  0  0  0  0  0
    7.6328  -15.2614   18.9479 C   0  0  0  0  0  0  0  0  0  0  0  0
    7.7199  -14.7083   17.5702 C   0  0  0  0  0  0  0  0  0  0  0  0
    8.0864  -13.4124   17.2461 C   0  0  0  0  0  0  0  0  0  0  0  0
    8.0573  -13.2613   15.9228 N   0  0  0  0  0  0  0  0  0  0  0  0
    7.6781  -14.4442   15.4204 C   0  0  0  0  0  0  0  0  0  0  0  0
    7.4699  -15.3303   16.4007 N   0  0  0  0  0  0  0  0  0  0  0  0
    8.9405  -15.6294   20.9986 C   0  0  0  0  0  0  0  0  0  0  0  0
    7.9773  -15.5135   21.7926 O   0  0  0  0  0  0  0  0  0  0  0  0
   10.0493  -16.4162   21.3906 N   0  0  0  0  0  0  0  0  0  0  0  0
   10.1889  -17.0501   22.6833 C   0  0  1  0  0  0  0  0  0  0  0  0
   11.4126  -17.9254   22.7303 C   0  0  0  0  0  0  0  0  0  0  0  0
   11.3568  -19.0435   21.7895 C   0  0  0  0  0  0  0  0  0  0  0  0
   10.3824  -19.8158   21.7331 O   0  0  0  0  0  0  0  0  0  0  0  0
   10.2939  -16.0832   23.7812 C   0  0  0  0  0  0  0  0  0  0  0  0
   11.1846  -15.2169   23.7823 O   0  0  0  0  0  0  0  0  0  0  0  0
   12.4242  -19.2529   20.9297 O   0  0  0  0  0  0  0  0  0  0  0  0
    9.3693  -16.1511   24.8356 N   0  0  0  0  0  0  0  0  0  0  0  0
    9.3573  -15.0858   25.9220 C   0  0  1  0  0  0  0  0  0  0  0  0
    8.1595  -14.3077   25.5550 C   0  0  0  0  0  0  0  0  0  0  0  0
    7.6873  -13.1375   26.2716 C   0  0  0  0  0  0  0  0  0  0  0  0
    6.4732  -12.4081   25.8460 C   0  0  0  0  0  0  0  0  0  0  0  0
    6.2777  -11.2483   26.8490 C   0  0  0  0  0  0  0  0  0  0  0  0
    5.4715  -11.7138   27.9358 N   0  0  0  0  0  0  0  0  0  0  0  0
    9.3278  -15.8866   27.1556 C   0  0  0  0  0  0  0  0  0  0  0  0
    8.8869  -17.1873   27.2544 O   0  0  0  0  0  0  0  0  0  0  0  0
    9.7267  -15.3993   28.2861 O   0  0  0  0  0  0  0  0  0  0  0  0
  2  1  1  6
  2  3  1  0
  4  3  1  0
  4  5  2  0
  6  5  1  0
  7  8  2  0
  7  6  1  0
  8  4  1  0
  9  2  1  0
 10  9  2  0
 11  9  1  0
 12 11  1  0
 13 14  1  0
 12 13  1  6
 14 15  2  0
 16 12  1  0
 16 19  1  0
 17 16  2  0
 18 14  1  0
 20 19  1  0
 20 21  1  6
 21 22  1  0
 23 22  1  0
 24 25  1  0
 24 23  1  0
 26 20  1  0
 26 27  1  0
 28 26  2  0
M  END
$$$$
