HDK.pdb
     RDKit          3D

 28 28  0  0  1  0  0  0  0  0999 V2000
    8.3722  -17.7603   19.1766 N   0  0  0  0  0  0  0  0  0  0  0  0
    9.2278  -16.7572   19.7815 C   0  0  1  0  0  0  0  0  0  0  0  0
    8.3176  -15.8174   20.5565 C   0  0  0  0  0  0  0  0  0  0  0  0
    7.9697  -14.6764   19.6684 C   0  0  0  0  0  0  0  0  0  0  0  0
    8.3574  -14.5403   18.3456 C   0  0  0  0  0  0  0  0  0  0  0  0
    7.8701  -13.4011   17.8558 N   0  0  0  0  0  0  0  0  0  0  0  0
    7.1856  -12.8280   18.8550 C   0  0  0  0  0  0  0  0  0  0  0  0
    7.2347  -13.5840   19.9575 N   0  0  0  0  0  0  0  0  0  0  0  0
   10.1990  -17.3930   20.7256 C   0  0  0  0  0  0  0  0  0  0  0  0
   10.0023  -18.5348   21.2044 O   0  0  0  0  0  0  0  0  0  0  0  0
   11.3744  -16.6976   21.0959 N   0  0  0  0  0  0  0  0  0  0  0  0
   12.3789  -17.2095   22.0023 C   0  0  1  0  0  0  0  0  0  0  0  0
   13.6171  -16.3539   21.9810 C   0  0  0  0  0  0  0  0  0  0  0  0
   14.6779  -16.8550   22.8540 C   0  0  0  0  0  0  0  0  0  0  0  0
   15.3575  -16.1002   23.5735 O   0  0  0  0  0  0  0  0  0  0  0  0
   11.9101  -17.2752   23.3905 C   0  0  0  0  0  0  0  0  0  0  0  0
   11.3771  -16.2902   23.9287 O   0  0  0  0  0  0  0  0  0  0  0  0
   14.9378  -18.2165   22.8833 O   0  0  0  0  0  0  0  0  0  0  0  0
   12.0730  -18.4724   24.1056 N   0  0  0  0  0  0  0  0  0  0  0  0
   11.4750  -18.6290   25.4959 C   0  0  1  0  0  0  0  0  0  0  0  0
   10.2471  -19.3909   25.2018 C   0  0  0  0  0  0  0  0  0  0  0  0
    9.3721  -19.9617   26.2088 C   0  0  0  0  0  0  0  0  0  0  0  0
    8.1518  -20.7106   25.8381 C   0  0  0  0  0  0  0  0  0  0  0  0
    7.5917  -21.3207   27.1433 C   0  0  0  0  0  0  0  0  0  0  0  0
    6.3128  -21.8997   26.8660 N   0  0  0  0  0  0  0  0  0  0  0  0
   12.5576  -19.2942   26.2372 C   0  0  0  0  0  0  0  0  0  0  0  0
   13.5593  -20.0557   25.6781 O   0  0  0  0  0  0  0  0  0  0  0  0
   12.6435  -19.2107   27.5258 O   0  0  0  0  0  0  0  0  0  0  0  0
  2  1  1  1
  2  3  1  0
  4  3  1  0
  4  5  2  0
  6  5  1  0
  7  8  2  0
  7  6  1  0
  8  4  1  0
  9  2  1  0
 10  9  2  0
 11  9  1  0
 12 11  1  0
 13 14  1  0
 12 13  1  1
 14 15  2  0
 16 12  1  0
 16 19  1  0
 17 16  2  0
 18 14  1  0
 20 19  1  0
 20 21  1  6
 21 22  1  0
 23 22  1  0
 24 25  1  0
 24 23  1  0
 26 20  1  0
 26 27  1  0
 28 26  2  0
M  END
$$$$
