HDK.pdb
     RDKit          3D

 28 28  0  0  1  0  0  0  0  0999 V2000
    9.9662  -15.0337   18.7711 N   0  0  0  0  0  0  0  0  0  0  0  0
    8.6722  -15.1089   19.4222 C   0  0  1  0  0  0  0  0  0  0  0  0
    7.7514  -15.8644   18.4769 C   0  0  0  0  0  0  0  0  0  0  0  0
    7.6991  -15.1191   17.1911 C   0  0  0  0  0  0  0  0  0  0  0  0
    8.4609  -14.0061   16.8757 C   0  0  0  0  0  0  0  0  0  0  0  0
    8.1582  -13.5960   15.6448 N   0  0  0  0  0  0  0  0  0  0  0  0
    7.2197  -14.4380   15.1913 C   0  0  0  0  0  0  0  0  0  0  0  0
    6.9298  -15.3644   16.1116 N   0  0  0  0  0  0  0  0  0  0  0  0
    8.7750  -15.8576   20.7137 C   0  0  0  0  0  0  0  0  0  0  0  0
    7.7791  -16.0357   21.4540 O   0  0  0  0  0  0  0  0  0  0  0  0
   10.0237  -16.3837   21.1215 N   0  0  0  0  0  0  0  0  0  0  0  0
   10.2494  -17.0911   22.3630 C   0  0  1  0  0  0  0  0  0  0  0  0
   11.5345  -17.8734   22.3171 C   0  0  0  0  0  0  0  0  0  0  0  0
   11.7909  -18.6313   23.5412 C   0  0  0  0  0  0  0  0  0  0  0  0
   12.5940  -18.2405   24.4080 O   0  0  0  0  0  0  0  0  0  0  0  0
   10.3176  -16.1953   23.5224 C   0  0  0  0  0  0  0  0  0  0  0  0
   11.2315  -15.3600   23.6273 O   0  0  0  0  0  0  0  0  0  0  0  0
   11.1180  -19.8261   23.7459 O   0  0  0  0  0  0  0  0  0  0  0  0
    9.3310  -16.2958   24.5162 N   0  0  0  0  0  0  0  0  0  0  0  0
    9.3979  -15.4243   25.7617 C   0  0  1  0  0  0  0  0  0  0  0  0
    8.1802  -14.6061   25.6115 C   0  0  0  0  0  0  0  0  0  0  0  0
    7.8522  -13.4596   26.4384 C   0  0  0  0  0  0  0  0  0  0  0  0
    6.6142  -12.6799   26.2230 C   0  0  0  0  0  0  0  0  0  0  0  0
    6.5847  -11.5838   27.3126 C   0  0  0  0  0  0  0  0  0  0  0  0
    5.3772  -10.8291   27.1703 N   0  0  0  0  0  0  0  0  0  0  0  0
    9.4512  -16.4177   26.8453 C   0  0  0  0  0  0  0  0  0  0  0  0
    9.9545  -16.1976   28.1080 O   0  0  0  0  0  0  0  0  0  0  0  0
    9.0142  -17.6241   26.6769 O   0  0  0  0  0  0  0  0  0  0  0  0
  2  1  1  6
  2  3  1  0
  4  3  1  0
  4  5  2  0
  6  5  1  0
  7  8  2  0
  7  6  1  0
  8  4  1  0
  9  2  1  0
 10  9  2  0
 11  9  1  0
 12 11  1  0
 13 14  1  0
 12 13  1  6
 14 15  2  0
 16 12  1  0
 16 19  1  0
 17 16  2  0
 18 14  1  0
 20 19  1  0
 20 21  1  1
 21 22  1  0
 23 22  1  0
 24 25  1  0
 24 23  1  0
 26 20  1  0
 26 27  1  0
 28 26  2  0
M  END
$$$$
