DRM.pdb
     RDKit          3D

 28 27  0  0  1  0  0  0  0  0999 V2000
   15.3702  -16.5481   19.9892 N   0  0  0  0  0  0  0  0  0  0  0  0
   14.7877  -17.4818   20.9304 C   0  0  1  0  0  0  0  0  0  0  0  0
   15.8669  -18.0193   21.8610 C   0  0  0  0  0  0  0  0  0  0  0  0
   16.9186  -18.7361   21.1003 C   0  0  0  0  0  0  0  0  0  0  0  0
   18.1049  -18.6393   21.4752 O   0  0  0  0  0  0  0  0  0  0  0  0
   13.7646  -16.7185   21.7275 C   0  0  0  0  0  0  0  0  0  0  0  0
   14.0462  -15.6195   22.2530 O   0  0  0  0  0  0  0  0  0  0  0  0
   16.6470  -19.5203   19.9770 O   0  0  0  0  0  0  0  0  0  0  0  0
    8.8755  -20.1583   18.3966 N   0  0  0  0  0  0  0  0  0  0  0  0
    8.6560  -21.0044   19.5494 C   0  0  0  0  0  0  0  0  0  0  0  0
    8.6138  -22.2468   19.3950 N   0  0  0  0  0  0  0  0  0  0  0  0
    8.4890  -20.4055   20.8274 N   0  0  0  0  0  0  0  0  0  0  0  0
    8.6790  -19.0491   21.1758 C   0  0  0  0  0  0  0  0  0  0  0  0
   10.0219  -18.6414   21.6472 C   0  0  0  0  0  0  0  0  0  0  0  0
   10.0007  -17.1750   22.1262 C   0  0  0  0  0  0  0  0  0  0  0  0
   11.3788  -16.7679   22.6276 C   0  0  2  0  0  0  0  0  0  0  0  0
   12.4772  -17.2655   21.8729 N   0  0  0  0  0  0  0  0  0  0  0  0
   11.4555  -16.9455   24.0791 C   0  0  0  0  0  0  0  0  0  0  0  0
   12.1475  -17.8792   24.5950 O   0  0  0  0  0  0  0  0  0  0  0  0
    8.4665  -23.0675   19.9374 C   0  0  0  0  0  0  0  0  0  0  0  0
   10.0866  -13.7407   31.2556 S   0  0  0  0  0  0  0  0  0  0  0  0
    9.9203  -13.6375   29.4616 C   0  0  0  0  0  0  0  0  0  0  0  0
   10.5881  -15.1297   28.6633 C   0  0  0  0  0  0  0  0  0  0  0  0
   10.4851  -15.0268   27.1816 C   0  0  1  0  0  0  0  0  0  0  0  0
   10.9923  -16.2316   26.4653 N   0  0  0  0  0  0  0  0  0  0  0  0
   10.7833  -16.1146   25.0192 C   0  0  0  0  0  0  0  0  0  0  0  0
   10.2772  -17.4401   26.9121 O   0  0  0  0  0  0  0  0  0  0  0  0
   10.6769  -18.2810   27.9396 O   0  0  0  0  0  0  0  0  0  0  0  0
  2  1  1  6
  2  3  1  0
  3  4  1  0
  4  5  2  0
  4  8  1  0
  6  2  1  0
  7  6  2  0
  9 10  1  0
 10 12  1  0
 11 10  2  0
 12 13  1  0
 13 14  1  0
 14 15  1  0
 16 15  1  6
 16 17  1  0
 17  6  1  0
 18 19  2  0
 18 16  1  0
 21 20  1  0
 22 21  1  0
 23 22  1  0
 24 23  1  6
 24 25  1  0
 25 18  1  0
 26 27  1  0
 26 24  1  0
 28 26  2  0
M  END
$$$$
