DRM.pdb
     RDKit          3D

 28 27  0  0  1  0  0  0  0  0999 V2000
   12.8437  -16.5387   19.3108 N   0  0  0  0  0  0  0  0  0  0  0  0
   13.7553  -15.8991   20.2365 C   0  0  1  0  0  0  0  0  0  0  0  0
   14.3362  -14.6411   19.6043 C   0  0  0  0  0  0  0  0  0  0  0  0
   15.3914  -14.9778   18.6187 C   0  0  0  0  0  0  0  0  0  0  0  0
   15.0794  -15.0856   17.4152 O   0  0  0  0  0  0  0  0  0  0  0  0
   12.9536  -15.5305   21.4556 C   0  0  0  0  0  0  0  0  0  0  0  0
   13.4655  -14.8758   22.3896 O   0  0  0  0  0  0  0  0  0  0  0  0
   16.7273  -15.1819   18.9713 O   0  0  0  0  0  0  0  0  0  0  0  0
    8.1254  -14.6576   17.4165 N   0  0  0  0  0  0  0  0  0  0  0  0
    7.6356  -13.5430   18.1979 C   0  0  0  0  0  0  0  0  0  0  0  0
    7.7235  -12.3844   17.7296 N   0  0  0  0  0  0  0  0  0  0  0  0
    7.0715  -13.7888   19.4789 N   0  0  0  0  0  0  0  0  0  0  0  0
    7.5055  -14.7217   20.4478 C   0  0  0  0  0  0  0  0  0  0  0  0
    8.8935  -14.5991   20.9479 C   0  0  0  0  0  0  0  0  0  0  0  0
    9.1792  -15.6808   22.0102 C   0  0  0  0  0  0  0  0  0  0  0  0
   10.6213  -15.5795   22.4861 C   0  0  2  0  0  0  0  0  0  0  0  0
   11.6095  -15.9378   21.5277 N   0  0  0  0  0  0  0  0  0  0  0  0
   10.7539  -16.1857   23.8125 C   0  0  0  0  0  0  0  0  0  0  0  0
   11.0604  -17.4120   23.9510 O   0  0  0  0  0  0  0  0  0  0  0  0
    7.5281  -11.4472   17.9997 C   0  0  0  0  0  0  0  0  0  0  0  0
   10.0560  -12.8758   29.4002 S   0  0  0  0  0  0  0  0  0  0  0  0
   10.6128  -14.4480   30.0892 C   0  0  0  0  0  0  0  0  0  0  0  0
   10.6663  -15.7346   28.8039 C   0  0  0  0  0  0  0  0  0  0  0  0
   10.5971  -15.1278   27.4462 C   0  0  1  0  0  0  0  0  0  0  0  0
   10.6618  -16.1288   26.3436 N   0  0  0  0  0  0  0  0  0  0  0  0
   10.5583  -15.4802   25.0332 C   0  0  0  0  0  0  0  0  0  0  0  0
    9.5456  -17.0854   26.4452 O   0  0  0  0  0  0  0  0  0  0  0  0
    9.6045  -18.3340   27.0455 O   0  0  0  0  0  0  0  0  0  0  0  0
  2  1  1  6
  2  3  1  0
  3  4  1  0
  4  5  2  0
  4  8  1  0
  6  2  1  0
  7  6  2  0
  9 10  1  0
 10 12  1  0
 11 10  2  0
 12 13  1  0
 13 14  1  0
 14 15  1  0
 16 15  1  6
 16 17  1  0
 17  6  1  0
 18 19  2  0
 18 16  1  0
 21 20  1  0
 22 21  1  0
 23 22  1  0
 24 23  1  6
 24 25  1  0
 25 18  1  0
 26 27  1  0
 26 24  1  0
 28 26  2  0
M  END
$$$$
