DRM.pdb
     RDKit          3D

 28 27  0  0  1  0  0  0  0  0999 V2000
   12.4390  -16.6197   19.2461 N   0  0  0  0  0  0  0  0  0  0  0  0
   13.0962  -15.5837   20.0154 C   0  0  1  0  0  0  0  0  0  0  0  0
   13.4624  -14.4179   19.1063 C   0  0  0  0  0  0  0  0  0  0  0  0
   14.8137  -14.5997   18.5238 C   0  0  0  0  0  0  0  0  0  0  0  0
   15.4832  -15.5992   18.8555 O   0  0  0  0  0  0  0  0  0  0  0  0
   12.1140  -15.1241   21.0589 C   0  0  0  0  0  0  0  0  0  0  0  0
   12.3978  -14.1955   21.8464 O   0  0  0  0  0  0  0  0  0  0  0  0
   15.3798  -13.7023   17.6156 O   0  0  0  0  0  0  0  0  0  0  0  0
    8.5769  -14.8024   17.3635 N   0  0  0  0  0  0  0  0  0  0  0  0
    8.0718  -13.5250   17.8176 C   0  0  0  0  0  0  0  0  0  0  0  0
    8.3120  -12.4987   17.1408 N   0  0  0  0  0  0  0  0  0  0  0  0
    7.3200  -13.4651   19.0222 N   0  0  0  0  0  0  0  0  0  0  0  0
    7.5970  -14.1170   20.2451 C   0  0  0  0  0  0  0  0  0  0  0  0
    8.1143  -15.5029   20.1844 C   0  0  0  0  0  0  0  0  0  0  0  0
    8.4297  -16.0210   21.6029 C   0  0  0  0  0  0  0  0  0  0  0  0
    9.7983  -15.5265   22.0488 C   0  0  2  0  0  0  0  0  0  0  0  0
   10.8625  -15.7612   21.1346 N   0  0  0  0  0  0  0  0  0  0  0  0
   10.0410  -15.9135   23.4401 C   0  0  0  0  0  0  0  0  0  0  0  0
   10.7586  -16.9225   23.7298 O   0  0  0  0  0  0  0  0  0  0  0  0
    8.2179  -11.5110   17.2132 C   0  0  0  0  0  0  0  0  0  0  0  0
   10.9711  -14.6631   30.6983 S   0  0  0  0  0  0  0  0  0  0  0  0
   10.1017  -13.9138   29.3056 C   0  0  0  0  0  0  0  0  0  0  0  0
    9.2268  -15.1783   28.3333 C   0  0  0  0  0  0  0  0  0  0  0  0
    9.0778  -14.7455   26.9166 C   0  0  1  0  0  0  0  0  0  0  0  0
    9.7320  -15.6646   25.9422 N   0  0  0  0  0  0  0  0  0  0  0  0
    9.5126  -15.2174   24.5637 C   0  0  0  0  0  0  0  0  0  0  0  0
    9.1719  -17.0229   26.0537 O   0  0  0  0  0  0  0  0  0  0  0  0
    9.6782  -18.0425   26.8454 O   0  0  0  0  0  0  0  0  0  0  0  0
  2  1  1  6
  2  3  1  0
  3  4  1  0
  4  5  2  0
  4  8  1  0
  6  2  1  0
  7  6  2  0
  9 10  1  0
 10 12  1  0
 11 10  2  0
 12 13  1  0
 13 14  1  0
 14 15  1  0
 16 15  1  6
 16 17  1  0
 17  6  1  0
 18 19  2  0
 18 16  1  0
 21 20  1  0
 22 21  1  0
 23 22  1  0
 24 23  1  1
 24 25  1  0
 25 18  1  0
 26 27  1  0
 26 24  1  0
 28 26  2  0
M  END
$$$$
