DRM.pdb
     RDKit          3D

 28 27  0  0  1  0  0  0  0  0999 V2000
   12.9415  -16.8417   19.4275 N   0  0  0  0  0  0  0  0  0  0  0  0
   13.1868  -15.5240   19.9758 C   0  0  1  0  0  0  0  0  0  0  0  0
   13.4189  -14.5289   18.8465 C   0  0  0  0  0  0  0  0  0  0  0  0
   14.8542  -14.4628   18.4803 C   0  0  0  0  0  0  0  0  0  0  0  0
   15.6826  -15.0852   19.1757 O   0  0  0  0  0  0  0  0  0  0  0  0
   11.9554  -15.1358   20.7490 C   0  0  0  0  0  0  0  0  0  0  0  0
   11.9017  -14.0548   21.3748 O   0  0  0  0  0  0  0  0  0  0  0  0
   15.3298  -13.7337   17.3881 O   0  0  0  0  0  0  0  0  0  0  0  0
    8.9021  -19.5600   16.9618 N   0  0  0  0  0  0  0  0  0  0  0  0
    8.9721  -20.4206   18.1225 C   0  0  0  0  0  0  0  0  0  0  0  0
    9.7359  -21.4133   18.1006 N   0  0  0  0  0  0  0  0  0  0  0  0
    8.1697  -20.1219   19.2568 N   0  0  0  0  0  0  0  0  0  0  0  0
    7.8736  -18.8480   19.7925 C   0  0  0  0  0  0  0  0  0  0  0  0
    9.0009  -18.0413   20.3125 C   0  0  0  0  0  0  0  0  0  0  0  0
    8.4796  -16.7321   20.9406 C   0  0  0  0  0  0  0  0  0  0  0  0
    9.6413  -15.9141   21.4861 C   0  0  2  0  0  0  0  0  0  0  0  0
   10.8581  -16.0154   20.7564 N   0  0  0  0  0  0  0  0  0  0  0  0
    9.7383  -16.0890   22.9368 C   0  0  0  0  0  0  0  0  0  0  0  0
   10.7346  -16.6752   23.4666 O   0  0  0  0  0  0  0  0  0  0  0  0
   10.0292  -22.1500   18.7013 C   0  0  0  0  0  0  0  0  0  0  0  0
    6.0535  -11.9121   26.2779 S   0  0  0  0  0  0  0  0  0  0  0  0
    7.4173  -12.1554   27.4345 C   0  0  0  0  0  0  0  0  0  0  0  0
    8.3103  -13.6972   27.0663 C   0  0  0  0  0  0  0  0  0  0  0  0
    8.1911  -14.0448   25.6236 C   0  0  1  0  0  0  0  0  0  0  0  0
    9.1006  -15.1475   25.2006 N   0  0  0  0  0  0  0  0  0  0  0  0
    8.7566  -15.6326   23.8609 C   0  0  0  0  0  0  0  0  0  0  0  0
    8.9895  -16.2932   26.1205 O   0  0  0  0  0  0  0  0  0  0  0  0
    9.5792  -16.3837   27.3722 O   0  0  0  0  0  0  0  0  0  0  0  0
  2  1  1  6
  2  3  1  0
  3  4  1  0
  4  5  2  0
  4  8  1  0
  6  2  1  0
  7  6  2  0
  9 10  1  0
 10 12  1  0
 11 10  2  0
 12 13  1  0
 13 14  1  0
 14 15  1  0
 16 15  1  6
 16 17  1  0
 17  6  1  0
 18 19  2  0
 18 16  1  0
 21 20  1  0
 22 21  1  0
 23 22  1  0
 24 23  1  6
 24 25  1  0
 25 18  1  0
 26 27  1  0
 26 24  1  0
 28 26  2  0
M  END
$$$$
