DRM.pdb
     RDKit          3D

 28 27  0  0  1  0  0  0  0  0999 V2000
    9.7112  -18.1084   18.4737 N   0  0  0  0  0  0  0  0  0  0  0  0
    9.0176  -16.8526   18.6713 C   0  0  1  0  0  0  0  0  0  0  0  0
    7.8920  -16.7179   17.6542 C   0  0  0  0  0  0  0  0  0  0  0  0
    8.4189  -16.7452   16.2686 C   0  0  0  0  0  0  0  0  0  0  0  0
    9.5338  -16.2342   16.0379 O   0  0  0  0  0  0  0  0  0  0  0  0
    8.4436  -16.8841   20.0621 C   0  0  0  0  0  0  0  0  0  0  0  0
    7.7165  -15.9569   20.4802 O   0  0  0  0  0  0  0  0  0  0  0  0
    7.7256  -17.3181   15.2000 O   0  0  0  0  0  0  0  0  0  0  0  0
    6.0450  -21.1247   26.3771 N   0  0  0  0  0  0  0  0  0  0  0  0
    7.3616  -20.9848   26.9601 C   0  0  0  0  0  0  0  0  0  0  0  0
    7.4648  -20.6084   28.1504 N   0  0  0  0  0  0  0  0  0  0  0  0
    8.5053  -21.2732   26.1673 N   0  0  0  0  0  0  0  0  0  0  0  0
    8.6784  -21.0365   24.7847 C   0  0  0  0  0  0  0  0  0  0  0  0
    8.3567  -19.6853   24.2724 C   0  0  0  0  0  0  0  0  0  0  0  0
    8.5323  -19.6359   22.7404 C   0  0  0  0  0  0  0  0  0  0  0  0
    8.3484  -18.2111   22.2379 C   0  0  2  0  0  0  0  0  0  0  0  0
    8.7408  -17.9813   20.8900 N   0  0  0  0  0  0  0  0  0  0  0  0
    8.8534  -17.2613   23.2315 C   0  0  0  0  0  0  0  0  0  0  0  0
   10.0922  -16.9866   23.3133 O   0  0  0  0  0  0  0  0  0  0  0  0
    8.1750  -20.3741   28.8063 C   0  0  0  0  0  0  0  0  0  0  0  0
    6.7879  -10.4616   26.6141 S   0  0  0  0  0  0  0  0  0  0  0  0
    6.2817  -12.0866   26.0142 C   0  0  0  0  0  0  0  0  0  0  0  0
    7.7275  -13.1615   25.7604 C   0  0  0  0  0  0  0  0  0  0  0  0
    7.3276  -14.4394   25.1096 C   0  0  2  0  0  0  0  0  0  0  0  0
    8.4694  -15.3670   24.8692 N   0  0  0  0  0  0  0  0  0  0  0  0
    8.0296  -16.5776   24.1695 C   0  0  0  0  0  0  0  0  0  0  0  0
    9.0677  -15.7951   26.1460 O   0  0  0  0  0  0  0  0  0  0  0  0
    9.9080  -15.0300   26.9405 O   0  0  0  0  0  0  0  0  0  0  0  0
  2  1  1  6
  2  3  1  0
  3  4  1  0
  4  5  2  0
  4  8  1  0
  6  2  1  0
  7  6  2  0
  9 10  1  0
 10 12  1  0
 11 10  2  0
 12 13  1  0
 13 14  1  0
 14 15  1  0
 16 15  1  1
 16 17  1  0
 17  6  1  0
 18 19  2  0
 18 16  1  0
 21 20  1  0
 22 21  1  0
 23 22  1  0
 24 23  1  6
 24 25  1  0
 25 18  1  0
 26 27  1  0
 26 24  1  0
 28 26  2  0
M  END
$$$$
