DRM.pdb
     RDKit          3D

 28 27  0  0  1  0  0  0  0  0999 V2000
   10.4426  -18.2395   19.5761 N   0  0  0  0  0  0  0  0  0  0  0  0
   11.6346  -17.5227   19.9791 C   0  0  1  0  0  0  0  0  0  0  0  0
   12.0939  -16.6077   18.8516 C   0  0  0  0  0  0  0  0  0  0  0  0
   12.8608  -17.3620   17.8312 C   0  0  0  0  0  0  0  0  0  0  0  0
   12.7432  -18.6035   17.7852 O   0  0  0  0  0  0  0  0  0  0  0  0
   11.2636  -16.6984   21.1823 C   0  0  0  0  0  0  0  0  0  0  0  0
   12.1126  -15.9880   21.7633 O   0  0  0  0  0  0  0  0  0  0  0  0
   13.7148  -16.7490   16.9117 O   0  0  0  0  0  0  0  0  0  0  0  0
    8.3510  -14.8018   18.3249 N   0  0  0  0  0  0  0  0  0  0  0  0
    8.4472  -13.4300   18.7743 C   0  0  0  0  0  0  0  0  0  0  0  0
    8.9492  -12.5722   18.0118 N   0  0  0  0  0  0  0  0  0  0  0  0
    7.9746  -13.0902   20.0708 N   0  0  0  0  0  0  0  0  0  0  0  0
    8.1520  -13.8152   21.2709 C   0  0  0  0  0  0  0  0  0  0  0  0
    7.5427  -15.1616   21.3579 C   0  0  0  0  0  0  0  0  0  0  0  0
    7.8826  -15.8185   22.7118 C   0  0  0  0  0  0  0  0  0  0  0  0
    9.3737  -16.1126   22.7915 C   0  0  2  0  0  0  0  0  0  0  0  0
    9.9365  -16.7406   21.6459 N   0  0  0  0  0  0  0  0  0  0  0  0
    9.6959  -16.7162   24.0862 C   0  0  0  0  0  0  0  0  0  0  0  0
    8.9310  -17.5796   24.6215 O   0  0  0  0  0  0  0  0  0  0  0  0
    9.2152  -11.6138   18.0295 C   0  0  0  0  0  0  0  0  0  0  0  0
    9.6899  -12.9701   30.3628 S   0  0  0  0  0  0  0  0  0  0  0  0
    9.7773  -13.1711   28.5715 C   0  0  0  0  0  0  0  0  0  0  0  0
    9.6700  -14.9282   28.1119 C   0  0  0  0  0  0  0  0  0  0  0  0
    9.8545  -15.1024   26.6449 C   0  0  1  0  0  0  0  0  0  0  0  0
   10.8220  -16.1799   26.2913 N   0  0  0  0  0  0  0  0  0  0  0  0
   10.8599  -16.4026   24.8430 C   0  0  0  0  0  0  0  0  0  0  0  0
   10.4305  -17.4548   26.9178 O   0  0  0  0  0  0  0  0  0  0  0  0
   10.0608  -18.6070   26.2407 O   0  0  0  0  0  0  0  0  0  0  0  0
  2  1  1  6
  2  3  1  0
  3  4  1  0
  4  5  2  0
  4  8  1  0
  6  2  1  0
  7  6  2  0
  9 10  1  0
 10 12  1  0
 11 10  2  0
 12 13  1  0
 13 14  1  0
 14 15  1  0
 16 15  1  6
 16 17  1  0
 17  6  1  0
 18 19  2  0
 18 16  1  0
 21 20  1  0
 22 21  1  0
 23 22  1  0
 24 23  1  6
 24 25  1  0
 25 18  1  0
 26 27  1  0
 26 24  1  0
 28 26  2  0
M  END
$$$$
