DRM.pdb
     RDKit          3D

 28 27  0  0  1  0  0  0  0  0999 V2000
    9.3735  -17.9288   19.3313 N   0  0  0  0  0  0  0  0  0  0  0  0
    8.8713  -16.5792   19.4841 C   0  0  1  0  0  0  0  0  0  0  0  0
    7.7853  -16.3112   18.4505 C   0  0  0  0  0  0  0  0  0  0  0  0
    8.3634  -16.1774   17.0917 C   0  0  0  0  0  0  0  0  0  0  0  0
    9.1778  -17.0364   16.6963 O   0  0  0  0  0  0  0  0  0  0  0  0
    8.2888  -16.4834   20.8685 C   0  0  0  0  0  0  0  0  0  0  0  0
    7.8580  -15.3969   21.3125 O   0  0  0  0  0  0  0  0  0  0  0  0
    8.0404  -15.1309   16.2251 O   0  0  0  0  0  0  0  0  0  0  0  0
    4.3284  -22.4744   22.7193 N   0  0  0  0  0  0  0  0  0  0  0  0
    5.5206  -21.9680   23.3638 C   0  0  0  0  0  0  0  0  0  0  0  0
    6.6387  -22.2051   22.8512 N   0  0  0  0  0  0  0  0  0  0  0  0
    5.3945  -21.2184   24.5647 N   0  0  0  0  0  0  0  0  0  0  0  0
    6.4137  -20.5352   25.2660 C   0  0  0  0  0  0  0  0  0  0  0  0
    6.7494  -19.1618   24.8268 C   0  0  0  0  0  0  0  0  0  0  0  0
    7.3674  -19.1859   23.4134 C   0  0  0  0  0  0  0  0  0  0  0  0
    7.7994  -17.7844   23.0068 C   0  0  2  0  0  0  0  0  0  0  0  0
    8.2368  -17.6444   21.6604 N   0  0  0  0  0  0  0  0  0  0  0  0
    8.6708  -17.2116   24.0349 C   0  0  0  0  0  0  0  0  0  0  0  0
    8.9951  -17.8744   25.0705 O   0  0  0  0  0  0  0  0  0  0  0  0
    7.6032  -22.0763   23.0575 C   0  0  0  0  0  0  0  0  0  0  0  0
    6.8991  -10.5743   26.0864 S   0  0  0  0  0  0  0  0  0  0  0  0
    6.4127  -12.2898   26.3640 C   0  0  0  0  0  0  0  0  0  0  0  0
    7.8729  -13.3730   26.4331 C   0  0  0  0  0  0  0  0  0  0  0  0
    8.0085  -14.1573   25.1749 C   0  0  1  0  0  0  0  0  0  0  0  0
    9.2386  -14.9978   25.1279 N   0  0  0  0  0  0  0  0  0  0  0  0
    9.2195  -15.8997   23.9726 C   0  0  0  0  0  0  0  0  0  0  0  0
    9.3395  -15.8378   26.3344 O   0  0  0  0  0  0  0  0  0  0  0  0
    9.3003  -17.2236   26.3589 O   0  0  0  0  0  0  0  0  0  0  0  0
  2  1  1  6
  2  3  1  0
  3  4  1  0
  4  5  2  0
  4  8  1  0
  6  2  1  0
  7  6  2  0
  9 10  1  0
 10 12  1  0
 11 10  2  0
 12 13  1  0
 13 14  1  0
 14 15  1  0
 16 15  1  1
 16 17  1  0
 17  6  1  0
 18 19  2  0
 18 16  1  0
 21 20  1  0
 22 21  1  0
 23 22  1  0
 24 23  1  6
 24 25  1  0
 25 18  1  0
 26 27  1  0
 26 24  1  0
 28 26  2  0
M  END
$$$$
