DRM.pdb
     RDKit          3D

 28 27  0  0  1  0  0  0  0  0999 V2000
    8.9793  -17.1814   18.6307 N   0  0  0  0  0  0  0  0  0  0  0  0
    9.8616  -16.9476   19.7550 C   0  0  1  0  0  0  0  0  0  0  0  0
   10.7252  -15.7218   19.4885 C   0  0  0  0  0  0  0  0  0  0  0  0
   11.7502  -16.0057   18.4554 C   0  0  0  0  0  0  0  0  0  0  0  0
   12.4107  -17.0615   18.5363 O   0  0  0  0  0  0  0  0  0  0  0  0
    8.9862  -16.7004   20.9539 C   0  0  0  0  0  0  0  0  0  0  0  0
    8.2867  -15.6676   21.0392 O   0  0  0  0  0  0  0  0  0  0  0  0
   12.0161  -15.1452   17.3880 O   0  0  0  0  0  0  0  0  0  0  0  0
    8.0278  -19.0057   27.7394 N   0  0  0  0  0  0  0  0  0  0  0  0
    7.1662  -20.1565   27.9014 C   0  0  0  0  0  0  0  0  0  0  0  0
    7.0410  -20.6695   29.0374 N   0  0  0  0  0  0  0  0  0  0  0  0
    6.4871  -20.6795   26.7679 N   0  0  0  0  0  0  0  0  0  0  0  0
    6.7658  -20.4309   25.4048 C   0  0  0  0  0  0  0  0  0  0  0  0
    7.3455  -19.1157   25.0497 C   0  0  0  0  0  0  0  0  0  0  0  0
    7.5601  -19.0174   23.5251 C   0  0  0  0  0  0  0  0  0  0  0  0
    8.1803  -17.6739   23.1692 C   0  0  2  0  0  0  0  0  0  0  0  0
    8.9677  -17.6571   21.9846 N   0  0  0  0  0  0  0  0  0  0  0  0
    8.7853  -17.0715   24.3589 C   0  0  0  0  0  0  0  0  0  0  0  0
    9.9240  -17.4462   24.7831 O   0  0  0  0  0  0  0  0  0  0  0  0
    6.6203  -21.4651   29.4611 C   0  0  0  0  0  0  0  0  0  0  0  0
    6.5625  -10.4722   25.4836 S   0  0  0  0  0  0  0  0  0  0  0  0
    6.5975  -11.9779   26.4778 C   0  0  0  0  0  0  0  0  0  0  0  0
    7.9344  -13.0836   25.9299 C   0  0  0  0  0  0  0  0  0  0  0  0
    8.0226  -14.2815   26.8096 C   0  0  2  0  0  0  0  0  0  0  0  0
    8.8586  -15.3767   26.2405 N   0  0  0  0  0  0  0  0  0  0  0  0
    8.1739  -16.0414   25.1279 C   0  0  0  0  0  0  0  0  0  0  0  0
    9.1312  -16.4046   27.2605 O   0  0  0  0  0  0  0  0  0  0  0  0
    8.7480  -17.7353   27.1882 O   0  0  0  0  0  0  0  0  0  0  0  0
  2  1  1  6
  2  3  1  0
  3  4  1  0
  4  5  2  0
  4  8  1  0
  6  2  1  0
  7  6  2  0
  9 10  1  0
 10 12  1  0
 11 10  2  0
 12 13  1  0
 13 14  1  0
 14 15  1  0
 16 15  1  1
 16 17  1  0
 17  6  1  0
 18 19  2  0
 18 16  1  0
 21 20  1  0
 22 21  1  0
 23 22  1  0
 24 23  1  6
 24 25  1  0
 25 18  1  0
 26 27  1  0
 26 24  1  0
 28 26  2  0
M  END
$$$$
