DRM.pdb
     RDKit          3D

 28 27  0  0  1  0  0  0  0  0999 V2000
   11.3620  -18.9850   21.1697 N   0  0  0  0  0  0  0  0  0  0  0  0
   11.7288  -17.9247   20.2542 C   0  0  1  0  0  0  0  0  0  0  0  0
   11.0983  -18.1773   18.8910 C   0  0  0  0  0  0  0  0  0  0  0  0
   11.5773  -17.1928   17.8911 C   0  0  0  0  0  0  0  0  0  0  0  0
   12.7949  -16.9229   17.8467 O   0  0  0  0  0  0  0  0  0  0  0  0
   11.1918  -16.6429   20.8318 C   0  0  0  0  0  0  0  0  0  0  0  0
   11.2110  -15.5811   20.1721 O   0  0  0  0  0  0  0  0  0  0  0  0
   10.7284  -16.5471   16.9893 O   0  0  0  0  0  0  0  0  0  0  0  0
    7.5034  -12.3269   19.1998 N   0  0  0  0  0  0  0  0  0  0  0  0
    7.8105  -13.6249   18.6394 C   0  0  0  0  0  0  0  0  0  0  0  0
    7.5689  -13.8394   17.4291 N   0  0  0  0  0  0  0  0  0  0  0  0
    8.3742  -14.6258   19.4763 N   0  0  0  0  0  0  0  0  0  0  0  0
    7.6925  -15.6357   20.1923 C   0  0  0  0  0  0  0  0  0  0  0  0
    7.8515  -15.6627   21.6639 C   0  0  0  0  0  0  0  0  0  0  0  0
    9.0372  -14.7736   22.0924 C   0  0  0  0  0  0  0  0  0  0  0  0
   10.0582  -15.5979   22.8633 C   0  0  2  0  0  0  0  0  0  0  0  0
   10.6645  -16.6591   22.1354 N   0  0  0  0  0  0  0  0  0  0  0  0
    9.5305  -15.9373   24.1865 C   0  0  0  0  0  0  0  0  0  0  0  0
    8.3324  -16.3354   24.3379 O   0  0  0  0  0  0  0  0  0  0  0  0
    7.6349  -14.5805   16.7689 C   0  0  0  0  0  0  0  0  0  0  0  0
    6.0089  -11.8940   26.4042 S   0  0  0  0  0  0  0  0  0  0  0  0
    7.4797  -12.0845   27.4324 C   0  0  0  0  0  0  0  0  0  0  0  0
    7.9542  -13.8359   27.5643 C   0  0  0  0  0  0  0  0  0  0  0  0
    8.7003  -14.2735   26.3525 C   0  0  1  0  0  0  0  0  0  0  0  0
    9.7335  -15.3108   26.6328 N   0  0  0  0  0  0  0  0  0  0  0  0
   10.2866  -15.8561   25.3897 C   0  0  0  0  0  0  0  0  0  0  0  0
    9.1478  -16.4377   27.3800 O   0  0  0  0  0  0  0  0  0  0  0  0
    8.6419  -17.6013   26.8207 O   0  0  0  0  0  0  0  0  0  0  0  0
  2  1  1  1
  2  3  1  0
  3  4  1  0
  4  5  2  0
  4  8  1  0
  6  2  1  0
  7  6  2  0
  9 10  1  0
 10 12  1  0
 11 10  2  0
 12 13  1  0
 13 14  1  0
 14 15  1  0
 16 15  1  6
 16 17  1  0
 17  6  1  0
 18 19  2  0
 18 16  1  0
 21 20  1  0
 22 21  1  0
 23 22  1  0
 24 23  1  1
 24 25  1  0
 25 18  1  0
 26 27  1  0
 26 24  1  0
 28 26  2  0
M  END
$$$$
