DRM.pdb
     RDKit          3D

 28 27  0  0  1  0  0  0  0  0999 V2000
   12.7964  -16.6061   19.1343 N   0  0  0  0  0  0  0  0  0  0  0  0
   13.6067  -15.7835   20.0083 C   0  0  1  0  0  0  0  0  0  0  0  0
   14.0948  -14.5532   19.2548 C   0  0  0  0  0  0  0  0  0  0  0  0
   15.3732  -14.8281   18.5558 C   0  0  0  0  0  0  0  0  0  0  0  0
   15.8032  -15.9992   18.5249 O   0  0  0  0  0  0  0  0  0  0  0  0
   12.7253  -15.3610   21.1526 C   0  0  0  0  0  0  0  0  0  0  0  0
   13.1576  -14.6141   22.0573 O   0  0  0  0  0  0  0  0  0  0  0  0
   16.1264  -13.8353   17.9252 O   0  0  0  0  0  0  0  0  0  0  0  0
    7.9349  -13.6527   16.9458 N   0  0  0  0  0  0  0  0  0  0  0  0
    7.5575  -12.9519   18.1538 C   0  0  0  0  0  0  0  0  0  0  0  0
    7.9020  -11.7561   18.2982 N   0  0  0  0  0  0  0  0  0  0  0  0
    6.8098  -13.6379   19.1488 N   0  0  0  0  0  0  0  0  0  0  0  0
    7.2703  -14.6328   20.0408 C   0  0  0  0  0  0  0  0  0  0  0  0
    8.6086  -14.4481   20.6463 C   0  0  0  0  0  0  0  0  0  0  0  0
    8.9448  -15.6314   21.5774 C   0  0  0  0  0  0  0  0  0  0  0  0
   10.3644  -15.4930   22.1082 C   0  0  2  0  0  0  0  0  0  0  0  0
   11.3977  -15.8236   21.1881 N   0  0  0  0  0  0  0  0  0  0  0  0
   10.4621  -16.0978   23.4383 C   0  0  0  0  0  0  0  0  0  0  0  0
   11.0591  -17.2061   23.6181 O   0  0  0  0  0  0  0  0  0  0  0  0
    7.8281  -11.0283   18.9722 C   0  0  0  0  0  0  0  0  0  0  0  0
   10.1655  -14.4831   31.2385 S   0  0  0  0  0  0  0  0  0  0  0  0
    9.8642  -13.9664   29.5358 C   0  0  0  0  0  0  0  0  0  0  0  0
   10.2920  -15.2968   28.3709 C   0  0  0  0  0  0  0  0  0  0  0  0
   10.0260  -14.8758   26.9679 C   0  0  1  0  0  0  0  0  0  0  0  0
   10.3234  -15.9356   25.9627 N   0  0  0  0  0  0  0  0  0  0  0  0
    9.9149  -15.5191   24.6180 C   0  0  0  0  0  0  0  0  0  0  0  0
    9.5861  -17.1717   26.2784 O   0  0  0  0  0  0  0  0  0  0  0  0
   10.0380  -18.1940   27.0991 O   0  0  0  0  0  0  0  0  0  0  0  0
  2  1  1  6
  2  3  1  0
  3  4  1  0
  4  5  2  0
  4  8  1  0
  6  2  1  0
  7  6  2  0
  9 10  1  0
 10 12  1  0
 11 10  2  0
 12 13  1  0
 13 14  1  0
 14 15  1  0
 16 15  1  6
 16 17  1  0
 17  6  1  0
 18 19  2  0
 18 16  1  0
 21 20  1  0
 22 21  1  0
 23 22  1  0
 24 23  1  6
 24 25  1  0
 25 18  1  0
 26 27  1  0
 26 24  1  0
 28 26  2  0
M  END
$$$$
