DRM.pdb
     RDKit          3D

 28 27  0  0  1  0  0  0  0  0999 V2000
   11.2354  -14.8101   18.1235 N   0  0  0  0  0  0  0  0  0  0  0  0
   11.7486  -15.2434   19.4065 C   0  0  1  0  0  0  0  0  0  0  0  0
   12.8617  -14.3085   19.8608 C   0  0  0  0  0  0  0  0  0  0  0  0
   14.1361  -14.6212   19.1704 C   0  0  0  0  0  0  0  0  0  0  0  0
   14.1461  -14.6849   17.9241 O   0  0  0  0  0  0  0  0  0  0  0  0
   10.6029  -15.1790   20.3802 C   0  0  0  0  0  0  0  0  0  0  0  0
    9.8171  -14.2066   20.3871 O   0  0  0  0  0  0  0  0  0  0  0  0
   15.3351  -14.8499   19.8491 O   0  0  0  0  0  0  0  0  0  0  0  0
    6.3949  -22.0524   19.8879 N   0  0  0  0  0  0  0  0  0  0  0  0
    6.5137  -21.0027   18.8995 C   0  0  0  0  0  0  0  0  0  0  0  0
    6.1549  -21.2309   17.7212 N   0  0  0  0  0  0  0  0  0  0  0  0
    7.0387  -19.7405   19.2881 N   0  0  0  0  0  0  0  0  0  0  0  0
    7.5799  -19.3808   20.5431 C   0  0  0  0  0  0  0  0  0  0  0  0
    8.0996  -18.0034   20.6992 C   0  0  0  0  0  0  0  0  0  0  0  0
    8.6781  -17.8048   22.1155 C   0  0  0  0  0  0  0  0  0  0  0  0
    9.3700  -16.4528   22.2137 C   0  0  2  0  0  0  0  0  0  0  0  0
   10.4295  -16.2380   21.2892 N   0  0  0  0  0  0  0  0  0  0  0  0
    9.6580  -16.1391   23.6148 C   0  0  0  0  0  0  0  0  0  0  0  0
   10.8165  -16.3181   24.1075 O   0  0  0  0  0  0  0  0  0  0  0  0
    6.1301  -20.7702   16.8400 C   0  0  0  0  0  0  0  0  0  0  0  0
    7.0652  -10.3204   26.5041 S   0  0  0  0  0  0  0  0  0  0  0  0
    6.7186  -12.0891   26.5957 C   0  0  0  0  0  0  0  0  0  0  0  0
    8.2389  -13.0593   26.3557 C   0  0  0  0  0  0  0  0  0  0  0  0
    7.9807  -14.5087   26.5772 C   0  0  2  0  0  0  0  0  0  0  0  0
    8.9973  -15.3971   25.9452 N   0  0  0  0  0  0  0  0  0  0  0  0
    8.6974  -15.6199   24.5279 C   0  0  0  0  0  0  0  0  0  0  0  0
    9.0116  -16.7170   26.6001 O   0  0  0  0  0  0  0  0  0  0  0  0
    9.7397  -17.0485   27.7326 O   0  0  0  0  0  0  0  0  0  0  0  0
  2  1  1  6
  2  3  1  0
  3  4  1  0
  4  5  2  0
  4  8  1  0
  6  2  1  0
  7  6  2  0
  9 10  1  0
 10 12  1  0
 11 10  2  0
 12 13  1  0
 13 14  1  0
 14 15  1  0
 16 15  1  1
 16 17  1  0
 17  6  1  0
 18 19  2  0
 18 16  1  0
 21 20  1  0
 22 21  1  0
 23 22  1  0
 24 23  1  6
 24 25  1  0
 25 18  1  0
 26 27  1  0
 26 24  1  0
 28 26  2  0
M  END
$$$$
