DRM.pdb
     RDKit          3D

 28 27  0  0  1  0  0  0  0  0999 V2000
    8.3554  -19.0906   20.7096 N   0  0  0  0  0  0  0  0  0  0  0  0
    9.5424  -19.4380   21.4628 C   0  0  1  0  0  0  0  0  0  0  0  0
   10.4570  -20.3107   20.6135 C   0  0  0  0  0  0  0  0  0  0  0  0
    9.6874  -21.3673   19.9137 C   0  0  0  0  0  0  0  0  0  0  0  0
    8.4408  -21.3378   19.9639 O   0  0  0  0  0  0  0  0  0  0  0  0
   10.2405  -18.1478   21.7986 C   0  0  0  0  0  0  0  0  0  0  0  0
   11.2599  -18.1361   22.5223 O   0  0  0  0  0  0  0  0  0  0  0  0
   10.2912  -22.4019   19.1957 O   0  0  0  0  0  0  0  0  0  0  0  0
    7.8213  -12.5039   18.1899 N   0  0  0  0  0  0  0  0  0  0  0  0
    8.0064  -13.8088   17.5935 C   0  0  0  0  0  0  0  0  0  0  0  0
    8.3847  -13.8867   16.4018 N   0  0  0  0  0  0  0  0  0  0  0  0
    7.7502  -14.9698   18.3720 N   0  0  0  0  0  0  0  0  0  0  0  0
    7.3773  -15.0301   19.7339 C   0  0  0  0  0  0  0  0  0  0  0  0
    8.2000  -14.2759   20.7066 C   0  0  0  0  0  0  0  0  0  0  0  0
    9.6972  -14.5828   20.4958 C   0  0  0  0  0  0  0  0  0  0  0  0
   10.1682  -15.6148   21.5104 C   0  0  2  0  0  0  0  0  0  0  0  0
    9.7235  -16.9464   21.2815 N   0  0  0  0  0  0  0  0  0  0  0  0
    9.9929  -15.0968   22.8688 C   0  0  0  0  0  0  0  0  0  0  0  0
   10.4379  -13.9533   23.2026 O   0  0  0  0  0  0  0  0  0  0  0  0
    8.5304  -14.5792   15.7027 C   0  0  0  0  0  0  0  0  0  0  0  0
    6.3260  -11.6876   28.2519 S   0  0  0  0  0  0  0  0  0  0  0  0
    6.4464  -12.5333   26.6623 C   0  0  0  0  0  0  0  0  0  0  0  0
    7.7449  -13.8070   26.7041 C   0  0  0  0  0  0  0  0  0  0  0  0
    7.9629  -14.3834   25.3488 C   0  0  1  0  0  0  0  0  0  0  0  0
    9.1703  -15.2530   25.2598 N   0  0  0  0  0  0  0  0  0  0  0  0
    9.3279  -15.8032   23.9104 C   0  0  0  0  0  0  0  0  0  0  0  0
    9.0569  -16.3944   26.1849 O   0  0  0  0  0  0  0  0  0  0  0  0
    9.0182  -16.3115   27.5685 O   0  0  0  0  0  0  0  0  0  0  0  0
  2  1  1  6
  2  3  1  0
  3  4  1  0
  4  5  2  0
  4  8  1  0
  6  2  1  0
  7  6  2  0
  9 10  1  0
 10 12  1  0
 11 10  2  0
 12 13  1  0
 13 14  1  0
 14 15  1  0
 16 15  1  6
 16 17  1  0
 17  6  1  0
 18 19  2  0
 18 16  1  0
 21 20  1  0
 22 21  1  0
 23 22  1  0
 24 23  1  6
 24 25  1  0
 25 18  1  0
 26 27  1  0
 26 24  1  0
 28 26  2  0
M  END
$$$$
