IFS.pdb
     RDKit          3D

 26 26  0  0  1  0  0  0  0  0999 V2000
    7.1508  -12.5541   18.6314 C   0  0  0  0  0  0  0  0  0  0  0  0
    7.4877  -13.9407   19.1099 C   0  0  0  0  0  0  0  0  0  0  0  0
    8.0577  -13.9154   20.4953 C   0  0  2  0  0  0  0  0  0  0  0  0
    9.3291  -13.0646   20.5020 C   0  0  0  0  0  0  0  0  0  0  0  0
    8.3591  -15.2747   21.0746 C   0  0  2  0  0  0  0  0  0  0  0  0
    7.1010  -16.0598   21.0049 N   0  0  0  0  0  0  0  0  0  0  0  0
    8.7719  -15.3250   22.4649 C   0  0  0  0  0  0  0  0  0  0  0  0
    9.9110  -14.9195   22.8023 O   0  0  0  0  0  0  0  0  0  0  0  0
    7.9256  -15.8167   23.4818 N   0  0  0  0  0  0  0  0  0  0  0  0
    8.2263  -15.9461   24.8688 C   0  0  1  0  0  0  0  0  0  0  0  0
    7.1033  -15.5955   25.8305 C   0  0  0  0  0  0  0  0  0  0  0  0
    6.9702  -14.1332   26.0629 C   0  0  0  0  0  0  0  0  0  0  0  0
    8.0927  -13.3033   25.8909 C   0  0  0  0  0  0  0  0  0  0  0  0
    8.0357  -11.9480   26.1083 C   0  0  0  0  0  0  0  0  0  0  0  0
    6.8757  -11.3283   26.5067 C   0  0  0  0  0  0  0  0  0  0  0  0
    5.7655  -12.1184   26.6818 C   0  0  0  0  0  0  0  0  0  0  0  0
    5.8199  -13.5021   26.4611 C   0  0  0  0  0  0  0  0  0  0  0  0
    8.8082  -17.2542   25.2479 C   0  0  0  0  0  0  0  0  0  0  0  0
    8.0924  -18.2864   25.2948 O   0  0  0  0  0  0  0  0  0  0  0  0
   12.9294  -17.9151   25.1974 O   0  0  0  0  0  0  0  0  0  0  0  0
   12.0118  -18.9410   24.9950 C   0  0  0  0  0  0  0  0  0  0  0  0
   10.7869  -18.7039   25.8509 C   0  0  2  0  0  0  0  0  0  0  0  0
   10.1898  -17.4115   25.5749 N   0  0  0  0  0  0  0  0  0  0  0  0
   11.1045  -18.7918   27.2955 C   0  0  0  0  0  0  0  0  0  0  0  0
   10.8785  -17.8164   28.0658 O   0  0  0  0  0  0  0  0  0  0  0  0
   11.6543  -19.9407   27.8329 O   0  0  0  0  0  0  0  0  0  0  0  0
  2  1  1  0
  3  2  1  0
  3  4  1  6
  5  3  1  0
  5  6  1  1
  7  9  1  0
  7  5  1  0
  8  7  2  0
 10 11  1  1
 10  9  1  0
 12 17  2  0
 12 11  1  0
 13 12  1  0
 14 15  1  0
 14 13  2  0
 15 16  2  0
 16 17  1  0
 18 10  1  0
 18 19  2  0
 20 21  1  0
 22 21  1  6
 22 24  1  0
 22 23  1  0
 23 18  1  0
 24 26  1  0
 25 24  2  0
M  END
$$$$
