IFS.pdb
     RDKit          3D

 26 26  0  0  1  0  0  0  0  0999 V2000
    7.7679  -11.8355   20.2368 C   0  0  0  0  0  0  0  0  0  0  0  0
    7.7802  -13.1172   21.0257 C   0  0  0  0  0  0  0  0  0  0  0  0
    8.5265  -14.1957   20.3013 C   0  0  2  0  0  0  0  0  0  0  0  0
    7.9127  -14.3885   18.9133 C   0  0  0  0  0  0  0  0  0  0  0  0
    8.5697  -15.5205   21.0205 C   0  0  2  0  0  0  0  0  0  0  0  0
    7.1812  -16.0459   21.0365 N   0  0  0  0  0  0  0  0  0  0  0  0
    8.9960  -15.5070   22.4075 C   0  0  0  0  0  0  0  0  0  0  0  0
   10.1651  -15.1617   22.7073 O   0  0  0  0  0  0  0  0  0  0  0  0
    8.1306  -15.8685   23.4622 N   0  0  0  0  0  0  0  0  0  0  0  0
    8.4311  -15.8982   24.8550 C   0  0  1  0  0  0  0  0  0  0  0  0
    7.2971  -15.5143   25.7907 C   0  0  0  0  0  0  0  0  0  0  0  0
    7.2116  -14.0500   26.0328 C   0  0  0  0  0  0  0  0  0  0  0  0
    5.9968  -13.3822   25.7946 C   0  0  0  0  0  0  0  0  0  0  0  0
    5.8619  -12.0280   25.9829 C   0  0  0  0  0  0  0  0  0  0  0  0
    6.9094  -11.2508   26.4151 C   0  0  0  0  0  0  0  0  0  0  0  0
    8.1067  -11.8806   26.6543 C   0  0  0  0  0  0  0  0  0  0  0  0
    8.2483  -13.2625   26.4630 C   0  0  0  0  0  0  0  0  0  0  0  0
    9.0459  -17.1629   25.3200 C   0  0  0  0  0  0  0  0  0  0  0  0
    8.3806  -18.2290   25.3462 O   0  0  0  0  0  0  0  0  0  0  0  0
   12.5186  -18.3578   24.3529 O   0  0  0  0  0  0  0  0  0  0  0  0
   12.4556  -18.5749   25.7255 C   0  0  0  0  0  0  0  0  0  0  0  0
   11.0190  -18.4783   26.1902 C   0  0  2  0  0  0  0  0  0  0  0  0
   10.4040  -17.2387   25.7563 N   0  0  0  0  0  0  0  0  0  0  0  0
   10.9135  -18.5808   27.6645 C   0  0  0  0  0  0  0  0  0  0  0  0
   10.3842  -17.6530   28.3391 O   0  0  0  0  0  0  0  0  0  0  0  0
   11.3908  -19.6915   28.3350 O   0  0  0  0  0  0  0  0  0  0  0  0
  2  1  1  0
  3  2  1  0
  3  4  1  6
  5  3  1  0
  5  6  1  1
  7  9  1  0
  7  5  1  0
  8  7  2  0
 10 11  1  1
 10  9  1  0
 12 17  2  0
 12 11  1  0
 13 12  1  0
 14 15  1  0
 14 13  2  0
 15 16  2  0
 16 17  1  0
 18 10  1  0
 18 19  2  0
 20 21  1  0
 22 21  1  1
 22 24  1  0
 22 23  1  0
 23 18  1  0
 24 26  1  0
 25 24  2  0
M  END
$$$$
