IFS.pdb
     RDKit          3D

 26 26  0  0  1  0  0  0  0  0999 V2000
    6.6611  -23.5120   22.8631 C   0  0  0  0  0  0  0  0  0  0  0  0
    5.6851  -22.3843   23.0649 C   0  0  0  0  0  0  0  0  0  0  0  0
    6.3848  -21.0603   23.1144 C   0  0  2  0  0  0  0  0  0  0  0  0
    7.4501  -21.0939   24.2118 C   0  0  0  0  0  0  0  0  0  0  0  0
    5.4750  -19.8776   23.3326 C   0  0  2  0  0  0  0  0  0  0  0  0
    4.6006  -19.7821   22.1366 N   0  0  0  0  0  0  0  0  0  0  0  0
    6.1019  -18.5751   23.4607 C   0  0  0  0  0  0  0  0  0  0  0  0
    6.5679  -17.9945   22.4500 O   0  0  0  0  0  0  0  0  0  0  0  0
    6.2084  -17.9124   24.7023 N   0  0  0  0  0  0  0  0  0  0  0  0
    6.8516  -16.6681   24.9651 C   0  0  1  0  0  0  0  0  0  0  0  0
    6.2622  -15.8374   26.0927 C   0  0  0  0  0  0  0  0  0  0  0  0
    6.9246  -14.5159   26.2508 C   0  0  0  0  0  0  0  0  0  0  0  0
    6.3825  -13.3916   25.6023 C   0  0  0  0  0  0  0  0  0  0  0  0
    6.9601  -12.1486   25.6963 C   0  0  0  0  0  0  0  0  0  0  0  0
    8.1018  -11.9362   26.4309 C   0  0  0  0  0  0  0  0  0  0  0  0
    8.6504  -13.0196   27.0734 C   0  0  0  0  0  0  0  0  0  0  0  0
    8.0638  -14.2898   26.9796 C   0  0  0  0  0  0  0  0  0  0  0  0
    8.3191  -16.7646   25.1403 C   0  0  0  0  0  0  0  0  0  0  0  0
    8.8106  -17.4223   26.0920 O   0  0  0  0  0  0  0  0  0  0  0  0
   10.6704  -15.1438   22.2498 O   0  0  0  0  0  0  0  0  0  0  0  0
   11.2561  -16.2430   22.8695 C   0  0  0  0  0  0  0  0  0  0  0  0
   10.6578  -16.4291   24.2466 C   0  0  2  0  0  0  0  0  0  0  0  0
    9.2395  -16.1268   24.2533 N   0  0  0  0  0  0  0  0  0  0  0  0
   11.3375  -15.5843   25.2563 C   0  0  0  0  0  0  0  0  0  0  0  0
   10.6877  -14.7355   25.9297 O   0  0  0  0  0  0  0  0  0  0  0  0
   12.6955  -15.7048   25.4848 O   0  0  0  0  0  0  0  0  0  0  0  0
  2  1  1  0
  3  2  1  0
  3  4  1  1
  5  3  1  0
  5  6  1  6
  7  9  1  0
  7  5  1  0
  8  7  2  0
 10 11  1  1
 10  9  1  0
 12 17  2  0
 12 11  1  0
 13 12  1  0
 14 15  1  0
 14 13  2  0
 15 16  2  0
 16 17  1  0
 18 10  1  0
 18 19  2  0
 20 21  1  0
 22 21  1  6
 22 24  1  0
 22 23  1  0
 23 18  1  0
 24 26  1  0
 25 24  2  0
M  END
$$$$
