IFS.pdb
     RDKit          3D

 26 26  0  0  1  0  0  0  0  0999 V2000
    7.2011  -12.0886   19.1056 C   0  0  0  0  0  0  0  0  0  0  0  0
    7.4573  -13.5143   19.5140 C   0  0  0  0  0  0  0  0  0  0  0  0
    8.0784  -13.5880   20.8754 C   0  0  2  0  0  0  0  0  0  0  0  0
    9.3966  -12.8117   20.8709 C   0  0  0  0  0  0  0  0  0  0  0  0
    8.3212  -14.9885   21.3794 C   0  0  2  0  0  0  0  0  0  0  0  0
    7.0188  -15.6985   21.3187 N   0  0  0  0  0  0  0  0  0  0  0  0
    8.7769  -15.1290   22.7499 C   0  0  0  0  0  0  0  0  0  0  0  0
    9.9102  -14.7071   23.0869 O   0  0  0  0  0  0  0  0  0  0  0  0
    7.9796  -15.7291   23.7481 N   0  0  0  0  0  0  0  0  0  0  0  0
    8.3286  -15.9586   25.1106 C   0  0  1  0  0  0  0  0  0  0  0  0
    7.2513  -15.6491   26.1365 C   0  0  0  0  0  0  0  0  0  0  0  0
    7.0549  -14.1917   26.3541 C   0  0  0  0  0  0  0  0  0  0  0  0
    8.1239  -13.4176   26.8404 C   0  0  0  0  0  0  0  0  0  0  0  0
    7.9976  -12.0704   27.0782 C   0  0  0  0  0  0  0  0  0  0  0  0
    6.8167  -11.4047   26.8532 C   0  0  0  0  0  0  0  0  0  0  0  0
    5.7576  -12.1397   26.3783 C   0  0  0  0  0  0  0  0  0  0  0  0
    5.8828  -13.5150   26.1347 C   0  0  0  0  0  0  0  0  0  0  0  0
    8.8918  -17.3019   25.3786 C   0  0  0  0  0  0  0  0  0  0  0  0
    8.4208  -18.0254   26.2922 O   0  0  0  0  0  0  0  0  0  0  0  0
   12.0244  -18.7916   23.0682 O   0  0  0  0  0  0  0  0  0  0  0  0
   11.1753  -19.7344   23.6386 C   0  0  0  0  0  0  0  0  0  0  0  0
   10.5339  -19.1555   24.8806 C   0  0  2  0  0  0  0  0  0  0  0  0
    9.9815  -17.8389   24.6271 N   0  0  0  0  0  0  0  0  0  0  0  0
   11.4972  -19.0684   26.0030 C   0  0  0  0  0  0  0  0  0  0  0  0
   11.8311  -17.9474   26.4805 O   0  0  0  0  0  0  0  0  0  0  0  0
   12.0520  -20.2090   26.5527 O   0  0  0  0  0  0  0  0  0  0  0  0
  2  1  1  0
  3  2  1  0
  3  4  1  6
  5  3  1  0
  5  6  1  1
  7  9  1  0
  7  5  1  0
  8  7  2  0
 10 11  1  1
 10  9  1  0
 12 17  2  0
 12 11  1  0
 13 12  1  0
 14 15  1  0
 14 13  2  0
 15 16  2  0
 16 17  1  0
 18 10  1  0
 18 19  2  0
 20 21  1  0
 22 21  1  6
 22 24  1  0
 22 23  1  0
 23 18  1  0
 24 26  1  0
 25 24  2  0
M  END
$$$$
