IFS.pdb
     RDKit          3D

 26 26  0  0  1  0  0  0  0  0999 V2000
    7.9198  -11.6182   19.8725 C   0  0  0  0  0  0  0  0  0  0  0  0
    7.8911  -12.9237   20.6209 C   0  0  0  0  0  0  0  0  0  0  0  0
    8.5964  -14.0041   19.8591 C   0  0  2  0  0  0  0  0  0  0  0  0
    7.8227  -14.3016   18.5733 C   0  0  0  0  0  0  0  0  0  0  0  0
    8.8017  -15.2838   20.6300 C   0  0  2  0  0  0  0  0  0  0  0  0
    7.4534  -15.8442   20.8987 N   0  0  0  0  0  0  0  0  0  0  0  0
    9.4446  -15.1793   21.9268 C   0  0  0  0  0  0  0  0  0  0  0  0
   10.6456  -14.8244   22.0114 O   0  0  0  0  0  0  0  0  0  0  0  0
    8.7600  -15.4607   23.1286 N   0  0  0  0  0  0  0  0  0  0  0  0
    9.3007  -15.4789   24.4471 C   0  0  1  0  0  0  0  0  0  0  0  0
    8.3741  -15.0064   25.5548 C   0  0  0  0  0  0  0  0  0  0  0  0
    9.0631  -14.8464   26.8624 C   0  0  0  0  0  0  0  0  0  0  0  0
    9.1887  -15.9578   27.7154 C   0  0  0  0  0  0  0  0  0  0  0  0
    9.7989  -15.8674   28.9430 C   0  0  0  0  0  0  0  0  0  0  0  0
   10.3207  -14.6832   29.4050 C   0  0  0  0  0  0  0  0  0  0  0  0
   10.2098  -13.5831   28.5896 C   0  0  0  0  0  0  0  0  0  0  0  0
    9.5875  -13.6714   27.3361 C   0  0  0  0  0  0  0  0  0  0  0  0
    9.9159  -16.7685   24.8369 C   0  0  0  0  0  0  0  0  0  0  0  0
    9.2033  -17.7817   25.0502 O   0  0  0  0  0  0  0  0  0  0  0  0
   13.4030  -17.7346   23.4631 O   0  0  0  0  0  0  0  0  0  0  0  0
   12.6741  -18.7538   24.0673 C   0  0  0  0  0  0  0  0  0  0  0  0
   11.9437  -18.2094   25.2753 C   0  0  2  0  0  0  0  0  0  0  0  0
   11.3272  -16.9284   24.9889 N   0  0  0  0  0  0  0  0  0  0  0  0
   12.8480  -18.0618   26.4397 C   0  0  0  0  0  0  0  0  0  0  0  0
   13.0283  -16.9327   26.9770 O   0  0  0  0  0  0  0  0  0  0  0  0
   13.5141  -19.1537   26.9643 O   0  0  0  0  0  0  0  0  0  0  0  0
  2  1  1  0
  3  2  1  0
  3  4  1  6
  5  3  1  0
  5  6  1  1
  7  9  1  0
  7  5  1  0
  8  7  2  0
 10 11  1  1
 10  9  1  0
 12 17  2  0
 12 11  1  0
 13 12  1  0
 14 15  1  0
 14 13  2  0
 15 16  2  0
 16 17  1  0
 18 10  1  0
 18 19  2  0
 20 21  1  0
 22 21  1  6
 22 24  1  0
 22 23  1  0
 23 18  1  0
 24 26  1  0
 25 24  2  0
M  END
$$$$
