IFS.pdb
     RDKit          3D

 26 26  0  0  1  0  0  0  0  0999 V2000
   11.1337  -20.7527   19.8845 C   0  0  0  0  0  0  0  0  0  0  0  0
   10.5406  -19.3948   19.6212 C   0  0  0  0  0  0  0  0  0  0  0  0
   10.5726  -18.5386   20.8504 C   0  0  2  0  0  0  0  0  0  0  0  0
    9.8505  -19.2628   21.9881 C   0  0  0  0  0  0  0  0  0  0  0  0
    9.9793  -17.1636   20.6728 C   0  0  2  0  0  0  0  0  0  0  0  0
   10.8173  -16.4607   19.6689 N   0  0  0  0  0  0  0  0  0  0  0  0
    9.9578  -16.2967   21.8364 C   0  0  0  0  0  0  0  0  0  0  0  0
   11.0231  -15.7965   22.2732 O   0  0  0  0  0  0  0  0  0  0  0  0
    8.7607  -15.9780   22.5128 N   0  0  0  0  0  0  0  0  0  0  0  0
    8.6113  -15.1428   23.6578 C   0  0  1  0  0  0  0  0  0  0  0  0
    7.3304  -14.3284   23.7271 C   0  0  0  0  0  0  0  0  0  0  0  0
    7.2039  -13.5468   24.9854 C   0  0  0  0  0  0  0  0  0  0  0  0
    6.3484  -14.0102   26.0012 C   0  0  0  0  0  0  0  0  0  0  0  0
    6.1767  -13.3222   27.1779 C   0  0  0  0  0  0  0  0  0  0  0  0
    6.8332  -12.1409   27.4266 C   0  0  0  0  0  0  0  0  0  0  0  0
    7.6743  -11.6677   26.4488 C   0  0  0  0  0  0  0  0  0  0  0  0
    7.8520  -12.3670   25.2464 C   0  0  0  0  0  0  0  0  0  0  0  0
    8.8251  -15.8343   24.9500 C   0  0  0  0  0  0  0  0  0  0  0  0
    8.0431  -16.7422   25.3298 O   0  0  0  0  0  0  0  0  0  0  0  0
   12.5557  -16.1261   26.4655 O   0  0  0  0  0  0  0  0  0  0  0  0
   11.5592  -17.0383   26.7972 C   0  0  0  0  0  0  0  0  0  0  0  0
   10.2456  -16.3110   26.9835 C   0  0  2  0  0  0  0  0  0  0  0  0
    9.9120  -15.5132   25.8195 N   0  0  0  0  0  0  0  0  0  0  0  0
   10.2703  -15.4362   28.1791 C   0  0  0  0  0  0  0  0  0  0  0  0
   10.0404  -14.1981   28.0770 O   0  0  0  0  0  0  0  0  0  0  0  0
   10.5449  -15.9530   29.4315 O   0  0  0  0  0  0  0  0  0  0  0  0
  2  1  1  0
  3  2  1  0
  3  4  1  1
  5  3  1  0
  5  6  1  6
  7  9  1  0
  7  5  1  0
  8  7  2  0
 10 11  1  1
 10  9  1  0
 12 17  2  0
 12 11  1  0
 13 12  1  0
 14 15  1  0
 14 13  2  0
 15 16  2  0
 16 17  1  0
 18 10  1  0
 18 19  2  0
 20 21  1  0
 22 21  1  6
 22 24  1  0
 22 23  1  0
 23 18  1  0
 24 26  1  0
 25 24  2  0
M  END
$$$$
