IFS.pdb
     RDKit          3D

 26 26  0  0  1  0  0  0  0  0999 V2000
    9.4907  -20.5768   18.8627 C   0  0  0  0  0  0  0  0  0  0  0  0
    9.2746  -19.0920   18.7449 C   0  0  0  0  0  0  0  0  0  0  0  0
    9.4423  -18.4103   20.0685 C   0  0  2  0  0  0  0  0  0  0  0  0
    8.5019  -19.0533   21.0895 C   0  0  0  0  0  0  0  0  0  0  0  0
    9.2113  -16.9203   20.0406 C   0  0  2  0  0  0  0  0  0  0  0  0
   10.2450  -16.3422   19.1453 N   0  0  0  0  0  0  0  0  0  0  0  0
    9.3424  -16.2065   21.2972 C   0  0  0  0  0  0  0  0  0  0  0  0
   10.4698  -16.0667   21.8314 O   0  0  0  0  0  0  0  0  0  0  0  0
    8.2309  -15.6430   21.9598 N   0  0  0  0  0  0  0  0  0  0  0  0
    8.2257  -14.9589   23.2100 C   0  0  1  0  0  0  0  0  0  0  0  0
    7.0970  -13.9639   23.4215 C   0  0  0  0  0  0  0  0  0  0  0  0
    7.0918  -13.3693   24.7841 C   0  0  0  0  0  0  0  0  0  0  0  0
    7.9163  -12.2626   25.0559 C   0  0  0  0  0  0  0  0  0  0  0  0
    7.9678  -11.6818   26.2998 C   0  0  0  0  0  0  0  0  0  0  0  0
    7.2146  -12.1520   27.3485 C   0  0  0  0  0  0  0  0  0  0  0  0
    6.4013  -13.2328   27.1075 C   0  0  0  0  0  0  0  0  0  0  0  0
    6.3463  -13.8284   25.8392 C   0  0  0  0  0  0  0  0  0  0  0  0
    8.3274  -15.8460   24.3917 C   0  0  0  0  0  0  0  0  0  0  0  0
    7.4124  -16.6647   24.6609 O   0  0  0  0  0  0  0  0  0  0  0  0
   11.7006  -17.4104   25.1481 O   0  0  0  0  0  0  0  0  0  0  0  0
   10.5596  -17.9552   25.7284 C   0  0  0  0  0  0  0  0  0  0  0  0
    9.6862  -16.8456   26.2717 C   0  0  2  0  0  0  0  0  0  0  0  0
    9.4506  -15.8201   25.2739 N   0  0  0  0  0  0  0  0  0  0  0  0
   10.2822  -16.2213   27.4761 C   0  0  0  0  0  0  0  0  0  0  0  0
   10.4635  -14.9723   27.5321 O   0  0  0  0  0  0  0  0  0  0  0  0
   10.6528  -16.9892   28.5642 O   0  0  0  0  0  0  0  0  0  0  0  0
  2  1  1  0
  3  2  1  0
  3  4  1  1
  5  3  1  0
  5  6  1  6
  7  9  1  0
  7  5  1  0
  8  7  2  0
 10 11  1  1
 10  9  1  0
 12 17  2  0
 12 11  1  0
 13 12  1  0
 14 15  1  0
 14 13  2  0
 15 16  2  0
 16 17  1  0
 18 10  1  0
 18 19  2  0
 20 21  1  0
 22 21  1  6
 22 24  1  0
 22 23  1  0
 23 18  1  0
 24 26  1  0
 25 24  2  0
M  END
$$$$
