IFS.pdb
     RDKit          3D

 26 26  0  0  1  0  0  0  0  0999 V2000
    7.8688  -12.0207   19.2534 C   0  0  0  0  0  0  0  0  0  0  0  0
    7.8535  -13.2813   20.0755 C   0  0  0  0  0  0  0  0  0  0  0  0
    8.8040  -14.3012   19.5266 C   0  0  2  0  0  0  0  0  0  0  0  0
    8.3660  -14.6892   18.1131 C   0  0  0  0  0  0  0  0  0  0  0  0
    8.9451  -15.5444   20.3685 C   0  0  2  0  0  0  0  0  0  0  0  0
    7.6675  -16.2912   20.2488 N   0  0  0  0  0  0  0  0  0  0  0  0
    9.1550  -15.3593   21.7924 C   0  0  0  0  0  0  0  0  0  0  0  0
   10.2701  -14.9766   22.2236 O   0  0  0  0  0  0  0  0  0  0  0  0
    8.1330  -15.5907   22.7380 N   0  0  0  0  0  0  0  0  0  0  0  0
    8.2005  -15.3962   24.1481 C   0  0  1  0  0  0  0  0  0  0  0  0
    6.9083  -14.9721   24.8258 C   0  0  0  0  0  0  0  0  0  0  0  0
    7.1266  -14.0547   25.9751 C   0  0  0  0  0  0  0  0  0  0  0  0
    6.5564  -12.7693   25.9484 C   0  0  0  0  0  0  0  0  0  0  0  0
    6.7380  -11.8713   26.9722 C   0  0  0  0  0  0  0  0  0  0  0  0
    7.4886  -12.1815   28.0806 C   0  0  0  0  0  0  0  0  0  0  0  0
    8.0564  -13.4316   28.1294 C   0  0  0  0  0  0  0  0  0  0  0  0
    7.8734  -14.3506   27.0862 C   0  0  0  0  0  0  0  0  0  0  0  0
    8.7977  -16.5287   24.8927 C   0  0  0  0  0  0  0  0  0  0  0  0
    8.2187  -17.6434   24.9395 O   0  0  0  0  0  0  0  0  0  0  0  0
   12.8063  -16.6888   25.5909 O   0  0  0  0  0  0  0  0  0  0  0  0
   12.0320  -17.8445   25.6003 C   0  0  0  0  0  0  0  0  0  0  0  0
   10.6857  -17.5496   26.2245 C   0  0  2  0  0  0  0  0  0  0  0  0
   10.0420  -16.4180   25.5856 N   0  0  0  0  0  0  0  0  0  0  0  0
   10.8037  -17.2825   27.6772 C   0  0  0  0  0  0  0  0  0  0  0  0
   10.4024  -16.1891   28.1664 O   0  0  0  0  0  0  0  0  0  0  0  0
   11.3545  -18.2215   28.5292 O   0  0  0  0  0  0  0  0  0  0  0  0
  2  1  1  0
  3  2  1  0
  3  4  1  6
  5  3  1  0
  5  6  1  1
  7  9  1  0
  7  5  1  0
  8  7  2  0
 10 11  1  1
 10  9  1  0
 12 17  2  0
 12 11  1  0
 13 12  1  0
 14 15  1  0
 14 13  2  0
 15 16  2  0
 16 17  1  0
 18 10  1  0
 18 19  2  0
 20 21  1  0
 22 21  1  6
 22 24  1  0
 22 23  1  0
 23 18  1  0
 24 26  1  0
 25 24  2  0
M  END
$$$$
