IFS.pdb
     RDKit          3D

 26 26  0  0  1  0  0  0  0  0999 V2000
    8.2319  -12.3101   18.5287 C   0  0  0  0  0  0  0  0  0  0  0  0
    7.4297  -13.1159   19.5147 C   0  0  0  0  0  0  0  0  0  0  0  0
    8.3063  -14.0386   20.3054 C   0  0  2  0  0  0  0  0  0  0  0  0
    9.0587  -14.9637   19.3471 C   0  0  0  0  0  0  0  0  0  0  0  0
    7.5789  -14.8656   21.3356 C   0  0  2  0  0  0  0  0  0  0  0  0
    6.1771  -14.3776   21.3661 N   0  0  0  0  0  0  0  0  0  0  0  0
    8.0500  -14.7804   22.7055 C   0  0  0  0  0  0  0  0  0  0  0  0
    8.4268  -13.6803   23.1783 O   0  0  0  0  0  0  0  0  0  0  0  0
    8.0991  -15.9075   23.5536 N   0  0  0  0  0  0  0  0  0  0  0  0
    8.6318  -15.9728   24.8739 C   0  0  1  0  0  0  0  0  0  0  0  0
    7.6476  -15.7205   26.0037 C   0  0  0  0  0  0  0  0  0  0  0  0
    7.3336  -14.2797   26.1923 C   0  0  0  0  0  0  0  0  0  0  0  0
    8.3296  -13.4160   26.6828 C   0  0  0  0  0  0  0  0  0  0  0  0
    8.0936  -12.0793   26.8947 C   0  0  0  0  0  0  0  0  0  0  0  0
    6.8684  -11.5124   26.6382 C   0  0  0  0  0  0  0  0  0  0  0  0
    5.8791  -12.3362   26.1586 C   0  0  0  0  0  0  0  0  0  0  0  0
    6.1162  -13.7011   25.9413 C   0  0  0  0  0  0  0  0  0  0  0  0
    9.4045  -17.2035   25.1602 C   0  0  0  0  0  0  0  0  0  0  0  0
    8.8936  -18.3384   24.9841 O   0  0  0  0  0  0  0  0  0  0  0  0
   13.7345  -19.2738   25.8124 O   0  0  0  0  0  0  0  0  0  0  0  0
   13.0131  -18.0989   25.6262 C   0  0  0  0  0  0  0  0  0  0  0  0
   11.5400  -18.3670   25.8431 C   0  0  2  0  0  0  0  0  0  0  0  0
   10.7483  -17.1685   25.6434 N   0  0  0  0  0  0  0  0  0  0  0  0
   11.2758  -18.9011   27.1997 C   0  0  0  0  0  0  0  0  0  0  0  0
   10.6139  -18.2287   28.0398 O   0  0  0  0  0  0  0  0  0  0  0  0
   11.7464  -20.1450   27.5771 O   0  0  0  0  0  0  0  0  0  0  0  0
  2  1  1  0
  3  2  1  0
  3  4  1  6
  5  3  1  0
  5  6  1  1
  7  9  1  0
  7  5  1  0
  8  7  2  0
 10 11  1  1
 10  9  1  0
 12 17  2  0
 12 11  1  0
 13 12  1  0
 14 15  1  0
 14 13  2  0
 15 16  2  0
 16 17  1  0
 18 10  1  0
 18 19  2  0
 20 21  1  0
 22 21  1  1
 22 24  1  0
 22 23  1  0
 23 18  1  0
 24 26  1  0
 25 24  2  0
M  END
$$$$
