IFS.pdb
     RDKit          3D

 26 26  0  0  1  0  0  0  0  0999 V2000
    7.8549  -15.9687   17.1420 C   0  0  0  0  0  0  0  0  0  0  0  0
    7.5397  -14.8616   18.1116 C   0  0  0  0  0  0  0  0  0  0  0  0
    8.1319  -15.1339   19.4607 C   0  0  2  0  0  0  0  0  0  0  0  0
    7.7345  -16.5408   19.9111 C   0  0  0  0  0  0  0  0  0  0  0  0
    7.7494  -14.1378   20.5264 C   0  0  2  0  0  0  0  0  0  0  0  0
    8.2287  -12.8105   20.0654 N   0  0  0  0  0  0  0  0  0  0  0  0
    8.3279  -14.3237   21.8442 C   0  0  0  0  0  0  0  0  0  0  0  0
    9.5047  -13.9540   22.0771 O   0  0  0  0  0  0  0  0  0  0  0  0
    7.6055  -14.9114   22.9048 N   0  0  0  0  0  0  0  0  0  0  0  0
    8.0829  -15.2113   24.2137 C   0  0  1  0  0  0  0  0  0  0  0  0
    7.0795  -15.0497   25.3433 C   0  0  0  0  0  0  0  0  0  0  0  0
    6.8956  -13.6350   25.7616 C   0  0  0  0  0  0  0  0  0  0  0  0
    7.9950  -12.9174   26.2661 C   0  0  0  0  0  0  0  0  0  0  0  0
    7.8826  -11.6138   26.6851 C   0  0  0  0  0  0  0  0  0  0  0  0
    6.6867  -10.9390   26.6338 C   0  0  0  0  0  0  0  0  0  0  0  0
    5.5979  -11.6194   26.1450 C   0  0  0  0  0  0  0  0  0  0  0  0
    5.7087  -12.9500   25.7166 C   0  0  0  0  0  0  0  0  0  0  0  0
    8.7504  -16.5280   24.3332 C   0  0  0  0  0  0  0  0  0  0  0  0
    8.0913  -17.5937   24.2340 O   0  0  0  0  0  0  0  0  0  0  0  0
   12.9014  -16.8816   24.0578 O   0  0  0  0  0  0  0  0  0  0  0  0
   12.0543  -17.9129   23.6653 C   0  0  0  0  0  0  0  0  0  0  0  0
   10.8344  -17.9372   24.5600 C   0  0  2  0  0  0  0  0  0  0  0  0
   10.1543  -16.6565   24.5636 N   0  0  0  0  0  0  0  0  0  0  0  0
   11.1852  -18.3028   25.9524 C   0  0  0  0  0  0  0  0  0  0  0  0
   11.8295  -19.3613   26.1982 O   0  0  0  0  0  0  0  0  0  0  0  0
   10.8167  -17.4959   27.0126 O   0  0  0  0  0  0  0  0  0  0  0  0
  2  1  1  0
  3  2  1  0
  3  4  1  1
  5  3  1  0
  5  6  1  6
  7  9  1  0
  7  5  1  0
  8  7  2  0
 10 11  1  1
 10  9  1  0
 12 17  2  0
 12 11  1  0
 13 12  1  0
 14 15  1  0
 14 13  2  0
 15 16  2  0
 16 17  1  0
 18 10  1  0
 18 19  2  0
 20 21  1  0
 22 21  1  6
 22 24  1  0
 22 23  1  0
 23 18  1  0
 24 26  1  0
 25 24  2  0
M  END
$$$$
