IFS.pdb
     RDKit          3D

 26 26  0  0  1  0  0  0  0  0999 V2000
    7.2528  -16.6866   17.2851 C   0  0  0  0  0  0  0  0  0  0  0  0
    6.9486  -15.4689   18.1156 C   0  0  0  0  0  0  0  0  0  0  0  0
    7.7847  -15.4343   19.3584 C   0  0  2  0  0  0  0  0  0  0  0  0
    7.5918  -16.7398   20.1323 C   0  0  0  0  0  0  0  0  0  0  0  0
    7.5076  -14.2644   20.2688 C   0  0  2  0  0  0  0  0  0  0  0  0
    7.8448  -13.0368   19.5050 N   0  0  0  0  0  0  0  0  0  0  0  0
    8.2787  -14.1830   21.4954 C   0  0  0  0  0  0  0  0  0  0  0  0
    9.5092  -13.9385   21.4548 O   0  0  0  0  0  0  0  0  0  0  0  0
    7.6902  -14.3656   22.7653 N   0  0  0  0  0  0  0  0  0  0  0  0
    8.3594  -14.5042   24.0158 C   0  0  1  0  0  0  0  0  0  0  0  0
    7.5344  -14.1901   25.2526 C   0  0  0  0  0  0  0  0  0  0  0  0
    8.3003  -14.3405   26.5178 C   0  0  0  0  0  0  0  0  0  0  0  0
    8.9041  -13.2094   27.0961 C   0  0  0  0  0  0  0  0  0  0  0  0
    9.6391  -13.2891   28.2542 C   0  0  0  0  0  0  0  0  0  0  0  0
    9.8244  -14.4814   28.9117 C   0  0  0  0  0  0  0  0  0  0  0  0
    9.2443  -15.6007   28.3657 C   0  0  0  0  0  0  0  0  0  0  0  0
    8.4937  -15.5233   27.1838 C   0  0  0  0  0  0  0  0  0  0  0  0
    9.0465  -15.8033   24.1998 C   0  0  0  0  0  0  0  0  0  0  0  0
    8.3966  -16.8792   24.2017 O   0  0  0  0  0  0  0  0  0  0  0  0
   12.9848  -18.3851   23.4691 O   0  0  0  0  0  0  0  0  0  0  0  0
   12.2866  -17.1856   23.3753 C   0  0  0  0  0  0  0  0  0  0  0  0
   11.1614  -17.1719   24.3867 C   0  0  2  0  0  0  0  0  0  0  0  0
   10.4599  -15.9027   24.3817 N   0  0  0  0  0  0  0  0  0  0  0  0
   11.6546  -17.4469   25.7566 C   0  0  0  0  0  0  0  0  0  0  0  0
   11.4940  -16.6015   26.6815 O   0  0  0  0  0  0  0  0  0  0  0  0
   12.3007  -18.6323   26.0539 O   0  0  0  0  0  0  0  0  0  0  0  0
  2  1  1  0
  3  2  1  0
  3  4  1  1
  5  3  1  0
  5  6  1  6
  7  9  1  0
  7  5  1  0
  8  7  2  0
 10 11  1  1
 10  9  1  0
 12 17  2  0
 12 11  1  0
 13 12  1  0
 14 15  1  0
 14 13  2  0
 15 16  2  0
 16 17  1  0
 18 10  1  0
 18 19  2  0
 20 21  1  0
 22 21  1  6
 22 24  1  0
 22 23  1  0
 23 18  1  0
 24 26  1  0
 25 24  2  0
M  END
$$$$
