IFS.pdb
     RDKit          3D

 26 26  0  0  1  0  0  0  0  0999 V2000
    7.2449  -12.1996   19.0167 C   0  0  0  0  0  0  0  0  0  0  0  0
    7.4489  -13.6281   19.4441 C   0  0  0  0  0  0  0  0  0  0  0  0
    8.0214  -13.7068   20.8265 C   0  0  2  0  0  0  0  0  0  0  0  0
    9.3628  -12.9719   20.8593 C   0  0  0  0  0  0  0  0  0  0  0  0
    8.2031  -15.1087   21.3516 C   0  0  2  0  0  0  0  0  0  0  0  0
    6.8776  -15.7725   21.2710 N   0  0  0  0  0  0  0  0  0  0  0  0
    8.6244  -15.2487   22.7332 C   0  0  0  0  0  0  0  0  0  0  0  0
    9.7607  -14.8538   23.0918 O   0  0  0  0  0  0  0  0  0  0  0  0
    7.7895  -15.8184   23.7183 N   0  0  0  0  0  0  0  0  0  0  0  0
    8.0785  -15.9870   25.1036 C   0  0  1  0  0  0  0  0  0  0  0  0
    6.9860  -15.5607   26.0698 C   0  0  0  0  0  0  0  0  0  0  0  0
    6.9695  -14.0956   26.3214 C   0  0  0  0  0  0  0  0  0  0  0  0
    5.7864  -13.3705   26.0914 C   0  0  0  0  0  0  0  0  0  0  0  0
    5.7153  -12.0127   26.2886 C   0  0  0  0  0  0  0  0  0  0  0  0
    6.7992  -11.2878   26.7221 C   0  0  0  0  0  0  0  0  0  0  0  0
    7.9666  -11.9742   26.9533 C   0  0  0  0  0  0  0  0  0  0  0  0
    8.0430  -13.3600   26.7530 C   0  0  0  0  0  0  0  0  0  0  0  0
    8.5559  -17.3411   25.4672 C   0  0  0  0  0  0  0  0  0  0  0  0
    7.7531  -18.3049   25.5489 O   0  0  0  0  0  0  0  0  0  0  0  0
   12.6199  -18.1434   25.6408 O   0  0  0  0  0  0  0  0  0  0  0  0
   11.7613  -19.1966   25.3427 C   0  0  0  0  0  0  0  0  0  0  0  0
   10.4195  -18.9606   26.0006 C   0  0  2  0  0  0  0  0  0  0  0  0
    9.9299  -17.6207   25.7399 N   0  0  0  0  0  0  0  0  0  0  0  0
   10.4837  -19.1760   27.4652 C   0  0  0  0  0  0  0  0  0  0  0  0
   10.1610  -18.2547   28.2671 O   0  0  0  0  0  0  0  0  0  0  0  0
   10.8973  -20.3874   27.9872 O   0  0  0  0  0  0  0  0  0  0  0  0
  2  1  1  0
  3  2  1  0
  3  4  1  6
  5  3  1  0
  5  6  1  1
  7  9  1  0
  7  5  1  0
  8  7  2  0
 10 11  1  1
 10  9  1  0
 12 17  2  0
 12 11  1  0
 13 12  1  0
 14 15  1  0
 14 13  2  0
 15 16  2  0
 16 17  1  0
 18 10  1  0
 18 19  2  0
 20 21  1  0
 22 21  1  1
 22 24  1  0
 22 23  1  0
 23 18  1  0
 24 26  1  0
 25 24  2  0
M  END
$$$$
