PDK.pdb
     RDKit          3D

 25 25  0  0  1  0  0  0  0  0999 V2000
   20.9536  -13.6265  -19.3252 N   0  0  0  0  0  0  0  0  0  0  0  0
   21.9101  -12.6836  -19.7847 C   0  0  0  0  0  0  0  0  0  0  0  0
   22.7427  -12.3133  -18.5529 C   0  0  0  0  0  0  0  0  0  0  0  0
   22.5615  -13.5092  -17.6557 C   0  0  0  0  0  0  0  0  0  0  0  0
   21.1482  -13.9456  -17.9618 C   0  0  1  0  0  0  0  0  0  0  0  0
   20.2567  -13.2381  -17.0086 C   0  0  0  0  0  0  0  0  0  0  0  0
   20.4628  -13.5075  -15.7801 O   0  0  0  0  0  0  0  0  0  0  0  0
   19.2399  -12.3261  -17.3677 N   0  0  0  0  0  0  0  0  0  0  0  0
   18.4485  -11.6341  -16.3802 C   0  0  1  0  0  0  0  0  0  0  0  0
   18.5286  -10.1529  -16.4843 C   0  0  0  0  0  0  0  0  0  0  0  0
   19.6697   -9.6080  -15.7141 C   0  0  0  0  0  0  0  0  0  0  0  0
   20.7538   -9.3140  -16.2727 O   0  0  0  0  0  0  0  0  0  0  0  0
   17.0891  -12.1880  -16.3892 C   0  0  0  0  0  0  0  0  0  0  0  0
   16.5186  -12.3119  -17.5004 O   0  0  0  0  0  0  0  0  0  0  0  0
   19.6071   -9.3924  -14.3404 O   0  0  0  0  0  0  0  0  0  0  0  0
   16.3728  -12.5916  -15.2514 N   0  0  0  0  0  0  0  0  0  0  0  0
   14.9961  -13.1607  -15.3247 C   0  0  1  0  0  0  0  0  0  0  0  0
   14.8909  -14.3460  -14.4557 C   0  0  0  0  0  0  0  0  0  0  0  0
   13.5832  -15.0215  -14.3816 C   0  0  0  0  0  0  0  0  0  0  0  0
   13.4011  -16.2512  -13.6051 C   0  0  0  0  0  0  0  0  0  0  0  0
   12.1605  -17.0303  -13.5960 C   0  0  0  0  0  0  0  0  0  0  0  0
   12.1487  -18.2483  -12.8456 N   0  0  0  0  0  0  0  0  0  0  0  0
   14.0590  -12.0618  -14.9298 C   0  0  0  0  0  0  0  0  0  0  0  0
   12.8996  -12.0314  -15.3248 O   0  0  0  0  0  0  0  0  0  0  0  0
   14.5140  -11.0568  -14.0988 O   0  0  0  0  0  0  0  0  0  0  0  0
  1  2  1  0
  3  2  1  0
  4  3  1  0
  5  6  1  1
  5  4  1  0
  5  1  1  0
  6  7  2  0
  8  9  1  0
  8  6  1  0
  9 13  1  0
 10 11  1  0
  9 10  1  6
 11 15  1  0
 12 11  2  0
 13 14  2  0
 13 16  1  0
 16 17  1  0
 17 23  1  0
 17 18  1  1
 19 18  1  0
 20 19  1  0
 21 20  1  0
 22 21  1  0
 23 24  2  0
 23 25  1  0
M  END
$$$$
