PDK.pdb
     RDKit          3D

 25 25  0  0  1  0  0  0  0  0999 V2000
   23.8563  -16.1871  -19.5095 N   0  0  0  0  0  0  0  0  0  0  0  0
   25.1122  -15.7008  -19.9583 C   0  0  0  0  0  0  0  0  0  0  0  0
   25.9123  -16.9448  -20.3584 C   0  0  0  0  0  0  0  0  0  0  0  0
   24.8346  -17.9550  -20.6515 C   0  0  0  0  0  0  0  0  0  0  0  0
   23.7551  -17.5892  -19.6604 C   0  0  1  0  0  0  0  0  0  0  0  0
   24.0052  -18.3818  -18.4303 C   0  0  0  0  0  0  0  0  0  0  0  0
   23.7964  -19.6336  -18.5467 O   0  0  0  0  0  0  0  0  0  0  0  0
   24.4404  -17.8533  -17.1950 N   0  0  0  0  0  0  0  0  0  0  0  0
   24.6183  -18.6818  -16.0279 C   0  0  1  0  0  0  0  0  0  0  0  0
   25.8693  -18.3929  -15.2777 C   0  0  0  0  0  0  0  0  0  0  0  0
   27.0732  -18.6008  -16.1142 C   0  0  0  0  0  0  0  0  0  0  0  0
   26.9863  -19.0385  -17.2866 O   0  0  0  0  0  0  0  0  0  0  0  0
   23.3880  -18.6447  -15.2281 C   0  0  0  0  0  0  0  0  0  0  0  0
   23.4072  -19.2040  -14.1046 O   0  0  0  0  0  0  0  0  0  0  0  0
   28.3577  -18.3259  -15.6538 O   0  0  0  0  0  0  0  0  0  0  0  0
   22.1872  -18.0319  -15.6197 N   0  0  0  0  0  0  0  0  0  0  0  0
   20.9709  -18.0160  -14.7565 C   0  0  1  0  0  0  0  0  0  0  0  0
   20.0945  -16.8940  -15.1368 C   0  0  0  0  0  0  0  0  0  0  0  0
   18.8074  -16.7664  -14.4306 C   0  0  0  0  0  0  0  0  0  0  0  0
   17.8450  -15.7175  -14.7794 C   0  0  0  0  0  0  0  0  0  0  0  0
   16.5396  -15.5644  -14.1321 C   0  0  0  0  0  0  0  0  0  0  0  0
   15.6675  -14.5466  -14.6323 N   0  0  0  0  0  0  0  0  0  0  0  0
   20.3144  -19.3516  -14.9202 C   0  0  0  0  0  0  0  0  0  0  0  0
   20.2402  -19.9030  -16.0118 O   0  0  0  0  0  0  0  0  0  0  0  0
   19.7789  -19.9775  -13.8116 O   0  0  0  0  0  0  0  0  0  0  0  0
  1  2  1  0
  3  2  1  0
  4  3  1  0
  5  6  1  1
  5  4  1  0
  5  1  1  0
  6  7  2  0
  8  9  1  0
  8  6  1  0
  9 13  1  0
 10 11  1  0
  9 10  1  1
 11 15  1  0
 12 11  2  0
 13 14  2  0
 13 16  1  0
 16 17  1  0
 17 23  1  0
 17 18  1  6
 19 18  1  0
 20 19  1  0
 21 20  1  0
 22 21  1  0
 23 24  2  0
 23 25  1  0
M  END
$$$$
