PDK.pdb
     RDKit          3D

 25 25  0  0  1  0  0  0  0  0999 V2000
   18.9351  -11.8659  -17.6999 N   0  0  0  0  0  0  0  0  0  0  0  0
   19.9874  -12.8074  -17.5538 C   0  0  0  0  0  0  0  0  0  0  0  0
   20.1542  -13.0020  -16.0433 C   0  0  0  0  0  0  0  0  0  0  0  0
   18.8043  -12.6076  -15.5047 C   0  0  0  0  0  0  0  0  0  0  0  0
   18.3737  -11.5124  -16.4516 C   0  0  1  0  0  0  0  0  0  0  0  0
   18.8508  -10.2282  -15.8794 C   0  0  0  0  0  0  0  0  0  0  0  0
   18.3826   -9.9469  -14.7279 O   0  0  0  0  0  0  0  0  0  0  0  0
   19.7514   -9.3407  -16.5085 N   0  0  0  0  0  0  0  0  0  0  0  0
   20.1601   -8.1016  -15.8938 C   0  0  1  0  0  0  0  0  0  0  0  0
   21.5910   -7.7671  -16.1224 C   0  0  0  0  0  0  0  0  0  0  0  0
   22.4948   -8.7114  -15.4268 C   0  0  0  0  0  0  0  0  0  0  0  0
   23.7230   -8.7462  -15.6796 O   0  0  0  0  0  0  0  0  0  0  0  0
   19.2060   -7.0502  -16.2666 C   0  0  0  0  0  0  0  0  0  0  0  0
   18.8042   -7.0240  -17.4555 O   0  0  0  0  0  0  0  0  0  0  0  0
   22.0395   -9.6058  -14.4623 O   0  0  0  0  0  0  0  0  0  0  0  0
   18.7048   -6.0680  -15.3978 N   0  0  0  0  0  0  0  0  0  0  0  0
   17.6563   -5.0890  -15.8062 C   0  0  1  0  0  0  0  0  0  0  0  0
   16.3193   -5.6951  -15.6765 C   0  0  0  0  0  0  0  0  0  0  0  0
   15.1550   -4.8484  -15.9914 C   0  0  0  0  0  0  0  0  0  0  0  0
   13.7860   -5.3603  -15.8827 C   0  0  0  0  0  0  0  0  0  0  0  0
   12.5942   -4.5641  -16.1860 C   0  0  0  0  0  0  0  0  0  0  0  0
   11.3202   -5.2014  -16.0527 N   0  0  0  0  0  0  0  0  0  0  0  0
   17.8376   -3.8830  -14.9376 C   0  0  0  0  0  0  0  0  0  0  0  0
   18.4399   -3.9416  -13.8723 O   0  0  0  0  0  0  0  0  0  0  0  0
   17.3121   -2.6737  -15.3488 O   0  0  0  0  0  0  0  0  0  0  0  0
  1  2  1  0
  3  2  1  0
  4  3  1  0
  5  6  1  1
  5  4  1  0
  5  1  1  0
  6  7  2  0
  8  9  1  0
  8  6  1  0
  9 13  1  0
 10 11  1  0
  9 10  1  6
 11 15  1  0
 12 11  2  0
 13 14  2  0
 13 16  1  0
 16 17  1  0
 17 23  1  0
 17 18  1  1
 19 18  1  0
 20 19  1  0
 21 20  1  0
 22 21  1  0
 23 24  2  0
 23 25  1  0
M  END
$$$$
