PDK.pdb
     RDKit          3D

 25 25  0  0  1  0  0  0  0  0999 V2000
   17.5764   -9.4378  -15.1848 N   0  0  0  0  0  0  0  0  0  0  0  0
   18.4340  -10.4648  -15.6592 C   0  0  0  0  0  0  0  0  0  0  0  0
   19.3008  -10.8596  -14.4591 C   0  0  0  0  0  0  0  0  0  0  0  0
   18.4573  -10.4382  -13.2849 C   0  0  0  0  0  0  0  0  0  0  0  0
   17.7570   -9.2040  -13.8023 C   0  0  1  0  0  0  0  0  0  0  0  0
   18.6130   -8.0404  -13.4597 C   0  0  0  0  0  0  0  0  0  0  0  0
   18.7409   -7.8174  -12.2114 O   0  0  0  0  0  0  0  0  0  0  0  0
   19.2633   -7.2043  -14.3938 N   0  0  0  0  0  0  0  0  0  0  0  0
   20.1075   -6.1093  -13.9833 C   0  0  1  0  0  0  0  0  0  0  0  0
   21.5575   -6.3642  -14.1929 C   0  0  0  0  0  0  0  0  0  0  0  0
   22.3922   -5.2618  -13.6635 C   0  0  0  0  0  0  0  0  0  0  0  0
   22.2572   -4.8473  -12.4872 O   0  0  0  0  0  0  0  0  0  0  0  0
   19.5989   -4.8688  -14.5811 C   0  0  0  0  0  0  0  0  0  0  0  0
   20.4129   -3.9287  -14.7518 O   0  0  0  0  0  0  0  0  0  0  0  0
   23.3649   -4.6281  -14.4313 O   0  0  0  0  0  0  0  0  0  0  0  0
   18.2708   -4.6481  -14.9788 N   0  0  0  0  0  0  0  0  0  0  0  0
   17.8356   -3.4082  -15.6845 C   0  0  1  0  0  0  0  0  0  0  0  0
   16.9811   -3.7533  -16.8344 C   0  0  0  0  0  0  0  0  0  0  0  0
   17.5204   -4.7056  -17.8213 C   0  0  0  0  0  0  0  0  0  0  0  0
   16.6767   -5.7419  -18.4235 C   0  0  0  0  0  0  0  0  0  0  0  0
   17.1726   -6.7459  -19.3682 C   0  0  0  0  0  0  0  0  0  0  0  0
   16.2485   -7.7369  -19.8272 N   0  0  0  0  0  0  0  0  0  0  0  0
   17.1332   -2.5631  -14.6676 C   0  0  0  0  0  0  0  0  0  0  0  0
   16.7205   -1.4415  -14.9370 O   0  0  0  0  0  0  0  0  0  0  0  0
   16.9461   -3.0617  -13.3932 O   0  0  0  0  0  0  0  0  0  0  0  0
  1  2  1  0
  3  2  1  0
  4  3  1  0
  5  6  1  6
  5  4  1  0
  5  1  1  0
  6  7  2  0
  8  9  1  0
  8  6  1  0
  9 13  1  0
 10 11  1  0
  9 10  1  6
 11 15  1  0
 12 11  2  0
 13 14  2  0
 13 16  1  0
 16 17  1  0
 17 23  1  0
 17 18  1  6
 19 18  1  0
 20 19  1  0
 21 20  1  0
 22 21  1  0
 23 24  2  0
 23 25  1  0
M  END
$$$$
