PDK.pdb
     RDKit          3D

 25 25  0  0  1  0  0  0  0  0999 V2000
   13.3947  -22.3538   -0.6271 N   0  0  0  0  0  0  0  0  0  0  0  0
   12.7416  -21.0977   -0.5236 C   0  0  0  0  0  0  0  0  0  0  0  0
   13.6191  -20.2570    0.4095 C   0  0  0  0  0  0  0  0  0  0  0  0
   14.9707  -20.9067    0.2722 C   0  0  0  0  0  0  0  0  0  0  0  0
   14.6227  -22.3631    0.0733 C   0  0  1  0  0  0  0  0  0  0  0  0
   14.5841  -22.9903    1.4183 C   0  0  0  0  0  0  0  0  0  0  0  0
   13.8597  -24.0354    1.5025 O   0  0  0  0  0  0  0  0  0  0  0  0
   15.2715  -22.5173    2.5578 N   0  0  0  0  0  0  0  0  0  0  0  0
   15.7027  -23.4008    3.6132 C   0  0  1  0  0  0  0  0  0  0  0  0
   16.4114  -24.6127    3.1229 C   0  0  0  0  0  0  0  0  0  0  0  0
   16.5682  -25.6277    4.1894 C   0  0  0  0  0  0  0  0  0  0  0  0
   15.8390  -25.6207    5.2100 O   0  0  0  0  0  0  0  0  0  0  0  0
   16.4289  -22.6174    4.6200 C   0  0  0  0  0  0  0  0  0  0  0  0
   17.5797  -22.2130    4.3237 O   0  0  0  0  0  0  0  0  0  0  0  0
   17.5234  -26.6380    4.1226 O   0  0  0  0  0  0  0  0  0  0  0  0
   15.9386  -22.2827    5.8921 N   0  0  0  0  0  0  0  0  0  0  0  0
   16.7157  -21.4626    6.8659 C   0  0  1  0  0  0  0  0  0  0  0  0
   15.8883  -20.3501    7.3652 C   0  0  0  0  0  0  0  0  0  0  0  0
   15.9093  -19.0903    6.6009 C   0  0  0  0  0  0  0  0  0  0  0  0
   15.0435  -17.9636    6.9606 C   0  0  0  0  0  0  0  0  0  0  0  0
   14.9179  -16.7460    6.1556 C   0  0  0  0  0  0  0  0  0  0  0  0
   13.9250  -15.7930    6.5466 N   0  0  0  0  0  0  0  0  0  0  0  0
   17.1577  -22.3946    7.9511 C   0  0  0  0  0  0  0  0  0  0  0  0
   16.8531  -23.5813    7.9441 O   0  0  0  0  0  0  0  0  0  0  0  0
   17.9285  -21.9031    8.9864 O   0  0  0  0  0  0  0  0  0  0  0  0
  1  2  1  0
  3  2  1  0
  4  3  1  0
  5  6  1  1
  5  4  1  0
  5  1  1  0
  6  7  2  0
  8  9  1  0
  8  6  1  0
  9 13  1  0
 10 11  1  0
  9 10  1  6
 11 15  1  0
 12 11  2  0
 13 14  2  0
 13 16  1  0
 16 17  1  0
 17 23  1  0
 17 18  1  1
 19 18  1  0
 20 19  1  0
 21 20  1  0
 22 21  1  0
 23 24  2  0
 23 25  1  0
M  END
$$$$
