PDK.pdb
     RDKit          3D

 25 25  0  0  1  0  0  0  0  0999 V2000
   28.5973  -19.8629  -18.1271 N   0  0  0  0  0  0  0  0  0  0  0  0
   29.5833  -20.8205  -18.4819 C   0  0  0  0  0  0  0  0  0  0  0  0
   28.8887  -21.7809  -19.4530 C   0  0  0  0  0  0  0  0  0  0  0  0
   27.7662  -20.9429  -20.0058 C   0  0  0  0  0  0  0  0  0  0  0  0
   27.3890  -20.0724  -18.8304 C   0  0  1  0  0  0  0  0  0  0  0  0
   26.3301  -20.7905  -18.0775 C   0  0  0  0  0  0  0  0  0  0  0  0
   25.2178  -20.9017  -18.6896 O   0  0  0  0  0  0  0  0  0  0  0  0
   26.4768  -21.3321  -16.7814 N   0  0  0  0  0  0  0  0  0  0  0  0
   25.4431  -22.1238  -16.1610 C   0  0  1  0  0  0  0  0  0  0  0  0
   25.9667  -23.2099  -15.2906 C   0  0  0  0  0  0  0  0  0  0  0  0
   24.8845  -24.0967  -14.8059 C   0  0  0  0  0  0  0  0  0  0  0  0
   23.6838  -23.8818  -15.0985 O   0  0  0  0  0  0  0  0  0  0  0  0
   24.4756  -21.2236  -15.5223 C   0  0  0  0  0  0  0  0  0  0  0  0
   24.9187  -20.3730  -14.7125 O   0  0  0  0  0  0  0  0  0  0  0  0
   25.1334  -25.2083  -14.0061 O   0  0  0  0  0  0  0  0  0  0  0  0
   23.0895  -21.2370  -15.7445 N   0  0  0  0  0  0  0  0  0  0  0  0
   22.1591  -20.2683  -15.0960 C   0  0  1  0  0  0  0  0  0  0  0  0
   20.9426  -20.1100  -15.9125 C   0  0  0  0  0  0  0  0  0  0  0  0
   19.8894  -19.2169  -15.3981 C   0  0  0  0  0  0  0  0  0  0  0  0
   18.6573  -18.9736  -16.1538 C   0  0  0  0  0  0  0  0  0  0  0  0
   17.6741  -17.9479  -15.7966 C   0  0  0  0  0  0  0  0  0  0  0  0
   16.4296  -17.9489  -16.5023 N   0  0  0  0  0  0  0  0  0  0  0  0
   21.8775  -20.8002  -13.7251 C   0  0  0  0  0  0  0  0  0  0  0  0
   21.7005  -20.0546  -12.7691 O   0  0  0  0  0  0  0  0  0  0  0  0
   21.8157  -22.1667  -13.5341 O   0  0  0  0  0  0  0  0  0  0  0  0
  1  2  1  0
  3  2  1  0
  4  3  1  0
  5  6  1  1
  5  4  1  0
  5  1  1  0
  6  7  2  0
  8  9  1  0
  8  6  1  0
  9 13  1  0
 10 11  1  0
  9 10  1  1
 11 15  1  0
 12 11  2  0
 13 14  2  0
 13 16  1  0
 16 17  1  0
 17 23  1  0
 17 18  1  6
 19 18  1  0
 20 19  1  0
 21 20  1  0
 22 21  1  0
 23 24  2  0
 23 25  1  0
M  END
$$$$
