PDK.pdb
     RDKit          3D

 25 25  0  0  1  0  0  0  0  0999 V2000
   27.0937  -19.4103  -16.7897 N   0  0  0  0  0  0  0  0  0  0  0  0
   27.1728  -18.0012  -16.6372 C   0  0  0  0  0  0  0  0  0  0  0  0
   28.0608  -17.7727  -15.4096 C   0  0  0  0  0  0  0  0  0  0  0  0
   28.8695  -19.0412  -15.3416 C   0  0  0  0  0  0  0  0  0  0  0  0
   27.8982  -20.0840  -15.8423 C   0  0  1  0  0  0  0  0  0  0  0  0
   27.1779  -20.6142  -14.6574 C   0  0  0  0  0  0  0  0  0  0  0  0
   27.9198  -21.1693  -13.7823 O   0  0  0  0  0  0  0  0  0  0  0  0
   25.7823  -20.5431  -14.4532 N   0  0  0  0  0  0  0  0  0  0  0  0
   25.1640  -20.9888  -13.2287 C   0  0  1  0  0  0  0  0  0  0  0  0
   25.8184  -20.4578  -12.0035 C   0  0  0  0  0  0  0  0  0  0  0  0
   25.1746  -20.9667  -10.7711 C   0  0  0  0  0  0  0  0  0  0  0  0
   23.9709  -20.7239  -10.5149 O   0  0  0  0  0  0  0  0  0  0  0  0
   23.7175  -20.7545  -13.3154 C   0  0  0  0  0  0  0  0  0  0  0  0
   23.3280  -19.5715  -13.4714 O   0  0  0  0  0  0  0  0  0  0  0  0
   25.8599  -21.7359   -9.8350 O   0  0  0  0  0  0  0  0  0  0  0  0
   22.7309  -21.7502  -13.2377 N   0  0  0  0  0  0  0  0  0  0  0  0
   21.2947  -21.4882  -13.5432 C   0  0  1  0  0  0  0  0  0  0  0  0
   20.5137  -22.7306  -13.4101 C   0  0  0  0  0  0  0  0  0  0  0  0
   19.0628  -22.6519  -13.6560 C   0  0  0  0  0  0  0  0  0  0  0  0
   18.2073  -23.8388  -13.5688 C   0  0  0  0  0  0  0  0  0  0  0  0
   16.7555  -23.8101  -13.7629 C   0  0  0  0  0  0  0  0  0  0  0  0
   16.0440  -25.0434  -13.6231 N   0  0  0  0  0  0  0  0  0  0  0  0
   20.8477  -20.4135  -12.6014 C   0  0  0  0  0  0  0  0  0  0  0  0
   21.2356  -20.3731  -11.4399 O   0  0  0  0  0  0  0  0  0  0  0  0
   19.9756  -19.4431  -13.0545 O   0  0  0  0  0  0  0  0  0  0  0  0
  1  2  1  0
  3  2  1  0
  4  3  1  0
  5  6  1  1
  5  4  1  0
  5  1  1  0
  6  7  2  0
  8  9  1  0
  8  6  1  0
  9 13  1  0
 10 11  1  0
  9 10  1  1
 11 15  1  0
 12 11  2  0
 13 14  2  0
 13 16  1  0
 16 17  1  0
 17 23  1  0
 17 18  1  1
 19 18  1  0
 20 19  1  0
 21 20  1  0
 22 21  1  0
 23 24  2  0
 23 25  1  0
M  END
$$$$
