PDK.pdb
     RDKit          3D

 25 25  0  0  1  0  0  0  0  0999 V2000
   22.1393  -10.2375  -18.5404 N   0  0  0  0  0  0  0  0  0  0  0  0
   22.6362  -11.3290  -17.7809 C   0  0  0  0  0  0  0  0  0  0  0  0
   21.4801  -11.7512  -16.8683 C   0  0  0  0  0  0  0  0  0  0  0  0
   20.2692  -11.2483  -17.6089 C   0  0  0  0  0  0  0  0  0  0  0  0
   20.7771   -9.9835  -18.2600 C   0  0  1  0  0  0  0  0  0  0  0  0
   20.5187   -8.8705  -17.3122 C   0  0  0  0  0  0  0  0  0  0  0  0
   19.2876   -8.5951  -17.1306 O   0  0  0  0  0  0  0  0  0  0  0  0
   21.5122   -8.1326  -16.6318 N   0  0  0  0  0  0  0  0  0  0  0  0
   21.1842   -7.0438  -15.7446 C   0  0  1  0  0  0  0  0  0  0  0  0
   22.1924   -6.8238  -14.6738 C   0  0  0  0  0  0  0  0  0  0  0  0
   21.7473   -5.8005  -13.7007 C   0  0  0  0  0  0  0  0  0  0  0  0
   20.5318   -5.6320  -13.4401 O   0  0  0  0  0  0  0  0  0  0  0  0
   20.8584   -5.8593  -16.5482 C   0  0  0  0  0  0  0  0  0  0  0  0
   21.6899   -5.4986  -17.4165 O   0  0  0  0  0  0  0  0  0  0  0  0
   22.6416   -4.9748  -13.0255 O   0  0  0  0  0  0  0  0  0  0  0  0
   19.6878   -5.0946  -16.4235 N   0  0  0  0  0  0  0  0  0  0  0  0
   19.3641   -3.9606  -17.3367 C   0  0  1  0  0  0  0  0  0  0  0  0
   17.9572   -4.0427  -17.7674 C   0  0  0  0  0  0  0  0  0  0  0  0
   17.4478   -2.9674  -18.6366 C   0  0  0  0  0  0  0  0  0  0  0  0
   16.0604   -2.9591  -19.1090 C   0  0  0  0  0  0  0  0  0  0  0  0
   15.5087   -1.9283  -19.9920 C   0  0  0  0  0  0  0  0  0  0  0  0
   14.1420   -2.0620  -20.3932 N   0  0  0  0  0  0  0  0  0  0  0  0
   19.6717   -2.7045  -16.5823 C   0  0  0  0  0  0  0  0  0  0  0  0
   19.9068   -1.6489  -17.1582 O   0  0  0  0  0  0  0  0  0  0  0  0
   19.6906   -2.7374  -15.2017 O   0  0  0  0  0  0  0  0  0  0  0  0
  1  2  1  0
  3  2  1  0
  4  3  1  0
  5  6  1  1
  5  4  1  0
  5  1  1  0
  6  7  2  0
  8  9  1  0
  8  6  1  0
  9 13  1  0
 10 11  1  0
  9 10  1  1
 11 15  1  0
 12 11  2  0
 13 14  2  0
 13 16  1  0
 16 17  1  0
 17 23  1  0
 17 18  1  1
 19 18  1  0
 20 19  1  0
 21 20  1  0
 22 21  1  0
 23 24  2  0
 23 25  1  0
M  END
$$$$
