PDK.pdb
     RDKit          3D

 25 25  0  0  1  0  0  0  0  0999 V2000
   21.3018  -10.6927  -18.3386 N   0  0  0  0  0  0  0  0  0  0  0  0
   22.5044  -11.3626  -17.9919 C   0  0  0  0  0  0  0  0  0  0  0  0
   22.2521  -11.9626  -16.6048 C   0  0  0  0  0  0  0  0  0  0  0  0
   20.7512  -12.0754  -16.5577 C   0  0  0  0  0  0  0  0  0  0  0  0
   20.3006  -10.8758  -17.3574 C   0  0  1  0  0  0  0  0  0  0  0  0
   20.1324   -9.7522  -16.4018 C   0  0  0  0  0  0  0  0  0  0  0  0
   19.1669   -9.8860  -15.5807 O   0  0  0  0  0  0  0  0  0  0  0  0
   20.9426   -8.5965  -16.3524 N   0  0  0  0  0  0  0  0  0  0  0  0
   20.7174   -7.5441  -15.3922 C   0  0  1  0  0  0  0  0  0  0  0  0
   21.9595   -6.8377  -14.9807 C   0  0  0  0  0  0  0  0  0  0  0  0
   21.7066   -5.8707  -13.8883 C   0  0  0  0  0  0  0  0  0  0  0  0
   20.7389   -6.0114  -13.1026 O   0  0  0  0  0  0  0  0  0  0  0  0
   19.6396   -6.6771  -15.8833 C   0  0  0  0  0  0  0  0  0  0  0  0
   19.7413   -6.2267  -17.0506 O   0  0  0  0  0  0  0  0  0  0  0  0
   22.5188   -4.7613  -13.6716 O   0  0  0  0  0  0  0  0  0  0  0  0
   18.5001   -6.3093  -15.1505 N   0  0  0  0  0  0  0  0  0  0  0  0
   17.4372   -5.4211  -15.7036 C   0  0  1  0  0  0  0  0  0  0  0  0
   16.1069   -5.9947  -15.4344 C   0  0  0  0  0  0  0  0  0  0  0  0
   14.9306   -5.1802  -15.7874 C   0  0  0  0  0  0  0  0  0  0  0  0
   13.5681   -5.6481  -15.5177 C   0  0  0  0  0  0  0  0  0  0  0  0
   12.3662   -4.8642  -15.8131 C   0  0  0  0  0  0  0  0  0  0  0  0
   11.0978   -5.4744  -15.5571 N   0  0  0  0  0  0  0  0  0  0  0  0
   17.6329   -4.0778  -15.0719 C   0  0  0  0  0  0  0  0  0  0  0  0
   17.9523   -3.9602  -13.8950 O   0  0  0  0  0  0  0  0  0  0  0  0
   17.4484   -2.9424  -15.8365 O   0  0  0  0  0  0  0  0  0  0  0  0
  1  2  1  0
  3  2  1  0
  4  3  1  0
  5  6  1  1
  5  4  1  0
  5  1  1  0
  6  7  2  0
  8  9  1  0
  8  6  1  0
  9 13  1  0
 10 11  1  0
  9 10  1  6
 11 15  1  0
 12 11  2  0
 13 14  2  0
 13 16  1  0
 16 17  1  0
 17 23  1  0
 17 18  1  1
 19 18  1  0
 20 19  1  0
 21 20  1  0
 22 21  1  0
 23 24  2  0
 23 25  1  0
M  END
$$$$
