PDK.pdb
     RDKit          3D

 25 25  0  0  1  0  0  0  0  0999 V2000
   23.6465  -10.5108  -16.9091 N   0  0  0  0  0  0  0  0  0  0  0  0
   24.9517  -10.6912  -16.3809 C   0  0  0  0  0  0  0  0  0  0  0  0
   24.7569  -10.9081  -14.8767 C   0  0  0  0  0  0  0  0  0  0  0  0
   23.3406  -11.4129  -14.7927 C   0  0  0  0  0  0  0  0  0  0  0  0
   22.6542  -10.6706  -15.9150 C   0  0  1  0  0  0  0  0  0  0  0  0
   22.1185   -9.4104  -15.3413 C   0  0  0  0  0  0  0  0  0  0  0  0
   21.1654   -9.5622  -14.5089 O   0  0  0  0  0  0  0  0  0  0  0  0
   22.5821   -8.1128  -15.6508 N   0  0  0  0  0  0  0  0  0  0  0  0
   21.9797   -6.9299  -15.0868 C   0  0  1  0  0  0  0  0  0  0  0  0
   22.9527   -5.8393  -14.8121 C   0  0  0  0  0  0  0  0  0  0  0  0
   22.3322   -4.7245  -14.0608 C   0  0  0  0  0  0  0  0  0  0  0  0
   21.5437   -4.9376  -13.1087 O   0  0  0  0  0  0  0  0  0  0  0  0
   20.8276   -6.5456  -15.9112 C   0  0  0  0  0  0  0  0  0  0  0  0
   21.0029   -6.4567  -17.1509 O   0  0  0  0  0  0  0  0  0  0  0  0
   22.5846   -3.3896  -14.3636 O   0  0  0  0  0  0  0  0  0  0  0  0
   19.5408   -6.2684  -15.4234 N   0  0  0  0  0  0  0  0  0  0  0  0
   18.4294   -5.7990  -16.3005 C   0  0  1  0  0  0  0  0  0  0  0  0
   17.3811   -6.8311  -16.3861 C   0  0  0  0  0  0  0  0  0  0  0  0
   16.1683   -6.5066  -17.1578 C   0  0  0  0  0  0  0  0  0  0  0  0
   15.1056   -7.4950  -17.3627 C   0  0  0  0  0  0  0  0  0  0  0  0
   13.8969   -7.2374  -18.1494 C   0  0  0  0  0  0  0  0  0  0  0  0
   12.9079   -8.2698  -18.2015 N   0  0  0  0  0  0  0  0  0  0  0  0
   17.9367   -4.5131  -15.7128 C   0  0  0  0  0  0  0  0  0  0  0  0
   18.1228   -4.2304  -14.5353 O   0  0  0  0  0  0  0  0  0  0  0  0
   17.2548   -3.6233  -16.5196 O   0  0  0  0  0  0  0  0  0  0  0  0
  1  2  1  0
  3  2  1  0
  4  3  1  0
  5  6  1  1
  5  4  1  0
  5  1  1  0
  6  7  2  0
  8  9  1  0
  8  6  1  0
  9 13  1  0
 10 11  1  0
  9 10  1  6
 11 15  1  0
 12 11  2  0
 13 14  2  0
 13 16  1  0
 16 17  1  0
 17 23  1  0
 17 18  1  1
 19 18  1  0
 20 19  1  0
 21 20  1  0
 22 21  1  0
 23 24  2  0
 23 25  1  0
M  END
$$$$
