PDK.pdb
     RDKit          3D

 25 25  0  0  1  0  0  0  0  0999 V2000
   27.3054  -19.4721  -15.2594 N   0  0  0  0  0  0  0  0  0  0  0  0
   28.5266  -19.2348  -14.5758 C   0  0  0  0  0  0  0  0  0  0  0  0
   29.1316  -20.6205  -14.3278 C   0  0  0  0  0  0  0  0  0  0  0  0
   28.4937  -21.4605  -15.4027 C   0  0  0  0  0  0  0  0  0  0  0  0
   27.1203  -20.8461  -15.5360 C   0  0  1  0  0  0  0  0  0  0  0  0
   26.2254  -21.5697  -14.5982 C   0  0  0  0  0  0  0  0  0  0  0  0
   25.8083  -22.6985  -15.0177 O   0  0  0  0  0  0  0  0  0  0  0  0
   25.8274  -21.1010  -13.3268 N   0  0  0  0  0  0  0  0  0  0  0  0
   24.9417  -21.8565  -12.4752 C   0  0  1  0  0  0  0  0  0  0  0  0
   25.3841  -21.9128  -11.0566 C   0  0  0  0  0  0  0  0  0  0  0  0
   25.4804  -20.5628  -10.4561 C   0  0  0  0  0  0  0  0  0  0  0  0
   25.3482  -19.5275  -11.1520 O   0  0  0  0  0  0  0  0  0  0  0  0
   23.5676  -21.3839  -12.6823 C   0  0  0  0  0  0  0  0  0  0  0  0
   22.6590  -21.9201  -12.0021 O   0  0  0  0  0  0  0  0  0  0  0  0
   25.7206  -20.3656   -9.0993 O   0  0  0  0  0  0  0  0  0  0  0  0
   23.1858  -20.3770  -13.5830 N   0  0  0  0  0  0  0  0  0  0  0  0
   21.7710  -19.9329  -13.7441 C   0  0  1  0  0  0  0  0  0  0  0  0
   21.7285  -18.5324  -14.2006 C   0  0  0  0  0  0  0  0  0  0  0  0
   20.4063  -17.9531  -14.4964 C   0  0  0  0  0  0  0  0  0  0  0  0
   19.4178  -18.6762  -15.3016 C   0  0  0  0  0  0  0  0  0  0  0  0
   18.1230  -18.1150  -15.6953 C   0  0  0  0  0  0  0  0  0  0  0  0
   17.2805  -18.9153  -16.5298 N   0  0  0  0  0  0  0  0  0  0  0  0
   21.1338  -20.8820  -14.7110 C   0  0  0  0  0  0  0  0  0  0  0  0
   21.6646  -21.1672  -15.7778 O   0  0  0  0  0  0  0  0  0  0  0  0
   19.9162  -21.4503  -14.3912 O   0  0  0  0  0  0  0  0  0  0  0  0
  1  2  1  0
  3  2  1  0
  4  3  1  0
  5  6  1  1
  5  4  1  0
  5  1  1  0
  6  7  2  0
  8  9  1  0
  8  6  1  0
  9 13  1  0
 10 11  1  0
  9 10  1  1
 11 15  1  0
 12 11  2  0
 13 14  2  0
 13 16  1  0
 16 17  1  0
 17 23  1  0
 17 18  1  6
 19 18  1  0
 20 19  1  0
 21 20  1  0
 22 21  1  0
 23 24  2  0
 23 25  1  0
M  END
$$$$
