PDK.pdb
     RDKit          3D

 25 25  0  0  1  0  0  0  0  0999 V2000
   24.1882  -20.8011  -16.1146 N   0  0  0  0  0  0  0  0  0  0  0  0
   23.9518  -20.2310  -17.3929 C   0  0  0  0  0  0  0  0  0  0  0  0
   23.7924  -18.7273  -17.1462 C   0  0  0  0  0  0  0  0  0  0  0  0
   24.5327  -18.5211  -15.8512 C   0  0  0  0  0  0  0  0  0  0  0  0
   24.2736  -19.8110  -15.1091 C   0  0  1  0  0  0  0  0  0  0  0  0
   23.0418  -19.6120  -14.3048 C   0  0  0  0  0  0  0  0  0  0  0  0
   23.1256  -18.7093  -13.4091 O   0  0  0  0  0  0  0  0  0  0  0  0
   21.8379  -20.3324  -14.4669 N   0  0  0  0  0  0  0  0  0  0  0  0
   20.6600  -20.0401  -13.6876 C   0  0  1  0  0  0  0  0  0  0  0  0
   19.7017  -19.1336  -14.3741 C   0  0  0  0  0  0  0  0  0  0  0  0
   18.5484  -18.7950  -13.5094 C   0  0  0  0  0  0  0  0  0  0  0  0
   18.6902  -18.5996  -12.2784 O   0  0  0  0  0  0  0  0  0  0  0  0
   20.0876  -21.3016  -13.2021 C   0  0  0  0  0  0  0  0  0  0  0  0
   20.0413  -22.2662  -14.0039 O   0  0  0  0  0  0  0  0  0  0  0  0
   17.2537  -18.6751  -14.0062 O   0  0  0  0  0  0  0  0  0  0  0  0
   19.5860  -21.5173  -11.9088 N   0  0  0  0  0  0  0  0  0  0  0  0
   19.0876  -22.8454  -11.4480 C   0  0  1  0  0  0  0  0  0  0  0  0
   19.1813  -22.9403   -9.9805 C   0  0  0  0  0  0  0  0  0  0  0  0
   18.6654  -24.1650   -9.3436 C   0  0  0  0  0  0  0  0  0  0  0  0
   18.7427  -24.3630   -7.8934 C   0  0  0  0  0  0  0  0  0  0  0  0
   18.1672  -25.5176   -7.1991 C   0  0  0  0  0  0  0  0  0  0  0  0
   18.5222  -25.7097   -5.8265 N   0  0  0  0  0  0  0  0  0  0  0  0
   17.6840  -22.9727  -11.9532 C   0  0  0  0  0  0  0  0  0  0  0  0
   16.9154  -22.0187  -11.9659 O   0  0  0  0  0  0  0  0  0  0  0  0
   17.2452  -24.1975  -12.4168 O   0  0  0  0  0  0  0  0  0  0  0  0
  1  2  1  0
  3  2  1  0
  4  3  1  0
  5  6  1  6
  5  4  1  0
  5  1  1  0
  6  7  2  0
  8  9  1  0
  8  6  1  0
  9 13  1  0
 10 11  1  0
  9 10  1  6
 11 15  1  0
 12 11  2  0
 13 14  2  0
 13 16  1  0
 16 17  1  0
 17 23  1  0
 17 18  1  1
 19 18  1  0
 20 19  1  0
 21 20  1  0
 22 21  1  0
 23 24  2  0
 23 25  1  0
M  END
$$$$
