PAS.pdb
     RDKit          3D

 19 19  0  0  1  0  0  0  0  0999 V2000
   32.6147  -36.4468   -6.8411 N   0  0  0  0  0  0  0  0  0  0  0  0
   33.3712  -35.4977   -7.6412 C   0  0  0  0  0  0  0  0  0  0  0  0
   34.7876  -35.6742   -7.1231 C   0  0  0  0  0  0  0  0  0  0  0  0
   34.5471  -35.8137   -5.6284 C   0  0  0  0  0  0  0  0  0  0  0  0
   33.2079  -36.4653   -5.5417 C   0  0  1  0  0  0  0  0  0  0  0  0
   32.3280  -35.8456   -4.5060 C   0  0  0  0  0  0  0  0  0  0  0  0
   32.7192  -35.7521   -3.3147 O   0  0  0  0  0  0  0  0  0  0  0  0
   29.0481  -33.9332   -4.5072 C   0  0  0  0  0  0  0  0  0  0  0  0
   30.1798  -34.7005   -3.8617 C   0  0  2  0  0  0  0  0  0  0  0  0
   31.0313  -35.3418   -4.8126 N   0  0  0  0  0  0  0  0  0  0  0  0
   29.5937  -35.6324   -2.8763 C   0  0  0  0  0  0  0  0  0  0  0  0
   29.3050  -36.8207   -3.0937 O   0  0  0  0  0  0  0  0  0  0  0  0
   30.5148  -35.1745    0.9767 O   0  0  0  0  0  0  0  0  0  0  0  0
   29.1343  -35.3481    0.8724 C   0  0  0  0  0  0  0  0  0  0  0  0
   28.8352  -35.9133   -0.4912 C   0  0  2  0  0  0  0  0  0  0  0  0
   29.3372  -35.1264   -1.5645 N   0  0  0  0  0  0  0  0  0  0  0  0
   27.3660  -36.0350   -0.6137 C   0  0  0  0  0  0  0  0  0  0  0  0
   26.6724  -36.8749    0.2277 O   0  0  0  0  0  0  0  0  0  0  0  0
   26.7696  -35.3646   -1.4906 O   0  0  0  0  0  0  0  0  0  0  0  0
  1  5  1  0
  1  2  1  0
  2  3  1  0
  4  3  1  0
  5  4  1  0
  6 10  1  0
  5  6  1  1
  7  6  2  0
  9  8  1  6
  9 10  1  0
  9 11  1  0
 11 16  1  0
 12 11  2  0
 14 13  1  0
 15 14  1  1
 15 17  1  0
 16 15  1  0
 17 18  1  0
 19 17  2  0
M  END
$$$$
