PAS.pdb
     RDKit          3D

 19 19  0  0  1  0  0  0  0  0999 V2000
   32.0584  -35.1224   -5.2850 N   0  0  0  0  0  0  0  0  0  0  0  0
   33.2328  -34.7324   -6.0480 C   0  0  0  0  0  0  0  0  0  0  0  0
   34.2205  -35.8430   -5.7369 C   0  0  0  0  0  0  0  0  0  0  0  0
   33.9712  -36.0619   -4.2533 C   0  0  0  0  0  0  0  0  0  0  0  0
   32.5254  -35.7360   -4.0824 C   0  0  1  0  0  0  0  0  0  0  0  0
   32.2593  -34.8971   -2.8756 C   0  0  0  0  0  0  0  0  0  0  0  0
   31.9874  -33.6757   -2.9994 O   0  0  0  0  0  0  0  0  0  0  0  0
   30.8452  -35.2457    0.4095 C   0  0  0  0  0  0  0  0  0  0  0  0
   32.0007  -34.6741   -0.3807 C   0  0  2  0  0  0  0  0  0  0  0  0
   32.3002  -35.4300   -1.5551 N   0  0  0  0  0  0  0  0  0  0  0  0
   33.1515  -34.5315    0.5349 C   0  0  0  0  0  0  0  0  0  0  0  0
   34.0173  -35.3977    0.7419 O   0  0  0  0  0  0  0  0  0  0  0  0
   34.4649  -30.7744    1.4779 O   0  0  0  0  0  0  0  0  0  0  0  0
   34.3685  -31.5763    2.6156 C   0  0  0  0  0  0  0  0  0  0  0  0
   34.3191  -33.0147    2.1716 C   0  0  2  0  0  0  0  0  0  0  0  0
   33.2805  -33.2958    1.2414 N   0  0  0  0  0  0  0  0  0  0  0  0
   34.1397  -33.8505    3.3789 C   0  0  0  0  0  0  0  0  0  0  0  0
   35.0956  -33.8435    4.3692 O   0  0  0  0  0  0  0  0  0  0  0  0
   33.1097  -34.5593    3.4823 O   0  0  0  0  0  0  0  0  0  0  0  0
  1  5  1  0
  1  2  1  0
  2  3  1  0
  4  3  1  0
  5  4  1  0
  6 10  1  0
  5  6  1  1
  7  6  2  0
  9  8  1  1
  9 10  1  0
  9 11  1  0
 11 16  1  0
 12 11  2  0
 14 13  1  0
 15 14  1  1
 15 17  1  0
 16 15  1  0
 17 18  1  0
 19 17  2  0
M  END
$$$$
