PAS.pdb
     RDKit          3D

 19 19  0  0  1  0  0  0  0  0999 V2000
   19.4070  -11.9429  -17.6261 N   0  0  0  0  0  0  0  0  0  0  0  0
   19.1371  -11.8001  -19.0474 C   0  0  0  0  0  0  0  0  0  0  0  0
   20.5252  -11.6276  -19.6381 C   0  0  0  0  0  0  0  0  0  0  0  0
   21.1807  -10.7206  -18.6089 C   0  0  0  0  0  0  0  0  0  0  0  0
   20.5231  -11.1034  -17.3257 C   0  0  1  0  0  0  0  0  0  0  0  0
   20.1390   -9.9218  -16.4965 C   0  0  0  0  0  0  0  0  0  0  0  0
   19.2176   -9.1542  -16.8744 O   0  0  0  0  0  0  0  0  0  0  0  0
   20.8736   -8.6080  -13.0311 C   0  0  0  0  0  0  0  0  0  0  0  0
   20.5117   -8.4464  -14.4902 C   0  0  2  0  0  0  0  0  0  0  0  0
   20.7849   -9.6153  -15.2644 N   0  0  0  0  0  0  0  0  0  0  0  0
   21.1907   -7.2354  -14.9959 C   0  0  0  0  0  0  0  0  0  0  0  0
   22.1883   -7.2264  -15.7357 O   0  0  0  0  0  0  0  0  0  0  0  0
   19.0299   -3.9441  -15.6964 O   0  0  0  0  0  0  0  0  0  0  0  0
   20.1605   -3.5913  -14.9588 C   0  0  0  0  0  0  0  0  0  0  0  0
   21.1551   -4.7180  -15.0590 C   0  0  2  0  0  0  0  0  0  0  0  0
   20.6569   -5.9695  -14.6022 N   0  0  0  0  0  0  0  0  0  0  0  0
   22.3429   -4.3395  -14.2627 C   0  0  0  0  0  0  0  0  0  0  0  0
   23.2123   -3.3829  -14.7357 O   0  0  0  0  0  0  0  0  0  0  0  0
   22.5413   -4.9013  -13.1587 O   0  0  0  0  0  0  0  0  0  0  0  0
  1  5  1  0
  1  2  1  0
  2  3  1  0
  4  3  1  0
  5  4  1  0
  6 10  1  0
  5  6  1  6
  7  6  2  0
  9  8  1  1
  9 10  1  0
  9 11  1  0
 11 16  1  0
 12 11  2  0
 14 13  1  0
 15 14  1  1
 15 17  1  0
 16 15  1  0
 17 18  1  0
 19 17  2  0
M  END
$$$$
