PAS.pdb
     RDKit          3D

 19 19  0  0  1  0  0  0  0  0999 V2000
   19.2879  -11.0409  -17.1648 N   0  0  0  0  0  0  0  0  0  0  0  0
   18.9286  -12.1685  -16.3206 C   0  0  0  0  0  0  0  0  0  0  0  0
   18.0534  -11.5280  -15.2577 C   0  0  0  0  0  0  0  0  0  0  0  0
   18.7993  -10.2295  -14.9949 C   0  0  0  0  0  0  0  0  0  0  0  0
   19.4248   -9.9048  -16.3097 C   0  0  1  0  0  0  0  0  0  0  0  0
   20.8440   -9.4574  -16.1814 C   0  0  0  0  0  0  0  0  0  0  0  0
   21.5230   -9.7822  -15.1742 O   0  0  0  0  0  0  0  0  0  0  0  0
   23.4764   -7.9580  -18.4152 C   0  0  0  0  0  0  0  0  0  0  0  0
   22.8237   -8.1793  -17.0694 C   0  0  2  0  0  0  0  0  0  0  0  0
   21.4820   -8.6582  -17.1732 N   0  0  0  0  0  0  0  0  0  0  0  0
   22.9416   -6.9264  -16.2951 C   0  0  0  0  0  0  0  0  0  0  0  0
   24.0084   -6.3809  -15.9681 O   0  0  0  0  0  0  0  0  0  0  0  0
   20.4341   -3.1044  -14.6998 O   0  0  0  0  0  0  0  0  0  0  0  0
   20.3371   -4.3429  -15.3350 C   0  0  0  0  0  0  0  0  0  0  0  0
   21.6737   -5.0290  -15.2296 C   0  0  2  0  0  0  0  0  0  0  0  0
   21.7290   -6.2884  -15.8883 N   0  0  0  0  0  0  0  0  0  0  0  0
   21.9723   -5.2105  -13.7921 C   0  0  0  0  0  0  0  0  0  0  0  0
   21.7930   -6.4410  -13.2019 O   0  0  0  0  0  0  0  0  0  0  0  0
   22.3880   -4.2312  -13.1273 O   0  0  0  0  0  0  0  0  0  0  0  0
  1  5  1  0
  1  2  1  0
  2  3  1  0
  4  3  1  0
  5  4  1  0
  6 10  1  0
  5  6  1  1
  7  6  2  0
  9  8  1  6
  9 10  1  0
  9 11  1  0
 11 16  1  0
 12 11  2  0
 14 13  1  0
 15 14  1  1
 15 17  1  0
 16 15  1  0
 17 18  1  0
 19 17  2  0
M  END
$$$$
