PAS.pdb
     RDKit          3D

 19 19  0  0  1  0  0  0  0  0999 V2000
   14.8528  -23.0260   -3.1051 N   0  0  0  0  0  0  0  0  0  0  0  0
   14.9199  -24.2557   -3.8775 C   0  0  0  0  0  0  0  0  0  0  0  0
   13.5358  -24.3408   -4.4962 C   0  0  0  0  0  0  0  0  0  0  0  0
   12.6598  -23.8871   -3.3394 C   0  0  0  0  0  0  0  0  0  0  0  0
   13.5225  -22.9246   -2.5944 C   0  0  1  0  0  0  0  0  0  0  0  0
   13.4650  -23.1203   -1.1148 C   0  0  0  0  0  0  0  0  0  0  0  0
   12.3590  -23.1142   -0.5166 O   0  0  0  0  0  0  0  0  0  0  0  0
   15.4765  -24.7286    1.4930 C   0  0  0  0  0  0  0  0  0  0  0  0
   14.6192  -23.5533    1.0810 C   0  0  2  0  0  0  0  0  0  0  0  0
   14.6357  -23.3187   -0.3280 N   0  0  0  0  0  0  0  0  0  0  0  0
   15.0412  -22.3815    1.8761 C   0  0  0  0  0  0  0  0  0  0  0  0
   15.8146  -21.4904    1.4885 O   0  0  0  0  0  0  0  0  0  0  0  0
   14.0188  -19.8454    5.8660 O   0  0  0  0  0  0  0  0  0  0  0  0
   13.8085  -21.0664    5.2244 C   0  0  0  0  0  0  0  0  0  0  0  0
   14.7510  -21.1477    4.0524 C   0  0  2  0  0  0  0  0  0  0  0  0
   14.5171  -22.2624    3.2004 N   0  0  0  0  0  0  0  0  0  0  0  0
   16.1280  -21.2167    4.5884 C   0  0  0  0  0  0  0  0  0  0  0  0
   16.7669  -20.0672    4.9946 O   0  0  0  0  0  0  0  0  0  0  0  0
   16.6973  -22.3320    4.6651 O   0  0  0  0  0  0  0  0  0  0  0  0
  1  5  1  0
  1  2  1  0
  2  3  1  0
  4  3  1  0
  5  4  1  0
  6 10  1  0
  5  6  1  1
  7  6  2  0
  9  8  1  6
  9 10  1  0
  9 11  1  0
 11 16  1  0
 12 11  2  0
 14 13  1  0
 15 14  1  1
 15 17  1  0
 16 15  1  0
 17 18  1  0
 19 17  2  0
M  END
$$$$
