PAS.pdb
     RDKit          3D

 19 19  0  0  1  0  0  0  0  0999 V2000
   20.4482  -11.0987  -19.2851 N   0  0  0  0  0  0  0  0  0  0  0  0
   20.4822  -12.5495  -19.1990 C   0  0  0  0  0  0  0  0  0  0  0  0
   19.0107  -12.9173  -19.1283 C   0  0  0  0  0  0  0  0  0  0  0  0
   18.4728  -11.8342  -18.2068 C   0  0  0  0  0  0  0  0  0  0  0  0
   19.3455  -10.6581  -18.4909 C   0  0  1  0  0  0  0  0  0  0  0  0
   19.7847   -9.9497  -17.2514 C   0  0  0  0  0  0  0  0  0  0  0  0
   18.9336   -9.4944  -16.4456 O   0  0  0  0  0  0  0  0  0  0  0  0
   23.0278   -9.4679  -15.3701 C   0  0  0  0  0  0  0  0  0  0  0  0
   21.6191   -9.0816  -15.7606 C   0  0  2  0  0  0  0  0  0  0  0  0
   21.1596   -9.7603  -16.9305 N   0  0  0  0  0  0  0  0  0  0  0  0
   21.5668   -7.6096  -15.8774 C   0  0  0  0  0  0  0  0  0  0  0  0
   21.8687   -6.9575  -16.8905 O   0  0  0  0  0  0  0  0  0  0  0  0
   19.6707   -3.5792  -14.2720 O   0  0  0  0  0  0  0  0  0  0  0  0
   19.7186   -4.9646  -14.1138 C   0  0  0  0  0  0  0  0  0  0  0  0
   21.0202   -5.4568  -14.6901 C   0  0  2  0  0  0  0  0  0  0  0  0
   21.1335   -6.8741  -14.7312 N   0  0  0  0  0  0  0  0  0  0  0  0
   22.1148   -4.8980  -13.8669 C   0  0  0  0  0  0  0  0  0  0  0  0
   22.7279   -3.7241  -14.2421 O   0  0  0  0  0  0  0  0  0  0  0  0
   22.4706   -5.5081  -12.8300 O   0  0  0  0  0  0  0  0  0  0  0  0
  1  5  1  0
  1  2  1  0
  2  3  1  0
  4  3  1  0
  5  4  1  0
  6 10  1  0
  5  6  1  1
  7  6  2  0
  9  8  1  6
  9 10  1  0
  9 11  1  0
 11 16  1  0
 12 11  2  0
 14 13  1  0
 15 14  1  1
 15 17  1  0
 16 15  1  0
 17 18  1  0
 19 17  2  0
M  END
$$$$
