PAS.pdb
     RDKit          3D

 19 19  0  0  1  0  0  0  0  0999 V2000
   18.1553   -9.7246  -15.9211 N   0  0  0  0  0  0  0  0  0  0  0  0
   17.6459  -10.6749  -16.8962 C   0  0  0  0  0  0  0  0  0  0  0  0
   17.8275  -12.0086  -16.1934 C   0  0  0  0  0  0  0  0  0  0  0  0
   19.1858  -11.8213  -15.5368 C   0  0  0  0  0  0  0  0  0  0  0  0
   19.2440  -10.3588  -15.2479 C   0  0  1  0  0  0  0  0  0  0  0  0
   20.5620   -9.7507  -15.5998 C   0  0  0  0  0  0  0  0  0  0  0  0
   21.6194  -10.1776  -15.0700 O   0  0  0  0  0  0  0  0  0  0  0  0
   22.0619   -7.9201  -18.4102 C   0  0  0  0  0  0  0  0  0  0  0  0
   21.9242   -8.0899  -16.9141 C   0  0  2  0  0  0  0  0  0  0  0  0
   20.6809   -8.6808  -16.5327 N   0  0  0  0  0  0  0  0  0  0  0  0
   22.1680   -6.7763  -16.2829 C   0  0  0  0  0  0  0  0  0  0  0  0
   23.1955   -6.0922  -16.4202 O   0  0  0  0  0  0  0  0  0  0  0  0
   19.1360   -4.3987  -15.5724 O   0  0  0  0  0  0  0  0  0  0  0  0
   19.9123   -4.3873  -14.4131 C   0  0  0  0  0  0  0  0  0  0  0  0
   21.2405   -5.0213  -14.7329 C   0  0  2  0  0  0  0  0  0  0  0  0
   21.1375   -6.2481  -15.4452 N   0  0  0  0  0  0  0  0  0  0  0  0
   21.9471   -5.2513  -13.4538 C   0  0  0  0  0  0  0  0  0  0  0  0
   22.1883   -6.5358  -13.0220 O   0  0  0  0  0  0  0  0  0  0  0  0
   22.3189   -4.2630  -12.7763 O   0  0  0  0  0  0  0  0  0  0  0  0
  1  5  1  0
  1  2  1  0
  2  3  1  0
  4  3  1  0
  5  4  1  0
  6 10  1  0
  5  6  1  6
  7  6  2  0
  9  8  1  6
  9 10  1  0
  9 11  1  0
 11 16  1  0
 12 11  2  0
 14 13  1  0
 15 14  1  1
 15 17  1  0
 16 15  1  0
 17 18  1  0
 19 17  2  0
M  END
$$$$
