PAS.pdb
     RDKit          3D

 19 19  0  0  1  0  0  0  0  0999 V2000
   20.3459  -12.0324  -18.3106 N   0  0  0  0  0  0  0  0  0  0  0  0
   20.2523  -13.4350  -17.9404 C   0  0  0  0  0  0  0  0  0  0  0  0
   18.7580  -13.6373  -17.7624 C   0  0  0  0  0  0  0  0  0  0  0  0
   18.3605  -12.3488  -17.0601 C   0  0  0  0  0  0  0  0  0  0  0  0
   19.3230  -11.3408  -17.5923 C   0  0  1  0  0  0  0  0  0  0  0  0
   19.8774  -10.4511  -16.5283 C   0  0  0  0  0  0  0  0  0  0  0  0
   19.1071   -9.7607  -15.8135 O   0  0  0  0  0  0  0  0  0  0  0  0
   23.2993   -9.7935  -15.0088 C   0  0  0  0  0  0  0  0  0  0  0  0
   21.8462   -9.4850  -15.2907 C   0  0  2  0  0  0  0  0  0  0  0  0
   21.2758  -10.3448  -16.2785 N   0  0  0  0  0  0  0  0  0  0  0  0
   21.7434   -8.0508  -15.6310 C   0  0  0  0  0  0  0  0  0  0  0  0
   21.8752   -7.5705  -16.7688 O   0  0  0  0  0  0  0  0  0  0  0  0
   19.1171   -5.7592  -15.5373 O   0  0  0  0  0  0  0  0  0  0  0  0
   19.9196   -5.2362  -14.5228 C   0  0  0  0  0  0  0  0  0  0  0  0
   21.3250   -5.7351  -14.7336 C   0  0  2  0  0  0  0  0  0  0  0  0
   21.4698   -7.1399  -14.5642 N   0  0  0  0  0  0  0  0  0  0  0  0
   22.2001   -5.0294  -13.7720 C   0  0  0  0  0  0  0  0  0  0  0  0
   22.4462   -3.6838  -13.9246 O   0  0  0  0  0  0  0  0  0  0  0  0
   22.7090   -5.6742  -12.8238 O   0  0  0  0  0  0  0  0  0  0  0  0
  1  5  1  0
  1  2  1  0
  2  3  1  0
  4  3  1  0
  5  4  1  0
  6 10  1  0
  5  6  1  1
  7  6  2  0
  9  8  1  6
  9 10  1  0
  9 11  1  0
 11 16  1  0
 12 11  2  0
 14 13  1  0
 15 14  1  1
 15 17  1  0
 16 15  1  0
 17 18  1  0
 19 17  2  0
M  END
$$$$
