PAS.pdb
     RDKit          3D

 19 19  0  0  1  0  0  0  0  0999 V2000
   21.3435  -10.4271  -16.2178 N   0  0  0  0  0  0  0  0  0  0  0  0
   20.3269  -11.2315  -16.8756 C   0  0  0  0  0  0  0  0  0  0  0  0
   20.3997  -10.7547  -18.3154 C   0  0  0  0  0  0  0  0  0  0  0  0
   20.5789   -9.2566  -18.1285 C   0  0  0  0  0  0  0  0  0  0  0  0
   21.3342   -9.1446  -16.8469 C   0  0  1  0  0  0  0  0  0  0  0  0
   20.7999   -8.0756  -15.9510 C   0  0  0  0  0  0  0  0  0  0  0  0
   19.5807   -8.0555  -15.6445 O   0  0  0  0  0  0  0  0  0  0  0  0
   22.2102   -5.3417  -13.7531 C   0  0  0  0  0  0  0  0  0  0  0  0
   21.1422   -5.9624  -14.6249 C   0  0  2  0  0  0  0  0  0  0  0  0
   21.6291   -7.0498  -15.4129 N   0  0  0  0  0  0  0  0  0  0  0  0
   20.5273   -4.8850  -15.4276 C   0  0  0  0  0  0  0  0  0  0  0  0
   20.8131   -4.6133  -16.6054 O   0  0  0  0  0  0  0  0  0  0  0  0
   17.3580   -2.9052  -13.5829 O   0  0  0  0  0  0  0  0  0  0  0  0
   17.3153   -3.0235  -14.9725 C   0  0  0  0  0  0  0  0  0  0  0  0
   18.7309   -3.1206  -15.4777 C   0  0  2  0  0  0  0  0  0  0  0  0
   19.5206   -4.0891  -14.7985 N   0  0  0  0  0  0  0  0  0  0  0  0
   19.3520   -1.7861  -15.3301 C   0  0  0  0  0  0  0  0  0  0  0  0
   18.8707   -0.7190  -16.0541 O   0  0  0  0  0  0  0  0  0  0  0  0
   20.3166   -1.6465  -14.5402 O   0  0  0  0  0  0  0  0  0  0  0  0
  1  5  1  0
  1  2  1  0
  2  3  1  0
  4  3  1  0
  5  4  1  0
  6 10  1  0
  5  6  1  1
  7  6  2  0
  9  8  1  6
  9 10  1  0
  9 11  1  0
 11 16  1  0
 12 11  2  0
 14 13  1  0
 15 14  1  1
 15 17  1  0
 16 15  1  0
 17 18  1  0
 19 17  2  0
M  END
$$$$
