PAS.pdb
     RDKit          3D

 19 19  0  0  1  0  0  0  0  0999 V2000
   17.2080  -11.9135  -15.8511 N   0  0  0  0  0  0  0  0  0  0  0  0
   17.1080  -12.9280  -16.8875 C   0  0  0  0  0  0  0  0  0  0  0  0
   18.0954  -13.9835  -16.4219 C   0  0  0  0  0  0  0  0  0  0  0  0
   19.2427  -13.1223  -15.9184 C   0  0  0  0  0  0  0  0  0  0  0  0
   18.5702  -11.8867  -15.4217 C   0  0  1  0  0  0  0  0  0  0  0  0
   19.2735  -10.6367  -15.8388 C   0  0  0  0  0  0  0  0  0  0  0  0
   20.4959  -10.4827  -15.5880 O   0  0  0  0  0  0  0  0  0  0  0  0
   18.4346   -7.5767  -17.9258 C   0  0  0  0  0  0  0  0  0  0  0  0
   19.2333   -8.3559  -16.9054 C   0  0  2  0  0  0  0  0  0  0  0  0
   18.6065   -9.5822  -16.5261 N   0  0  0  0  0  0  0  0  0  0  0  0
   19.5092   -7.4601  -15.7632 C   0  0  0  0  0  0  0  0  0  0  0  0
   18.8006   -7.3486  -14.7493 O   0  0  0  0  0  0  0  0  0  0  0  0
   22.8664   -4.5429  -13.8228 O   0  0  0  0  0  0  0  0  0  0  0  0
   22.5708   -5.3850  -14.8953 C   0  0  0  0  0  0  0  0  0  0  0  0
   21.1266   -5.7971  -14.7826 C   0  0  2  0  0  0  0  0  0  0  0  0
   20.6882   -6.6549  -15.8291 N   0  0  0  0  0  0  0  0  0  0  0  0
   20.3078   -4.5651  -14.7789 C   0  0  0  0  0  0  0  0  0  0  0  0
   19.9658   -3.9695  -13.5860 O   0  0  0  0  0  0  0  0  0  0  0  0
   19.9344   -4.0777  -15.8730 O   0  0  0  0  0  0  0  0  0  0  0  0
  1  5  1  0
  1  2  1  0
  2  3  1  0
  4  3  1  0
  5  4  1  0
  6 10  1  0
  5  6  1  6
  7  6  2  0
  9  8  1  6
  9 10  1  0
  9 11  1  0
 11 16  1  0
 12 11  2  0
 14 13  1  0
 15 14  1  6
 15 17  1  0
 16 15  1  0
 17 18  1  0
 19 17  2  0
M  END
$$$$
