PAS.pdb
     RDKit          3D

 19 19  0  0  1  0  0  0  0  0999 V2000
   20.9060  -10.8055  -18.5558 N   0  0  0  0  0  0  0  0  0  0  0  0
   20.6637  -12.2134  -18.2869 C   0  0  0  0  0  0  0  0  0  0  0  0
   19.2361  -12.4071  -18.7668 C   0  0  0  0  0  0  0  0  0  0  0  0
   18.5770  -11.1275  -18.2773 C   0  0  0  0  0  0  0  0  0  0  0  0
   19.6743  -10.1182  -18.3295 C   0  0  1  0  0  0  0  0  0  0  0  0
   19.7220   -9.2508  -17.1145 C   0  0  0  0  0  0  0  0  0  0  0  0
   18.7213   -8.5641  -16.7856 O   0  0  0  0  0  0  0  0  0  0  0  0
   21.9956   -8.9256  -14.1186 C   0  0  0  0  0  0  0  0  0  0  0  0
   20.9331   -8.4210  -15.0686 C   0  0  2  0  0  0  0  0  0  0  0  0
   20.8790   -9.1624  -16.2884 N   0  0  0  0  0  0  0  0  0  0  0  0
   21.1536   -6.9740  -15.2706 C   0  0  0  0  0  0  0  0  0  0  0  0
   21.8304   -6.4701  -16.1820 O   0  0  0  0  0  0  0  0  0  0  0  0
   19.7112   -2.5633  -13.9108 O   0  0  0  0  0  0  0  0  0  0  0  0
   19.4840   -3.9338  -13.7802 C   0  0  0  0  0  0  0  0  0  0  0  0
   20.6405   -4.6623  -14.4130 C   0  0  2  0  0  0  0  0  0  0  0  0
   20.5382   -6.0791  -14.3415 N   0  0  0  0  0  0  0  0  0  0  0  0
   21.8760   -4.2217  -13.7292 C   0  0  0  0  0  0  0  0  0  0  0  0
   22.5608   -3.1192  -14.1878 O   0  0  0  0  0  0  0  0  0  0  0  0
   22.2844   -4.8656  -12.7329 O   0  0  0  0  0  0  0  0  0  0  0  0
  1  5  1  0
  1  2  1  0
  2  3  1  0
  4  3  1  0
  5  4  1  0
  6 10  1  0
  5  6  1  1
  7  6  2  0
  9  8  1  1
  9 10  1  0
  9 11  1  0
 11 16  1  0
 12 11  2  0
 14 13  1  0
 15 14  1  1
 15 17  1  0
 16 15  1  0
 17 18  1  0
 19 17  2  0
M  END
$$$$
