PAS.pdb
     RDKit          3D

 19 19  0  0  1  0  0  0  0  0999 V2000
   17.9080  -11.1107  -16.9557 N   0  0  0  0  0  0  0  0  0  0  0  0
   18.3394  -12.3503  -17.5807 C   0  0  0  0  0  0  0  0  0  0  0  0
   18.6234  -13.2474  -16.3889 C   0  0  0  0  0  0  0  0  0  0  0  0
   19.2982  -12.2757  -15.4339 C   0  0  0  0  0  0  0  0  0  0  0  0
   18.6639  -10.9636  -15.7525 C   0  0  1  0  0  0  0  0  0  0  0  0
   19.6525   -9.8470  -15.8350 C   0  0  0  0  0  0  0  0  0  0  0  0
   20.4000   -9.5880  -14.8576 O   0  0  0  0  0  0  0  0  0  0  0  0
   20.9784   -7.5657  -18.5595 C   0  0  0  0  0  0  0  0  0  0  0  0
   20.7367   -7.9752  -17.1242 C   0  0  2  0  0  0  0  0  0  0  0  0
   19.7924   -9.0398  -17.0003 N   0  0  0  0  0  0  0  0  0  0  0  0
   20.3609   -6.7657  -16.3632 C   0  0  0  0  0  0  0  0  0  0  0  0
   19.2465   -6.2179  -16.3881 O   0  0  0  0  0  0  0  0  0  0  0  0
   22.7801   -5.7283  -13.1545 O   0  0  0  0  0  0  0  0  0  0  0  0
   21.4564   -5.2954  -13.2394 C   0  0  0  0  0  0  0  0  0  0  0  0
   21.1363   -5.0499  -14.6906 C   0  0  2  0  0  0  0  0  0  0  0  0
   21.3610   -6.1765  -15.5293 N   0  0  0  0  0  0  0  0  0  0  0  0
   21.9725   -3.9190  -15.1490 C   0  0  0  0  0  0  0  0  0  0  0  0
   21.8054   -2.6704  -14.5943 O   0  0  0  0  0  0  0  0  0  0  0  0
   22.8288   -4.1173  -16.0442 O   0  0  0  0  0  0  0  0  0  0  0  0
  1  5  1  0
  1  2  1  0
  2  3  1  0
  4  3  1  0
  5  4  1  0
  6 10  1  0
  5  6  1  6
  7  6  2  0
  9  8  1  6
  9 10  1  0
  9 11  1  0
 11 16  1  0
 12 11  2  0
 14 13  1  0
 15 14  1  1
 15 17  1  0
 16 15  1  0
 17 18  1  0
 19 17  2  0
M  END
$$$$
