PAS.pdb
     RDKit          3D

 19 19  0  0  1  0  0  0  0  0999 V2000
   23.1405  -12.8302  -17.1594 N   0  0  0  0  0  0  0  0  0  0  0  0
   24.5704  -13.0768  -17.2473 C   0  0  0  0  0  0  0  0  0  0  0  0
   24.9725  -13.2490  -15.7931 C   0  0  0  0  0  0  0  0  0  0  0  0
   24.1445  -12.1655  -15.1208 C   0  0  0  0  0  0  0  0  0  0  0  0
   22.9182  -12.0774  -15.9659 C   0  0  1  0  0  0  0  0  0  0  0  0
   22.5101  -10.6689  -16.2496 C   0  0  0  0  0  0  0  0  0  0  0  0
   23.0668  -10.0206  -17.1719 O   0  0  0  0  0  0  0  0  0  0  0  0
   19.5385   -8.5275  -15.5665 C   0  0  0  0  0  0  0  0  0  0  0  0
   21.0255   -8.6877  -15.7890 C   0  0  2  0  0  0  0  0  0  0  0  0
   21.4921  -10.0074  -15.5043 N   0  0  0  0  0  0  0  0  0  0  0  0
   21.7175   -7.6397  -15.0105 C   0  0  0  0  0  0  0  0  0  0  0  0
   22.2211   -7.7941  -13.8857 O   0  0  0  0  0  0  0  0  0  0  0  0
   23.4508   -3.1114  -15.2711 O   0  0  0  0  0  0  0  0  0  0  0  0
   22.6274   -4.0436  -15.9035 C   0  0  0  0  0  0  0  0  0  0  0  0
   22.5146   -5.2507  -15.0099 C   0  0  2  0  0  0  0  0  0  0  0  0
   21.8162   -6.3409  -15.5987 N   0  0  0  0  0  0  0  0  0  0  0  0
   21.8200   -4.8299  -13.7735 C   0  0  0  0  0  0  0  0  0  0  0  0
   22.5487   -4.4890  -12.6566 O   0  0  0  0  0  0  0  0  0  0  0  0
   20.5661   -4.7898  -13.7620 O   0  0  0  0  0  0  0  0  0  0  0  0
  1  5  1  0
  1  2  1  0
  2  3  1  0
  4  3  1  0
  5  4  1  0
  6 10  1  0
  5  6  1  6
  7  6  2  0
  9  8  1  1
  9 10  1  0
  9 11  1  0
 11 16  1  0
 12 11  2  0
 14 13  1  0
 15 14  1  6
 15 17  1  0
 16 15  1  0
 17 18  1  0
 19 17  2  0
M  END
$$$$
