PAS.pdb
     RDKit          3D

 19 19  0  0  1  0  0  0  0  0999 V2000
   14.4716  -10.3833  -11.2022 N   0  0  0  0  0  0  0  0  0  0  0  0
   14.8907  -11.5104  -12.0191 C   0  0  0  0  0  0  0  0  0  0  0  0
   15.8497  -12.2513  -11.1042 C   0  0  0  0  0  0  0  0  0  0  0  0
   16.6028  -11.0987  -10.4594 C   0  0  0  0  0  0  0  0  0  0  0  0
   15.5975   -9.9974  -10.4122 C   0  0  1  0  0  0  0  0  0  0  0  0
   16.1617   -8.6796  -10.8318 C   0  0  0  0  0  0  0  0  0  0  0  0
   16.1100   -8.3219  -12.0360 O   0  0  0  0  0  0  0  0  0  0  0  0
   17.6348   -5.6345   -9.1048 C   0  0  0  0  0  0  0  0  0  0  0  0
   17.3962   -6.5553  -10.2802 C   0  0  2  0  0  0  0  0  0  0  0  0
   16.7721   -7.7847   -9.9067 N   0  0  0  0  0  0  0  0  0  0  0  0
   18.6832   -6.7397  -10.9821 C   0  0  0  0  0  0  0  0  0  0  0  0
   19.5017   -7.6462  -10.7566 O   0  0  0  0  0  0  0  0  0  0  0  0
   20.9513   -6.1021  -15.0680 O   0  0  0  0  0  0  0  0  0  0  0  0
   19.7850   -5.8790  -14.3352 C   0  0  0  0  0  0  0  0  0  0  0  0
   20.1360   -5.9254  -12.8713 C   0  0  2  0  0  0  0  0  0  0  0  0
   19.0150   -5.7984  -12.0051 N   0  0  0  0  0  0  0  0  0  0  0  0
   21.0923   -4.8286  -12.6046 C   0  0  0  0  0  0  0  0  0  0  0  0
   22.4464   -5.0735  -12.6353 O   0  0  0  0  0  0  0  0  0  0  0  0
   20.6501   -3.6820  -12.3523 O   0  0  0  0  0  0  0  0  0  0  0  0
  1  5  1  0
  1  2  1  0
  2  3  1  0
  4  3  1  0
  5  4  1  0
  6 10  1  0
  5  6  1  6
  7  6  2  0
  9  8  1  1
  9 10  1  0
  9 11  1  0
 11 16  1  0
 12 11  2  0
 14 13  1  0
 15 14  1  6
 15 17  1  0
 16 15  1  0
 17 18  1  0
 19 17  2  0
M  END
$$$$
