HFK.pdb
     RDKit          3D

 31 32  0  0  1  0  0  0  0  0999 V2000
    7.8191  -16.6110   19.5116 N   0  0  0  0  0  0  0  0  0  0  0  0
    9.1929  -16.4124   19.9034 C   0  0  1  0  0  0  0  0  0  0  0  0
    9.8762  -15.6266   18.8182 C   0  0  0  0  0  0  0  0  0  0  0  0
    8.8689  -14.7451   18.1856 C   0  0  0  0  0  0  0  0  0  0  0  0
    7.6769  -14.3594   18.7575 C   0  0  0  0  0  0  0  0  0  0  0  0
    6.9979  -13.5587   17.9164 N   0  0  0  0  0  0  0  0  0  0  0  0
    7.7479  -13.4335   16.8178 C   0  0  0  0  0  0  0  0  0  0  0  0
    8.8928  -14.1578   16.9790 N   0  0  0  0  0  0  0  0  0  0  0  0
    9.3198  -15.7911   21.2387 C   0  0  0  0  0  0  0  0  0  0  0  0
   10.4702  -15.5025   21.6544 O   0  0  0  0  0  0  0  0  0  0  0  0
    8.2338  -15.4938   22.0928 N   0  0  0  0  0  0  0  0  0  0  0  0
    8.3177  -14.9275   23.3938 C   0  0  1  0  0  0  0  0  0  0  0  0
    7.1994  -14.0105   23.7592 C   0  0  0  0  0  0  0  0  0  0  0  0
    7.2969  -13.4222   25.0929 C   0  0  0  0  0  0  0  0  0  0  0  0
    6.6085  -13.8695   26.1998 C   0  0  0  0  0  0  0  0  0  0  0  0
    6.7374  -13.2762   27.4397 C   0  0  0  0  0  0  0  0  0  0  0  0
    7.5808  -12.1943   27.6000 C   0  0  0  0  0  0  0  0  0  0  0  0
    8.2886  -11.7251   26.4886 C   0  0  0  0  0  0  0  0  0  0  0  0
    8.1347  -12.3402   25.2728 C   0  0  0  0  0  0  0  0  0  0  0  0
    8.4832  -16.0487   24.3852 C   0  0  0  0  0  0  0  0  0  0  0  0
    7.5122  -16.8082   24.6263 O   0  0  0  0  0  0  0  0  0  0  0  0
    9.7040  -16.2707   25.0536 N   0  0  0  0  0  0  0  0  0  0  0  0
    9.9834  -17.3109   26.0219 C   0  0  1  0  0  0  0  0  0  0  0  0
   11.0347  -18.2505   25.5812 C   0  0  0  0  0  0  0  0  0  0  0  0
   11.3976  -19.3610   26.4864 C   0  0  0  0  0  0  0  0  0  0  0  0
   12.4945  -20.2583   25.9805 C   0  0  0  0  0  0  0  0  0  0  0  0
   12.8173  -21.3725   26.9546 C   0  0  0  0  0  0  0  0  0  0  0  0
   13.7868  -22.2387   26.3045 N   0  0  0  0  0  0  0  0  0  0  0  0
   10.1109  -16.8015   27.4083 C   0  0  0  0  0  0  0  0  0  0  0  0
   10.6009  -15.6817   27.6764 O   0  0  0  0  0  0  0  0  0  0  0  0
    9.6876  -17.5522   28.4849 O   0  0  0  0  0  0  0  0  0  0  0  0
  2  1  1  6
  2  3  1  0
  3  4  1  0
  4  5  2  0
  6  5  1  0
  7  6  1  0
  8  7  2  0
  8  4  1  0
  9  2  1  0
 10  9  2  0
 11  9  1  0
 12 13  1  1
 12 11  1  0
 13 14  1  0
 14 15  2  0
 15 16  1  0
 17 16  2  0
 18 17  1  0
 19 18  2  0
 19 14  1  0
 20 22  1  0
 20 12  1  0
 21 20  2  0
 23 24  1  6
 23 22  1  0
 25 24  1  0
 26 27  1  0
 26 25  1  0
 27 28  1  0
 29 23  1  0
 29 31  1  0
 30 29  2  0
M  END
$$$$
