HFK.pdb
     RDKit          3D

 31 32  0  0  1  0  0  0  0  0999 V2000
   10.2132  -14.1577   20.7563 N   0  0  0  0  0  0  0  0  0  0  0  0
    8.9684  -14.5192   21.3889 C   0  0  1  0  0  0  0  0  0  0  0  0
    8.2727  -15.5190   20.5066 C   0  0  0  0  0  0  0  0  0  0  0  0
    8.1697  -14.9397   19.1481 C   0  0  0  0  0  0  0  0  0  0  0  0
    7.8510  -13.6307   18.8627 C   0  0  0  0  0  0  0  0  0  0  0  0
    7.8434  -13.4359   17.5317 N   0  0  0  0  0  0  0  0  0  0  0  0
    8.1541  -14.6083   16.9715 C   0  0  0  0  0  0  0  0  0  0  0  0
    8.3543  -15.5303   17.9571 N   0  0  0  0  0  0  0  0  0  0  0  0
    9.1524  -14.9966   22.7758 C   0  0  0  0  0  0  0  0  0  0  0  0
   10.3067  -15.3327   23.1417 O   0  0  0  0  0  0  0  0  0  0  0  0
    8.1174  -15.1049   23.7319 N   0  0  0  0  0  0  0  0  0  0  0  0
    8.2651  -15.4954   25.0906 C   0  0  1  0  0  0  0  0  0  0  0  0
    7.1682  -15.0539   25.9999 C   0  0  0  0  0  0  0  0  0  0  0  0
    7.0932  -13.6113   26.2182 C   0  0  0  0  0  0  0  0  0  0  0  0
    6.0321  -12.8154   25.8443 C   0  0  0  0  0  0  0  0  0  0  0  0
    6.0121  -11.4544   26.0749 C   0  0  0  0  0  0  0  0  0  0  0  0
    7.0828  -10.8472   26.7012 C   0  0  0  0  0  0  0  0  0  0  0  0
    8.1697  -11.6376   27.0886 C   0  0  0  0  0  0  0  0  0  0  0  0
    8.1538  -12.9866   26.8427 C   0  0  0  0  0  0  0  0  0  0  0  0
    8.4749  -16.9859   25.1316 C   0  0  0  0  0  0  0  0  0  0  0  0
    7.8948  -17.7147   24.2889 O   0  0  0  0  0  0  0  0  0  0  0  0
    9.3087  -17.5891   26.0946 N   0  0  0  0  0  0  0  0  0  0  0  0
   10.0135  -18.8475   25.9623 C   0  0  1  0  0  0  0  0  0  0  0  0
   10.7176  -18.9884   24.6713 C   0  0  0  0  0  0  0  0  0  0  0  0
   11.4849  -20.2284   24.4303 C   0  0  0  0  0  0  0  0  0  0  0  0
   12.2795  -20.2436   23.1526 C   0  0  0  0  0  0  0  0  0  0  0  0
   13.0653  -21.5274   22.9827 C   0  0  0  0  0  0  0  0  0  0  0  0
   13.8630  -21.3819   21.7764 N   0  0  0  0  0  0  0  0  0  0  0  0
   10.7952  -19.2107   27.1684 C   0  0  0  0  0  0  0  0  0  0  0  0
   11.2584  -20.3580   27.3556 O   0  0  0  0  0  0  0  0  0  0  0  0
   11.0523  -18.2838   28.1567 O   0  0  0  0  0  0  0  0  0  0  0  0
  2  1  1  6
  2  3  1  0
  3  4  1  0
  4  5  2  0
  6  5  1  0
  7  6  1  0
  8  7  2  0
  8  4  1  0
  9  2  1  0
 10  9  2  0
 11  9  1  0
 12 13  1  1
 12 11  1  0
 13 14  1  0
 14 15  2  0
 15 16  1  0
 17 16  2  0
 18 17  1  0
 19 18  2  0
 19 14  1  0
 20 22  1  0
 20 12  1  0
 21 20  2  0
 23 24  1  6
 23 22  1  0
 25 24  1  0
 26 27  1  0
 26 25  1  0
 27 28  1  0
 29 23  1  0
 29 31  1  0
 30 29  2  0
M  END
$$$$
