HFK.pdb
     RDKit          3D

 31 32  0  0  1  0  0  0  0  0999 V2000
    9.5289  -18.1849   19.9791 N   0  0  0  0  0  0  0  0  0  0  0  0
    8.4129  -18.2223   20.8921 C   0  0  1  0  0  0  0  0  0  0  0  0
    8.1550  -19.6599   21.2512 C   0  0  0  0  0  0  0  0  0  0  0  0
    7.5517  -20.3262   20.0747 C   0  0  0  0  0  0  0  0  0  0  0  0
    7.2703  -19.7172   18.8721 C   0  0  0  0  0  0  0  0  0  0  0  0
    6.7278  -20.6051   18.0195 N   0  0  0  0  0  0  0  0  0  0  0  0
    6.6629  -21.7702   18.6702 C   0  0  0  0  0  0  0  0  0  0  0  0
    7.1659  -21.6032   19.9274 N   0  0  0  0  0  0  0  0  0  0  0  0
    8.6138  -17.3554   22.0724 C   0  0  0  0  0  0  0  0  0  0  0  0
    9.7852  -17.0022   22.3594 O   0  0  0  0  0  0  0  0  0  0  0  0
    7.5772  -16.8885   22.9118 N   0  0  0  0  0  0  0  0  0  0  0  0
    7.7236  -16.0104   24.0199 C   0  0  1  0  0  0  0  0  0  0  0  0
    6.8710  -14.7871   23.9763 C   0  0  0  0  0  0  0  0  0  0  0  0
    7.0892  -13.9262   22.8164 C   0  0  0  0  0  0  0  0  0  0  0  0
    6.6458  -14.2011   21.5408 C   0  0  0  0  0  0  0  0  0  0  0  0
    6.8797  -13.3516   20.4781 C   0  0  0  0  0  0  0  0  0  0  0  0
    7.5810  -12.1785   20.6768 C   0  0  0  0  0  0  0  0  0  0  0  0
    8.0396  -11.8811   21.9642 C   0  0  0  0  0  0  0  0  0  0  0  0
    7.7880  -12.7494   22.9952 C   0  0  0  0  0  0  0  0  0  0  0  0
    7.5156  -16.8059   25.2813 C   0  0  0  0  0  0  0  0  0  0  0  0
    6.3763  -17.2673   25.5397 O   0  0  0  0  0  0  0  0  0  0  0  0
    8.5698  -17.0485   26.1849 N   0  0  0  0  0  0  0  0  0  0  0  0
    8.9310  -18.3229   26.7707 C   0  0  1  0  0  0  0  0  0  0  0  0
    8.9188  -19.4356   25.7990 C   0  0  0  0  0  0  0  0  0  0  0  0
    7.9641  -20.5416   26.0215 C   0  0  0  0  0  0  0  0  0  0  0  0
    8.0357  -21.6536   25.0103 C   0  0  0  0  0  0  0  0  0  0  0  0
    7.0215  -22.7443   25.2863 C   0  0  0  0  0  0  0  0  0  0  0  0
    7.2762  -23.8133   24.3350 N   0  0  0  0  0  0  0  0  0  0  0  0
   10.1210  -18.2464   27.6515 C   0  0  0  0  0  0  0  0  0  0  0  0
   11.1873  -17.6918   27.3033 O   0  0  0  0  0  0  0  0  0  0  0  0
   10.1065  -18.7928   28.9177 O   0  0  0  0  0  0  0  0  0  0  0  0
  2  1  1  6
  2  3  1  0
  3  4  1  0
  4  5  2  0
  6  5  1  0
  7  6  1  0
  8  7  2  0
  8  4  1  0
  9  2  1  0
 10  9  2  0
 11  9  1  0
 12 13  1  6
 12 11  1  0
 13 14  1  0
 14 15  2  0
 15 16  1  0
 17 16  2  0
 18 17  1  0
 19 18  2  0
 19 14  1  0
 20 22  1  0
 20 12  1  0
 21 20  2  0
 23 24  1  6
 23 22  1  0
 25 24  1  0
 26 27  1  0
 26 25  1  0
 27 28  1  0
 29 23  1  0
 29 31  1  0
 30 29  2  0
M  END
$$$$
