HFK.pdb
     RDKit          3D

 31 32  0  0  1  0  0  0  0  0999 V2000
    9.9700  -16.6628   19.3556 N   0  0  0  0  0  0  0  0  0  0  0  0
    9.0965  -17.0814   20.4243 C   0  0  1  0  0  0  0  0  0  0  0  0
    9.3570  -18.5381   20.6931 C   0  0  0  0  0  0  0  0  0  0  0  0
    8.9984  -19.3011   19.4760 C   0  0  0  0  0  0  0  0  0  0  0  0
    7.7199  -19.6533   19.1049 C   0  0  0  0  0  0  0  0  0  0  0  0
    7.7464  -20.3405   17.9488 N   0  0  0  0  0  0  0  0  0  0  0  0
    9.0288  -20.4270   17.5842 C   0  0  0  0  0  0  0  0  0  0  0  0
    9.7973  -19.7924   18.5160 N   0  0  0  0  0  0  0  0  0  0  0  0
    9.2262  -16.2357   21.6297 C   0  0  0  0  0  0  0  0  0  0  0  0
   10.3658  -16.0992   22.1416 O   0  0  0  0  0  0  0  0  0  0  0  0
    8.1543  -15.5615   22.2570 N   0  0  0  0  0  0  0  0  0  0  0  0
    8.2210  -14.8181   23.4667 C   0  0  1  0  0  0  0  0  0  0  0  0
    7.0631  -13.9121   23.7186 C   0  0  0  0  0  0  0  0  0  0  0  0
    7.0301  -13.3115   25.0500 C   0  0  0  0  0  0  0  0  0  0  0  0
    6.2391  -13.7508   26.0894 C   0  0  0  0  0  0  0  0  0  0  0  0
    6.2464  -13.1460   27.3303 C   0  0  0  0  0  0  0  0  0  0  0  0
    7.0680  -12.0600   27.5612 C   0  0  0  0  0  0  0  0  0  0  0  0
    7.8787  -11.5987   26.5190 C   0  0  0  0  0  0  0  0  0  0  0  0
    7.8443  -12.2253   25.2998 C   0  0  0  0  0  0  0  0  0  0  0  0
    8.4474  -15.7832   24.6001 C   0  0  0  0  0  0  0  0  0  0  0  0
    7.5382  -16.5908   24.9145 O   0  0  0  0  0  0  0  0  0  0  0  0
    9.6579  -15.8054   25.3218 N   0  0  0  0  0  0  0  0  0  0  0  0
    9.9864  -16.6738   26.4334 C   0  0  1  0  0  0  0  0  0  0  0  0
   11.1499  -17.5448   26.1688 C   0  0  0  0  0  0  0  0  0  0  0  0
   11.2593  -18.1714   24.8347 C   0  0  0  0  0  0  0  0  0  0  0  0
   12.4358  -19.0935   24.6622 C   0  0  0  0  0  0  0  0  0  0  0  0
   12.4380  -19.7711   23.3075 C   0  0  0  0  0  0  0  0  0  0  0  0
   13.6411  -20.5839   23.2400 N   0  0  0  0  0  0  0  0  0  0  0  0
    9.9847  -15.9766   27.7418 C   0  0  0  0  0  0  0  0  0  0  0  0
    9.9998  -14.7296   27.8451 O   0  0  0  0  0  0  0  0  0  0  0  0
    9.9657  -16.6835   28.9258 O   0  0  0  0  0  0  0  0  0  0  0  0
  2  1  1  6
  2  3  1  0
  3  4  1  0
  4  5  2  0
  6  5  1  0
  7  6  1  0
  8  7  2  0
  8  4  1  0
  9  2  1  0
 10  9  2  0
 11  9  1  0
 12 13  1  1
 12 11  1  0
 13 14  1  0
 14 15  2  0
 15 16  1  0
 17 16  2  0
 18 17  1  0
 19 18  2  0
 19 14  1  0
 20 22  1  0
 20 12  1  0
 21 20  2  0
 23 24  1  6
 23 22  1  0
 25 24  1  0
 26 27  1  0
 26 25  1  0
 27 28  1  0
 29 23  1  0
 29 31  1  0
 30 29  2  0
M  END
$$$$
