HFK.pdb
     RDKit          3D

 31 32  0  0  1  0  0  0  0  0999 V2000
    9.8443  -17.1868   19.4456 N   0  0  0  0  0  0  0  0  0  0  0  0
    8.7986  -17.4080   20.4141 C   0  0  1  0  0  0  0  0  0  0  0  0
    8.7156  -18.8863   20.6780 C   0  0  0  0  0  0  0  0  0  0  0  0
    8.0835  -19.5280   19.5030 C   0  0  0  0  0  0  0  0  0  0  0  0
    7.0788  -18.9770   18.7392 C   0  0  0  0  0  0  0  0  0  0  0  0
    6.7334  -19.8210   17.7503 N   0  0  0  0  0  0  0  0  0  0  0  0
    7.5093  -20.9009   17.8803 C   0  0  0  0  0  0  0  0  0  0  0  0
    8.3362  -20.7251   18.9512 N   0  0  0  0  0  0  0  0  0  0  0  0
    8.9824  -16.6075   21.6431 C   0  0  0  0  0  0  0  0  0  0  0  0
   10.1439  -16.4884   22.1081 O   0  0  0  0  0  0  0  0  0  0  0  0
    7.9398  -15.9589   22.3427 N   0  0  0  0  0  0  0  0  0  0  0  0
    8.0681  -15.2278   23.5549 C   0  0  1  0  0  0  0  0  0  0  0  0
    6.9257  -14.3229   23.8733 C   0  0  0  0  0  0  0  0  0  0  0  0
    7.0262  -13.6338   25.1575 C   0  0  0  0  0  0  0  0  0  0  0  0
    6.8116  -14.2249   26.3839 C   0  0  0  0  0  0  0  0  0  0  0  0
    6.9198  -13.5266   27.5698 C   0  0  0  0  0  0  0  0  0  0  0  0
    7.2539  -12.1866   27.5508 C   0  0  0  0  0  0  0  0  0  0  0  0
    7.4758  -11.5681   26.3161 C   0  0  0  0  0  0  0  0  0  0  0  0
    7.3591  -12.2943   25.1589 C   0  0  0  0  0  0  0  0  0  0  0  0
    8.3491  -16.2045   24.6659 C   0  0  0  0  0  0  0  0  0  0  0  0
    7.5110  -17.1038   24.9242 O   0  0  0  0  0  0  0  0  0  0  0  0
    9.5328  -16.1371   25.4280 N   0  0  0  0  0  0  0  0  0  0  0  0
    9.9606  -17.0743   26.4460 C   0  0  1  0  0  0  0  0  0  0  0  0
   11.2150  -17.7753   26.1030 C   0  0  0  0  0  0  0  0  0  0  0  0
   11.7180  -18.7990   27.0428 C   0  0  0  0  0  0  0  0  0  0  0  0
   12.9783  -19.4954   26.6062 C   0  0  0  0  0  0  0  0  0  0  0  0
   13.4487  -20.5168   27.6211 C   0  0  0  0  0  0  0  0  0  0  0  0
   14.5085  -21.2864   26.9907 N   0  0  0  0  0  0  0  0  0  0  0  0
    9.8829  -16.5227   27.8199 C   0  0  0  0  0  0  0  0  0  0  0  0
    9.4426  -17.1794   28.7898 O   0  0  0  0  0  0  0  0  0  0  0  0
   10.3000  -15.2376   28.0964 O   0  0  0  0  0  0  0  0  0  0  0  0
  2  1  1  6
  2  3  1  0
  3  4  1  0
  4  5  2  0
  6  5  1  0
  7  6  1  0
  8  7  2  0
  8  4  1  0
  9  2  1  0
 10  9  2  0
 11  9  1  0
 12 13  1  1
 12 11  1  0
 13 14  1  0
 14 15  2  0
 15 16  1  0
 17 16  2  0
 18 17  1  0
 19 18  2  0
 19 14  1  0
 20 22  1  0
 20 12  1  0
 21 20  2  0
 23 24  1  6
 23 22  1  0
 25 24  1  0
 26 27  1  0
 26 25  1  0
 27 28  1  0
 29 23  1  0
 29 31  1  0
 30 29  2  0
M  END
$$$$
