HFK.pdb
     RDKit          3D

 31 32  0  0  1  0  0  0  0  0999 V2000
    9.9806  -16.4779   19.1747 N   0  0  0  0  0  0  0  0  0  0  0  0
    8.7867  -16.5450   19.9813 C   0  0  1  0  0  0  0  0  0  0  0  0
    8.3839  -17.9895   20.0951 C   0  0  0  0  0  0  0  0  0  0  0  0
    7.9080  -18.4397   18.7674 C   0  0  0  0  0  0  0  0  0  0  0  0
    7.0470  -17.7405   17.9510 C   0  0  0  0  0  0  0  0  0  0  0  0
    6.8197  -18.4307   16.8190 N   0  0  0  0  0  0  0  0  0  0  0  0
    7.5280  -19.5599   16.9104 C   0  0  0  0  0  0  0  0  0  0  0  0
    8.1947  -19.5686   18.1007 N   0  0  0  0  0  0  0  0  0  0  0  0
    8.9477  -15.8814   21.2924 C   0  0  0  0  0  0  0  0  0  0  0  0
   10.0383  -16.0217   21.9009 O   0  0  0  0  0  0  0  0  0  0  0  0
    7.9574  -15.0927   21.9204 N   0  0  0  0  0  0  0  0  0  0  0  0
    8.0375  -14.5187   23.2183 C   0  0  1  0  0  0  0  0  0  0  0  0
    6.9128  -13.6077   23.5790 C   0  0  0  0  0  0  0  0  0  0  0  0
    6.9049  -13.1607   24.9698 C   0  0  0  0  0  0  0  0  0  0  0  0
    6.1172  -13.7012   25.9631 C   0  0  0  0  0  0  0  0  0  0  0  0
    6.1487  -13.2404   27.2641 C   0  0  0  0  0  0  0  0  0  0  0  0
    6.9922  -12.2015   27.6054 C   0  0  0  0  0  0  0  0  0  0  0  0
    7.8000  -11.6391   26.6116 C   0  0  0  0  0  0  0  0  0  0  0  0
    7.7413  -12.1235   25.3301 C   0  0  0  0  0  0  0  0  0  0  0  0
    8.2112  -15.6332   24.2158 C   0  0  0  0  0  0  0  0  0  0  0  0
    7.2654  -16.4349   24.4170 O   0  0  0  0  0  0  0  0  0  0  0  0
    9.4122  -15.8026   24.9337 N   0  0  0  0  0  0  0  0  0  0  0  0
    9.7060  -16.8459   25.8944 C   0  0  1  0  0  0  0  0  0  0  0  0
   10.8135  -17.7292   25.4755 C   0  0  0  0  0  0  0  0  0  0  0  0
   10.6481  -18.5075   24.2301 C   0  0  0  0  0  0  0  0  0  0  0  0
   11.7976  -19.4189   23.8950 C   0  0  0  0  0  0  0  0  0  0  0  0
   11.5410  -20.2256   22.6389 C   0  0  0  0  0  0  0  0  0  0  0  0
   12.7161  -21.0514   22.4157 N   0  0  0  0  0  0  0  0  0  0  0  0
    9.7629  -16.3557   27.2924 C   0  0  0  0  0  0  0  0  0  0  0  0
    9.5171  -17.0872   28.2775 O   0  0  0  0  0  0  0  0  0  0  0  0
   10.0957  -15.0477   27.5757 O   0  0  0  0  0  0  0  0  0  0  0  0
  2  1  1  1
  2  3  1  0
  3  4  1  0
  4  5  2  0
  6  5  1  0
  7  6  1  0
  8  7  2  0
  8  4  1  0
  9  2  1  0
 10  9  2  0
 11  9  1  0
 12 13  1  1
 12 11  1  0
 13 14  1  0
 14 15  2  0
 15 16  1  0
 17 16  2  0
 18 17  1  0
 19 18  2  0
 19 14  1  0
 20 22  1  0
 20 12  1  0
 21 20  2  0
 23 24  1  6
 23 22  1  0
 25 24  1  0
 26 27  1  0
 26 25  1  0
 27 28  1  0
 29 23  1  0
 29 31  1  0
 30 29  2  0
M  END
$$$$
