HFK.pdb
     RDKit          3D

 31 32  0  0  1  0  0  0  0  0999 V2000
   10.7843  -16.8375   19.6398 N   0  0  0  0  0  0  0  0  0  0  0  0
    9.5652  -16.9670   20.3998 C   0  0  1  0  0  0  0  0  0  0  0  0
    9.3041  -18.4330   20.6118 C   0  0  0  0  0  0  0  0  0  0  0  0
    8.8757  -19.0149   19.3196 C   0  0  0  0  0  0  0  0  0  0  0  0
    8.6188  -18.3004   18.1707 C   0  0  0  0  0  0  0  0  0  0  0  0
    8.2516  -19.1333   17.1802 N   0  0  0  0  0  0  0  0  0  0  0  0
    8.2734  -20.3679   17.6904 C   0  0  0  0  0  0  0  0  0  0  0  0
    8.6547  -20.2991   18.9986 N   0  0  0  0  0  0  0  0  0  0  0  0
    9.5948  -16.1938   21.6593 C   0  0  0  0  0  0  0  0  0  0  0  0
   10.6704  -16.1532   22.3080 O   0  0  0  0  0  0  0  0  0  0  0  0
    8.4934  -15.4889   22.1951 N   0  0  0  0  0  0  0  0  0  0  0  0
    8.4495  -14.8271   23.4523 C   0  0  1  0  0  0  0  0  0  0  0  0
    7.3054  -13.8875   23.6343 C   0  0  0  0  0  0  0  0  0  0  0  0
    7.1895  -13.3111   24.9717 C   0  0  0  0  0  0  0  0  0  0  0  0
    6.3201  -13.7548   25.9446 C   0  0  0  0  0  0  0  0  0  0  0  0
    6.2508  -13.1732   27.1947 C   0  0  0  0  0  0  0  0  0  0  0  0
    7.0726  -12.1071   27.5036 C   0  0  0  0  0  0  0  0  0  0  0  0
    7.9622  -11.6416   26.5298 C   0  0  0  0  0  0  0  0  0  0  0  0
    8.0026  -12.2448   25.2991 C   0  0  0  0  0  0  0  0  0  0  0  0
    8.5084  -15.8710   24.5358 C   0  0  0  0  0  0  0  0  0  0  0  0
    7.6181  -16.7554   24.5904 O   0  0  0  0  0  0  0  0  0  0  0  0
    9.5404  -15.8831   25.4957 N   0  0  0  0  0  0  0  0  0  0  0  0
    9.7645  -16.8902   26.5122 C   0  0  1  0  0  0  0  0  0  0  0  0
   10.5375  -18.0503   26.0232 C   0  0  0  0  0  0  0  0  0  0  0  0
   10.8142  -19.1499   26.9711 C   0  0  0  0  0  0  0  0  0  0  0  0
   11.6485  -20.2716   26.4143 C   0  0  0  0  0  0  0  0  0  0  0  0
   11.9341  -21.3404   27.4489 C   0  0  0  0  0  0  0  0  0  0  0  0
   12.7228  -22.3693   26.7916 N   0  0  0  0  0  0  0  0  0  0  0  0
   10.1996  -16.3243   27.8115 C   0  0  0  0  0  0  0  0  0  0  0  0
   10.2166  -16.9919   28.8698 O   0  0  0  0  0  0  0  0  0  0  0  0
   10.6132  -15.0127   27.9147 O   0  0  0  0  0  0  0  0  0  0  0  0
  2  1  1  1
  2  3  1  0
  3  4  1  0
  4  5  2  0
  6  5  1  0
  7  6  1  0
  8  7  2  0
  8  4  1  0
  9  2  1  0
 10  9  2  0
 11  9  1  0
 12 13  1  6
 12 11  1  0
 13 14  1  0
 14 15  2  0
 15 16  1  0
 17 16  2  0
 18 17  1  0
 19 18  2  0
 19 14  1  0
 20 22  1  0
 20 12  1  0
 21 20  2  0
 23 24  1  6
 23 22  1  0
 25 24  1  0
 26 27  1  0
 26 25  1  0
 27 28  1  0
 29 23  1  0
 29 31  1  0
 30 29  2  0
M  END
$$$$
