HFK.pdb
     RDKit          3D

 31 32  0  0  1  0  0  0  0  0999 V2000
   10.3735  -15.0194   21.5525 N   0  0  0  0  0  0  0  0  0  0  0  0
    9.0601  -14.8477   22.1235 C   0  0  1  0  0  0  0  0  0  0  0  0
    8.0576  -15.4295   21.1650 C   0  0  0  0  0  0  0  0  0  0  0  0
    8.0084  -14.5600   19.9678 C   0  0  0  0  0  0  0  0  0  0  0  0
    8.8216  -13.4722   19.7397 C   0  0  0  0  0  0  0  0  0  0  0  0
    8.5149  -12.9045   18.5594 N   0  0  0  0  0  0  0  0  0  0  0  0
    7.5157  -13.6219   18.0378 C   0  0  0  0  0  0  0  0  0  0  0  0
    7.2034  -14.6351   18.8965 N   0  0  0  0  0  0  0  0  0  0  0  0
    8.9544  -15.4090   23.4869 C   0  0  0  0  0  0  0  0  0  0  0  0
   10.0066  -15.7961   24.0547 O   0  0  0  0  0  0  0  0  0  0  0  0
    7.7468  -15.5449   24.2081 N   0  0  0  0  0  0  0  0  0  0  0  0
    7.6219  -15.8823   25.5833 C   0  0  1  0  0  0  0  0  0  0  0  0
    6.5280  -15.1771   26.3121 C   0  0  0  0  0  0  0  0  0  0  0  0
    6.6575  -13.7227   26.3584 C   0  0  0  0  0  0  0  0  0  0  0  0
    5.6593  -12.8350   26.0193 C   0  0  0  0  0  0  0  0  0  0  0  0
    5.8345  -11.4671   26.0811 C   0  0  0  0  0  0  0  0  0  0  0  0
    7.0452  -10.9469   26.4948 C   0  0  0  0  0  0  0  0  0  0  0  0
    8.0712  -11.8312   26.8434 C   0  0  0  0  0  0  0  0  0  0  0  0
    7.8600  -13.1840   26.7693 C   0  0  0  0  0  0  0  0  0  0  0  0
    7.5070  -17.3797   25.6919 C   0  0  0  0  0  0  0  0  0  0  0  0
    6.5791  -17.8799   26.3750 O   0  0  0  0  0  0  0  0  0  0  0  0
    8.4165  -18.2401   25.0446 N   0  0  0  0  0  0  0  0  0  0  0  0
    9.2587  -19.2381   25.6711 C   0  0  1  0  0  0  0  0  0  0  0  0
   10.4791  -19.5411   24.8958 C   0  0  0  0  0  0  0  0  0  0  0  0
   11.4027  -20.5655   25.4266 C   0  0  0  0  0  0  0  0  0  0  0  0
   12.6167  -20.8256   24.5765 C   0  0  0  0  0  0  0  0  0  0  0  0
   13.4713  -21.9484   25.1275 C   0  0  0  0  0  0  0  0  0  0  0  0
   14.4736  -22.2542   24.1202 N   0  0  0  0  0  0  0  0  0  0  0  0
    9.4545  -19.0114   27.1230 C   0  0  0  0  0  0  0  0  0  0  0  0
    8.9943  -19.7799   27.9969 O   0  0  0  0  0  0  0  0  0  0  0  0
   10.1657  -17.9239   27.5849 O   0  0  0  0  0  0  0  0  0  0  0  0
  2  1  1  6
  2  3  1  0
  3  4  1  0
  4  5  2  0
  6  5  1  0
  7  6  1  0
  8  7  2  0
  8  4  1  0
  9  2  1  0
 10  9  2  0
 11  9  1  0
 12 13  1  6
 12 11  1  0
 13 14  1  0
 14 15  2  0
 15 16  1  0
 17 16  2  0
 18 17  1  0
 19 18  2  0
 19 14  1  0
 20 22  1  0
 20 12  1  0
 21 20  2  0
 23 24  1  6
 23 22  1  0
 25 24  1  0
 26 27  1  0
 26 25  1  0
 27 28  1  0
 29 23  1  0
 29 31  1  0
 30 29  2  0
M  END
$$$$
