HFK.pdb
     RDKit          3D

 31 32  0  0  1  0  0  0  0  0999 V2000
   10.3530  -16.6072   19.5309 N   0  0  0  0  0  0  0  0  0  0  0  0
    9.0857  -16.5224   20.2144 C   0  0  1  0  0  0  0  0  0  0  0  0
    8.4644  -17.8921   20.2118 C   0  0  0  0  0  0  0  0  0  0  0  0
    8.1321  -18.2432   18.8125 C   0  0  0  0  0  0  0  0  0  0  0  0
    7.6085  -17.3783   17.8774 C   0  0  0  0  0  0  0  0  0  0  0  0
    7.4255  -18.0170   16.7077 N   0  0  0  0  0  0  0  0  0  0  0  0
    7.8278  -19.2775   16.8928 C   0  0  0  0  0  0  0  0  0  0  0  0
    8.2606  -19.4193   18.1789 N   0  0  0  0  0  0  0  0  0  0  0  0
    9.2069  -15.9417   21.5684 C   0  0  0  0  0  0  0  0  0  0  0  0
   10.3051  -16.0551   22.1688 O   0  0  0  0  0  0  0  0  0  0  0  0
    8.1704  -15.2613   22.2463 N   0  0  0  0  0  0  0  0  0  0  0  0
    8.2386  -14.7173   23.5577 C   0  0  1  0  0  0  0  0  0  0  0  0
    7.1424  -13.7681   23.9080 C   0  0  0  0  0  0  0  0  0  0  0  0
    7.1728  -13.2735   25.2823 C   0  0  0  0  0  0  0  0  0  0  0  0
    8.0983  -12.3785   25.7737 C   0  0  0  0  0  0  0  0  0  0  0  0
    8.0818  -11.9427   27.0835 C   0  0  0  0  0  0  0  0  0  0  0  0
    7.1121  -12.4069   27.9505 C   0  0  0  0  0  0  0  0  0  0  0  0
    6.1633  -13.3159   27.4712 C   0  0  0  0  0  0  0  0  0  0  0  0
    6.2117  -13.7260   26.1636 C   0  0  0  0  0  0  0  0  0  0  0  0
    8.3398  -15.8578   24.5355 C   0  0  0  0  0  0  0  0  0  0  0  0
    7.3344  -16.5801   24.7482 O   0  0  0  0  0  0  0  0  0  0  0  0
    9.5381  -16.1388   25.2224 N   0  0  0  0  0  0  0  0  0  0  0  0
    9.7462  -17.1788   26.2088 C   0  0  1  0  0  0  0  0  0  0  0  0
   10.6734  -18.2356   25.7550 C   0  0  0  0  0  0  0  0  0  0  0  0
   10.3069  -19.0113   24.5515 C   0  0  0  0  0  0  0  0  0  0  0  0
   11.2663  -20.1130   24.1912 C   0  0  0  0  0  0  0  0  0  0  0  0
   10.7718  -20.9439   23.0252 C   0  0  0  0  0  0  0  0  0  0  0  0
   11.8234  -21.8943   22.7034 N   0  0  0  0  0  0  0  0  0  0  0  0
    9.9842  -16.6521   27.5739 C   0  0  0  0  0  0  0  0  0  0  0  0
   10.5331  -15.5481   27.7881 O   0  0  0  0  0  0  0  0  0  0  0  0
    9.6045  -17.3677   28.6900 O   0  0  0  0  0  0  0  0  0  0  0  0
  2  1  1  1
  2  3  1  0
  3  4  1  0
  4  5  2  0
  6  5  1  0
  7  6  1  0
  8  7  2  0
  8  4  1  0
  9  2  1  0
 10  9  2  0
 11  9  1  0
 12 13  1  1
 12 11  1  0
 13 14  1  0
 14 15  2  0
 15 16  1  0
 17 16  2  0
 18 17  1  0
 19 18  2  0
 19 14  1  0
 20 22  1  0
 20 12  1  0
 21 20  2  0
 23 24  1  6
 23 22  1  0
 25 24  1  0
 26 27  1  0
 26 25  1  0
 27 28  1  0
 29 23  1  0
 29 31  1  0
 30 29  2  0
M  END
$$$$
