HFK.pdb
     RDKit          3D

 31 32  0  0  1  0  0  0  0  0999 V2000
   10.2084  -16.7753   19.3160 N   0  0  0  0  0  0  0  0  0  0  0  0
    9.0676  -16.8831   20.1920 C   0  0  1  0  0  0  0  0  0  0  0  0
    8.8008  -18.3442   20.4291 C   0  0  0  0  0  0  0  0  0  0  0  0
    8.1790  -18.9019   19.2067 C   0  0  0  0  0  0  0  0  0  0  0  0
    7.4135  -18.1927   18.3082 C   0  0  0  0  0  0  0  0  0  0  0  0
    7.0037  -18.9986   17.3121 N   0  0  0  0  0  0  0  0  0  0  0  0
    7.5020  -20.2109   17.5709 C   0  0  0  0  0  0  0  0  0  0  0  0
    8.2214  -20.1553   18.7289 N   0  0  0  0  0  0  0  0  0  0  0  0
    9.2352  -16.1125   21.4423 C   0  0  0  0  0  0  0  0  0  0  0  0
   10.3537  -16.1419   22.0145 O   0  0  0  0  0  0  0  0  0  0  0  0
    8.2221  -15.3366   22.0496 N   0  0  0  0  0  0  0  0  0  0  0  0
    8.3042  -14.6839   23.3096 C   0  0  1  0  0  0  0  0  0  0  0  0
    7.2201  -13.6967   23.5839 C   0  0  0  0  0  0  0  0  0  0  0  0
    7.2705  -13.0793   24.9069 C   0  0  0  0  0  0  0  0  0  0  0  0
    8.2083  -12.1509   25.3042 C   0  0  0  0  0  0  0  0  0  0  0  0
    8.2107  -11.5976   26.5689 C   0  0  0  0  0  0  0  0  0  0  0  0
    7.2483  -11.9729   27.4856 C   0  0  0  0  0  0  0  0  0  0  0  0
    6.2873  -12.9140   27.1019 C   0  0  0  0  0  0  0  0  0  0  0  0
    6.3169  -13.4418   25.8366 C   0  0  0  0  0  0  0  0  0  0  0  0
    8.3998  -15.7383   24.3803 C   0  0  0  0  0  0  0  0  0  0  0  0
    7.4617  -16.5614   24.5221 O   0  0  0  0  0  0  0  0  0  0  0  0
    9.5190  -15.8275   25.2324 N   0  0  0  0  0  0  0  0  0  0  0  0
    9.7657  -16.8456   26.2326 C   0  0  1  0  0  0  0  0  0  0  0  0
   10.8212  -17.8027   25.8424 C   0  0  0  0  0  0  0  0  0  0  0  0
   11.1124  -18.9266   26.7569 C   0  0  0  0  0  0  0  0  0  0  0  0
   12.1705  -19.8802   26.2721 C   0  0  0  0  0  0  0  0  0  0  0  0
   12.4415  -20.9888   27.2680 C   0  0  0  0  0  0  0  0  0  0  0  0
   13.3934  -21.8953   26.6476 N   0  0  0  0  0  0  0  0  0  0  0  0
    9.8609  -16.3035   27.6091 C   0  0  0  0  0  0  0  0  0  0  0  0
    9.1592  -16.7277   28.5545 O   0  0  0  0  0  0  0  0  0  0  0  0
   10.7431  -15.2888   27.9159 O   0  0  0  0  0  0  0  0  0  0  0  0
  2  1  1  6
  2  3  1  0
  3  4  1  0
  4  5  2  0
  6  5  1  0
  7  6  1  0
  8  7  2  0
  8  4  1  0
  9  2  1  0
 10  9  2  0
 11  9  1  0
 12 13  1  1
 12 11  1  0
 13 14  1  0
 14 15  2  0
 15 16  1  0
 17 16  2  0
 18 17  1  0
 19 18  2  0
 19 14  1  0
 20 22  1  0
 20 12  1  0
 21 20  2  0
 23 24  1  6
 23 22  1  0
 25 24  1  0
 26 27  1  0
 26 25  1  0
 27 28  1  0
 29 23  1  0
 29 31  1  0
 30 29  2  0
M  END
$$$$
