HFK.pdb
     RDKit          3D

 31 32  0  0  1  0  0  0  0  0999 V2000
   10.1972  -16.5610   19.3675 N   0  0  0  0  0  0  0  0  0  0  0  0
    8.9212  -16.4444   20.0299 C   0  0  1  0  0  0  0  0  0  0  0  0
    8.2555  -17.7925   19.9953 C   0  0  0  0  0  0  0  0  0  0  0  0
    7.8940  -18.0906   18.5909 C   0  0  0  0  0  0  0  0  0  0  0  0
    7.4820  -17.1625   17.6606 C   0  0  0  0  0  0  0  0  0  0  0  0
    7.2334  -17.7656   16.4841 N   0  0  0  0  0  0  0  0  0  0  0  0
    7.4839  -19.0661   16.6601 C   0  0  0  0  0  0  0  0  0  0  0  0
    7.8882  -19.2683   17.9474 N   0  0  0  0  0  0  0  0  0  0  0  0
    9.0371  -15.8881   21.3945 C   0  0  0  0  0  0  0  0  0  0  0  0
   10.0228  -16.2297   22.0952 O   0  0  0  0  0  0  0  0  0  0  0  0
    8.1133  -14.9914   21.9774 N   0  0  0  0  0  0  0  0  0  0  0  0
    8.1765  -14.4559   23.2926 C   0  0  1  0  0  0  0  0  0  0  0  0
    7.1696  -13.3977   23.5951 C   0  0  0  0  0  0  0  0  0  0  0  0
    7.1801  -12.9147   24.9738 C   0  0  0  0  0  0  0  0  0  0  0  0
    8.1284  -12.0643   25.4999 C   0  0  0  0  0  0  0  0  0  0  0  0
    8.0915  -11.6375   26.8123 C   0  0  0  0  0  0  0  0  0  0  0  0
    7.0771  -12.0652   27.6462 C   0  0  0  0  0  0  0  0  0  0  0  0
    6.1047  -12.9287   27.1314 C   0  0  0  0  0  0  0  0  0  0  0  0
    6.1743  -13.3312   25.8224 C   0  0  0  0  0  0  0  0  0  0  0  0
    8.1132  -15.5997   24.2698 C   0  0  0  0  0  0  0  0  0  0  0  0
    7.2147  -16.4687   24.1462 O   0  0  0  0  0  0  0  0  0  0  0  0
    9.0394  -15.7228   25.3251 N   0  0  0  0  0  0  0  0  0  0  0  0
    9.4744  -16.9522   25.9552 C   0  0  1  0  0  0  0  0  0  0  0  0
    9.8623  -17.9981   24.9868 C   0  0  0  0  0  0  0  0  0  0  0  0
   10.1990  -19.3387   25.5100 C   0  0  0  0  0  0  0  0  0  0  0  0
   10.6021  -20.3438   24.4653 C   0  0  0  0  0  0  0  0  0  0  0  0
   10.9075  -21.7010   25.0647 C   0  0  0  0  0  0  0  0  0  0  0  0
   11.2463  -22.5865   23.9629 N   0  0  0  0  0  0  0  0  0  0  0  0
   10.4136  -16.7328   27.0811 C   0  0  0  0  0  0  0  0  0  0  0  0
   10.3777  -17.4071   28.1347 O   0  0  0  0  0  0  0  0  0  0  0  0
   11.3872  -15.7582   27.0172 O   0  0  0  0  0  0  0  0  0  0  0  0
  2  1  1  1
  2  3  1  0
  3  4  1  0
  4  5  2  0
  6  5  1  0
  7  6  1  0
  8  7  2  0
  8  4  1  0
  9  2  1  0
 10  9  2  0
 11  9  1  0
 12 13  1  1
 12 11  1  0
 13 14  1  0
 14 15  2  0
 15 16  1  0
 17 16  2  0
 18 17  1  0
 19 18  2  0
 19 14  1  0
 20 22  1  0
 20 12  1  0
 21 20  2  0
 23 24  1  6
 23 22  1  0
 25 24  1  0
 26 27  1  0
 26 25  1  0
 27 28  1  0
 29 23  1  0
 29 31  1  0
 30 29  2  0
M  END
$$$$
