HFK.pdb
     RDKit          3D

 31 32  0  0  1  0  0  0  0  0999 V2000
   10.3161  -17.1063   19.6210 N   0  0  0  0  0  0  0  0  0  0  0  0
    9.0407  -16.9560   20.2777 C   0  0  1  0  0  0  0  0  0  0  0  0
    8.4038  -18.3152   20.3714 C   0  0  0  0  0  0  0  0  0  0  0  0
    7.7081  -18.5857   19.0928 C   0  0  0  0  0  0  0  0  0  0  0  0
    7.6820  -17.7401   18.0062 C   0  0  0  0  0  0  0  0  0  0  0  0
    6.9627  -18.2885   17.0104 N   0  0  0  0  0  0  0  0  0  0  0  0
    6.5331  -19.4726   17.4556 C   0  0  0  0  0  0  0  0  0  0  0  0
    6.9872  -19.6576   18.7289 N   0  0  0  0  0  0  0  0  0  0  0  0
    9.1504  -16.2741   21.5847 C   0  0  0  0  0  0  0  0  0  0  0  0
   10.1224  -16.5627   22.3272 O   0  0  0  0  0  0  0  0  0  0  0  0
    8.2353  -15.3118   22.0679 N   0  0  0  0  0  0  0  0  0  0  0  0
    8.2844  -14.6652   23.3328 C   0  0  1  0  0  0  0  0  0  0  0  0
    7.4105  -13.4635   23.4647 C   0  0  0  0  0  0  0  0  0  0  0  0
    7.3733  -12.8736   24.8007 C   0  0  0  0  0  0  0  0  0  0  0  0
    8.3841  -12.1168   25.3526 C   0  0  0  0  0  0  0  0  0  0  0  0
    8.2977  -11.5816   26.6222 C   0  0  0  0  0  0  0  0  0  0  0  0
    7.1671  -11.7996   27.3849 C   0  0  0  0  0  0  0  0  0  0  0  0
    6.1297  -12.5653   26.8429 C   0  0  0  0  0  0  0  0  0  0  0  0
    6.2516  -13.0805   25.5780 C   0  0  0  0  0  0  0  0  0  0  0  0
    8.0059  -15.6928   24.3976 C   0  0  0  0  0  0  0  0  0  0  0  0
    7.0441  -16.4875   24.2524 O   0  0  0  0  0  0  0  0  0  0  0  0
    8.7990  -15.7880   25.5588 N   0  0  0  0  0  0  0  0  0  0  0  0
    9.0999  -16.9927   26.3045 C   0  0  1  0  0  0  0  0  0  0  0  0
    9.5722  -18.1031   25.4523 C   0  0  0  0  0  0  0  0  0  0  0  0
   10.0255  -19.3435   26.1158 C   0  0  0  0  0  0  0  0  0  0  0  0
   10.5241  -20.4147   25.1841 C   0  0  0  0  0  0  0  0  0  0  0  0
   10.9701  -21.6571   25.9270 C   0  0  0  0  0  0  0  0  0  0  0  0
   11.5912  -22.5369   24.9508 N   0  0  0  0  0  0  0  0  0  0  0  0
    9.8897  -16.7391   27.5331 C   0  0  0  0  0  0  0  0  0  0  0  0
   10.6649  -15.7639   27.6511 O   0  0  0  0  0  0  0  0  0  0  0  0
    9.8043  -17.5816   28.6216 O   0  0  0  0  0  0  0  0  0  0  0  0
  2  1  1  1
  2  3  1  0
  3  4  1  0
  4  5  2  0
  6  5  1  0
  7  6  1  0
  8  7  2  0
  8  4  1  0
  9  2  1  0
 10  9  2  0
 11  9  1  0
 12 13  1  6
 12 11  1  0
 13 14  1  0
 14 15  2  0
 15 16  1  0
 17 16  2  0
 18 17  1  0
 19 18  2  0
 19 14  1  0
 20 22  1  0
 20 12  1  0
 21 20  2  0
 23 24  1  6
 23 22  1  0
 25 24  1  0
 26 27  1  0
 26 25  1  0
 27 28  1  0
 29 23  1  0
 29 31  1  0
 30 29  2  0
M  END
$$$$
