HFK.pdb
     RDKit          3D

 31 32  0  0  1  0  0  0  0  0999 V2000
   10.5911  -15.5268   19.5105 N   0  0  0  0  0  0  0  0  0  0  0  0
    9.2787  -15.1218   19.9507 C   0  0  1  0  0  0  0  0  0  0  0  0
    8.2636  -15.9186   19.1782 C   0  0  0  0  0  0  0  0  0  0  0  0
    8.3432  -15.5098   17.7575 C   0  0  0  0  0  0  0  0  0  0  0  0
    8.3544  -14.2101   17.3023 C   0  0  0  0  0  0  0  0  0  0  0  0
    8.4341  -14.1907   15.9596 N   0  0  0  0  0  0  0  0  0  0  0  0
    8.4736  -15.4650   15.5601 C   0  0  0  0  0  0  0  0  0  0  0  0
    8.4181  -16.2744   16.6570 N   0  0  0  0  0  0  0  0  0  0  0  0
    9.1108  -15.2307   21.4153 C   0  0  0  0  0  0  0  0  0  0  0  0
    9.9320  -15.9318   22.0583 O   0  0  0  0  0  0  0  0  0  0  0  0
    8.0858  -14.5994   22.1555 N   0  0  0  0  0  0  0  0  0  0  0  0
    8.1324  -14.2581   23.5345 C   0  0  1  0  0  0  0  0  0  0  0  0
    7.2686  -13.1089   23.9326 C   0  0  0  0  0  0  0  0  0  0  0  0
    7.2127  -12.8501   25.3693 C   0  0  0  0  0  0  0  0  0  0  0  0
    8.2147  -12.2457   26.0971 C   0  0  0  0  0  0  0  0  0  0  0  0
    8.1107  -12.0243   27.4558 C   0  0  0  0  0  0  0  0  0  0  0  0
    6.9706  -12.4143   28.1307 C   0  0  0  0  0  0  0  0  0  0  0  0
    5.9418  -13.0295   27.4100 C   0  0  0  0  0  0  0  0  0  0  0  0
    6.0812  -13.2327   26.0611 C   0  0  0  0  0  0  0  0  0  0  0  0
    7.8376  -15.4980   24.3364 C   0  0  0  0  0  0  0  0  0  0  0  0
    6.6988  -16.0233   24.2651 O   0  0  0  0  0  0  0  0  0  0  0  0
    8.8093  -16.0886   25.1691 N   0  0  0  0  0  0  0  0  0  0  0  0
    8.6301  -17.2455   26.0218 C   0  0  1  0  0  0  0  0  0  0  0  0
    8.7844  -18.5278   25.3047 C   0  0  0  0  0  0  0  0  0  0  0  0
    9.6612  -18.5573   24.1153 C   0  0  0  0  0  0  0  0  0  0  0  0
    9.7012  -19.8751   23.3900 C   0  0  0  0  0  0  0  0  0  0  0  0
   10.6444  -19.8478   22.2051 C   0  0  0  0  0  0  0  0  0  0  0  0
   10.5454  -21.1427   21.5522 N   0  0  0  0  0  0  0  0  0  0  0  0
    9.3474  -17.1371   27.3146 C   0  0  0  0  0  0  0  0  0  0  0  0
   10.1070  -16.1815   27.5900 O   0  0  0  0  0  0  0  0  0  0  0  0
    9.2076  -18.1018   28.2902 O   0  0  0  0  0  0  0  0  0  0  0  0
  2  1  1  1
  2  3  1  0
  3  4  1  0
  4  5  2  0
  6  5  1  0
  7  6  1  0
  8  7  2  0
  8  4  1  0
  9  2  1  0
 10  9  2  0
 11  9  1  0
 12 13  1  6
 12 11  1  0
 13 14  1  0
 14 15  2  0
 15 16  1  0
 17 16  2  0
 18 17  1  0
 19 18  2  0
 19 14  1  0
 20 22  1  0
 20 12  1  0
 21 20  2  0
 23 24  1  6
 23 22  1  0
 25 24  1  0
 26 27  1  0
 26 25  1  0
 27 28  1  0
 29 23  1  0
 29 31  1  0
 30 29  2  0
M  END
$$$$
