HFK.pdb
     RDKit          3D

 31 32  0  0  1  0  0  0  0  0999 V2000
   10.2667  -13.7614   20.7150 N   0  0  0  0  0  0  0  0  0  0  0  0
    9.0477  -14.3133   21.2533 C   0  0  1  0  0  0  0  0  0  0  0  0
    8.5667  -15.3827   20.3115 C   0  0  0  0  0  0  0  0  0  0  0  0
    8.3188  -14.7562   18.9932 C   0  0  0  0  0  0  0  0  0  0  0  0
    8.6454  -13.4626   18.6523 C   0  0  0  0  0  0  0  0  0  0  0  0
    8.2835  -13.2137   17.3808 N   0  0  0  0  0  0  0  0  0  0  0  0
    7.7311  -14.3367   16.9132 C   0  0  0  0  0  0  0  0  0  0  0  0
    7.7510  -15.2822   17.8967 N   0  0  0  0  0  0  0  0  0  0  0  0
    9.2043  -14.7907   22.6436 C   0  0  0  0  0  0  0  0  0  0  0  0
   10.3494  -15.1367   23.0289 O   0  0  0  0  0  0  0  0  0  0  0  0
    8.1527  -14.8886   23.5825 N   0  0  0  0  0  0  0  0  0  0  0  0
    8.2644  -15.3379   24.9264 C   0  0  1  0  0  0  0  0  0  0  0  0
    7.0922  -15.0315   25.7966 C   0  0  0  0  0  0  0  0  0  0  0  0
    6.8944  -13.6131   26.0855 C   0  0  0  0  0  0  0  0  0  0  0  0
    5.8300  -12.8620   25.6360 C   0  0  0  0  0  0  0  0  0  0  0  0
    5.6909  -11.5223   25.9388 C   0  0  0  0  0  0  0  0  0  0  0  0
    6.6402  -10.8913   26.7185 C   0  0  0  0  0  0  0  0  0  0  0  0
    7.7284  -11.6362   27.1846 C   0  0  0  0  0  0  0  0  0  0  0  0
    7.8327  -12.9651   26.8631 C   0  0  0  0  0  0  0  0  0  0  0  0
    8.5907  -16.8077   24.9056 C   0  0  0  0  0  0  0  0  0  0  0  0
    8.0304  -17.5528   24.0639 O   0  0  0  0  0  0  0  0  0  0  0  0
    9.5125  -17.3734   25.8094 N   0  0  0  0  0  0  0  0  0  0  0  0
   10.0594  -18.7137   25.7616 C   0  0  1  0  0  0  0  0  0  0  0  0
   10.5938  -19.0783   24.4335 C   0  0  0  0  0  0  0  0  0  0  0  0
   11.2387  -20.3996   24.2832 C   0  0  0  0  0  0  0  0  0  0  0  0
   11.7757  -20.6898   22.9079 C   0  0  0  0  0  0  0  0  0  0  0  0
   12.4271  -22.0548   22.8242 C   0  0  0  0  0  0  0  0  0  0  0  0
   12.8331  -22.2488   21.4421 N   0  0  0  0  0  0  0  0  0  0  0  0
   10.9293  -19.0329   26.9188 C   0  0  0  0  0  0  0  0  0  0  0  0
   11.2641  -20.2023   27.2126 O   0  0  0  0  0  0  0  0  0  0  0  0
   11.4180  -18.0375   27.7388 O   0  0  0  0  0  0  0  0  0  0  0  0
  2  1  1  6
  2  3  1  0
  3  4  1  0
  4  5  2  0
  6  5  1  0
  7  6  1  0
  8  7  2  0
  8  4  1  0
  9  2  1  0
 10  9  2  0
 11  9  1  0
 12 13  1  1
 12 11  1  0
 13 14  1  0
 14 15  2  0
 15 16  1  0
 17 16  2  0
 18 17  1  0
 19 18  2  0
 19 14  1  0
 20 22  1  0
 20 12  1  0
 21 20  2  0
 23 24  1  6
 23 22  1  0
 25 24  1  0
 26 27  1  0
 26 25  1  0
 27 28  1  0
 29 23  1  0
 29 31  1  0
 30 29  2  0
M  END
$$$$
