HFK.pdb
     RDKit          3D

 31 32  0  0  1  0  0  0  0  0999 V2000
    8.8597  -17.4317   20.1047 N   0  0  0  0  0  0  0  0  0  0  0  0
   10.0765  -16.7583   20.4872 C   0  0  1  0  0  0  0  0  0  0  0  0
   10.6515  -16.1061   19.2600 C   0  0  0  0  0  0  0  0  0  0  0  0
   10.5296  -17.0589   18.1334 C   0  0  0  0  0  0  0  0  0  0  0  0
   11.5742  -17.7423   17.5519 C   0  0  0  0  0  0  0  0  0  0  0  0
   11.1187  -18.5241   16.5565 N   0  0  0  0  0  0  0  0  0  0  0  0
    9.7962  -18.3427   16.5019 C   0  0  0  0  0  0  0  0  0  0  0  0
    9.4325  -17.4473   17.4650 N   0  0  0  0  0  0  0  0  0  0  0  0
    9.8768  -15.8147   21.6074 C   0  0  0  0  0  0  0  0  0  0  0  0
   10.8284  -15.0579   21.9254 O   0  0  0  0  0  0  0  0  0  0  0  0
    8.6840  -15.6978   22.3562 N   0  0  0  0  0  0  0  0  0  0  0  0
    8.5086  -14.9393   23.5455 C   0  0  1  0  0  0  0  0  0  0  0  0
    7.4299  -13.9105   23.4878 C   0  0  0  0  0  0  0  0  0  0  0  0
    7.1646  -13.2259   24.7508 C   0  0  0  0  0  0  0  0  0  0  0  0
    6.2808  -13.6670   25.7117 C   0  0  0  0  0  0  0  0  0  0  0  0
    6.0671  -12.9804   26.8902 C   0  0  0  0  0  0  0  0  0  0  0  0
    6.7526  -11.8070   27.1364 C   0  0  0  0  0  0  0  0  0  0  0  0
    7.6543  -11.3423   26.1735 C   0  0  0  0  0  0  0  0  0  0  0  0
    7.8402  -12.0516   25.0147 C   0  0  0  0  0  0  0  0  0  0  0  0
    8.3220  -15.8978   24.6916 C   0  0  0  0  0  0  0  0  0  0  0  0
    7.3228  -16.6588   24.7039 O   0  0  0  0  0  0  0  0  0  0  0  0
    9.2426  -15.9651   25.7568 N   0  0  0  0  0  0  0  0  0  0  0  0
    9.7905  -17.1664   26.3521 C   0  0  1  0  0  0  0  0  0  0  0  0
   10.2363  -18.1604   25.3543 C   0  0  0  0  0  0  0  0  0  0  0  0
   10.7871  -19.4403   25.8471 C   0  0  0  0  0  0  0  0  0  0  0  0
    9.7570  -20.4554   26.2625 C   0  0  0  0  0  0  0  0  0  0  0  0
   10.3857  -21.7600   26.7064 C   0  0  0  0  0  0  0  0  0  0  0  0
    9.3138  -22.5953   27.2222 N   0  0  0  0  0  0  0  0  0  0  0  0
   10.7371  -16.8921   27.4595 C   0  0  0  0  0  0  0  0  0  0  0  0
   11.7172  -16.1234   27.3384 O   0  0  0  0  0  0  0  0  0  0  0  0
   10.5778  -17.4821   28.6958 O   0  0  0  0  0  0  0  0  0  0  0  0
  2  1  1  6
  2  3  1  0
  3  4  1  0
  4  5  2  0
  6  5  1  0
  7  6  1  0
  8  7  2  0
  8  4  1  0
  9  2  1  0
 10  9  2  0
 11  9  1  0
 12 13  1  6
 12 11  1  0
 13 14  1  0
 14 15  2  0
 15 16  1  0
 17 16  2  0
 18 17  1  0
 19 18  2  0
 19 14  1  0
 20 22  1  0
 20 12  1  0
 21 20  2  0
 23 24  1  6
 23 22  1  0
 25 24  1  0
 26 27  1  0
 26 25  1  0
 27 28  1  0
 29 23  1  0
 29 31  1  0
 30 29  2  0
M  END
$$$$
