HFK.pdb
     RDKit          3D

 31 32  0  0  1  0  0  0  0  0999 V2000
   10.8983  -16.7764   19.6930 N   0  0  0  0  0  0  0  0  0  0  0  0
    9.6208  -16.8116   20.3618 C   0  0  1  0  0  0  0  0  0  0  0  0
    9.1970  -18.2501   20.4774 C   0  0  0  0  0  0  0  0  0  0  0  0
    8.3153  -18.5629   19.3300 C   0  0  0  0  0  0  0  0  0  0  0  0
    8.3577  -17.9429   18.1010 C   0  0  0  0  0  0  0  0  0  0  0  0
    7.4224  -18.4647   17.2871 N   0  0  0  0  0  0  0  0  0  0  0  0
    6.7883  -19.4088   17.9882 C   0  0  0  0  0  0  0  0  0  0  0  0
    7.3318  -19.4715   19.2381 N   0  0  0  0  0  0  0  0  0  0  0  0
    9.6382  -16.1047   21.6599 C   0  0  0  0  0  0  0  0  0  0  0  0
   10.7094  -16.0922   22.3169 O   0  0  0  0  0  0  0  0  0  0  0  0
    8.5295  -15.4343   22.2244 N   0  0  0  0  0  0  0  0  0  0  0  0
    8.4997  -14.7676   23.4793 C   0  0  1  0  0  0  0  0  0  0  0  0
    7.3993  -13.7739   23.6431 C   0  0  0  0  0  0  0  0  0  0  0  0
    7.2691  -13.2159   24.9869 C   0  0  0  0  0  0  0  0  0  0  0  0
    6.3133  -13.5949   25.9046 C   0  0  0  0  0  0  0  0  0  0  0  0
    6.2344  -13.0345   27.1637 C   0  0  0  0  0  0  0  0  0  0  0  0
    7.1352  -12.0572   27.5390 C   0  0  0  0  0  0  0  0  0  0  0  0
    8.1131  -11.6584   26.6220 C   0  0  0  0  0  0  0  0  0  0  0  0
    8.1603  -12.2381   25.3802 C   0  0  0  0  0  0  0  0  0  0  0  0
    8.4934  -15.8099   24.5659 C   0  0  0  0  0  0  0  0  0  0  0  0
    7.4723  -16.5222   24.7326 O   0  0  0  0  0  0  0  0  0  0  0  0
    9.6077  -16.0095   25.4056 N   0  0  0  0  0  0  0  0  0  0  0  0
    9.7368  -17.0051   26.4496 C   0  0  1  0  0  0  0  0  0  0  0  0
   10.8068  -17.9894   26.1875 C   0  0  0  0  0  0  0  0  0  0  0  0
   10.7844  -18.7130   24.8991 C   0  0  0  0  0  0  0  0  0  0  0  0
   11.9257  -19.6713   24.6906 C   0  0  0  0  0  0  0  0  0  0  0  0
   11.8822  -20.3246   23.3247 C   0  0  0  0  0  0  0  0  0  0  0  0
   13.0366  -21.2033   23.2360 N   0  0  0  0  0  0  0  0  0  0  0  0
    9.7084  -16.4288   27.8152 C   0  0  0  0  0  0  0  0  0  0  0  0
   10.0707  -15.2571   28.0639 O   0  0  0  0  0  0  0  0  0  0  0  0
    9.2735  -17.1712   28.8930 O   0  0  0  0  0  0  0  0  0  0  0  0
  2  1  1  1
  2  3  1  0
  3  4  1  0
  4  5  2  0
  6  5  1  0
  7  6  1  0
  8  7  2  0
  8  4  1  0
  9  2  1  0
 10  9  2  0
 11  9  1  0
 12 13  1  6
 12 11  1  0
 13 14  1  0
 14 15  2  0
 15 16  1  0
 17 16  2  0
 18 17  1  0
 19 18  2  0
 19 14  1  0
 20 22  1  0
 20 12  1  0
 21 20  2  0
 23 24  1  6
 23 22  1  0
 25 24  1  0
 26 27  1  0
 26 25  1  0
 27 28  1  0
 29 23  1  0
 29 31  1  0
 30 29  2  0
M  END
$$$$
