WGD.pdb
     RDKit          3D

 27 28  0  0  1  0  0  0  0  0999 V2000
    6.8006  -16.1708   22.6325 N   0  0  0  0  0  0  0  0  0  0  0  0
    8.0978  -15.5908   22.7489 C   0  0  1  0  0  0  0  0  0  0  0  0
    8.5213  -15.5140   24.1795 C   0  0  0  0  0  0  0  0  0  0  0  0
    7.5124  -14.8684   25.0504 C   0  0  0  0  0  0  0  0  0  0  0  0
    6.4354  -15.5085   25.6796 C   0  0  0  0  0  0  0  0  0  0  0  0
    5.7269  -14.6009   26.3597 N   0  0  0  0  0  0  0  0  0  0  0  0
    6.2763  -13.3750   26.2196 C   0  0  0  0  0  0  0  0  0  0  0  0
    5.9502  -12.1201   26.7080 C   0  0  0  0  0  0  0  0  0  0  0  0
    6.7078  -11.0269   26.4038 C   0  0  0  0  0  0  0  0  0  0  0  0
    7.8083  -11.1693   25.6038 C   0  0  0  0  0  0  0  0  0  0  0  0
    8.1235  -12.4273   25.1219 C   0  0  0  0  0  0  0  0  0  0  0  0
    7.3826  -13.5518   25.4067 C   0  0  0  0  0  0  0  0  0  0  0  0
    9.0414  -16.4206   21.9452 C   0  0  0  0  0  0  0  0  0  0  0  0
    8.6470  -17.1587   21.0019 O   0  0  0  0  0  0  0  0  0  0  0  0
   10.4531  -16.3880   22.2449 N   0  0  0  0  0  0  0  0  0  0  0  0
   11.3657  -16.8269   21.2598 C   0  0  0  0  0  0  0  0  0  0  0  0
   12.7789  -16.6812   21.7356 C   0  0  0  0  0  0  0  0  0  0  0  0
   13.7215  -17.0420   20.9482 O   0  0  0  0  0  0  0  0  0  0  0  0
   13.0731  -16.1705   23.0068 N   0  0  0  0  0  0  0  0  0  0  0  0
   13.8761  -16.8219   24.0083 C   0  0  1  0  0  0  0  0  0  0  0  0
   15.1533  -16.1334   24.3987 C   0  0  0  0  0  0  0  0  0  0  0  0
   16.1030  -16.1904   23.2616 C   0  0  0  0  0  0  0  0  0  0  0  0
   15.8421  -16.7477   22.1526 O   0  0  0  0  0  0  0  0  0  0  0  0
   13.1354  -17.4511   25.0861 C   0  0  0  0  0  0  0  0  0  0  0  0
   13.8097  -18.1835   26.0497 O   0  0  0  0  0  0  0  0  0  0  0  0
   17.3757  -15.6159   23.3541 O   0  0  0  0  0  0  0  0  0  0  0  0
   11.9047  -17.3543   25.1753 O   0  0  0  0  0  0  0  0  0  0  0  0
  2  1  1  1
  3  2  1  0
  3  4  1  0
  4  5  2  0
  6  5  1  0
  7  6  1  0
  8  7  2  0
  9  8  1  0
 10 11  1  0
 10  9  2  0
 11 12  2  0
 12  7  1  0
 12  4  1  0
 13 15  1  0
 13  2  1  0
 14 13  2  0
 16 15  1  0
 17 19  1  0
 17 16  1  0
 18 17  2  0
 20 19  1  0
 20 21  1  1
 22 21  1  0
 22 26  1  0
 23 22  2  0
 24 25  1  0
 24 20  1  0
 27 24  2  0
M  END
$$$$
