WGD.pdb
     RDKit          3D

 27 28  0  0  1  0  0  0  0  0999 V2000
    9.1093  -16.4494   22.5286 N   0  0  0  0  0  0  0  0  0  0  0  0
    8.3148  -16.2162   23.6893 C   0  0  1  0  0  0  0  0  0  0  0  0
    7.0678  -15.4708   23.3412 C   0  0  0  0  0  0  0  0  0  0  0  0
    7.1744  -14.0140   23.5847 C   0  0  0  0  0  0  0  0  0  0  0  0
    7.6290  -13.0557   22.6680 C   0  0  0  0  0  0  0  0  0  0  0  0
    7.6099  -11.8523   23.2510 N   0  0  0  0  0  0  0  0  0  0  0  0
    7.1621  -11.9529   24.5213 C   0  0  0  0  0  0  0  0  0  0  0  0
    6.9477  -11.0328   25.5348 C   0  0  0  0  0  0  0  0  0  0  0  0
    6.4676  -11.4230   26.7508 C   0  0  0  0  0  0  0  0  0  0  0  0
    6.1922  -12.7439   26.9759 C   0  0  0  0  0  0  0  0  0  0  0  0
    6.4107  -13.6533   25.9563 C   0  0  0  0  0  0  0  0  0  0  0  0
    6.8946  -13.2967   24.7181 C   0  0  0  0  0  0  0  0  0  0  0  0
    8.0051  -17.5401   24.3026 C   0  0  0  0  0  0  0  0  0  0  0  0
    8.0863  -18.6158   23.6496 O   0  0  0  0  0  0  0  0  0  0  0  0
    7.5983  -17.6078   25.6861 N   0  0  0  0  0  0  0  0  0  0  0  0
    7.3333  -18.8741   26.2537 C   0  0  0  0  0  0  0  0  0  0  0  0
    8.5668  -19.4491   26.8802 C   0  0  0  0  0  0  0  0  0  0  0  0
    8.4620  -20.5560   27.5147 O   0  0  0  0  0  0  0  0  0  0  0  0
    9.8051  -18.8003   26.7856 N   0  0  0  0  0  0  0  0  0  0  0  0
   11.0293  -19.2324   27.4077 C   0  0  1  0  0  0  0  0  0  0  0  0
   12.3055  -18.8803   26.6972 C   0  0  0  0  0  0  0  0  0  0  0  0
   12.7205  -20.0235   25.8491 C   0  0  0  0  0  0  0  0  0  0  0  0
   12.1034  -21.1308   25.8075 O   0  0  0  0  0  0  0  0  0  0  0  0
   11.0579  -19.1365   28.8555 C   0  0  0  0  0  0  0  0  0  0  0  0
   12.1141  -19.6891   29.5618 O   0  0  0  0  0  0  0  0  0  0  0  0
   13.8485  -19.9396   25.0253 O   0  0  0  0  0  0  0  0  0  0  0  0
   10.1587  -18.5699   29.4899 O   0  0  0  0  0  0  0  0  0  0  0  0
  2  1  1  6
  3  2  1  0
  3  4  1  0
  4  5  2  0
  6  5  1  0
  7  6  1  0
  8  7  2  0
  9  8  1  0
 10 11  1  0
 10  9  2  0
 11 12  2  0
 12  7  1  0
 12  4  1  0
 13 15  1  0
 13  2  1  0
 14 13  2  0
 16 15  1  0
 17 19  1  0
 17 16  1  0
 18 17  2  0
 20 19  1  0
 20 21  1  6
 22 21  1  0
 22 26  1  0
 23 22  2  0
 24 25  1  0
 24 20  1  0
 27 24  2  0
M  END
$$$$
