WGD.pdb
     RDKit          3D

 27 28  0  0  1  0  0  0  0  0999 V2000
    9.4909  -14.8534   22.9975 N   0  0  0  0  0  0  0  0  0  0  0  0
    9.3194  -15.6647   24.1573 C   0  0  1  0  0  0  0  0  0  0  0  0
    7.8716  -15.8155   24.4934 C   0  0  0  0  0  0  0  0  0  0  0  0
    7.1548  -14.5218   24.5693 C   0  0  0  0  0  0  0  0  0  0  0  0
    6.2288  -14.0360   23.6357 C   0  0  0  0  0  0  0  0  0  0  0  0
    5.8124  -12.8263   24.0247 N   0  0  0  0  0  0  0  0  0  0  0  0
    6.4148  -12.4714   25.1804 C   0  0  0  0  0  0  0  0  0  0  0  0
    6.3375  -11.3527   25.9941 C   0  0  0  0  0  0  0  0  0  0  0  0
    7.0733  -11.2624   27.1395 C   0  0  0  0  0  0  0  0  0  0  0  0
    7.9017  -12.2920   27.4930 C   0  0  0  0  0  0  0  0  0  0  0  0
    7.9705  -13.4037   26.6722 C   0  0  0  0  0  0  0  0  0  0  0  0
    7.2444  -13.5293   25.5097 C   0  0  0  0  0  0  0  0  0  0  0  0
    9.9565  -16.9860   23.8869 C   0  0  0  0  0  0  0  0  0  0  0  0
    9.8316  -17.9631   24.6743 O   0  0  0  0  0  0  0  0  0  0  0  0
   10.7439  -17.1669   22.6905 N   0  0  0  0  0  0  0  0  0  0  0  0
   11.3232  -18.4318   22.4449 C   0  0  0  0  0  0  0  0  0  0  0  0
   12.5920  -18.6004   23.2235 C   0  0  0  0  0  0  0  0  0  0  0  0
   13.2645  -19.6768   23.0565 O   0  0  0  0  0  0  0  0  0  0  0  0
   13.0378  -17.6168   24.1164 N   0  0  0  0  0  0  0  0  0  0  0  0
   14.1587  -17.7407   25.0111 C   0  0  1  0  0  0  0  0  0  0  0  0
   15.2351  -16.6996   24.8887 C   0  0  0  0  0  0  0  0  0  0  0  0
   15.3882  -16.3245   23.4625 C   0  0  0  0  0  0  0  0  0  0  0  0
   15.4190  -17.1639   22.5123 O   0  0  0  0  0  0  0  0  0  0  0  0
   13.8331  -18.1661   26.3598 C   0  0  0  0  0  0  0  0  0  0  0  0
   12.5075  -18.2571   26.7525 O   0  0  0  0  0  0  0  0  0  0  0  0
   15.5108  -14.9848   23.0772 O   0  0  0  0  0  0  0  0  0  0  0  0
   14.7113  -18.4548   27.1829 O   0  0  0  0  0  0  0  0  0  0  0  0
  2  1  1  6
  3  2  1  0
  3  4  1  0
  4  5  2  0
  6  5  1  0
  7  6  1  0
  8  7  2  0
  9  8  1  0
 10 11  1  0
 10  9  2  0
 11 12  2  0
 12  7  1  0
 12  4  1  0
 13 15  1  0
 13  2  1  0
 14 13  2  0
 16 15  1  0
 17 19  1  0
 17 16  1  0
 18 17  2  0
 20 19  1  0
 20 21  1  1
 22 21  1  0
 22 26  1  0
 23 22  2  0
 24 25  1  0
 24 20  1  0
 27 24  2  0
M  END
$$$$
