WGD.pdb
     RDKit          3D

 27 28  0  0  1  0  0  0  0  0999 V2000
    6.5985  -17.1000   23.4079 N   0  0  0  0  0  0  0  0  0  0  0  0
    7.8419  -16.4320   23.2065 C   0  0  1  0  0  0  0  0  0  0  0  0
    8.3605  -15.8719   24.4907 C   0  0  0  0  0  0  0  0  0  0  0  0
    7.3580  -15.0593   25.2172 C   0  0  0  0  0  0  0  0  0  0  0  0
    6.1412  -15.5222   25.7371 C   0  0  0  0  0  0  0  0  0  0  0  0
    5.4912  -14.4985   26.3008 N   0  0  0  0  0  0  0  0  0  0  0  0
    6.2138  -13.3631   26.1863 C   0  0  0  0  0  0  0  0  0  0  0  0
    6.0087  -12.0546   26.5930 C   0  0  0  0  0  0  0  0  0  0  0  0
    6.9366  -11.0857   26.3441 C   0  0  0  0  0  0  0  0  0  0  0  0
    8.0894  -11.4087   25.6824 C   0  0  0  0  0  0  0  0  0  0  0  0
    8.2827  -12.7186   25.2811 C   0  0  0  0  0  0  0  0  0  0  0  0
    7.3692  -13.7216   25.5136 C   0  0  0  0  0  0  0  0  0  0  0  0
    8.7961  -17.4144   22.6157 C   0  0  0  0  0  0  0  0  0  0  0  0
    8.4322  -18.5659   22.2526 O   0  0  0  0  0  0  0  0  0  0  0  0
   10.1829  -17.0498   22.4482 N   0  0  0  0  0  0  0  0  0  0  0  0
   11.0496  -17.9590   21.8018 C   0  0  0  0  0  0  0  0  0  0  0  0
   12.4149  -17.3667   21.6284 C   0  0  0  0  0  0  0  0  0  0  0  0
   13.0878  -17.6944   20.5898 O   0  0  0  0  0  0  0  0  0  0  0  0
   12.9529  -16.4818   22.5721 N   0  0  0  0  0  0  0  0  0  0  0  0
   13.8311  -16.8408   23.6548 C   0  0  1  0  0  0  0  0  0  0  0  0
   15.1324  -16.0946   23.7409 C   0  0  0  0  0  0  0  0  0  0  0  0
   15.5846  -15.7471   22.3723 C   0  0  0  0  0  0  0  0  0  0  0  0
   15.0872  -16.2463   21.3177 O   0  0  0  0  0  0  0  0  0  0  0  0
   13.1757  -17.1280   24.9174 C   0  0  0  0  0  0  0  0  0  0  0  0
   13.9197  -17.5928   25.9898 O   0  0  0  0  0  0  0  0  0  0  0  0
   16.6148  -14.8231   22.1648 O   0  0  0  0  0  0  0  0  0  0  0  0
   11.9578  -16.9694   25.0712 O   0  0  0  0  0  0  0  0  0  0  0  0
  2  1  1  1
  3  2  1  0
  3  4  1  0
  4  5  2  0
  6  5  1  0
  7  6  1  0
  8  7  2  0
  9  8  1  0
 10 11  1  0
 10  9  2  0
 11 12  2  0
 12  7  1  0
 12  4  1  0
 13 15  1  0
 13  2  1  0
 14 13  2  0
 16 15  1  0
 17 19  1  0
 17 16  1  0
 18 17  2  0
 20 19  1  0
 20 21  1  1
 22 21  1  0
 22 26  1  0
 23 22  2  0
 24 25  1  0
 24 20  1  0
 27 24  2  0
M  END
$$$$
