WGD.pdb
     RDKit          3D

 27 28  0  0  1  0  0  0  0  0999 V2000
    8.8663  -16.4459   25.7510 N   0  0  0  0  0  0  0  0  0  0  0  0
    7.9491  -16.9214   24.7684 C   0  0  1  0  0  0  0  0  0  0  0  0
    6.7210  -16.0717   24.7295 C   0  0  0  0  0  0  0  0  0  0  0  0
    7.0154  -14.6333   24.5355 C   0  0  0  0  0  0  0  0  0  0  0  0
    7.5626  -14.0516   23.3833 C   0  0  0  0  0  0  0  0  0  0  0  0
    7.7094  -12.7381   23.5867 N   0  0  0  0  0  0  0  0  0  0  0  0
    7.2855  -12.4043   24.8250 C   0  0  0  0  0  0  0  0  0  0  0  0
    7.2142  -11.2082   25.5206 C   0  0  0  0  0  0  0  0  0  0  0  0
    6.7205  -11.1607   26.7917 C   0  0  0  0  0  0  0  0  0  0  0  0
    6.2878  -12.3115   27.3916 C   0  0  0  0  0  0  0  0  0  0  0  0
    6.3643  -13.4997   26.6869 C   0  0  0  0  0  0  0  0  0  0  0  0
    6.8569  -13.5860   25.4046 C   0  0  0  0  0  0  0  0  0  0  0  0
    8.6520  -16.9239   23.4528 C   0  0  0  0  0  0  0  0  0  0  0  0
    8.2562  -17.6270   22.4837 O   0  0  0  0  0  0  0  0  0  0  0  0
    9.8235  -16.1008   23.2683 N   0  0  0  0  0  0  0  0  0  0  0  0
   10.5239  -16.1829   22.0442 C   0  0  0  0  0  0  0  0  0  0  0  0
   11.8687  -16.8144   22.2376 C   0  0  0  0  0  0  0  0  0  0  0  0
   12.5408  -17.1348   21.1963 O   0  0  0  0  0  0  0  0  0  0  0  0
   12.3848  -17.0573   23.5174 N   0  0  0  0  0  0  0  0  0  0  0  0
   13.5698  -17.8186   23.8145 C   0  0  1  0  0  0  0  0  0  0  0  0
   14.6146  -17.1372   24.6521 C   0  0  0  0  0  0  0  0  0  0  0  0
   14.9747  -15.8442   24.0222 C   0  0  0  0  0  0  0  0  0  0  0  0
   14.4529  -15.4132   22.9496 O   0  0  0  0  0  0  0  0  0  0  0  0
   13.3511  -19.2269   24.0887 C   0  0  0  0  0  0  0  0  0  0  0  0
   14.4311  -20.0526   24.3559 O   0  0  0  0  0  0  0  0  0  0  0  0
   15.9382  -15.0058   24.5941 O   0  0  0  0  0  0  0  0  0  0  0  0
   12.2169  -19.7224   24.0925 O   0  0  0  0  0  0  0  0  0  0  0  0
  2  1  1  1
  3  2  1  0
  3  4  1  0
  4  5  2  0
  6  5  1  0
  7  6  1  0
  8  7  2  0
  9  8  1  0
 10 11  1  0
 10  9  2  0
 11 12  2  0
 12  7  1  0
 12  4  1  0
 13 15  1  0
 13  2  1  0
 14 13  2  0
 16 15  1  0
 17 19  1  0
 17 16  1  0
 18 17  2  0
 20 19  1  0
 20 21  1  1
 22 21  1  0
 22 26  1  0
 23 22  2  0
 24 25  1  0
 24 20  1  0
 27 24  2  0
M  END
$$$$
