WGD.pdb
     RDKit          3D

 27 28  0  0  1  0  0  0  0  0999 V2000
    8.8896  -16.0229   24.9916 N   0  0  0  0  0  0  0  0  0  0  0  0
    7.9743  -16.7030   24.1358 C   0  0  1  0  0  0  0  0  0  0  0  0
    6.8339  -15.8139   23.7605 C   0  0  0  0  0  0  0  0  0  0  0  0
    7.1555  -14.3735   23.8819 C   0  0  0  0  0  0  0  0  0  0  0  0
    7.7593  -13.5775   22.8985 C   0  0  0  0  0  0  0  0  0  0  0  0
    7.9148  -12.3383   23.3766 N   0  0  0  0  0  0  0  0  0  0  0  0
    7.4428  -12.2595   24.6397 C   0  0  0  0  0  0  0  0  0  0  0  0
    7.3578  -11.2326   25.5659 C   0  0  0  0  0  0  0  0  0  0  0  0
    6.8108  -11.4391   26.7986 C   0  0  0  0  0  0  0  0  0  0  0  0
    6.3375  -12.6795   27.1283 C   0  0  0  0  0  0  0  0  0  0  0  0
    6.4282  -13.6969   26.1951 C   0  0  0  0  0  0  0  0  0  0  0  0
    6.9740  -13.5261   24.9433 C   0  0  0  0  0  0  0  0  0  0  0  0
    8.7288  -17.1588   22.9326 C   0  0  0  0  0  0  0  0  0  0  0  0
    8.3113  -18.0922   22.1945 O   0  0  0  0  0  0  0  0  0  0  0  0
    9.9776  -16.5210   22.5896 N   0  0  0  0  0  0  0  0  0  0  0  0
   10.6676  -16.9573   21.4366 C   0  0  0  0  0  0  0  0  0  0  0  0
   11.9817  -17.5777   21.8013 C   0  0  0  0  0  0  0  0  0  0  0  0
   13.0133  -17.2537   21.1161 O   0  0  0  0  0  0  0  0  0  0  0  0
   12.0902  -18.4922   22.8574 N   0  0  0  0  0  0  0  0  0  0  0  0
   13.2973  -19.1590   23.2702 C   0  0  1  0  0  0  0  0  0  0  0  0
   13.3516  -19.6300   24.6959 C   0  0  0  0  0  0  0  0  0  0  0  0
   13.4776  -18.4548   25.5912 C   0  0  0  0  0  0  0  0  0  0  0  0
   14.5827  -17.9019   25.8771 O   0  0  0  0  0  0  0  0  0  0  0  0
   13.8866  -20.0446   22.2830 C   0  0  0  0  0  0  0  0  0  0  0  0
   13.0834  -20.9359   21.5902 O   0  0  0  0  0  0  0  0  0  0  0  0
   12.3511  -17.8762   26.1864 O   0  0  0  0  0  0  0  0  0  0  0  0
   15.0992  -20.0305   22.0351 O   0  0  0  0  0  0  0  0  0  0  0  0
  2  1  1  1
  3  2  1  0
  3  4  1  0
  4  5  2  0
  6  5  1  0
  7  6  1  0
  8  7  2  0
  9  8  1  0
 10 11  1  0
 10  9  2  0
 11 12  2  0
 12  7  1  0
 12  4  1  0
 13 15  1  0
 13  2  1  0
 14 13  2  0
 16 15  1  0
 17 19  1  0
 17 16  1  0
 18 17  2  0
 20 19  1  0
 20 21  1  1
 22 21  1  0
 22 26  1  0
 23 22  2  0
 24 25  1  0
 24 20  1  0
 27 24  2  0
M  END
$$$$
