WGD.pdb
     RDKit          3D

 27 28  0  0  1  0  0  0  0  0999 V2000
    8.5167  -16.7001   23.9174 N   0  0  0  0  0  0  0  0  0  0  0  0
    8.4126  -15.9344   22.7193 C   0  0  1  0  0  0  0  0  0  0  0  0
    7.9093  -14.5578   23.0081 C   0  0  0  0  0  0  0  0  0  0  0  0
    7.3774  -14.4098   24.3822 C   0  0  0  0  0  0  0  0  0  0  0  0
    6.8249  -15.4315   25.1672 C   0  0  0  0  0  0  0  0  0  0  0  0
    6.4297  -14.9167   26.3364 N   0  0  0  0  0  0  0  0  0  0  0  0
    6.6904  -13.5920   26.3784 C   0  0  0  0  0  0  0  0  0  0  0  0
    6.4924  -12.6089   27.3343 C   0  0  0  0  0  0  0  0  0  0  0  0
    6.8704  -11.3179   27.1061 C   0  0  0  0  0  0  0  0  0  0  0  0
    7.4551  -10.9859   25.9148 C   0  0  0  0  0  0  0  0  0  0  0  0
    7.6474  -11.9764   24.9681 C   0  0  0  0  0  0  0  0  0  0  0  0
    7.2782  -13.2880   25.1626 C   0  0  0  0  0  0  0  0  0  0  0  0
    9.7610  -15.8993   22.0827 C   0  0  0  0  0  0  0  0  0  0  0  0
   10.2253  -14.8521   21.5554 O   0  0  0  0  0  0  0  0  0  0  0  0
   10.5715  -17.0937   22.0619 N   0  0  0  0  0  0  0  0  0  0  0  0
   11.8129  -17.0591   21.3886 C   0  0  0  0  0  0  0  0  0  0  0  0
   12.9413  -17.3521   22.3297 C   0  0  0  0  0  0  0  0  0  0  0  0
   12.7814  -18.2840   23.1927 O   0  0  0  0  0  0  0  0  0  0  0  0
   14.1409  -16.6298   22.2799 N   0  0  0  0  0  0  0  0  0  0  0  0
   15.2896  -16.8506   23.1189 C   0  0  1  0  0  0  0  0  0  0  0  0
   16.6132  -16.3826   22.5837 C   0  0  0  0  0  0  0  0  0  0  0  0
   16.6543  -16.6135   21.1197 C   0  0  0  0  0  0  0  0  0  0  0  0
   16.3598  -17.7189   20.5721 O   0  0  0  0  0  0  0  0  0  0  0  0
   15.0691  -16.6506   24.5393 C   0  0  0  0  0  0  0  0  0  0  0  0
   16.0457  -17.0260   25.4477 O   0  0  0  0  0  0  0  0  0  0  0  0
   17.0318  -15.5945   20.2381 O   0  0  0  0  0  0  0  0  0  0  0  0
   14.0240  -16.1490   24.9732 O   0  0  0  0  0  0  0  0  0  0  0  0
  2  1  1  1
  3  2  1  0
  3  4  1  0
  4  5  2  0
  6  5  1  0
  7  6  1  0
  8  7  2  0
  9  8  1  0
 10 11  1  0
 10  9  2  0
 11 12  2  0
 12  7  1  0
 12  4  1  0
 13 15  1  0
 13  2  1  0
 14 13  2  0
 16 15  1  0
 17 19  1  0
 17 16  1  0
 18 17  2  0
 20 19  1  0
 20 21  1  6
 22 21  1  0
 22 26  1  0
 23 22  2  0
 24 25  1  0
 24 20  1  0
 27 24  2  0
M  END
$$$$
