WGD.pdb
     RDKit          3D

 27 28  0  0  1  0  0  0  0  0999 V2000
    7.3067  -16.5202   23.2441 N   0  0  0  0  0  0  0  0  0  0  0  0
    8.6482  -16.2331   23.6327 C   0  0  1  0  0  0  0  0  0  0  0  0
    8.7206  -15.8877   25.0844 C   0  0  0  0  0  0  0  0  0  0  0  0
    7.5626  -15.0910   25.5507 C   0  0  0  0  0  0  0  0  0  0  0  0
    6.2748  -15.5811   25.8090 C   0  0  0  0  0  0  0  0  0  0  0  0
    5.4904  -14.5658   26.1861 N   0  0  0  0  0  0  0  0  0  0  0  0
    6.1896  -13.4103   26.1952 C   0  0  0  0  0  0  0  0  0  0  0  0
    5.8657  -12.0996   26.5066 C   0  0  0  0  0  0  0  0  0  0  0  0
    6.7989  -11.1070   26.4342 C   0  0  0  0  0  0  0  0  0  0  0  0
    8.0764  -11.4078   26.0483 C   0  0  0  0  0  0  0  0  0  0  0  0
    8.3876  -12.7201   25.7397 C   0  0  0  0  0  0  0  0  0  0  0  0
    7.4729  -13.7467   25.8003 C   0  0  0  0  0  0  0  0  0  0  0  0
    9.4801  -17.4296   23.3152 C   0  0  0  0  0  0  0  0  0  0  0  0
    9.0060  -18.5980   23.3307 O   0  0  0  0  0  0  0  0  0  0  0  0
   10.8736  -17.2605   22.9777 N   0  0  0  0  0  0  0  0  0  0  0  0
   11.6925  -18.4078   22.8837 C   0  0  0  0  0  0  0  0  0  0  0  0
   13.0870  -18.0390   22.4785 C   0  0  0  0  0  0  0  0  0  0  0  0
   13.9338  -18.9825   22.3012 O   0  0  0  0  0  0  0  0  0  0  0  0
   13.4670  -16.7022   22.3006 N   0  0  0  0  0  0  0  0  0  0  0  0
   14.7976  -16.1783   22.4657 C   0  0  1  0  0  0  0  0  0  0  0  0
   15.2100  -15.0815   21.5252 C   0  0  0  0  0  0  0  0  0  0  0  0
   14.7794  -15.4330   20.1506 C   0  0  0  0  0  0  0  0  0  0  0  0
   15.1392  -16.4892   19.5477 O   0  0  0  0  0  0  0  0  0  0  0  0
   15.2460  -16.0428   23.8393 C   0  0  0  0  0  0  0  0  0  0  0  0
   14.3517  -16.2412   24.8788 O   0  0  0  0  0  0  0  0  0  0  0  0
   13.9283  -14.5933   19.4235 O   0  0  0  0  0  0  0  0  0  0  0  0
   16.4165  -15.7524   24.1179 O   0  0  0  0  0  0  0  0  0  0  0  0
  2  1  1  1
  3  2  1  0
  3  4  1  0
  4  5  2  0
  6  5  1  0
  7  6  1  0
  8  7  2  0
  9  8  1  0
 10 11  1  0
 10  9  2  0
 11 12  2  0
 12  7  1  0
 12  4  1  0
 13 15  1  0
 13  2  1  0
 14 13  2  0
 16 15  1  0
 17 19  1  0
 17 16  1  0
 18 17  2  0
 20 19  1  0
 20 21  1  1
 22 21  1  0
 22 26  1  0
 23 22  2  0
 24 25  1  0
 24 20  1  0
 27 24  2  0
M  END
$$$$
