WGD.pdb
     RDKit          3D

 27 28  0  0  1  0  0  0  0  0999 V2000
    7.0498  -17.9325   24.2096 N   0  0  0  0  0  0  0  0  0  0  0  0
    7.4990  -16.7090   23.6317 C   0  0  1  0  0  0  0  0  0  0  0  0
    8.2172  -15.8743   24.6414 C   0  0  0  0  0  0  0  0  0  0  0  0
    7.3034  -15.0873   25.5008 C   0  0  0  0  0  0  0  0  0  0  0  0
    6.4350  -15.6044   26.4722 C   0  0  0  0  0  0  0  0  0  0  0  0
    5.7508  -14.5972   27.0249 N   0  0  0  0  0  0  0  0  0  0  0  0
    6.1174  -13.4209   26.4714 C   0  0  0  0  0  0  0  0  0  0  0  0
    5.7328  -12.1061   26.6785 C   0  0  0  0  0  0  0  0  0  0  0  0
    6.2906  -11.0876   25.9624 C   0  0  0  0  0  0  0  0  0  0  0  0
    7.2460  -11.3661   25.0238 C   0  0  0  0  0  0  0  0  0  0  0  0
    7.6216  -12.6829   24.8259 C   0  0  0  0  0  0  0  0  0  0  0  0
    7.0805  -13.7356   25.5282 C   0  0  0  0  0  0  0  0  0  0  0  0
    8.3811  -17.0473   22.4776 C   0  0  0  0  0  0  0  0  0  0  0  0
    9.0016  -18.1429   22.4078 O   0  0  0  0  0  0  0  0  0  0  0  0
    8.5396  -16.1007   21.3992 N   0  0  0  0  0  0  0  0  0  0  0  0
    9.2920  -16.4832   20.2663 C   0  0  0  0  0  0  0  0  0  0  0  0
   10.7591  -16.4750   20.5698 C   0  0  0  0  0  0  0  0  0  0  0  0
   11.5117  -15.6923   19.8917 O   0  0  0  0  0  0  0  0  0  0  0  0
   11.3048  -17.3000   21.5622 N   0  0  0  0  0  0  0  0  0  0  0  0
   12.7086  -17.4888   21.8189 C   0  0  1  0  0  0  0  0  0  0  0  0
   13.0870  -17.9102   23.2106 C   0  0  0  0  0  0  0  0  0  0  0  0
   12.4695  -16.9788   24.1850 C   0  0  0  0  0  0  0  0  0  0  0  0
   12.7607  -15.7469   24.2643 O   0  0  0  0  0  0  0  0  0  0  0  0
   13.4606  -18.1025   20.7400 C   0  0  0  0  0  0  0  0  0  0  0  0
   14.7996  -17.7903   20.5689 O   0  0  0  0  0  0  0  0  0  0  0  0
   11.5045  -17.4221   25.0961 O   0  0  0  0  0  0  0  0  0  0  0  0
   12.9395  -18.9066   19.9565 O   0  0  0  0  0  0  0  0  0  0  0  0
  2  1  1  1
  3  2  1  0
  3  4  1  0
  4  5  2  0
  6  5  1  0
  7  6  1  0
  8  7  2  0
  9  8  1  0
 10 11  1  0
 10  9  2  0
 11 12  2  0
 12  7  1  0
 12  4  1  0
 13 15  1  0
 13  2  1  0
 14 13  2  0
 16 15  1  0
 17 19  1  0
 17 16  1  0
 18 17  2  0
 20 19  1  0
 20 21  1  1
 22 21  1  0
 22 26  1  0
 23 22  2  0
 24 25  1  0
 24 20  1  0
 27 24  2  0
M  END
$$$$
