WGD.pdb
     RDKit          3D

 27 28  0  0  1  0  0  0  0  0999 V2000
    7.5710  -17.0603   23.0655 N   0  0  0  0  0  0  0  0  0  0  0  0
    7.4709  -16.0343   22.0806 C   0  0  1  0  0  0  0  0  0  0  0  0
    6.6253  -14.9047   22.5712 C   0  0  0  0  0  0  0  0  0  0  0  0
    6.6529  -14.7551   24.0443 C   0  0  0  0  0  0  0  0  0  0  0  0
    6.3952  -15.7660   24.9808 C   0  0  0  0  0  0  0  0  0  0  0  0
    6.4870  -15.2522   26.2120 N   0  0  0  0  0  0  0  0  0  0  0  0
    6.7958  -13.9387   26.1511 C   0  0  0  0  0  0  0  0  0  0  0  0
    7.0086  -12.9615   27.1098 C   0  0  0  0  0  0  0  0  0  0  0  0
    7.3236  -11.6824   26.7544 C   0  0  0  0  0  0  0  0  0  0  0  0
    7.4321  -11.3567   25.4303 C   0  0  0  0  0  0  0  0  0  0  0  0
    7.2171  -12.3411   24.4822 C   0  0  0  0  0  0  0  0  0  0  0  0
    6.8969  -13.6407   24.8031 C   0  0  0  0  0  0  0  0  0  0  0  0
    8.8534  -15.5788   21.7554 C   0  0  0  0  0  0  0  0  0  0  0  0
    9.0844  -14.7384   20.8440 O   0  0  0  0  0  0  0  0  0  0  0  0
    9.9722  -16.1078   22.4987 N   0  0  0  0  0  0  0  0  0  0  0  0
   11.2594  -15.5797   22.2539 C   0  0  0  0  0  0  0  0  0  0  0  0
   12.2676  -16.1682   23.1931 C   0  0  0  0  0  0  0  0  0  0  0  0
   13.4572  -15.6957   23.1757 O   0  0  0  0  0  0  0  0  0  0  0  0
   11.9311  -17.2104   24.0671 N   0  0  0  0  0  0  0  0  0  0  0  0
   12.8637  -18.0228   24.8036 C   0  0  1  0  0  0  0  0  0  0  0  0
   12.2879  -18.9019   25.8776 C   0  0  0  0  0  0  0  0  0  0  0  0
   11.3463  -18.1074   26.7026 C   0  0  0  0  0  0  0  0  0  0  0  0
   11.2476  -16.8445   26.6404 O   0  0  0  0  0  0  0  0  0  0  0  0
   13.9421  -18.5964   24.0199 C   0  0  0  0  0  0  0  0  0  0  0  0
   15.0939  -19.0372   24.6514 O   0  0  0  0  0  0  0  0  0  0  0  0
   10.4915  -18.7267   27.6212 O   0  0  0  0  0  0  0  0  0  0  0  0
   13.8669  -18.7073   22.7894 O   0  0  0  0  0  0  0  0  0  0  0  0
  2  1  1  1
  3  2  1  0
  3  4  1  0
  4  5  2  0
  6  5  1  0
  7  6  1  0
  8  7  2  0
  9  8  1  0
 10 11  1  0
 10  9  2  0
 11 12  2  0
 12  7  1  0
 12  4  1  0
 13 15  1  0
 13  2  1  0
 14 13  2  0
 16 15  1  0
 17 19  1  0
 17 16  1  0
 18 17  2  0
 20 19  1  0
 20 21  1  6
 22 21  1  0
 22 26  1  0
 23 22  2  0
 24 25  1  0
 24 20  1  0
 27 24  2  0
M  END
$$$$
