WGD.pdb
     RDKit          3D

 27 28  0  0  1  0  0  0  0  0999 V2000
    6.7277  -16.4973   22.6415 N   0  0  0  0  0  0  0  0  0  0  0  0
    8.0702  -16.0591   22.8378 C   0  0  1  0  0  0  0  0  0  0  0  0
    8.3722  -15.9004   24.2922 C   0  0  0  0  0  0  0  0  0  0  0  0
    7.3359  -15.1333   25.0207 C   0  0  0  0  0  0  0  0  0  0  0  0
    6.1381  -15.6484   25.5359 C   0  0  0  0  0  0  0  0  0  0  0  0
    5.4456  -14.6551   26.1032 N   0  0  0  0  0  0  0  0  0  0  0  0
    6.1211  -13.4904   25.9957 C   0  0  0  0  0  0  0  0  0  0  0  0
    5.8617  -12.1935   26.4084 C   0  0  0  0  0  0  0  0  0  0  0  0
    6.7493  -11.1861   26.1661 C   0  0  0  0  0  0  0  0  0  0  0  0
    7.9157  -11.4581   25.5052 C   0  0  0  0  0  0  0  0  0  0  0  0
    8.1634  -12.7570   25.0978 C   0  0  0  0  0  0  0  0  0  0  0  0
    7.2915  -13.7978   25.3236 C   0  0  0  0  0  0  0  0  0  0  0  0
    8.9737  -17.0597   22.1996 C   0  0  0  0  0  0  0  0  0  0  0  0
    8.5409  -18.1430   21.7208 O   0  0  0  0  0  0  0  0  0  0  0  0
   10.3903  -16.7934   22.1204 N   0  0  0  0  0  0  0  0  0  0  0  0
   11.2930  -17.7929   22.5470 C   0  0  0  0  0  0  0  0  0  0  0  0
   12.7063  -17.4083   22.2321 C   0  0  0  0  0  0  0  0  0  0  0  0
   13.2957  -18.0108   21.2686 O   0  0  0  0  0  0  0  0  0  0  0  0
   13.3766  -16.4220   22.9677 N   0  0  0  0  0  0  0  0  0  0  0  0
   14.7980  -16.3574   23.1856 C   0  0  1  0  0  0  0  0  0  0  0  0
   15.5320  -15.2349   22.5083 C   0  0  0  0  0  0  0  0  0  0  0  0
   15.9208  -15.6627   21.1430 C   0  0  0  0  0  0  0  0  0  0  0  0
   16.5776  -16.7192   20.8957 O   0  0  0  0  0  0  0  0  0  0  0  0
   15.2363  -16.6870   24.5293 C   0  0  0  0  0  0  0  0  0  0  0  0
   14.3000  -16.8696   25.5341 O   0  0  0  0  0  0  0  0  0  0  0  0
   15.5741  -14.9013   20.0213 O   0  0  0  0  0  0  0  0  0  0  0  0
   16.4347  -16.8125   24.8124 O   0  0  0  0  0  0  0  0  0  0  0  0
  2  1  1  1
  3  2  1  0
  3  4  1  0
  4  5  2  0
  6  5  1  0
  7  6  1  0
  8  7  2  0
  9  8  1  0
 10 11  1  0
 10  9  2  0
 11 12  2  0
 12  7  1  0
 12  4  1  0
 13 15  1  0
 13  2  1  0
 14 13  2  0
 16 15  1  0
 17 19  1  0
 17 16  1  0
 18 17  2  0
 20 19  1  0
 20 21  1  1
 22 21  1  0
 22 26  1  0
 23 22  2  0
 24 25  1  0
 24 20  1  0
 27 24  2  0
M  END
$$$$
