SWW.pdb
     RDKit          3D

 35 38  0  0  1  0  0  0  0  0999 V2000
   27.1160  -21.1976  -17.6342 O   0  0  0  0  0  0  0  0  0  0  0  0
   28.2313  -20.7241  -16.9816 C   0  0  0  0  0  0  0  0  0  0  0  0
   28.7484  -21.7035  -15.9483 C   0  0  2  0  0  0  0  0  0  0  0  0
   29.1494  -22.9503  -16.5192 N   0  0  0  0  0  0  0  0  0  0  0  0
   27.7612  -21.9061  -14.8549 C   0  0  0  0  0  0  0  0  0  0  0  0
   27.0916  -22.9827  -14.7962 O   0  0  0  0  0  0  0  0  0  0  0  0
   27.5437  -20.9182  -13.8633 N   0  0  0  0  0  0  0  0  0  0  0  0
   26.6302  -21.1048  -12.7835 C   0  0  1  0  0  0  0  0  0  0  0  0
   26.8892  -20.0801  -11.6944 C   0  0  0  0  0  0  0  0  0  0  0  0
   27.8976  -20.5104  -10.7265 C   0  0  0  0  0  0  0  0  0  0  0  0
   29.1531  -21.0115  -11.0703 C   0  0  0  0  0  0  0  0  0  0  0  0
   29.7932  -21.2956   -9.9362 N   0  0  0  0  0  0  0  0  0  0  0  0
   29.0332  -21.0111   -8.8749 C   0  0  0  0  0  0  0  0  0  0  0  0
   29.2293  -21.1195   -7.5035 C   0  0  0  0  0  0  0  0  0  0  0  0
   28.2230  -20.7294   -6.6413 C   0  0  0  0  0  0  0  0  0  0  0  0
   27.0181  -20.2309   -7.1092 C   0  0  0  0  0  0  0  0  0  0  0  0
   26.8436  -20.1316   -8.4656 C   0  0  0  0  0  0  0  0  0  0  0  0
   27.8384  -20.5164   -9.3524 C   0  0  0  0  0  0  0  0  0  0  0  0
   25.2102  -20.9076  -13.1986 C   0  0  0  0  0  0  0  0  0  0  0  0
   25.0024  -20.0210  -14.0605 O   0  0  0  0  0  0  0  0  0  0  0  0
   24.1455  -21.6560  -12.6731 N   0  0  0  0  0  0  0  0  0  0  0  0
   22.7892  -21.4664  -13.1307 C   0  0  1  0  0  0  0  0  0  0  0  0
   21.9296  -22.6329  -12.7717 C   0  0  0  0  0  0  0  0  0  0  0  0
   20.5221  -22.4595  -13.2202 C   0  0  0  0  0  0  0  0  0  0  0  0
   20.0136  -22.6248  -14.4912 C   0  0  0  0  0  0  0  0  0  0  0  0
   18.7052  -22.3747  -14.4720 N   0  0  0  0  0  0  0  0  0  0  0  0
   18.2980  -22.0410  -13.2205 C   0  0  0  0  0  0  0  0  0  0  0  0
   17.0711  -21.7008  -12.6872 C   0  0  0  0  0  0  0  0  0  0  0  0
   16.9715  -21.4068  -11.3442 C   0  0  0  0  0  0  0  0  0  0  0  0
   18.1175  -21.4604  -10.5546 C   0  0  0  0  0  0  0  0  0  0  0  0
   19.3437  -21.8028  -11.1014 C   0  0  0  0  0  0  0  0  0  0  0  0
   19.4337  -22.0940  -12.4372 C   0  0  0  0  0  0  0  0  0  0  0  0
   22.2817  -20.1879  -12.5459 C   0  0  0  0  0  0  0  0  0  0  0  0
   21.4588  -19.4850  -13.1416 O   0  0  0  0  0  0  0  0  0  0  0  0
   22.7213  -19.7384  -11.2990 O   0  0  0  0  0  0  0  0  0  0  0  0
  2  1  1  0
  3  2  1  0
  3  4  1  6
  5  6  2  0
  5  3  1  0
  7  5  1  0
  8  7  1  0
  8  9  1  1
 10 18  1  0
 10  9  1  0
 11 10  2  0
 12 11  1  0
 12 13  1  0
 13 18  2  0
 14 13  1  0
 14 15  2  0
 15 16  1  0
 16 17  2  0
 18 17  1  0
 19 21  1  0
 19  8  1  0
 20 19  2  0
 22 21  1  0
 22 33  1  0
 22 23  1  1
 24 32  1  0
 24 23  1  0
 25 24  2  0
 26 25  1  0
 26 27  1  0
 27 32  2  0
 28 27  1  0
 28 29  2  0
 29 30  1  0
 30 31  2  0
 32 31  1  0
 33 35  1  0
 34 33  2  0
M  END
$$$$
