SWW.pdb
     RDKit          3D

 35 38  0  0  1  0  0  0  0  0999 V2000
   27.0690  -21.0286  -13.8651 O   0  0  0  0  0  0  0  0  0  0  0  0
   27.6131  -19.9219  -13.2543 C   0  0  0  0  0  0  0  0  0  0  0  0
   28.4192  -20.2855  -12.0245 C   0  0  2  0  0  0  0  0  0  0  0  0
   29.5178  -21.1502  -12.3185 N   0  0  0  0  0  0  0  0  0  0  0  0
   27.5527  -20.8602  -10.9615 C   0  0  0  0  0  0  0  0  0  0  0  0
   27.6851  -22.0764  -10.6237 O   0  0  0  0  0  0  0  0  0  0  0  0
   26.5701  -20.0782  -10.3060 N   0  0  0  0  0  0  0  0  0  0  0  0
   25.7379  -20.6025   -9.2727 C   0  0  1  0  0  0  0  0  0  0  0  0
   25.6017  -19.5941   -8.1467 C   0  0  0  0  0  0  0  0  0  0  0  0
   26.8495  -19.3738   -7.4165 C   0  0  0  0  0  0  0  0  0  0  0  0
   27.8308  -18.4581   -7.7963 C   0  0  0  0  0  0  0  0  0  0  0  0
   28.8145  -18.5332   -6.8999 N   0  0  0  0  0  0  0  0  0  0  0  0
   28.5356  -19.4408   -5.9599 C   0  0  0  0  0  0  0  0  0  0  0  0
   29.2142  -19.8872   -4.8326 C   0  0  0  0  0  0  0  0  0  0  0  0
   28.6434  -20.8634   -4.0392 C   0  0  0  0  0  0  0  0  0  0  0  0
   27.4070  -21.4119   -4.3389 C   0  0  0  0  0  0  0  0  0  0  0  0
   26.7530  -20.9584   -5.4555 C   0  0  0  0  0  0  0  0  0  0  0  0
   27.3046  -19.9791   -6.2683 C   0  0  0  0  0  0  0  0  0  0  0  0
   24.3486  -20.8760   -9.7445 C   0  0  0  0  0  0  0  0  0  0  0  0
   23.9895  -20.2793  -10.7871 O   0  0  0  0  0  0  0  0  0  0  0  0
   23.4697  -21.7464   -9.0813 N   0  0  0  0  0  0  0  0  0  0  0  0
   22.1272  -21.9760   -9.5608 C   0  0  1  0  0  0  0  0  0  0  0  0
   21.3907  -22.9232   -8.6727 C   0  0  0  0  0  0  0  0  0  0  0  0
   20.0129  -23.2017   -9.1591 C   0  0  0  0  0  0  0  0  0  0  0  0
   19.5625  -23.2112  -10.4623 C   0  0  0  0  0  0  0  0  0  0  0  0
   18.2635  -23.5065  -10.4712 N   0  0  0  0  0  0  0  0  0  0  0  0
   17.8060  -23.7009   -9.2077 C   0  0  0  0  0  0  0  0  0  0  0  0
   16.5660  -24.0203   -8.6923 C   0  0  0  0  0  0  0  0  0  0  0  0
   16.4102  -24.1536   -7.3292 C   0  0  0  0  0  0  0  0  0  0  0  0
   17.5137  -23.9614   -6.5016 C   0  0  0  0  0  0  0  0  0  0  0  0
   18.7535  -23.6407   -7.0307 C   0  0  0  0  0  0  0  0  0  0  0  0
   18.8996  -23.5105   -8.3867 C   0  0  0  0  0  0  0  0  0  0  0  0
   21.4441  -20.6506   -9.6655 C   0  0  0  0  0  0  0  0  0  0  0  0
   21.4913  -19.8236   -8.7491 O   0  0  0  0  0  0  0  0  0  0  0  0
   20.7236  -20.2967  -10.8082 O   0  0  0  0  0  0  0  0  0  0  0  0
  2  1  1  0
  3  2  1  0
  3  4  1  6
  5  6  2  0
  5  3  1  0
  7  5  1  0
  8  7  1  0
  8  9  1  1
 10 18  1  0
 10  9  1  0
 11 10  2  0
 12 11  1  0
 12 13  1  0
 13 18  2  0
 14 13  1  0
 14 15  2  0
 15 16  1  0
 16 17  2  0
 18 17  1  0
 19 21  1  0
 19  8  1  0
 20 19  2  0
 22 21  1  0
 22 33  1  0
 22 23  1  1
 24 32  1  0
 24 23  1  0
 25 24  2  0
 26 25  1  0
 26 27  1  0
 27 32  2  0
 28 27  1  0
 28 29  2  0
 29 30  1  0
 30 31  2  0
 32 31  1  0
 33 35  1  0
 34 33  2  0
M  END
$$$$
