SWW.pdb
     RDKit          3D

 35 38  0  0  1  0  0  0  0  0999 V2000
   28.8234  -20.5796  -15.0373 O   0  0  0  0  0  0  0  0  0  0  0  0
   27.9575  -20.5487  -16.1065 C   0  0  0  0  0  0  0  0  0  0  0  0
   26.8817  -19.4953  -15.9413 C   0  0  2  0  0  0  0  0  0  0  0  0
   27.3179  -18.1925  -16.3329 N   0  0  0  0  0  0  0  0  0  0  0  0
   26.3423  -19.4873  -14.5556 C   0  0  0  0  0  0  0  0  0  0  0  0
   26.6861  -18.5720  -13.7463 O   0  0  0  0  0  0  0  0  0  0  0  0
   25.4433  -20.4857  -14.1068 N   0  0  0  0  0  0  0  0  0  0  0  0
   24.7877  -20.4136  -12.8418 C   0  0  1  0  0  0  0  0  0  0  0  0
   23.4899  -21.1996  -12.8781 C   0  0  0  0  0  0  0  0  0  0  0  0
   22.3120  -20.3575  -13.0839 C   0  0  0  0  0  0  0  0  0  0  0  0
   21.9634  -19.7791  -14.3044 C   0  0  0  0  0  0  0  0  0  0  0  0
   20.8404  -19.0875  -14.1115 N   0  0  0  0  0  0  0  0  0  0  0  0
   20.4355  -19.1791  -12.8415 C   0  0  0  0  0  0  0  0  0  0  0  0
   19.3520  -18.6580  -12.1450 C   0  0  0  0  0  0  0  0  0  0  0  0
   19.2075  -18.9450  -10.8015 C   0  0  0  0  0  0  0  0  0  0  0  0
   20.1180  -19.7420  -10.1269 C   0  0  0  0  0  0  0  0  0  0  0  0
   21.1805  -20.2467  -10.8315 C   0  0  0  0  0  0  0  0  0  0  0  0
   21.3481  -19.9734  -12.1810 C   0  0  0  0  0  0  0  0  0  0  0  0
   25.5992  -21.0182  -11.7448 C   0  0  0  0  0  0  0  0  0  0  0  0
   26.6091  -21.6721  -12.0978 O   0  0  0  0  0  0  0  0  0  0  0  0
   25.2769  -20.8808  -10.3857 N   0  0  0  0  0  0  0  0  0  0  0  0
   26.2203  -21.2195   -9.3465 C   0  0  1  0  0  0  0  0  0  0  0  0
   27.4993  -20.4676   -9.5116 C   0  0  0  0  0  0  0  0  0  0  0  0
   28.4767  -20.7668   -8.4310 C   0  0  0  0  0  0  0  0  0  0  0  0
   29.4793  -21.7133   -8.4366 C   0  0  0  0  0  0  0  0  0  0  0  0
   30.1328  -21.6614   -7.2769 N   0  0  0  0  0  0  0  0  0  0  0  0
   29.6067  -20.7035   -6.4712 C   0  0  0  0  0  0  0  0  0  0  0  0
   29.9178  -20.2651   -5.1998 C   0  0  0  0  0  0  0  0  0  0  0  0
   29.1821  -19.2465   -4.6329 C   0  0  0  0  0  0  0  0  0  0  0  0
   28.1375  -18.6823   -5.3609 C   0  0  0  0  0  0  0  0  0  0  0  0
   27.8345  -19.1310   -6.6363 C   0  0  0  0  0  0  0  0  0  0  0  0
   28.5710  -20.1437   -7.1924 C   0  0  0  0  0  0  0  0  0  0  0  0
   25.5694  -20.9471   -8.0288 C   0  0  0  0  0  0  0  0  0  0  0  0
   24.8052  -19.9896   -7.8697 O   0  0  0  0  0  0  0  0  0  0  0  0
   25.8025  -21.7683   -6.9236 O   0  0  0  0  0  0  0  0  0  0  0  0
  2  1  1  0
  3  2  1  0
  3  4  1  1
  5  6  2  0
  5  3  1  0
  7  5  1  0
  8  7  1  0
  8  9  1  6
 10 18  1  0
 10  9  1  0
 11 10  2  0
 12 11  1  0
 12 13  1  0
 13 18  2  0
 14 13  1  0
 14 15  2  0
 15 16  1  0
 16 17  2  0
 18 17  1  0
 19 21  1  0
 19  8  1  0
 20 19  2  0
 22 21  1  0
 22 33  1  0
 22 23  1  6
 24 32  1  0
 24 23  1  0
 25 24  2  0
 26 25  1  0
 26 27  1  0
 27 32  2  0
 28 27  1  0
 28 29  2  0
 29 30  1  0
 30 31  2  0
 32 31  1  0
 33 35  1  0
 34 33  2  0
M  END
$$$$
