SWW.pdb
     RDKit          3D

 35 38  0  0  1  0  0  0  0  0999 V2000
   30.1815  -24.3947  -15.7539 O   0  0  0  0  0  0  0  0  0  0  0  0
   29.5363  -24.4213  -16.9691 C   0  0  0  0  0  0  0  0  0  0  0  0
   29.4939  -23.0564  -17.6244 C   0  0  2  0  0  0  0  0  0  0  0  0
   30.7919  -22.4852  -17.7982 N   0  0  0  0  0  0  0  0  0  0  0  0
   28.5942  -22.1308  -16.8862 C   0  0  0  0  0  0  0  0  0  0  0  0
   29.0283  -21.0061  -16.4894 O   0  0  0  0  0  0  0  0  0  0  0  0
   27.2479  -22.4733  -16.6093 N   0  0  0  0  0  0  0  0  0  0  0  0
   26.3345  -21.5607  -16.0024 C   0  0  1  0  0  0  0  0  0  0  0  0
   25.0181  -21.5560  -16.7577 C   0  0  0  0  0  0  0  0  0  0  0  0
   24.0386  -20.6229  -16.2022 C   0  0  0  0  0  0  0  0  0  0  0  0
   24.2088  -19.2391  -16.1581 C   0  0  0  0  0  0  0  0  0  0  0  0
   23.1204  -18.7215  -15.5888 N   0  0  0  0  0  0  0  0  0  0  0  0
   22.2516  -19.6815  -15.2591 C   0  0  0  0  0  0  0  0  0  0  0  0
   20.9989  -19.6702  -14.6580 C   0  0  0  0  0  0  0  0  0  0  0  0
   20.3355  -20.8638  -14.4494 C   0  0  0  0  0  0  0  0  0  0  0  0
   20.8882  -22.0773  -14.8250 C   0  0  0  0  0  0  0  0  0  0  0  0
   22.1252  -22.0678  -15.4167 C   0  0  0  0  0  0  0  0  0  0  0  0
   22.8118  -20.8829  -15.6372 C   0  0  0  0  0  0  0  0  0  0  0  0
   25.9974  -21.9414  -14.5992 C   0  0  0  0  0  0  0  0  0  0  0  0
   26.4286  -23.0514  -14.2069 O   0  0  0  0  0  0  0  0  0  0  0  0
   25.2427  -21.1253  -13.7423 N   0  0  0  0  0  0  0  0  0  0  0  0
   25.2960  -21.2812  -12.3079 C   0  0  1  0  0  0  0  0  0  0  0  0
   26.6903  -21.1230  -11.7984 C   0  0  0  0  0  0  0  0  0  0  0  0
   26.7289  -20.7204  -10.3671 C   0  0  0  0  0  0  0  0  0  0  0  0
   25.7283  -20.1234   -9.6298 C   0  0  0  0  0  0  0  0  0  0  0  0
   26.1628  -19.9273   -8.3858 N   0  0  0  0  0  0  0  0  0  0  0  0
   27.4375  -20.3735   -8.2459 C   0  0  0  0  0  0  0  0  0  0  0  0
   28.3162  -20.3996   -7.1817 C   0  0  0  0  0  0  0  0  0  0  0  0
   29.5762  -20.9315   -7.3534 C   0  0  0  0  0  0  0  0  0  0  0  0
   29.9333  -21.4319   -8.6030 C   0  0  0  0  0  0  0  0  0  0  0  0
   29.0426  -21.3999   -9.6640 C   0  0  0  0  0  0  0  0  0  0  0  0
   27.7920  -20.8697   -9.4846 C   0  0  0  0  0  0  0  0  0  0  0  0
   24.3562  -20.2888  -11.7029 C   0  0  0  0  0  0  0  0  0  0  0  0
   23.6811  -20.5612  -10.7048 O   0  0  0  0  0  0  0  0  0  0  0  0
   24.2055  -19.0111  -12.2462 O   0  0  0  0  0  0  0  0  0  0  0  0
  2  1  1  0
  3  2  1  0
  3  4  1  1
  5  6  2  0
  5  3  1  0
  7  5  1  0
  8  7  1  0
  8  9  1  6
 10 18  1  0
 10  9  1  0
 11 10  2  0
 12 11  1  0
 12 13  1  0
 13 18  2  0
 14 13  1  0
 14 15  2  0
 15 16  1  0
 16 17  2  0
 18 17  1  0
 19 21  1  0
 19  8  1  0
 20 19  2  0
 22 21  1  0
 22 33  1  0
 22 23  1  1
 24 32  1  0
 24 23  1  0
 25 24  2  0
 26 25  1  0
 26 27  1  0
 27 32  2  0
 28 27  1  0
 28 29  2  0
 29 30  1  0
 30 31  2  0
 32 31  1  0
 33 35  1  0
 34 33  2  0
M  END
$$$$
