SWW.pdb
     RDKit          3D

 35 38  0  0  1  0  0  0  0  0999 V2000
   27.2549  -18.5010  -17.9803 O   0  0  0  0  0  0  0  0  0  0  0  0
   28.4505  -18.4851  -17.2991 C   0  0  0  0  0  0  0  0  0  0  0  0
   28.8723  -19.8693  -16.8513 C   0  0  2  0  0  0  0  0  0  0  0  0
   29.0439  -20.7757  -17.9422 N   0  0  0  0  0  0  0  0  0  0  0  0
   27.9320  -20.4191  -15.8390 C   0  0  0  0  0  0  0  0  0  0  0  0
   27.1184  -21.3381  -16.1619 O   0  0  0  0  0  0  0  0  0  0  0  0
   27.9184  -19.9398  -14.5060 N   0  0  0  0  0  0  0  0  0  0  0  0
   26.9914  -20.4143  -13.5309 C   0  0  1  0  0  0  0  0  0  0  0  0
   27.3593  -19.8857  -12.1566 C   0  0  0  0  0  0  0  0  0  0  0  0
   26.5965  -20.5098  -11.0762 C   0  0  0  0  0  0  0  0  0  0  0  0
   25.7341  -21.5927  -11.2472 C   0  0  0  0  0  0  0  0  0  0  0  0
   25.2212  -21.8864  -10.0524 N   0  0  0  0  0  0  0  0  0  0  0  0
   25.6955  -21.0625   -9.1136 C   0  0  0  0  0  0  0  0  0  0  0  0
   25.4821  -20.9507   -7.7452 C   0  0  0  0  0  0  0  0  0  0  0  0
   26.1417  -19.9674   -7.0336 C   0  0  0  0  0  0  0  0  0  0  0  0
   27.0141  -19.0856   -7.6507 C   0  0  0  0  0  0  0  0  0  0  0  0
   27.2114  -19.2119   -9.0017 C   0  0  0  0  0  0  0  0  0  0  0  0
   26.5613  -20.1908   -9.7387 C   0  0  0  0  0  0  0  0  0  0  0  0
   25.6001  -19.9404  -13.7902 C   0  0  0  0  0  0  0  0  0  0  0  0
   25.4532  -18.7036  -13.9340 O   0  0  0  0  0  0  0  0  0  0  0  0
   24.4975  -20.8049  -13.8743 N   0  0  0  0  0  0  0  0  0  0  0  0
   23.1633  -20.3080  -14.1148 C   0  0  1  0  0  0  0  0  0  0  0  0
   22.5468  -20.9682  -15.3034 C   0  0  0  0  0  0  0  0  0  0  0  0
   21.1673  -20.4807  -15.5709 C   0  0  0  0  0  0  0  0  0  0  0  0
   20.7823  -19.2305  -16.0066 C   0  0  0  0  0  0  0  0  0  0  0  0
   19.4555  -19.1999  -16.1226 N   0  0  0  0  0  0  0  0  0  0  0  0
   18.9152  -20.3969  -15.7779 C   0  0  0  0  0  0  0  0  0  0  0  0
   17.6184  -20.8673  -15.7294 C   0  0  0  0  0  0  0  0  0  0  0  0
   17.3804  -22.1646  -15.3286 C   0  0  0  0  0  0  0  0  0  0  0  0
   18.4601  -22.9725  -14.9807 C   0  0  0  0  0  0  0  0  0  0  0  0
   19.7575  -22.4889  -15.0331 C   0  0  0  0  0  0  0  0  0  0  0  0
   19.9851  -21.1983  -15.4329 C   0  0  0  0  0  0  0  0  0  0  0  0
   22.3629  -20.5205  -12.8705 C   0  0  0  0  0  0  0  0  0  0  0  0
   22.5710  -21.4817  -12.1229 O   0  0  0  0  0  0  0  0  0  0  0  0
   21.3453  -19.6365  -12.5055 O   0  0  0  0  0  0  0  0  0  0  0  0
  2  1  1  0
  3  2  1  0
  3  4  1  6
  5  6  2  0
  5  3  1  0
  7  5  1  0
  8  7  1  0
  8  9  1  1
 10 18  1  0
 10  9  1  0
 11 10  2  0
 12 11  1  0
 12 13  1  0
 13 18  2  0
 14 13  1  0
 14 15  2  0
 15 16  1  0
 16 17  2  0
 18 17  1  0
 19 21  1  0
 19  8  1  0
 20 19  2  0
 22 21  1  0
 22 33  1  0
 22 23  1  6
 24 32  1  0
 24 23  1  0
 25 24  2  0
 26 25  1  0
 26 27  1  0
 27 32  2  0
 28 27  1  0
 28 29  2  0
 29 30  1  0
 30 31  2  0
 32 31  1  0
 33 35  1  0
 34 33  2  0
M  END
$$$$
