SWW.pdb
     RDKit          3D

 35 38  0  0  1  0  0  0  0  0999 V2000
   17.9981  -31.6989  -15.7607 O   0  0  0  0  0  0  0  0  0  0  0  0
   18.6656  -30.5655  -16.1652 C   0  0  0  0  0  0  0  0  0  0  0  0
   20.0531  -30.4737  -15.5645 C   0  0  2  0  0  0  0  0  0  0  0  0
   20.8492  -31.6298  -15.8307 N   0  0  0  0  0  0  0  0  0  0  0  0
   19.9924  -30.1873  -14.1066 C   0  0  0  0  0  0  0  0  0  0  0  0
   20.5342  -30.9840  -13.2805 O   0  0  0  0  0  0  0  0  0  0  0  0
   19.3380  -29.0347  -13.6067 N   0  0  0  0  0  0  0  0  0  0  0  0
   19.3703  -28.6735  -12.2269 C   0  0  1  0  0  0  0  0  0  0  0  0
   19.3214  -27.1638  -12.0787 C   0  0  0  0  0  0  0  0  0  0  0  0
   20.4128  -26.4812  -12.7727 C   0  0  0  0  0  0  0  0  0  0  0  0
   21.6817  -27.0264  -12.9690 C   0  0  0  0  0  0  0  0  0  0  0  0
   22.4043  -26.1252  -13.6340 N   0  0  0  0  0  0  0  0  0  0  0  0
   21.6857  -25.0267  -13.8832 C   0  0  0  0  0  0  0  0  0  0  0  0
   21.9656  -23.8289  -14.5293 C   0  0  0  0  0  0  0  0  0  0  0  0
   20.9819  -22.8639  -14.6259 C   0  0  0  0  0  0  0  0  0  0  0  0
   19.7179  -23.0593  -14.0933 C   0  0  0  0  0  0  0  0  0  0  0  0
   19.4611  -24.2478  -13.4595 C   0  0  0  0  0  0  0  0  0  0  0  0
   20.4316  -25.2326  -13.3493 C   0  0  0  0  0  0  0  0  0  0  0  0
   18.1915  -29.1947  -11.4744 C   0  0  0  0  0  0  0  0  0  0  0  0
   17.0822  -29.1086  -12.0524 O   0  0  0  0  0  0  0  0  0  0  0  0
   18.2863  -29.7554  -10.1912 N   0  0  0  0  0  0  0  0  0  0  0  0
   17.1203  -30.2339   -9.4867 C   0  0  1  0  0  0  0  0  0  0  0  0
   17.3153  -31.6342   -9.0073 C   0  0  0  0  0  0  0  0  0  0  0  0
   17.3523  -32.6160  -10.1240 C   0  0  0  0  0  0  0  0  0  0  0  0
   18.3613  -32.8134  -11.0427 C   0  0  0  0  0  0  0  0  0  0  0  0
   18.0046  -33.7883  -11.8776 N   0  0  0  0  0  0  0  0  0  0  0  0
   16.7753  -34.2685  -11.5586 C   0  0  0  0  0  0  0  0  0  0  0  0
   15.9782  -35.2558  -12.1020 C   0  0  0  0  0  0  0  0  0  0  0  0
   14.7469  -35.5206  -11.5417 C   0  0  0  0  0  0  0  0  0  0  0  0
   14.3355  -34.7812  -10.4356 C   0  0  0  0  0  0  0  0  0  0  0  0
   15.1443  -33.7923   -9.8991 C   0  0  0  0  0  0  0  0  0  0  0  0
   16.3669  -33.5358  -10.4620 C   0  0  0  0  0  0  0  0  0  0  0  0
   16.8396  -29.2857   -8.3660 C   0  0  0  0  0  0  0  0  0  0  0  0
   17.5971  -28.3442   -8.1092 O   0  0  0  0  0  0  0  0  0  0  0  0
   15.7057  -29.4298   -7.5636 O   0  0  0  0  0  0  0  0  0  0  0  0
  2  1  1  0
  3  2  1  0
  3  4  1  1
  5  6  2  0
  5  3  1  0
  7  5  1  0
  8  7  1  0
  8  9  1  6
 10 18  1  0
 10  9  1  0
 11 10  2  0
 12 11  1  0
 12 13  1  0
 13 18  2  0
 14 13  1  0
 14 15  2  0
 15 16  1  0
 16 17  2  0
 18 17  1  0
 19 21  1  0
 19  8  1  0
 20 19  2  0
 22 21  1  0
 22 33  1  0
 22 23  1  1
 24 32  1  0
 24 23  1  0
 25 24  2  0
 26 25  1  0
 26 27  1  0
 27 32  2  0
 28 27  1  0
 28 29  2  0
 29 30  1  0
 30 31  2  0
 32 31  1  0
 33 35  1  0
 34 33  2  0
M  END
$$$$
