SWW.pdb
     RDKit          3D

 35 38  0  0  1  0  0  0  0  0999 V2000
   29.4043  -20.6077  -16.4714 O   0  0  0  0  0  0  0  0  0  0  0  0
   28.9669  -19.8750  -15.3917 C   0  0  0  0  0  0  0  0  0  0  0  0
   27.5949  -19.2770  -15.6241 C   0  0  2  0  0  0  0  0  0  0  0  0
   27.6486  -17.9988  -16.2600 N   0  0  0  0  0  0  0  0  0  0  0  0
   26.8115  -19.2164  -14.3617 C   0  0  0  0  0  0  0  0  0  0  0  0
   26.7386  -18.1286  -13.7119 O   0  0  0  0  0  0  0  0  0  0  0  0
   26.1350  -20.3538  -13.8565 N   0  0  0  0  0  0  0  0  0  0  0  0
   25.3508  -20.3124  -12.6655 C   0  0  1  0  0  0  0  0  0  0  0  0
   23.9838  -20.9223  -12.9162 C   0  0  0  0  0  0  0  0  0  0  0  0
   23.0023  -19.9550  -13.4056 C   0  0  0  0  0  0  0  0  0  0  0  0
   22.9175  -19.5230  -14.7293 C   0  0  0  0  0  0  0  0  0  0  0  0
   21.9125  -18.6503  -14.8002 N   0  0  0  0  0  0  0  0  0  0  0  0
   21.3373  -18.4864  -13.6055 C   0  0  0  0  0  0  0  0  0  0  0  0
   20.2770  -17.7096  -13.1549 C   0  0  0  0  0  0  0  0  0  0  0  0
   19.9135  -17.7644  -11.8233 C   0  0  0  0  0  0  0  0  0  0  0  0
   20.5809  -18.5766  -10.9210 C   0  0  0  0  0  0  0  0  0  0  0  0
   21.6244  -19.3356  -11.3848 C   0  0  0  0  0  0  0  0  0  0  0  0
   22.0089  -19.2985  -12.7170 C   0  0  0  0  0  0  0  0  0  0  0  0
   25.9553  -21.1095  -11.5580 C   0  0  0  0  0  0  0  0  0  0  0  0
   26.6898  -22.0663  -11.9001 O   0  0  0  0  0  0  0  0  0  0  0  0
   25.7337  -20.8294  -10.2006 N   0  0  0  0  0  0  0  0  0  0  0  0
   26.3568  -21.6077   -9.1561 C   0  0  1  0  0  0  0  0  0  0  0  0
   27.7760  -21.1944   -8.9475 C   0  0  0  0  0  0  0  0  0  0  0  0
   27.9058  -20.0908   -7.9587 C   0  0  0  0  0  0  0  0  0  0  0  0
   27.2601  -18.8726   -7.9623 C   0  0  0  0  0  0  0  0  0  0  0  0
   27.6526  -18.1693   -6.9010 N   0  0  0  0  0  0  0  0  0  0  0  0
   28.5527  -18.8710   -6.1656 C   0  0  0  0  0  0  0  0  0  0  0  0
   29.2424  -18.5924   -5.0028 C   0  0  0  0  0  0  0  0  0  0  0  0
   30.1097  -19.5306   -4.4855 C   0  0  0  0  0  0  0  0  0  0  0  0
   30.2695  -20.7427   -5.1526 C   0  0  0  0  0  0  0  0  0  0  0  0
   29.5718  -21.0108   -6.3193 C   0  0  0  0  0  0  0  0  0  0  0  0
   28.7114  -20.0727   -6.8265 C   0  0  0  0  0  0  0  0  0  0  0  0
   25.5347  -21.4550   -7.9172 C   0  0  0  0  0  0  0  0  0  0  0  0
   24.5875  -20.6639   -7.8619 O   0  0  0  0  0  0  0  0  0  0  0  0
   25.8084  -22.2042   -6.7708 O   0  0  0  0  0  0  0  0  0  0  0  0
  2  1  1  0
  3  2  1  0
  3  4  1  1
  5  6  2  0
  5  3  1  0
  7  5  1  0
  8  7  1  0
  8  9  1  6
 10 18  1  0
 10  9  1  0
 11 10  2  0
 12 11  1  0
 12 13  1  0
 13 18  2  0
 14 13  1  0
 14 15  2  0
 15 16  1  0
 16 17  2  0
 18 17  1  0
 19 21  1  0
 19  8  1  0
 20 19  2  0
 22 21  1  0
 22 33  1  0
 22 23  1  1
 24 32  1  0
 24 23  1  0
 25 24  2  0
 26 25  1  0
 26 27  1  0
 27 32  2  0
 28 27  1  0
 28 29  2  0
 29 30  1  0
 30 31  2  0
 32 31  1  0
 33 35  1  0
 34 33  2  0
M  END
$$$$
