SWW.pdb
     RDKit          3D

 35 38  0  0  1  0  0  0  0  0999 V2000
   26.9754  -18.8766  -14.8260 O   0  0  0  0  0  0  0  0  0  0  0  0
   28.2367  -19.3948  -14.6406 C   0  0  0  0  0  0  0  0  0  0  0  0
   28.2064  -20.8772  -14.3311 C   0  0  2  0  0  0  0  0  0  0  0  0
   27.7586  -21.6644  -15.4361 N   0  0  0  0  0  0  0  0  0  0  0  0
   27.4035  -21.1578  -13.1114 C   0  0  0  0  0  0  0  0  0  0  0  0
   26.3060  -21.7883  -13.2054 O   0  0  0  0  0  0  0  0  0  0  0  0
   27.8344  -20.7355  -11.8297 N   0  0  0  0  0  0  0  0  0  0  0  0
   27.0781  -20.9858  -10.6463 C   0  0  1  0  0  0  0  0  0  0  0  0
   27.8832  -20.6020   -9.4183 C   0  0  0  0  0  0  0  0  0  0  0  0
   27.1126  -20.6773   -8.1777 C   0  0  0  0  0  0  0  0  0  0  0  0
   25.8319  -21.2213   -8.0800 C   0  0  0  0  0  0  0  0  0  0  0  0
   25.4511  -21.1184   -6.8068 N   0  0  0  0  0  0  0  0  0  0  0  0
   26.4035  -20.5411   -6.0687 C   0  0  0  0  0  0  0  0  0  0  0  0
   26.5003  -20.2129   -4.7220 C   0  0  0  0  0  0  0  0  0  0  0  0
   27.6495  -19.6073   -4.2521 C   0  0  0  0  0  0  0  0  0  0  0  0
   28.7128  -19.3170   -5.0913 C   0  0  0  0  0  0  0  0  0  0  0  0
   28.5983  -19.6485   -6.4169 C   0  0  0  0  0  0  0  0  0  0  0  0
   27.4551  -20.2572   -6.9135 C   0  0  0  0  0  0  0  0  0  0  0  0
   25.8295  -20.1705  -10.5856 C   0  0  0  0  0  0  0  0  0  0  0  0
   25.9739  -18.9279  -10.6702 O   0  0  0  0  0  0  0  0  0  0  0  0
   24.5514  -20.7326  -10.4426 N   0  0  0  0  0  0  0  0  0  0  0  0
   23.3589  -19.9194  -10.4798 C   0  0  1  0  0  0  0  0  0  0  0  0
   23.2184  -19.2258  -11.7943 C   0  0  0  0  0  0  0  0  0  0  0  0
   22.7709  -20.1444  -12.8752 C   0  0  0  0  0  0  0  0  0  0  0  0
   21.8231  -21.1427  -12.7974 C   0  0  0  0  0  0  0  0  0  0  0  0
   21.7158  -21.7340  -13.9864 N   0  0  0  0  0  0  0  0  0  0  0  0
   22.5653  -21.1694  -14.8825 C   0  0  0  0  0  0  0  0  0  0  0  0
   22.8298  -21.4140  -16.2150 C   0  0  0  0  0  0  0  0  0  0  0  0
   23.7723  -20.6522  -16.8720 C   0  0  0  0  0  0  0  0  0  0  0  0
   24.4378  -19.6495  -16.1711 C   0  0  0  0  0  0  0  0  0  0  0  0
   24.1639  -19.4135  -14.8335 C   0  0  0  0  0  0  0  0  0  0  0  0
   23.2254  -20.1752  -14.1882 C   0  0  0  0  0  0  0  0  0  0  0  0
   22.1913  -20.8025  -10.1780 C   0  0  0  0  0  0  0  0  0  0  0  0
   21.1033  -20.3383   -9.8219 O   0  0  0  0  0  0  0  0  0  0  0  0
   22.2877  -22.1913  -10.2876 O   0  0  0  0  0  0  0  0  0  0  0  0
  2  1  1  0
  3  2  1  0
  3  4  1  6
  5  6  2  0
  5  3  1  0
  7  5  1  0
  8  7  1  0
  8  9  1  1
 10 18  1  0
 10  9  1  0
 11 10  2  0
 12 11  1  0
 12 13  1  0
 13 18  2  0
 14 13  1  0
 14 15  2  0
 15 16  1  0
 16 17  2  0
 18 17  1  0
 19 21  1  0
 19  8  1  0
 20 19  2  0
 22 21  1  0
 22 33  1  0
 22 23  1  6
 24 32  1  0
 24 23  1  0
 25 24  2  0
 26 25  1  0
 26 27  1  0
 27 32  2  0
 28 27  1  0
 28 29  2  0
 29 30  1  0
 30 31  2  0
 32 31  1  0
 33 35  1  0
 34 33  2  0
M  END
$$$$
