SWW.pdb
     RDKit          3D

 35 38  0  0  1  0  0  0  0  0999 V2000
   27.2700  -17.5565  -15.2491 O   0  0  0  0  0  0  0  0  0  0  0  0
   28.1644  -18.0980  -14.3542 C   0  0  0  0  0  0  0  0  0  0  0  0
   28.4640  -19.5522  -14.6537 C   0  0  2  0  0  0  0  0  0  0  0  0
   28.8583  -19.7683  -16.0098 N   0  0  0  0  0  0  0  0  0  0  0  0
   27.3207  -20.4269  -14.2808 C   0  0  0  0  0  0  0  0  0  0  0  0
   26.6185  -20.9733  -15.1859 O   0  0  0  0  0  0  0  0  0  0  0  0
   26.9884  -20.6709  -12.9256 N   0  0  0  0  0  0  0  0  0  0  0  0
   25.8999  -21.5100  -12.5430 C   0  0  1  0  0  0  0  0  0  0  0  0
   26.2311  -22.2450  -11.2572 C   0  0  0  0  0  0  0  0  0  0  0  0
   27.3138  -21.6197  -10.4987 C   0  0  0  0  0  0  0  0  0  0  0  0
   28.6438  -21.5773  -10.9173 C   0  0  0  0  0  0  0  0  0  0  0  0
   29.3368  -20.9328   -9.9786 N   0  0  0  0  0  0  0  0  0  0  0  0
   28.5417  -20.5527   -8.9745 C   0  0  0  0  0  0  0  0  0  0  0  0
   28.7652  -19.8675   -7.7866 C   0  0  0  0  0  0  0  0  0  0  0  0
   27.7054  -19.6215   -6.9354 C   0  0  0  0  0  0  0  0  0  0  0  0
   26.4199  -20.0416   -7.2356 C   0  0  0  0  0  0  0  0  0  0  0  0
   26.2195  -20.7162   -8.4125 C   0  0  0  0  0  0  0  0  0  0  0  0
   27.2668  -20.9757   -9.2842 C   0  0  0  0  0  0  0  0  0  0  0  0
   24.6560  -20.7351  -12.2601 C   0  0  0  0  0  0  0  0  0  0  0  0
   24.8146  -19.5853  -11.7862 O   0  0  0  0  0  0  0  0  0  0  0  0
   23.3674  -21.2369  -12.5001 N   0  0  0  0  0  0  0  0  0  0  0  0
   22.1890  -20.4321  -12.2796 C   0  0  1  0  0  0  0  0  0  0  0  0
   22.1618  -19.2519  -13.1932 C   0  0  0  0  0  0  0  0  0  0  0  0
   22.2728  -19.6402  -14.6248 C   0  0  0  0  0  0  0  0  0  0  0  0
   21.5783  -20.6293  -15.2885 C   0  0  0  0  0  0  0  0  0  0  0  0
   21.9698  -20.6561  -16.5616 N   0  0  0  0  0  0  0  0  0  0  0  0
   22.9166  -19.7109  -16.7933 C   0  0  0  0  0  0  0  0  0  0  0  0
   23.6249  -19.3415  -17.9190 C   0  0  0  0  0  0  0  0  0  0  0  0
   24.5428  -18.3163  -17.8386 C   0  0  0  0  0  0  0  0  0  0  0  0
   24.7339  -17.6754  -16.6170 C   0  0  0  0  0  0  0  0  0  0  0  0
   24.0172  -18.0554  -15.4937 C   0  0  0  0  0  0  0  0  0  0  0  0
   23.1065  -19.0752  -15.5825 C   0  0  0  0  0  0  0  0  0  0  0  0
   20.9931  -21.3114  -12.4547 C   0  0  0  0  0  0  0  0  0  0  0  0
   21.0911  -22.4541  -12.9138 O   0  0  0  0  0  0  0  0  0  0  0  0
   19.7147  -20.8716  -12.1046 O   0  0  0  0  0  0  0  0  0  0  0  0
  2  1  1  0
  3  2  1  0
  3  4  1  6
  5  6  2  0
  5  3  1  0
  7  5  1  0
  8  7  1  0
  8  9  1  1
 10 18  1  0
 10  9  1  0
 11 10  2  0
 12 11  1  0
 12 13  1  0
 13 18  2  0
 14 13  1  0
 14 15  2  0
 15 16  1  0
 16 17  2  0
 18 17  1  0
 19 21  1  0
 19  8  1  0
 20 19  2  0
 22 21  1  0
 22 33  1  0
 22 23  1  6
 24 32  1  0
 24 23  1  0
 25 24  2  0
 26 25  1  0
 26 27  1  0
 27 32  2  0
 28 27  1  0
 28 29  2  0
 29 30  1  0
 30 31  2  0
 32 31  1  0
 33 35  1  0
 34 33  2  0
M  END
$$$$
