SWW.pdb
     RDKit          3D

 35 38  0  0  1  0  0  0  0  0999 V2000
   25.9837  -19.7450  -18.9397 O   0  0  0  0  0  0  0  0  0  0  0  0
   27.1677  -19.2941  -18.4025 C   0  0  0  0  0  0  0  0  0  0  0  0
   27.9531  -20.4043  -17.7356 C   0  0  2  0  0  0  0  0  0  0  0  0
   28.3156  -21.4476  -18.6419 N   0  0  0  0  0  0  0  0  0  0  0  0
   27.2274  -20.9456  -16.5560 C   0  0  0  0  0  0  0  0  0  0  0  0
   26.5873  -22.0375  -16.6510 O   0  0  0  0  0  0  0  0  0  0  0  0
   27.2300  -20.2680  -15.3120 N   0  0  0  0  0  0  0  0  0  0  0  0
   26.5258  -20.7573  -14.1718 C   0  0  1  0  0  0  0  0  0  0  0  0
   27.0946  -20.1486  -12.9032 C   0  0  0  0  0  0  0  0  0  0  0  0
   26.7134  -20.8769  -11.6936 C   0  0  0  0  0  0  0  0  0  0  0  0
   26.7044  -22.2675  -11.5838 C   0  0  0  0  0  0  0  0  0  0  0  0
   26.3067  -22.5672  -10.3474 N   0  0  0  0  0  0  0  0  0  0  0  0
   26.0559  -21.4589   -9.6447 C   0  0  0  0  0  0  0  0  0  0  0  0
   25.6276  -21.2304   -8.3428 C   0  0  0  0  0  0  0  0  0  0  0  0
   25.4597  -19.9321   -7.9017 C   0  0  0  0  0  0  0  0  0  0  0  0
   25.7079  -18.8469   -8.7263 C   0  0  0  0  0  0  0  0  0  0  0  0
   26.1298  -19.0929  -10.0076 C   0  0  0  0  0  0  0  0  0  0  0  0
   26.3061  -20.3870  -10.4746 C   0  0  0  0  0  0  0  0  0  0  0  0
   25.0813  -20.3826  -14.1909 C   0  0  0  0  0  0  0  0  0  0  0  0
   24.8250  -19.1714  -14.3893 O   0  0  0  0  0  0  0  0  0  0  0  0
   24.0448  -21.3098  -14.0011 N   0  0  0  0  0  0  0  0  0  0  0  0
   22.6601  -20.9015  -13.9746 C   0  0  1  0  0  0  0  0  0  0  0  0
   21.7512  -22.0801  -13.8588 C   0  0  0  0  0  0  0  0  0  0  0  0
   20.8879  -22.0140  -12.6493 C   0  0  0  0  0  0  0  0  0  0  0  0
   20.3837  -20.8892  -12.0314 C   0  0  0  0  0  0  0  0  0  0  0  0
   19.6564  -21.2606  -10.9788 N   0  0  0  0  0  0  0  0  0  0  0  0
   19.6461  -22.6126  -10.8545 C   0  0  0  0  0  0  0  0  0  0  0  0
   19.0534  -23.4722   -9.9517 C   0  0  0  0  0  0  0  0  0  0  0  0
   19.2304  -24.8321  -10.0910 C   0  0  0  0  0  0  0  0  0  0  0  0
   20.0072  -25.3074  -11.1447 C   0  0  0  0  0  0  0  0  0  0  0  0
   20.5974  -24.4345  -12.0446 C   0  0  0  0  0  0  0  0  0  0  0  0
   20.4160  -23.0843  -11.8989 C   0  0  0  0  0  0  0  0  0  0  0  0
   22.4866  -19.9395  -12.8438 C   0  0  0  0  0  0  0  0  0  0  0  0
   23.1051  -20.0694  -11.7824 O   0  0  0  0  0  0  0  0  0  0  0  0
   21.6145  -18.8535  -12.9456 O   0  0  0  0  0  0  0  0  0  0  0  0
  2  1  1  0
  3  2  1  0
  3  4  1  6
  5  6  2  0
  5  3  1  0
  7  5  1  0
  8  7  1  0
  8  9  1  1
 10 18  1  0
 10  9  1  0
 11 10  2  0
 12 11  1  0
 12 13  1  0
 13 18  2  0
 14 13  1  0
 14 15  2  0
 15 16  1  0
 16 17  2  0
 18 17  1  0
 19 21  1  0
 19  8  1  0
 20 19  2  0
 22 21  1  0
 22 33  1  0
 22 23  1  1
 24 32  1  0
 24 23  1  0
 25 24  2  0
 26 25  1  0
 26 27  1  0
 27 32  2  0
 28 27  1  0
 28 29  2  0
 29 30  1  0
 30 31  2  0
 32 31  1  0
 33 35  1  0
 34 33  2  0
M  END
$$$$
