HWH.pdb
     RDKit          3D

 35 38  0  0  1  0  0  0  0  0999 V2000
   26.4354  -24.6725  -15.6960 N   0  0  0  0  0  0  0  0  0  0  0  0
   26.3761  -23.2205  -15.6769 C   0  0  1  0  0  0  0  0  0  0  0  0
   25.4745  -22.8287  -16.8403 C   0  0  0  0  0  0  0  0  0  0  0  0
   26.2962  -22.7976  -18.0665 C   0  0  0  0  0  0  0  0  0  0  0  0
   26.3293  -23.8308  -18.9955 C   0  0  0  0  0  0  0  0  0  0  0  0
   27.1917  -23.4171  -19.9577 N   0  0  0  0  0  0  0  0  0  0  0  0
   27.6798  -22.2162  -19.6807 C   0  0  0  0  0  0  0  0  0  0  0  0
   27.1230  -21.8410  -18.5133 N   0  0  0  0  0  0  0  0  0  0  0  0
   25.7013  -22.7389  -14.4454 C   0  0  0  0  0  0  0  0  0  0  0  0
   24.7460  -23.4194  -14.0012 O   0  0  0  0  0  0  0  0  0  0  0  0
   26.0704  -21.5745  -13.7577 N   0  0  0  0  0  0  0  0  0  0  0  0
   25.3813  -21.0790  -12.5474 C   0  0  1  0  0  0  0  0  0  0  0  0
   26.2148  -20.0270  -11.8997 C   0  0  0  0  0  0  0  0  0  0  0  0
   27.3285  -20.5583  -11.1138 C   0  0  0  0  0  0  0  0  0  0  0  0
   28.4430  -21.2276  -11.5687 C   0  0  0  0  0  0  0  0  0  0  0  0
   29.2289  -21.5846  -10.5447 N   0  0  0  0  0  0  0  0  0  0  0  0
   28.6798  -21.1756   -9.3935 C   0  0  0  0  0  0  0  0  0  0  0  0
   29.1162  -21.3129   -8.1072 C   0  0  0  0  0  0  0  0  0  0  0  0
   28.3554  -20.7963   -7.0894 C   0  0  0  0  0  0  0  0  0  0  0  0
   27.1673  -20.1516   -7.4084 C   0  0  0  0  0  0  0  0  0  0  0  0
   26.7506  -20.0263   -8.7088 C   0  0  0  0  0  0  0  0  0  0  0  0
   27.4846  -20.5289   -9.7371 C   0  0  0  0  0  0  0  0  0  0  0  0
   24.0012  -20.6873  -12.9066 C   0  0  0  0  0  0  0  0  0  0  0  0
   23.8357  -20.0298  -14.0113 O   0  0  0  0  0  0  0  0  0  0  0  0
   22.8367  -20.9635  -12.1683 N   0  0  0  0  0  0  0  0  0  0  0  0
   21.5261  -20.4392  -12.5277 C   0  0  1  0  0  0  0  0  0  0  0  0
   20.5735  -21.5588  -12.8741 C   0  0  0  0  0  0  0  0  0  0  0  0
   20.6224  -21.8076  -14.3265 C   0  0  0  0  0  0  0  0  0  0  0  0
   21.3636  -21.0667  -15.2548 C   0  0  0  0  0  0  0  0  0  0  0  0
   21.1576  -21.5854  -16.4766 N   0  0  0  0  0  0  0  0  0  0  0  0
   20.3266  -22.6112  -16.3590 C   0  0  0  0  0  0  0  0  0  0  0  0
   20.0064  -22.7435  -15.0685 N   0  0  0  0  0  0  0  0  0  0  0  0
   20.9702  -19.6453  -11.4314 C   0  0  0  0  0  0  0  0  0  0  0  0
   19.8071  -19.1515  -11.5674 O   0  0  0  0  0  0  0  0  0  0  0  0
   21.6442  -19.3979  -10.2355 O   0  0  0  0  0  0  0  0  0  0  0  0
  2  1  1  1
  3  2  1  0
  3  4  1  0
  4  5  2  0
  5  6  1  0
  7  6  1  0
  8  4  1  0
  8  7  2  0
  9 10  2  0
  9  2  1  0
 11  9  1  0
 12 23  1  0
 12 11  1  0
 12 13  1  6
 14 13  1  0
 15 14  2  0
 16 15  1  0
 17 16  1  0
 17 22  2  0
 18 19  2  0
 18 17  1  0
 19 20  1  0
 20 21  2  0
 22 21  1  0
 22 14  1  0
 23 25  1  0
 24 23  2  0
 25 26  1  0
 26 27  1  1
 27 28  1  0
 28 29  2  0
 28 32  1  0
 29 30  1  0
 30 31  1  0
 32 31  2  0
 33 35  1  0
 33 26  1  0
 34 33  2  0
M  END
$$$$
