HWH.pdb
     RDKit          3D

 35 38  0  0  1  0  0  0  0  0999 V2000
   28.5671  -20.8216  -14.3554 N   0  0  0  0  0  0  0  0  0  0  0  0
   27.8265  -19.8542  -13.5630 C   0  0  1  0  0  0  0  0  0  0  0  0
   26.9035  -19.1392  -14.5412 C   0  0  0  0  0  0  0  0  0  0  0  0
   27.6849  -18.0892  -15.2245 C   0  0  0  0  0  0  0  0  0  0  0  0
   28.0979  -16.9145  -14.6070 C   0  0  0  0  0  0  0  0  0  0  0  0
   28.7769  -16.2301  -15.5617 N   0  0  0  0  0  0  0  0  0  0  0  0
   28.8048  -16.9007  -16.7048 C   0  0  0  0  0  0  0  0  0  0  0  0
   28.1295  -18.0457  -16.4888 N   0  0  0  0  0  0  0  0  0  0  0  0
   26.9462  -20.5410  -12.5847 C   0  0  0  0  0  0  0  0  0  0  0  0
   26.4495  -21.6423  -12.9215 O   0  0  0  0  0  0  0  0  0  0  0  0
   26.6420  -20.0298  -11.3153 N   0  0  0  0  0  0  0  0  0  0  0  0
   25.7058  -20.6744  -10.3702 C   0  0  1  0  0  0  0  0  0  0  0  0
   25.9204  -20.1177   -9.0046 C   0  0  0  0  0  0  0  0  0  0  0  0
   27.2240  -20.4510   -8.4304 C   0  0  0  0  0  0  0  0  0  0  0  0
   28.2926  -21.0595   -9.0509 C   0  0  0  0  0  0  0  0  0  0  0  0
   29.3056  -21.2245   -8.1907 N   0  0  0  0  0  0  0  0  0  0  0  0
   28.9582  -20.7426   -6.9902 C   0  0  0  0  0  0  0  0  0  0  0  0
   29.6594  -20.6938   -5.8197 C   0  0  0  0  0  0  0  0  0  0  0  0
   29.0667  -20.1402   -4.7135 C   0  0  0  0  0  0  0  0  0  0  0  0
   27.7724  -19.6495   -4.8278 C   0  0  0  0  0  0  0  0  0  0  0  0
   27.0889  -19.7100   -6.0150 C   0  0  0  0  0  0  0  0  0  0  0  0
   27.6518  -20.2533   -7.1271 C   0  0  0  0  0  0  0  0  0  0  0  0
   24.3322  -20.5698  -10.9079 C   0  0  0  0  0  0  0  0  0  0  0  0
   23.8922  -19.3849  -11.1952 O   0  0  0  0  0  0  0  0  0  0  0  0
   23.4470  -21.6357  -11.1485 N   0  0  0  0  0  0  0  0  0  0  0  0
   22.1054  -21.4477  -11.6837 C   0  0  1  0  0  0  0  0  0  0  0  0
   21.6411  -22.6811  -12.4215 C   0  0  0  0  0  0  0  0  0  0  0  0
   22.3869  -22.8005  -13.6877 C   0  0  0  0  0  0  0  0  0  0  0  0
   23.2665  -21.8433  -14.2077 C   0  0  0  0  0  0  0  0  0  0  0  0
   23.7526  -22.2996  -15.3737 N   0  0  0  0  0  0  0  0  0  0  0  0
   23.2222  -23.4913  -15.6084 C   0  0  0  0  0  0  0  0  0  0  0  0
   22.4031  -23.7907  -14.5960 N   0  0  0  0  0  0  0  0  0  0  0  0
   21.1613  -21.1353  -10.6102 C   0  0  0  0  0  0  0  0  0  0  0  0
   21.5425  -21.2743   -9.4058 O   0  0  0  0  0  0  0  0  0  0  0  0
   19.8586  -20.6882  -10.8307 O   0  0  0  0  0  0  0  0  0  0  0  0
  2  1  1  6
  3  2  1  0
  3  4  1  0
  4  5  2  0
  5  6  1  0
  7  6  1  0
  8  4  1  0
  8  7  2  0
  9 10  2  0
  9  2  1  0
 11  9  1  0
 12 23  1  0
 12 11  1  0
 12 13  1  1
 14 13  1  0
 15 14  2  0
 16 15  1  0
 17 16  1  0
 17 22  2  0
 18 19  2  0
 18 17  1  0
 19 20  1  0
 20 21  2  0
 22 21  1  0
 22 14  1  0
 23 25  1  0
 24 23  2  0
 25 26  1  0
 26 27  1  1
 27 28  1  0
 28 29  2  0
 28 32  1  0
 29 30  1  0
 30 31  1  0
 32 31  2  0
 33 35  1  0
 33 26  1  0
 34 33  2  0
M  END
$$$$
