HWH.pdb
     RDKit          3D

 35 38  0  0  1  0  0  0  0  0999 V2000
   20.3393  -15.9410  -17.7482 N   0  0  0  0  0  0  0  0  0  0  0  0
   20.0791  -14.5517  -18.0861 C   0  0  1  0  0  0  0  0  0  0  0  0
   18.7219  -14.2256  -17.4764 C   0  0  0  0  0  0  0  0  0  0  0  0
   17.6864  -14.9249  -18.2628 C   0  0  0  0  0  0  0  0  0  0  0  0
   17.7993  -15.1837  -19.6237 C   0  0  0  0  0  0  0  0  0  0  0  0
   16.6558  -15.8322  -19.9589 N   0  0  0  0  0  0  0  0  0  0  0  0
   15.8639  -15.9840  -18.9068 C   0  0  0  0  0  0  0  0  0  0  0  0
   16.5063  -15.4222  -17.8650 N   0  0  0  0  0  0  0  0  0  0  0  0
   21.0606  -13.6574  -17.4222 C   0  0  0  0  0  0  0  0  0  0  0  0
   21.2487  -13.8111  -16.1917 O   0  0  0  0  0  0  0  0  0  0  0  0
   21.7826  -12.6584  -18.0899 N   0  0  0  0  0  0  0  0  0  0  0  0
   22.7402  -11.7497  -17.4247 C   0  0  1  0  0  0  0  0  0  0  0  0
   24.0135  -11.7209  -18.1985 C   0  0  0  0  0  0  0  0  0  0  0  0
   24.9120  -12.8352  -17.8967 C   0  0  0  0  0  0  0  0  0  0  0  0
   24.9620  -14.0712  -18.5024 C   0  0  0  0  0  0  0  0  0  0  0  0
   25.9002  -14.8379  -17.9320 N   0  0  0  0  0  0  0  0  0  0  0  0
   26.4982  -14.1568  -16.9458 C   0  0  0  0  0  0  0  0  0  0  0  0
   27.5009  -14.5269  -16.0965 C   0  0  0  0  0  0  0  0  0  0  0  0
   27.9414  -13.6287  -15.1580 C   0  0  0  0  0  0  0  0  0  0  0  0
   27.3482  -12.3738  -15.1086 C   0  0  0  0  0  0  0  0  0  0  0  0
   26.3424  -12.0257  -15.9732 C   0  0  0  0  0  0  0  0  0  0  0  0
   25.8863  -12.8961  -16.9130 C   0  0  0  0  0  0  0  0  0  0  0  0
   22.0853  -10.4431  -17.1990 C   0  0  0  0  0  0  0  0  0  0  0  0
   21.2330  -10.0409  -18.0889 O   0  0  0  0  0  0  0  0  0  0  0  0
   22.2894   -9.5859  -16.1030 N   0  0  0  0  0  0  0  0  0  0  0  0
   21.6151   -8.3024  -15.9630 C   0  0  1  0  0  0  0  0  0  0  0  0
   21.5096   -7.9040  -14.5100 C   0  0  0  0  0  0  0  0  0  0  0  0
   20.8706   -6.5788  -14.4138 C   0  0  0  0  0  0  0  0  0  0  0  0
   21.5154   -5.3491  -14.5938 C   0  0  0  0  0  0  0  0  0  0  0  0
   20.6146   -4.3668  -14.4272 N   0  0  0  0  0  0  0  0  0  0  0  0
   19.4416   -4.9194  -14.1526 C   0  0  0  0  0  0  0  0  0  0  0  0
   19.5965   -6.2465  -14.1450 N   0  0  0  0  0  0  0  0  0  0  0  0
   22.3280   -7.2620  -16.7051 C   0  0  0  0  0  0  0  0  0  0  0  0
   23.5977   -7.3032  -16.7419 O   0  0  0  0  0  0  0  0  0  0  0  0
   21.6929   -6.2207  -17.3820 O   0  0  0  0  0  0  0  0  0  0  0  0
  2  1  1  1
  3  2  1  0
  3  4  1  0
  4  5  2  0
  5  6  1  0
  7  6  1  0
  8  4  1  0
  8  7  2  0
  9 10  2  0
  9  2  1  0
 11  9  1  0
 12 23  1  0
 12 11  1  0
 12 13  1  6
 14 13  1  0
 15 14  2  0
 16 15  1  0
 17 16  1  0
 17 22  2  0
 18 19  2  0
 18 17  1  0
 19 20  1  0
 20 21  2  0
 22 21  1  0
 22 14  1  0
 23 25  1  0
 24 23  2  0
 25 26  1  0
 26 27  1  1
 27 28  1  0
 28 29  2  0
 28 32  1  0
 29 30  1  0
 30 31  1  0
 32 31  2  0
 33 35  1  0
 33 26  1  0
 34 33  2  0
M  END
$$$$
