HWH.pdb
     RDKit          3D

 35 38  0  0  1  0  0  0  0  0999 V2000
   26.0227  -22.8415  -20.1458 N   0  0  0  0  0  0  0  0  0  0  0  0
   25.5849  -21.4732  -20.3651 C   0  0  1  0  0  0  0  0  0  0  0  0
   24.1234  -21.5690  -20.7831 C   0  0  0  0  0  0  0  0  0  0  0  0
   24.0786  -21.9579  -22.2067 C   0  0  0  0  0  0  0  0  0  0  0  0
   23.7259  -23.2288  -22.6452 C   0  0  0  0  0  0  0  0  0  0  0  0
   23.8084  -23.1743  -23.9983 N   0  0  0  0  0  0  0  0  0  0  0  0
   24.1830  -21.9706  -24.4083 C   0  0  0  0  0  0  0  0  0  0  0  0
   24.3475  -21.2264  -23.2980 N   0  0  0  0  0  0  0  0  0  0  0  0
   25.6061  -20.7053  -19.0948 C   0  0  0  0  0  0  0  0  0  0  0  0
   25.2608  -21.3031  -18.0476 O   0  0  0  0  0  0  0  0  0  0  0  0
   25.9875  -19.3595  -19.0024 N   0  0  0  0  0  0  0  0  0  0  0  0
   26.0421  -18.6039  -17.7331 C   0  0  1  0  0  0  0  0  0  0  0  0
   27.0788  -17.5383  -17.8363 C   0  0  0  0  0  0  0  0  0  0  0  0
   27.0686  -16.5958  -16.7175 C   0  0  0  0  0  0  0  0  0  0  0  0
   26.8359  -16.8632  -15.3865 C   0  0  0  0  0  0  0  0  0  0  0  0
   26.8813  -15.7362  -14.6645 N   0  0  0  0  0  0  0  0  0  0  0  0
   27.1403  -14.6974  -15.4694 C   0  0  0  0  0  0  0  0  0  0  0  0
   27.2769  -13.3693  -15.1839 C   0  0  0  0  0  0  0  0  0  0  0  0
   27.5453  -12.4947  -16.2060 C   0  0  0  0  0  0  0  0  0  0  0  0
   27.6681  -12.9962  -17.4954 C   0  0  0  0  0  0  0  0  0  0  0  0
   27.5267  -14.3349  -17.7566 C   0  0  0  0  0  0  0  0  0  0  0  0
   27.2604  -15.2240  -16.7629 C   0  0  0  0  0  0  0  0  0  0  0  0
   24.6777  -18.1536  -17.3829 C   0  0  0  0  0  0  0  0  0  0  0  0
   23.9277  -17.7167  -18.3456 O   0  0  0  0  0  0  0  0  0  0  0  0
   24.1016  -18.1570  -16.1000 N   0  0  0  0  0  0  0  0  0  0  0  0
   22.7761  -17.6201  -15.8239 C   0  0  1  0  0  0  0  0  0  0  0  0
   22.3293  -17.9781  -14.4263 C   0  0  0  0  0  0  0  0  0  0  0  0
   20.9190  -17.5855  -14.2506 C   0  0  0  0  0  0  0  0  0  0  0  0
   20.1559  -16.8576  -15.1715 C   0  0  0  0  0  0  0  0  0  0  0  0
   18.9229  -16.6902  -14.6658 N   0  0  0  0  0  0  0  0  0  0  0  0
   18.8769  -17.2755  -13.4775 C   0  0  0  0  0  0  0  0  0  0  0  0
   20.0751  -17.8123  -13.2297 N   0  0  0  0  0  0  0  0  0  0  0  0
   22.7656  -16.1655  -15.9834 C   0  0  0  0  0  0  0  0  0  0  0  0
   23.6923  -15.4875  -15.4385 O   0  0  0  0  0  0  0  0  0  0  0  0
   21.7935  -15.4728  -16.7051 O   0  0  0  0  0  0  0  0  0  0  0  0
  2  1  1  1
  3  2  1  0
  3  4  1  0
  4  5  2  0
  5  6  1  0
  7  6  1  0
  8  4  1  0
  8  7  2  0
  9 10  2  0
  9  2  1  0
 11  9  1  0
 12 23  1  0
 12 11  1  0
 12 13  1  6
 14 13  1  0
 15 14  2  0
 16 15  1  0
 17 16  1  0
 17 22  2  0
 18 19  2  0
 18 17  1  0
 19 20  1  0
 20 21  2  0
 22 21  1  0
 22 14  1  0
 23 25  1  0
 24 23  2  0
 25 26  1  0
 26 27  1  1
 27 28  1  0
 28 29  2  0
 28 32  1  0
 29 30  1  0
 30 31  1  0
 32 31  2  0
 33 35  1  0
 33 26  1  0
 34 33  2  0
M  END
$$$$
