HWH.pdb
     RDKit          3D

 35 38  0  0  1  0  0  0  0  0999 V2000
   22.5209  -11.3494  -18.9426 N   0  0  0  0  0  0  0  0  0  0  0  0
   22.2341  -10.0019  -19.4052 C   0  0  1  0  0  0  0  0  0  0  0  0
   20.7592  -10.0009  -19.7857 C   0  0  0  0  0  0  0  0  0  0  0  0
   20.6204  -10.6910  -21.0835 C   0  0  0  0  0  0  0  0  0  0  0  0
   20.2978  -12.0372  -21.2071 C   0  0  0  0  0  0  0  0  0  0  0  0
   20.2692  -12.2755  -22.5424 N   0  0  0  0  0  0  0  0  0  0  0  0
   20.5492  -11.1784  -23.2319 C   0  0  0  0  0  0  0  0  0  0  0  0
   20.7644  -10.2060  -22.3254 N   0  0  0  0  0  0  0  0  0  0  0  0
   22.3799   -9.0244  -18.2975 C   0  0  0  0  0  0  0  0  0  0  0  0
   21.9994   -9.3777  -17.1557 O   0  0  0  0  0  0  0  0  0  0  0  0
   22.9151   -7.7386  -18.4565 N   0  0  0  0  0  0  0  0  0  0  0  0
   23.0831   -6.7733  -17.3496 C   0  0  1  0  0  0  0  0  0  0  0  0
   24.5123   -6.3596  -17.2670 C   0  0  0  0  0  0  0  0  0  0  0  0
   25.4205   -7.4467  -16.9014 C   0  0  0  0  0  0  0  0  0  0  0  0
   26.6035   -7.8032  -17.5101 C   0  0  0  0  0  0  0  0  0  0  0  0
   27.1403   -8.8717  -16.9071 N   0  0  0  0  0  0  0  0  0  0  0  0
   26.3526   -9.2594  -15.8955 C   0  0  0  0  0  0  0  0  0  0  0  0
   26.4921  -10.2891  -15.0101 C   0  0  0  0  0  0  0  0  0  0  0  0
   25.5282  -10.4760  -14.0521 C   0  0  0  0  0  0  0  0  0  0  0  0
   24.4448   -9.6075  -14.0204 C   0  0  0  0  0  0  0  0  0  0  0  0
   24.3276   -8.5802  -14.9211 C   0  0  0  0  0  0  0  0  0  0  0  0
   25.2678   -8.3719  -15.8809 C   0  0  0  0  0  0  0  0  0  0  0  0
   22.0973   -5.6826  -17.5094 C   0  0  0  0  0  0  0  0  0  0  0  0
   21.9750   -5.1564  -18.6876 O   0  0  0  0  0  0  0  0  0  0  0  0
   21.2651   -5.1564  -16.5053 N   0  0  0  0  0  0  0  0  0  0  0  0
   20.3039   -4.0896  -16.7494 C   0  0  1  0  0  0  0  0  0  0  0  0
   19.0876   -4.2470  -15.8680 C   0  0  0  0  0  0  0  0  0  0  0  0
   18.2876   -5.3912  -16.3422 C   0  0  0  0  0  0  0  0  0  0  0  0
   18.2407   -6.6557  -15.7430 C   0  0  0  0  0  0  0  0  0  0  0  0
   17.4094   -7.4344  -16.4549 N   0  0  0  0  0  0  0  0  0  0  0  0
   16.9353   -6.7217  -17.4668 C   0  0  0  0  0  0  0  0  0  0  0  0
   17.4630   -5.4961  -17.3980 N   0  0  0  0  0  0  0  0  0  0  0  0
   20.9145   -2.7812  -16.5116 C   0  0  0  0  0  0  0  0  0  0  0  0
   21.6919   -2.6453  -15.5154 O   0  0  0  0  0  0  0  0  0  0  0  0
   20.6950   -1.6659  -17.3200 O   0  0  0  0  0  0  0  0  0  0  0  0
  2  1  1  1
  3  2  1  0
  3  4  1  0
  4  5  2  0
  5  6  1  0
  7  6  1  0
  8  4  1  0
  8  7  2  0
  9 10  2  0
  9  2  1  0
 11  9  1  0
 12 23  1  0
 12 11  1  0
 12 13  1  6
 14 13  1  0
 15 14  2  0
 16 15  1  0
 17 16  1  0
 17 22  2  0
 18 19  2  0
 18 17  1  0
 19 20  1  0
 20 21  2  0
 22 21  1  0
 22 14  1  0
 23 25  1  0
 24 23  2  0
 25 26  1  0
 26 27  1  1
 27 28  1  0
 28 29  2  0
 28 32  1  0
 29 30  1  0
 30 31  1  0
 32 31  2  0
 33 35  1  0
 33 26  1  0
 34 33  2  0
M  END
$$$$
