HWH.pdb
     RDKit          3D

 35 38  0  0  1  0  0  0  0  0999 V2000
   26.4242  -21.6205  -17.5946 N   0  0  0  0  0  0  0  0  0  0  0  0
   25.4789  -21.6816  -16.4924 C   0  0  1  0  0  0  0  0  0  0  0  0
   26.2891  -22.1129  -15.2769 C   0  0  0  0  0  0  0  0  0  0  0  0
   26.6765  -23.5254  -15.4621 C   0  0  0  0  0  0  0  0  0  0  0  0
   25.8118  -24.5931  -15.2521 C   0  0  0  0  0  0  0  0  0  0  0  0
   26.5428  -25.7027  -15.5264 N   0  0  0  0  0  0  0  0  0  0  0  0
   27.7792  -25.3865  -15.8849 C   0  0  0  0  0  0  0  0  0  0  0  0
   27.8538  -24.0425  -15.8429 N   0  0  0  0  0  0  0  0  0  0  0  0
   24.9471  -20.3309  -16.1816 C   0  0  0  0  0  0  0  0  0  0  0  0
   25.6507  -19.5789  -15.4657 O   0  0  0  0  0  0  0  0  0  0  0  0
   23.7114  -19.8540  -16.6406 N   0  0  0  0  0  0  0  0  0  0  0  0
   23.1455  -18.5401  -16.2683 C   0  0  1  0  0  0  0  0  0  0  0  0
   23.2887  -17.5976  -17.4138 C   0  0  0  0  0  0  0  0  0  0  0  0
   24.6671  -17.1731  -17.6590 C   0  0  0  0  0  0  0  0  0  0  0  0
   25.5040  -17.5617  -18.6817 C   0  0  0  0  0  0  0  0  0  0  0  0
   26.7037  -16.9801  -18.5554 N   0  0  0  0  0  0  0  0  0  0  0  0
   26.7117  -16.1989  -17.4675 C   0  0  0  0  0  0  0  0  0  0  0  0
   27.7036  -15.4197  -16.9451 C   0  0  0  0  0  0  0  0  0  0  0  0
   27.4535  -14.7050  -15.8013 C   0  0  0  0  0  0  0  0  0  0  0  0
   26.1969  -14.8023  -15.2177 C   0  0  0  0  0  0  0  0  0  0  0  0
   25.2169  -15.5920  -15.7620 C   0  0  0  0  0  0  0  0  0  0  0  0
   25.4373  -16.3111  -16.8947 C   0  0  0  0  0  0  0  0  0  0  0  0
   21.7730  -18.7363  -15.7539 C   0  0  0  0  0  0  0  0  0  0  0  0
   21.0460  -19.6453  -16.3242 O   0  0  0  0  0  0  0  0  0  0  0  0
   21.1713  -18.0352  -14.6936 N   0  0  0  0  0  0  0  0  0  0  0  0
   19.8018  -18.2754  -14.2595 C   0  0  1  0  0  0  0  0  0  0  0  0
   19.6995  -18.2409  -12.7530 C   0  0  0  0  0  0  0  0  0  0  0  0
   20.3890  -19.4168  -12.1913 C   0  0  0  0  0  0  0  0  0  0  0  0
   20.9510  -20.4625  -12.9336 C   0  0  0  0  0  0  0  0  0  0  0  0
   21.4869  -21.3510  -12.0806 N   0  0  0  0  0  0  0  0  0  0  0  0
   21.2885  -20.9143  -10.8451 C   0  0  0  0  0  0  0  0  0  0  0  0
   20.6298  -19.7538  -10.9129 N   0  0  0  0  0  0  0  0  0  0  0  0
   18.8967  -17.2796  -14.8343 C   0  0  0  0  0  0  0  0  0  0  0  0
   17.6499  -17.3934  -14.6158 O   0  0  0  0  0  0  0  0  0  0  0  0
   19.3233  -16.2028  -15.6117 O   0  0  0  0  0  0  0  0  0  0  0  0
  2  1  1  6
  3  2  1  0
  3  4  1  0
  4  5  2  0
  5  6  1  0
  7  6  1  0
  8  4  1  0
  8  7  2  0
  9 10  2  0
  9  2  1  0
 11  9  1  0
 12 23  1  0
 12 11  1  0
 12 13  1  6
 14 13  1  0
 15 14  2  0
 16 15  1  0
 17 16  1  0
 17 22  2  0
 18 19  2  0
 18 17  1  0
 19 20  1  0
 20 21  2  0
 22 21  1  0
 22 14  1  0
 23 25  1  0
 24 23  2  0
 25 26  1  0
 26 27  1  1
 27 28  1  0
 28 29  2  0
 28 32  1  0
 29 30  1  0
 30 31  1  0
 32 31  2  0
 33 35  1  0
 33 26  1  0
 34 33  2  0
M  END
$$$$
