HWH.pdb
     RDKit          3D

 35 38  0  0  1  0  0  0  0  0999 V2000
   27.9815  -22.8425  -15.8949 N   0  0  0  0  0  0  0  0  0  0  0  0
   28.0873  -21.5680  -15.2046 C   0  0  1  0  0  0  0  0  0  0  0  0
   27.4247  -20.5464  -16.1197 C   0  0  0  0  0  0  0  0  0  0  0  0
   28.3175  -20.3174  -17.2731 C   0  0  0  0  0  0  0  0  0  0  0  0
   28.0568  -20.7931  -18.5527 C   0  0  0  0  0  0  0  0  0  0  0  0
   29.1029  -20.3743  -19.3083 N   0  0  0  0  0  0  0  0  0  0  0  0
   29.9724  -19.6841  -18.5839 C   0  0  0  0  0  0  0  0  0  0  0  0
   29.4811  -19.6534  -17.3304 N   0  0  0  0  0  0  0  0  0  0  0  0
   27.2925  -21.5827  -13.9509 C   0  0  0  0  0  0  0  0  0  0  0  0
   26.0895  -21.9289  -14.0284 O   0  0  0  0  0  0  0  0  0  0  0  0
   27.8088  -21.2333  -12.6953 N   0  0  0  0  0  0  0  0  0  0  0  0
   27.0300  -21.2874  -11.4400 C   0  0  1  0  0  0  0  0  0  0  0  0
   27.9576  -21.1884  -10.2779 C   0  0  0  0  0  0  0  0  0  0  0  0
   27.2922  -20.8495   -9.0199 C   0  0  0  0  0  0  0  0  0  0  0  0
   25.9435  -20.8740   -8.7414 C   0  0  0  0  0  0  0  0  0  0  0  0
   25.7142  -20.4686   -7.4858 N   0  0  0  0  0  0  0  0  0  0  0  0
   26.8762  -20.1652   -6.8926 C   0  0  0  0  0  0  0  0  0  0  0  0
   27.1337  -19.7141   -5.6301 C   0  0  0  0  0  0  0  0  0  0  0  0
   28.4335  -19.4745   -5.2630 C   0  0  0  0  0  0  0  0  0  0  0  0
   29.4398  -19.7010   -6.1932 C   0  0  0  0  0  0  0  0  0  0  0  0
   29.1553  -20.1547   -7.4555 C   0  0  0  0  0  0  0  0  0  0  0  0
   27.8763  -20.4003   -7.8461 C   0  0  0  0  0  0  0  0  0  0  0  0
   25.9510  -20.2778  -11.5001 C   0  0  0  0  0  0  0  0  0  0  0  0
   26.2812  -19.0704  -11.8368 O   0  0  0  0  0  0  0  0  0  0  0  0
   24.5877  -20.4968  -11.2332 N   0  0  0  0  0  0  0  0  0  0  0  0
   23.5187  -19.8366  -11.9702 C   0  0  1  0  0  0  0  0  0  0  0  0
   23.6038  -20.1539  -13.4443 C   0  0  0  0  0  0  0  0  0  0  0  0
   22.4612  -19.5361  -14.1419 C   0  0  0  0  0  0  0  0  0  0  0  0
   21.4179  -18.8315  -13.5293 C   0  0  0  0  0  0  0  0  0  0  0  0
   20.5639  -18.4210  -14.4814 N   0  0  0  0  0  0  0  0  0  0  0  0
   21.0199  -18.8327  -15.6558 C   0  0  0  0  0  0  0  0  0  0  0  0
   22.1583  -19.5015  -15.4507 N   0  0  0  0  0  0  0  0  0  0  0  0
   22.2106  -20.2443  -11.4566 C   0  0  0  0  0  0  0  0  0  0  0  0
   22.1104  -21.3682  -10.8718 O   0  0  0  0  0  0  0  0  0  0  0  0
   21.0581  -19.4666  -11.5688 O   0  0  0  0  0  0  0  0  0  0  0  0
  2  1  1  6
  3  2  1  0
  3  4  1  0
  4  5  2  0
  5  6  1  0
  7  6  1  0
  8  4  1  0
  8  7  2  0
  9 10  2  0
  9  2  1  0
 11  9  1  0
 12 23  1  0
 12 11  1  0
 12 13  1  1
 14 13  1  0
 15 14  2  0
 16 15  1  0
 17 16  1  0
 17 22  2  0
 18 19  2  0
 18 17  1  0
 19 20  1  0
 20 21  2  0
 22 21  1  0
 22 14  1  0
 23 25  1  0
 24 23  2  0
 25 26  1  0
 26 27  1  6
 27 28  1  0
 28 29  2  0
 28 32  1  0
 29 30  1  0
 30 31  1  0
 32 31  2  0
 33 35  1  0
 33 26  1  0
 34 33  2  0
M  END
$$$$
