HWH.pdb
     RDKit          3D

 35 38  0  0  1  0  0  0  0  0999 V2000
   30.9953  -26.2946  -20.8079 N   0  0  0  0  0  0  0  0  0  0  0  0
   29.5750  -25.9910  -20.8579 C   0  0  1  0  0  0  0  0  0  0  0  0
   29.0211  -26.7976  -22.0252 C   0  0  0  0  0  0  0  0  0  0  0  0
   29.3657  -26.0909  -23.2748 C   0  0  0  0  0  0  0  0  0  0  0  0
   30.3307  -26.5383  -24.1694 C   0  0  0  0  0  0  0  0  0  0  0  0
   30.3420  -25.6213  -25.1693 N   0  0  0  0  0  0  0  0  0  0  0  0
   29.4596  -24.6575  -24.9466 C   0  0  0  0  0  0  0  0  0  0  0  0
   28.8618  -24.9541  -23.7769 N   0  0  0  0  0  0  0  0  0  0  0  0
   28.8880  -26.4923  -19.6411 C   0  0  0  0  0  0  0  0  0  0  0  0
   29.3069  -27.5604  -19.1345 O   0  0  0  0  0  0  0  0  0  0  0  0
   27.8052  -25.8424  -19.0324 N   0  0  0  0  0  0  0  0  0  0  0  0
   27.2195  -26.2528  -17.7387 C   0  0  1  0  0  0  0  0  0  0  0  0
   27.2206  -25.0914  -16.8049 C   0  0  0  0  0  0  0  0  0  0  0  0
   28.5324  -24.4632  -16.6473 C   0  0  0  0  0  0  0  0  0  0  0  0
   28.9643  -23.2621  -17.1650 C   0  0  0  0  0  0  0  0  0  0  0  0
   30.2402  -23.0352  -16.8277 N   0  0  0  0  0  0  0  0  0  0  0  0
   30.6973  -24.0542  -16.0883 C   0  0  0  0  0  0  0  0  0  0  0  0
   31.9246  -24.2591  -15.5266 C   0  0  0  0  0  0  0  0  0  0  0  0
   32.1412  -25.4049  -14.8042 C   0  0  0  0  0  0  0  0  0  0  0  0
   31.1000  -26.3146  -14.6723 C   0  0  0  0  0  0  0  0  0  0  0  0
   29.8758  -26.0858  -15.2461 C   0  0  0  0  0  0  0  0  0  0  0  0
   29.6335  -24.9589  -15.9673 C   0  0  0  0  0  0  0  0  0  0  0  0
   25.9074  -26.8889  -17.9855 C   0  0  0  0  0  0  0  0  0  0  0  0
   25.2007  -26.4360  -18.9733 O   0  0  0  0  0  0  0  0  0  0  0  0
   25.3444  -27.9506  -17.2551 N   0  0  0  0  0  0  0  0  0  0  0  0
   24.0490  -28.5348  -17.5748 C   0  0  1  0  0  0  0  0  0  0  0  0
   24.0503  -29.1215  -18.9665 C   0  0  0  0  0  0  0  0  0  0  0  0
   22.7317  -29.7200  -19.2436 C   0  0  0  0  0  0  0  0  0  0  0  0
   21.6590  -29.0726  -19.8685 C   0  0  0  0  0  0  0  0  0  0  0  0
   20.6287  -29.9310  -19.9447 N   0  0  0  0  0  0  0  0  0  0  0  0
   21.0025  -31.0800  -19.4000 C   0  0  0  0  0  0  0  0  0  0  0  0
   22.2645  -30.9521  -18.9799 N   0  0  0  0  0  0  0  0  0  0  0  0
   23.6991  -29.5742  -16.6059 C   0  0  0  0  0  0  0  0  0  0  0  0
   22.5087  -29.6162  -16.1628 O   0  0  0  0  0  0  0  0  0  0  0  0
   24.5997  -30.5307  -16.1375 O   0  0  0  0  0  0  0  0  0  0  0  0
  2  1  1  1
  3  2  1  0
  3  4  1  0
  4  5  2  0
  5  6  1  0
  7  6  1  0
  8  4  1  0
  8  7  2  0
  9 10  2  0
  9  2  1  0
 11  9  1  0
 12 23  1  0
 12 11  1  0
 12 13  1  1
 14 13  1  0
 15 14  2  0
 16 15  1  0
 17 16  1  0
 17 22  2  0
 18 19  2  0
 18 17  1  0
 19 20  1  0
 20 21  2  0
 22 21  1  0
 22 14  1  0
 23 25  1  0
 24 23  2  0
 25 26  1  0
 26 27  1  6
 27 28  1  0
 28 29  2  0
 28 32  1  0
 29 30  1  0
 30 31  1  0
 32 31  2  0
 33 35  1  0
 33 26  1  0
 34 33  2  0
M  END
$$$$
