HWH.pdb
     RDKit          3D

 35 38  0  0  1  0  0  0  0  0999 V2000
   34.0037  -34.3468  -16.6446 N   0  0  0  0  0  0  0  0  0  0  0  0
   32.8953  -34.0256  -17.5280 C   0  0  1  0  0  0  0  0  0  0  0  0
   32.1039  -35.3176  -17.6842 C   0  0  0  0  0  0  0  0  0  0  0  0
   32.8683  -36.2189  -18.5691 C   0  0  0  0  0  0  0  0  0  0  0  0
   32.9207  -36.0766  -19.9507 C   0  0  0  0  0  0  0  0  0  0  0  0
   33.7145  -37.0883  -20.3832 N   0  0  0  0  0  0  0  0  0  0  0  0
   34.1437  -37.8281  -19.3704 C   0  0  0  0  0  0  0  0  0  0  0  0
   33.6178  -37.2858  -18.2556 N   0  0  0  0  0  0  0  0  0  0  0  0
   31.9787  -33.0498  -16.8866 C   0  0  0  0  0  0  0  0  0  0  0  0
   31.8184  -33.1308  -15.6453 O   0  0  0  0  0  0  0  0  0  0  0  0
   31.2879  -32.0510  -17.5868 N   0  0  0  0  0  0  0  0  0  0  0  0
   30.4188  -31.0438  -16.9422 C   0  0  1  0  0  0  0  0  0  0  0  0
   30.3197  -29.8427  -17.8188 C   0  0  0  0  0  0  0  0  0  0  0  0
   29.4375  -28.8007  -17.2932 C   0  0  0  0  0  0  0  0  0  0  0  0
   29.6632  -27.9575  -16.2278 C   0  0  0  0  0  0  0  0  0  0  0  0
   28.6093  -27.1553  -16.0303 N   0  0  0  0  0  0  0  0  0  0  0  0
   27.6616  -27.4274  -16.9369 C   0  0  0  0  0  0  0  0  0  0  0  0
   26.4287  -26.8712  -17.1223 C   0  0  0  0  0  0  0  0  0  0  0  0
   25.6363  -27.3376  -18.1403 C   0  0  0  0  0  0  0  0  0  0  0  0
   26.1209  -28.3607  -18.9449 C   0  0  0  0  0  0  0  0  0  0  0  0
   27.3633  -28.9029  -18.7384 C   0  0  0  0  0  0  0  0  0  0  0  0
   28.1696  -28.4600  -17.7372 C   0  0  0  0  0  0  0  0  0  0  0  0
   29.1393  -31.6833  -16.5663 C   0  0  0  0  0  0  0  0  0  0  0  0
   28.5761  -32.4529  -17.4441 O   0  0  0  0  0  0  0  0  0  0  0  0
   28.4672  -31.5461  -15.3387 N   0  0  0  0  0  0  0  0  0  0  0  0
   27.2717  -32.3059  -14.9992 C   0  0  1  0  0  0  0  0  0  0  0  0
   27.1898  -32.5463  -13.5104 C   0  0  0  0  0  0  0  0  0  0  0  0
   26.0287  -33.4071  -13.2195 C   0  0  0  0  0  0  0  0  0  0  0  0
   25.1605  -33.9524  -14.1730 C   0  0  0  0  0  0  0  0  0  0  0  0
   24.2261  -34.6760  -13.5346 N   0  0  0  0  0  0  0  0  0  0  0  0
   24.4661  -34.6106  -12.2327 C   0  0  0  0  0  0  0  0  0  0  0  0
   25.5479  -33.8491  -12.0451 N   0  0  0  0  0  0  0  0  0  0  0  0
   26.0694  -31.6029  -15.4482 C   0  0  0  0  0  0  0  0  0  0  0  0
   25.9826  -30.3524  -15.2391 O   0  0  0  0  0  0  0  0  0  0  0  0
   25.0053  -32.2271  -16.0993 O   0  0  0  0  0  0  0  0  0  0  0  0
  2  1  1  1
  3  2  1  0
  3  4  1  0
  4  5  2  0
  5  6  1  0
  7  6  1  0
  8  4  1  0
  8  7  2  0
  9 10  2  0
  9  2  1  0
 11  9  1  0
 12 23  1  0
 12 11  1  0
 12 13  1  6
 14 13  1  0
 15 14  2  0
 16 15  1  0
 17 16  1  0
 17 22  2  0
 18 19  2  0
 18 17  1  0
 19 20  1  0
 20 21  2  0
 22 21  1  0
 22 14  1  0
 23 25  1  0
 24 23  2  0
 25 26  1  0
 26 27  1  1
 27 28  1  0
 28 29  2  0
 28 32  1  0
 29 30  1  0
 30 31  1  0
 32 31  2  0
 33 35  1  0
 33 26  1  0
 34 33  2  0
M  END
$$$$
