HWH.pdb
     RDKit          3D

 35 38  0  0  1  0  0  0  0  0999 V2000
   23.9318  -12.4755  -18.5523 N   0  0  0  0  0  0  0  0  0  0  0  0
   23.0291  -11.4014  -18.9311 C   0  0  1  0  0  0  0  0  0  0  0  0
   21.6324  -12.0089  -18.9096 C   0  0  0  0  0  0  0  0  0  0  0  0
   21.5099  -12.9172  -20.0670 C   0  0  0  0  0  0  0  0  0  0  0  0
   21.3473  -12.4769  -21.3753 C   0  0  0  0  0  0  0  0  0  0  0  0
   21.2765  -13.6056  -22.1247 N   0  0  0  0  0  0  0  0  0  0  0  0
   21.3838  -14.6903  -21.3703 C   0  0  0  0  0  0  0  0  0  0  0  0
   21.5274  -14.2576  -20.1031 N   0  0  0  0  0  0  0  0  0  0  0  0
   23.0327  -10.3270  -17.9068 C   0  0  0  0  0  0  0  0  0  0  0  0
   22.7414  -10.6447  -16.7290 O   0  0  0  0  0  0  0  0  0  0  0  0
   23.3411   -8.9874  -18.1819 N   0  0  0  0  0  0  0  0  0  0  0  0
   23.3786   -7.9233  -17.1565 C   0  0  1  0  0  0  0  0  0  0  0  0
   24.6177   -7.1136  -17.3295 C   0  0  0  0  0  0  0  0  0  0  0  0
   25.8508   -7.8940  -17.2271 C   0  0  0  0  0  0  0  0  0  0  0  0
   26.9388   -7.8738  -18.0715 C   0  0  0  0  0  0  0  0  0  0  0  0
   27.8662   -8.7507  -17.6661 N   0  0  0  0  0  0  0  0  0  0  0  0
   27.4409   -9.3750  -16.5600 C   0  0  0  0  0  0  0  0  0  0  0  0
   28.0415  -10.3379  -15.8011 C   0  0  0  0  0  0  0  0  0  0  0  0
   27.3833  -10.8208  -14.6988 C   0  0  0  0  0  0  0  0  0  0  0  0
   26.1277  -10.3096  -14.3970 C   0  0  0  0  0  0  0  0  0  0  0  0
   25.5455   -9.3422  -15.1751 C   0  0  0  0  0  0  0  0  0  0  0  0
   26.1751   -8.8457  -16.2732 C   0  0  0  0  0  0  0  0  0  0  0  0
   22.1024   -7.1768  -17.1917 C   0  0  0  0  0  0  0  0  0  0  0  0
   21.6153   -6.8818  -18.3560 O   0  0  0  0  0  0  0  0  0  0  0  0
   21.3515   -6.7555  -16.0798 N   0  0  0  0  0  0  0  0  0  0  0  0
   20.0740   -6.0661  -16.2001 C   0  0  1  0  0  0  0  0  0  0  0  0
   19.1295   -6.4841  -15.0982 C   0  0  0  0  0  0  0  0  0  0  0  0
   17.8345   -5.8040  -15.2831 C   0  0  0  0  0  0  0  0  0  0  0  0
   17.4793   -4.5662  -14.7334 C   0  0  0  0  0  0  0  0  0  0  0  0
   16.2261   -4.2728  -15.1177 N   0  0  0  0  0  0  0  0  0  0  0  0
   15.7810   -5.2627  -15.8783 C   0  0  0  0  0  0  0  0  0  0  0  0
   16.7469   -6.1807  -15.9768 N   0  0  0  0  0  0  0  0  0  0  0  0
   20.2648   -4.6159  -16.1571 C   0  0  0  0  0  0  0  0  0  0  0  0
   21.1958   -4.1465  -15.4304 O   0  0  0  0  0  0  0  0  0  0  0  0
   19.4817   -3.7105  -16.8731 O   0  0  0  0  0  0  0  0  0  0  0  0
  2  1  1  1
  3  2  1  0
  3  4  1  0
  4  5  2  0
  5  6  1  0
  7  6  1  0
  8  4  1  0
  8  7  2  0
  9 10  2  0
  9  2  1  0
 11  9  1  0
 12 23  1  0
 12 11  1  0
 12 13  1  6
 14 13  1  0
 15 14  2  0
 16 15  1  0
 17 16  1  0
 17 22  2  0
 18 19  2  0
 18 17  1  0
 19 20  1  0
 20 21  2  0
 22 21  1  0
 22 14  1  0
 23 25  1  0
 24 23  2  0
 25 26  1  0
 26 27  1  1
 27 28  1  0
 28 29  2  0
 28 32  1  0
 29 30  1  0
 30 31  1  0
 32 31  2  0
 33 35  1  0
 33 26  1  0
 34 33  2  0
M  END
$$$$
