HWH.pdb
     RDKit          3D

 35 38  0  0  1  0  0  0  0  0999 V2000
   27.7300  -22.7107  -16.6957 N   0  0  0  0  0  0  0  0  0  0  0  0
   26.4715  -22.0512  -17.0016 C   0  0  1  0  0  0  0  0  0  0  0  0
   25.7921  -22.9235  -18.0493 C   0  0  0  0  0  0  0  0  0  0  0  0
   26.2450  -22.4762  -19.3814 C   0  0  0  0  0  0  0  0  0  0  0  0
   25.6198  -21.4692  -20.1073 C   0  0  0  0  0  0  0  0  0  0  0  0
   26.3319  -21.3645  -21.2574 N   0  0  0  0  0  0  0  0  0  0  0  0
   27.3363  -22.2293  -21.2804 C   0  0  0  0  0  0  0  0  0  0  0  0
   27.2761  -22.9108  -20.1205 N   0  0  0  0  0  0  0  0  0  0  0  0
   25.5778  -22.0503  -15.8162 C   0  0  0  0  0  0  0  0  0  0  0  0
   25.5645  -23.0773  -15.0964 O   0  0  0  0  0  0  0  0  0  0  0  0
   24.7544  -20.9729  -15.4604 N   0  0  0  0  0  0  0  0  0  0  0  0
   24.1075  -20.8317  -14.1388 C   0  0  1  0  0  0  0  0  0  0  0  0
   24.4677  -19.5106  -13.5507 C   0  0  0  0  0  0  0  0  0  0  0  0
   25.8409  -19.4427  -13.0508 C   0  0  0  0  0  0  0  0  0  0  0  0
   26.9274  -18.8337  -13.6388 C   0  0  0  0  0  0  0  0  0  0  0  0
   28.0263  -19.0091  -12.8937 N   0  0  0  0  0  0  0  0  0  0  0  0
   27.7205  -19.7260  -11.8043 C   0  0  0  0  0  0  0  0  0  0  0  0
   28.5086  -20.1464  -10.7719 C   0  0  0  0  0  0  0  0  0  0  0  0
   27.9424  -20.8805   -9.7608 C   0  0  0  0  0  0  0  0  0  0  0  0
   26.5852  -21.1681   -9.8274 C   0  0  0  0  0  0  0  0  0  0  0  0
   25.8147  -20.7342  -10.8753 C   0  0  0  0  0  0  0  0  0  0  0  0
   26.3496  -20.0051  -11.8908 C   0  0  0  0  0  0  0  0  0  0  0  0
   22.6618  -21.1100  -14.2791 C   0  0  0  0  0  0  0  0  0  0  0  0
   22.0370  -20.5404  -15.2616 O   0  0  0  0  0  0  0  0  0  0  0  0
   21.8884  -21.9432  -13.4514 N   0  0  0  0  0  0  0  0  0  0  0  0
   20.4662  -22.1744  -13.6647 C   0  0  1  0  0  0  0  0  0  0  0  0
   19.9777  -23.3363  -12.8327 C   0  0  0  0  0  0  0  0  0  0  0  0
   18.5613  -23.5987  -13.1473 C   0  0  0  0  0  0  0  0  0  0  0  0
   18.0946  -24.3635  -14.2232 C   0  0  0  0  0  0  0  0  0  0  0  0
   16.7520  -24.3759  -14.1870 N   0  0  0  0  0  0  0  0  0  0  0  0
   16.3567  -23.6588  -13.1447 C   0  0  0  0  0  0  0  0  0  0  0  0
   17.4432  -23.1932  -12.5218 N   0  0  0  0  0  0  0  0  0  0  0  0
   19.6939  -20.9764  -13.3334 C   0  0  0  0  0  0  0  0  0  0  0  0
   20.1550  -20.1786  -12.4581 O   0  0  0  0  0  0  0  0  0  0  0  0
   18.4735  -20.6534  -13.9267 O   0  0  0  0  0  0  0  0  0  0  0  0
  2  1  1  1
  3  2  1  0
  3  4  1  0
  4  5  2  0
  5  6  1  0
  7  6  1  0
  8  4  1  0
  8  7  2  0
  9 10  2  0
  9  2  1  0
 11  9  1  0
 12 23  1  0
 12 11  1  0
 12 13  1  6
 14 13  1  0
 15 14  2  0
 16 15  1  0
 17 16  1  0
 17 22  2  0
 18 19  2  0
 18 17  1  0
 19 20  1  0
 20 21  2  0
 22 21  1  0
 22 14  1  0
 23 25  1  0
 24 23  2  0
 25 26  1  0
 26 27  1  1
 27 28  1  0
 28 29  2  0
 28 32  1  0
 29 30  1  0
 30 31  1  0
 32 31  2  0
 33 35  1  0
 33 26  1  0
 34 33  2  0
M  END
$$$$
