HWH.pdb
     RDKit          3D

 35 38  0  0  1  0  0  0  0  0999 V2000
   26.1446  -18.6494  -19.5518 N   0  0  0  0  0  0  0  0  0  0  0  0
   26.0459  -17.9104  -18.3043 C   0  0  1  0  0  0  0  0  0  0  0  0
   24.9012  -16.9244  -18.4978 C   0  0  0  0  0  0  0  0  0  0  0  0
   25.4377  -15.7263  -19.1733 C   0  0  0  0  0  0  0  0  0  0  0  0
   25.5476  -14.4835  -18.5608 C   0  0  0  0  0  0  0  0  0  0  0  0
   26.0777  -13.6665  -19.5054 N   0  0  0  0  0  0  0  0  0  0  0  0
   26.2955  -14.3201  -20.6379 C   0  0  0  0  0  0  0  0  0  0  0  0
   25.8984  -15.5893  -20.4252 N   0  0  0  0  0  0  0  0  0  0  0  0
   25.6405  -18.8078  -17.1934 C   0  0  0  0  0  0  0  0  0  0  0  0
   24.7170  -19.6271  -17.4145 O   0  0  0  0  0  0  0  0  0  0  0  0
   26.2285  -18.7894  -15.9209 N   0  0  0  0  0  0  0  0  0  0  0  0
   25.8121  -19.6688  -14.8081 C   0  0  1  0  0  0  0  0  0  0  0  0
   26.9291  -19.7899  -13.8291 C   0  0  0  0  0  0  0  0  0  0  0  0
   26.6267  -20.6630  -12.6949 C   0  0  0  0  0  0  0  0  0  0  0  0
   26.5378  -22.0375  -12.6839 C   0  0  0  0  0  0  0  0  0  0  0  0
   26.2130  -22.4789  -11.4620 N   0  0  0  0  0  0  0  0  0  0  0  0
   26.0761  -21.4379  -10.6302 C   0  0  0  0  0  0  0  0  0  0  0  0
   25.7554  -21.4016   -9.3037 C   0  0  0  0  0  0  0  0  0  0  0  0
   25.6777  -20.1862   -8.6726 C   0  0  0  0  0  0  0  0  0  0  0  0
   25.9291  -19.0365   -9.4102 C   0  0  0  0  0  0  0  0  0  0  0  0
   26.2497  -19.0994  -10.7420 C   0  0  0  0  0  0  0  0  0  0  0  0
   26.3336  -20.2903  -11.3927 C   0  0  0  0  0  0  0  0  0  0  0  0
   24.5231  -19.1841  -14.2690 C   0  0  0  0  0  0  0  0  0  0  0  0
   24.2289  -17.9358  -14.4572 O   0  0  0  0  0  0  0  0  0  0  0  0
   23.5704  -19.9479  -13.5715 N   0  0  0  0  0  0  0  0  0  0  0  0
   22.1368  -19.8310  -13.8016 C   0  0  1  0  0  0  0  0  0  0  0  0
   21.8495  -19.4532  -15.2354 C   0  0  0  0  0  0  0  0  0  0  0  0
   20.4111  -19.1653  -15.3839 C   0  0  0  0  0  0  0  0  0  0  0  0
   19.6785  -18.2577  -14.6095 C   0  0  0  0  0  0  0  0  0  0  0  0
   18.4039  -18.2672  -15.0332 N   0  0  0  0  0  0  0  0  0  0  0  0
   18.3031  -19.1333  -16.0314 C   0  0  0  0  0  0  0  0  0  0  0  0
   19.5081  -19.6713  -16.2409 N   0  0  0  0  0  0  0  0  0  0  0  0
   21.4593  -21.0879  -13.4815 C   0  0  0  0  0  0  0  0  0  0  0  0
   21.9365  -22.1709  -13.9449 O   0  0  0  0  0  0  0  0  0  0  0  0
   20.3135  -21.1701  -12.6903 O   0  0  0  0  0  0  0  0  0  0  0  0
  2  1  1  6
  3  2  1  0
  3  4  1  0
  4  5  2  0
  5  6  1  0
  7  6  1  0
  8  4  1  0
  8  7  2  0
  9 10  2  0
  9  2  1  0
 11  9  1  0
 12 23  1  0
 12 11  1  0
 12 13  1  1
 14 13  1  0
 15 14  2  0
 16 15  1  0
 17 16  1  0
 17 22  2  0
 18 19  2  0
 18 17  1  0
 19 20  1  0
 20 21  2  0
 22 21  1  0
 22 14  1  0
 23 25  1  0
 24 23  2  0
 25 26  1  0
 26 27  1  6
 27 28  1  0
 28 29  2  0
 28 32  1  0
 29 30  1  0
 30 31  1  0
 32 31  2  0
 33 35  1  0
 33 26  1  0
 34 33  2  0
M  END
$$$$
