HWH.pdb
     RDKit          3D

 35 38  0  0  1  0  0  0  0  0999 V2000
   27.6430  -23.1840  -16.6135 N   0  0  0  0  0  0  0  0  0  0  0  0
   27.6182  -21.8619  -16.0106 C   0  0  1  0  0  0  0  0  0  0  0  0
   26.8399  -20.9808  -16.9792 C   0  0  0  0  0  0  0  0  0  0  0  0
   27.7335  -20.6335  -18.1019 C   0  0  0  0  0  0  0  0  0  0  0  0
   27.7191  -21.2903  -19.3267 C   0  0  0  0  0  0  0  0  0  0  0  0
   28.6755  -20.6790  -20.0699 N   0  0  0  0  0  0  0  0  0  0  0  0
   29.2640  -19.7061  -19.3886 C   0  0  0  0  0  0  0  0  0  0  0  0
   28.6778  -19.6843  -18.1764 N   0  0  0  0  0  0  0  0  0  0  0  0
   26.8429  -21.8767  -14.7448 C   0  0  0  0  0  0  0  0  0  0  0  0
   25.8085  -22.5847  -14.7040 O   0  0  0  0  0  0  0  0  0  0  0  0
   27.2007  -21.1481  -13.6018 N   0  0  0  0  0  0  0  0  0  0  0  0
   26.4713  -21.2187  -12.3180 C   0  0  1  0  0  0  0  0  0  0  0  0
   27.4075  -20.9120  -11.1999 C   0  0  0  0  0  0  0  0  0  0  0  0
   26.7437  -20.7258   -9.9096 C   0  0  0  0  0  0  0  0  0  0  0  0
   25.4247  -20.9649   -9.5931 C   0  0  0  0  0  0  0  0  0  0  0  0
   25.1816  -20.6469   -8.3151 N   0  0  0  0  0  0  0  0  0  0  0  0
   26.3051  -20.1937   -7.7437 C   0  0  0  0  0  0  0  0  0  0  0  0
   26.5364  -19.7571   -6.4710 C   0  0  0  0  0  0  0  0  0  0  0  0
   27.7976  -19.3374   -6.1322 C   0  0  0  0  0  0  0  0  0  0  0  0
   28.7930  -19.3734   -7.1002 C   0  0  0  0  0  0  0  0  0  0  0  0
   28.5354  -19.8166   -8.3720 C   0  0  0  0  0  0  0  0  0  0  0  0
   27.2948  -20.2382   -8.7352 C   0  0  0  0  0  0  0  0  0  0  0  0
   25.2616  -20.3723  -12.4055 C   0  0  0  0  0  0  0  0  0  0  0  0
   25.3632  -19.2503  -13.0465 O   0  0  0  0  0  0  0  0  0  0  0  0
   23.9971  -20.6660  -11.8648 N   0  0  0  0  0  0  0  0  0  0  0  0
   22.7546  -20.1592  -12.4313 C   0  0  1  0  0  0  0  0  0  0  0  0
   22.3992  -20.8978  -13.6998 C   0  0  0  0  0  0  0  0  0  0  0  0
   22.6358  -20.0171  -14.8584 C   0  0  0  0  0  0  0  0  0  0  0  0
   23.8698  -19.8138  -15.4878 C   0  0  0  0  0  0  0  0  0  0  0  0
   23.6951  -18.9471  -16.4990 N   0  0  0  0  0  0  0  0  0  0  0  0
   22.4167  -18.5990  -16.5332 C   0  0  0  0  0  0  0  0  0  0  0  0
   21.7823  -19.2417  -15.5484 N   0  0  0  0  0  0  0  0  0  0  0  0
   21.6599  -20.2854  -11.4685 C   0  0  0  0  0  0  0  0  0  0  0  0
   21.7283  -21.1978  -10.5864 O   0  0  0  0  0  0  0  0  0  0  0  0
   20.5380  -19.4567  -11.4588 O   0  0  0  0  0  0  0  0  0  0  0  0
  2  1  1  6
  3  2  1  0
  3  4  1  0
  4  5  2  0
  5  6  1  0
  7  6  1  0
  8  4  1  0
  8  7  2  0
  9 10  2  0
  9  2  1  0
 11  9  1  0
 12 23  1  0
 12 11  1  0
 12 13  1  1
 14 13  1  0
 15 14  2  0
 16 15  1  0
 17 16  1  0
 17 22  2  0
 18 19  2  0
 18 17  1  0
 19 20  1  0
 20 21  2  0
 22 21  1  0
 22 14  1  0
 23 25  1  0
 24 23  2  0
 25 26  1  0
 26 27  1  6
 27 28  1  0
 28 29  2  0
 28 32  1  0
 29 30  1  0
 30 31  1  0
 32 31  2  0
 33 35  1  0
 33 26  1  0
 34 33  2  0
M  END
$$$$
