HWH.pdb
     RDKit          3D

 35 38  0  0  1  0  0  0  0  0999 V2000
   24.0314  -13.9770  -18.7812 N   0  0  0  0  0  0  0  0  0  0  0  0
   23.6606  -12.6177  -19.1374 C   0  0  1  0  0  0  0  0  0  0  0  0
   22.1449  -12.6290  -19.2878 C   0  0  0  0  0  0  0  0  0  0  0  0
   21.8126  -13.3647  -20.5240 C   0  0  0  0  0  0  0  0  0  0  0  0
   22.5745  -13.3004  -21.6846 C   0  0  0  0  0  0  0  0  0  0  0  0
   21.9400  -14.1066  -22.5723 N   0  0  0  0  0  0  0  0  0  0  0  0
   20.8562  -14.6508  -22.0370 C   0  0  0  0  0  0  0  0  0  0  0  0
   20.7846  -14.1886  -20.7741 N   0  0  0  0  0  0  0  0  0  0  0  0
   23.9625  -11.6826  -18.0247 C   0  0  0  0  0  0  0  0  0  0  0  0
   23.5795  -12.0037  -16.8744 O   0  0  0  0  0  0  0  0  0  0  0  0
   24.6467  -10.4700  -18.1882 N   0  0  0  0  0  0  0  0  0  0  0  0
   24.8695   -9.4963  -17.0984 C   0  0  1  0  0  0  0  0  0  0  0  0
   26.2331   -8.9098  -17.2305 C   0  0  0  0  0  0  0  0  0  0  0  0
   27.3018   -9.9078  -17.2777 C   0  0  0  0  0  0  0  0  0  0  0  0
   28.3603   -9.9746  -18.1564 C   0  0  0  0  0  0  0  0  0  0  0  0
   29.1159  -11.0508  -17.9029 N   0  0  0  0  0  0  0  0  0  0  0  0
   28.6008  -11.7275  -16.8681 C   0  0  0  0  0  0  0  0  0  0  0  0
   29.0252  -12.8747  -16.2617 C   0  0  0  0  0  0  0  0  0  0  0  0
   28.3075  -13.3708  -15.2033 C   0  0  0  0  0  0  0  0  0  0  0  0
   27.1735  -12.6843  -14.7886 C   0  0  0  0  0  0  0  0  0  0  0  0
   26.7678  -11.5335  -15.4141 C   0  0  0  0  0  0  0  0  0  0  0  0
   27.4600  -11.0195  -16.4655 C   0  0  0  0  0  0  0  0  0  0  0  0
   23.7461   -8.5347  -17.0762 C   0  0  0  0  0  0  0  0  0  0  0  0
   23.2891   -8.1241  -18.2176 O   0  0  0  0  0  0  0  0  0  0  0  0
   23.1115   -8.0195  -15.9319 N   0  0  0  0  0  0  0  0  0  0  0  0
   21.9387   -7.1580  -15.9950 C   0  0  1  0  0  0  0  0  0  0  0  0
   20.7996   -7.8485  -16.7069 C   0  0  0  0  0  0  0  0  0  0  0  0
   19.6683   -6.9120  -16.8377 C   0  0  0  0  0  0  0  0  0  0  0  0
   18.5623   -6.8471  -15.9817 C   0  0  0  0  0  0  0  0  0  0  0  0
   17.7420   -5.8768  -16.4177 N   0  0  0  0  0  0  0  0  0  0  0  0
   18.2785   -5.3332  -17.5008 C   0  0  0  0  0  0  0  0  0  0  0  0
   19.4343   -5.9551  -17.7517 N   0  0  0  0  0  0  0  0  0  0  0  0
   21.5115   -6.7696  -14.6503 C   0  0  0  0  0  0  0  0  0  0  0  0
   21.6880   -7.5899  -13.6957 O   0  0  0  0  0  0  0  0  0  0  0  0
   20.9199   -5.5426  -14.3501 O   0  0  0  0  0  0  0  0  0  0  0  0
  2  1  1  1
  3  2  1  0
  3  4  1  0
  4  5  2  0
  5  6  1  0
  7  6  1  0
  8  4  1  0
  8  7  2  0
  9 10  2  0
  9  2  1  0
 11  9  1  0
 12 23  1  0
 12 11  1  0
 12 13  1  6
 14 13  1  0
 15 14  2  0
 16 15  1  0
 17 16  1  0
 17 22  2  0
 18 19  2  0
 18 17  1  0
 19 20  1  0
 20 21  2  0
 22 21  1  0
 22 14  1  0
 23 25  1  0
 24 23  2  0
 25 26  1  0
 26 27  1  1
 27 28  1  0
 28 29  2  0
 28 32  1  0
 29 30  1  0
 30 31  1  0
 32 31  2  0
 33 35  1  0
 33 26  1  0
 34 33  2  0
M  END
$$$$
