HWH.pdb
     RDKit          3D

 35 38  0  0  1  0  0  0  0  0999 V2000
   16.7634  -19.2559    2.9051 N   0  0  0  0  0  0  0  0  0  0  0  0
   16.2598  -18.8918    4.2188 C   0  0  1  0  0  0  0  0  0  0  0  0
   16.0098  -20.2075    4.9444 C   0  0  0  0  0  0  0  0  0  0  0  0
   14.5504  -20.4149    5.0272 C   0  0  0  0  0  0  0  0  0  0  0  0
   13.8693  -21.3826    4.2981 C   0  0  0  0  0  0  0  0  0  0  0  0
   12.5674  -21.2465    4.6547 N   0  0  0  0  0  0  0  0  0  0  0  0
   12.4116  -20.2731    5.5409 C   0  0  0  0  0  0  0  0  0  0  0  0
   13.6386  -19.7654    5.7655 N   0  0  0  0  0  0  0  0  0  0  0  0
   17.2997  -18.1757    4.9996 C   0  0  0  0  0  0  0  0  0  0  0  0
   18.5003  -18.4180    4.7295 O   0  0  0  0  0  0  0  0  0  0  0  0
   17.0153  -17.2512    6.0143 N   0  0  0  0  0  0  0  0  0  0  0  0
   18.0501  -16.5355    6.7904 C   0  0  1  0  0  0  0  0  0  0  0  0
   17.5358  -15.1917    7.1785 C   0  0  0  0  0  0  0  0  0  0  0  0
   17.9973  -14.1101    6.3083 C   0  0  0  0  0  0  0  0  0  0  0  0
   17.3618  -13.5783    5.2080 C   0  0  0  0  0  0  0  0  0  0  0  0
   18.1105  -12.6186    4.6496 N   0  0  0  0  0  0  0  0  0  0  0  0
   19.2486  -12.4772    5.3416 C   0  0  0  0  0  0  0  0  0  0  0  0
   20.3031  -11.6322    5.1471 C   0  0  0  0  0  0  0  0  0  0  0  0
   21.3665  -11.6877    6.0119 C   0  0  0  0  0  0  0  0  0  0  0  0
   21.3284  -12.6043    7.0547 C   0  0  0  0  0  0  0  0  0  0  0  0
   20.2573  -13.4424    7.2290 C   0  0  0  0  0  0  0  0  0  0  0  0
   19.1901  -13.4090    6.3871 C   0  0  0  0  0  0  0  0  0  0  0  0
   18.5062  -17.4032    7.8977 C   0  0  0  0  0  0  0  0  0  0  0  0
   17.5959  -17.9680    8.6274 O   0  0  0  0  0  0  0  0  0  0  0  0
   19.8404  -17.6869    8.2400 N   0  0  0  0  0  0  0  0  0  0  0  0
   20.2089  -18.4933    9.3957 C   0  0  1  0  0  0  0  0  0  0  0  0
   21.4639  -19.2874    9.1214 C   0  0  0  0  0  0  0  0  0  0  0  0
   21.1418  -20.4123    8.2243 C   0  0  0  0  0  0  0  0  0  0  0  0
   20.1065  -20.4313    7.2819 C   0  0  0  0  0  0  0  0  0  0  0  0
   20.1206  -21.6200    6.6567 N   0  0  0  0  0  0  0  0  0  0  0  0
   21.1106  -22.3436    7.1597 C   0  0  0  0  0  0  0  0  0  0  0  0
   21.7225  -21.6178    8.1001 N   0  0  0  0  0  0  0  0  0  0  0  0
   20.4130  -17.6462   10.5713 C   0  0  0  0  0  0  0  0  0  0  0  0
   20.6989  -18.2013   11.6783 O   0  0  0  0  0  0  0  0  0  0  0  0
   20.3144  -16.2550   10.5497 O   0  0  0  0  0  0  0  0  0  0  0  0
  2  1  1  6
  3  2  1  0
  3  4  1  0
  4  5  2  0
  5  6  1  0
  7  6  1  0
  8  4  1  0
  8  7  2  0
  9 10  2  0
  9  2  1  0
 11  9  1  0
 12 23  1  0
 12 11  1  0
 12 13  1  1
 14 13  1  0
 15 14  2  0
 16 15  1  0
 17 16  1  0
 17 22  2  0
 18 19  2  0
 18 17  1  0
 19 20  1  0
 20 21  2  0
 22 21  1  0
 22 14  1  0
 23 25  1  0
 24 23  2  0
 25 26  1  0
 26 27  1  6
 27 28  1  0
 28 29  2  0
 28 32  1  0
 29 30  1  0
 30 31  1  0
 32 31  2  0
 33 35  1  0
 33 26  1  0
 34 33  2  0
M  END
$$$$
