CGW.pdb
     RDKit          3D

 25 26  0  0  1  0  0  0  0  0999 V2000
   29.2350  -21.4123  -14.7862 N   0  0  0  0  0  0  0  0  0  0  0  0
   28.7002  -20.7799  -15.9535 C   0  0  1  0  0  0  0  0  0  0  0  0
   28.5705  -21.7489  -17.1193 C   0  0  0  0  0  0  0  0  0  0  0  0
   29.9687  -22.9102  -17.0424 S   0  0  0  0  0  0  0  0  0  0  0  0
   27.4153  -20.1092  -15.6508 C   0  0  0  0  0  0  0  0  0  0  0  0
   26.6986  -19.5856  -16.5525 O   0  0  0  0  0  0  0  0  0  0  0  0
   26.9584  -20.0422  -14.3026 N   0  0  0  0  0  0  0  0  0  0  0  0
   25.6084  -20.4530  -14.0154 C   0  0  0  0  0  0  0  0  0  0  0  0
   25.4120  -20.8960  -12.6064 C   0  0  0  0  0  0  0  0  0  0  0  0
   24.2637  -21.2932  -12.2566 O   0  0  0  0  0  0  0  0  0  0  0  0
   26.4293  -20.8944  -11.6400 N   0  0  0  0  0  0  0  0  0  0  0  0
   26.1673  -21.3051  -10.2609 C   0  0  1  0  0  0  0  0  0  0  0  0
   27.3944  -21.2615   -9.4405 C   0  0  0  0  0  0  0  0  0  0  0  0
   27.1715  -20.7209   -8.0963 C   0  0  0  0  0  0  0  0  0  0  0  0
   25.9363  -20.4181   -7.5160 C   0  0  0  0  0  0  0  0  0  0  0  0
   26.1146  -19.9040   -6.2855 N   0  0  0  0  0  0  0  0  0  0  0  0
   27.4162  -19.8512   -6.0192 C   0  0  0  0  0  0  0  0  0  0  0  0
   28.0647  -19.4181   -4.8761 C   0  0  0  0  0  0  0  0  0  0  0  0
   29.4432  -19.4828   -4.8194 C   0  0  0  0  0  0  0  0  0  0  0  0
   30.1247  -19.9791   -5.9107 C   0  0  0  0  0  0  0  0  0  0  0  0
   29.4607  -20.4050   -7.0407 C   0  0  0  0  0  0  0  0  0  0  0  0
   28.0787  -20.3516   -7.1269 C   0  0  0  0  0  0  0  0  0  0  0  0
   25.0564  -20.5376   -9.6962 C   0  0  0  0  0  0  0  0  0  0  0  0
   24.8118  -19.3812  -10.1056 O   0  0  0  0  0  0  0  0  0  0  0  0
   24.2649  -21.1246   -8.6788 O   0  0  0  0  0  0  0  0  0  0  0  0
  2  1  1  1
  3  2  1  0
  4  3  1  0
  5  2  1  0
  5  6  2  0
  7  5  1  0
  8  7  1  0
  8  9  1  0
  9 10  2  0
 11  9  1  0
 11 12  1  0
 12 13  1  1
 13 14  1  0
 14 15  2  0
 14 22  1  0
 15 16  1  0
 16 17  1  0
 17 18  2  0
 19 18  1  0
 20 19  2  0
 21 22  2  0
 21 20  1  0
 22 17  1  0
 23 25  1  0
 23 12  1  0
 24 23  2  0
M  END
$$$$
