CGW.pdb
     RDKit          3D

 25 26  0  0  1  0  0  0  0  0999 V2000
   26.9420  -17.4890  -13.4178 N   0  0  0  0  0  0  0  0  0  0  0  0
   26.9671  -18.4536  -14.4749 C   0  0  1  0  0  0  0  0  0  0  0  0
   27.8556  -18.0134  -15.6287 C   0  0  0  0  0  0  0  0  0  0  0  0
   27.2389  -16.4122  -16.2334 S   0  0  0  0  0  0  0  0  0  0  0  0
   27.3511  -19.7892  -13.9640 C   0  0  0  0  0  0  0  0  0  0  0  0
   27.1837  -20.8446  -14.6416 O   0  0  0  0  0  0  0  0  0  0  0  0
   27.9288  -19.9055  -12.6664 N   0  0  0  0  0  0  0  0  0  0  0  0
   28.1280  -21.2231  -12.1207 C   0  0  0  0  0  0  0  0  0  0  0  0
   27.2558  -21.5160  -10.9487 C   0  0  0  0  0  0  0  0  0  0  0  0
   27.3160  -22.6667  -10.4284 O   0  0  0  0  0  0  0  0  0  0  0  0
   26.3651  -20.5875  -10.3889 N   0  0  0  0  0  0  0  0  0  0  0  0
   25.3406  -21.0008   -9.4303 C   0  0  1  0  0  0  0  0  0  0  0  0
   25.4534  -20.2537   -8.1614 C   0  0  0  0  0  0  0  0  0  0  0  0
   26.8331  -19.8877   -7.8275 C   0  0  0  0  0  0  0  0  0  0  0  0
   27.8839  -19.6954   -8.7292 C   0  0  0  0  0  0  0  0  0  0  0  0
   29.0181  -19.4061   -8.0659 N   0  0  0  0  0  0  0  0  0  0  0  0
   28.7694  -19.3964   -6.7598 C   0  0  0  0  0  0  0  0  0  0  0  0
   29.6215  -19.1300   -5.7027 C   0  0  0  0  0  0  0  0  0  0  0  0
   29.1233  -19.1538   -4.4146 C   0  0  0  0  0  0  0  0  0  0  0  0
   27.7879  -19.4443   -4.2303 C   0  0  0  0  0  0  0  0  0  0  0  0
   26.9551  -19.7077   -5.2964 C   0  0  0  0  0  0  0  0  0  0  0  0
   27.4265  -19.6916   -6.5994 C   0  0  0  0  0  0  0  0  0  0  0  0
   24.0098  -20.9317  -10.0355 C   0  0  0  0  0  0  0  0  0  0  0  0
   23.8647  -20.4999  -11.2005 O   0  0  0  0  0  0  0  0  0  0  0  0
   22.8904  -21.3599   -9.2807 O   0  0  0  0  0  0  0  0  0  0  0  0
  2  1  1  1
  3  2  1  0
  4  3  1  0
  5  2  1  0
  5  6  2  0
  7  5  1  0
  8  7  1  0
  8  9  1  0
  9 10  2  0
 11  9  1  0
 11 12  1  0
 12 13  1  1
 13 14  1  0
 14 15  2  0
 14 22  1  0
 15 16  1  0
 16 17  1  0
 17 18  2  0
 19 18  1  0
 20 19  2  0
 21 22  2  0
 21 20  1  0
 22 17  1  0
 23 25  1  0
 23 12  1  0
 24 23  2  0
M  END
$$$$
