CGW.pdb
     RDKit          3D

 25 26  0  0  1  0  0  0  0  0999 V2000
   26.4002  -21.2973  -16.3407 N   0  0  0  0  0  0  0  0  0  0  0  0
   27.2948  -21.3628  -15.2253 C   0  0  1  0  0  0  0  0  0  0  0  0
   28.7271  -21.0376  -15.6222 C   0  0  0  0  0  0  0  0  0  0  0  0
   29.3917  -22.4597  -16.5418 S   0  0  0  0  0  0  0  0  0  0  0  0
   26.8228  -20.5024  -14.1167 C   0  0  0  0  0  0  0  0  0  0  0  0
   26.6097  -19.2642  -14.2672 O   0  0  0  0  0  0  0  0  0  0  0  0
   26.5980  -21.0738  -12.8306 N   0  0  0  0  0  0  0  0  0  0  0  0
   26.1396  -20.2147  -11.7697 C   0  0  0  0  0  0  0  0  0  0  0  0
   25.8994  -20.9349  -10.4876 C   0  0  0  0  0  0  0  0  0  0  0  0
   25.9800  -22.1966  -10.4836 O   0  0  0  0  0  0  0  0  0  0  0  0
   25.5836  -20.2928   -9.2806 N   0  0  0  0  0  0  0  0  0  0  0  0
   25.1451  -21.0510   -8.1092 C   0  0  1  0  0  0  0  0  0  0  0  0
   25.3086  -20.2702   -6.8665 C   0  0  0  0  0  0  0  0  0  0  0  0
   26.6615  -19.7322   -6.6962 C   0  0  0  0  0  0  0  0  0  0  0  0
   27.2722  -18.7527   -7.4846 C   0  0  0  0  0  0  0  0  0  0  0  0
   28.5304  -18.5334   -7.0614 N   0  0  0  0  0  0  0  0  0  0  0  0
   28.7856  -19.3242   -6.0235 C   0  0  0  0  0  0  0  0  0  0  0  0
   29.9329  -19.4293   -5.2571 C   0  0  0  0  0  0  0  0  0  0  0  0
   29.9555  -20.3156   -4.1980 C   0  0  0  0  0  0  0  0  0  0  0  0
   28.8273  -21.0666   -3.9435 C   0  0  0  0  0  0  0  0  0  0  0  0
   27.6941  -20.9481   -4.7190 C   0  0  0  0  0  0  0  0  0  0  0  0
   27.6421  -20.0681   -5.7882 C   0  0  0  0  0  0  0  0  0  0  0  0
   23.7888  -21.5649   -8.3052 C   0  0  0  0  0  0  0  0  0  0  0  0
   23.2815  -22.3492   -7.4733 O   0  0  0  0  0  0  0  0  0  0  0  0
   23.0619  -21.1611   -9.4518 O   0  0  0  0  0  0  0  0  0  0  0  0
  2  1  1  6
  3  2  1  0
  4  3  1  0
  5  2  1  0
  5  6  2  0
  7  5  1  0
  8  7  1  0
  8  9  1  0
  9 10  2  0
 11  9  1  0
 11 12  1  0
 12 13  1  1
 13 14  1  0
 14 15  2  0
 14 22  1  0
 15 16  1  0
 16 17  1  0
 17 18  2  0
 19 18  1  0
 20 19  2  0
 21 22  2  0
 21 20  1  0
 22 17  1  0
 23 25  1  0
 23 12  1  0
 24 23  2  0
M  END
$$$$
