CGW.pdb
     RDKit          3D

 25 26  0  0  1  0  0  0  0  0999 V2000
   25.8527  -17.5765  -13.6649 N   0  0  0  0  0  0  0  0  0  0  0  0
   25.9816  -18.1924  -14.9504 C   0  0  1  0  0  0  0  0  0  0  0  0
   25.9772  -17.1696  -16.0768 C   0  0  0  0  0  0  0  0  0  0  0  0
   24.4486  -16.1925  -15.9421 S   0  0  0  0  0  0  0  0  0  0  0  0
   27.1784  -19.0626  -15.0030 C   0  0  0  0  0  0  0  0  0  0  0  0
   27.5131  -19.6872  -16.0514 O   0  0  0  0  0  0  0  0  0  0  0  0
   27.9895  -19.2126  -13.8409 N   0  0  0  0  0  0  0  0  0  0  0  0
   28.4599  -20.5300  -13.4990 C   0  0  0  0  0  0  0  0  0  0  0  0
   27.8202  -21.0870  -12.2739 C   0  0  0  0  0  0  0  0  0  0  0  0
   28.3367  -22.1097  -11.7392 O   0  0  0  0  0  0  0  0  0  0  0  0
   26.6714  -20.5437  -11.6791 N   0  0  0  0  0  0  0  0  0  0  0  0
   26.3428  -20.8105  -10.2790 C   0  0  1  0  0  0  0  0  0  0  0  0
   27.1919  -20.0218   -9.3637 C   0  0  0  0  0  0  0  0  0  0  0  0
   26.8485  -20.2100   -7.9511 C   0  0  0  0  0  0  0  0  0  0  0  0
   25.6740  -20.7784   -7.4495 C   0  0  0  0  0  0  0  0  0  0  0  0
   25.6835  -20.7535   -6.1043 N   0  0  0  0  0  0  0  0  0  0  0  0
   26.8146  -20.1934   -5.6863 C   0  0  0  0  0  0  0  0  0  0  0  0
   27.2658  -19.9758   -4.3965 C   0  0  0  0  0  0  0  0  0  0  0  0
   28.5034  -19.3926   -4.2061 C   0  0  0  0  0  0  0  0  0  0  0  0
   29.2462  -19.0471   -5.3154 C   0  0  0  0  0  0  0  0  0  0  0  0
   28.7791  -19.2713   -6.5925 C   0  0  0  0  0  0  0  0  0  0  0  0
   27.5415  -19.8540   -6.8145 C   0  0  0  0  0  0  0  0  0  0  0  0
   24.9086  -20.6380  -10.0437 C   0  0  0  0  0  0  0  0  0  0  0  0
   24.2719  -19.7403  -10.6383 O   0  0  0  0  0  0  0  0  0  0  0  0
   24.2548  -21.5022   -9.1317 O   0  0  0  0  0  0  0  0  0  0  0  0
  2  1  1  1
  3  2  1  0
  4  3  1  0
  5  2  1  0
  5  6  2  0
  7  5  1  0
  8  7  1  0
  8  9  1  0
  9 10  2  0
 11  9  1  0
 11 12  1  0
 12 13  1  1
 13 14  1  0
 14 15  2  0
 14 22  1  0
 15 16  1  0
 16 17  1  0
 17 18  2  0
 19 18  1  0
 20 19  2  0
 21 22  2  0
 21 20  1  0
 22 17  1  0
 23 25  1  0
 23 12  1  0
 24 23  2  0
M  END
$$$$
