CGW.pdb
     RDKit          3D

 25 26  0  0  1  0  0  0  0  0999 V2000
   23.4339  -20.3993  -13.4122 N   0  0  0  0  0  0  0  0  0  0  0  0
   24.7548  -20.3350  -13.9596 C   0  0  1  0  0  0  0  0  0  0  0  0
   24.8875  -19.2361  -15.0034 C   0  0  0  0  0  0  0  0  0  0  0  0
   23.7380  -19.6108  -16.3627 S   0  0  0  0  0  0  0  0  0  0  0  0
   25.7664  -20.1994  -12.8870 C   0  0  0  0  0  0  0  0  0  0  0  0
   25.7407  -19.2496  -12.0513 O   0  0  0  0  0  0  0  0  0  0  0  0
   26.8112  -21.1627  -12.7808 N   0  0  0  0  0  0  0  0  0  0  0  0
   27.7828  -21.0068  -11.7295 C   0  0  0  0  0  0  0  0  0  0  0  0
   27.2458  -21.3233  -10.3761 C   0  0  0  0  0  0  0  0  0  0  0  0
   27.8706  -22.1597   -9.6630 O   0  0  0  0  0  0  0  0  0  0  0  0
   26.0806  -20.7486   -9.8461 N   0  0  0  0  0  0  0  0  0  0  0  0
   25.5770  -21.1317   -8.5275 C   0  0  1  0  0  0  0  0  0  0  0  0
   25.6242  -20.0000   -7.5800 C   0  0  0  0  0  0  0  0  0  0  0  0
   26.9893  -19.5975   -7.2287 C   0  0  0  0  0  0  0  0  0  0  0  0
   27.8951  -18.9224   -8.0520 C   0  0  0  0  0  0  0  0  0  0  0  0
   29.0667  -18.7525   -7.4127 N   0  0  0  0  0  0  0  0  0  0  0  0
   28.9816  -19.2849   -6.1973 C   0  0  0  0  0  0  0  0  0  0  0  0
   29.9257  -19.3289   -5.1867 C   0  0  0  0  0  0  0  0  0  0  0  0
   29.5957  -19.9208   -3.9831 C   0  0  0  0  0  0  0  0  0  0  0  0
   28.3305  -20.4487   -3.8338 C   0  0  0  0  0  0  0  0  0  0  0  0
   27.4040  -20.3957   -4.8528 C   0  0  0  0  0  0  0  0  0  0  0  0
   27.7065  -19.8090   -6.0712 C   0  0  0  0  0  0  0  0  0  0  0  0
   24.2544  -21.7484   -8.6395 C   0  0  0  0  0  0  0  0  0  0  0  0
   23.6649  -21.7886   -9.7420 O   0  0  0  0  0  0  0  0  0  0  0  0
   23.6534  -22.2968   -7.4801 O   0  0  0  0  0  0  0  0  0  0  0  0
  2  1  1  1
  3  2  1  0
  4  3  1  0
  5  2  1  0
  5  6  2  0
  7  5  1  0
  8  7  1  0
  8  9  1  0
  9 10  2  0
 11  9  1  0
 11 12  1  0
 12 13  1  1
 13 14  1  0
 14 15  2  0
 14 22  1  0
 15 16  1  0
 16 17  1  0
 17 18  2  0
 19 18  1  0
 20 19  2  0
 21 22  2  0
 21 20  1  0
 22 17  1  0
 23 25  1  0
 23 12  1  0
 24 23  2  0
M  END
$$$$
