CGW.pdb
     RDKit          3D

 25 26  0  0  1  0  0  0  0  0999 V2000
   26.2141  -18.2486  -18.1221 N   0  0  0  0  0  0  0  0  0  0  0  0
   26.2733  -18.4801  -16.7109 C   0  0  1  0  0  0  0  0  0  0  0  0
   25.2081  -17.6966  -15.9584 C   0  0  0  0  0  0  0  0  0  0  0  0
   25.7808  -15.9769  -15.8027 S   0  0  0  0  0  0  0  0  0  0  0  0
   26.2067  -19.9281  -16.4086 C   0  0  0  0  0  0  0  0  0  0  0  0
   25.2763  -20.6665  -16.8449 O   0  0  0  0  0  0  0  0  0  0  0  0
   27.2170  -20.5239  -15.5991 N   0  0  0  0  0  0  0  0  0  0  0  0
   27.0361  -21.8865  -15.1700 C   0  0  0  0  0  0  0  0  0  0  0  0
   26.2974  -22.0078  -13.8817 C   0  0  0  0  0  0  0  0  0  0  0  0
   26.1928  -23.1526  -13.3552 O   0  0  0  0  0  0  0  0  0  0  0  0
   25.7051  -20.9227  -13.2179 N   0  0  0  0  0  0  0  0  0  0  0  0
   24.9849  -21.1046  -11.9580 C   0  0  1  0  0  0  0  0  0  0  0  0
   25.4598  -20.1652  -10.9222 C   0  0  0  0  0  0  0  0  0  0  0  0
   26.7929  -20.4960  -10.4100 C   0  0  0  0  0  0  0  0  0  0  0  0
   27.8337  -21.0947  -11.1257 C   0  0  0  0  0  0  0  0  0  0  0  0
   28.8990  -21.2837  -10.3259 N   0  0  0  0  0  0  0  0  0  0  0  0
   28.6141  -20.8360   -9.1068 C   0  0  0  0  0  0  0  0  0  0  0  0
   29.4059  -20.8043   -7.9726 C   0  0  0  0  0  0  0  0  0  0  0  0
   28.8950  -20.2599   -6.8104 C   0  0  0  0  0  0  0  0  0  0  0  0
   27.6075  -19.7661   -6.8250 C   0  0  0  0  0  0  0  0  0  0  0  0
   26.8340  -19.8075   -7.9650 C   0  0  0  0  0  0  0  0  0  0  0  0
   27.3192  -20.3480   -9.1451 C   0  0  0  0  0  0  0  0  0  0  0  0
   23.5389  -21.0533  -12.1781 C   0  0  0  0  0  0  0  0  0  0  0  0
   23.0788  -20.7347  -13.2968 O   0  0  0  0  0  0  0  0  0  0  0  0
   22.6704  -21.3682  -11.1045 O   0  0  0  0  0  0  0  0  0  0  0  0
  2  1  1  6
  3  2  1  0
  4  3  1  0
  5  2  1  0
  5  6  2  0
  7  5  1  0
  8  7  1  0
  8  9  1  0
  9 10  2  0
 11  9  1  0
 11 12  1  0
 12 13  1  1
 13 14  1  0
 14 15  2  0
 14 22  1  0
 15 16  1  0
 16 17  1  0
 17 18  2  0
 19 18  1  0
 20 19  2  0
 21 22  2  0
 21 20  1  0
 22 17  1  0
 23 25  1  0
 23 12  1  0
 24 23  2  0
M  END
$$$$
