CGW.pdb
     RDKit          3D

 25 26  0  0  1  0  0  0  0  0999 V2000
   29.9051  -21.3905  -16.6753 N   0  0  0  0  0  0  0  0  0  0  0  0
   28.6596  -20.7966  -17.0557 C   0  0  1  0  0  0  0  0  0  0  0  0
   27.7255  -21.8010  -17.7140 C   0  0  0  0  0  0  0  0  0  0  0  0
   28.0140  -23.4243  -16.9449 S   0  0  0  0  0  0  0  0  0  0  0  0
   28.0192  -20.1246  -15.9022 C   0  0  0  0  0  0  0  0  0  0  0  0
   26.9113  -19.5214  -16.0024 O   0  0  0  0  0  0  0  0  0  0  0  0
   28.6612  -20.1485  -14.6301 N   0  0  0  0  0  0  0  0  0  0  0  0
   28.0289  -19.4668  -13.5305 C   0  0  0  0  0  0  0  0  0  0  0  0
   27.1133  -20.3387  -12.7419 C   0  0  0  0  0  0  0  0  0  0  0  0
   26.3154  -21.0932  -13.3684 O   0  0  0  0  0  0  0  0  0  0  0  0
   27.0817  -20.3686  -11.3395 N   0  0  0  0  0  0  0  0  0  0  0  0
   26.2455  -21.3284  -10.6191 C   0  0  1  0  0  0  0  0  0  0  0  0
   26.9035  -21.8000   -9.3841 C   0  0  0  0  0  0  0  0  0  0  0  0
   27.0086  -20.7628   -8.3535 C   0  0  0  0  0  0  0  0  0  0  0  0
   26.1823  -19.6442   -8.2122 C   0  0  0  0  0  0  0  0  0  0  0  0
   26.5965  -18.8881   -7.1792 N   0  0  0  0  0  0  0  0  0  0  0  0
   27.6637  -19.4547   -6.6243 C   0  0  0  0  0  0  0  0  0  0  0  0
   28.4089  -19.0481   -5.5316 C   0  0  0  0  0  0  0  0  0  0  0  0
   29.4737  -19.8242   -5.1171 C   0  0  0  0  0  0  0  0  0  0  0  0
   29.7554  -20.9812   -5.8126 C   0  0  0  0  0  0  0  0  0  0  0  0
   29.0016  -21.3690   -6.8993 C   0  0  0  0  0  0  0  0  0  0  0  0
   27.9281  -20.6107   -7.3384 C   0  0  0  0  0  0  0  0  0  0  0  0
   24.9058  -20.7819  -10.3983 C   0  0  0  0  0  0  0  0  0  0  0  0
   24.6991  -19.5519  -10.4942 O   0  0  0  0  0  0  0  0  0  0  0  0
   23.8493  -21.6673  -10.0730 O   0  0  0  0  0  0  0  0  0  0  0  0
  2  1  1  1
  3  2  1  0
  4  3  1  0
  5  2  1  0
  5  6  2  0
  7  5  1  0
  8  7  1  0
  8  9  1  0
  9 10  2  0
 11  9  1  0
 11 12  1  0
 12 13  1  1
 13 14  1  0
 14 15  2  0
 14 22  1  0
 15 16  1  0
 16 17  1  0
 17 18  2  0
 19 18  1  0
 20 19  2  0
 21 22  2  0
 21 20  1  0
 22 17  1  0
 23 25  1  0
 23 12  1  0
 24 23  2  0
M  END
$$$$
