CGW.pdb
     RDKit          3D

 25 26  0  0  1  0  0  0  0  0999 V2000
   28.8098  -18.3720  -17.8066 N   0  0  0  0  0  0  0  0  0  0  0  0
   27.6594  -18.4419  -16.9580 C   0  0  1  0  0  0  0  0  0  0  0  0
   26.5658  -19.3188  -17.5496 C   0  0  0  0  0  0  0  0  0  0  0  0
   25.9336  -18.4965  -19.0442 S   0  0  0  0  0  0  0  0  0  0  0  0
   28.0339  -18.8762  -15.5930 C   0  0  0  0  0  0  0  0  0  0  0  0
   28.9125  -19.7626  -15.3841 O   0  0  0  0  0  0  0  0  0  0  0  0
   27.3905  -18.2860  -14.4666 N   0  0  0  0  0  0  0  0  0  0  0  0
   27.8940  -18.5907  -13.1524 C   0  0  0  0  0  0  0  0  0  0  0  0
   27.1597  -19.6991  -12.4799 C   0  0  0  0  0  0  0  0  0  0  0  0
   26.3469  -20.3834  -13.1653 O   0  0  0  0  0  0  0  0  0  0  0  0
   27.3146  -20.0268  -11.1244 N   0  0  0  0  0  0  0  0  0  0  0  0
   26.6717  -21.2087  -10.5506 C   0  0  1  0  0  0  0  0  0  0  0  0
   27.3480  -21.6457   -9.3127 C   0  0  0  0  0  0  0  0  0  0  0  0
   27.2517  -20.6669   -8.2256 C   0  0  0  0  0  0  0  0  0  0  0  0
   26.3972  -19.5617   -8.1750 C   0  0  0  0  0  0  0  0  0  0  0  0
   26.6086  -18.8623   -7.0453 N   0  0  0  0  0  0  0  0  0  0  0  0
   27.5675  -19.4537   -6.3391 C   0  0  0  0  0  0  0  0  0  0  0  0
   28.0990  -19.1050   -5.1101 C   0  0  0  0  0  0  0  0  0  0  0  0
   29.0837  -19.8978   -4.5536 C   0  0  0  0  0  0  0  0  0  0  0  0
   29.5022  -21.0130   -5.2484 C   0  0  0  0  0  0  0  0  0  0  0  0
   28.9609  -21.3434   -6.4720 C   0  0  0  0  0  0  0  0  0  0  0  0
   27.9723  -20.5670   -7.0553 C   0  0  0  0  0  0  0  0  0  0  0  0
   25.2345  -20.9860  -10.3868 C   0  0  0  0  0  0  0  0  0  0  0  0
   24.7773  -19.8241  -10.3125 O   0  0  0  0  0  0  0  0  0  0  0  0
   24.3713  -22.1065  -10.3125 O   0  0  0  0  0  0  0  0  0  0  0  0
  2  1  1  6
  3  2  1  0
  4  3  1  0
  5  2  1  0
  5  6  2  0
  7  5  1  0
  8  7  1  0
  8  9  1  0
  9 10  2  0
 11  9  1  0
 11 12  1  0
 12 13  1  1
 13 14  1  0
 14 15  2  0
 14 22  1  0
 15 16  1  0
 16 17  1  0
 17 18  2  0
 19 18  1  0
 20 19  2  0
 21 22  2  0
 21 20  1  0
 22 17  1  0
 23 25  1  0
 23 12  1  0
 24 23  2  0
M  END
$$$$
