KAN.pdb
     RDKit          3D

 23 22  0  0  1  0  0  0  0  0999 V2000
   17.7061  -12.8685  -15.3991 N   0  0  0  0  0  0  0  0  0  0  0  0
   17.2700  -11.5024  -15.6173 C   0  0  1  0  0  0  0  0  0  0  0  0
   15.7774  -11.4737  -15.6406 C   0  0  0  0  0  0  0  0  0  0  0  0
   15.2545  -12.4329  -16.6791 C   0  0  0  0  0  0  0  0  0  0  0  0
   13.7635  -12.4993  -16.7330 C   0  0  0  0  0  0  0  0  0  0  0  0
   13.2433  -13.4172  -17.8278 C   0  0  0  0  0  0  0  0  0  0  0  0
   11.8071  -13.4783  -17.7747 N   0  0  0  0  0  0  0  0  0  0  0  0
   17.8197  -10.6729  -14.5179 C   0  0  0  0  0  0  0  0  0  0  0  0
   17.8554  -11.1035  -13.3382 O   0  0  0  0  0  0  0  0  0  0  0  0
   19.5133   -7.3410  -14.2505 C   0  0  0  0  0  0  0  0  0  0  0  0
   18.7408   -8.4714  -13.6708 C   0  0  2  0  0  0  0  0  0  0  0  0
   18.3319   -9.3615  -14.7212 N   0  0  0  0  0  0  0  0  0  0  0  0
   17.6227   -8.0642  -12.7937 C   0  0  0  0  0  0  0  0  0  0  0  0
   16.4675   -7.9546  -13.2862 O   0  0  0  0  0  0  0  0  0  0  0  0
   14.6627   -7.7197   -7.9130 N   0  0  0  0  0  0  0  0  0  0  0  0
   15.6998   -6.8755   -8.3727 C   0  0  0  0  0  0  0  0  0  0  0  0
   15.6185   -5.6509   -8.1180 O   0  0  0  0  0  0  0  0  0  0  0  0
   16.8688   -7.3704   -9.1354 C   0  0  0  0  0  0  0  0  0  0  0  0
   16.6648   -7.3141  -10.6021 C   0  0  2  0  0  0  0  0  0  0  0  0
   17.7357   -7.7780  -11.4128 N   0  0  0  0  0  0  0  0  0  0  0  0
   16.2635   -5.9272  -10.9726 C   0  0  0  0  0  0  0  0  0  0  0  0
   14.9774   -5.4663  -10.9697 O   0  0  0  0  0  0  0  0  0  0  0  0
   17.1775   -5.1344  -11.3096 O   0  0  0  0  0  0  0  0  0  0  0  0
  2  1  1  1
  2  3  1  0
  4  3  1  0
  5  4  1  0
  5  6  1  0
  7  6  1  0
  8  2  1  0
  8  9  2  0
 11 10  1  6
 11 12  1  0
 12  8  1  0
 13 11  1  0
 14 13  2  0
 16 18  1  0
 16 15  1  0
 17 16  2  0
 19 18  1  1
 19 20  1  0
 19 21  1  0
 20 13  1  0
 21 22  1  0
 23 21  2  0
M  END
$$$$
