KAN.pdb
     RDKit          3D

 23 22  0  0  1  0  0  0  0  0999 V2000
   27.6417  -21.4203  -14.5120 N   0  0  0  0  0  0  0  0  0  0  0  0
   26.6987  -20.4202  -14.0488 C   0  0  1  0  0  0  0  0  0  0  0  0
   27.3123  -19.6733  -12.9109 C   0  0  0  0  0  0  0  0  0  0  0  0
   27.0685  -20.4052  -11.6160 C   0  0  0  0  0  0  0  0  0  0  0  0
   25.6522  -20.3333  -11.1476 C   0  0  0  0  0  0  0  0  0  0  0  0
   25.4575  -20.8767   -9.7410 C   0  0  0  0  0  0  0  0  0  0  0  0
   24.0685  -20.8009   -9.3743 N   0  0  0  0  0  0  0  0  0  0  0  0
   26.3913  -19.5271  -15.1919 C   0  0  0  0  0  0  0  0  0  0  0  0
   27.2591  -18.7442  -15.6529 O   0  0  0  0  0  0  0  0  0  0  0  0
   24.7819  -18.9096  -18.1183 C   0  0  0  0  0  0  0  0  0  0  0  0
   24.6698  -18.4539  -16.7075 C   0  0  2  0  0  0  0  0  0  0  0  0
   25.1200  -19.4973  -15.8292 N   0  0  0  0  0  0  0  0  0  0  0  0
   23.3400  -17.9242  -16.3379 C   0  0  0  0  0  0  0  0  0  0  0  0
   22.8410  -16.9916  -17.0234 O   0  0  0  0  0  0  0  0  0  0  0  0
   18.3266  -18.8005  -15.3118 N   0  0  0  0  0  0  0  0  0  0  0  0
   18.9862  -18.2751  -16.4468 C   0  0  0  0  0  0  0  0  0  0  0  0
   18.2848  -17.9172  -17.4222 O   0  0  0  0  0  0  0  0  0  0  0  0
   20.4575  -18.1298  -16.5335 C   0  0  0  0  0  0  0  0  0  0  0  0
   21.1569  -18.6232  -15.3239 C   0  0  2  0  0  0  0  0  0  0  0  0
   22.5556  -18.3824  -15.2535 N   0  0  0  0  0  0  0  0  0  0  0  0
   20.8450  -20.0707  -15.1526 C   0  0  0  0  0  0  0  0  0  0  0  0
   20.0148  -20.5757  -14.1922 O   0  0  0  0  0  0  0  0  0  0  0  0
   21.3876  -20.8745  -15.9508 O   0  0  0  0  0  0  0  0  0  0  0  0
  2  1  1  6
  2  3  1  0
  4  3  1  0
  5  4  1  0
  5  6  1  0
  7  6  1  0
  8  2  1  0
  8  9  2  0
 11 10  1  6
 11 12  1  0
 12  8  1  0
 13 11  1  0
 14 13  2  0
 16 18  1  0
 16 15  1  0
 17 16  2  0
 19 18  1  6
 19 20  1  0
 19 21  1  0
 20 13  1  0
 21 22  1  0
 23 21  2  0
M  END
$$$$
