KAN.pdb
     RDKit          3D

 23 22  0  0  1  0  0  0  0  0999 V2000
   16.0701  -11.1256  -14.4747 N   0  0  0  0  0  0  0  0  0  0  0  0
   17.4732  -11.2094  -14.8326 C   0  0  1  0  0  0  0  0  0  0  0  0
   17.6781  -12.4142  -15.6902 C   0  0  0  0  0  0  0  0  0  0  0  0
   16.5230  -13.3693  -15.5305 C   0  0  0  0  0  0  0  0  0  0  0  0
   16.5725  -14.5281  -16.4714 C   0  0  0  0  0  0  0  0  0  0  0  0
   15.3526  -15.4305  -16.3760 C   0  0  0  0  0  0  0  0  0  0  0  0
   15.4530  -16.4937  -17.3397 N   0  0  0  0  0  0  0  0  0  0  0  0
   17.8321   -9.9591  -15.5445 C   0  0  0  0  0  0  0  0  0  0  0  0
   19.0033   -9.7609  -15.9536 O   0  0  0  0  0  0  0  0  0  0  0  0
   15.9746   -6.9545  -16.7973 C   0  0  0  0  0  0  0  0  0  0  0  0
   17.2226   -7.6489  -16.3837 C   0  0  2  0  0  0  0  0  0  0  0  0
   16.8941   -8.9221  -15.8059 N   0  0  0  0  0  0  0  0  0  0  0  0
   18.1185   -6.8424  -15.5280 C   0  0  0  0  0  0  0  0  0  0  0  0
   17.7225   -6.4971  -14.3823 O   0  0  0  0  0  0  0  0  0  0  0  0
   21.9673   -4.0868  -13.3943 N   0  0  0  0  0  0  0  0  0  0  0  0
   22.0193   -5.4980  -13.3226 C   0  0  0  0  0  0  0  0  0  0  0  0
   22.8625   -6.0178  -12.5543 O   0  0  0  0  0  0  0  0  0  0  0  0
   21.1285   -6.3823  -14.1085 C   0  0  0  0  0  0  0  0  0  0  0  0
   20.2636   -5.6361  -15.0525 C   0  0  2  0  0  0  0  0  0  0  0  0
   19.4164   -6.4111  -15.8896 N   0  0  0  0  0  0  0  0  0  0  0  0
   21.1187   -4.7119  -15.8503 C   0  0  0  0  0  0  0  0  0  0  0  0
   21.2187   -4.7313  -17.2127 O   0  0  0  0  0  0  0  0  0  0  0  0
   21.7905   -3.8596  -15.2178 O   0  0  0  0  0  0  0  0  0  0  0  0
  2  1  1  6
  2  3  1  0
  4  3  1  0
  5  4  1  0
  5  6  1  0
  7  6  1  0
  8  2  1  0
  8  9  2  0
 11 10  1  1
 11 12  1  0
 12  8  1  0
 13 11  1  0
 14 13  2  0
 16 18  1  0
 16 15  1  0
 17 16  2  0
 19 18  1  6
 19 20  1  0
 19 21  1  0
 20 13  1  0
 21 22  1  0
 23 21  2  0
M  END
$$$$
