KAN.pdb
     RDKit          3D

 23 22  0  0  1  0  0  0  0  0999 V2000
   16.2999   -7.3842   -8.6920 N   0  0  0  0  0  0  0  0  0  0  0  0
   16.4235   -8.3414   -9.7747 C   0  0  1  0  0  0  0  0  0  0  0  0
   15.2532   -8.1853  -10.6886 C   0  0  0  0  0  0  0  0  0  0  0  0
   14.0129   -8.7538  -10.0479 C   0  0  0  0  0  0  0  0  0  0  0  0
   12.8021   -8.6754  -10.9185 C   0  0  0  0  0  0  0  0  0  0  0  0
   11.5540   -9.2447  -10.2628 C   0  0  0  0  0  0  0  0  0  0  0  0
   10.4169   -9.0505  -11.1222 N   0  0  0  0  0  0  0  0  0  0  0  0
   17.7051   -8.0722  -10.4702 C   0  0  0  0  0  0  0  0  0  0  0  0
   18.2540   -6.9441  -10.4014 O   0  0  0  0  0  0  0  0  0  0  0  0
   20.0205  -10.0747  -12.6518 C   0  0  0  0  0  0  0  0  0  0  0  0
   19.5923   -8.8162  -11.9860 C   0  0  2  0  0  0  0  0  0  0  0  0
   18.3842   -9.0522  -11.2460 N   0  0  0  0  0  0  0  0  0  0  0  0
   19.4968   -7.6477  -12.8864 C   0  0  0  0  0  0  0  0  0  0  0  0
   18.4555   -7.4933  -13.5797 O   0  0  0  0  0  0  0  0  0  0  0  0
   18.7591   -3.2385  -15.5214 N   0  0  0  0  0  0  0  0  0  0  0  0
   19.2208   -3.3043  -14.1864 C   0  0  0  0  0  0  0  0  0  0  0  0
   19.6255   -2.2458  -13.6506 O   0  0  0  0  0  0  0  0  0  0  0  0
   19.2467   -4.5585  -13.3993 C   0  0  0  0  0  0  0  0  0  0  0  0
   20.3360   -5.4746  -13.8118 C   0  0  2  0  0  0  0  0  0  0  0  0
   20.4969   -6.6598  -13.0446 N   0  0  0  0  0  0  0  0  0  0  0  0
   21.6062   -4.6983  -13.8864 C   0  0  0  0  0  0  0  0  0  0  0  0
   22.6846   -4.8974  -13.0716 O   0  0  0  0  0  0  0  0  0  0  0  0
   21.6814   -3.8007  -14.7618 O   0  0  0  0  0  0  0  0  0  0  0  0
  2  1  1  1
  2  3  1  0
  4  3  1  0
  5  4  1  0
  5  6  1  0
  7  6  1  0
  8  2  1  0
  8  9  2  0
 11 10  1  6
 11 12  1  0
 12  8  1  0
 13 11  1  0
 14 13  2  0
 16 18  1  0
 16 15  1  0
 17 16  2  0
 19 18  1  1
 19 20  1  0
 19 21  1  0
 20 13  1  0
 21 22  1  0
 23 21  2  0
M  END
$$$$
