KAN.pdb
     RDKit          3D

 23 22  0  0  1  0  0  0  0  0999 V2000
   24.0605  -21.7357  -12.0505 N   0  0  0  0  0  0  0  0  0  0  0  0
   24.4545  -20.5499  -11.3139 C   0  0  1  0  0  0  0  0  0  0  0  0
   24.3985  -20.8524   -9.8529 C   0  0  0  0  0  0  0  0  0  0  0  0
   23.0037  -21.2679   -9.4605 C   0  0  0  0  0  0  0  0  0  0  0  0
   22.8633  -21.5904   -8.0090 C   0  0  0  0  0  0  0  0  0  0  0  0
   21.4477  -21.9817   -7.6158 C   0  0  0  0  0  0  0  0  0  0  0  0
   21.4000  -22.3056   -6.2151 N   0  0  0  0  0  0  0  0  0  0  0  0
   25.8242  -20.1839  -11.7483 C   0  0  0  0  0  0  0  0  0  0  0  0
   26.4265  -19.2077  -11.2356 O   0  0  0  0  0  0  0  0  0  0  0  0
   28.5655  -21.5183  -13.8417 C   0  0  0  0  0  0  0  0  0  0  0  0
   27.6703  -20.3911  -13.4693 C   0  0  2  0  0  0  0  0  0  0  0  0
   26.5328  -20.8981  -12.7539 N   0  0  0  0  0  0  0  0  0  0  0  0
   27.2959  -19.5078  -14.5941 C   0  0  0  0  0  0  0  0  0  0  0  0
   28.0288  -18.5188  -14.8653 O   0  0  0  0  0  0  0  0  0  0  0  0
   27.2496  -19.0116  -20.2065 N   0  0  0  0  0  0  0  0  0  0  0  0
   26.8390  -18.5335  -18.9407 C   0  0  0  0  0  0  0  0  0  0  0  0
   26.2611  -17.4223  -18.8902 O   0  0  0  0  0  0  0  0  0  0  0  0
   27.0597  -19.2817  -17.6818 C   0  0  0  0  0  0  0  0  0  0  0  0
   25.9870  -19.0587  -16.6840 C   0  0  2  0  0  0  0  0  0  0  0  0
   26.1571  -19.6773  -15.4161 N   0  0  0  0  0  0  0  0  0  0  0  0
   24.6814  -19.4304  -17.2997 C   0  0  0  0  0  0  0  0  0  0  0  0
   23.8237  -18.5459  -17.8900 O   0  0  0  0  0  0  0  0  0  0  0  0
   24.3553  -20.6430  -17.2690 O   0  0  0  0  0  0  0  0  0  0  0  0
  2  1  1  6
  2  3  1  0
  4  3  1  0
  5  4  1  0
  5  6  1  0
  7  6  1  0
  8  2  1  0
  8  9  2  0
 11 10  1  6
 11 12  1  0
 12  8  1  0
 13 11  1  0
 14 13  2  0
 16 18  1  0
 16 15  1  0
 17 16  2  0
 19 18  1  6
 19 20  1  0
 19 21  1  0
 20 13  1  0
 21 22  1  0
 23 21  2  0
M  END
$$$$
