KAN.pdb
     RDKit          3D

 23 22  0  0  1  0  0  0  0  0999 V2000
   25.8914  -20.5452  -16.5710 N   0  0  0  0  0  0  0  0  0  0  0  0
   26.1390  -21.6764  -15.6976 C   0  0  1  0  0  0  0  0  0  0  0  0
   27.5558  -21.6199  -15.2299 C   0  0  0  0  0  0  0  0  0  0  0  0
   28.4863  -21.4659  -16.4056 C   0  0  0  0  0  0  0  0  0  0  0  0
   28.6774  -22.7259  -17.1843 C   0  0  0  0  0  0  0  0  0  0  0  0
   29.7009  -22.5915  -18.3006 C   0  0  0  0  0  0  0  0  0  0  0  0
   29.8253  -23.8400  -19.0042 N   0  0  0  0  0  0  0  0  0  0  0  0
   25.1823  -21.5914  -14.5678 C   0  0  0  0  0  0  0  0  0  0  0  0
   25.2298  -22.4109  -13.6167 O   0  0  0  0  0  0  0  0  0  0  0  0
   22.8249  -19.0661  -13.2422 C   0  0  0  0  0  0  0  0  0  0  0  0
   23.2104  -20.4907  -13.4221 C   0  0  2  0  0  0  0  0  0  0  0  0
   24.1678  -20.5976  -14.4874 N   0  0  0  0  0  0  0  0  0  0  0  0
   22.0709  -21.4196  -13.5770 C   0  0  0  0  0  0  0  0  0  0  0  0
   22.3010  -22.6486  -13.7367 O   0  0  0  0  0  0  0  0  0  0  0  0
   18.0257  -23.7471  -10.4109 N   0  0  0  0  0  0  0  0  0  0  0  0
   18.6807  -23.5768  -11.6524 C   0  0  0  0  0  0  0  0  0  0  0  0
   18.3396  -24.3174  -12.6045 O   0  0  0  0  0  0  0  0  0  0  0  0
   19.7434  -22.5698  -11.8761 C   0  0  0  0  0  0  0  0  0  0  0  0
   19.6420  -21.9100  -13.1991 C   0  0  2  0  0  0  0  0  0  0  0  0
   20.7074  -21.0427  -13.5622 N   0  0  0  0  0  0  0  0  0  0  0  0
   18.3244  -21.2184  -13.2847 C   0  0  0  0  0  0  0  0  0  0  0  0
   17.2311  -21.7130  -13.9379 O   0  0  0  0  0  0  0  0  0  0  0  0
   18.2213  -20.1042  -12.7142 O   0  0  0  0  0  0  0  0  0  0  0  0
  2  1  1  6
  2  3  1  0
  4  3  1  0
  5  4  1  0
  5  6  1  0
  7  6  1  0
  8  2  1  0
  8  9  2  0
 11 10  1  6
 11 12  1  0
 12  8  1  0
 13 11  1  0
 14 13  2  0
 16 18  1  0
 16 15  1  0
 17 16  2  0
 19 18  1  1
 19 20  1  0
 19 21  1  0
 20 13  1  0
 21 22  1  0
 23 21  2  0
M  END
$$$$
