KAN.pdb
     RDKit          3D

 23 22  0  0  1  0  0  0  0  0999 V2000
   20.0587  -12.3202  -16.9548 N   0  0  0  0  0  0  0  0  0  0  0  0
   19.0753  -11.2854  -16.6977 C   0  0  1  0  0  0  0  0  0  0  0  0
   17.8329  -11.9248  -16.1718 C   0  0  0  0  0  0  0  0  0  0  0  0
   17.2644  -12.8761  -17.1935 C   0  0  0  0  0  0  0  0  0  0  0  0
   17.3345  -14.3090  -16.7785 C   0  0  0  0  0  0  0  0  0  0  0  0
   16.6960  -15.2559  -17.7822 C   0  0  0  0  0  0  0  0  0  0  0  0
   16.8341  -16.6147  -17.3306 N   0  0  0  0  0  0  0  0  0  0  0  0
   19.6633  -10.3379  -15.7203 C   0  0  0  0  0  0  0  0  0  0  0  0
   18.9642   -9.4388  -15.1898 O   0  0  0  0  0  0  0  0  0  0  0  0
   23.0047   -9.9671  -14.0516 C   0  0  0  0  0  0  0  0  0  0  0  0
   21.6393   -9.4835  -14.3869 C   0  0  2  0  0  0  0  0  0  0  0  0
   21.0295  -10.3823  -15.3267 N   0  0  0  0  0  0  0  0  0  0  0  0
   21.5777   -8.0709  -14.8184 C   0  0  0  0  0  0  0  0  0  0  0  0
   21.8966   -7.7785  -16.0023 O   0  0  0  0  0  0  0  0  0  0  0  0
   19.3954   -2.8087  -15.6522 N   0  0  0  0  0  0  0  0  0  0  0  0
   20.1259   -3.4226  -14.6086 C   0  0  0  0  0  0  0  0  0  0  0  0
   20.9428   -2.7191  -13.9690 O   0  0  0  0  0  0  0  0  0  0  0  0
   19.9695   -4.8485  -14.2405 C   0  0  0  0  0  0  0  0  0  0  0  0
   21.2213   -5.6251  -14.4012 C   0  0  2  0  0  0  0  0  0  0  0  0
   21.1823   -6.9875  -13.9991 N   0  0  0  0  0  0  0  0  0  0  0  0
   22.3265   -4.8895  -13.7236 C   0  0  0  0  0  0  0  0  0  0  0  0
   22.7816   -5.1632  -12.4648 O   0  0  0  0  0  0  0  0  0  0  0  0
   22.8711   -3.9545  -14.3614 O   0  0  0  0  0  0  0  0  0  0  0  0
  2  1  1  1
  2  3  1  0
  4  3  1  0
  5  4  1  0
  5  6  1  0
  7  6  1  0
  8  2  1  0
  8  9  2  0
 11 10  1  6
 11 12  1  0
 12  8  1  0
 13 11  1  0
 14 13  2  0
 16 18  1  0
 16 15  1  0
 17 16  2  0
 19 18  1  1
 19 20  1  0
 19 21  1  0
 20 13  1  0
 21 22  1  0
 23 21  2  0
M  END
$$$$
