KAN.pdb
     RDKit          3D

 23 22  0  0  1  0  0  0  0  0999 V2000
   21.1589  -12.8148  -17.8548 N   0  0  0  0  0  0  0  0  0  0  0  0
   20.2048  -11.7538  -18.1152 C   0  0  1  0  0  0  0  0  0  0  0  0
   19.1224  -11.8198  -17.0890 C   0  0  0  0  0  0  0  0  0  0  0  0
   18.2805  -13.0523  -17.2991 C   0  0  0  0  0  0  0  0  0  0  0  0
   17.1141  -13.1434  -16.3709 C   0  0  0  0  0  0  0  0  0  0  0  0
   15.7765  -13.1942  -17.0919 C   0  0  0  0  0  0  0  0  0  0  0  0
   14.7049  -13.2473  -16.1336 N   0  0  0  0  0  0  0  0  0  0  0  0
   20.9374  -10.4656  -18.0608 C   0  0  0  0  0  0  0  0  0  0  0  0
   21.7172  -10.2045  -17.1110 O   0  0  0  0  0  0  0  0  0  0  0  0
   21.2369   -7.4803  -20.3220 C   0  0  0  0  0  0  0  0  0  0  0  0
   21.5174   -8.2114  -19.0581 C   0  0  2  0  0  0  0  0  0  0  0  0
   20.8086   -9.4606  -19.0591 N   0  0  0  0  0  0  0  0  0  0  0  0
   21.2901   -7.4216  -17.8293 C   0  0  0  0  0  0  0  0  0  0  0  0
   20.1334   -7.3872  -17.3296 O   0  0  0  0  0  0  0  0  0  0  0  0
   21.7303   -4.2933  -13.6662 N   0  0  0  0  0  0  0  0  0  0  0  0
   22.5144   -5.4673  -13.5854 C   0  0  0  0  0  0  0  0  0  0  0  0
   23.0253   -5.7589  -12.4785 O   0  0  0  0  0  0  0  0  0  0  0  0
   22.7564   -6.3608  -14.7414 C   0  0  0  0  0  0  0  0  0  0  0  0
   22.0433   -5.9249  -15.9650 C   0  0  2  0  0  0  0  0  0  0  0  0
   22.2816   -6.6801  -17.1449 N   0  0  0  0  0  0  0  0  0  0  0  0
   22.3160   -4.4757  -16.1825 C   0  0  0  0  0  0  0  0  0  0  0  0
   22.9553   -3.9634  -17.2758 O   0  0  0  0  0  0  0  0  0  0  0  0
   21.9278   -3.6776  -15.2937 O   0  0  0  0  0  0  0  0  0  0  0  0
  2  1  1  1
  2  3  1  0
  4  3  1  0
  5  4  1  0
  5  6  1  0
  7  6  1  0
  8  2  1  0
  8  9  2  0
 11 10  1  6
 11 12  1  0
 12  8  1  0
 13 11  1  0
 14 13  2  0
 16 18  1  0
 16 15  1  0
 17 16  2  0
 19 18  1  1
 19 20  1  0
 19 21  1  0
 20 13  1  0
 21 22  1  0
 23 21  2  0
M  END
$$$$
