KAN.pdb
     RDKit          3D

 23 22  0  0  1  0  0  0  0  0999 V2000
   22.6105  -16.8215  -16.2778 N   0  0  0  0  0  0  0  0  0  0  0  0
   21.5798  -16.0037  -16.8882 C   0  0  1  0  0  0  0  0  0  0  0  0
   20.2449  -16.5080  -16.4490 C   0  0  0  0  0  0  0  0  0  0  0  0
   20.3492  -17.9481  -16.0163 C   0  0  0  0  0  0  0  0  0  0  0  0
   21.2082  -18.7794  -16.9115 C   0  0  0  0  0  0  0  0  0  0  0  0
   21.2467  -20.2462  -16.5130 C   0  0  0  0  0  0  0  0  0  0  0  0
   22.0048  -20.9965  -17.4781 N   0  0  0  0  0  0  0  0  0  0  0  0
   21.8061  -14.6014  -16.4624 C   0  0  0  0  0  0  0  0  0  0  0  0
   20.9945  -13.6929  -16.7698 O   0  0  0  0  0  0  0  0  0  0  0  0
   23.5058  -12.7782  -13.8630 C   0  0  0  0  0  0  0  0  0  0  0  0
   23.2287  -12.8439  -15.3223 C   0  0  2  0  0  0  0  0  0  0  0  0
   22.9336  -14.1994  -15.6940 N   0  0  0  0  0  0  0  0  0  0  0  0
   24.2691  -12.2274  -16.1725 C   0  0  0  0  0  0  0  0  0  0  0  0
   24.5465  -11.0082  -16.0126 O   0  0  0  0  0  0  0  0  0  0  0  0
   28.1955  -13.5455  -15.5829 N   0  0  0  0  0  0  0  0  0  0  0  0
   27.9025  -12.5010  -16.4899 C   0  0  0  0  0  0  0  0  0  0  0  0
   28.1041  -11.3220  -16.1151 O   0  0  0  0  0  0  0  0  0  0  0  0
   27.3726  -12.7366  -17.8526 C   0  0  0  0  0  0  0  0  0  0  0  0
   25.9712  -12.2821  -18.0118 C   0  0  2  0  0  0  0  0  0  0  0  0
   25.0016  -12.9014  -17.1778 N   0  0  0  0  0  0  0  0  0  0  0  0
   25.5982  -12.3886  -19.4510 C   0  0  0  0  0  0  0  0  0  0  0  0
   26.2879  -11.8037  -20.4751 O   0  0  0  0  0  0  0  0  0  0  0  0
   24.5777  -13.0646  -19.7324 O   0  0  0  0  0  0  0  0  0  0  0  0
  2  1  1  1
  2  3  1  0
  4  3  1  0
  5  4  1  0
  5  6  1  0
  7  6  1  0
  8  2  1  0
  8  9  2  0
 11 10  1  1
 11 12  1  0
 12  8  1  0
 13 11  1  0
 14 13  2  0
 16 18  1  0
 16 15  1  0
 17 16  2  0
 19 18  1  6
 19 20  1  0
 19 21  1  0
 20 13  1  0
 21 22  1  0
 23 21  2  0
M  END
$$$$
