KAN.pdb
     RDKit          3D

 23 22  0  0  1  0  0  0  0  0999 V2000
   29.9572  -24.7513  -15.8731 N   0  0  0  0  0  0  0  0  0  0  0  0
   29.2106  -24.0231  -16.8811 C   0  0  1  0  0  0  0  0  0  0  0  0
   28.0319  -24.8431  -17.2902 C   0  0  0  0  0  0  0  0  0  0  0  0
   28.4889  -26.1163  -17.9549 C   0  0  0  0  0  0  0  0  0  0  0  0
   28.1160  -27.3502  -17.2008 C   0  0  0  0  0  0  0  0  0  0  0  0
   28.5607  -28.6310  -17.8889 C   0  0  0  0  0  0  0  0  0  0  0  0
   28.1579  -29.7712  -17.1098 N   0  0  0  0  0  0  0  0  0  0  0  0
   28.8010  -22.7265  -16.2896 C   0  0  0  0  0  0  0  0  0  0  0  0
   28.6615  -22.5973  -15.0477 O   0  0  0  0  0  0  0  0  0  0  0  0
   28.7999  -19.2330  -17.5038 C   0  0  0  0  0  0  0  0  0  0  0  0
   28.3150  -20.2537  -16.5375 C   0  0  2  0  0  0  0  0  0  0  0  0
   28.5435  -21.5670  -17.0722 N   0  0  0  0  0  0  0  0  0  0  0  0
   26.9239  -20.0527  -16.0795 C   0  0  0  0  0  0  0  0  0  0  0  0
   26.6392  -19.0128  -15.4265 O   0  0  0  0  0  0  0  0  0  0  0  0
   22.3895  -20.7861  -14.1213 N   0  0  0  0  0  0  0  0  0  0  0  0
   23.1354  -19.5925  -14.2574 C   0  0  0  0  0  0  0  0  0  0  0  0
   22.8543  -18.6332  -13.5011 O   0  0  0  0  0  0  0  0  0  0  0  0
   24.2257  -19.4271  -15.2459 C   0  0  0  0  0  0  0  0  0  0  0  0
   24.4933  -20.6621  -16.0199 C   0  0  2  0  0  0  0  0  0  0  0  0
   25.8538  -20.9477  -16.3142 N   0  0  0  0  0  0  0  0  0  0  0  0
   23.6630  -20.6357  -17.2576 C   0  0  0  0  0  0  0  0  0  0  0  0
   24.1293  -20.2958  -18.4959 O   0  0  0  0  0  0  0  0  0  0  0  0
   22.4519  -20.9489  -17.1447 O   0  0  0  0  0  0  0  0  0  0  0  0
  2  1  1  1
  2  3  1  0
  4  3  1  0
  5  4  1  0
  5  6  1  0
  7  6  1  0
  8  2  1  0
  8  9  2  0
 11 10  1  6
 11 12  1  0
 12  8  1  0
 13 11  1  0
 14 13  2  0
 16 18  1  0
 16 15  1  0
 17 16  2  0
 19 18  1  6
 19 20  1  0
 19 21  1  0
 20 13  1  0
 21 22  1  0
 23 21  2  0
M  END
$$$$
