KAN.pdb
     RDKit          3D

 23 22  0  0  1  0  0  0  0  0999 V2000
   18.4754  -13.5928  -16.3503 N   0  0  0  0  0  0  0  0  0  0  0  0
   17.6114  -12.4335  -16.2350 C   0  0  1  0  0  0  0  0  0  0  0  0
   17.0738  -12.3727  -14.8435 C   0  0  0  0  0  0  0  0  0  0  0  0
   16.1627  -13.5454  -14.5857 C   0  0  0  0  0  0  0  0  0  0  0  0
   14.7721  -13.3431  -15.0912 C   0  0  0  0  0  0  0  0  0  0  0  0
   13.8650  -14.5384  -14.8459 C   0  0  0  0  0  0  0  0  0  0  0  0
   12.5537  -14.2753  -15.3756 N   0  0  0  0  0  0  0  0  0  0  0  0
   18.4190  -11.2348  -16.5664 C   0  0  0  0  0  0  0  0  0  0  0  0
   19.6201  -11.1450  -16.2090 O   0  0  0  0  0  0  0  0  0  0  0  0
   17.9498   -8.2413  -18.7550 C   0  0  0  0  0  0  0  0  0  0  0  0
   18.6533   -8.9642  -17.6627 C   0  0  2  0  0  0  0  0  0  0  0  0
   17.8986  -10.1296  -17.2950 N   0  0  0  0  0  0  0  0  0  0  0  0
   19.0133   -8.1220  -16.5023 C   0  0  0  0  0  0  0  0  0  0  0  0
   18.2482   -8.1011  -15.5008 O   0  0  0  0  0  0  0  0  0  0  0  0
   21.0990   -4.8410  -13.0746 N   0  0  0  0  0  0  0  0  0  0  0  0
   22.1218   -5.1905  -13.9862 C   0  0  0  0  0  0  0  0  0  0  0  0
   23.2751   -4.7466  -13.7756 O   0  0  0  0  0  0  0  0  0  0  0  0
   21.8928   -6.0512  -15.1695 C   0  0  0  0  0  0  0  0  0  0  0  0
   20.4811   -6.4811  -15.3040 C   0  0  2  0  0  0  0  0  0  0  0  0
   20.1714   -7.3145  -16.4125 N   0  0  0  0  0  0  0  0  0  0  0  0
   19.6115   -5.2708  -15.2738 C   0  0  0  0  0  0  0  0  0  0  0  0
   18.9882   -4.7927  -14.1560 O   0  0  0  0  0  0  0  0  0  0  0  0
   19.4458   -4.6543  -16.3555 O   0  0  0  0  0  0  0  0  0  0  0  0
  2  1  1  1
  2  3  1  0
  4  3  1  0
  5  4  1  0
  5  6  1  0
  7  6  1  0
  8  2  1  0
  8  9  2  0
 11 10  1  6
 11 12  1  0
 12  8  1  0
 13 11  1  0
 14 13  2  0
 16 18  1  0
 16 15  1  0
 17 16  2  0
 19 18  1  6
 19 20  1  0
 19 21  1  0
 20 13  1  0
 21 22  1  0
 23 21  2  0
M  END
$$$$
