KAN.pdb
     RDKit          3D

 23 22  0  0  1  0  0  0  0  0999 V2000
   21.6064  -16.5130  -15.5815 N   0  0  0  0  0  0  0  0  0  0  0  0
   21.4887  -15.3298  -16.4122 C   0  0  1  0  0  0  0  0  0  0  0  0
   20.1418  -15.3283  -17.0563 C   0  0  0  0  0  0  0  0  0  0  0  0
   19.9534  -16.5817  -17.8721 C   0  0  0  0  0  0  0  0  0  0  0  0
   18.6072  -16.6811  -18.5110 C   0  0  0  0  0  0  0  0  0  0  0  0
   18.4272  -17.9449  -19.3368 C   0  0  0  0  0  0  0  0  0  0  0  0
   17.0767  -18.0224  -19.8262 N   0  0  0  0  0  0  0  0  0  0  0  0
   21.6838  -14.1460  -15.5407 C   0  0  0  0  0  0  0  0  0  0  0  0
   20.8657  -13.8735  -14.6270 O   0  0  0  0  0  0  0  0  0  0  0  0
   24.4356  -12.0528  -14.4427 C   0  0  0  0  0  0  0  0  0  0  0  0
   23.0097  -12.0984  -14.8614 C   0  0  2  0  0  0  0  0  0  0  0  0
   22.7867  -13.2583  -15.6785 N   0  0  0  0  0  0  0  0  0  0  0  0
   22.5128  -10.8524  -15.4828 C   0  0  0  0  0  0  0  0  0  0  0  0
   22.4007  -10.7970  -16.7371 O   0  0  0  0  0  0  0  0  0  0  0  0
   18.0325   -9.4296  -16.0144 N   0  0  0  0  0  0  0  0  0  0  0  0
   19.2697   -9.0805  -15.4253 C   0  0  0  0  0  0  0  0  0  0  0  0
   19.3758   -9.1736  -14.1798 O   0  0  0  0  0  0  0  0  0  0  0  0
   20.4366   -8.6136  -16.2087 C   0  0  0  0  0  0  0  0  0  0  0  0
   21.6675   -8.4944  -15.3923 C   0  0  2  0  0  0  0  0  0  0  0  0
   22.1418   -9.6841  -14.7767 N   0  0  0  0  0  0  0  0  0  0  0  0
   21.4707   -7.4061  -14.3930 C   0  0  0  0  0  0  0  0  0  0  0  0
   21.2014   -6.1044  -14.7084 O   0  0  0  0  0  0  0  0  0  0  0  0
   21.5607   -7.7164  -13.1792 O   0  0  0  0  0  0  0  0  0  0  0  0
  2  1  1  1
  2  3  1  0
  4  3  1  0
  5  4  1  0
  5  6  1  0
  7  6  1  0
  8  2  1  0
  8  9  2  0
 11 10  1  6
 11 12  1  0
 12  8  1  0
 13 11  1  0
 14 13  2  0
 16 18  1  0
 16 15  1  0
 17 16  2  0
 19 18  1  1
 19 20  1  0
 19 21  1  0
 20 13  1  0
 21 22  1  0
 23 21  2  0
M  END
$$$$
