EMK.pdb
     RDKit          3D

 27 26  0  0  1  0  0  0  0  0999 V2000
    8.7191  -18.0939   20.4671 N   0  0  0  0  0  0  0  0  0  0  0  0
   10.0679  -17.5251   20.5293 C   0  0  1  0  0  0  0  0  0  0  0  0
   10.4521  -16.9273   19.1954 C   0  0  0  0  0  0  0  0  0  0  0  0
    9.4528  -17.2458   18.0988 C   0  0  0  0  0  0  0  0  0  0  0  0
    9.8024  -16.6122   16.8305 C   0  0  0  0  0  0  0  0  0  0  0  0
   10.8776  -15.9906   16.7085 O   0  0  0  0  0  0  0  0  0  0  0  0
   10.0793  -16.5136   21.6254 C   0  0  0  0  0  0  0  0  0  0  0  0
   11.0855  -15.7737   21.8118 O   0  0  0  0  0  0  0  0  0  0  0  0
    8.9430  -16.6918   15.7484 O   0  0  0  0  0  0  0  0  0  0  0  0
    7.1504  -11.5214   26.3127 C   0  0  0  0  0  0  0  0  0  0  0  0
    7.3640  -13.2866   26.0019 S   0  0  0  0  0  0  0  0  0  0  0  0
    7.3773  -13.6457   24.2247 C   0  0  0  0  0  0  0  0  0  0  0  0
    7.5285  -15.1376   23.9907 C   0  0  0  0  0  0  0  0  0  0  0  0
    8.9838  -15.4728   23.6264 C   0  0  2  0  0  0  0  0  0  0  0  0
    8.9563  -16.3549   22.4898 N   0  0  0  0  0  0  0  0  0  0  0  0
    9.7001  -16.0316   24.7795 C   0  0  0  0  0  0  0  0  0  0  0  0
    9.3382  -17.1578   25.2118 O   0  0  0  0  0  0  0  0  0  0  0  0
   10.7675  -15.3314   25.3924 N   0  0  0  0  0  0  0  0  0  0  0  0
   11.5428  -15.9000   26.5133 C   0  0  1  0  0  0  0  0  0  0  0  0
   10.7776  -15.7581   27.7729 C   0  0  0  0  0  0  0  0  0  0  0  0
   11.2970  -16.4566   28.9638 C   0  0  0  0  0  0  0  0  0  0  0  0
   10.5420  -16.3819   30.2408 C   0  0  0  0  0  0  0  0  0  0  0  0
   11.1432  -17.1351   31.3905 C   0  0  0  0  0  0  0  0  0  0  0  0
   10.5187  -16.9708   32.6588 N   0  0  0  0  0  0  0  0  0  0  0  0
   11.9558  -17.2278   26.1298 C   0  0  0  0  0  0  0  0  0  0  0  0
   13.0709  -17.7316   26.5674 O   0  0  0  0  0  0  0  0  0  0  0  0
   11.2729  -18.1074   25.3027 O   0  0  0  0  0  0  0  0  0  0  0  0
  2  1  1  6
  2  3  1  0
  4  3  1  0
  5  4  1  0
  6  5  2  0
  7  2  1  0
  7  8  2  0
  9  5  1  0
 11 10  1  0
 12 11  1  0
 12 13  1  0
 14 13  1  1
 14 15  1  0
 15  7  1  0
 16 14  1  0
 17 16  2  0
 18 16  1  0
 19 25  1  0
 19 18  1  0
 20 21  1  0
 19 20  1  1
 21 22  1  0
 22 23  1  0
 23 24  1  0
 25 27  1  0
 26 25  2  0
M  END
$$$$
