EMK.pdb
     RDKit          3D

 27 26  0  0  1  0  0  0  0  0999 V2000
    8.4839  -15.7408   19.8584 N   0  0  0  0  0  0  0  0  0  0  0  0
    8.6829  -16.7054   20.9432 C   0  0  1  0  0  0  0  0  0  0  0  0
    9.7461  -17.7119   20.5680 C   0  0  0  0  0  0  0  0  0  0  0  0
    9.4814  -18.3750   19.2290 C   0  0  0  0  0  0  0  0  0  0  0  0
   10.4838  -19.3859   18.9043 C   0  0  0  0  0  0  0  0  0  0  0  0
   10.3801  -20.5466   19.3508 O   0  0  0  0  0  0  0  0  0  0  0  0
    9.0421  -15.9355   22.1693 C   0  0  0  0  0  0  0  0  0  0  0  0
   10.2497  -15.7791   22.5037 O   0  0  0  0  0  0  0  0  0  0  0  0
   11.5632  -19.0673   18.0985 O   0  0  0  0  0  0  0  0  0  0  0  0
    6.2065  -11.1629   27.8667 C   0  0  0  0  0  0  0  0  0  0  0  0
    5.8850  -12.1896   26.4174 S   0  0  0  0  0  0  0  0  0  0  0  0
    7.3717  -13.0938   25.9077 C   0  0  0  0  0  0  0  0  0  0  0  0
    7.1324  -13.7955   24.5834 C   0  0  0  0  0  0  0  0  0  0  0  0
    8.3484  -14.6600   24.2136 C   0  0  2  0  0  0  0  0  0  0  0  0
    8.0335  -15.3562   22.9943 N   0  0  0  0  0  0  0  0  0  0  0  0
    8.7131  -15.5561   25.3178 C   0  0  0  0  0  0  0  0  0  0  0  0
    7.9636  -16.5404   25.5530 O   0  0  0  0  0  0  0  0  0  0  0  0
    9.8717  -15.3271   26.0992 N   0  0  0  0  0  0  0  0  0  0  0  0
   10.2920  -16.2479   27.1743 C   0  0  1  0  0  0  0  0  0  0  0  0
   11.4741  -17.0234   26.7344 C   0  0  0  0  0  0  0  0  0  0  0  0
   11.6819  -18.3487   27.3479 C   0  0  0  0  0  0  0  0  0  0  0  0
   12.7854  -19.2143   26.8587 C   0  0  0  0  0  0  0  0  0  0  0  0
   13.0259  -20.4637   27.6535 C   0  0  0  0  0  0  0  0  0  0  0  0
   13.9790  -21.3814   27.1292 N   0  0  0  0  0  0  0  0  0  0  0  0
   10.4140  -15.4768   28.3873 C   0  0  0  0  0  0  0  0  0  0  0  0
   10.5062  -14.1812   28.3472 O   0  0  0  0  0  0  0  0  0  0  0  0
   10.4420  -15.9637   29.6858 O   0  0  0  0  0  0  0  0  0  0  0  0
  2  1  1  6
  2  3  1  0
  4  3  1  0
  5  4  1  0
  6  5  2  0
  7  2  1  0
  7  8  2  0
  9  5  1  0
 11 10  1  0
 12 11  1  0
 12 13  1  0
 14 13  1  1
 14 15  1  0
 15  7  1  0
 16 14  1  0
 17 16  2  0
 18 16  1  0
 19 25  1  0
 19 18  1  0
 20 21  1  0
 19 20  1  6
 21 22  1  0
 22 23  1  0
 23 24  1  0
 25 27  1  0
 26 25  2  0
M  END
$$$$
