EMK.pdb
     RDKit          3D

 27 26  0  0  1  0  0  0  0  0999 V2000
    8.0437  -16.8405   21.0579 N   0  0  0  0  0  0  0  0  0  0  0  0
    9.4654  -16.9158   21.4039 C   0  0  1  0  0  0  0  0  0  0  0  0
   10.3207  -16.5826   20.2032 C   0  0  0  0  0  0  0  0  0  0  0  0
    9.5875  -16.7724   18.8883 C   0  0  0  0  0  0  0  0  0  0  0  0
   10.4393  -16.4962   17.7349 C   0  0  0  0  0  0  0  0  0  0  0  0
   11.6489  -16.2316   17.8901 O   0  0  0  0  0  0  0  0  0  0  0  0
    9.7014  -15.9809   22.5420 C   0  0  0  0  0  0  0  0  0  0  0  0
   10.8693  -15.5993   22.8336 O   0  0  0  0  0  0  0  0  0  0  0  0
    9.9137  -16.5225   16.4547 O   0  0  0  0  0  0  0  0  0  0  0  0
    7.0432  -11.2441   25.3884 C   0  0  0  0  0  0  0  0  0  0  0  0
    6.8638  -12.2937   26.8459 S   0  0  0  0  0  0  0  0  0  0  0  0
    7.6138  -13.9231   26.5806 C   0  0  0  0  0  0  0  0  0  0  0  0
    7.5313  -14.3077   25.1147 C   0  0  0  0  0  0  0  0  0  0  0  0
    8.7846  -15.0961   24.7016 C   0  0  2  0  0  0  0  0  0  0  0  0
    8.6166  -15.4934   23.3288 N   0  0  0  0  0  0  0  0  0  0  0  0
    9.0195  -16.2254   25.6097 C   0  0  0  0  0  0  0  0  0  0  0  0
    8.1754  -17.1600   25.6223 O   0  0  0  0  0  0  0  0  0  0  0  0
   10.1592  -16.2698   26.4490 N   0  0  0  0  0  0  0  0  0  0  0  0
   10.5087  -17.4660   27.2413 C   0  0  1  0  0  0  0  0  0  0  0  0
   11.6516  -18.1658   26.6119 C   0  0  0  0  0  0  0  0  0  0  0  0
   12.1619  -19.3740   27.2872 C   0  0  0  0  0  0  0  0  0  0  0  0
   13.3367  -20.0852   26.7213 C   0  0  0  0  0  0  0  0  0  0  0  0
   13.8462  -21.2380   27.5349 C   0  0  0  0  0  0  0  0  0  0  0  0
   15.0477  -21.8551   27.0868 N   0  0  0  0  0  0  0  0  0  0  0  0
   10.6545  -17.0527   28.6155 C   0  0  0  0  0  0  0  0  0  0  0  0
   10.7933  -17.9298   29.5643 O   0  0  0  0  0  0  0  0  0  0  0  0
   10.6749  -15.7523   29.0977 O   0  0  0  0  0  0  0  0  0  0  0  0
  2  1  1  6
  2  3  1  0
  4  3  1  0
  5  4  1  0
  6  5  2  0
  7  2  1  0
  7  8  2  0
  9  5  1  0
 11 10  1  0
 12 11  1  0
 12 13  1  0
 14 13  1  1
 14 15  1  0
 15  7  1  0
 16 14  1  0
 17 16  2  0
 18 16  1  0
 19 25  1  0
 19 18  1  0
 20 21  1  0
 19 20  1  6
 21 22  1  0
 22 23  1  0
 23 24  1  0
 25 27  1  0
 26 25  2  0
M  END
$$$$
