EMK.pdb
     RDKit          3D

 27 26  0  0  1  0  0  0  0  0999 V2000
    8.9171  -15.7417   19.4868 N   0  0  0  0  0  0  0  0  0  0  0  0
    7.8341  -15.8852   20.4631 C   0  0  1  0  0  0  0  0  0  0  0  0
    7.2532  -17.2794   20.4078 C   0  0  0  0  0  0  0  0  0  0  0  0
    8.3100  -18.3489   20.2031 C   0  0  0  0  0  0  0  0  0  0  0  0
    7.7370  -19.6911   20.1553 C   0  0  0  0  0  0  0  0  0  0  0  0
    7.2134  -20.1925   21.1711 O   0  0  0  0  0  0  0  0  0  0  0  0
    8.3939  -15.5599   21.8068 C   0  0  0  0  0  0  0  0  0  0  0  0
    9.6094  -15.7782   22.0709 O   0  0  0  0  0  0  0  0  0  0  0  0
    7.7701  -20.4246   18.9820 O   0  0  0  0  0  0  0  0  0  0  0  0
    5.6651  -11.1770   26.6942 C   0  0  0  0  0  0  0  0  0  0  0  0
    7.3794  -11.6982   26.4760 S   0  0  0  0  0  0  0  0  0  0  0  0
    7.4994  -13.4945   26.2609 C   0  0  0  0  0  0  0  0  0  0  0  0
    7.0002  -13.8939   24.8844 C   0  0  0  0  0  0  0  0  0  0  0  0
    8.0820  -14.6914   24.1383 C   0  0  2  0  0  0  0  0  0  0  0  0
    7.5733  -14.9943   22.8268 N   0  0  0  0  0  0  0  0  0  0  0  0
    8.4765  -15.8833   24.8991 C   0  0  0  0  0  0  0  0  0  0  0  0
    7.6122  -16.7807   25.0828 O   0  0  0  0  0  0  0  0  0  0  0  0
    9.7880  -16.0270   25.4136 N   0  0  0  0  0  0  0  0  0  0  0  0
   10.2187  -17.2332   26.1485 C   0  0  1  0  0  0  0  0  0  0  0  0
   11.5071  -17.7175   25.6027 C   0  0  0  0  0  0  0  0  0  0  0  0
   11.4826  -18.3577   24.2740 C   0  0  0  0  0  0  0  0  0  0  0  0
   12.6583  -18.2214   23.3765 C   0  0  0  0  0  0  0  0  0  0  0  0
   12.5391  -18.9089   22.0485 C   0  0  0  0  0  0  0  0  0  0  0  0
   13.6419  -18.7763   21.1588 N   0  0  0  0  0  0  0  0  0  0  0  0
   10.1632  -16.9296   27.5575 C   0  0  0  0  0  0  0  0  0  0  0  0
   10.0046  -15.7076   27.9704 O   0  0  0  0  0  0  0  0  0  0  0  0
   10.2564  -17.8295   28.6089 O   0  0  0  0  0  0  0  0  0  0  0  0
  2  1  1  6
  2  3  1  0
  4  3  1  0
  5  4  1  0
  6  5  2  0
  7  2  1  0
  7  8  2  0
  9  5  1  0
 11 10  1  0
 12 11  1  0
 12 13  1  0
 14 13  1  1
 14 15  1  0
 15  7  1  0
 16 14  1  0
 17 16  2  0
 18 16  1  0
 19 25  1  0
 19 18  1  0
 20 21  1  0
 19 20  1  6
 21 22  1  0
 22 23  1  0
 23 24  1  0
 25 27  1  0
 26 25  2  0
M  END
$$$$
