EMK.pdb
     RDKit          3D

 27 26  0  0  1  0  0  0  0  0999 V2000
    7.9371  -17.1008   21.3278 N   0  0  0  0  0  0  0  0  0  0  0  0
    9.2805  -17.4715   21.7800 C   0  0  1  0  0  0  0  0  0  0  0  0
   10.2748  -17.3390   20.6495 C   0  0  0  0  0  0  0  0  0  0  0  0
    9.8257  -16.3564   19.5839 C   0  0  0  0  0  0  0  0  0  0  0  0
   10.8327  -16.1706   18.5429 C   0  0  0  0  0  0  0  0  0  0  0  0
   11.2407  -15.0273   18.2536 O   0  0  0  0  0  0  0  0  0  0  0  0
    9.6228  -16.5960   22.9382 C   0  0  0  0  0  0  0  0  0  0  0  0
   10.8241  -16.4300   23.2903 O   0  0  0  0  0  0  0  0  0  0  0  0
   11.3450  -17.2616   17.8624 O   0  0  0  0  0  0  0  0  0  0  0  0
    6.9736  -11.0645   25.3764 C   0  0  0  0  0  0  0  0  0  0  0  0
    6.7845  -12.2302   26.7415 S   0  0  0  0  0  0  0  0  0  0  0  0
    7.9123  -13.6390   26.5656 C   0  0  0  0  0  0  0  0  0  0  0  0
    7.7277  -14.2945   25.2092 C   0  0  0  0  0  0  0  0  0  0  0  0
    8.8684  -15.2893   24.9409 C   0  0  2  0  0  0  0  0  0  0  0  0
    8.6046  -15.9239   23.6766 N   0  0  0  0  0  0  0  0  0  0  0  0
    9.0104  -16.2397   26.0507 C   0  0  0  0  0  0  0  0  0  0  0  0
    8.0052  -16.9261   26.3740 O   0  0  0  0  0  0  0  0  0  0  0  0
   10.2379  -16.3862   26.7414 N   0  0  0  0  0  0  0  0  0  0  0  0
   10.4090  -17.3471   27.8496 C   0  0  1  0  0  0  0  0  0  0  0  0
   11.4651  -18.3256   27.5039 C   0  0  0  0  0  0  0  0  0  0  0  0
   11.2605  -19.1448   26.2944 C   0  0  0  0  0  0  0  0  0  0  0  0
   12.3460  -20.0471   25.8320 C   0  0  0  0  0  0  0  0  0  0  0  0
   12.0221  -20.8816   24.6281 C   0  0  0  0  0  0  0  0  0  0  0  0
   12.0702  -22.2938   24.7975 N   0  0  0  0  0  0  0  0  0  0  0  0
   10.5752  -16.5878   29.0647 C   0  0  0  0  0  0  0  0  0  0  0  0
   10.8440  -15.3169   29.0252 O   0  0  0  0  0  0  0  0  0  0  0  0
   10.4736  -17.0612   30.3645 O   0  0  0  0  0  0  0  0  0  0  0  0
  2  1  1  6
  2  3  1  0
  4  3  1  0
  5  4  1  0
  6  5  2  0
  7  2  1  0
  7  8  2  0
  9  5  1  0
 11 10  1  0
 12 11  1  0
 12 13  1  0
 14 13  1  1
 14 15  1  0
 15  7  1  0
 16 14  1  0
 17 16  2  0
 18 16  1  0
 19 25  1  0
 19 18  1  0
 20 21  1  0
 19 20  1  6
 21 22  1  0
 22 23  1  0
 23 24  1  0
 25 27  1  0
 26 25  2  0
M  END
$$$$
