EMK.pdb
     RDKit          3D

 27 26  0  0  1  0  0  0  0  0999 V2000
    8.3157  -15.1503   19.0183 N   0  0  0  0  0  0  0  0  0  0  0  0
    7.3343  -15.4270   20.0705 C   0  0  1  0  0  0  0  0  0  0  0  0
    6.8368  -16.8506   19.9690 C   0  0  0  0  0  0  0  0  0  0  0  0
    7.9579  -17.8514   19.7589 C   0  0  0  0  0  0  0  0  0  0  0  0
    8.1325  -18.1994   18.3516 C   0  0  0  0  0  0  0  0  0  0  0  0
    7.2242  -18.7838   17.7265 O   0  0  0  0  0  0  0  0  0  0  0  0
    7.9902  -15.1504   21.3813 C   0  0  0  0  0  0  0  0  0  0  0  0
    9.1838  -15.5033   21.5941 O   0  0  0  0  0  0  0  0  0  0  0  0
    9.3099  -17.8867   17.6944 O   0  0  0  0  0  0  0  0  0  0  0  0
    7.0596  -11.5494   28.4316 C   0  0  0  0  0  0  0  0  0  0  0  0
    6.3647  -11.9886   26.8247 S   0  0  0  0  0  0  0  0  0  0  0  0
    7.5041  -13.0340   25.8778 C   0  0  0  0  0  0  0  0  0  0  0  0
    6.9266  -13.3339   24.5067 C   0  0  0  0  0  0  0  0  0  0  0  0
    7.8800  -14.2451   23.7170 C   0  0  2  0  0  0  0  0  0  0  0  0
    7.2884  -14.4809   22.4266 N   0  0  0  0  0  0  0  0  0  0  0  0
    8.1661  -15.4784   24.4602 C   0  0  0  0  0  0  0  0  0  0  0  0
    7.2674  -16.3591   24.5132 O   0  0  0  0  0  0  0  0  0  0  0  0
    9.4132  -15.6791   25.1003 N   0  0  0  0  0  0  0  0  0  0  0  0
    9.7836  -16.9681   25.7183 C   0  0  1  0  0  0  0  0  0  0  0  0
   10.8259  -17.6321   24.9029 C   0  0  0  0  0  0  0  0  0  0  0  0
   11.4036  -18.8832   25.4292 C   0  0  0  0  0  0  0  0  0  0  0  0
   12.4942  -19.5560   24.6781 C   0  0  0  0  0  0  0  0  0  0  0  0
   12.9876  -20.8425   25.2714 C   0  0  0  0  0  0  0  0  0  0  0  0
   14.0480  -21.4979   24.5849 N   0  0  0  0  0  0  0  0  0  0  0  0
   10.0825  -16.7171   27.1070 C   0  0  0  0  0  0  0  0  0  0  0  0
   10.3599  -17.6951   27.9165 O   0  0  0  0  0  0  0  0  0  0  0  0
   10.1238  -15.4844   27.7416 O   0  0  0  0  0  0  0  0  0  0  0  0
  2  1  1  6
  2  3  1  0
  4  3  1  0
  5  4  1  0
  6  5  2  0
  7  2  1  0
  7  8  2  0
  9  5  1  0
 11 10  1  0
 12 11  1  0
 12 13  1  0
 14 13  1  1
 14 15  1  0
 15  7  1  0
 16 14  1  0
 17 16  2  0
 18 16  1  0
 19 25  1  0
 19 18  1  0
 20 21  1  0
 19 20  1  6
 21 22  1  0
 22 23  1  0
 23 24  1  0
 25 27  1  0
 26 25  2  0
M  END
$$$$
