EMK.pdb
     RDKit          3D

 27 26  0  0  1  0  0  0  0  0999 V2000
    9.3979  -15.9331   19.6367 N   0  0  0  0  0  0  0  0  0  0  0  0
    8.2476  -15.8664   20.5416 C   0  0  1  0  0  0  0  0  0  0  0  0
    7.4702  -17.1621   20.5057 C   0  0  0  0  0  0  0  0  0  0  0  0
    8.3671  -18.3837   20.4295 C   0  0  0  0  0  0  0  0  0  0  0  0
    8.0047  -19.3985   21.4149 C   0  0  0  0  0  0  0  0  0  0  0  0
    8.2235  -19.2088   22.6288 O   0  0  0  0  0  0  0  0  0  0  0  0
    8.7656  -15.5567   21.9056 C   0  0  0  0  0  0  0  0  0  0  0  0
    9.9092  -15.9514   22.2678 O   0  0  0  0  0  0  0  0  0  0  0  0
    7.4158  -20.5850   21.0133 O   0  0  0  0  0  0  0  0  0  0  0  0
    5.3999  -11.9958   26.8726 C   0  0  0  0  0  0  0  0  0  0  0  0
    7.1068  -11.4604   26.6316 S   0  0  0  0  0  0  0  0  0  0  0  0
    8.1385  -12.8121   26.0023 C   0  0  0  0  0  0  0  0  0  0  0  0
    7.5975  -13.3130   24.6757 C   0  0  0  0  0  0  0  0  0  0  0  0
    8.4809  -14.4500   24.1376 C   0  0  2  0  0  0  0  0  0  0  0  0
    7.9853  -14.8076   22.8348 N   0  0  0  0  0  0  0  0  0  0  0  0
    8.5173  -15.5781   25.0762 C   0  0  0  0  0  0  0  0  0  0  0  0
    7.4894  -16.2992   25.1747 O   0  0  0  0  0  0  0  0  0  0  0  0
    9.6702  -15.8539   25.8508 N   0  0  0  0  0  0  0  0  0  0  0  0
    9.7844  -17.0623   26.6919 C   0  0  1  0  0  0  0  0  0  0  0  0
   10.4402  -18.1453   25.9243 C   0  0  0  0  0  0  0  0  0  0  0  0
   11.7439  -17.8428   25.3039 C   0  0  0  0  0  0  0  0  0  0  0  0
   12.4700  -18.9127   24.5730 C   0  0  0  0  0  0  0  0  0  0  0  0
   13.8417  -18.5464   24.0886 C   0  0  0  0  0  0  0  0  0  0  0  0
   14.5702  -19.5599   23.4050 N   0  0  0  0  0  0  0  0  0  0  0  0
   10.3892  -16.6697   27.9412 C   0  0  0  0  0  0  0  0  0  0  0  0
   10.6799  -17.5539   28.8481 O   0  0  0  0  0  0  0  0  0  0  0  0
   10.7342  -15.3847   28.3333 O   0  0  0  0  0  0  0  0  0  0  0  0
  2  1  1  6
  2  3  1  0
  4  3  1  0
  5  4  1  0
  6  5  2  0
  7  2  1  0
  7  8  2  0
  9  5  1  0
 11 10  1  0
 12 11  1  0
 12 13  1  0
 14 13  1  1
 14 15  1  0
 15  7  1  0
 16 14  1  0
 17 16  2  0
 18 16  1  0
 19 25  1  0
 19 18  1  0
 20 21  1  0
 19 20  1  6
 21 22  1  0
 22 23  1  0
 23 24  1  0
 25 27  1  0
 26 25  2  0
M  END
$$$$
