EMK.pdb
     RDKit          3D

 27 26  0  0  1  0  0  0  0  0999 V2000
    8.5806  -14.7083   19.7489 N   0  0  0  0  0  0  0  0  0  0  0  0
    7.8165  -15.4364   20.7650 C   0  0  1  0  0  0  0  0  0  0  0  0
    7.6952  -16.8958   20.3911 C   0  0  0  0  0  0  0  0  0  0  0  0
    8.8618  -17.3871   19.5543 C   0  0  0  0  0  0  0  0  0  0  0  0
    8.6852  -18.7686   19.1158 C   0  0  0  0  0  0  0  0  0  0  0  0
    8.0287  -19.0271   18.0864 O   0  0  0  0  0  0  0  0  0  0  0  0
    8.5092  -15.2443   22.0720 C   0  0  0  0  0  0  0  0  0  0  0  0
    9.7686  -15.2937   22.1495 O   0  0  0  0  0  0  0  0  0  0  0  0
    9.2425  -19.8089   19.8390 O   0  0  0  0  0  0  0  0  0  0  0  0
    6.1417  -10.2045   26.1109 C   0  0  0  0  0  0  0  0  0  0  0  0
    6.2811  -11.9702   26.4586 S   0  0  0  0  0  0  0  0  0  0  0  0
    7.2385  -12.8207   25.1750 C   0  0  0  0  0  0  0  0  0  0  0  0
    7.4127  -14.2854   25.5325 C   0  0  0  0  0  0  0  0  0  0  0  0
    8.3969  -14.9555   24.5603 C   0  0  2  0  0  0  0  0  0  0  0  0
    7.7691  -14.9995   23.2662 N   0  0  0  0  0  0  0  0  0  0  0  0
    8.8074  -16.2760   25.0531 C   0  0  0  0  0  0  0  0  0  0  0  0
    8.2824  -17.2931   24.5278 O   0  0  0  0  0  0  0  0  0  0  0  0
    9.7650  -16.4101   26.0877 N   0  0  0  0  0  0  0  0  0  0  0  0
   10.5121  -17.6638   26.3128 C   0  0  1  0  0  0  0  0  0  0  0  0
   11.6447  -17.7480   25.3629 C   0  0  0  0  0  0  0  0  0  0  0  0
   11.5929  -18.8083   24.3386 C   0  0  0  0  0  0  0  0  0  0  0  0
   12.6809  -18.9043   23.3320 C   0  0  0  0  0  0  0  0  0  0  0  0
   12.4725  -19.9247   22.2523 C   0  0  0  0  0  0  0  0  0  0  0  0
   13.4332  -19.9503   21.2027 N   0  0  0  0  0  0  0  0  0  0  0  0
   10.8150  -17.7453   27.7208 C   0  0  0  0  0  0  0  0  0  0  0  0
   11.4849  -18.7498   28.2015 O   0  0  0  0  0  0  0  0  0  0  0  0
   10.4696  -16.8284   28.7026 O   0  0  0  0  0  0  0  0  0  0  0  0
  2  1  1  6
  2  3  1  0
  4  3  1  0
  5  4  1  0
  6  5  2  0
  7  2  1  0
  7  8  2  0
  9  5  1  0
 11 10  1  0
 12 11  1  0
 12 13  1  0
 14 13  1  1
 14 15  1  0
 15  7  1  0
 16 14  1  0
 17 16  2  0
 18 16  1  0
 19 25  1  0
 19 18  1  0
 20 21  1  0
 19 20  1  6
 21 22  1  0
 22 23  1  0
 23 24  1  0
 25 27  1  0
 26 25  2  0
M  END
$$$$
