EMK.pdb
     RDKit          3D

 27 26  0  0  1  0  0  0  0  0999 V2000
    9.2679  -15.5705   19.2513 N   0  0  0  0  0  0  0  0  0  0  0  0
    8.1399  -15.6340   20.1842 C   0  0  1  0  0  0  0  0  0  0  0  0
    7.4958  -17.0007   20.1435 C   0  0  0  0  0  0  0  0  0  0  0  0
    8.5060  -18.1295   20.2328 C   0  0  0  0  0  0  0  0  0  0  0  0
    7.8711  -19.4440   20.2002 C   0  0  0  0  0  0  0  0  0  0  0  0
    6.9391  -19.6774   19.4038 O   0  0  0  0  0  0  0  0  0  0  0  0
    8.6586  -15.2947   21.5409 C   0  0  0  0  0  0  0  0  0  0  0  0
    9.8397  -15.5922   21.8744 O   0  0  0  0  0  0  0  0  0  0  0  0
    8.2947  -20.4469   21.0550 O   0  0  0  0  0  0  0  0  0  0  0  0
    5.4489  -12.4100   27.7680 C   0  0  0  0  0  0  0  0  0  0  0  0
    6.5988  -11.7307   26.5537 S   0  0  0  0  0  0  0  0  0  0  0  0
    7.6801  -13.0196   25.8775 C   0  0  0  0  0  0  0  0  0  0  0  0
    7.2721  -13.3553   24.4547 C   0  0  0  0  0  0  0  0  0  0  0  0
    8.3116  -14.2866   23.8104 C   0  0  2  0  0  0  0  0  0  0  0  0
    7.8366  -14.6260   22.4952 N   0  0  0  0  0  0  0  0  0  0  0  0
    8.5659  -15.4583   24.6575 C   0  0  0  0  0  0  0  0  0  0  0  0
    7.6905  -16.3629   24.6944 O   0  0  0  0  0  0  0  0  0  0  0  0
    9.7578  -15.5751   25.4131 N   0  0  0  0  0  0  0  0  0  0  0  0
   10.1115  -16.8099   26.1417 C   0  0  1  0  0  0  0  0  0  0  0  0
   11.3367  -17.4013   25.5575 C   0  0  0  0  0  0  0  0  0  0  0  0
   11.1933  -18.6762   24.8294 C   0  0  0  0  0  0  0  0  0  0  0  0
   12.3945  -19.3157   24.2342 C   0  0  0  0  0  0  0  0  0  0  0  0
   12.1658  -20.6588   23.6062 C   0  0  0  0  0  0  0  0  0  0  0  0
   13.2815  -21.2602   22.9589 N   0  0  0  0  0  0  0  0  0  0  0  0
   10.1279  -16.4971   27.5497 C   0  0  0  0  0  0  0  0  0  0  0  0
    9.9545  -15.2775   27.9638 O   0  0  0  0  0  0  0  0  0  0  0  0
   10.3104  -17.3853   28.5994 O   0  0  0  0  0  0  0  0  0  0  0  0
  2  1  1  6
  2  3  1  0
  4  3  1  0
  5  4  1  0
  6  5  2  0
  7  2  1  0
  7  8  2  0
  9  5  1  0
 11 10  1  0
 12 11  1  0
 12 13  1  0
 14 13  1  1
 14 15  1  0
 15  7  1  0
 16 14  1  0
 17 16  2  0
 18 16  1  0
 19 25  1  0
 19 18  1  0
 20 21  1  0
 19 20  1  6
 21 22  1  0
 22 23  1  0
 23 24  1  0
 25 27  1  0
 26 25  2  0
M  END
$$$$
