EMK.pdb
     RDKit          3D

 27 26  0  0  1  0  0  0  0  0999 V2000
    7.1324  -17.7555   20.9320 N   0  0  0  0  0  0  0  0  0  0  0  0
    8.5963  -17.7650   20.9918 C   0  0  1  0  0  0  0  0  0  0  0  0
    9.1836  -17.5414   19.6172 C   0  0  0  0  0  0  0  0  0  0  0  0
    8.6660  -16.2778   18.9554 C   0  0  0  0  0  0  0  0  0  0  0  0
    9.2314  -16.0792   17.6238 C   0  0  0  0  0  0  0  0  0  0  0  0
    8.8663  -15.1170   16.9180 O   0  0  0  0  0  0  0  0  0  0  0  0
    9.0135  -16.7116   21.9620 C   0  0  0  0  0  0  0  0  0  0  0  0
   10.2341  -16.4357   22.1313 O   0  0  0  0  0  0  0  0  0  0  0  0
   10.1784  -16.9583   17.1275 O   0  0  0  0  0  0  0  0  0  0  0  0
    6.8141  -11.0856   27.0745 C   0  0  0  0  0  0  0  0  0  0  0  0
    6.3114  -12.2517   25.7917 S   0  0  0  0  0  0  0  0  0  0  0  0
    7.6114  -13.4729   25.4655 C   0  0  0  0  0  0  0  0  0  0  0  0
    7.2819  -14.2713   24.2176 C   0  0  0  0  0  0  0  0  0  0  0  0
    8.3890  -15.3006   23.9384 C   0  0  2  0  0  0  0  0  0  0  0  0
    8.0471  -15.9891   22.7220 N   0  0  0  0  0  0  0  0  0  0  0  0
    8.5731  -16.1999   25.0841 C   0  0  0  0  0  0  0  0  0  0  0  0
    7.6683  -17.0416   25.3268 O   0  0  0  0  0  0  0  0  0  0  0  0
    9.7311  -16.1293   25.8961 N   0  0  0  0  0  0  0  0  0  0  0  0
   10.1198  -17.2211   26.8113 C   0  0  1  0  0  0  0  0  0  0  0  0
   10.9686  -18.1979   26.0918 C   0  0  0  0  0  0  0  0  0  0  0  0
   11.5117  -19.3270   26.8705 C   0  0  0  0  0  0  0  0  0  0  0  0
   12.3554  -20.3432   26.1909 C   0  0  0  0  0  0  0  0  0  0  0  0
   12.8694  -21.4460   27.0685 C   0  0  0  0  0  0  0  0  0  0  0  0
   13.6005  -22.4851   26.4273 N   0  0  0  0  0  0  0  0  0  0  0  0
   10.6614  -16.6188   28.0049 C   0  0  0  0  0  0  0  0  0  0  0  0
   11.0829  -15.3896   27.9991 O   0  0  0  0  0  0  0  0  0  0  0  0
   10.7979  -17.2132   29.2507 O   0  0  0  0  0  0  0  0  0  0  0  0
  2  1  1  6
  2  3  1  0
  4  3  1  0
  5  4  1  0
  6  5  2  0
  7  2  1  0
  7  8  2  0
  9  5  1  0
 11 10  1  0
 12 11  1  0
 12 13  1  0
 14 13  1  1
 14 15  1  0
 15  7  1  0
 16 14  1  0
 17 16  2  0
 18 16  1  0
 19 25  1  0
 19 18  1  0
 20 21  1  0
 19 20  1  6
 21 22  1  0
 22 23  1  0
 23 24  1  0
 25 27  1  0
 26 25  2  0
M  END
$$$$
