EMK.pdb
     RDKit          3D

 27 26  0  0  1  0  0  0  0  0999 V2000
    9.2362  -15.9317   19.8664 N   0  0  0  0  0  0  0  0  0  0  0  0
    8.3376  -16.4214   20.9149 C   0  0  1  0  0  0  0  0  0  0  0  0
    8.2557  -17.9302   20.8796 C   0  0  0  0  0  0  0  0  0  0  0  0
    9.5335  -18.5766   20.3775 C   0  0  0  0  0  0  0  0  0  0  0  0
    9.4366  -20.0329   20.3333 C   0  0  0  0  0  0  0  0  0  0  0  0
   10.2007  -20.7394   21.0219 O   0  0  0  0  0  0  0  0  0  0  0  0
    8.8512  -15.9144   22.2203 C   0  0  0  0  0  0  0  0  0  0  0  0
   10.0812  -15.9765   22.4992 O   0  0  0  0  0  0  0  0  0  0  0  0
    8.4964  -20.6473   19.5244 O   0  0  0  0  0  0  0  0  0  0  0  0
    6.7710  -10.5326   26.0765 C   0  0  0  0  0  0  0  0  0  0  0  0
    6.6234  -12.1109   26.9399 S   0  0  0  0  0  0  0  0  0  0  0  0
    7.8374  -13.3115   26.3298 C   0  0  0  0  0  0  0  0  0  0  0  0
    7.3646  -13.9194   25.0220 C   0  0  0  0  0  0  0  0  0  0  0  0
    8.4338  -14.8712   24.4620 C   0  0  2  0  0  0  0  0  0  0  0  0
    7.9686  -15.3466   23.1859 N   0  0  0  0  0  0  0  0  0  0  0  0
    8.7285  -15.9503   25.4128 C   0  0  0  0  0  0  0  0  0  0  0  0
    7.8289  -16.8024   25.6380 O   0  0  0  0  0  0  0  0  0  0  0  0
    9.9846  -16.0372   26.0607 N   0  0  0  0  0  0  0  0  0  0  0  0
   10.3335  -17.1578   26.9569 C   0  0  1  0  0  0  0  0  0  0  0  0
   11.6589  -17.7022   26.5837 C   0  0  0  0  0  0  0  0  0  0  0  0
   11.6835  -18.8548   25.6634 C   0  0  0  0  0  0  0  0  0  0  0  0
   12.9892  -19.4054   25.2184 C   0  0  0  0  0  0  0  0  0  0  0  0
   12.9131  -20.4932   24.1881 C   0  0  0  0  0  0  0  0  0  0  0  0
   14.1504  -21.0121   23.7136 N   0  0  0  0  0  0  0  0  0  0  0  0
   10.1575  -16.7028   28.3144 C   0  0  0  0  0  0  0  0  0  0  0  0
   10.4092  -17.4883   29.3187 O   0  0  0  0  0  0  0  0  0  0  0  0
    9.7315  -15.4482   28.7249 O   0  0  0  0  0  0  0  0  0  0  0  0
  2  1  1  6
  2  3  1  0
  4  3  1  0
  5  4  1  0
  6  5  2  0
  7  2  1  0
  7  8  2  0
  9  5  1  0
 11 10  1  0
 12 11  1  0
 12 13  1  0
 14 13  1  1
 14 15  1  0
 15  7  1  0
 16 14  1  0
 17 16  2  0
 18 16  1  0
 19 25  1  0
 19 18  1  0
 20 21  1  0
 19 20  1  1
 21 22  1  0
 22 23  1  0
 23 24  1  0
 25 27  1  0
 26 25  2  0
M  END
$$$$
