EMK.pdb
     RDKit          3D

 27 26  0  0  1  0  0  0  0  0999 V2000
    7.7081  -18.2369   21.2510 N   0  0  0  0  0  0  0  0  0  0  0  0
    9.0029  -17.7242   20.7957 C   0  0  1  0  0  0  0  0  0  0  0  0
    8.9942  -17.5199   19.2981 C   0  0  0  0  0  0  0  0  0  0  0  0
    7.5948  -17.3521   18.7359 C   0  0  0  0  0  0  0  0  0  0  0  0
    7.6024  -17.1106   17.2958 C   0  0  0  0  0  0  0  0  0  0  0  0
    7.1283  -16.0550   16.8285 O   0  0  0  0  0  0  0  0  0  0  0  0
    9.2708  -16.4576   21.5366 C   0  0  0  0  0  0  0  0  0  0  0  0
   10.2817  -15.7513   21.2650 O   0  0  0  0  0  0  0  0  0  0  0  0
    8.1339  -18.0518   16.4313 O   0  0  0  0  0  0  0  0  0  0  0  0
    6.9550  -11.9651   27.5120 C   0  0  0  0  0  0  0  0  0  0  0  0
    6.5169  -13.2158   26.2864 S   0  0  0  0  0  0  0  0  0  0  0  0
    7.6132  -13.1373   24.8443 C   0  0  0  0  0  0  0  0  0  0  0  0
    7.3608  -14.3197   23.9268 C   0  0  0  0  0  0  0  0  0  0  0  0
    8.6920  -14.8628   23.3829 C   0  0  2  0  0  0  0  0  0  0  0  0
    8.3939  -16.0112   22.5687 N   0  0  0  0  0  0  0  0  0  0  0  0
    9.6290  -15.1515   24.4755 C   0  0  0  0  0  0  0  0  0  0  0  0
   10.0077  -14.1928   25.1990 O   0  0  0  0  0  0  0  0  0  0  0  0
   10.0969  -16.4664   24.7153 N   0  0  0  0  0  0  0  0  0  0  0  0
   11.0098  -16.7871   25.8308 C   0  0  1  0  0  0  0  0  0  0  0  0
   10.3757  -17.7821   26.7253 C   0  0  0  0  0  0  0  0  0  0  0  0
   11.1902  -18.3121   27.8351 C   0  0  0  0  0  0  0  0  0  0  0  0
   10.6379  -19.3892   28.6960 C   0  0  0  0  0  0  0  0  0  0  0  0
   11.4782  -19.7619   29.8815 C   0  0  0  0  0  0  0  0  0  0  0  0
   11.0594  -20.8974   30.6303 N   0  0  0  0  0  0  0  0  0  0  0  0
   12.2926  -17.1227   25.2630 C   0  0  0  0  0  0  0  0  0  0  0  0
   12.3756  -17.8034   24.1591 O   0  0  0  0  0  0  0  0  0  0  0  0
   13.5409  -16.7885   25.7670 O   0  0  0  0  0  0  0  0  0  0  0  0
  2  1  1  1
  2  3  1  0
  4  3  1  0
  5  4  1  0
  6  5  2  0
  7  2  1  0
  7  8  2  0
  9  5  1  0
 11 10  1  0
 12 11  1  0
 12 13  1  0
 14 13  1  1
 14 15  1  0
 15  7  1  0
 16 14  1  0
 17 16  2  0
 18 16  1  0
 19 25  1  0
 19 18  1  0
 20 21  1  0
 19 20  1  6
 21 22  1  0
 22 23  1  0
 23 24  1  0
 25 27  1  0
 26 25  2  0
M  END
$$$$
