EMK.pdb
     RDKit          3D

 27 26  0  0  1  0  0  0  0  0999 V2000
    8.0284  -18.5212   21.2890 N   0  0  0  0  0  0  0  0  0  0  0  0
    9.2484  -17.8918   20.7771 C   0  0  1  0  0  0  0  0  0  0  0  0
    9.2316  -17.8564   19.2662 C   0  0  0  0  0  0  0  0  0  0  0  0
    7.8617  -17.5303   18.7010 C   0  0  0  0  0  0  0  0  0  0  0  0
    7.8883  -17.3561   17.2514 C   0  0  0  0  0  0  0  0  0  0  0  0
    8.3243  -18.2625   16.5128 O   0  0  0  0  0  0  0  0  0  0  0  0
    9.3342  -16.5269   21.3726 C   0  0  0  0  0  0  0  0  0  0  0  0
   10.2243  -15.7131   20.9984 O   0  0  0  0  0  0  0  0  0  0  0  0
    7.4317  -16.1812   16.6795 O   0  0  0  0  0  0  0  0  0  0  0  0
    7.5874  -12.1845   27.0641 C   0  0  0  0  0  0  0  0  0  0  0  0
    6.5514  -13.1992   25.9893 S   0  0  0  0  0  0  0  0  0  0  0  0
    7.1267  -13.1383   24.2710 C   0  0  0  0  0  0  0  0  0  0  0  0
    7.1392  -14.5322   23.6707 C   0  0  0  0  0  0  0  0  0  0  0  0
    8.4876  -14.8022   22.9839 C   0  0  2  0  0  0  0  0  0  0  0  0
    8.4146  -16.1053   22.3777 N   0  0  0  0  0  0  0  0  0  0  0  0
    9.5992  -14.6633   23.9328 C   0  0  0  0  0  0  0  0  0  0  0  0
    9.5553  -13.7152   24.7606 O   0  0  0  0  0  0  0  0  0  0  0  0
   10.6912  -15.5647   23.9238 N   0  0  0  0  0  0  0  0  0  0  0  0
   11.2878  -16.0927   25.1672 C   0  0  1  0  0  0  0  0  0  0  0  0
   10.2256  -16.6567   26.0309 C   0  0  0  0  0  0  0  0  0  0  0  0
   10.1999  -16.2269   27.4418 C   0  0  0  0  0  0  0  0  0  0  0  0
   10.3105  -17.2456   28.5171 C   0  0  0  0  0  0  0  0  0  0  0  0
   10.1552  -16.7265   29.9159 C   0  0  0  0  0  0  0  0  0  0  0  0
   10.2321  -17.6844   30.9656 N   0  0  0  0  0  0  0  0  0  0  0  0
   12.3764  -16.9626   24.7946 C   0  0  0  0  0  0  0  0  0  0  0  0
   12.3223  -17.6690   23.7051 O   0  0  0  0  0  0  0  0  0  0  0  0
   13.5624  -17.1579   25.4869 O   0  0  0  0  0  0  0  0  0  0  0  0
  2  1  1  1
  2  3  1  0
  4  3  1  0
  5  4  1  0
  6  5  2  0
  7  2  1  0
  7  8  2  0
  9  5  1  0
 11 10  1  0
 12 11  1  0
 12 13  1  0
 14 13  1  1
 14 15  1  0
 15  7  1  0
 16 14  1  0
 17 16  2  0
 18 16  1  0
 19 25  1  0
 19 18  1  0
 20 21  1  0
 19 20  1  6
 21 22  1  0
 22 23  1  0
 23 24  1  0
 25 27  1  0
 26 25  2  0
M  END
$$$$
