IDT.pdb
     RDKit          3D

 24 23  0  0  1  0  0  0  0  0999 V2000
   26.1676  -16.0279  -15.0235 C   0  0  0  0  0  0  0  0  0  0  0  0
   25.2473  -15.9188  -16.1974 C   0  0  0  0  0  0  0  0  0  0  0  0
   24.5499  -14.5852  -16.2116 C   0  0  2  0  0  0  0  0  0  0  0  0
   23.6198  -14.5456  -15.0026 C   0  0  0  0  0  0  0  0  0  0  0  0
   23.6317  -14.5100  -17.4311 C   0  0  2  0  0  0  0  0  0  0  0  0
   24.5122  -14.7549  -18.5693 N   0  0  0  0  0  0  0  0  0  0  0  0
   23.0630  -13.1337  -17.5582 C   0  0  0  0  0  0  0  0  0  0  0  0
   23.8589  -12.1532  -17.6626 O   0  0  0  0  0  0  0  0  0  0  0  0
   21.6607  -12.9008  -17.5657 N   0  0  0  0  0  0  0  0  0  0  0  0
   21.1558  -11.5550  -17.7404 C   0  0  1  0  0  0  0  0  0  0  0  0
   20.0667  -11.5995  -18.7623 C   0  0  0  0  0  0  0  0  0  0  0  0
   19.5190  -10.2408  -19.0294 C   0  0  0  0  0  0  0  0  0  0  0  0
   18.2566  -10.1859  -19.2557 O   0  0  0  0  0  0  0  0  0  0  0  0
   20.7747  -10.9206  -16.4640 C   0  0  0  0  0  0  0  0  0  0  0  0
   19.9634  -11.5627  -15.7529 O   0  0  0  0  0  0  0  0  0  0  0  0
   20.2609   -9.0753  -19.0458 O   0  0  0  0  0  0  0  0  0  0  0  0
   23.3813   -8.9220  -14.1340 C   0  0  0  0  0  0  0  0  0  0  0  0
   21.9660   -9.2543  -13.6896 C   0  0  1  0  0  0  0  0  0  0  0  0
   21.6308   -8.6565  -12.4781 O   0  0  0  0  0  0  0  0  0  0  0  0
   20.9758   -9.0217  -14.7715 C   0  0  2  0  0  0  0  0  0  0  0  0
   21.2597   -9.6758  -16.0224 N   0  0  0  0  0  0  0  0  0  0  0  0
   20.6033   -7.6007  -14.9749 C   0  0  0  0  0  0  0  0  0  0  0  0
   20.5334   -7.0757  -16.2810 O   0  0  0  0  0  0  0  0  0  0  0  0
   20.3323   -6.7817  -14.0714 O   0  0  0  0  0  0  0  0  0  0  0  0
  2  1  1  0
  3  4  1  1
  3  2  1  0
  5  3  1  0
  5  6  1  6
  7  8  2  0
  7  5  1  0
  9  7  1  0
 10  9  1  0
 10 11  1  6
 12 11  1  0
 13 12  2  0
 14 10  1  0
 15 14  2  0
 16 12  1  0
 18 17  1  6
 19 18  1  0
 20 18  1  0
 20 21  1  6
 21 14  1  0
 22 20  1  0
 23 22  1  0
 24 22  2  0
M  END
$$$$
