IDT.pdb
     RDKit          3D

 24 23  0  0  1  0  0  0  0  0999 V2000
   16.4623  -13.2740  -16.2089 C   0  0  0  0  0  0  0  0  0  0  0  0
   17.3434  -12.1444  -16.6384 C   0  0  0  0  0  0  0  0  0  0  0  0
   17.8775  -11.3961  -15.4468 C   0  0  2  0  0  0  0  0  0  0  0  0
   16.8225  -10.3696  -15.0444 C   0  0  0  0  0  0  0  0  0  0  0  0
   19.0969  -10.5781  -15.8708 C   0  0  2  0  0  0  0  0  0  0  0  0
   20.1270  -11.5734  -16.1517 N   0  0  0  0  0  0  0  0  0  0  0  0
   19.5590   -9.7238  -14.7350 C   0  0  0  0  0  0  0  0  0  0  0  0
   20.0306  -10.2868  -13.7023 O   0  0  0  0  0  0  0  0  0  0  0  0
   19.4835   -8.3052  -14.7861 N   0  0  0  0  0  0  0  0  0  0  0  0
   19.8075   -7.5247  -13.6103 C   0  0  1  0  0  0  0  0  0  0  0  0
   20.9343   -6.6081  -13.9607 C   0  0  0  0  0  0  0  0  0  0  0  0
   21.3039   -5.7396  -12.8090 C   0  0  0  0  0  0  0  0  0  0  0  0
   21.3294   -6.3181  -11.6634 O   0  0  0  0  0  0  0  0  0  0  0  0
   18.6282   -6.8542  -13.0303 C   0  0  0  0  0  0  0  0  0  0  0  0
   17.8638   -6.2845  -13.8472 O   0  0  0  0  0  0  0  0  0  0  0  0
   21.6126   -4.3956  -12.8957 O   0  0  0  0  0  0  0  0  0  0  0  0
   16.5053   -8.2540   -9.7269 C   0  0  0  0  0  0  0  0  0  0  0  0
   16.8428   -6.7725   -9.6799 C   0  0  1  0  0  0  0  0  0  0  0  0
   17.7830   -6.4682   -8.6997 O   0  0  0  0  0  0  0  0  0  0  0  0
   17.1776   -6.2368  -11.0238 C   0  0  2  0  0  0  0  0  0  0  0  0
   18.3307   -6.8242  -11.6553 N   0  0  0  0  0  0  0  0  0  0  0  0
   17.2069   -4.7566  -11.1107 C   0  0  0  0  0  0  0  0  0  0  0  0
   16.0793   -4.0098  -10.7141 O   0  0  0  0  0  0  0  0  0  0  0  0
   18.1679   -4.0693  -11.5163 O   0  0  0  0  0  0  0  0  0  0  0  0
  2  1  1  0
  3  4  1  6
  3  2  1  0
  5  3  1  0
  5  6  1  1
  7  8  2  0
  7  5  1  0
  9  7  1  0
 10  9  1  0
 10 11  1  6
 12 11  1  0
 13 12  2  0
 14 10  1  0
 15 14  2  0
 16 12  1  0
 18 17  1  6
 19 18  1  0
 20 18  1  0
 20 21  1  1
 21 14  1  0
 22 20  1  0
 23 22  1  0
 24 22  2  0
M  END
$$$$
