IDT.pdb
     RDKit          3D

 24 23  0  0  1  0  0  0  0  0999 V2000
   28.4719  -20.0545   -5.6740 C   0  0  0  0  0  0  0  0  0  0  0  0
   27.0590  -20.2216   -6.1354 C   0  0  0  0  0  0  0  0  0  0  0  0
   26.9234  -19.8661   -7.5915 C   0  0  2  0  0  0  0  0  0  0  0  0
   27.1249  -18.3584   -7.7120 C   0  0  0  0  0  0  0  0  0  0  0  0
   25.4844  -20.1192   -8.0398 C   0  0  2  0  0  0  0  0  0  0  0  0
   25.2393  -21.5206   -7.7134 N   0  0  0  0  0  0  0  0  0  0  0  0
   25.3734  -19.9500   -9.5206 C   0  0  0  0  0  0  0  0  0  0  0  0
   25.4819  -18.7863  -10.0103 O   0  0  0  0  0  0  0  0  0  0  0  0
   25.1517  -21.0557  -10.3860 N   0  0  0  0  0  0  0  0  0  0  0  0
   25.0192  -20.8384  -11.8115 C   0  0  1  0  0  0  0  0  0  0  0  0
   26.0338  -21.6888  -12.5043 C   0  0  0  0  0  0  0  0  0  0  0  0
   26.0356  -21.4416  -13.9727 C   0  0  0  0  0  0  0  0  0  0  0  0
   26.9060  -22.1028  -14.6457 O   0  0  0  0  0  0  0  0  0  0  0  0
   23.6352  -21.0222  -12.2884 C   0  0  0  0  0  0  0  0  0  0  0  0
   23.0561  -22.0673  -11.9027 O   0  0  0  0  0  0  0  0  0  0  0  0
   25.1853  -20.5751  -14.6326 O   0  0  0  0  0  0  0  0  0  0  0  0
   19.5515  -18.9837  -14.3886 C   0  0  0  0  0  0  0  0  0  0  0  0
   21.0171  -18.8599  -14.0044 C   0  0  1  0  0  0  0  0  0  0  0  0
   21.2622  -17.7726  -13.1707 O   0  0  0  0  0  0  0  0  0  0  0  0
   21.5688  -20.1431  -13.5001 C   0  0  2  0  0  0  0  0  0  0  0  0
   22.9585  -20.1149  -13.1243 N   0  0  0  0  0  0  0  0  0  0  0  0
   21.2586  -21.3239  -14.3421 C   0  0  0  0  0  0  0  0  0  0  0  0
   20.1716  -22.1561  -14.0072 O   0  0  0  0  0  0  0  0  0  0  0  0
   21.8863  -21.6761  -15.3631 O   0  0  0  0  0  0  0  0  0  0  0  0
  2  1  1  0
  3  4  1  1
  3  2  1  0
  5  3  1  0
  5  6  1  6
  7  8  2  0
  7  5  1  0
  9  7  1  0
 10  9  1  0
 10 11  1  6
 12 11  1  0
 13 12  2  0
 14 10  1  0
 15 14  2  0
 16 12  1  0
 18 17  1  1
 19 18  1  0
 20 18  1  0
 20 21  1  6
 21 14  1  0
 22 20  1  0
 23 22  1  0
 24 22  2  0
M  END
$$$$
