IDT.pdb
     RDKit          3D

 24 23  0  0  1  0  0  0  0  0999 V2000
   23.4397  -16.1950  -15.3187 C   0  0  0  0  0  0  0  0  0  0  0  0
   21.9572  -15.9988  -15.3413 C   0  0  0  0  0  0  0  0  0  0  0  0
   21.6067  -14.5976  -15.7643 C   0  0  2  0  0  0  0  0  0  0  0  0
   22.1200  -13.6538  -14.6807 C   0  0  0  0  0  0  0  0  0  0  0  0
   20.0871  -14.4344  -15.7564 C   0  0  2  0  0  0  0  0  0  0  0  0
   19.6122  -15.3690  -16.7721 N   0  0  0  0  0  0  0  0  0  0  0  0
   19.7200  -13.0483  -16.1777 C   0  0  0  0  0  0  0  0  0  0  0  0
   19.9247  -12.7029  -17.3796 O   0  0  0  0  0  0  0  0  0  0  0  0
   19.1501  -12.1156  -15.2688 N   0  0  0  0  0  0  0  0  0  0  0  0
   18.9135  -10.7512  -15.6919 C   0  0  1  0  0  0  0  0  0  0  0  0
   17.4674  -10.4445  -15.4742 C   0  0  0  0  0  0  0  0  0  0  0  0
   17.1390   -9.0552  -15.8973 C   0  0  0  0  0  0  0  0  0  0  0  0
   16.3645   -8.4031  -15.1081 O   0  0  0  0  0  0  0  0  0  0  0  0
   19.8453   -9.7927  -15.0676 C   0  0  0  0  0  0  0  0  0  0  0  0
   20.0634   -9.9582  -13.8423 O   0  0  0  0  0  0  0  0  0  0  0  0
   17.6028   -8.4452  -17.0471 O   0  0  0  0  0  0  0  0  0  0  0  0
   23.3862   -9.3665  -15.2234 C   0  0  0  0  0  0  0  0  0  0  0  0
   22.8430   -8.0209  -15.6765 C   0  0  1  0  0  0  0  0  0  0  0  0
   23.0446   -7.7915  -17.0345 O   0  0  0  0  0  0  0  0  0  0  0  0
   21.4425   -7.8093  -15.2304 C   0  0  2  0  0  0  0  0  0  0  0  0
   20.4777   -8.7405  -15.7553 N   0  0  0  0  0  0  0  0  0  0  0  0
   20.9619   -6.4107  -15.3411 C   0  0  0  0  0  0  0  0  0  0  0  0
   21.6558   -5.3778  -14.6791 O   0  0  0  0  0  0  0  0  0  0  0  0
   19.9623   -6.0326  -15.9878 O   0  0  0  0  0  0  0  0  0  0  0  0
  2  1  1  0
  3  4  1  1
  3  2  1  0
  5  3  1  0
  5  6  1  6
  7  8  2  0
  7  5  1  0
  9  7  1  0
 10  9  1  0
 10 11  1  1
 12 11  1  0
 13 12  2  0
 14 10  1  0
 15 14  2  0
 16 12  1  0
 18 17  1  6
 19 18  1  0
 20 18  1  0
 20 21  1  6
 21 14  1  0
 22 20  1  0
 23 22  1  0
 24 22  2  0
M  END
$$$$
