IDT.pdb
     RDKit          3D

 24 23  0  0  1  0  0  0  0  0999 V2000
   18.0928  -13.5276  -17.6544 C   0  0  0  0  0  0  0  0  0  0  0  0
   17.9806  -12.6537  -16.4459 C   0  0  0  0  0  0  0  0  0  0  0  0
   18.4127  -11.2463  -16.7581 C   0  0  2  0  0  0  0  0  0  0  0  0
   19.8922  -11.2965  -17.1285 C   0  0  0  0  0  0  0  0  0  0  0  0
   18.3426  -10.4037  -15.4850 C   0  0  2  0  0  0  0  0  0  0  0  0
   16.9453  -10.4808  -15.0701 N   0  0  0  0  0  0  0  0  0  0  0  0
   18.6674   -8.9786  -15.7970 C   0  0  0  0  0  0  0  0  0  0  0  0
   19.8690   -8.6707  -16.0562 O   0  0  0  0  0  0  0  0  0  0  0  0
   17.6674   -7.9684  -15.8105 N   0  0  0  0  0  0  0  0  0  0  0  0
   18.0301   -6.6011  -16.1197 C   0  0  1  0  0  0  0  0  0  0  0  0
   16.8064   -5.8987  -16.6113 C   0  0  0  0  0  0  0  0  0  0  0  0
   17.0629   -4.4470  -16.8212 C   0  0  0  0  0  0  0  0  0  0  0  0
   16.1202   -3.6579  -16.4519 O   0  0  0  0  0  0  0  0  0  0  0  0
   18.7166   -5.9281  -15.0005 C   0  0  0  0  0  0  0  0  0  0  0  0
   18.0643   -5.8372  -13.9316 O   0  0  0  0  0  0  0  0  0  0  0  0
   18.2150   -3.9158  -17.3685 O   0  0  0  0  0  0  0  0  0  0  0  0
   22.6958   -6.2960  -14.3332 C   0  0  0  0  0  0  0  0  0  0  0  0
   21.7738   -5.6075  -13.3398 C   0  0  1  0  0  0  0  0  0  0  0  0
   22.4699   -4.9555  -12.3261 O   0  0  0  0  0  0  0  0  0  0  0  0
   20.7612   -4.7593  -14.0183 C   0  0  2  0  0  0  0  0  0  0  0  0
   20.0199   -5.4025  -15.0719 N   0  0  0  0  0  0  0  0  0  0  0  0
   21.2525   -3.4244  -14.4378 C   0  0  0  0  0  0  0  0  0  0  0  0
   21.8642   -2.5753  -13.4937 O   0  0  0  0  0  0  0  0  0  0  0  0
   21.1789   -2.9502  -15.5912 O   0  0  0  0  0  0  0  0  0  0  0  0
  2  1  1  0
  3  4  1  1
  3  2  1  0
  5  3  1  0
  5  6  1  6
  7  8  2  0
  7  5  1  0
  9  7  1  0
 10  9  1  0
 10 11  1  1
 12 11  1  0
 13 12  2  0
 14 10  1  0
 15 14  2  0
 16 12  1  0
 18 17  1  6
 19 18  1  0
 20 18  1  0
 20 21  1  6
 21 14  1  0
 22 20  1  0
 23 22  1  0
 24 22  2  0
M  END
$$$$
