IDT.pdb
     RDKit          3D

 24 23  0  0  1  0  0  0  0  0999 V2000
   24.7433  -13.2454  -15.4994 C   0  0  0  0  0  0  0  0  0  0  0  0
   23.2521  -13.2599  -15.3850 C   0  0  0  0  0  0  0  0  0  0  0  0
   22.6823  -11.8849  -15.6081 C   0  0  2  0  0  0  0  0  0  0  0  0
   23.0592  -11.0348  -14.3982 C   0  0  0  0  0  0  0  0  0  0  0  0
   21.1561  -11.9628  -15.5883 C   0  0  2  0  0  0  0  0  0  0  0  0
   20.8181  -12.8290  -16.7135 N   0  0  0  0  0  0  0  0  0  0  0  0
   20.5723  -10.6099  -15.8383 C   0  0  0  0  0  0  0  0  0  0  0  0
   20.7368  -10.0765  -16.9760 O   0  0  0  0  0  0  0  0  0  0  0  0
   19.8415   -9.9132  -14.8377 N   0  0  0  0  0  0  0  0  0  0  0  0
   19.3646   -8.5711  -15.0984 C   0  0  1  0  0  0  0  0  0  0  0  0
   17.9041   -8.5311  -14.7852 C   0  0  0  0  0  0  0  0  0  0  0  0
   17.3108   -7.2116  -15.1373 C   0  0  0  0  0  0  0  0  0  0  0  0
   16.0318   -7.1887  -15.2432 O   0  0  0  0  0  0  0  0  0  0  0  0
   20.1677   -7.5396  -14.4146 C   0  0  0  0  0  0  0  0  0  0  0  0
   20.4551   -7.7737  -13.2150 O   0  0  0  0  0  0  0  0  0  0  0  0
   18.0284   -6.0496  -15.3478 O   0  0  0  0  0  0  0  0  0  0  0  0
   22.8543   -5.0864  -16.5098 C   0  0  0  0  0  0  0  0  0  0  0  0
   22.8531   -5.3060  -15.0055 C   0  0  1  0  0  0  0  0  0  0  0  0
   23.7045   -4.4319  -14.3359 O   0  0  0  0  0  0  0  0  0  0  0  0
   21.4758   -5.3490  -14.4522 C   0  0  2  0  0  0  0  0  0  0  0  0
   20.6105   -6.3496  -15.0209 N   0  0  0  0  0  0  0  0  0  0  0  0
   20.8002   -4.0313  -14.3698 C   0  0  0  0  0  0  0  0  0  0  0  0
   21.3939   -2.9852  -13.6352 O   0  0  0  0  0  0  0  0  0  0  0  0
   19.7115   -3.7358  -14.9063 O   0  0  0  0  0  0  0  0  0  0  0  0
  2  1  1  0
  3  4  1  1
  3  2  1  0
  5  3  1  0
  5  6  1  6
  7  8  2  0
  7  5  1  0
  9  7  1  0
 10  9  1  0
 10 11  1  1
 12 11  1  0
 13 12  2  0
 14 10  1  0
 15 14  2  0
 16 12  1  0
 18 17  1  6
 19 18  1  0
 20 18  1  0
 20 21  1  6
 21 14  1  0
 22 20  1  0
 23 22  1  0
 24 22  2  0
M  END
$$$$
