DMK.pdb
     RDKit          3D

 26 25  0  0  1  0  0  0  0  0999 V2000
    9.0448  -16.7945   20.6601 N   0  0  0  0  0  0  0  0  0  0  0  0
   10.2770  -16.7031   21.3984 C   0  0  1  0  0  0  0  0  0  0  0  0
   11.2740  -15.9797   20.4899 C   0  0  0  0  0  0  0  0  0  0  0  0
   11.6660  -16.9328   19.4314 C   0  0  0  0  0  0  0  0  0  0  0  0
   12.5704  -17.7637   19.6650 O   0  0  0  0  0  0  0  0  0  0  0  0
   10.1121  -15.9801   22.6845 C   0  0  0  0  0  0  0  0  0  0  0  0
   11.1067  -15.6760   23.3934 O   0  0  0  0  0  0  0  0  0  0  0  0
   11.0583  -16.9255   18.1962 O   0  0  0  0  0  0  0  0  0  0  0  0
    7.0685  -11.5529   27.2030 C   0  0  0  0  0  0  0  0  0  0  0  0
    7.6534  -13.0919   26.4754 S   0  0  0  0  0  0  0  0  0  0  0  0
    6.5926  -13.5689   25.0573 C   0  0  0  0  0  0  0  0  0  0  0  0
    7.0323  -14.8664   24.4532 C   0  0  0  0  0  0  0  0  0  0  0  0
    8.5227  -15.1009   24.4470 C   0  0  2  0  0  0  0  0  0  0  0  0
    8.8019  -15.6361   23.1015 N   0  0  0  0  0  0  0  0  0  0  0  0
    8.8902  -16.0588   25.4782 C   0  0  0  0  0  0  0  0  0  0  0  0
    8.1443  -17.1023   25.5899 O   0  0  0  0  0  0  0  0  0  0  0  0
    9.9619  -16.0196   26.3864 N   0  0  0  0  0  0  0  0  0  0  0  0
   10.2599  -17.1512   27.3009 C   0  0  1  0  0  0  0  0  0  0  0  0
   11.5211  -17.8358   26.8214 C   0  0  0  0  0  0  0  0  0  0  0  0
   11.8966  -18.9790   27.6967 C   0  0  0  0  0  0  0  0  0  0  0  0
   13.1530  -19.6796   27.1635 C   0  0  0  0  0  0  0  0  0  0  0  0
   13.4713  -20.8349   28.1082 C   0  0  0  0  0  0  0  0  0  0  0  0
   14.5706  -21.6163   27.5731 N   0  0  0  0  0  0  0  0  0  0  0  0
   10.4884  -16.5841   28.6278 C   0  0  0  0  0  0  0  0  0  0  0  0
   10.4540  -15.2242   28.8332 O   0  0  0  0  0  0  0  0  0  0  0  0
   10.7204  -17.3245   29.6047 O   0  0  0  0  0  0  0  0  0  0  0  0
  2  1  1  6
  2  3  1  0
  3  4  1  0
  4  8  1  0
  5  4  2  0
  6  2  1  0
  7  6  2  0
  9 10  1  0
 10 11  1  0
 11 12  1  0
 13 12  1  6
 13 15  1  0
 13 14  1  0
 14  6  1  0
 15 16  2  0
 17 18  1  0
 17 15  1  0
 19 20  1  0
 18 19  1  6
 21 20  1  0
 22 21  1  0
 23 22  1  0
 24 18  1  0
 25 24  1  0
 26 24  2  0
M  END
$$$$
