DMK.pdb
     RDKit          3D

 26 25  0  0  1  0  0  0  0  0999 V2000
    8.1827  -16.6372   20.7967 N   0  0  0  0  0  0  0  0  0  0  0  0
    9.5457  -16.3708   21.1745 C   0  0  1  0  0  0  0  0  0  0  0  0
   10.0881  -15.3628   20.1583 C   0  0  0  0  0  0  0  0  0  0  0  0
   10.0738  -16.0274   18.8391 C   0  0  0  0  0  0  0  0  0  0  0  0
   10.5634  -17.1724   18.7289 O   0  0  0  0  0  0  0  0  0  0  0  0
    9.6548  -15.8395   22.5565 C   0  0  0  0  0  0  0  0  0  0  0  0
   10.7490  -15.4076   23.0043 O   0  0  0  0  0  0  0  0  0  0  0  0
    9.5342  -15.4143   17.7309 O   0  0  0  0  0  0  0  0  0  0  0  0
    6.8314  -11.0545   26.3618 C   0  0  0  0  0  0  0  0  0  0  0  0
    7.4088  -12.7567   26.4559 S   0  0  0  0  0  0  0  0  0  0  0  0
    6.7371  -13.7349   25.0573 C   0  0  0  0  0  0  0  0  0  0  0  0
    7.1141  -15.1799   25.1653 C   0  0  0  0  0  0  0  0  0  0  0  0
    8.5437  -15.5005   24.8051 C   0  0  2  0  0  0  0  0  0  0  0  0
    8.4929  -15.8280   23.3681 N   0  0  0  0  0  0  0  0  0  0  0  0
    9.0218  -16.6325   25.5836 C   0  0  0  0  0  0  0  0  0  0  0  0
    8.3019  -17.6996   25.5537 O   0  0  0  0  0  0  0  0  0  0  0  0
   10.1775  -16.7420   26.3754 N   0  0  0  0  0  0  0  0  0  0  0  0
   10.5820  -18.0254   27.0040 C   0  0  1  0  0  0  0  0  0  0  0  0
   11.9593  -18.3940   26.4977 C   0  0  0  0  0  0  0  0  0  0  0  0
   12.4321  -19.6833   27.0708 C   0  0  0  0  0  0  0  0  0  0  0  0
   13.8300  -20.0306   26.5425 C   0  0  0  0  0  0  0  0  0  0  0  0
   14.2464  -21.3537   27.1785 C   0  0  0  0  0  0  0  0  0  0  0  0
   15.5379  -21.7620   26.6582 N   0  0  0  0  0  0  0  0  0  0  0  0
   10.6378  -17.7999   28.4463 C   0  0  0  0  0  0  0  0  0  0  0  0
   10.7439  -18.8531   29.3250 O   0  0  0  0  0  0  0  0  0  0  0  0
   10.5899  -16.6435   28.9118 O   0  0  0  0  0  0  0  0  0  0  0  0
  2  1  1  6
  2  3  1  0
  3  4  1  0
  4  8  1  0
  5  4  2  0
  6  2  1  0
  7  6  2  0
  9 10  1  0
 10 11  1  0
 11 12  1  0
 13 12  1  1
 13 15  1  0
 13 14  1  0
 14  6  1  0
 15 16  2  0
 17 18  1  0
 17 15  1  0
 19 20  1  0
 18 19  1  6
 21 20  1  0
 22 21  1  0
 23 22  1  0
 24 18  1  0
 25 24  1  0
 26 24  2  0
M  END
$$$$
