DMK.pdb
     RDKit          3D

 26 25  0  0  1  0  0  0  0  0999 V2000
    8.3887  -16.9631   20.7857 N   0  0  0  0  0  0  0  0  0  0  0  0
    9.7399  -16.6133   21.1368 C   0  0  1  0  0  0  0  0  0  0  0  0
   10.1997  -15.5753   20.1102 C   0  0  0  0  0  0  0  0  0  0  0  0
   10.7515  -16.3192   18.9594 C   0  0  0  0  0  0  0  0  0  0  0  0
    9.9808  -17.0000   18.2485 O   0  0  0  0  0  0  0  0  0  0  0  0
    9.8432  -16.0746   22.5164 C   0  0  0  0  0  0  0  0  0  0  0  0
   10.9604  -15.7985   23.0264 O   0  0  0  0  0  0  0  0  0  0  0  0
   12.0932  -16.2791   18.6537 O   0  0  0  0  0  0  0  0  0  0  0  0
    6.8633  -11.1942   26.6372 C   0  0  0  0  0  0  0  0  0  0  0  0
    7.3516  -12.9264   26.6095 S   0  0  0  0  0  0  0  0  0  0  0  0
    6.8808  -13.6950   25.0121 C   0  0  0  0  0  0  0  0  0  0  0  0
    7.2201  -15.1529   24.9818 C   0  0  0  0  0  0  0  0  0  0  0  0
    8.6619  -15.4717   24.6720 C   0  0  2  0  0  0  0  0  0  0  0  0
    8.6492  -15.8757   23.2538 N   0  0  0  0  0  0  0  0  0  0  0  0
    9.1362  -16.5539   25.5205 C   0  0  0  0  0  0  0  0  0  0  0  0
    8.4714  -17.6557   25.4776 O   0  0  0  0  0  0  0  0  0  0  0  0
   10.2366  -16.5813   26.3941 N   0  0  0  0  0  0  0  0  0  0  0  0
   10.6716  -17.8287   27.0727 C   0  0  1  0  0  0  0  0  0  0  0  0
   12.0245  -18.2261   26.5241 C   0  0  0  0  0  0  0  0  0  0  0  0
   12.5659  -19.4316   27.2081 C   0  0  0  0  0  0  0  0  0  0  0  0
   13.9412  -19.8050   26.6396 C   0  0  0  0  0  0  0  0  0  0  0  0
   14.4614  -20.9960   27.4393 C   0  0  0  0  0  0  0  0  0  0  0  0
   15.7624  -21.3937   26.9347 N   0  0  0  0  0  0  0  0  0  0  0  0
   10.7940  -17.5245   28.4963 C   0  0  0  0  0  0  0  0  0  0  0  0
   11.0429  -18.5180   29.4148 O   0  0  0  0  0  0  0  0  0  0  0  0
   10.6743  -16.3534   28.9092 O   0  0  0  0  0  0  0  0  0  0  0  0
  2  1  1  6
  2  3  1  0
  3  4  1  0
  4  8  1  0
  5  4  2  0
  6  2  1  0
  7  6  2  0
  9 10  1  0
 10 11  1  0
 11 12  1  0
 13 12  1  1
 13 15  1  0
 13 14  1  0
 14  6  1  0
 15 16  2  0
 17 18  1  0
 17 15  1  0
 19 20  1  0
 18 19  1  6
 21 20  1  0
 22 21  1  0
 23 22  1  0
 24 18  1  0
 25 24  1  0
 26 24  2  0
M  END
$$$$
