DMK.pdb
     RDKit          3D

 26 25  0  0  1  0  0  0  0  0999 V2000
    8.5253  -18.9140   17.7508 N   0  0  0  0  0  0  0  0  0  0  0  0
    9.9166  -18.9570   18.1166 C   0  0  1  0  0  0  0  0  0  0  0  0
   10.7109  -18.8669   16.8114 C   0  0  0  0  0  0  0  0  0  0  0  0
    9.7537  -18.5056   15.7458 C   0  0  0  0  0  0  0  0  0  0  0  0
    8.6350  -19.0630   15.7178 O   0  0  0  0  0  0  0  0  0  0  0  0
   10.2914  -17.8573   19.0410 C   0  0  0  0  0  0  0  0  0  0  0  0
   11.4967  -17.6158   19.3118 O   0  0  0  0  0  0  0  0  0  0  0  0
   10.0663  -17.5704   14.7852 O   0  0  0  0  0  0  0  0  0  0  0  0
    7.2728  -11.9763   19.5374 C   0  0  0  0  0  0  0  0  0  0  0  0
    7.0879  -12.7348   21.1593 S   0  0  0  0  0  0  0  0  0  0  0  0
    8.4541  -13.9189   21.4676 C   0  0  0  0  0  0  0  0  0  0  0  0
    8.4458  -15.0394   20.4746 C   0  0  0  0  0  0  0  0  0  0  0  0
    9.5207  -16.0801   20.6697 C   0  0  2  0  0  0  0  0  0  0  0  0
    9.2568  -17.0785   19.6169 N   0  0  0  0  0  0  0  0  0  0  0  0
    9.4173  -16.6748   21.9932 C   0  0  0  0  0  0  0  0  0  0  0  0
    8.4783  -17.5385   22.1669 O   0  0  0  0  0  0  0  0  0  0  0  0
   10.2073  -16.4489   23.1333 N   0  0  0  0  0  0  0  0  0  0  0  0
   10.7027  -17.5635   23.9806 C   0  0  1  0  0  0  0  0  0  0  0  0
   11.6542  -18.4046   23.1581 C   0  0  0  0  0  0  0  0  0  0  0  0
   12.3270  -19.4444   23.9829 C   0  0  0  0  0  0  0  0  0  0  0  0
   12.0868  -20.8411   23.3952 C   0  0  0  0  0  0  0  0  0  0  0  0
   12.8138  -21.8455   24.2847 C   0  0  0  0  0  0  0  0  0  0  0  0
   12.5955  -23.1900   23.7846 N   0  0  0  0  0  0  0  0  0  0  0  0
   11.4257  -16.9650   25.1002 C   0  0  0  0  0  0  0  0  0  0  0  0
   11.4124  -17.5485   26.3460 O   0  0  0  0  0  0  0  0  0  0  0  0
   12.0718  -15.9087   24.9484 O   0  0  0  0  0  0  0  0  0  0  0  0
  2  1  1  6
  2  3  1  0
  3  4  1  0
  4  8  1  0
  5  4  2  0
  6  2  1  0
  7  6  2  0
  9 10  1  0
 10 11  1  0
 11 12  1  0
 13 12  1  1
 13 15  1  0
 13 14  1  0
 14  6  1  0
 15 16  2  0
 17 18  1  0
 17 15  1  0
 19 20  1  0
 18 19  1  6
 21 20  1  0
 22 21  1  0
 23 22  1  0
 24 18  1  0
 25 24  1  0
 26 24  2  0
M  END
$$$$
