DMK.pdb
     RDKit          3D

 26 25  0  0  1  0  0  0  0  0999 V2000
    9.1866  -16.1451   19.5384 N   0  0  0  0  0  0  0  0  0  0  0  0
    8.5752  -16.6700   20.7309 C   0  0  1  0  0  0  0  0  0  0  0  0
    8.8308  -18.1791   20.7209 C   0  0  0  0  0  0  0  0  0  0  0  0
    8.0943  -18.7356   19.5676 C   0  0  0  0  0  0  0  0  0  0  0  0
    6.9784  -19.2665   19.7567 O   0  0  0  0  0  0  0  0  0  0  0  0
    9.1200  -16.0493   21.9646 C   0  0  0  0  0  0  0  0  0  0  0  0
   10.3565  -16.0433   22.1999 O   0  0  0  0  0  0  0  0  0  0  0  0
    8.6092  -18.6822   18.2920 O   0  0  0  0  0  0  0  0  0  0  0  0
    6.4149  -11.4066   27.8440 C   0  0  0  0  0  0  0  0  0  0  0  0
    6.1391  -12.3235   26.3198 S   0  0  0  0  0  0  0  0  0  0  0  0
    7.6202  -13.3204   25.8999 C   0  0  0  0  0  0  0  0  0  0  0  0
    7.4529  -14.0305   24.5924 C   0  0  0  0  0  0  0  0  0  0  0  0
    8.6678  -14.7833   24.1090 C   0  0  2  0  0  0  0  0  0  0  0  0
    8.2128  -15.4586   22.8794 N   0  0  0  0  0  0  0  0  0  0  0  0
    9.0976  -15.7489   25.1084 C   0  0  0  0  0  0  0  0  0  0  0  0
    8.2763  -16.7022   25.3816 O   0  0  0  0  0  0  0  0  0  0  0  0
   10.3011  -15.8034   25.8318 N   0  0  0  0  0  0  0  0  0  0  0  0
   10.6034  -16.9111   26.7738 C   0  0  1  0  0  0  0  0  0  0  0  0
   12.0382  -17.3423   26.5621 C   0  0  0  0  0  0  0  0  0  0  0  0
   12.2556  -17.8873   25.1947 C   0  0  0  0  0  0  0  0  0  0  0  0
   13.7176  -18.3130   25.0075 C   0  0  0  0  0  0  0  0  0  0  0  0
   13.8802  -18.7763   23.5627 C   0  0  0  0  0  0  0  0  0  0  0  0
   15.2837  -19.0114   23.2790 N   0  0  0  0  0  0  0  0  0  0  0  0
   10.4491  -16.3807   28.1263 C   0  0  0  0  0  0  0  0  0  0  0  0
   10.0873  -15.0702   28.3370 O   0  0  0  0  0  0  0  0  0  0  0  0
   10.6435  -17.1082   29.1209 O   0  0  0  0  0  0  0  0  0  0  0  0
  2  1  1  6
  2  3  1  0
  3  4  1  0
  4  8  1  0
  5  4  2  0
  6  2  1  0
  7  6  2  0
  9 10  1  0
 10 11  1  0
 11 12  1  0
 13 12  1  1
 13 15  1  0
 13 14  1  0
 14  6  1  0
 15 16  2  0
 17 18  1  0
 17 15  1  0
 19 20  1  0
 18 19  1  1
 21 20  1  0
 22 21  1  0
 23 22  1  0
 24 18  1  0
 25 24  1  0
 26 24  2  0
M  END
$$$$
