DMK.pdb
     RDKit          3D

 26 25  0  0  1  0  0  0  0  0999 V2000
    9.1187  -16.0141   19.7753 N   0  0  0  0  0  0  0  0  0  0  0  0
    8.2405  -16.1957   20.9010 C   0  0  1  0  0  0  0  0  0  0  0  0
    7.8727  -17.6811   20.9286 C   0  0  0  0  0  0  0  0  0  0  0  0
    7.2894  -18.0075   19.6111 C   0  0  0  0  0  0  0  0  0  0  0  0
    8.0003  -17.9035   18.5881 O   0  0  0  0  0  0  0  0  0  0  0  0
    8.8701  -15.7827   22.1805 C   0  0  0  0  0  0  0  0  0  0  0  0
   10.1014  -15.9465   22.3837 O   0  0  0  0  0  0  0  0  0  0  0  0
    5.9829  -18.4227   19.4861 O   0  0  0  0  0  0  0  0  0  0  0  0
    6.8019  -10.6700   26.2047 C   0  0  0  0  0  0  0  0  0  0  0  0
    6.5097  -12.2429   27.0297 S   0  0  0  0  0  0  0  0  0  0  0  0
    7.7532  -13.4815   26.4973 C   0  0  0  0  0  0  0  0  0  0  0  0
    7.4880  -13.9641   25.1050 C   0  0  0  0  0  0  0  0  0  0  0  0
    8.5762  -14.8174   24.5016 C   0  0  2  0  0  0  0  0  0  0  0  0
    8.0505  -15.1953   23.1766 N   0  0  0  0  0  0  0  0  0  0  0  0
    8.8150  -15.9927   25.3249 C   0  0  0  0  0  0  0  0  0  0  0  0
    7.8379  -16.8227   25.4444 O   0  0  0  0  0  0  0  0  0  0  0  0
    9.9768  -16.3702   26.0194 N   0  0  0  0  0  0  0  0  0  0  0  0
   10.0684  -17.6540   26.7604 C   0  0  1  0  0  0  0  0  0  0  0  0
   11.2901  -18.4023   26.2738 C   0  0  0  0  0  0  0  0  0  0  0  0
   11.0652  -19.0189   24.9384 C   0  0  0  0  0  0  0  0  0  0  0  0
   12.3383  -19.7171   24.4429 C   0  0  0  0  0  0  0  0  0  0  0  0
   12.0370  -20.2992   23.0649 C   0  0  0  0  0  0  0  0  0  0  0  0
   13.2408  -20.8873   22.5079 N   0  0  0  0  0  0  0  0  0  0  0  0
   10.2305  -17.3248   28.1744 C   0  0  0  0  0  0  0  0  0  0  0  0
   10.0553  -18.2795   29.1494 O   0  0  0  0  0  0  0  0  0  0  0  0
   10.5318  -16.1669   28.5275 O   0  0  0  0  0  0  0  0  0  0  0  0
  2  1  1  6
  2  3  1  0
  3  4  1  0
  4  8  1  0
  5  4  2  0
  6  2  1  0
  7  6  2  0
  9 10  1  0
 10 11  1  0
 11 12  1  0
 13 12  1  1
 13 15  1  0
 13 14  1  0
 14  6  1  0
 15 16  2  0
 17 18  1  0
 17 15  1  0
 19 20  1  0
 18 19  1  6
 21 20  1  0
 22 21  1  0
 23 22  1  0
 24 18  1  0
 25 24  1  0
 26 24  2  0
M  END
$$$$
