DMK.pdb
     RDKit          3D

 26 25  0  0  1  0  0  0  0  0999 V2000
    8.1216  -16.6993   20.8662 N   0  0  0  0  0  0  0  0  0  0  0  0
    9.4825  -16.3697   21.1989 C   0  0  1  0  0  0  0  0  0  0  0  0
    9.9138  -15.2725   20.2228 C   0  0  0  0  0  0  0  0  0  0  0  0
   10.0925  -15.9123   18.9033 C   0  0  0  0  0  0  0  0  0  0  0  0
    9.1417  -16.5511   18.4028 O   0  0  0  0  0  0  0  0  0  0  0  0
    9.6253  -15.9134   22.6045 C   0  0  0  0  0  0  0  0  0  0  0  0
   10.7266  -15.4911   23.0439 O   0  0  0  0  0  0  0  0  0  0  0  0
   11.2810  -15.8204   18.2147 O   0  0  0  0  0  0  0  0  0  0  0  0
    7.1821  -11.1057   26.4879 C   0  0  0  0  0  0  0  0  0  0  0  0
    7.7185  -12.8238   26.4683 S   0  0  0  0  0  0  0  0  0  0  0  0
    6.8212  -13.7559   25.1684 C   0  0  0  0  0  0  0  0  0  0  0  0
    7.1326  -15.2193   25.2264 C   0  0  0  0  0  0  0  0  0  0  0  0
    8.5520  -15.5895   24.8735 C   0  0  2  0  0  0  0  0  0  0  0  0
    8.4877  -15.9630   23.4483 N   0  0  0  0  0  0  0  0  0  0  0  0
    9.0026  -16.7074   25.6880 C   0  0  0  0  0  0  0  0  0  0  0  0
    8.2173  -17.7254   25.7573 O   0  0  0  0  0  0  0  0  0  0  0  0
   10.1928  -16.8498   26.4215 N   0  0  0  0  0  0  0  0  0  0  0  0
   10.5285  -18.1052   27.1404 C   0  0  1  0  0  0  0  0  0  0  0  0
   11.9518  -18.4876   26.7983 C   0  0  0  0  0  0  0  0  0  0  0  0
   12.3992  -19.6875   27.5560 C   0  0  0  0  0  0  0  0  0  0  0  0
   13.8717  -19.9985   27.2579 C   0  0  0  0  0  0  0  0  0  0  0  0
   14.2367  -21.2695   28.0194 C   0  0  0  0  0  0  0  0  0  0  0  0
   15.6252  -21.6084   27.7692 N   0  0  0  0  0  0  0  0  0  0  0  0
   10.4308  -17.8222   28.5703 C   0  0  0  0  0  0  0  0  0  0  0  0
   10.4398  -16.5290   29.0394 O   0  0  0  0  0  0  0  0  0  0  0  0
   10.3374  -18.7511   29.3977 O   0  0  0  0  0  0  0  0  0  0  0  0
  2  1  1  6
  2  3  1  0
  3  4  1  0
  4  8  1  0
  5  4  2  0
  6  2  1  0
  7  6  2  0
  9 10  1  0
 10 11  1  0
 11 12  1  0
 13 12  1  1
 13 15  1  0
 13 14  1  0
 14  6  1  0
 15 16  2  0
 17 18  1  0
 17 15  1  0
 19 20  1  0
 18 19  1  1
 21 20  1  0
 22 21  1  0
 23 22  1  0
 24 18  1  0
 25 24  1  0
 26 24  2  0
M  END
$$$$
