DMK.pdb
     RDKit          3D

 26 25  0  0  1  0  0  0  0  0999 V2000
    7.5542  -16.9509   20.8044 N   0  0  0  0  0  0  0  0  0  0  0  0
    8.9290  -16.5275   20.7589 C   0  0  1  0  0  0  0  0  0  0  0  0
    9.0359  -15.5249   19.6074 C   0  0  0  0  0  0  0  0  0  0  0  0
    9.3017  -16.3021   18.3795 C   0  0  0  0  0  0  0  0  0  0  0  0
   10.0881  -17.2725   18.4317 O   0  0  0  0  0  0  0  0  0  0  0  0
    9.3737  -15.9154   22.0363 C   0  0  0  0  0  0  0  0  0  0  0  0
   10.5895  -15.6738   22.2548 O   0  0  0  0  0  0  0  0  0  0  0  0
    8.7034  -15.9815   17.1819 O   0  0  0  0  0  0  0  0  0  0  0  0
    6.1101  -12.1843   27.0345 C   0  0  0  0  0  0  0  0  0  0  0  0
    7.4365  -11.8986   25.8519 S   0  0  0  0  0  0  0  0  0  0  0  0
    7.2954  -13.0646   24.4432 C   0  0  0  0  0  0  0  0  0  0  0  0
    7.4985  -14.4823   24.8799 C   0  0  0  0  0  0  0  0  0  0  0  0
    8.7546  -15.1405   24.3647 C   0  0  2  0  0  0  0  0  0  0  0  0
    8.3940  -15.6059   23.0127 N   0  0  0  0  0  0  0  0  0  0  0  0
    9.1306  -16.2558   25.2196 C   0  0  0  0  0  0  0  0  0  0  0  0
    8.2637  -17.1982   25.3547 O   0  0  0  0  0  0  0  0  0  0  0  0
   10.3240  -16.4677   25.9307 N   0  0  0  0  0  0  0  0  0  0  0  0
   10.5912  -17.7336   26.6600 C   0  0  1  0  0  0  0  0  0  0  0  0
   11.9897  -18.1982   26.3174 C   0  0  0  0  0  0  0  0  0  0  0  0
   12.3722  -19.4136   27.0858 C   0  0  0  0  0  0  0  0  0  0  0  0
   13.8316  -19.7948   26.8052 C   0  0  0  0  0  0  0  0  0  0  0  0
   14.1196  -21.0934   27.5531 C   0  0  0  0  0  0  0  0  0  0  0  0
   15.4923  -21.5002   27.3170 N   0  0  0  0  0  0  0  0  0  0  0  0
   10.5142  -17.4329   28.0875 C   0  0  0  0  0  0  0  0  0  0  0  0
   10.3922  -18.4385   29.0184 O   0  0  0  0  0  0  0  0  0  0  0  0
   10.5574  -16.2537   28.4925 O   0  0  0  0  0  0  0  0  0  0  0  0
  2  1  1  1
  2  3  1  0
  3  4  1  0
  4  8  1  0
  5  4  2  0
  6  2  1  0
  7  6  2  0
  9 10  1  0
 10 11  1  0
 11 12  1  0
 13 12  1  1
 13 15  1  0
 13 14  1  0
 14  6  1  0
 15 16  2  0
 17 18  1  0
 17 15  1  0
 19 20  1  0
 18 19  1  1
 21 20  1  0
 22 21  1  0
 23 22  1  0
 24 18  1  0
 25 24  1  0
 26 24  2  0
M  END
$$$$
