DMK.pdb
     RDKit          3D

 26 25  0  0  1  0  0  0  0  0999 V2000
    8.9424  -16.7911   20.6622 N   0  0  0  0  0  0  0  0  0  0  0  0
   10.1881  -16.8514   21.3806 C   0  0  1  0  0  0  0  0  0  0  0  0
   11.2607  -16.3060   20.4347 C   0  0  0  0  0  0  0  0  0  0  0  0
   11.3698  -17.2567   19.3093 C   0  0  0  0  0  0  0  0  0  0  0  0
   11.1799  -16.8452   18.1442 O   0  0  0  0  0  0  0  0  0  0  0  0
   10.1499  -16.0713   22.6432 C   0  0  0  0  0  0  0  0  0  0  0  0
   11.1964  -15.8572   23.3089 O   0  0  0  0  0  0  0  0  0  0  0  0
   11.6752  -18.5832   19.5154 O   0  0  0  0  0  0  0  0  0  0  0  0
    7.5279  -11.4289   27.5005 C   0  0  0  0  0  0  0  0  0  0  0  0
    8.1418  -12.4035   26.1173 S   0  0  0  0  0  0  0  0  0  0  0  0
    6.9127  -13.6794   25.6425 C   0  0  0  0  0  0  0  0  0  0  0  0
    7.3277  -14.4086   24.4024 C   0  0  0  0  0  0  0  0  0  0  0  0
    8.7291  -14.9670   24.4229 C   0  0  2  0  0  0  0  0  0  0  0  0
    8.9015  -15.5682   23.0874 N   0  0  0  0  0  0  0  0  0  0  0  0
    8.8612  -15.9690   25.4692 C   0  0  0  0  0  0  0  0  0  0  0  0
    7.9006  -16.8194   25.5795 O   0  0  0  0  0  0  0  0  0  0  0  0
    9.9028  -16.1569   26.3935 N   0  0  0  0  0  0  0  0  0  0  0  0
    9.9309  -17.3153   27.3225 C   0  0  1  0  0  0  0  0  0  0  0  0
   11.2789  -17.9922   27.2041 C   0  0  0  0  0  0  0  0  0  0  0  0
   11.3434  -18.8924   26.0210 C   0  0  0  0  0  0  0  0  0  0  0  0
   12.7252  -19.5507   25.9160 C   0  0  0  0  0  0  0  0  0  0  0  0
   12.6805  -20.5297   24.7463 C   0  0  0  0  0  0  0  0  0  0  0  0
   13.9800  -21.1536   24.5802 N   0  0  0  0  0  0  0  0  0  0  0  0
    9.7687  -16.7871   28.6749 C   0  0  0  0  0  0  0  0  0  0  0  0
    9.7312  -17.6265   29.7642 O   0  0  0  0  0  0  0  0  0  0  0  0
    9.6602  -15.5597   28.8696 O   0  0  0  0  0  0  0  0  0  0  0  0
  2  1  1  6
  2  3  1  0
  3  4  1  0
  4  8  1  0
  5  4  2  0
  6  2  1  0
  7  6  2  0
  9 10  1  0
 10 11  1  0
 11 12  1  0
 13 12  1  6
 13 15  1  0
 13 14  1  0
 14  6  1  0
 15 16  2  0
 17 18  1  0
 17 15  1  0
 19 20  1  0
 18 19  1  1
 21 20  1  0
 22 21  1  0
 23 22  1  0
 24 18  1  0
 25 24  1  0
 26 24  2  0
M  END
$$$$
