DMK.pdb
     RDKit          3D

 26 25  0  0  1  0  0  0  0  0999 V2000
    8.0968  -15.1703   19.5632 N   0  0  0  0  0  0  0  0  0  0  0  0
    7.8600  -16.1437   20.5966 C   0  0  1  0  0  0  0  0  0  0  0  0
    8.4988  -17.4493   20.1169 C   0  0  0  0  0  0  0  0  0  0  0  0
    7.8909  -17.7745   18.8103 C   0  0  0  0  0  0  0  0  0  0  0  0
    6.6584  -17.9730   18.7449 O   0  0  0  0  0  0  0  0  0  0  0  0
    8.4255  -15.7274   21.9046 C   0  0  0  0  0  0  0  0  0  0  0  0
    9.6487  -15.8747   22.1624 O   0  0  0  0  0  0  0  0  0  0  0  0
    8.6508  -17.8636   17.6659 O   0  0  0  0  0  0  0  0  0  0  0  0
    8.0040  -11.0331   25.5418 C   0  0  0  0  0  0  0  0  0  0  0  0
    6.8006  -11.9253   26.5397 S   0  0  0  0  0  0  0  0  0  0  0  0
    6.9744  -13.7327   26.2813 C   0  0  0  0  0  0  0  0  0  0  0  0
    6.8177  -14.0998   24.8382 C   0  0  0  0  0  0  0  0  0  0  0  0
    8.0161  -14.7675   24.2104 C   0  0  2  0  0  0  0  0  0  0  0  0
    7.5538  -15.1559   22.8649 N   0  0  0  0  0  0  0  0  0  0  0  0
    8.4115  -15.9336   24.9851 C   0  0  0  0  0  0  0  0  0  0  0  0
    7.5563  -16.8931   25.0624 O   0  0  0  0  0  0  0  0  0  0  0  0
    9.6128  -16.1789   25.6716 N   0  0  0  0  0  0  0  0  0  0  0  0
    9.9187  -17.5015   26.2742 C   0  0  1  0  0  0  0  0  0  0  0  0
   11.2592  -17.9684   25.7506 C   0  0  0  0  0  0  0  0  0  0  0  0
   11.1563  -19.2843   25.0634 C   0  0  0  0  0  0  0  0  0  0  0  0
   12.5241  -19.7216   24.5233 C   0  0  0  0  0  0  0  0  0  0  0  0
   12.3505  -21.1009   23.8941 C   0  0  0  0  0  0  0  0  0  0  0  0
   13.5502  -21.4590   23.1608 N   0  0  0  0  0  0  0  0  0  0  0  0
   10.0016  -17.3074   27.7198 C   0  0  0  0  0  0  0  0  0  0  0  0
   10.1226  -18.3794   28.5734 O   0  0  0  0  0  0  0  0  0  0  0  0
    9.9640  -16.1612   28.2110 O   0  0  0  0  0  0  0  0  0  0  0  0
  2  1  1  6
  2  3  1  0
  3  4  1  0
  4  8  1  0
  5  4  2  0
  6  2  1  0
  7  6  2  0
  9 10  1  0
 10 11  1  0
 11 12  1  0
 13 12  1  1
 13 15  1  0
 13 14  1  0
 14  6  1  0
 15 16  2  0
 17 18  1  0
 17 15  1  0
 19 20  1  0
 18 19  1  6
 21 20  1  0
 22 21  1  0
 23 22  1  0
 24 18  1  0
 25 24  1  0
 26 24  2  0
M  END
$$$$
