DMK.pdb
     RDKit          3D

 26 25  0  0  1  0  0  0  0  0999 V2000
    7.4186  -16.4082   20.0464 N   0  0  0  0  0  0  0  0  0  0  0  0
    8.8096  -16.6244   20.3462 C   0  0  1  0  0  0  0  0  0  0  0  0
    9.5891  -16.2423   19.0856 C   0  0  0  0  0  0  0  0  0  0  0  0
    9.0554  -17.0645   17.9804 C   0  0  0  0  0  0  0  0  0  0  0  0
    9.2278  -18.3024   18.0045 O   0  0  0  0  0  0  0  0  0  0  0  0
    9.2661  -15.8272   21.5125 C   0  0  0  0  0  0  0  0  0  0  0  0
   10.4903  -15.6272   21.7262 O   0  0  0  0  0  0  0  0  0  0  0  0
    8.3739  -16.4981   16.9269 O   0  0  0  0  0  0  0  0  0  0  0  0
    6.5243  -11.7705   27.5936 C   0  0  0  0  0  0  0  0  0  0  0  0
    6.4466  -13.0107   26.2914 S   0  0  0  0  0  0  0  0  0  0  0  0
    7.7364  -12.6887   25.0279 C   0  0  0  0  0  0  0  0  0  0  0  0
    7.5697  -13.5754   23.8330 C   0  0  0  0  0  0  0  0  0  0  0  0
    8.6499  -14.6118   23.6453 C   0  0  2  0  0  0  0  0  0  0  0  0
    8.2882  -15.2915   22.3875 N   0  0  0  0  0  0  0  0  0  0  0  0
    8.6577  -15.5450   24.7612 C   0  0  0  0  0  0  0  0  0  0  0  0
    7.6626  -16.3581   24.8415 O   0  0  0  0  0  0  0  0  0  0  0  0
    9.6097  -15.7004   25.7832 N   0  0  0  0  0  0  0  0  0  0  0  0
    9.7900  -16.9879   26.5012 C   0  0  1  0  0  0  0  0  0  0  0  0
   10.5662  -17.9305   25.6078 C   0  0  0  0  0  0  0  0  0  0  0  0
   11.9793  -17.4953   25.4404 C   0  0  0  0  0  0  0  0  0  0  0  0
   12.7027  -18.3848   24.4209 C   0  0  0  0  0  0  0  0  0  0  0  0
   14.1150  -17.8330   24.2495 C   0  0  0  0  0  0  0  0  0  0  0  0
   14.8754  -18.6991   23.3681 N   0  0  0  0  0  0  0  0  0  0  0  0
   10.5693  -16.7048   27.7041 C   0  0  0  0  0  0  0  0  0  0  0  0
   10.8281  -17.6895   28.6293 O   0  0  0  0  0  0  0  0  0  0  0  0
   11.0172  -15.5602   27.9172 O   0  0  0  0  0  0  0  0  0  0  0  0
  2  1  1  6
  2  3  1  0
  3  4  1  0
  4  8  1  0
  5  4  2  0
  6  2  1  0
  7  6  2  0
  9 10  1  0
 10 11  1  0
 11 12  1  0
 13 12  1  1
 13 15  1  0
 13 14  1  0
 14  6  1  0
 15 16  2  0
 17 18  1  0
 17 15  1  0
 19 20  1  0
 18 19  1  6
 21 20  1  0
 22 21  1  0
 23 22  1  0
 24 18  1  0
 25 24  1  0
 26 24  2  0
M  END
$$$$
