DMK.pdb
     RDKit          3D

 26 25  0  0  1  0  0  0  0  0999 V2000
    7.8364  -16.7860   20.5719 N   0  0  0  0  0  0  0  0  0  0  0  0
    9.2406  -16.6076   20.8326 C   0  0  1  0  0  0  0  0  0  0  0  0
    9.7721  -15.6863   19.7321 C   0  0  0  0  0  0  0  0  0  0  0  0
    9.6867  -16.4351   18.4615 C   0  0  0  0  0  0  0  0  0  0  0  0
    9.9775  -17.6509   18.4507 O   0  0  0  0  0  0  0  0  0  0  0  0
    9.4962  -16.0294   22.1759 C   0  0  0  0  0  0  0  0  0  0  0  0
   10.6438  -15.6320   22.5068 O   0  0  0  0  0  0  0  0  0  0  0  0
    9.2947  -15.8242   17.2917 O   0  0  0  0  0  0  0  0  0  0  0  0
    6.9012  -10.9147   26.1969 C   0  0  0  0  0  0  0  0  0  0  0  0
    7.2285  -12.6749   26.3828 S   0  0  0  0  0  0  0  0  0  0  0  0
    7.0277  -13.5329   24.7743 C   0  0  0  0  0  0  0  0  0  0  0  0
    7.2401  -15.0090   24.9078 C   0  0  0  0  0  0  0  0  0  0  0  0
    8.6010  -15.5041   24.4842 C   0  0  2  0  0  0  0  0  0  0  0  0
    8.4137  -15.9328   23.0856 N   0  0  0  0  0  0  0  0  0  0  0  0
    9.0195  -16.6174   25.3216 C   0  0  0  0  0  0  0  0  0  0  0  0
    8.1822  -17.5863   25.4558 O   0  0  0  0  0  0  0  0  0  0  0  0
   10.2270  -16.8022   26.0164 N   0  0  0  0  0  0  0  0  0  0  0  0
   10.4927  -18.0213   26.8219 C   0  0  1  0  0  0  0  0  0  0  0  0
   11.9271  -18.4443   26.5925 C   0  0  0  0  0  0  0  0  0  0  0  0
   12.1880  -18.7612   25.1623 C   0  0  0  0  0  0  0  0  0  0  0  0
   13.6795  -19.0374   24.9321 C   0  0  0  0  0  0  0  0  0  0  0  0
   13.8684  -19.3346   23.4473 C   0  0  0  0  0  0  0  0  0  0  0  0
   15.2796  -19.5090   23.1586 N   0  0  0  0  0  0  0  0  0  0  0  0
   10.3107  -17.6585   28.2253 C   0  0  0  0  0  0  0  0  0  0  0  0
   10.3987  -18.6052   29.2196 O   0  0  0  0  0  0  0  0  0  0  0  0
   10.0706  -16.4785   28.5513 O   0  0  0  0  0  0  0  0  0  0  0  0
  2  1  1  6
  2  3  1  0
  3  4  1  0
  4  8  1  0
  5  4  2  0
  6  2  1  0
  7  6  2  0
  9 10  1  0
 10 11  1  0
 11 12  1  0
 13 12  1  1
 13 15  1  0
 13 14  1  0
 14  6  1  0
 15 16  2  0
 17 18  1  0
 17 15  1  0
 19 20  1  0
 18 19  1  1
 21 20  1  0
 22 21  1  0
 23 22  1  0
 24 18  1  0
 25 24  1  0
 26 24  2  0
M  END
$$$$
