DMK.pdb
     RDKit          3D

 26 25  0  0  1  0  0  0  0  0999 V2000
    7.8917  -16.7691   20.7820 N   0  0  0  0  0  0  0  0  0  0  0  0
    9.2894  -16.5936   21.0773 C   0  0  1  0  0  0  0  0  0  0  0  0
    9.8745  -15.7676   19.9292 C   0  0  0  0  0  0  0  0  0  0  0  0
    9.9758  -16.6633   18.7588 C   0  0  0  0  0  0  0  0  0  0  0  0
    9.5287  -17.8277   18.8431 O   0  0  0  0  0  0  0  0  0  0  0  0
    9.5104  -15.9184   22.3809 C   0  0  0  0  0  0  0  0  0  0  0  0
   10.6706  -15.6425   22.7836 O   0  0  0  0  0  0  0  0  0  0  0  0
   10.5506  -16.2444   17.5802 O   0  0  0  0  0  0  0  0  0  0  0  0
    7.9377  -11.3324   26.9127 C   0  0  0  0  0  0  0  0  0  0  0  0
    6.5258  -12.2658   26.3001 S   0  0  0  0  0  0  0  0  0  0  0  0
    6.9172  -14.0571   26.2571 C   0  0  0  0  0  0  0  0  0  0  0  0
    7.1050  -14.5458   24.8544 C   0  0  0  0  0  0  0  0  0  0  0  0
    8.5076  -14.9793   24.5065 C   0  0  2  0  0  0  0  0  0  0  0  0
    8.3799  -15.5880   23.1693 N   0  0  0  0  0  0  0  0  0  0  0  0
    8.9959  -15.9461   25.4775 C   0  0  0  0  0  0  0  0  0  0  0  0
    8.3309  -17.0435   25.5849 O   0  0  0  0  0  0  0  0  0  0  0  0
   10.1100  -15.8646   26.3300 N   0  0  0  0  0  0  0  0  0  0  0  0
   10.5491  -17.0131   27.1630 C   0  0  1  0  0  0  0  0  0  0  0  0
   11.9422  -17.4145   26.7300 C   0  0  0  0  0  0  0  0  0  0  0  0
   12.4479  -18.5794   27.5055 C   0  0  0  0  0  0  0  0  0  0  0  0
   13.8570  -18.9691   27.0402 C   0  0  0  0  0  0  0  0  0  0  0  0
   14.2947  -20.1781   27.8620 C   0  0  0  0  0  0  0  0  0  0  0  0
   15.6353  -20.5746   27.4737 N   0  0  0  0  0  0  0  0  0  0  0  0
   10.5841  -16.5518   28.5487 C   0  0  0  0  0  0  0  0  0  0  0  0
   10.4315  -15.2197   28.8567 O   0  0  0  0  0  0  0  0  0  0  0  0
   10.7542  -17.3596   29.4840 O   0  0  0  0  0  0  0  0  0  0  0  0
  2  1  1  6
  2  3  1  0
  3  4  1  0
  4  8  1  0
  5  4  2  0
  6  2  1  0
  7  6  2  0
  9 10  1  0
 10 11  1  0
 11 12  1  0
 13 12  1  1
 13 15  1  0
 13 14  1  0
 14  6  1  0
 15 16  2  0
 17 18  1  0
 17 15  1  0
 19 20  1  0
 18 19  1  6
 21 20  1  0
 22 21  1  0
 23 22  1  0
 24 18  1  0
 25 24  1  0
 26 24  2  0
M  END
$$$$
