DMK.pdb
     RDKit          3D

 26 25  0  0  1  0  0  0  0  0999 V2000
    7.4019  -16.1964   20.2648 N   0  0  0  0  0  0  0  0  0  0  0  0
    8.8207  -16.1686   20.5048 C   0  0  1  0  0  0  0  0  0  0  0  0
    9.4279  -15.2857   19.4118 C   0  0  0  0  0  0  0  0  0  0  0  0
    9.3603  -16.0507   18.1498 C   0  0  0  0  0  0  0  0  0  0  0  0
    8.4494  -15.7967   17.3321 O   0  0  0  0  0  0  0  0  0  0  0  0
    9.1550  -15.6459   21.8535 C   0  0  0  0  0  0  0  0  0  0  0  0
   10.3447  -15.6125   22.2632 O   0  0  0  0  0  0  0  0  0  0  0  0
   10.2767  -17.0349   17.8555 O   0  0  0  0  0  0  0  0  0  0  0  0
    8.1048  -11.5114   26.9910 C   0  0  0  0  0  0  0  0  0  0  0  0
    6.5810  -12.2548   26.3865 S   0  0  0  0  0  0  0  0  0  0  0  0
    6.8451  -14.0300   26.0085 C   0  0  0  0  0  0  0  0  0  0  0  0
    6.9780  -14.2651   24.5359 C   0  0  0  0  0  0  0  0  0  0  0  0
    8.3109  -14.8134   24.0896 C   0  0  2  0  0  0  0  0  0  0  0  0
    8.0994  -15.1812   22.6773 N   0  0  0  0  0  0  0  0  0  0  0  0
    8.6736  -15.9762   24.8849 C   0  0  0  0  0  0  0  0  0  0  0  0
    7.8113  -16.9309   24.9393 O   0  0  0  0  0  0  0  0  0  0  0  0
    9.8496  -16.2230   25.6135 N   0  0  0  0  0  0  0  0  0  0  0  0
   10.1053  -17.5272   26.2764 C   0  0  1  0  0  0  0  0  0  0  0  0
   11.3534  -18.1345   25.6740 C   0  0  0  0  0  0  0  0  0  0  0  0
   11.7102  -19.4241   26.3250 C   0  0  0  0  0  0  0  0  0  0  0  0
   12.9866  -20.0083   25.7059 C   0  0  0  0  0  0  0  0  0  0  0  0
   13.2722  -21.3338   26.4060 C   0  0  0  0  0  0  0  0  0  0  0  0
   14.3637  -22.0160   25.7362 N   0  0  0  0  0  0  0  0  0  0  0  0
   10.3325  -17.2531   27.6932 C   0  0  0  0  0  0  0  0  0  0  0  0
   10.7436  -16.0109   28.1182 O   0  0  0  0  0  0  0  0  0  0  0  0
   10.1581  -18.1436   28.5494 O   0  0  0  0  0  0  0  0  0  0  0  0
  2  1  1  6
  2  3  1  0
  3  4  1  0
  4  8  1  0
  5  4  2  0
  6  2  1  0
  7  6  2  0
  9 10  1  0
 10 11  1  0
 11 12  1  0
 13 12  1  1
 13 15  1  0
 13 14  1  0
 14  6  1  0
 15 16  2  0
 17 18  1  0
 17 15  1  0
 19 20  1  0
 18 19  1  6
 21 20  1  0
 22 21  1  0
 23 22  1  0
 24 18  1  0
 25 24  1  0
 26 24  2  0
M  END
$$$$
