PEH.pdb
     RDKit          3D

 27 28  0  0  1  0  0  0  0  0999 V2000
    8.6998  -13.8375   20.1531 N   0  0  0  0  0  0  0  0  0  0  0  0
    8.6798  -12.7287   19.2518 C   0  0  0  0  0  0  0  0  0  0  0  0
    7.6399  -12.9641   18.1950 C   0  0  0  0  0  0  0  0  0  0  0  0
    7.2589  -14.3958   18.3652 C   0  0  0  0  0  0  0  0  0  0  0  0
    7.6369  -14.7204   19.7703 C   0  0  1  0  0  0  0  0  0  0  0  0
    8.0817  -16.1605   19.8084 C   0  0  0  0  0  0  0  0  0  0  0  0
    7.5865  -17.0288   19.0481 O   0  0  0  0  0  0  0  0  0  0  0  0
    9.0876  -16.5923   20.7163 N   0  0  0  0  0  0  0  0  0  0  0  0
   10.3551  -17.1920   20.2914 C   0  0  1  0  0  0  0  0  0  0  0  0
   10.5693  -17.0190   18.8357 C   0  0  0  0  0  0  0  0  0  0  0  0
   10.3891  -18.2422   17.9879 C   0  0  0  0  0  0  0  0  0  0  0  0
   11.6809  -18.6134   17.3278 C   0  0  0  0  0  0  0  0  0  0  0  0
   12.0594  -17.9277   16.3563 O   0  0  0  0  0  0  0  0  0  0  0  0
   11.4793  -16.6364   21.0685 C   0  0  0  0  0  0  0  0  0  0  0  0
   12.6491  -16.9294   20.7301 O   0  0  0  0  0  0  0  0  0  0  0  0
   12.4179  -19.6701   17.7791 O   0  0  0  0  0  0  0  0  0  0  0  0
   11.3287  -15.7917   22.1751 N   0  0  0  0  0  0  0  0  0  0  0  0
   11.6154  -16.3122   23.5088 C   0  0  1  0  0  0  0  0  0  0  0  0
   10.4942  -17.1428   24.0296 C   0  0  0  0  0  0  0  0  0  0  0  0
   10.8015  -17.6435   25.3769 C   0  0  0  0  0  0  0  0  0  0  0  0
   10.7374  -16.8732   26.5436 C   0  0  0  0  0  0  0  0  0  0  0  0
   11.0769  -17.6316   27.5950 N   0  0  0  0  0  0  0  0  0  0  0  0
   11.3565  -18.8602   27.1473 C   0  0  0  0  0  0  0  0  0  0  0  0
   11.1860  -18.8579   25.7946 N   0  0  0  0  0  0  0  0  0  0  0  0
   12.8678  -17.0981   23.4963 C   0  0  0  0  0  0  0  0  0  0  0  0
   13.9233  -16.6341   23.9412 O   0  0  0  0  0  0  0  0  0  0  0  0
   12.8386  -18.4015   22.9619 O   0  0  0  0  0  0  0  0  0  0  0  0
  1  2  1  0
  1  5  1  0
  2  3  1  0
  3  4  1  0
  5  4  1  0
  5  6  1  6
  6  7  2  0
  8  6  1  0
  9  8  1  0
  9 10  1  6
 11 10  1  0
 12 11  1  0
 12 13  2  0
 14  9  1  0
 15 14  2  0
 16 12  1  0
 17 14  1  0
 18 25  1  0
 18 17  1  0
 19 20  1  0
 18 19  1  6
 20 21  2  0
 22 21  1  0
 23 22  1  0
 24 23  2  0
 24 20  1  0
 25 27  1  0
 26 25  2  0
M  END
$$$$
