PEH.pdb
     RDKit          3D

 27 28  0  0  1  0  0  0  0  0999 V2000
    9.1667  -14.0667   18.9751 N   0  0  0  0  0  0  0  0  0  0  0  0
    8.4486  -13.6053   17.8289 C   0  0  0  0  0  0  0  0  0  0  0  0
    7.2304  -12.8498   18.2749 C   0  0  0  0  0  0  0  0  0  0  0  0
    7.1273  -13.1443   19.7332 C   0  0  0  0  0  0  0  0  0  0  0  0
    8.5073  -13.5407   20.1345 C   0  0  1  0  0  0  0  0  0  0  0  0
    8.3921  -14.5828   21.2181 C   0  0  0  0  0  0  0  0  0  0  0  0
    7.6626  -14.4145   22.2264 O   0  0  0  0  0  0  0  0  0  0  0  0
    9.1132  -15.8059   21.1371 N   0  0  0  0  0  0  0  0  0  0  0  0
    8.9188  -16.9208   22.0677 C   0  0  1  0  0  0  0  0  0  0  0  0
    9.7386  -18.0924   21.6805 C   0  0  0  0  0  0  0  0  0  0  0  0
    9.6459  -19.2925   22.5742 C   0  0  0  0  0  0  0  0  0  0  0  0
   10.5395  -20.3848   22.0737 C   0  0  0  0  0  0  0  0  0  0  0  0
   10.2460  -20.9299   20.9901 O   0  0  0  0  0  0  0  0  0  0  0  0
    9.2067  -16.4988   23.4517 C   0  0  0  0  0  0  0  0  0  0  0  0
   10.1423  -15.6908   23.6533 O   0  0  0  0  0  0  0  0  0  0  0  0
   11.6397  -20.7686   22.7847 O   0  0  0  0  0  0  0  0  0  0  0  0
    8.4969  -16.9447   24.5734 N   0  0  0  0  0  0  0  0  0  0  0  0
    8.7812  -16.3487   25.8756 C   0  0  1  0  0  0  0  0  0  0  0  0
    7.5317  -15.9984   26.6066 C   0  0  0  0  0  0  0  0  0  0  0  0
    7.0775  -14.6491   26.2412 C   0  0  0  0  0  0  0  0  0  0  0  0
    7.8120  -13.7484   25.4616 C   0  0  0  0  0  0  0  0  0  0  0  0
    7.1128  -12.6144   25.3170 N   0  0  0  0  0  0  0  0  0  0  0  0
    5.9567  -12.7531   25.9743 C   0  0  0  0  0  0  0  0  0  0  0  0
    5.9440  -13.9961   26.5343 N   0  0  0  0  0  0  0  0  0  0  0  0
    9.6082  -17.2637   26.6910 C   0  0  0  0  0  0  0  0  0  0  0  0
    9.9384  -16.9757   27.8466 O   0  0  0  0  0  0  0  0  0  0  0  0
   10.0197  -18.4855   26.1222 O   0  0  0  0  0  0  0  0  0  0  0  0
  1  2  1  0
  1  5  1  0
  2  3  1  0
  3  4  1  0
  5  4  1  0
  5  6  1  1
  6  7  2  0
  8  6  1  0
  9  8  1  0
  9 10  1  6
 11 10  1  0
 12 11  1  0
 12 13  2  0
 14  9  1  0
 15 14  2  0
 16 12  1  0
 17 14  1  0
 18 25  1  0
 18 17  1  0
 19 20  1  0
 18 19  1  1
 20 21  2  0
 22 21  1  0
 23 22  1  0
 24 23  2  0
 24 20  1  0
 25 27  1  0
 26 25  2  0
M  END
$$$$
