PEH.pdb
     RDKit          3D

 27 28  0  0  1  0  0  0  0  0999 V2000
    9.4870  -14.2705   18.8055 N   0  0  0  0  0  0  0  0  0  0  0  0
    9.0255  -13.8949   17.5061 C   0  0  0  0  0  0  0  0  0  0  0  0
    7.7076  -13.1869   17.6307 C   0  0  0  0  0  0  0  0  0  0  0  0
    7.2925  -13.4263   19.0428 C   0  0  0  0  0  0  0  0  0  0  0  0
    8.5627  -13.7328   19.7606 C   0  0  1  0  0  0  0  0  0  0  0  0
    8.2514  -14.7341   20.8440 C   0  0  0  0  0  0  0  0  0  0  0  0
    7.2901  -14.5773   21.6367 O   0  0  0  0  0  0  0  0  0  0  0  0
    9.0434  -15.9037   21.0094 N   0  0  0  0  0  0  0  0  0  0  0  0
    8.7076  -16.9804   21.9445 C   0  0  1  0  0  0  0  0  0  0  0  0
    9.3342  -18.2597   21.5377 C   0  0  0  0  0  0  0  0  0  0  0  0
   10.8269  -18.2534   21.3987 C   0  0  0  0  0  0  0  0  0  0  0  0
   11.3204  -19.6155   21.0199 C   0  0  0  0  0  0  0  0  0  0  0  0
   11.0949  -20.5586   21.8055 O   0  0  0  0  0  0  0  0  0  0  0  0
    9.0883  -16.6108   23.3211 C   0  0  0  0  0  0  0  0  0  0  0  0
   10.1409  -15.9561   23.5002 O   0  0  0  0  0  0  0  0  0  0  0  0
   11.9954  -19.8139   19.8500 O   0  0  0  0  0  0  0  0  0  0  0  0
    8.3447  -16.9458   24.4593 N   0  0  0  0  0  0  0  0  0  0  0  0
    8.8529  -16.5680   25.7750 C   0  0  1  0  0  0  0  0  0  0  0  0
    7.7818  -15.9938   26.6361 C   0  0  0  0  0  0  0  0  0  0  0  0
    7.4650  -14.6192   26.2232 C   0  0  0  0  0  0  0  0  0  0  0  0
    8.1835  -13.8920   25.2674 C   0  0  0  0  0  0  0  0  0  0  0  0
    7.6327  -12.6785   25.1272 N   0  0  0  0  0  0  0  0  0  0  0  0
    6.5872  -12.5990   25.9570 C   0  0  0  0  0  0  0  0  0  0  0  0
    6.4928  -13.7862   26.6208 N   0  0  0  0  0  0  0  0  0  0  0  0
    9.4717  -17.7335   26.4418 C   0  0  0  0  0  0  0  0  0  0  0  0
    9.5080  -18.8424   25.8972 O   0  0  0  0  0  0  0  0  0  0  0  0
   10.0266  -17.5580   27.7251 O   0  0  0  0  0  0  0  0  0  0  0  0
  1  2  1  0
  1  5  1  0
  2  3  1  0
  3  4  1  0
  5  4  1  0
  5  6  1  1
  6  7  2  0
  8  6  1  0
  9  8  1  0
  9 10  1  6
 11 10  1  0
 12 11  1  0
 12 13  2  0
 14  9  1  0
 15 14  2  0
 16 12  1  0
 17 14  1  0
 18 25  1  0
 18 17  1  0
 19 20  1  0
 18 19  1  1
 20 21  2  0
 22 21  1  0
 23 22  1  0
 24 23  2  0
 24 20  1  0
 25 27  1  0
 26 25  2  0
M  END
$$$$
