PEH.pdb
     RDKit          3D

 27 28  0  0  1  0  0  0  0  0999 V2000
    9.4661  -14.1005   19.4090 N   0  0  0  0  0  0  0  0  0  0  0  0
    8.9501  -13.6164   18.1673 C   0  0  0  0  0  0  0  0  0  0  0  0
    7.6257  -12.9505   18.4038 C   0  0  0  0  0  0  0  0  0  0  0  0
    7.2677  -13.3276   19.8015 C   0  0  0  0  0  0  0  0  0  0  0  0
    8.5689  -13.6725   20.4421 C   0  0  1  0  0  0  0  0  0  0  0  0
    8.3157  -14.7757   21.4382 C   0  0  0  0  0  0  0  0  0  0  0  0
    7.3862  -14.7097   22.2801 O   0  0  0  0  0  0  0  0  0  0  0  0
    9.1288  -15.9423   21.4610 N   0  0  0  0  0  0  0  0  0  0  0  0
    9.0100  -16.9893   22.4789 C   0  0  1  0  0  0  0  0  0  0  0  0
    9.8281  -18.1737   22.1288 C   0  0  0  0  0  0  0  0  0  0  0  0
    9.7158  -19.3535   23.0469 C   0  0  0  0  0  0  0  0  0  0  0  0
   10.5823  -20.4746   22.5627 C   0  0  0  0  0  0  0  0  0  0  0  0
   11.2621  -20.2856   21.5333 O   0  0  0  0  0  0  0  0  0  0  0  0
    9.3696  -16.4637   23.8096 C   0  0  0  0  0  0  0  0  0  0  0  0
   10.3749  -15.7239   23.9141 O   0  0  0  0  0  0  0  0  0  0  0  0
   10.6236  -21.6645   23.2304 O   0  0  0  0  0  0  0  0  0  0  0  0
    8.6555  -16.7379   24.9825 N   0  0  0  0  0  0  0  0  0  0  0  0
    9.1730  -16.2511   26.2581 C   0  0  1  0  0  0  0  0  0  0  0  0
    8.1038  -15.6249   27.0844 C   0  0  0  0  0  0  0  0  0  0  0  0
    7.5950  -14.4066   26.4384 C   0  0  0  0  0  0  0  0  0  0  0  0
    8.3778  -13.5168   25.6941 C   0  0  0  0  0  0  0  0  0  0  0  0
    7.6071  -12.5165   25.2456 N   0  0  0  0  0  0  0  0  0  0  0  0
    6.3586  -12.7306   25.6737 C   0  0  0  0  0  0  0  0  0  0  0  0
    6.3608  -13.8845   26.3998 N   0  0  0  0  0  0  0  0  0  0  0  0
    9.8155  -17.3523   27.0068 C   0  0  0  0  0  0  0  0  0  0  0  0
   10.2945  -17.1722   28.1318 O   0  0  0  0  0  0  0  0  0  0  0  0
    9.8739  -18.6273   26.4098 O   0  0  0  0  0  0  0  0  0  0  0  0
  1  2  1  0
  1  5  1  0
  2  3  1  0
  3  4  1  0
  5  4  1  0
  5  6  1  1
  6  7  2  0
  8  6  1  0
  9  8  1  0
  9 10  1  6
 11 10  1  0
 12 11  1  0
 12 13  2  0
 14  9  1  0
 15 14  2  0
 16 12  1  0
 17 14  1  0
 18 25  1  0
 18 17  1  0
 19 20  1  0
 18 19  1  1
 20 21  2  0
 22 21  1  0
 23 22  1  0
 24 23  2  0
 24 20  1  0
 25 27  1  0
 26 25  2  0
M  END
$$$$
