PEH.pdb
     RDKit          3D

 27 28  0  0  1  0  0  0  0  0999 V2000
    9.5073  -14.0567   18.1781 N   0  0  0  0  0  0  0  0  0  0  0  0
    8.8894  -13.8951   16.8997 C   0  0  0  0  0  0  0  0  0  0  0  0
    7.4627  -13.4670   17.0863 C   0  0  0  0  0  0  0  0  0  0  0  0
    7.2049  -13.6674   18.5414 C   0  0  0  0  0  0  0  0  0  0  0  0
    8.5570  -13.6434   19.1689 C   0  0  1  0  0  0  0  0  0  0  0  0
    8.5401  -14.5928   20.3400 C   0  0  0  0  0  0  0  0  0  0  0  0
    7.6327  -14.5608   21.2077 O   0  0  0  0  0  0  0  0  0  0  0  0
    9.5616  -15.5682   20.5066 N   0  0  0  0  0  0  0  0  0  0  0  0
    9.6109  -16.5008   21.6356 C   0  0  1  0  0  0  0  0  0  0  0  0
   10.7788  -17.4064   21.5331 C   0  0  0  0  0  0  0  0  0  0  0  0
   10.9563  -18.3904   22.6501 C   0  0  0  0  0  0  0  0  0  0  0  0
   12.1682  -19.2368   22.4109 C   0  0  0  0  0  0  0  0  0  0  0  0
   12.9978  -19.3452   23.3368 O   0  0  0  0  0  0  0  0  0  0  0  0
    9.6118  -15.7675   22.9157 C   0  0  0  0  0  0  0  0  0  0  0  0
   10.4189  -14.8220   23.0684 O   0  0  0  0  0  0  0  0  0  0  0  0
   12.3547  -19.8681   21.2150 O   0  0  0  0  0  0  0  0  0  0  0  0
    8.7608  -16.0585   23.9891 N   0  0  0  0  0  0  0  0  0  0  0  0
    8.4934  -15.0230   24.9830 C   0  0  1  0  0  0  0  0  0  0  0  0
    7.0731  -14.5760   24.9455 C   0  0  0  0  0  0  0  0  0  0  0  0
    6.8179  -13.5699   25.9862 C   0  0  0  0  0  0  0  0  0  0  0  0
    7.0922  -12.2039   25.8539 C   0  0  0  0  0  0  0  0  0  0  0  0
    6.7409  -11.5699   26.9809 N   0  0  0  0  0  0  0  0  0  0  0  0
    6.2512  -12.4773   27.8322 C   0  0  0  0  0  0  0  0  0  0  0  0
    6.3021  -13.6932   27.2174 N   0  0  0  0  0  0  0  0  0  0  0  0
    8.8388  -15.5073   26.3366 C   0  0  0  0  0  0  0  0  0  0  0  0
    8.6869  -14.7933   27.3339 O   0  0  0  0  0  0  0  0  0  0  0  0
    9.3509  -16.8128   26.4735 O   0  0  0  0  0  0  0  0  0  0  0  0
  1  2  1  0
  1  5  1  0
  2  3  1  0
  3  4  1  0
  5  4  1  0
  5  6  1  1
  6  7  2  0
  8  6  1  0
  9  8  1  0
  9 10  1  6
 11 10  1  0
 12 11  1  0
 12 13  2  0
 14  9  1  0
 15 14  2  0
 16 12  1  0
 17 14  1  0
 18 25  1  0
 18 17  1  0
 19 20  1  0
 18 19  1  1
 20 21  2  0
 22 21  1  0
 23 22  1  0
 24 23  2  0
 24 20  1  0
 25 27  1  0
 26 25  2  0
M  END
$$$$
