PEH.pdb
     RDKit          3D

 27 28  0  0  1  0  0  0  0  0999 V2000
    9.5377  -13.8676   19.1089 N   0  0  0  0  0  0  0  0  0  0  0  0
    8.9821  -13.4269   17.8682 C   0  0  0  0  0  0  0  0  0  0  0  0
    7.5739  -12.9570   18.0917 C   0  0  0  0  0  0  0  0  0  0  0  0
    7.2465  -13.4168   19.4720 C   0  0  0  0  0  0  0  0  0  0  0  0
    8.5711  -13.5952   20.1323 C   0  0  1  0  0  0  0  0  0  0  0  0
    8.4554  -14.7488   21.0962 C   0  0  0  0  0  0  0  0  0  0  0  0
    7.4815  -14.8634   21.8807 O   0  0  0  0  0  0  0  0  0  0  0  0
    9.4554  -15.7585   21.1530 N   0  0  0  0  0  0  0  0  0  0  0  0
    9.4008  -16.8978   22.0726 C   0  0  1  0  0  0  0  0  0  0  0  0
   10.4197  -17.9160   21.7267 C   0  0  0  0  0  0  0  0  0  0  0  0
   10.4485  -19.1451   22.5848 C   0  0  0  0  0  0  0  0  0  0  0  0
   11.4592  -20.1199   22.0646 C   0  0  0  0  0  0  0  0  0  0  0  0
   11.7331  -20.0846   20.8476 O   0  0  0  0  0  0  0  0  0  0  0  0
    9.5469  -16.4460   23.4693 C   0  0  0  0  0  0  0  0  0  0  0  0
   10.5048  -15.6942   23.7626 O   0  0  0  0  0  0  0  0  0  0  0  0
   12.0592  -21.0172   22.9002 O   0  0  0  0  0  0  0  0  0  0  0  0
    8.6769  -16.8038   24.5066 N   0  0  0  0  0  0  0  0  0  0  0  0
    8.9500  -16.3244   25.8584 C   0  0  1  0  0  0  0  0  0  0  0  0
    7.6942  -16.0354   26.6053 C   0  0  0  0  0  0  0  0  0  0  0  0
    7.1383  -14.7357   26.2028 C   0  0  0  0  0  0  0  0  0  0  0  0
    7.7735  -13.8328   25.3427 C   0  0  0  0  0  0  0  0  0  0  0  0
    6.9984  -12.7513   25.1840 N   0  0  0  0  0  0  0  0  0  0  0  0
    5.8890  -12.9257   25.9097 C   0  0  0  0  0  0  0  0  0  0  0  0
    5.9831  -14.1377   26.5272 N   0  0  0  0  0  0  0  0  0  0  0  0
    9.7671  -17.3095   26.5986 C   0  0  0  0  0  0  0  0  0  0  0  0
   10.0852  -18.3915   26.0932 O   0  0  0  0  0  0  0  0  0  0  0  0
   10.1827  -16.9913   27.9068 O   0  0  0  0  0  0  0  0  0  0  0  0
  1  2  1  0
  1  5  1  0
  2  3  1  0
  3  4  1  0
  5  4  1  0
  5  6  1  1
  6  7  2  0
  8  6  1  0
  9  8  1  0
  9 10  1  6
 11 10  1  0
 12 11  1  0
 12 13  2  0
 14  9  1  0
 15 14  2  0
 16 12  1  0
 17 14  1  0
 18 25  1  0
 18 17  1  0
 19 20  1  0
 18 19  1  1
 20 21  2  0
 22 21  1  0
 23 22  1  0
 24 23  2  0
 24 20  1  0
 25 27  1  0
 26 25  2  0
M  END
$$$$
