PEH.pdb
     RDKit          3D

 27 28  0  0  1  0  0  0  0  0999 V2000
    9.3797  -14.1717   19.6117 N   0  0  0  0  0  0  0  0  0  0  0  0
    8.8773  -13.7523   18.3413 C   0  0  0  0  0  0  0  0  0  0  0  0
    7.5106  -13.1568   18.5177 C   0  0  0  0  0  0  0  0  0  0  0  0
    7.1299  -13.5150   19.9144 C   0  0  0  0  0  0  0  0  0  0  0  0
    8.4273  -13.7672   20.6041 C   0  0  1  0  0  0  0  0  0  0  0  0
    8.2047  -14.8550   21.6240 C   0  0  0  0  0  0  0  0  0  0  0  0
    7.1713  -14.8961   22.3364 O   0  0  0  0  0  0  0  0  0  0  0  0
    9.1670  -15.8841   21.8187 N   0  0  0  0  0  0  0  0  0  0  0  0
    8.9852  -16.9915   22.7605 C   0  0  1  0  0  0  0  0  0  0  0  0
    9.8430  -18.1456   22.4040 C   0  0  0  0  0  0  0  0  0  0  0  0
    9.6111  -18.7533   21.0533 C   0  0  0  0  0  0  0  0  0  0  0  0
   10.6000  -19.8485   20.7983 C   0  0  0  0  0  0  0  0  0  0  0  0
   11.8063  -19.6079   21.0087 O   0  0  0  0  0  0  0  0  0  0  0  0
    9.2363  -16.5440   24.1437 C   0  0  0  0  0  0  0  0  0  0  0  0
   10.2090  -15.7866   24.3651 O   0  0  0  0  0  0  0  0  0  0  0  0
   10.1890  -21.0705   20.3495 O   0  0  0  0  0  0  0  0  0  0  0  0
    8.4518  -16.9120   25.2437 N   0  0  0  0  0  0  0  0  0  0  0  0
    8.8027  -16.4036   26.5667 C   0  0  1  0  0  0  0  0  0  0  0  0
    7.6169  -15.8486   27.2768 C   0  0  0  0  0  0  0  0  0  0  0  0
    7.1105  -14.6541   26.5861 C   0  0  0  0  0  0  0  0  0  0  0  0
    7.8625  -13.4990   26.3434 C   0  0  0  0  0  0  0  0  0  0  0  0
    7.1043  -12.6043   25.6950 N   0  0  0  0  0  0  0  0  0  0  0  0
    5.8936  -13.1414   25.5120 C   0  0  0  0  0  0  0  0  0  0  0  0
    5.9067  -14.3906   26.0583 N   0  0  0  0  0  0  0  0  0  0  0  0
    9.4288  -17.4694   27.3781 C   0  0  0  0  0  0  0  0  0  0  0  0
    9.7848  -17.2656   28.5440 O   0  0  0  0  0  0  0  0  0  0  0  0
    9.6158  -18.7377   26.7936 O   0  0  0  0  0  0  0  0  0  0  0  0
  1  2  1  0
  1  5  1  0
  2  3  1  0
  3  4  1  0
  5  4  1  0
  5  6  1  1
  6  7  2  0
  8  6  1  0
  9  8  1  0
  9 10  1  6
 11 10  1  0
 12 11  1  0
 12 13  2  0
 14  9  1  0
 15 14  2  0
 16 12  1  0
 17 14  1  0
 18 25  1  0
 18 17  1  0
 19 20  1  0
 18 19  1  1
 20 21  2  0
 22 21  1  0
 23 22  1  0
 24 23  2  0
 24 20  1  0
 25 27  1  0
 26 25  2  0
M  END
$$$$
