PEH.pdb
     RDKit          3D

 27 28  0  0  1  0  0  0  0  0999 V2000
    8.8257  -14.9636   19.2913 N   0  0  0  0  0  0  0  0  0  0  0  0
    8.3712  -14.4902   18.0218 C   0  0  0  0  0  0  0  0  0  0  0  0
    7.5841  -13.2264   18.2138 C   0  0  0  0  0  0  0  0  0  0  0  0
    7.3638  -13.1494   19.6867 C   0  0  0  0  0  0  0  0  0  0  0  0
    8.4473  -13.9892   20.2726 C   0  0  1  0  0  0  0  0  0  0  0  0
    7.9016  -14.6472   21.5146 C   0  0  0  0  0  0  0  0  0  0  0  0
    7.3332  -13.9883   22.4201 O   0  0  0  0  0  0  0  0  0  0  0  0
    8.0126  -16.0518   21.7079 N   0  0  0  0  0  0  0  0  0  0  0  0
    7.4956  -16.7474   22.8892 C   0  0  1  0  0  0  0  0  0  0  0  0
    7.5268  -18.2169   22.7033 C   0  0  0  0  0  0  0  0  0  0  0  0
    6.9518  -19.0396   23.8170 C   0  0  0  0  0  0  0  0  0  0  0  0
    6.4870  -20.3653   23.2987 C   0  0  0  0  0  0  0  0  0  0  0  0
    5.3404  -20.7460   23.6111 O   0  0  0  0  0  0  0  0  0  0  0  0
    8.2402  -16.3440   24.0972 C   0  0  0  0  0  0  0  0  0  0  0  0
    9.4880  -16.2552   24.0347 O   0  0  0  0  0  0  0  0  0  0  0  0
    7.2968  -21.1299   22.5092 O   0  0  0  0  0  0  0  0  0  0  0  0
    7.6411  -16.0489   25.3280 N   0  0  0  0  0  0  0  0  0  0  0  0
    8.4905  -15.8203   26.4934 C   0  0  1  0  0  0  0  0  0  0  0  0
    7.7852  -15.0355   27.5447 C   0  0  0  0  0  0  0  0  0  0  0  0
    7.3975  -13.7134   27.0330 C   0  0  0  0  0  0  0  0  0  0  0  0
    7.9739  -13.0933   25.9186 C   0  0  0  0  0  0  0  0  0  0  0  0
    7.3922  -11.9019   25.7236 N   0  0  0  0  0  0  0  0  0  0  0  0
    6.4636  -11.7336   26.6708 C   0  0  0  0  0  0  0  0  0  0  0  0
    6.4740  -12.8424   27.4641 N   0  0  0  0  0  0  0  0  0  0  0  0
    8.9600  -17.1077   27.0486 C   0  0  0  0  0  0  0  0  0  0  0  0
    8.6176  -18.1862   26.5515 O   0  0  0  0  0  0  0  0  0  0  0  0
    9.8150  -17.0855   28.1684 O   0  0  0  0  0  0  0  0  0  0  0  0
  1  2  1  0
  1  5  1  0
  2  3  1  0
  3  4  1  0
  5  4  1  0
  5  6  1  1
  6  7  2  0
  8  6  1  0
  9  8  1  0
  9 10  1  6
 11 10  1  0
 12 11  1  0
 12 13  2  0
 14  9  1  0
 15 14  2  0
 16 12  1  0
 17 14  1  0
 18 25  1  0
 18 17  1  0
 19 20  1  0
 18 19  1  1
 20 21  2  0
 22 21  1  0
 23 22  1  0
 24 23  2  0
 24 20  1  0
 25 27  1  0
 26 25  2  0
M  END
$$$$
