PEH.pdb
     RDKit          3D

 27 28  0  0  1  0  0  0  0  0999 V2000
    8.9051  -14.5417   18.8378 N   0  0  0  0  0  0  0  0  0  0  0  0
    8.2458  -13.9722   17.7049 C   0  0  0  0  0  0  0  0  0  0  0  0
    7.4834  -12.7521   18.1334 C   0  0  0  0  0  0  0  0  0  0  0  0
    7.5022  -12.8099   19.6234 C   0  0  0  0  0  0  0  0  0  0  0  0
    8.6770  -13.6674   19.9509 C   0  0  1  0  0  0  0  0  0  0  0  0
    8.3472  -14.4460   21.1992 C   0  0  0  0  0  0  0  0  0  0  0  0
    7.8685  -13.8926   22.2199 O   0  0  0  0  0  0  0  0  0  0  0  0
    8.5691  -15.8491   21.2670 N   0  0  0  0  0  0  0  0  0  0  0  0
    8.2044  -16.6692   22.4250 C   0  0  1  0  0  0  0  0  0  0  0  0
    8.2925  -18.1138   22.1090 C   0  0  0  0  0  0  0  0  0  0  0  0
    7.4455  -18.5975   20.9705 C   0  0  0  0  0  0  0  0  0  0  0  0
    7.7586  -20.0285   20.6598 C   0  0  0  0  0  0  0  0  0  0  0  0
    7.6581  -20.8628   21.5824 O   0  0  0  0  0  0  0  0  0  0  0  0
    9.0400  -16.3234   23.5906 C   0  0  0  0  0  0  0  0  0  0  0  0
   10.2030  -15.9018   23.3948 O   0  0  0  0  0  0  0  0  0  0  0  0
    8.1417  -20.4034   19.4043 O   0  0  0  0  0  0  0  0  0  0  0  0
    8.6183  -16.4352   24.9212 N   0  0  0  0  0  0  0  0  0  0  0  0
    9.5342  -16.0480   25.9904 C   0  0  1  0  0  0  0  0  0  0  0  0
    9.5728  -14.5707   26.1756 C   0  0  0  0  0  0  0  0  0  0  0  0
    8.2123  -14.0156   26.2061 C   0  0  0  0  0  0  0  0  0  0  0  0
    7.0482  -14.7540   25.9648 C   0  0  0  0  0  0  0  0  0  0  0  0
    5.9822  -13.9490   26.0714 N   0  0  0  0  0  0  0  0  0  0  0  0
    6.4180  -12.7212   26.3723 C   0  0  0  0  0  0  0  0  0  0  0  0
    7.7781  -12.7713   26.4523 N   0  0  0  0  0  0  0  0  0  0  0  0
    9.1557  -16.7099   27.2572 C   0  0  0  0  0  0  0  0  0  0  0  0
    8.1300  -17.3938   27.3447 O   0  0  0  0  0  0  0  0  0  0  0  0
    9.9938  -16.5465   28.3780 O   0  0  0  0  0  0  0  0  0  0  0  0
  1  2  1  0
  1  5  1  0
  2  3  1  0
  3  4  1  0
  5  4  1  0
  5  6  1  1
  6  7  2  0
  8  6  1  0
  9  8  1  0
  9 10  1  6
 11 10  1  0
 12 11  1  0
 12 13  2  0
 14  9  1  0
 15 14  2  0
 16 12  1  0
 17 14  1  0
 18 25  1  0
 18 17  1  0
 19 20  1  0
 18 19  1  1
 20 21  2  0
 22 21  1  0
 23 22  1  0
 24 23  2  0
 24 20  1  0
 25 27  1  0
 26 25  2  0
M  END
$$$$
