PEH.pdb
     RDKit          3D

 27 28  0  0  1  0  0  0  0  0999 V2000
    9.5587  -14.4076   18.3398 N   0  0  0  0  0  0  0  0  0  0  0  0
    8.8861  -14.1696   17.1015 C   0  0  0  0  0  0  0  0  0  0  0  0
    7.5611  -13.5176   17.3714 C   0  0  0  0  0  0  0  0  0  0  0  0
    7.3773  -13.6523   18.8452 C   0  0  0  0  0  0  0  0  0  0  0  0
    8.7568  -13.8335   19.3804 C   0  0  1  0  0  0  0  0  0  0  0  0
    8.6726  -14.7501   20.5746 C   0  0  0  0  0  0  0  0  0  0  0  0
    7.7939  -14.6076   21.4604 O   0  0  0  0  0  0  0  0  0  0  0  0
    9.5948  -15.8196   20.7431 N   0  0  0  0  0  0  0  0  0  0  0  0
    9.5597  -16.7444   21.8789 C   0  0  1  0  0  0  0  0  0  0  0  0
   10.6501  -17.7435   21.7915 C   0  0  0  0  0  0  0  0  0  0  0  0
   10.6372  -18.8325   22.8218 C   0  0  0  0  0  0  0  0  0  0  0  0
   11.7880  -19.7663   22.6069 C   0  0  0  0  0  0  0  0  0  0  0  0
   12.2455  -19.8742   21.4509 O   0  0  0  0  0  0  0  0  0  0  0  0
    9.6118  -16.0040   23.1538 C   0  0  0  0  0  0  0  0  0  0  0  0
   10.4334  -15.0661   23.2732 O   0  0  0  0  0  0  0  0  0  0  0  0
   12.3163  -20.4751   23.6470 O   0  0  0  0  0  0  0  0  0  0  0  0
    8.7951  -16.2801   24.2573 N   0  0  0  0  0  0  0  0  0  0  0  0
    8.5700  -15.2353   25.2520 C   0  0  1  0  0  0  0  0  0  0  0  0
    7.1306  -14.8646   25.3466 C   0  0  0  0  0  0  0  0  0  0  0  0
    6.9353  -13.7875   26.3274 C   0  0  0  0  0  0  0  0  0  0  0  0
    7.9707  -13.1345   27.0058 C   0  0  0  0  0  0  0  0  0  0  0  0
    7.4508  -12.2080   27.8225 N   0  0  0  0  0  0  0  0  0  0  0  0
    6.1202  -12.2412   27.6939 C   0  0  0  0  0  0  0  0  0  0  0  0
    5.8153  -13.2067   26.7809 N   0  0  0  0  0  0  0  0  0  0  0  0
    9.0723  -15.6665   26.5741 C   0  0  0  0  0  0  0  0  0  0  0  0
    9.2756  -16.8589   26.8278 O   0  0  0  0  0  0  0  0  0  0  0  0
    9.3186  -14.6837   27.5533 O   0  0  0  0  0  0  0  0  0  0  0  0
  1  2  1  0
  1  5  1  0
  2  3  1  0
  3  4  1  0
  5  4  1  0
  5  6  1  1
  6  7  2  0
  8  6  1  0
  9  8  1  0
  9 10  1  6
 11 10  1  0
 12 11  1  0
 12 13  2  0
 14  9  1  0
 15 14  2  0
 16 12  1  0
 17 14  1  0
 18 25  1  0
 18 17  1  0
 19 20  1  0
 18 19  1  1
 20 21  2  0
 22 21  1  0
 23 22  1  0
 24 23  2  0
 24 20  1  0
 25 27  1  0
 26 25  2  0
M  END
$$$$
