PEH.pdb
     RDKit          3D

 27 28  0  0  1  0  0  0  0  0999 V2000
    7.9083  -14.6295   18.8710 N   0  0  0  0  0  0  0  0  0  0  0  0
    7.2047  -13.4369   18.5174 C   0  0  0  0  0  0  0  0  0  0  0  0
    7.6014  -12.3292   19.4499 C   0  0  0  0  0  0  0  0  0  0  0  0
    8.3536  -13.0158   20.5391 C   0  0  0  0  0  0  0  0  0  0  0  0
    8.8181  -14.2934   19.9269 C   0  0  1  0  0  0  0  0  0  0  0  0
    8.8196  -15.3484   21.0040 C   0  0  0  0  0  0  0  0  0  0  0  0
    7.7598  -15.7368   21.5546 O   0  0  0  0  0  0  0  0  0  0  0  0
   10.0334  -15.9475   21.4403 N   0  0  0  0  0  0  0  0  0  0  0  0
   10.0873  -17.0707   22.3796 C   0  0  1  0  0  0  0  0  0  0  0  0
   11.3455  -17.8378   22.2274 C   0  0  0  0  0  0  0  0  0  0  0  0
   11.5112  -19.0268   23.1254 C   0  0  0  0  0  0  0  0  0  0  0  0
   12.3928  -20.0495   22.4779 C   0  0  0  0  0  0  0  0  0  0  0  0
   13.5523  -19.7092   22.1666 O   0  0  0  0  0  0  0  0  0  0  0  0
    9.9121  -16.5977   23.7659 C   0  0  0  0  0  0  0  0  0  0  0  0
   10.5383  -15.5792   24.1392 O   0  0  0  0  0  0  0  0  0  0  0  0
   11.9369  -21.3137   22.2379 O   0  0  0  0  0  0  0  0  0  0  0  0
    9.0823  -17.2168   24.7089 N   0  0  0  0  0  0  0  0  0  0  0  0
    9.0675  -16.7135   26.0794 C   0  0  1  0  0  0  0  0  0  0  0  0
    7.6933  -16.3388   26.5147 C   0  0  0  0  0  0  0  0  0  0  0  0
    7.3869  -14.9535   26.1309 C   0  0  0  0  0  0  0  0  0  0  0  0
    8.3028  -14.0703   25.5480 C   0  0  0  0  0  0  0  0  0  0  0  0
    7.7029  -12.8932   25.3240 N   0  0  0  0  0  0  0  0  0  0  0  0
    6.4359  -12.9872   25.7411 C   0  0  0  0  0  0  0  0  0  0  0  0
    6.2525  -14.2462   26.2313 N   0  0  0  0  0  0  0  0  0  0  0  0
    9.6376  -17.7179   27.0027 C   0  0  0  0  0  0  0  0  0  0  0  0
    9.7240  -17.5008   28.2163 O   0  0  0  0  0  0  0  0  0  0  0  0
   10.0868  -18.9426   26.4701 O   0  0  0  0  0  0  0  0  0  0  0  0
  1  2  1  0
  1  5  1  0
  2  3  1  0
  3  4  1  0
  5  4  1  0
  5  6  1  1
  6  7  2  0
  8  6  1  0
  9  8  1  0
  9 10  1  1
 11 10  1  0
 12 11  1  0
 12 13  2  0
 14  9  1  0
 15 14  2  0
 16 12  1  0
 17 14  1  0
 18 25  1  0
 18 17  1  0
 19 20  1  0
 18 19  1  1
 20 21  2  0
 22 21  1  0
 23 22  1  0
 24 23  2  0
 24 20  1  0
 25 27  1  0
 26 25  2  0
M  END
$$$$
