PEH.pdb
     RDKit          3D

 27 28  0  0  1  0  0  0  0  0999 V2000
    9.3858  -14.2990   19.0070 N   0  0  0  0  0  0  0  0  0  0  0  0
    8.9109  -13.7933   17.7576 C   0  0  0  0  0  0  0  0  0  0  0  0
    7.7085  -12.9265   17.9955 C   0  0  0  0  0  0  0  0  0  0  0  0
    7.3404  -13.1886   19.4166 C   0  0  0  0  0  0  0  0  0  0  0  0
    8.5941  -13.6993   20.0410 C   0  0  1  0  0  0  0  0  0  0  0  0
    8.2089  -14.7106   21.0909 C   0  0  0  0  0  0  0  0  0  0  0  0
    7.2817  -14.4967   21.9104 O   0  0  0  0  0  0  0  0  0  0  0  0
    8.8889  -15.9556   21.1925 N   0  0  0  0  0  0  0  0  0  0  0  0
    8.5757  -16.9660   22.2062 C   0  0  1  0  0  0  0  0  0  0  0  0
    9.1663  -18.2787   21.8560 C   0  0  0  0  0  0  0  0  0  0  0  0
    8.7223  -18.8816   20.5571 C   0  0  0  0  0  0  0  0  0  0  0  0
    8.7516  -20.3764   20.6398 C   0  0  0  0  0  0  0  0  0  0  0  0
    9.8414  -20.9265   20.8988 O   0  0  0  0  0  0  0  0  0  0  0  0
    9.0177  -16.5181   23.5405 C   0  0  0  0  0  0  0  0  0  0  0  0
   10.1700  -16.0435   23.6660 O   0  0  0  0  0  0  0  0  0  0  0  0
    7.6182  -21.1098   20.4373 O   0  0  0  0  0  0  0  0  0  0  0  0
    8.2278  -16.5873   24.6947 N   0  0  0  0  0  0  0  0  0  0  0  0
    8.7672  -16.0833   25.9545 C   0  0  1  0  0  0  0  0  0  0  0  0
    7.7145  -15.4350   26.7851 C   0  0  0  0  0  0  0  0  0  0  0  0
    7.2543  -14.1875   26.1590 C   0  0  0  0  0  0  0  0  0  0  0  0
    5.9530  -13.6822   26.2591 C   0  0  0  0  0  0  0  0  0  0  0  0
    5.8698  -12.5327   25.5754 N   0  0  0  0  0  0  0  0  0  0  0  0
    7.0689  -12.2806   25.0401 C   0  0  0  0  0  0  0  0  0  0  0  0
    7.9061  -13.2943   25.4010 N   0  0  0  0  0  0  0  0  0  0  0  0
    9.4118  -17.1769   26.7125 C   0  0  0  0  0  0  0  0  0  0  0  0
    9.3622  -18.3480   26.3207 O   0  0  0  0  0  0  0  0  0  0  0  0
   10.0924  -16.8588   27.9045 O   0  0  0  0  0  0  0  0  0  0  0  0
  1  2  1  0
  1  5  1  0
  2  3  1  0
  3  4  1  0
  5  4  1  0
  5  6  1  1
  6  7  2  0
  8  6  1  0
  9  8  1  0
  9 10  1  6
 11 10  1  0
 12 11  1  0
 12 13  2  0
 14  9  1  0
 15 14  2  0
 16 12  1  0
 17 14  1  0
 18 25  1  0
 18 17  1  0
 19 20  1  0
 18 19  1  1
 20 21  2  0
 22 21  1  0
 23 22  1  0
 24 23  2  0
 24 20  1  0
 25 27  1  0
 26 25  2  0
M  END
$$$$
