PEH.pdb
     RDKit          3D

 27 28  0  0  1  0  0  0  0  0999 V2000
    9.3366  -13.8872   19.3144 N   0  0  0  0  0  0  0  0  0  0  0  0
    8.6784  -13.6174   18.0750 C   0  0  0  0  0  0  0  0  0  0  0  0
    7.2087  -13.4346   18.3207 C   0  0  0  0  0  0  0  0  0  0  0  0
    7.0092  -13.8968   19.7244 C   0  0  0  0  0  0  0  0  0  0  0  0
    8.3553  -13.7767   20.3539 C   0  0  1  0  0  0  0  0  0  0  0  0
    8.4962  -14.8910   21.3597 C   0  0  0  0  0  0  0  0  0  0  0  0
    7.5826  -15.1688   22.1754 O   0  0  0  0  0  0  0  0  0  0  0  0
    9.6810  -15.6753   21.4223 N   0  0  0  0  0  0  0  0  0  0  0  0
    9.8207  -16.8603   22.2725 C   0  0  1  0  0  0  0  0  0  0  0  0
   11.0857  -17.5777   21.9898 C   0  0  0  0  0  0  0  0  0  0  0  0
   11.1824  -18.2528   20.6547 C   0  0  0  0  0  0  0  0  0  0  0  0
   12.5245  -18.8968   20.4928 C   0  0  0  0  0  0  0  0  0  0  0  0
   12.5641  -20.0627   20.0496 O   0  0  0  0  0  0  0  0  0  0  0  0
    9.7199  -16.4924   23.6975 C   0  0  0  0  0  0  0  0  0  0  0  0
   10.4183  -15.5454   24.1266 O   0  0  0  0  0  0  0  0  0  0  0  0
   13.6663  -18.2245   20.8213 O   0  0  0  0  0  0  0  0  0  0  0  0
    8.8856  -17.1374   24.6190 N   0  0  0  0  0  0  0  0  0  0  0  0
    8.9925  -16.7938   26.0340 C   0  0  1  0  0  0  0  0  0  0  0  0
    7.6808  -16.3723   26.5999 C   0  0  0  0  0  0  0  0  0  0  0  0
    7.4639  -14.9336   26.3919 C   0  0  0  0  0  0  0  0  0  0  0  0
    8.4081  -14.0602   25.8401 C   0  0  0  0  0  0  0  0  0  0  0  0
    7.8929  -12.8242   25.7902 N   0  0  0  0  0  0  0  0  0  0  0  0
    6.6532  -12.8709   26.2891 C   0  0  0  0  0  0  0  0  0  0  0  0
    6.4005  -14.1603   26.6532 N   0  0  0  0  0  0  0  0  0  0  0  0
    9.5345  -17.9355   26.8014 C   0  0  0  0  0  0  0  0  0  0  0  0
    9.6738  -17.8785   28.0281 O   0  0  0  0  0  0  0  0  0  0  0  0
    9.8947  -19.1050   26.1029 O   0  0  0  0  0  0  0  0  0  0  0  0
  1  2  1  0
  1  5  1  0
  2  3  1  0
  3  4  1  0
  5  4  1  0
  5  6  1  1
  6  7  2  0
  8  6  1  0
  9  8  1  0
  9 10  1  1
 11 10  1  0
 12 11  1  0
 12 13  2  0
 14  9  1  0
 15 14  2  0
 16 12  1  0
 17 14  1  0
 18 25  1  0
 18 17  1  0
 19 20  1  0
 18 19  1  1
 20 21  2  0
 22 21  1  0
 23 22  1  0
 24 23  2  0
 24 20  1  0
 25 27  1  0
 26 25  2  0
M  END
$$$$
