PEH.pdb
     RDKit          3D

 27 28  0  0  1  0  0  0  0  0999 V2000
    9.5386  -14.0523   19.3770 N   0  0  0  0  0  0  0  0  0  0  0  0
    8.9736  -13.5386   18.1690 C   0  0  0  0  0  0  0  0  0  0  0  0
    7.6294  -12.9386   18.4635 C   0  0  0  0  0  0  0  0  0  0  0  0
    7.3209  -13.3882   19.8514 C   0  0  0  0  0  0  0  0  0  0  0  0
    8.6501  -13.7053   20.4474 C   0  0  1  0  0  0  0  0  0  0  0  0
    8.4659  -14.8587   21.4009 C   0  0  0  0  0  0  0  0  0  0  0  0
    7.5562  -14.8657   22.2666 O   0  0  0  0  0  0  0  0  0  0  0  0
    9.3246  -15.9914   21.3543 N   0  0  0  0  0  0  0  0  0  0  0  0
    9.2969  -17.0669   22.3489 C   0  0  1  0  0  0  0  0  0  0  0  0
   10.2887  -18.1197   22.0288 C   0  0  0  0  0  0  0  0  0  0  0  0
   10.2348  -19.3604   22.8687 C   0  0  0  0  0  0  0  0  0  0  0  0
   11.2473  -20.3557   22.3929 C   0  0  0  0  0  0  0  0  0  0  0  0
   10.9154  -21.1352   21.4766 O   0  0  0  0  0  0  0  0  0  0  0  0
    9.5078  -16.5261   23.7051 C   0  0  0  0  0  0  0  0  0  0  0  0
   10.4406  -15.7111   23.8909 O   0  0  0  0  0  0  0  0  0  0  0  0
   12.4936  -20.4045   22.9479 O   0  0  0  0  0  0  0  0  0  0  0  0
    8.7268  -16.8649   24.8169 N   0  0  0  0  0  0  0  0  0  0  0  0
    9.1387  -16.4045   26.1399 C   0  0  1  0  0  0  0  0  0  0  0  0
    7.9789  -15.9292   26.9444 C   0  0  0  0  0  0  0  0  0  0  0  0
    7.3808  -14.7323   26.3360 C   0  0  0  0  0  0  0  0  0  0  0  0
    8.1089  -13.6997   25.7341 C   0  0  0  0  0  0  0  0  0  0  0  0
    7.2618  -12.7653   25.2814 N   0  0  0  0  0  0  0  0  0  0  0  0
    6.0169  -13.1590   25.5698 C   0  0  0  0  0  0  0  0  0  0  0  0
    6.0993  -14.3586   26.2125 N   0  0  0  0  0  0  0  0  0  0  0  0
    9.8510  -17.4810   26.8608 C   0  0  0  0  0  0  0  0  0  0  0  0
   10.0386  -18.5875   26.3433 O   0  0  0  0  0  0  0  0  0  0  0  0
   10.3187  -17.2222   28.1645 O   0  0  0  0  0  0  0  0  0  0  0  0
  1  2  1  0
  1  5  1  0
  2  3  1  0
  3  4  1  0
  5  4  1  0
  5  6  1  1
  6  7  2  0
  8  6  1  0
  9  8  1  0
  9 10  1  6
 11 10  1  0
 12 11  1  0
 12 13  2  0
 14  9  1  0
 15 14  2  0
 16 12  1  0
 17 14  1  0
 18 25  1  0
 18 17  1  0
 19 20  1  0
 18 19  1  1
 20 21  2  0
 22 21  1  0
 23 22  1  0
 24 23  2  0
 24 20  1  0
 25 27  1  0
 26 25  2  0
M  END
$$$$
