PEH.pdb
     RDKit          3D

 27 28  0  0  1  0  0  0  0  0999 V2000
    9.3815  -14.0227   18.5697 N   0  0  0  0  0  0  0  0  0  0  0  0
    8.4795  -13.6439   17.5279 C   0  0  0  0  0  0  0  0  0  0  0  0
    7.2059  -13.1297   18.1339 C   0  0  0  0  0  0  0  0  0  0  0  0
    7.3079  -13.4992   19.5751 C   0  0  0  0  0  0  0  0  0  0  0  0
    8.7693  -13.6682   19.8167 C   0  0  1  0  0  0  0  0  0  0  0  0
    8.9451  -14.7595   20.8420 C   0  0  0  0  0  0  0  0  0  0  0  0
    8.2812  -14.7826   21.9078 O   0  0  0  0  0  0  0  0  0  0  0  0
    9.8790  -15.8125   20.6376 N   0  0  0  0  0  0  0  0  0  0  0  0
   10.0355  -16.9425   21.5570 C   0  0  1  0  0  0  0  0  0  0  0  0
   10.9692  -17.9542   21.0100 C   0  0  0  0  0  0  0  0  0  0  0  0
   11.2436  -19.1439   21.8800 C   0  0  0  0  0  0  0  0  0  0  0  0
   12.1807  -20.0875   21.1915 C   0  0  0  0  0  0  0  0  0  0  0  0
   13.3785  -20.0814   21.5417 O   0  0  0  0  0  0  0  0  0  0  0  0
   10.4709  -16.4744   22.8865 C   0  0  0  0  0  0  0  0  0  0  0  0
   11.3161  -15.5524   22.9541 O   0  0  0  0  0  0  0  0  0  0  0  0
   11.7331  -20.9262   20.2119 O   0  0  0  0  0  0  0  0  0  0  0  0
    9.9990  -16.9962   24.0972 N   0  0  0  0  0  0  0  0  0  0  0  0
   10.3981  -16.3577   25.3482 C   0  0  1  0  0  0  0  0  0  0  0  0
    9.2191  -15.8961   26.1326 C   0  0  0  0  0  0  0  0  0  0  0  0
    9.6485  -15.1715   27.3371 C   0  0  0  0  0  0  0  0  0  0  0  0
   10.9796  -14.8775   27.6543 C   0  0  0  0  0  0  0  0  0  0  0  0
   11.0217  -14.2094   28.8151 N   0  0  0  0  0  0  0  0  0  0  0  0
    9.7676  -14.0629   29.2553 C   0  0  0  0  0  0  0  0  0  0  0  0
    8.9377  -14.6524   28.3483 N   0  0  0  0  0  0  0  0  0  0  0  0
   11.2184  -17.2826   26.1593 C   0  0  0  0  0  0  0  0  0  0  0  0
   11.3251  -18.4775   25.8622 O   0  0  0  0  0  0  0  0  0  0  0  0
   11.8852  -16.7737   27.2914 O   0  0  0  0  0  0  0  0  0  0  0  0
  1  2  1  0
  1  5  1  0
  2  3  1  0
  3  4  1  0
  5  4  1  0
  5  6  1  1
  6  7  2  0
  8  6  1  0
  9  8  1  0
  9 10  1  6
 11 10  1  0
 12 11  1  0
 12 13  2  0
 14  9  1  0
 15 14  2  0
 16 12  1  0
 17 14  1  0
 18 25  1  0
 18 17  1  0
 19 20  1  0
 18 19  1  1
 20 21  2  0
 22 21  1  0
 23 22  1  0
 24 23  2  0
 24 20  1  0
 25 27  1  0
 26 25  2  0
M  END
$$$$
