WII.pdb
     RDKit          3D

 31 32  0  0  1  0  0  0  0  0999 V2000
    5.5771  -17.9659   24.5456 N   0  0  0  0  0  0  0  0  0  0  0  0
    6.3073  -16.7506   24.6335 C   0  0  1  0  0  0  0  0  0  0  0  0
    6.6670  -16.2853   26.0018 C   0  0  0  0  0  0  0  0  0  0  0  0
    5.9279  -15.0140   26.2804 C   0  0  0  0  0  0  0  0  0  0  0  0
    4.5843  -14.9088   26.6463 C   0  0  0  0  0  0  0  0  0  0  0  0
    4.2869  -13.6155   26.8334 N   0  0  0  0  0  0  0  0  0  0  0  0
    5.3687  -12.8522   26.6093 C   0  0  0  0  0  0  0  0  0  0  0  0
    5.5724  -11.4726   26.6642 C   0  0  0  0  0  0  0  0  0  0  0  0
    6.8163  -10.9729   26.3679 C   0  0  0  0  0  0  0  0  0  0  0  0
    7.8242  -11.8410   26.0261 C   0  0  0  0  0  0  0  0  0  0  0  0
    7.6532  -13.2077   25.9635 C   0  0  0  0  0  0  0  0  0  0  0  0
    6.3992  -13.7195   26.2625 C   0  0  0  0  0  0  0  0  0  0  0  0
    7.5222  -16.8359   23.7444 C   0  0  0  0  0  0  0  0  0  0  0  0
    8.0877  -17.9453   23.5968 O   0  0  0  0  0  0  0  0  0  0  0  0
    7.7548  -12.8348   20.7874 C   0  0  0  0  0  0  0  0  0  0  0  0
    8.0437  -14.3391   20.6336 C   0  0  0  0  0  0  0  0  0  0  0  0
    9.2940  -14.6326   21.3859 C   0  0  2  0  0  0  0  0  0  0  0  0
   10.5323  -14.5731   20.5406 C   0  0  0  0  0  0  0  0  0  0  0  0
    9.2899  -15.8402   22.2570 C   0  0  2  0  0  0  0  0  0  0  0  0
    8.0529  -15.7256   23.0716 N   0  0  0  0  0  0  0  0  0  0  0  0
   10.4163  -15.9043   23.2008 C   0  0  0  0  0  0  0  0  0  0  0  0
   11.5958  -15.5510   22.8544 O   0  0  0  0  0  0  0  0  0  0  0  0
    9.8192  -13.9034   27.9429 C   0  0  0  0  0  0  0  0  0  0  0  0
   10.3674  -14.4867   26.6753 C   0  0  0  0  0  0  0  0  0  0  0  0
   10.9512  -15.8693   26.8532 C   0  0  2  0  0  0  0  0  0  0  0  0
   12.0862  -15.8945   27.8372 C   0  0  0  0  0  0  0  0  0  0  0  0
   11.4195  -16.3134   25.4648 C   0  0  2  0  0  0  0  0  0  0  0  0
   10.3007  -16.3454   24.5395 N   0  0  0  0  0  0  0  0  0  0  0  0
   12.0005  -17.6637   25.6248 C   0  0  0  0  0  0  0  0  0  0  0  0
   13.3438  -17.7706   25.9458 O   0  0  0  0  0  0  0  0  0  0  0  0
   11.3042  -18.7066   25.4762 O   0  0  0  0  0  0  0  0  0  0  0  0
  2  1  1  1
  2  3  1  0
  3  4  1  0
  4  5  2  0
  6  5  1  0
  7  6  1  0
  8  7  2  0
  9  8  1  0
 10 11  1  0
 10  9  2  0
 11 12  2  0
 12  7  1  0
 12  4  1  0
 13  2  1  0
 14 13  2  0
 16 15  1  0
 17 16  1  0
 17 18  1  6
 19 20  1  1
 19 17  1  0
 20 13  1  0
 21 19  1  0
 22 21  2  0
 23 24  1  0
 24 25  1  0
 25 27  1  0
 25 26  1  1
 27 29  1  0
 27 28  1  6
 28 21  1  0
 29 30  1  0
 31 29  2  0
M  END
$$$$
