WII.pdb
     RDKit          3D

 31 32  0  0  1  0  0  0  0  0999 V2000
    5.5213  -17.6305   24.5387 N   0  0  0  0  0  0  0  0  0  0  0  0
    6.3265  -16.4603   24.5400 C   0  0  1  0  0  0  0  0  0  0  0  0
    6.7954  -15.9741   25.8675 C   0  0  0  0  0  0  0  0  0  0  0  0
    6.0543  -14.7174   26.2016 C   0  0  0  0  0  0  0  0  0  0  0  0
    4.6941  -14.6218   26.5026 C   0  0  0  0  0  0  0  0  0  0  0  0
    4.3993  -13.3422   26.7706 N   0  0  0  0  0  0  0  0  0  0  0  0
    5.4987  -12.5789   26.6624 C   0  0  0  0  0  0  0  0  0  0  0  0
    5.7121  -11.2102   26.8319 C   0  0  0  0  0  0  0  0  0  0  0  0
    6.9749  -10.7065   26.6405 C   0  0  0  0  0  0  0  0  0  0  0  0
    7.9915  -11.5601   26.2881 C   0  0  0  0  0  0  0  0  0  0  0  0
    7.8112  -12.9159   26.1137 C   0  0  0  0  0  0  0  0  0  0  0  0
    6.5382  -13.4316   26.3063 C   0  0  0  0  0  0  0  0  0  0  0  0
    7.4782  -16.6487   23.5851 C   0  0  0  0  0  0  0  0  0  0  0  0
    8.0822  -17.7474   23.5746 O   0  0  0  0  0  0  0  0  0  0  0  0
    7.9882  -13.0318   19.5058 C   0  0  0  0  0  0  0  0  0  0  0  0
    7.7756  -14.2925   20.3634 C   0  0  0  0  0  0  0  0  0  0  0  0
    9.1033  -14.6944   20.9029 C   0  0  2  0  0  0  0  0  0  0  0  0
   10.1568  -14.8581   19.8470 C   0  0  0  0  0  0  0  0  0  0  0  0
    9.1244  -15.8266   21.8696 C   0  0  2  0  0  0  0  0  0  0  0  0
    7.9083  -15.6462   22.7036 N   0  0  0  0  0  0  0  0  0  0  0  0
   10.2746  -15.8128   22.7864 C   0  0  0  0  0  0  0  0  0  0  0  0
   11.4373  -15.4563   22.3901 O   0  0  0  0  0  0  0  0  0  0  0  0
   10.2909  -13.4137   27.4303 C   0  0  0  0  0  0  0  0  0  0  0  0
   10.6688  -14.1376   26.1731 C   0  0  0  0  0  0  0  0  0  0  0  0
   10.9955  -15.5964   26.3946 C   0  0  2  0  0  0  0  0  0  0  0  0
   12.1156  -15.7947   27.3759 C   0  0  0  0  0  0  0  0  0  0  0  0
   11.3644  -16.1615   25.0203 C   0  0  2  0  0  0  0  0  0  0  0  0
   10.2015  -16.1777   24.1508 N   0  0  0  0  0  0  0  0  0  0  0  0
   11.8637  -17.5349   25.2463 C   0  0  0  0  0  0  0  0  0  0  0  0
   13.1620  -17.6990   25.7006 O   0  0  0  0  0  0  0  0  0  0  0  0
   11.1382  -18.5468   25.0357 O   0  0  0  0  0  0  0  0  0  0  0  0
  2  1  1  1
  2  3  1  0
  3  4  1  0
  4  5  2  0
  6  5  1  0
  7  6  1  0
  8  7  2  0
  9  8  1  0
 10 11  1  0
 10  9  2  0
 11 12  2  0
 12  7  1  0
 12  4  1  0
 13  2  1  0
 14 13  2  0
 16 15  1  0
 17 16  1  0
 17 18  1  6
 19 20  1  1
 19 17  1  0
 20 13  1  0
 21 19  1  0
 22 21  2  0
 23 24  1  0
 24 25  1  0
 25 27  1  0
 25 26  1  1
 27 29  1  0
 27 28  1  6
 28 21  1  0
 29 30  1  0
 31 29  2  0
M  END
$$$$
