WII.pdb
     RDKit          3D

 31 32  0  0  1  0  0  0  0  0999 V2000
    5.6767  -17.6822   24.6774 N   0  0  0  0  0  0  0  0  0  0  0  0
    6.3973  -16.4582   24.6937 C   0  0  1  0  0  0  0  0  0  0  0  0
    6.8339  -15.9581   26.0270 C   0  0  0  0  0  0  0  0  0  0  0  0
    6.0346  -14.7376   26.3612 C   0  0  0  0  0  0  0  0  0  0  0  0
    4.7332  -14.7216   26.8673 C   0  0  0  0  0  0  0  0  0  0  0  0
    4.3607  -13.4491   27.0627 N   0  0  0  0  0  0  0  0  0  0  0  0
    5.3522  -12.6148   26.7105 C   0  0  0  0  0  0  0  0  0  0  0  0
    5.4560  -11.2230   26.7192 C   0  0  0  0  0  0  0  0  0  0  0  0
    6.6204  -10.6415   26.2824 C   0  0  0  0  0  0  0  0  0  0  0  0
    7.6490  -11.4420   25.8495 C   0  0  0  0  0  0  0  0  0  0  0  0
    7.5758  -12.8188   25.8295 C   0  0  0  0  0  0  0  0  0  0  0  0
    6.4026  -13.4130   26.2703 C   0  0  0  0  0  0  0  0  0  0  0  0
    7.5571  -16.5517   23.7347 C   0  0  0  0  0  0  0  0  0  0  0  0
    8.2359  -17.6057   23.7067 O   0  0  0  0  0  0  0  0  0  0  0  0
    7.8088  -12.8432   19.7405 C   0  0  0  0  0  0  0  0  0  0  0  0
    7.6888  -14.1108   20.6057 C   0  0  0  0  0  0  0  0  0  0  0  0
    9.0543  -14.4512   21.0905 C   0  0  2  0  0  0  0  0  0  0  0  0
   10.0667  -14.5844   19.9911 C   0  0  0  0  0  0  0  0  0  0  0  0
    9.1645  -15.5697   22.0671 C   0  0  2  0  0  0  0  0  0  0  0  0
    7.9147  -15.5086   22.8680 N   0  0  0  0  0  0  0  0  0  0  0  0
   10.2827  -15.4337   23.0130 C   0  0  0  0  0  0  0  0  0  0  0  0
   11.0480  -14.4090   22.9959 O   0  0  0  0  0  0  0  0  0  0  0  0
   10.5575  -14.2181   27.7319 C   0  0  0  0  0  0  0  0  0  0  0  0
   10.8998  -14.6576   26.3401 C   0  0  0  0  0  0  0  0  0  0  0  0
   11.4581  -16.0604   26.2730 C   0  0  2  0  0  0  0  0  0  0  0  0
   12.6621  -16.2452   27.1523 C   0  0  0  0  0  0  0  0  0  0  0  0
   11.8097  -16.3068   24.8034 C   0  0  2  0  0  0  0  0  0  0  0  0
   10.6020  -16.3932   24.0016 N   0  0  0  0  0  0  0  0  0  0  0  0
   12.5587  -17.5808   24.7541 C   0  0  0  0  0  0  0  0  0  0  0  0
   13.9090  -17.5652   25.0631 O   0  0  0  0  0  0  0  0  0  0  0  0
   11.9977  -18.6676   24.4399 O   0  0  0  0  0  0  0  0  0  0  0  0
  2  1  1  1
  2  3  1  0
  3  4  1  0
  4  5  2  0
  6  5  1  0
  7  6  1  0
  8  7  2  0
  9  8  1  0
 10 11  1  0
 10  9  2  0
 11 12  2  0
 12  7  1  0
 12  4  1  0
 13  2  1  0
 14 13  2  0
 16 15  1  0
 17 16  1  0
 17 18  1  6
 19 20  1  1
 19 17  1  0
 20 13  1  0
 21 19  1  0
 22 21  2  0
 23 24  1  0
 24 25  1  0
 25 27  1  0
 25 26  1  1
 27 29  1  0
 27 28  1  6
 28 21  1  0
 29 30  1  0
 31 29  2  0
M  END
$$$$
