WII.pdb
     RDKit          3D

 31 32  0  0  1  0  0  0  0  0999 V2000
    6.2068  -18.9366   20.9571 N   0  0  0  0  0  0  0  0  0  0  0  0
    6.4134  -17.5852   21.3428 C   0  0  1  0  0  0  0  0  0  0  0  0
    5.5894  -16.5586   20.6462 C   0  0  0  0  0  0  0  0  0  0  0  0
    6.4921  -15.7256   19.7910 C   0  0  0  0  0  0  0  0  0  0  0  0
    6.8215  -15.9767   18.4574 C   0  0  0  0  0  0  0  0  0  0  0  0
    7.6327  -15.0029   18.0215 N   0  0  0  0  0  0  0  0  0  0  0  0
    7.8606  -14.1138   19.0016 C   0  0  0  0  0  0  0  0  0  0  0  0
    8.6261  -12.9479   19.0526 C   0  0  0  0  0  0  0  0  0  0  0  0
    8.6732  -12.2354   20.2251 C   0  0  0  0  0  0  0  0  0  0  0  0
    7.9683  -12.6874   21.3137 C   0  0  0  0  0  0  0  0  0  0  0  0
    7.2038  -13.8347   21.2935 C   0  0  0  0  0  0  0  0  0  0  0  0
    7.1510  -14.5589   20.1118 C   0  0  0  0  0  0  0  0  0  0  0  0
    6.2837  -17.4708   22.8407 C   0  0  0  0  0  0  0  0  0  0  0  0
    5.2089  -17.0427   23.3243 O   0  0  0  0  0  0  0  0  0  0  0  0
    7.7428  -20.7136   27.5043 C   0  0  0  0  0  0  0  0  0  0  0  0
    7.3982  -19.2440   27.2016 C   0  0  0  0  0  0  0  0  0  0  0  0
    7.4404  -19.0710   25.7238 C   0  0  2  0  0  0  0  0  0  0  0  0
    8.6718  -19.6443   25.0863 C   0  0  0  0  0  0  0  0  0  0  0  0
    7.1384  -17.7125   25.1945 C   0  0  2  0  0  0  0  0  0  0  0  0
    7.3154  -17.8222   23.7235 N   0  0  0  0  0  0  0  0  0  0  0  0
    8.0642  -16.6675   25.6575 C   0  0  0  0  0  0  0  0  0  0  0  0
    9.1839  -16.4640   25.0736 O   0  0  0  0  0  0  0  0  0  0  0  0
    6.0102  -12.1011   27.2648 C   0  0  0  0  0  0  0  0  0  0  0  0
    6.9703  -13.1312   26.7504 C   0  0  0  0  0  0  0  0  0  0  0  0
    7.9639  -13.5983   27.7889 C   0  0  2  0  0  0  0  0  0  0  0  0
    8.9055  -12.5092   28.2181 C   0  0  0  0  0  0  0  0  0  0  0  0
    8.7268  -14.7630   27.1518 C   0  0  2  0  0  0  0  0  0  0  0  0
    7.8068  -15.8143   26.7555 N   0  0  0  0  0  0  0  0  0  0  0  0
    9.6741  -15.2589   28.1732 C   0  0  0  0  0  0  0  0  0  0  0  0
   10.9053  -14.6349   28.2901 O   0  0  0  0  0  0  0  0  0  0  0  0
    9.3852  -16.2274   28.9303 O   0  0  0  0  0  0  0  0  0  0  0  0
  2  1  1  6
  2  3  1  0
  3  4  1  0
  4  5  2  0
  6  5  1  0
  7  6  1  0
  8  7  2  0
  9  8  1  0
 10 11  1  0
 10  9  2  0
 11 12  2  0
 12  7  1  0
 12  4  1  0
 13  2  1  0
 14 13  2  0
 16 15  1  0
 17 16  1  0
 17 18  1  1
 19 20  1  6
 19 17  1  0
 20 13  1  0
 21 19  1  0
 22 21  2  0
 23 24  1  0
 24 25  1  0
 25 27  1  0
 25 26  1  6
 27 29  1  0
 27 28  1  1
 28 21  1  0
 29 30  1  0
 31 29  2  0
M  END
$$$$
