WII.pdb
     RDKit          3D

 31 32  0  0  1  0  0  0  0  0999 V2000
    5.5752  -18.3879   24.3196 N   0  0  0  0  0  0  0  0  0  0  0  0
    6.2705  -17.1526   24.4098 C   0  0  1  0  0  0  0  0  0  0  0  0
    6.7365  -16.7462   25.7648 C   0  0  0  0  0  0  0  0  0  0  0  0
    6.0262  -15.4873   26.1534 C   0  0  0  0  0  0  0  0  0  0  0  0
    4.6953  -15.3891   26.5643 C   0  0  0  0  0  0  0  0  0  0  0  0
    4.4243  -14.1081   26.8504 N   0  0  0  0  0  0  0  0  0  0  0  0
    5.5118  -13.3465   26.6493 C   0  0  0  0  0  0  0  0  0  0  0  0
    5.7394  -11.9773   26.7951 C   0  0  0  0  0  0  0  0  0  0  0  0
    6.9825  -11.4757   26.4989 C   0  0  0  0  0  0  0  0  0  0  0  0
    7.9662  -12.3318   26.0679 C   0  0  0  0  0  0  0  0  0  0  0  0
    7.7713  -13.6881   25.9144 C   0  0  0  0  0  0  0  0  0  0  0  0
    6.5179  -14.2017   26.2129 C   0  0  0  0  0  0  0  0  0  0  0  0
    7.4027  -17.1459   23.4139 C   0  0  0  0  0  0  0  0  0  0  0  0
    8.0640  -18.1973   23.2422 O   0  0  0  0  0  0  0  0  0  0  0  0
    8.7163  -12.4274   20.4442 C   0  0  0  0  0  0  0  0  0  0  0  0
    9.0160  -13.4936   21.5134 C   0  0  0  0  0  0  0  0  0  0  0  0
    8.7704  -14.8257   20.8963 C   0  0  2  0  0  0  0  0  0  0  0  0
    7.4917  -14.8998   20.1149 C   0  0  0  0  0  0  0  0  0  0  0  0
    8.9397  -16.0172   21.7731 C   0  0  2  0  0  0  0  0  0  0  0  0
    7.7530  -16.0118   22.6668 N   0  0  0  0  0  0  0  0  0  0  0  0
   10.1260  -15.9611   22.6410 C   0  0  0  0  0  0  0  0  0  0  0  0
   11.2885  -15.7213   22.1645 O   0  0  0  0  0  0  0  0  0  0  0  0
    9.7055  -14.1053   27.7217 C   0  0  0  0  0  0  0  0  0  0  0  0
   10.1958  -14.4901   26.3583 C   0  0  0  0  0  0  0  0  0  0  0  0
   10.9027  -15.8255   26.3286 C   0  0  2  0  0  0  0  0  0  0  0  0
   12.1176  -15.8553   27.2118 C   0  0  0  0  0  0  0  0  0  0  0  0
   11.2823  -16.0716   24.8659 C   0  0  2  0  0  0  0  0  0  0  0  0
   10.0902  -16.1573   24.0411 N   0  0  0  0  0  0  0  0  0  0  0  0
   12.0316  -17.3459   24.8306 C   0  0  0  0  0  0  0  0  0  0  0  0
   11.4079  -18.4641   24.3019 O   0  0  0  0  0  0  0  0  0  0  0  0
   13.2133  -17.4321   25.2676 O   0  0  0  0  0  0  0  0  0  0  0  0
  2  1  1  1
  2  3  1  0
  3  4  1  0
  4  5  2  0
  6  5  1  0
  7  6  1  0
  8  7  2  0
  9  8  1  0
 10 11  1  0
 10  9  2  0
 11 12  2  0
 12  7  1  0
 12  4  1  0
 13  2  1  0
 14 13  2  0
 16 15  1  0
 17 16  1  0
 17 18  1  1
 19 20  1  1
 19 17  1  0
 20 13  1  0
 21 19  1  0
 22 21  2  0
 23 24  1  0
 24 25  1  0
 25 27  1  0
 25 26  1  1
 27 29  1  0
 27 28  1  6
 28 21  1  0
 29 30  1  0
 31 29  2  0
M  END
$$$$
