WII.pdb
     RDKit          3D

 31 32  0  0  1  0  0  0  0  0999 V2000
    5.6092  -18.3813   24.2596 N   0  0  0  0  0  0  0  0  0  0  0  0
    6.1783  -17.0913   24.4321 C   0  0  1  0  0  0  0  0  0  0  0  0
    6.6145  -16.7329   25.8103 C   0  0  0  0  0  0  0  0  0  0  0  0
    5.9965  -15.4200   26.1775 C   0  0  0  0  0  0  0  0  0  0  0  0
    4.6827  -15.2228   26.6075 C   0  0  0  0  0  0  0  0  0  0  0  0
    4.5027  -13.9198   26.8644 N   0  0  0  0  0  0  0  0  0  0  0  0
    5.6345  -13.2379   26.6257 C   0  0  0  0  0  0  0  0  0  0  0  0
    5.9551  -11.8837   26.7320 C   0  0  0  0  0  0  0  0  0  0  0  0
    7.2233  -11.4740   26.4024 C   0  0  0  0  0  0  0  0  0  0  0  0
    8.1400  -12.4044   25.9779 C   0  0  0  0  0  0  0  0  0  0  0  0
    7.8527  -13.7480   25.8631 C   0  0  0  0  0  0  0  0  0  0  0  0
    6.5736  -14.1691   26.1953 C   0  0  0  0  0  0  0  0  0  0  0  0
    7.2945  -16.9035   23.4357 C   0  0  0  0  0  0  0  0  0  0  0  0
    8.0398  -17.8766   23.1712 O   0  0  0  0  0  0  0  0  0  0  0  0
    8.7685  -12.5989   19.3504 C   0  0  0  0  0  0  0  0  0  0  0  0
    9.2283  -13.9575   19.9096 C   0  0  0  0  0  0  0  0  0  0  0  0
    8.3379  -14.2936   21.0540 C   0  0  2  0  0  0  0  0  0  0  0  0
    8.1040  -13.1454   21.9912 C   0  0  0  0  0  0  0  0  0  0  0  0
    8.6391  -15.5477   21.7980 C   0  0  2  0  0  0  0  0  0  0  0  0
    7.5397  -15.6841   22.7878 N   0  0  0  0  0  0  0  0  0  0  0  0
    9.8959  -15.5066   22.5612 C   0  0  0  0  0  0  0  0  0  0  0  0
   11.0296  -15.4352   21.9732 O   0  0  0  0  0  0  0  0  0  0  0  0
    9.8804  -13.7281   27.7725 C   0  0  0  0  0  0  0  0  0  0  0  0
   10.2386  -14.0403   26.3506 C   0  0  0  0  0  0  0  0  0  0  0  0
   10.9864  -15.3439   26.1915 C   0  0  2  0  0  0  0  0  0  0  0  0
   12.2834  -15.3617   26.9493 C   0  0  0  0  0  0  0  0  0  0  0  0
   11.2270  -15.5138   24.6890 C   0  0  2  0  0  0  0  0  0  0  0  0
    9.9636  -15.5373   23.9735 N   0  0  0  0  0  0  0  0  0  0  0  0
   11.9460  -16.7943   24.5165 C   0  0  0  0  0  0  0  0  0  0  0  0
   13.3221  -16.8054   24.6751 O   0  0  0  0  0  0  0  0  0  0  0  0
   11.3369  -17.8631   24.2313 O   0  0  0  0  0  0  0  0  0  0  0  0
  2  1  1  1
  2  3  1  0
  3  4  1  0
  4  5  2  0
  6  5  1  0
  7  6  1  0
  8  7  2  0
  9  8  1  0
 10 11  1  0
 10  9  2  0
 11 12  2  0
 12  7  1  0
 12  4  1  0
 13  2  1  0
 14 13  2  0
 16 15  1  0
 17 16  1  0
 17 18  1  1
 19 20  1  1
 19 17  1  0
 20 13  1  0
 21 19  1  0
 22 21  2  0
 23 24  1  0
 24 25  1  0
 25 27  1  0
 25 26  1  1
 27 29  1  0
 27 28  1  6
 28 21  1  0
 29 30  1  0
 31 29  2  0
M  END
$$$$
