WII.pdb
     RDKit          3D

 31 32  0  0  1  0  0  0  0  0999 V2000
    7.1164  -16.1982   21.0787 N   0  0  0  0  0  0  0  0  0  0  0  0
    7.0517  -16.7770   22.3743 C   0  0  1  0  0  0  0  0  0  0  0  0
    7.4074  -18.2195   22.4797 C   0  0  0  0  0  0  0  0  0  0  0  0
    6.9626  -18.7215   23.8177 C   0  0  0  0  0  0  0  0  0  0  0  0
    5.6414  -18.8268   24.2573 C   0  0  0  0  0  0  0  0  0  0  0  0
    5.6371  -19.3384   25.4961 N   0  0  0  0  0  0  0  0  0  0  0  0
    6.8935  -19.5792   25.9042 C   0  0  0  0  0  0  0  0  0  0  0  0
    7.4123  -20.0939   27.0933 C   0  0  0  0  0  0  0  0  0  0  0  0
    8.7731  -20.2191   27.2246 C   0  0  0  0  0  0  0  0  0  0  0  0
    9.5855  -19.8353   26.1859 C   0  0  0  0  0  0  0  0  0  0  0  0
    9.1024  -19.3240   25.0000 C   0  0  0  0  0  0  0  0  0  0  0  0
    7.7285  -19.1957   24.8602 C   0  0  0  0  0  0  0  0  0  0  0  0
    7.8600  -15.9398   23.3333 C   0  0  0  0  0  0  0  0  0  0  0  0
    9.0241  -15.6037   23.0105 O   0  0  0  0  0  0  0  0  0  0  0  0
    5.6074  -11.9752   26.2078 C   0  0  0  0  0  0  0  0  0  0  0  0
    6.5667  -12.7763   25.3091 C   0  0  0  0  0  0  0  0  0  0  0  0
    7.2528  -13.7782   26.1699 C   0  0  2  0  0  0  0  0  0  0  0  0
    7.8487  -13.1925   27.4162 C   0  0  0  0  0  0  0  0  0  0  0  0
    8.2041  -14.7063   25.4986 C   0  0  2  0  0  0  0  0  0  0  0  0
    7.3679  -15.5177   24.5769 N   0  0  0  0  0  0  0  0  0  0  0  0
    8.8687  -15.6493   26.4111 C   0  0  0  0  0  0  0  0  0  0  0  0
    8.1950  -16.4333   27.1645 O   0  0  0  0  0  0  0  0  0  0  0  0
   13.3136  -17.8651   24.5683 C   0  0  0  0  0  0  0  0  0  0  0  0
   12.0562  -17.4769   25.2866 C   0  0  0  0  0  0  0  0  0  0  0  0
   12.2697  -17.1763   26.7522 C   0  0  2  0  0  0  0  0  0  0  0  0
   12.8800  -18.3305   27.4953 C   0  0  0  0  0  0  0  0  0  0  0  0
   10.8906  -16.8275   27.3185 C   0  0  2  0  0  0  0  0  0  0  0  0
   10.2721  -15.7747   26.5324 N   0  0  0  0  0  0  0  0  0  0  0  0
   11.1048  -16.3790   28.7111 C   0  0  0  0  0  0  0  0  0  0  0  0
   11.2142  -17.3384   29.7043 O   0  0  0  0  0  0  0  0  0  0  0  0
   11.1887  -15.1543   29.0073 O   0  0  0  0  0  0  0  0  0  0  0  0
  2  1  1  6
  2  3  1  0
  3  4  1  0
  4  5  2  0
  6  5  1  0
  7  6  1  0
  8  7  2  0
  9  8  1  0
 10 11  1  0
 10  9  2  0
 11 12  2  0
 12  7  1  0
 12  4  1  0
 13  2  1  0
 14 13  2  0
 16 15  1  0
 17 16  1  0
 17 18  1  1
 19 20  1  6
 19 17  1  0
 20 13  1  0
 21 19  1  0
 22 21  2  0
 23 24  1  0
 24 25  1  0
 25 27  1  0
 25 26  1  1
 27 29  1  0
 27 28  1  6
 28 21  1  0
 29 30  1  0
 31 29  2  0
M  END
$$$$
