WII.pdb
     RDKit          3D

 31 32  0  0  1  0  0  0  0  0999 V2000
    6.2197  -17.5692   22.0720 N   0  0  0  0  0  0  0  0  0  0  0  0
    6.6633  -17.6864   23.4163 C   0  0  1  0  0  0  0  0  0  0  0  0
    7.4041  -18.9294   23.7690 C   0  0  0  0  0  0  0  0  0  0  0  0
    6.4720  -19.8474   24.4961 C   0  0  0  0  0  0  0  0  0  0  0  0
    5.4090  -20.5546   23.9306 C   0  0  0  0  0  0  0  0  0  0  0  0
    4.8198  -21.2870   24.8858 N   0  0  0  0  0  0  0  0  0  0  0  0
    5.4393  -21.1017   26.0627 C   0  0  0  0  0  0  0  0  0  0  0  0
    5.2092  -21.6218   27.3372 C   0  0  0  0  0  0  0  0  0  0  0  0
    6.0242  -21.2312   28.3706 C   0  0  0  0  0  0  0  0  0  0  0  0
    7.0409  -20.3415   28.1239 C   0  0  0  0  0  0  0  0  0  0  0  0
    7.2926  -19.8112   26.8763 C   0  0  0  0  0  0  0  0  0  0  0  0
    6.4736  -20.2023   25.8274 C   0  0  0  0  0  0  0  0  0  0  0  0
    7.4478  -16.4540   23.7897 C   0  0  0  0  0  0  0  0  0  0  0  0
    8.4501  -16.1434   23.1032 O   0  0  0  0  0  0  0  0  0  0  0  0
    5.4601  -12.0891   26.5074 C   0  0  0  0  0  0  0  0  0  0  0  0
    6.2698  -12.9000   25.4795 C   0  0  0  0  0  0  0  0  0  0  0  0
    7.2657  -13.7091   26.2338 C   0  0  2  0  0  0  0  0  0  0  0  0
    8.1192  -12.8978   27.1637 C   0  0  0  0  0  0  0  0  0  0  0  0
    8.0847  -14.6740   25.4494 C   0  0  2  0  0  0  0  0  0  0  0  0
    7.1072  -15.6344   24.8757 N   0  0  0  0  0  0  0  0  0  0  0  0
    9.0276  -15.4600   26.2598 C   0  0  0  0  0  0  0  0  0  0  0  0
    8.6367  -16.1171   27.2853 O   0  0  0  0  0  0  0  0  0  0  0  0
   13.4758  -16.9517   23.6136 C   0  0  0  0  0  0  0  0  0  0  0  0
   12.2875  -16.9940   24.5266 C   0  0  0  0  0  0  0  0  0  0  0  0
   12.6151  -16.6314   25.9567 C   0  0  2  0  0  0  0  0  0  0  0  0
   13.4901  -17.6532   26.6254 C   0  0  0  0  0  0  0  0  0  0  0  0
   11.2717  -16.5027   26.6797 C   0  0  2  0  0  0  0  0  0  0  0  0
   10.4111  -15.5616   25.9851 N   0  0  0  0  0  0  0  0  0  0  0  0
   11.5696  -16.0236   28.0465 C   0  0  0  0  0  0  0  0  0  0  0  0
   11.4593  -14.6681   28.3097 O   0  0  0  0  0  0  0  0  0  0  0  0
   11.9179  -16.8166   28.9654 O   0  0  0  0  0  0  0  0  0  0  0  0
  2  1  1  6
  2  3  1  0
  3  4  1  0
  4  5  2  0
  6  5  1  0
  7  6  1  0
  8  7  2  0
  9  8  1  0
 10 11  1  0
 10  9  2  0
 11 12  2  0
 12  7  1  0
 12  4  1  0
 13  2  1  0
 14 13  2  0
 16 15  1  0
 17 16  1  0
 17 18  1  6
 19 20  1  1
 19 17  1  0
 20 13  1  0
 21 19  1  0
 22 21  2  0
 23 24  1  0
 24 25  1  0
 25 27  1  0
 25 26  1  1
 27 29  1  0
 27 28  1  6
 28 21  1  0
 29 30  1  0
 31 29  2  0
M  END
$$$$
