WII.pdb
     RDKit          3D

 31 32  0  0  1  0  0  0  0  0999 V2000
    5.4826  -17.8899   24.2986 N   0  0  0  0  0  0  0  0  0  0  0  0
    6.2643  -16.7062   24.3726 C   0  0  1  0  0  0  0  0  0  0  0  0
    6.7779  -16.3282   25.7186 C   0  0  0  0  0  0  0  0  0  0  0  0
    6.0991  -15.0654   26.1482 C   0  0  0  0  0  0  0  0  0  0  0  0
    4.7879  -14.9563   26.6162 C   0  0  0  0  0  0  0  0  0  0  0  0
    4.5440  -13.6752   26.9249 N   0  0  0  0  0  0  0  0  0  0  0  0
    5.6306  -12.9237   26.6847 C   0  0  0  0  0  0  0  0  0  0  0  0
    5.8798  -11.5586   26.8330 C   0  0  0  0  0  0  0  0  0  0  0  0
    7.1150  -11.0680   26.4888 C   0  0  0  0  0  0  0  0  0  0  0  0
    8.0697  -11.9308   26.0088 C   0  0  0  0  0  0  0  0  0  0  0  0
    7.8529  -13.2833   25.8516 C   0  0  0  0  0  0  0  0  0  0  0  0
    6.6075  -13.7859   26.1983 C   0  0  0  0  0  0  0  0  0  0  0  0
    7.3793  -16.7832   23.3603 C   0  0  0  0  0  0  0  0  0  0  0  0
    8.0053  -17.8618   23.2302 O   0  0  0  0  0  0  0  0  0  0  0  0
    7.7083  -12.9541   19.4598 C   0  0  0  0  0  0  0  0  0  0  0  0
    7.6113  -14.3045   20.1924 C   0  0  0  0  0  0  0  0  0  0  0  0
    8.9217  -14.5480   20.8550 C   0  0  2  0  0  0  0  0  0  0  0  0
   10.0898  -14.4959   19.9147 C   0  0  0  0  0  0  0  0  0  0  0  0
    9.0101  -15.7235   21.7645 C   0  0  2  0  0  0  0  0  0  0  0  0
    7.7514  -15.6981   22.5533 N   0  0  0  0  0  0  0  0  0  0  0  0
   10.1181  -15.6549   22.7296 C   0  0  0  0  0  0  0  0  0  0  0  0
   11.2093  -15.0499   22.4481 O   0  0  0  0  0  0  0  0  0  0  0  0
   10.9950  -14.3681   28.5211 C   0  0  0  0  0  0  0  0  0  0  0  0
   11.4853  -14.9942   27.2503 C   0  0  0  0  0  0  0  0  0  0  0  0
   10.3771  -15.3299   26.2792 C   0  0  2  0  0  0  0  0  0  0  0  0
    9.3818  -16.2988   26.8514 C   0  0  0  0  0  0  0  0  0  0  0  0
   11.0616  -15.9147   25.0407 C   0  0  2  0  0  0  0  0  0  0  0  0
   10.0779  -16.2310   24.0205 N   0  0  0  0  0  0  0  0  0  0  0  0
   11.7644  -17.1385   25.4825 C   0  0  0  0  0  0  0  0  0  0  0  0
   12.9673  -17.0024   26.1558 O   0  0  0  0  0  0  0  0  0  0  0  0
   11.2944  -18.2893   25.2602 O   0  0  0  0  0  0  0  0  0  0  0  0
  2  1  1  1
  2  3  1  0
  3  4  1  0
  4  5  2  0
  6  5  1  0
  7  6  1  0
  8  7  2  0
  9  8  1  0
 10 11  1  0
 10  9  2  0
 11 12  2  0
 12  7  1  0
 12  4  1  0
 13  2  1  0
 14 13  2  0
 16 15  1  0
 17 16  1  0
 17 18  1  6
 19 20  1  1
 19 17  1  0
 20 13  1  0
 21 19  1  0
 22 21  2  0
 23 24  1  0
 24 25  1  0
 25 27  1  0
 25 26  1  1
 27 29  1  0
 27 28  1  6
 28 21  1  0
 29 30  1  0
 31 29  2  0
M  END
$$$$
