WII.pdb
     RDKit          3D

 31 32  0  0  1  0  0  0  0  0999 V2000
    5.5627  -18.1003   24.5134 N   0  0  0  0  0  0  0  0  0  0  0  0
    6.2608  -16.8633   24.5112 C   0  0  1  0  0  0  0  0  0  0  0  0
    6.7427  -16.3662   25.8299 C   0  0  0  0  0  0  0  0  0  0  0  0
    6.0663  -15.0634   26.1222 C   0  0  0  0  0  0  0  0  0  0  0  0
    4.6960  -14.8748   26.3139 C   0  0  0  0  0  0  0  0  0  0  0  0
    4.4702  -13.5801   26.5767 N   0  0  0  0  0  0  0  0  0  0  0  0
    5.6254  -12.8955   26.5691 C   0  0  0  0  0  0  0  0  0  0  0  0
    5.9192  -11.5469   26.7761 C   0  0  0  0  0  0  0  0  0  0  0  0
    7.2253  -11.1321   26.6948 C   0  0  0  0  0  0  0  0  0  0  0  0
    8.2053  -12.0520   26.4127 C   0  0  0  0  0  0  0  0  0  0  0  0
    7.9458  -13.3900   26.2038 C   0  0  0  0  0  0  0  0  0  0  0  0
    6.6284  -13.8162   26.2852 C   0  0  0  0  0  0  0  0  0  0  0  0
    7.3817  -16.9273   23.5046 C   0  0  0  0  0  0  0  0  0  0  0  0
    7.9130  -18.0364   23.2601 O   0  0  0  0  0  0  0  0  0  0  0  0
    7.9019  -12.8268   19.8541 C   0  0  0  0  0  0  0  0  0  0  0  0
    7.7397  -14.2635   20.3827 C   0  0  0  0  0  0  0  0  0  0  0  0
    8.9846  -14.6105   21.1212 C   0  0  2  0  0  0  0  0  0  0  0  0
   10.2332  -14.4451   20.3059 C   0  0  0  0  0  0  0  0  0  0  0  0
    8.9904  -15.8998   21.8660 C   0  0  2  0  0  0  0  0  0  0  0  0
    7.8610  -15.7975   22.8257 N   0  0  0  0  0  0  0  0  0  0  0  0
   10.2058  -16.1285   22.6623 C   0  0  0  0  0  0  0  0  0  0  0  0
   11.3588  -16.1951   22.1126 O   0  0  0  0  0  0  0  0  0  0  0  0
   11.4325  -13.7159   28.1191 C   0  0  0  0  0  0  0  0  0  0  0  0
   11.8440  -14.5043   26.9123 C   0  0  0  0  0  0  0  0  0  0  0  0
   10.6795  -15.1173   26.1691 C   0  0  2  0  0  0  0  0  0  0  0  0
    9.9465  -16.1413   26.9883 C   0  0  0  0  0  0  0  0  0  0  0  0
   11.2685  -15.7469   24.9038 C   0  0  2  0  0  0  0  0  0  0  0  0
   10.2111  -16.2867   24.0676 N   0  0  0  0  0  0  0  0  0  0  0  0
   12.1791  -16.8232   25.3498 C   0  0  0  0  0  0  0  0  0  0  0  0
   11.8364  -18.1360   25.0707 O   0  0  0  0  0  0  0  0  0  0  0  0
   13.2487  -16.5708   25.9720 O   0  0  0  0  0  0  0  0  0  0  0  0
  2  1  1  1
  2  3  1  0
  3  4  1  0
  4  5  2  0
  6  5  1  0
  7  6  1  0
  8  7  2  0
  9  8  1  0
 10 11  1  0
 10  9  2  0
 11 12  2  0
 12  7  1  0
 12  4  1  0
 13  2  1  0
 14 13  2  0
 16 15  1  0
 17 16  1  0
 17 18  1  6
 19 20  1  1
 19 17  1  0
 20 13  1  0
 21 19  1  0
 22 21  2  0
 23 24  1  0
 24 25  1  0
 25 27  1  0
 25 26  1  1
 27 29  1  0
 27 28  1  6
 28 21  1  0
 29 30  1  0
 31 29  2  0
M  END
$$$$
