WII.pdb
     RDKit          3D

 31 32  0  0  1  0  0  0  0  0999 V2000
    7.2464  -16.8563   20.5450 N   0  0  0  0  0  0  0  0  0  0  0  0
    8.0582  -15.9952   21.3306 C   0  0  1  0  0  0  0  0  0  0  0  0
    7.5711  -14.5993   21.5111 C   0  0  0  0  0  0  0  0  0  0  0  0
    7.6150  -13.9060   20.1853 C   0  0  0  0  0  0  0  0  0  0  0  0
    6.5221  -13.3643   19.5056 C   0  0  0  0  0  0  0  0  0  0  0  0
    6.9545  -12.8067   18.3662 N   0  0  0  0  0  0  0  0  0  0  0  0
    8.2847  -12.9510   18.2531 C   0  0  0  0  0  0  0  0  0  0  0  0
    9.1916  -12.5582   17.2677 C   0  0  0  0  0  0  0  0  0  0  0  0
   10.5207  -12.8610   17.4300 C   0  0  0  0  0  0  0  0  0  0  0  0
   10.9217  -13.5408   18.5540 C   0  0  0  0  0  0  0  0  0  0  0  0
   10.0496  -13.9415   19.5439 C   0  0  0  0  0  0  0  0  0  0  0  0
    8.7053  -13.6380   19.3869 C   0  0  0  0  0  0  0  0  0  0  0  0
    8.3429  -16.6541   22.6567 C   0  0  0  0  0  0  0  0  0  0  0  0
    7.3826  -16.9289   23.4146 O   0  0  0  0  0  0  0  0  0  0  0  0
   12.1484  -19.8532   22.7540 C   0  0  0  0  0  0  0  0  0  0  0  0
   10.8510  -19.6044   23.5443 C   0  0  0  0  0  0  0  0  0  0  0  0
   11.0528  -18.3743   24.3578 C   0  0  2  0  0  0  0  0  0  0  0  0
   11.6775  -18.6350   25.6969 C   0  0  0  0  0  0  0  0  0  0  0  0
    9.8968  -17.4428   24.4711 C   0  0  2  0  0  0  0  0  0  0  0  0
    9.6394  -16.9751   23.0848 N   0  0  0  0  0  0  0  0  0  0  0  0
   10.1674  -16.2449   25.2807 C   0  0  0  0  0  0  0  0  0  0  0  0
   11.1132  -15.4380   24.9800 O   0  0  0  0  0  0  0  0  0  0  0  0
    6.6743  -12.7755   26.5202 C   0  0  0  0  0  0  0  0  0  0  0  0
    7.9550  -13.5356   26.3487 C   0  0  0  0  0  0  0  0  0  0  0  0
    8.5987  -13.9317   27.6575 C   0  0  2  0  0  0  0  0  0  0  0  0
    9.0007  -12.7446   28.4857 C   0  0  0  0  0  0  0  0  0  0  0  0
    9.8178  -14.7819   27.2899 C   0  0  2  0  0  0  0  0  0  0  0  0
    9.4257  -15.8840   26.4294 N   0  0  0  0  0  0  0  0  0  0  0  0
   10.3801  -15.2888   28.5601 C   0  0  0  0  0  0  0  0  0  0  0  0
   10.1071  -16.5961   28.9279 O   0  0  0  0  0  0  0  0  0  0  0  0
   11.0947  -14.5616   29.3053 O   0  0  0  0  0  0  0  0  0  0  0  0
  2  1  1  1
  2  3  1  0
  3  4  1  0
  4  5  2  0
  6  5  1  0
  7  6  1  0
  8  7  2  0
  9  8  1  0
 10 11  1  0
 10  9  2  0
 11 12  2  0
 12  7  1  0
 12  4  1  0
 13  2  1  0
 14 13  2  0
 16 15  1  0
 17 16  1  0
 17 18  1  1
 19 20  1  6
 19 17  1  0
 20 13  1  0
 21 19  1  0
 22 21  2  0
 23 24  1  0
 24 25  1  0
 25 27  1  0
 25 26  1  6
 27 29  1  0
 27 28  1  6
 28 21  1  0
 29 30  1  0
 31 29  2  0
M  END
$$$$
