DSV.pdb
     RDKit          3D

 22 21  0  0  1  0  0  0  0  0999 V2000
   17.9726  -12.0742  -17.2469 N   0  0  0  0  0  0  0  0  0  0  0  0
   18.7399  -10.9658  -17.8815 C   0  0  1  0  0  0  0  0  0  0  0  0
   17.7596   -9.8913  -18.2594 C   0  0  0  0  0  0  0  0  0  0  0  0
   16.9220  -10.2910  -19.3863 C   0  0  0  0  0  0  0  0  0  0  0  0
   17.3361  -10.9246  -20.3504 O   0  0  0  0  0  0  0  0  0  0  0  0
   19.6552  -10.4350  -16.8237 C   0  0  0  0  0  0  0  0  0  0  0  0
   19.3221  -10.4604  -15.6291 O   0  0  0  0  0  0  0  0  0  0  0  0
   15.5717   -9.9218  -19.3470 O   0  0  0  0  0  0  0  0  0  0  0  0
   23.6403  -10.7648  -15.7553 O   0  0  0  0  0  0  0  0  0  0  0  0
   23.2482   -9.6133  -16.3858 C   0  0  0  0  0  0  0  0  0  0  0  0
   21.7654   -9.2884  -16.1429 C   0  0  2  0  0  0  0  0  0  0  0  0
   20.9302   -9.8888  -17.1678 N   0  0  0  0  0  0  0  0  0  0  0  0
   21.6921   -7.8070  -16.2562 C   0  0  0  0  0  0  0  0  0  0  0  0
   21.5150   -7.2673  -17.3950 O   0  0  0  0  0  0  0  0  0  0  0  0
   19.2651   -5.8666  -14.4016 C   0  0  0  0  0  0  0  0  0  0  0  0
   20.1638   -5.2318  -15.4595 C   0  0  1  0  0  0  0  0  0  0  0  0
   19.9381   -3.7511  -15.4830 C   0  0  0  0  0  0  0  0  0  0  0  0
   21.6131   -5.5876  -15.1970 C   0  0  2  0  0  0  0  0  0  0  0  0
   21.8205   -6.9984  -15.0949 N   0  0  0  0  0  0  0  0  0  0  0  0
   21.9807   -4.8952  -13.9243 C   0  0  0  0  0  0  0  0  0  0  0  0
   22.4163   -3.6009  -13.8705 O   0  0  0  0  0  0  0  0  0  0  0  0
   21.8701   -5.5767  -12.8608 O   0  0  0  0  0  0  0  0  0  0  0  0
  2  1  1  1
  3  2  1  0
  3  4  1  0
  4  8  1  0
  5  4  2  0
  6  2  1  0
  7  6  2  0
  9 10  1  0
 11 10  1  6
 11 13  1  0
 11 12  1  0
 12  6  1  0
 13 19  1  0
 14 13  2  0
 16 15  1  1
 16 17  1  0
 18 16  1  0
 18 19  1  1
 20 21  1  0
 20 18  1  0
 22 20  2  0
M  END
$$$$
