DSV.pdb
     RDKit          3D

 22 21  0  0  1  0  0  0  0  0999 V2000
   25.5033  -19.9835  -16.9626 N   0  0  0  0  0  0  0  0  0  0  0  0
   26.4789  -19.4614  -15.9647 C   0  0  1  0  0  0  0  0  0  0  0  0
   26.9929  -18.1451  -16.4759 C   0  0  0  0  0  0  0  0  0  0  0  0
   27.6792  -18.2894  -17.7563 C   0  0  0  0  0  0  0  0  0  0  0  0
   27.2588  -17.8243  -18.8095 O   0  0  0  0  0  0  0  0  0  0  0  0
   25.7013  -19.2221  -14.7090 C   0  0  0  0  0  0  0  0  0  0  0  0
   25.2165  -18.1058  -14.4692 O   0  0  0  0  0  0  0  0  0  0  0  0
   28.8848  -19.0021  -17.7632 O   0  0  0  0  0  0  0  0  0  0  0  0
   23.6626  -22.2269  -12.9933 O   0  0  0  0  0  0  0  0  0  0  0  0
   23.3862  -20.9215  -12.6821 C   0  0  0  0  0  0  0  0  0  0  0  0
   24.6551  -20.0573  -12.6021 C   0  0  2  0  0  0  0  0  0  0  0  0
   25.5016  -20.2735  -13.7620 N   0  0  0  0  0  0  0  0  0  0  0  0
   25.3560  -20.5481  -11.3852 C   0  0  0  0  0  0  0  0  0  0  0  0
   26.1889  -21.5057  -11.4774 O   0  0  0  0  0  0  0  0  0  0  0  0
   26.6522  -20.0531   -6.6820 C   0  0  0  0  0  0  0  0  0  0  0  0
   26.0068  -19.4222   -7.9129 C   0  0  1  0  0  0  0  0  0  0  0  0
   26.8972  -18.3417   -8.4451 C   0  0  0  0  0  0  0  0  0  0  0  0
   25.7103  -20.4853   -8.9512 C   0  0  2  0  0  0  0  0  0  0  0  0
   25.0941  -19.9482  -10.1241 N   0  0  0  0  0  0  0  0  0  0  0  0
   24.8166  -21.4768   -8.2785 C   0  0  0  0  0  0  0  0  0  0  0  0
   25.2757  -22.4671   -7.4561 O   0  0  0  0  0  0  0  0  0  0  0  0
   23.5749  -21.3612   -8.5077 O   0  0  0  0  0  0  0  0  0  0  0  0
  2  1  1  6
  3  2  1  0
  3  4  1  0
  4  8  1  0
  5  4  2  0
  6  2  1  0
  7  6  2  0
  9 10  1  0
 11 10  1  6
 11 13  1  0
 11 12  1  0
 12  6  1  0
 13 19  1  0
 14 13  2  0
 16 15  1  1
 16 17  1  0
 18 16  1  0
 18 19  1  6
 20 21  1  0
 20 18  1  0
 22 20  2  0
M  END
$$$$
