DSV.pdb
     RDKit          3D

 22 21  0  0  1  0  0  0  0  0999 V2000
   17.1591  -11.5375  -16.7457 N   0  0  0  0  0  0  0  0  0  0  0  0
   18.2372  -11.3915  -15.7276 C   0  0  1  0  0  0  0  0  0  0  0  0
   19.5203  -11.8623  -16.3522 C   0  0  0  0  0  0  0  0  0  0  0  0
   19.6130  -13.3191  -16.3721 C   0  0  0  0  0  0  0  0  0  0  0  0
   18.8432  -14.0580  -15.7689 O   0  0  0  0  0  0  0  0  0  0  0  0
   18.3462   -9.9264  -15.4448 C   0  0  0  0  0  0  0  0  0  0  0  0
   18.5602   -9.1200  -16.3628 O   0  0  0  0  0  0  0  0  0  0  0  0
   20.6456  -13.8878  -17.1283 O   0  0  0  0  0  0  0  0  0  0  0  0
   16.4172   -8.0702  -12.3215 O   0  0  0  0  0  0  0  0  0  0  0  0
   17.7158   -7.6596  -12.4709 C   0  0  0  0  0  0  0  0  0  0  0  0
   18.2812   -7.9992  -13.8595 C   0  0  2  0  0  0  0  0  0  0  0  0
   18.2058   -9.4270  -14.1132 N   0  0  0  0  0  0  0  0  0  0  0  0
   19.7092   -7.5894  -13.7833 C   0  0  0  0  0  0  0  0  0  0  0  0
   20.5788   -8.4048  -13.3380 O   0  0  0  0  0  0  0  0  0  0  0  0
   23.3344   -4.9440  -15.6214 C   0  0  0  0  0  0  0  0  0  0  0  0
   21.8574   -5.3290  -15.6147 C   0  0  1  0  0  0  0  0  0  0  0  0
   21.5702   -6.2271  -16.7786 C   0  0  0  0  0  0  0  0  0  0  0  0
   21.4894   -5.9687  -14.2912 C   0  0  2  0  0  0  0  0  0  0  0  0
   20.0990   -6.2902  -14.2065 N   0  0  0  0  0  0  0  0  0  0  0  0
   21.8800   -4.9832  -13.2374 C   0  0  0  0  0  0  0  0  0  0  0  0
   23.1229   -4.9406  -12.6707 O   0  0  0  0  0  0  0  0  0  0  0  0
   20.9848   -4.1611  -12.8764 O   0  0  0  0  0  0  0  0  0  0  0  0
  2  1  1  6
  3  2  1  0
  3  4  1  0
  4  8  1  0
  5  4  2  0
  6  2  1  0
  7  6  2  0
  9 10  1  0
 11 10  1  1
 11 13  1  0
 11 12  1  0
 12  6  1  0
 13 19  1  0
 14 13  2  0
 16 15  1  1
 16 17  1  0
 18 16  1  0
 18 19  1  6
 20 21  1  0
 20 18  1  0
 22 20  2  0
M  END
$$$$
