DSV.pdb
     RDKit          3D

 22 21  0  0  1  0  0  0  0  0999 V2000
   16.6171  -11.8940  -16.5870 N   0  0  0  0  0  0  0  0  0  0  0  0
   17.6082  -11.6347  -15.5051 C   0  0  1  0  0  0  0  0  0  0  0  0
   18.8797  -12.3467  -15.8720 C   0  0  0  0  0  0  0  0  0  0  0  0
   18.8095  -13.7740  -15.5734 C   0  0  0  0  0  0  0  0  0  0  0  0
   17.8945  -14.2930  -14.9442 O   0  0  0  0  0  0  0  0  0  0  0  0
   17.8594  -10.1598  -15.5161 C   0  0  0  0  0  0  0  0  0  0  0  0
   18.2877   -9.5995  -16.5365 O   0  0  0  0  0  0  0  0  0  0  0  0
   19.8547  -14.5810  -16.0399 O   0  0  0  0  0  0  0  0  0  0  0  0
   17.5323   -7.9095  -11.9757 O   0  0  0  0  0  0  0  0  0  0  0  0
   17.2749   -7.2477  -13.1475 C   0  0  0  0  0  0  0  0  0  0  0  0
   17.9034   -7.9456  -14.3645 C   0  0  2  0  0  0  0  0  0  0  0  0
   17.6109   -9.3678  -14.3528 N   0  0  0  0  0  0  0  0  0  0  0  0
   19.3666   -7.7444  -14.1864 C   0  0  0  0  0  0  0  0  0  0  0  0
   20.0524   -8.6108  -13.5552 O   0  0  0  0  0  0  0  0  0  0  0  0
   23.5593   -5.9664  -15.8061 C   0  0  0  0  0  0  0  0  0  0  0  0
   22.0643   -6.2220  -15.9776 C   0  0  1  0  0  0  0  0  0  0  0  0
   21.8587   -7.3735  -16.9132 C   0  0  0  0  0  0  0  0  0  0  0  0
   21.4152   -6.4554  -14.6283 C   0  0  2  0  0  0  0  0  0  0  0  0
   19.9946   -6.5868  -14.7197 N   0  0  0  0  0  0  0  0  0  0  0  0
   21.7949   -5.2827  -13.7828 C   0  0  0  0  0  0  0  0  0  0  0  0
   22.9034   -5.2586  -12.9837 O   0  0  0  0  0  0  0  0  0  0  0  0
   21.0239   -4.2776  -13.8361 O   0  0  0  0  0  0  0  0  0  0  0  0
  2  1  1  6
  3  2  1  0
  3  4  1  0
  4  8  1  0
  5  4  2  0
  6  2  1  0
  7  6  2  0
  9 10  1  0
 11 10  1  1
 11 13  1  0
 11 12  1  0
 12  6  1  0
 13 19  1  0
 14 13  2  0
 16 15  1  1
 16 17  1  0
 18 16  1  0
 18 19  1  6
 20 21  1  0
 20 18  1  0
 22 20  2  0
M  END
$$$$
