DSV.pdb
     RDKit          3D

 22 21  0  0  1  0  0  0  0  0999 V2000
   16.7168  -14.4850  -16.7158 N   0  0  0  0  0  0  0  0  0  0  0  0
   16.3648  -13.0538  -16.4973 C   0  0  1  0  0  0  0  0  0  0  0  0
   15.9346  -12.9041  -15.0652 C   0  0  0  0  0  0  0  0  0  0  0  0
   14.6170  -13.4869  -14.8294 C   0  0  0  0  0  0  0  0  0  0  0  0
   14.4275  -14.4837  -14.1417 O   0  0  0  0  0  0  0  0  0  0  0  0
   17.6273  -12.2787  -16.7064 C   0  0  0  0  0  0  0  0  0  0  0  0
   18.7261  -12.7662  -16.4001 O   0  0  0  0  0  0  0  0  0  0  0  0
   13.5188  -12.8587  -15.4300 O   0  0  0  0  0  0  0  0  0  0  0  0
   18.3825   -9.5475  -19.7901 O   0  0  0  0  0  0  0  0  0  0  0  0
   18.6025   -9.0987  -18.5144 C   0  0  0  0  0  0  0  0  0  0  0  0
   18.8309  -10.2488  -17.5202 C   0  0  2  0  0  0  0  0  0  0  0  0
   17.5930  -10.9628  -17.2627 N   0  0  0  0  0  0  0  0  0  0  0  0
   19.2748   -9.5712  -16.2725 C   0  0  0  0  0  0  0  0  0  0  0  0
   18.4161   -9.2303  -15.3974 O   0  0  0  0  0  0  0  0  0  0  0  0
   21.9068  -10.9622  -13.9313 C   0  0  0  0  0  0  0  0  0  0  0  0
   22.2778   -9.5139  -14.2385 C   0  0  1  0  0  0  0  0  0  0  0  0
   23.4524   -9.4856  -15.1676 C   0  0  0  0  0  0  0  0  0  0  0  0
   21.0810   -8.7757  -14.8033 C   0  0  2  0  0  0  0  0  0  0  0  0
   20.6545   -9.3056  -16.0607 N   0  0  0  0  0  0  0  0  0  0  0  0
   21.5052   -7.3485  -14.9357 C   0  0  0  0  0  0  0  0  0  0  0  0
   21.6813   -6.5137  -13.8680 O   0  0  0  0  0  0  0  0  0  0  0  0
   21.7017   -6.9271  -16.1153 O   0  0  0  0  0  0  0  0  0  0  0  0
  2  1  1  1
  3  2  1  0
  3  4  1  0
  4  8  1  0
  5  4  2  0
  6  2  1  0
  7  6  2  0
  9 10  1  0
 11 10  1  6
 11 13  1  0
 11 12  1  0
 12  6  1  0
 13 19  1  0
 14 13  2  0
 16 15  1  6
 16 17  1  0
 18 16  1  0
 18 19  1  6
 20 21  1  0
 20 18  1  0
 22 20  2  0
M  END
$$$$
