DSV.pdb
     RDKit          3D

 22 21  0  0  1  0  0  0  0  0999 V2000
   17.2774  -12.0663  -14.0354 N   0  0  0  0  0  0  0  0  0  0  0  0
   17.4158  -11.8890  -15.5084 C   0  0  1  0  0  0  0  0  0  0  0  0
   16.1013  -12.2572  -16.1369 C   0  0  0  0  0  0  0  0  0  0  0  0
   15.7545  -13.6543  -15.8935 C   0  0  0  0  0  0  0  0  0  0  0  0
   16.5832  -14.5392  -15.7126 O   0  0  0  0  0  0  0  0  0  0  0  0
   17.6659  -10.4307  -15.7299 C   0  0  0  0  0  0  0  0  0  0  0  0
   17.6080   -9.9458  -16.8701 O   0  0  0  0  0  0  0  0  0  0  0  0
   14.3937  -13.9844  -15.8685 O   0  0  0  0  0  0  0  0  0  0  0  0
   16.7955   -7.6453  -12.9936 O   0  0  0  0  0  0  0  0  0  0  0  0
   17.1101   -7.2909  -14.2792 C   0  0  0  0  0  0  0  0  0  0  0  0
   18.2348   -8.1584  -14.8672 C   0  0  2  0  0  0  0  0  0  0  0  0
   17.9761   -9.5680  -14.6336 N   0  0  0  0  0  0  0  0  0  0  0  0
   19.4470   -7.7499  -14.1079 C   0  0  0  0  0  0  0  0  0  0  0  0
   19.7284   -8.3246  -13.0079 O   0  0  0  0  0  0  0  0  0  0  0  0
   22.9613   -8.0826  -14.8915 C   0  0  0  0  0  0  0  0  0  0  0  0
   22.7314   -6.5879  -14.6844 C   0  0  1  0  0  0  0  0  0  0  0  0
   22.6957   -5.8993  -16.0142 C   0  0  0  0  0  0  0  0  0  0  0  0
   21.4645   -6.3591  -13.8852 C   0  0  2  0  0  0  0  0  0  0  0  0
   20.2868   -6.7199  -14.6109 N   0  0  0  0  0  0  0  0  0  0  0  0
   21.4580   -4.9060  -13.5350 C   0  0  0  0  0  0  0  0  0  0  0  0
   22.2487   -4.3630  -12.5615 O   0  0  0  0  0  0  0  0  0  0  0  0
   20.6642   -4.1714  -14.1968 O   0  0  0  0  0  0  0  0  0  0  0  0
  2  1  1  1
  3  2  1  0
  3  4  1  0
  4  8  1  0
  5  4  2  0
  6  2  1  0
  7  6  2  0
  9 10  1  0
 11 10  1  1
 11 13  1  0
 11 12  1  0
 12  6  1  0
 13 19  1  0
 14 13  2  0
 16 15  1  6
 16 17  1  0
 18 16  1  0
 18 19  1  6
 20 21  1  0
 20 18  1  0
 22 20  2  0
M  END
$$$$
