DSV.pdb
     RDKit          3D

 22 21  0  0  1  0  0  0  0  0999 V2000
   20.3591  -12.5023  -17.1353 N   0  0  0  0  0  0  0  0  0  0  0  0
   20.6524  -11.2207  -17.8365 C   0  0  1  0  0  0  0  0  0  0  0  0
   20.1347  -11.3418  -19.2421 C   0  0  0  0  0  0  0  0  0  0  0  0
   21.0847  -12.0255  -20.1146 C   0  0  0  0  0  0  0  0  0  0  0  0
   22.3015  -11.9263  -20.0055 O   0  0  0  0  0  0  0  0  0  0  0  0
   19.8677  -10.1665  -17.1214 C   0  0  0  0  0  0  0  0  0  0  0  0
   18.6323  -10.2439  -17.0411 O   0  0  0  0  0  0  0  0  0  0  0  0
   20.5588  -12.8367  -21.1279 O   0  0  0  0  0  0  0  0  0  0  0  0
   21.4844   -8.0383  -14.1894 O   0  0  0  0  0  0  0  0  0  0  0  0
   20.1390   -7.8738  -14.3892 C   0  0  0  0  0  0  0  0  0  0  0  0
   19.7457   -8.0106  -15.8690 C   0  0  2  0  0  0  0  0  0  0  0  0
   20.5248   -9.0508  -16.5168 N   0  0  0  0  0  0  0  0  0  0  0  0
   20.0962   -6.6930  -16.4641 C   0  0  0  0  0  0  0  0  0  0  0  0
   21.2224   -6.5360  -17.0355 O   0  0  0  0  0  0  0  0  0  0  0  0
   19.1742   -5.0646  -19.3494 C   0  0  0  0  0  0  0  0  0  0  0  0
   18.7504   -4.0846  -18.2585 C   0  0  1  0  0  0  0  0  0  0  0  0
   17.2686   -4.1715  -18.0576 C   0  0  0  0  0  0  0  0  0  0  0  0
   19.5200   -4.3577  -16.9820 C   0  0  2  0  0  0  0  0  0  0  0  0
   19.1748   -5.6137  -16.3929 N   0  0  0  0  0  0  0  0  0  0  0  0
   19.2010   -3.2244  -16.0611 C   0  0  0  0  0  0  0  0  0  0  0  0
   19.8413   -2.0177  -16.1029 O   0  0  0  0  0  0  0  0  0  0  0  0
   18.2836   -3.4316  -15.2107 O   0  0  0  0  0  0  0  0  0  0  0  0
  2  1  1  1
  3  2  1  0
  3  4  1  0
  4  8  1  0
  5  4  2  0
  6  2  1  0
  7  6  2  0
  9 10  1  0
 11 10  1  1
 11 13  1  0
 11 12  1  0
 12  6  1  0
 13 19  1  0
 14 13  2  0
 16 15  1  6
 16 17  1  0
 18 16  1  0
 18 19  1  1
 20 21  1  0
 20 18  1  0
 22 20  2  0
M  END
$$$$
