DSV.pdb
     RDKit          3D

 22 21  0  0  1  0  0  0  0  0999 V2000
   16.3261  -10.7151  -15.5020 N   0  0  0  0  0  0  0  0  0  0  0  0
   17.1690   -9.7965  -16.3180 C   0  0  1  0  0  0  0  0  0  0  0  0
   16.2625   -8.7588  -16.9179 C   0  0  0  0  0  0  0  0  0  0  0  0
   15.5477   -9.2696  -18.0838 C   0  0  0  0  0  0  0  0  0  0  0  0
   16.0085  -10.1071  -18.8510 O   0  0  0  0  0  0  0  0  0  0  0  0
   18.1024   -9.1271  -15.3593 C   0  0  0  0  0  0  0  0  0  0  0  0
   17.6972   -8.7294  -14.2565 O   0  0  0  0  0  0  0  0  0  0  0  0
   14.2642   -8.7635  -18.3241 O   0  0  0  0  0  0  0  0  0  0  0  0
   22.5289   -8.4459  -13.7005 O   0  0  0  0  0  0  0  0  0  0  0  0
   21.6572   -9.0661  -14.5565 C   0  0  0  0  0  0  0  0  0  0  0  0
   20.3656   -8.2585  -14.7638 C   0  0  2  0  0  0  0  0  0  0  0  0
   19.4781   -8.9329  -15.6943 N   0  0  0  0  0  0  0  0  0  0  0  0
   20.8269   -6.9788  -15.3660 C   0  0  0  0  0  0  0  0  0  0  0  0
   21.1480   -6.9380  -16.5967 O   0  0  0  0  0  0  0  0  0  0  0  0
   19.2390   -3.7708  -15.9979 C   0  0  0  0  0  0  0  0  0  0  0  0
   20.4314   -3.4632  -15.0960 C   0  0  1  0  0  0  0  0  0  0  0  0
   19.9474   -3.1848  -13.7061 C   0  0  0  0  0  0  0  0  0  0  0  0
   21.4282   -4.6038  -15.1393 C   0  0  2  0  0  0  0  0  0  0  0  0
   20.9088   -5.8066  -14.5672 N   0  0  0  0  0  0  0  0  0  0  0  0
   22.6303   -4.1258  -14.3904 C   0  0  0  0  0  0  0  0  0  0  0  0
   23.5766   -3.3024  -14.9329 O   0  0  0  0  0  0  0  0  0  0  0  0
   22.7431   -4.5268  -13.1928 O   0  0  0  0  0  0  0  0  0  0  0  0
  2  1  1  1
  3  2  1  0
  3  4  1  0
  4  8  1  0
  5  4  2  0
  6  2  1  0
  7  6  2  0
  9 10  1  0
 11 10  1  6
 11 13  1  0
 11 12  1  0
 12  6  1  0
 13 19  1  0
 14 13  2  0
 16 15  1  6
 16 17  1  0
 18 16  1  0
 18 19  1  1
 20 21  1  0
 20 18  1  0
 22 20  2  0
M  END
$$$$
