DSV.pdb
     RDKit          3D

 22 21  0  0  1  0  0  0  0  0999 V2000
   17.1043  -14.6211  -16.8561 N   0  0  0  0  0  0  0  0  0  0  0  0
   16.5883  -13.2440  -16.6165 C   0  0  1  0  0  0  0  0  0  0  0  0
   16.1122  -13.1774  -15.1927 C   0  0  0  0  0  0  0  0  0  0  0  0
   14.8781  -13.9321  -14.9959 C   0  0  0  0  0  0  0  0  0  0  0  0
   13.8766  -13.7905  -15.6883 O   0  0  0  0  0  0  0  0  0  0  0  0
   17.7595  -12.3273  -16.7780 C   0  0  0  0  0  0  0  0  0  0  0  0
   18.9169  -12.7494  -16.6333 O   0  0  0  0  0  0  0  0  0  0  0  0
   14.8548  -14.8666  -13.9530 O   0  0  0  0  0  0  0  0  0  0  0  0
   17.9050   -9.1507  -19.4477 O   0  0  0  0  0  0  0  0  0  0  0  0
   18.2937   -8.8513  -18.1684 C   0  0  0  0  0  0  0  0  0  0  0  0
   18.7147  -10.1001  -17.3770 C   0  0  2  0  0  0  0  0  0  0  0  0
   17.5688  -10.9486  -17.1023 N   0  0  0  0  0  0  0  0  0  0  0  0
   19.2434   -9.5602  -16.0956 C   0  0  0  0  0  0  0  0  0  0  0  0
   18.4549   -9.3717  -15.1148 O   0  0  0  0  0  0  0  0  0  0  0  0
   22.2126  -11.0562  -14.2022 C   0  0  0  0  0  0  0  0  0  0  0  0
   22.4434   -9.5552  -14.3556 C   0  0  1  0  0  0  0  0  0  0  0  0
   23.5033   -9.3159  -15.3866 C   0  0  0  0  0  0  0  0  0  0  0  0
   21.1422   -8.8579  -14.6972 C   0  0  2  0  0  0  0  0  0  0  0  0
   20.6256   -9.2557  -15.9695 N   0  0  0  0  0  0  0  0  0  0  0  0
   21.4429   -7.3940  -14.6712 C   0  0  0  0  0  0  0  0  0  0  0  0
   21.4439   -6.6060  -15.7879 O   0  0  0  0  0  0  0  0  0  0  0  0
   21.7065   -6.8939  -13.5363 O   0  0  0  0  0  0  0  0  0  0  0  0
  2  1  1  1
  3  2  1  0
  3  4  1  0
  4  8  1  0
  5  4  2  0
  6  2  1  0
  7  6  2  0
  9 10  1  0
 11 10  1  6
 11 13  1  0
 11 12  1  0
 12  6  1  0
 13 19  1  0
 14 13  2  0
 16 15  1  6
 16 17  1  0
 18 16  1  0
 18 19  1  6
 20 21  1  0
 20 18  1  0
 22 20  2  0
M  END
$$$$
