DSV.pdb
     RDKit          3D

 22 21  0  0  1  0  0  0  0  0999 V2000
   17.2884  -13.2123  -15.1657 N   0  0  0  0  0  0  0  0  0  0  0  0
   16.9504  -12.0392  -16.0199 C   0  0  1  0  0  0  0  0  0  0  0  0
   15.4698  -12.0730  -16.2749 C   0  0  0  0  0  0  0  0  0  0  0  0
   15.1136  -13.0703  -17.2798 C   0  0  0  0  0  0  0  0  0  0  0  0
   15.9249  -13.5974  -18.0324 O   0  0  0  0  0  0  0  0  0  0  0  0
   17.2734  -10.8258  -15.2064 C   0  0  0  0  0  0  0  0  0  0  0  0
   16.6993  -10.6180  -14.1266 O   0  0  0  0  0  0  0  0  0  0  0  0
   13.7645  -13.4339  -17.3752 O   0  0  0  0  0  0  0  0  0  0  0  0
   20.7443   -8.9093  -14.0560 O   0  0  0  0  0  0  0  0  0  0  0  0
   19.9701   -8.2583  -14.9802 C   0  0  0  0  0  0  0  0  0  0  0  0
   18.4909   -8.6686  -14.8982 C   0  0  2  0  0  0  0  0  0  0  0  0
   18.2487   -9.8831  -15.6562 N   0  0  0  0  0  0  0  0  0  0  0  0
   17.7621   -7.5391  -15.5355 C   0  0  0  0  0  0  0  0  0  0  0  0
   17.6005   -7.5220  -16.7977 O   0  0  0  0  0  0  0  0  0  0  0  0
   14.4376   -4.0475  -15.3991 C   0  0  0  0  0  0  0  0  0  0  0  0
   15.1309   -5.2537  -14.7713 C   0  0  1  0  0  0  0  0  0  0  0  0
   14.2810   -6.4725  -14.9605 C   0  0  0  0  0  0  0  0  0  0  0  0
   16.5177   -5.4240  -15.3579 C   0  0  2  0  0  0  0  0  0  0  0  0
   17.2491   -6.4829  -14.7354 N   0  0  0  0  0  0  0  0  0  0  0  0
   17.2060   -4.1104  -15.1702 C   0  0  0  0  0  0  0  0  0  0  0  0
   17.3273   -3.1762  -16.1603 O   0  0  0  0  0  0  0  0  0  0  0  0
   17.6897   -3.8882  -14.0194 O   0  0  0  0  0  0  0  0  0  0  0  0
  2  1  1  1
  3  2  1  0
  3  4  1  0
  4  8  1  0
  5  4  2  0
  6  2  1  0
  7  6  2  0
  9 10  1  0
 11 10  1  6
 11 13  1  0
 11 12  1  0
 12  6  1  0
 13 19  1  0
 14 13  2  0
 16 15  1  6
 16 17  1  0
 18 16  1  0
 18 19  1  1
 20 21  1  0
 20 18  1  0
 22 20  2  0
M  END
$$$$
