PEF.pdb
     RDKit          3D

 28 29  0  0  1  0  0  0  0  0999 V2000
    9.3418  -14.0050   18.7543 N   0  0  0  0  0  0  0  0  0  0  0  0
    8.7334  -13.0187   17.8588 C   0  0  0  0  0  0  0  0  0  0  0  0
    7.2637  -13.2533   18.0934 C   0  0  0  0  0  0  0  0  0  0  0  0
    7.2132  -13.5413   19.5741 C   0  0  0  0  0  0  0  0  0  0  0  0
    8.6586  -13.7573   19.9853 C   0  0  1  0  0  0  0  0  0  0  0  0
    8.7822  -14.8464   20.9621 C   0  0  0  0  0  0  0  0  0  0  0  0
    8.0668  -14.7973   21.9949 O   0  0  0  0  0  0  0  0  0  0  0  0
    9.6511  -15.9582   20.8322 N   0  0  0  0  0  0  0  0  0  0  0  0
    9.7909  -16.9494   21.8588 C   0  0  1  0  0  0  0  0  0  0  0  0
   10.5304  -18.1832   21.3937 C   0  0  0  0  0  0  0  0  0  0  0  0
    9.8361  -18.8091   20.2042 C   0  0  0  0  0  0  0  0  0  0  0  0
   10.6101  -19.9459   19.7003 C   0  0  0  0  0  0  0  0  0  0  0  0
   10.3636  -21.1083   20.0687 O   0  0  0  0  0  0  0  0  0  0  0  0
   10.4890  -16.3453   23.0517 C   0  0  0  0  0  0  0  0  0  0  0  0
   11.2847  -15.3845   22.9161 O   0  0  0  0  0  0  0  0  0  0  0  0
   11.6391  -19.7162   18.7930 O   0  0  0  0  0  0  0  0  0  0  0  0
   10.2577  -16.8545   24.3533 N   0  0  0  0  0  0  0  0  0  0  0  0
    9.8636  -16.0246   25.4719 C   0  0  1  0  0  0  0  0  0  0  0  0
    8.7734  -15.0780   25.1459 C   0  0  0  0  0  0  0  0  0  0  0  0
    8.4013  -14.2725   26.3264 C   0  0  0  0  0  0  0  0  0  0  0  0
    7.1010  -13.8807   26.6114 C   0  0  0  0  0  0  0  0  0  0  0  0
    6.8366  -13.1299   27.7353 C   0  0  0  0  0  0  0  0  0  0  0  0
    7.8335  -12.7414   28.6109 C   0  0  0  0  0  0  0  0  0  0  0  0
    9.1225  -13.1204   28.3432 C   0  0  0  0  0  0  0  0  0  0  0  0
    9.3886  -13.8670   27.2265 C   0  0  0  0  0  0  0  0  0  0  0  0
    9.6904  -16.8169   26.7136 C   0  0  0  0  0  0  0  0  0  0  0  0
   10.6298  -16.7381   27.7621 O   0  0  0  0  0  0  0  0  0  0  0  0
    8.7359  -17.5973   26.9462 O   0  0  0  0  0  0  0  0  0  0  0  0
  2  1  1  0
  3  4  1  0
  3  2  1  0
  4  5  1  0
  5  1  1  0
  5  6  1  1
  6  7  2  0
  8  6  1  0
  8  9  1  0
  9 14  1  0
  9 10  1  6
 11 10  1  0
 12 11  1  0
 12 16  1  0
 13 12  2  0
 14 15  2  0
 17 18  1  0
 17 14  1  0
 18 26  1  0
 18 19  1  6
 20 19  1  0
 21 20  2  0
 22 21  1  0
 23 22  2  0
 23 24  1  0
 24 25  2  0
 25 20  1  0
 26 28  2  0
 26 27  1  0
M  END
$$$$
