PEF.pdb
     RDKit          3D

 28 29  0  0  1  0  0  0  0  0999 V2000
    7.6457  -13.7977   20.5526 N   0  0  0  0  0  0  0  0  0  0  0  0
    6.9657  -13.2254   19.3886 C   0  0  0  0  0  0  0  0  0  0  0  0
    7.6229  -13.9648   18.2522 C   0  0  0  0  0  0  0  0  0  0  0  0
    7.7991  -15.3501   18.8249 C   0  0  0  0  0  0  0  0  0  0  0  0
    7.5276  -15.2018   20.3112 C   0  0  1  0  0  0  0  0  0  0  0  0
    8.4483  -16.0206   21.1097 C   0  0  0  0  0  0  0  0  0  0  0  0
    8.3236  -17.2707   21.0574 O   0  0  0  0  0  0  0  0  0  0  0  0
    9.4752  -15.5096   21.9419 N   0  0  0  0  0  0  0  0  0  0  0  0
   10.3846  -16.3606   22.6522 C   0  0  1  0  0  0  0  0  0  0  0  0
   11.8336  -15.9821   22.4454 C   0  0  0  0  0  0  0  0  0  0  0  0
   12.7488  -16.9454   23.1688 C   0  0  0  0  0  0  0  0  0  0  0  0
   14.0861  -16.9261   22.5719 C   0  0  0  0  0  0  0  0  0  0  0  0
   15.0760  -17.3527   23.1929 O   0  0  0  0  0  0  0  0  0  0  0  0
   10.0487  -16.3423   24.1227 C   0  0  0  0  0  0  0  0  0  0  0  0
   10.7702  -16.9401   24.9573 O   0  0  0  0  0  0  0  0  0  0  0  0
   14.2470  -16.4203   21.2861 O   0  0  0  0  0  0  0  0  0  0  0  0
    8.9068  -15.6463   24.5901 N   0  0  0  0  0  0  0  0  0  0  0  0
    8.2816  -15.9145   25.8677 C   0  0  1  0  0  0  0  0  0  0  0  0
    6.9317  -15.3213   25.9974 C   0  0  0  0  0  0  0  0  0  0  0  0
    7.0077  -13.8501   26.1007 C   0  0  0  0  0  0  0  0  0  0  0  0
    8.1725  -13.1239   25.8967 C   0  0  0  0  0  0  0  0  0  0  0  0
    8.1595  -11.7515   26.0108 C   0  0  0  0  0  0  0  0  0  0  0  0
    7.0101  -11.0511   26.3270 C   0  0  0  0  0  0  0  0  0  0  0  0
    5.8521  -11.7539   26.5314 C   0  0  0  0  0  0  0  0  0  0  0  0
    5.8618  -13.1187   26.4186 C   0  0  0  0  0  0  0  0  0  0  0  0
    8.4079  -17.3402   26.2562 C   0  0  0  0  0  0  0  0  0  0  0  0
    8.1332  -18.3710   25.3342 O   0  0  0  0  0  0  0  0  0  0  0  0
    8.7570  -17.7531   27.3883 O   0  0  0  0  0  0  0  0  0  0  0  0
  2  1  1  0
  3  4  1  0
  3  2  1  0
  4  5  1  0
  5  1  1  0
  5  6  1  1
  6  7  2  0
  8  6  1  0
  8  9  1  0
  9 14  1  0
  9 10  1  1
 11 10  1  0
 12 11  1  0
 12 16  1  0
 13 12  2  0
 14 15  2  0
 17 18  1  0
 17 14  1  0
 18 26  1  0
 18 19  1  6
 20 19  1  0
 21 20  2  0
 22 21  1  0
 23 22  2  0
 23 24  1  0
 24 25  2  0
 25 20  1  0
 26 28  2  0
 26 27  1  0
M  END
$$$$
