PEF.pdb
     RDKit          3D

 28 29  0  0  1  0  0  0  0  0999 V2000
    8.5967  -14.6930   18.4518 N   0  0  0  0  0  0  0  0  0  0  0  0
    8.6353  -13.7054   17.3711 C   0  0  0  0  0  0  0  0  0  0  0  0
    7.5585  -12.7407   17.7953 C   0  0  0  0  0  0  0  0  0  0  0  0
    7.7265  -12.7055   19.2949 C   0  0  0  0  0  0  0  0  0  0  0  0
    8.6490  -13.8673   19.6176 C   0  0  1  0  0  0  0  0  0  0  0  0
    8.2386  -14.5530   20.8492 C   0  0  0  0  0  0  0  0  0  0  0  0
    8.2623  -13.9009   21.9241 O   0  0  0  0  0  0  0  0  0  0  0  0
    7.8143  -15.9030   20.9236 N   0  0  0  0  0  0  0  0  0  0  0  0
    7.3769  -16.5054   22.1490 C   0  0  1  0  0  0  0  0  0  0  0  0
    6.9587  -17.9487   21.9828 C   0  0  0  0  0  0  0  0  0  0  0  0
    6.5709  -18.5523   23.3147 C   0  0  0  0  0  0  0  0  0  0  0  0
    6.2298  -19.9677   23.1548 C   0  0  0  0  0  0  0  0  0  0  0  0
    5.5988  -20.5825   24.0331 O   0  0  0  0  0  0  0  0  0  0  0  0
    8.4706  -16.3983   23.1825 C   0  0  0  0  0  0  0  0  0  0  0  0
    9.6757  -16.5455   22.8650 O   0  0  0  0  0  0  0  0  0  0  0  0
    6.6212  -20.6323   21.9972 O   0  0  0  0  0  0  0  0  0  0  0  0
    8.1551  -16.1281   24.5368 N   0  0  0  0  0  0  0  0  0  0  0  0
    9.1486  -16.0769   25.5883 C   0  0  1  0  0  0  0  0  0  0  0  0
    9.5946  -14.7024   25.9089 C   0  0  0  0  0  0  0  0  0  0  0  0
    8.4396  -13.8108   26.1364 C   0  0  0  0  0  0  0  0  0  0  0  0
    8.4422  -12.4564   25.8344 C   0  0  0  0  0  0  0  0  0  0  0  0
    7.3218  -11.6927   26.0763 C   0  0  0  0  0  0  0  0  0  0  0  0
    6.1694  -12.2300   26.6191 C   0  0  0  0  0  0  0  0  0  0  0  0
    6.1512  -13.5657   26.9227 C   0  0  0  0  0  0  0  0  0  0  0  0
    7.2636  -14.3277   26.6833 C   0  0  0  0  0  0  0  0  0  0  0  0
    8.7744  -16.9278   26.7439 C   0  0  0  0  0  0  0  0  0  0  0  0
    9.6870  -17.1733   27.7903 O   0  0  0  0  0  0  0  0  0  0  0  0
    7.6618  -17.4859   26.9007 O   0  0  0  0  0  0  0  0  0  0  0  0
  2  1  1  0
  3  4  1  0
  3  2  1  0
  4  5  1  0
  5  1  1  0
  5  6  1  1
  6  7  2  0
  8  6  1  0
  8  9  1  0
  9 14  1  0
  9 10  1  6
 11 10  1  0
 12 11  1  0
 12 16  1  0
 13 12  2  0
 14 15  2  0
 17 18  1  0
 17 14  1  0
 18 26  1  0
 18 19  1  1
 20 19  1  0
 21 20  2  0
 22 21  1  0
 23 22  2  0
 23 24  1  0
 24 25  2  0
 25 20  1  0
 26 28  2  0
 26 27  1  0
M  END
$$$$
