PEF.pdb
     RDKit          3D

 28 29  0  0  1  0  0  0  0  0999 V2000
    7.8786  -14.3543   18.9904 N   0  0  0  0  0  0  0  0  0  0  0  0
    7.8386  -13.0246   18.3780 C   0  0  0  0  0  0  0  0  0  0  0  0
    7.3715  -12.1691   19.5269 C   0  0  0  0  0  0  0  0  0  0  0  0
    8.0792  -12.7930   20.7051 C   0  0  0  0  0  0  0  0  0  0  0  0
    8.6215  -14.1133   20.1878 C   0  0  1  0  0  0  0  0  0  0  0  0
    8.4915  -15.1774   21.1909 C   0  0  0  0  0  0  0  0  0  0  0  0
    7.3699  -15.7301   21.3236 O   0  0  0  0  0  0  0  0  0  0  0  0
    9.5387  -15.6351   22.0288 N   0  0  0  0  0  0  0  0  0  0  0  0
    9.3657  -16.7147   22.9563 C   0  0  1  0  0  0  0  0  0  0  0  0
   10.2751  -17.8891   22.6741 C   0  0  0  0  0  0  0  0  0  0  0  0
   11.7279  -17.4818   22.7837 C   0  0  0  0  0  0  0  0  0  0  0  0
   12.6010  -18.6353   22.5545 C   0  0  0  0  0  0  0  0  0  0  0  0
   13.8394  -18.5264   22.6005 O   0  0  0  0  0  0  0  0  0  0  0  0
    9.5876  -16.2132   24.3615 C   0  0  0  0  0  0  0  0  0  0  0  0
   10.4377  -15.3221   24.6024 O   0  0  0  0  0  0  0  0  0  0  0  0
   12.0297  -19.8737   22.2807 O   0  0  0  0  0  0  0  0  0  0  0  0
    8.8364  -16.7418   25.4399 N   0  0  0  0  0  0  0  0  0  0  0  0
    9.0020  -16.3077   26.8108 C   0  0  1  0  0  0  0  0  0  0  0  0
    7.7506  -15.8099   27.4249 C   0  0  0  0  0  0  0  0  0  0  0  0
    7.2585  -14.6074   26.7231 C   0  0  0  0  0  0  0  0  0  0  0  0
    7.7417  -13.3280   26.9579 C   0  0  0  0  0  0  0  0  0  0  0  0
    7.2295  -12.2573   26.2592 C   0  0  0  0  0  0  0  0  0  0  0  0
    6.2325  -12.4063   25.3130 C   0  0  0  0  0  0  0  0  0  0  0  0
    5.7450  -13.6632   25.0699 C   0  0  0  0  0  0  0  0  0  0  0  0
    6.2523  -14.7299   25.7629 C   0  0  0  0  0  0  0  0  0  0  0  0
    9.7768  -17.2871   27.6108 C   0  0  0  0  0  0  0  0  0  0  0  0
   10.2774  -16.9498   28.8850 O   0  0  0  0  0  0  0  0  0  0  0  0
   10.0498  -18.4583   27.2531 O   0  0  0  0  0  0  0  0  0  0  0  0
  2  1  1  0
  3  4  1  0
  3  2  1  0
  4  5  1  0
  5  1  1  0
  5  6  1  1
  6  7  2  0
  8  6  1  0
  8  9  1  0
  9 14  1  0
  9 10  1  6
 11 10  1  0
 12 11  1  0
 12 16  1  0
 13 12  2  0
 14 15  2  0
 17 18  1  0
 17 14  1  0
 18 26  1  0
 18 19  1  1
 20 19  1  0
 21 20  2  0
 22 21  1  0
 23 22  2  0
 23 24  1  0
 24 25  2  0
 25 20  1  0
 26 28  2  0
 26 27  1  0
M  END
$$$$
