PEF.pdb
     RDKit          3D

 28 29  0  0  1  0  0  0  0  0999 V2000
    8.3908  -13.3593   20.5182 N   0  0  0  0  0  0  0  0  0  0  0  0
    7.6542  -12.5975   19.5074 C   0  0  0  0  0  0  0  0  0  0  0  0
    7.0443  -13.6961   18.6761 C   0  0  0  0  0  0  0  0  0  0  0  0
    6.6908  -14.7318   19.7155 C   0  0  0  0  0  0  0  0  0  0  0  0
    7.4026  -14.2837   20.9794 C   0  0  1  0  0  0  0  0  0  0  0  0
    7.9568  -15.4255   21.7173 C   0  0  0  0  0  0  0  0  0  0  0  0
    7.1706  -16.3454   22.0593 O   0  0  0  0  0  0  0  0  0  0  0  0
    9.3190  -15.5748   22.0780 N   0  0  0  0  0  0  0  0  0  0  0  0
    9.8047  -16.7188   22.7929 C   0  0  1  0  0  0  0  0  0  0  0  0
   11.2042  -17.1208   22.3864 C   0  0  0  0  0  0  0  0  0  0  0  0
   11.2737  -17.3960   20.9004 C   0  0  0  0  0  0  0  0  0  0  0  0
   12.6347  -17.7745   20.5136 C   0  0  0  0  0  0  0  0  0  0  0  0
   12.8759  -18.8838   20.0047 O   0  0  0  0  0  0  0  0  0  0  0  0
    9.7537  -16.4462   24.2757 C   0  0  0  0  0  0  0  0  0  0  0  0
   10.8055  -16.2630   24.9351 O   0  0  0  0  0  0  0  0  0  0  0  0
   13.6736  -16.8731   20.7212 O   0  0  0  0  0  0  0  0  0  0  0  0
    8.5110  -16.3917   24.9537 N   0  0  0  0  0  0  0  0  0  0  0  0
    8.3904  -16.4447   26.3952 C   0  0  1  0  0  0  0  0  0  0  0  0
    7.1526  -15.8132   26.9050 C   0  0  0  0  0  0  0  0  0  0  0  0
    7.1296  -14.3691   26.5966 C   0  0  0  0  0  0  0  0  0  0  0  0
    5.9850  -13.6814   26.2189 C   0  0  0  0  0  0  0  0  0  0  0  0
    6.0474  -12.3323   25.9491 C   0  0  0  0  0  0  0  0  0  0  0  0
    7.2278  -11.6183   26.0407 C   0  0  0  0  0  0  0  0  0  0  0  0
    8.3665  -12.2832   26.4124 C   0  0  0  0  0  0  0  0  0  0  0  0
    8.3077  -13.6246   26.6813 C   0  0  0  0  0  0  0  0  0  0  0  0
    8.7008  -17.7943   26.9263 C   0  0  0  0  0  0  0  0  0  0  0  0
    9.1111  -17.9715   28.2635 O   0  0  0  0  0  0  0  0  0  0  0  0
    8.6308  -18.8625   26.2721 O   0  0  0  0  0  0  0  0  0  0  0  0
  2  1  1  0
  3  4  1  0
  3  2  1  0
  4  5  1  0
  5  1  1  0
  5  6  1  6
  6  7  2  0
  8  6  1  0
  8  9  1  0
  9 14  1  0
  9 10  1  6
 11 10  1  0
 12 11  1  0
 12 16  1  0
 13 12  2  0
 14 15  2  0
 17 18  1  0
 17 14  1  0
 18 26  1  0
 18 19  1  6
 20 19  1  0
 21 20  2  0
 22 21  1  0
 23 22  2  0
 23 24  1  0
 24 25  2  0
 25 20  1  0
 26 28  2  0
 26 27  1  0
M  END
$$$$
