PEF.pdb
     RDKit          3D

 28 29  0  0  1  0  0  0  0  0999 V2000
    8.7715  -14.5938   18.6080 N   0  0  0  0  0  0  0  0  0  0  0  0
    8.4919  -13.5955   17.5736 C   0  0  0  0  0  0  0  0  0  0  0  0
    7.2046  -12.9893   18.0689 C   0  0  0  0  0  0  0  0  0  0  0  0
    7.4114  -12.9644   19.5638 C   0  0  0  0  0  0  0  0  0  0  0  0
    8.6336  -13.8310   19.8091 C   0  0  1  0  0  0  0  0  0  0  0  0
    8.4776  -14.6501   21.0175 C   0  0  0  0  0  0  0  0  0  0  0  0
    8.2521  -14.0609   22.1052 O   0  0  0  0  0  0  0  0  0  0  0  0
    8.5615  -16.0641   21.0559 N   0  0  0  0  0  0  0  0  0  0  0  0
    8.2670  -16.8205   22.2378 C   0  0  1  0  0  0  0  0  0  0  0  0
    8.2351  -18.3121   21.9936 C   0  0  0  0  0  0  0  0  0  0  0  0
    7.4700  -18.6329   20.7285 C   0  0  0  0  0  0  0  0  0  0  0  0
    7.5778  -20.0592   20.4136 C   0  0  0  0  0  0  0  0  0  0  0  0
    8.6821  -20.6310   20.3804 O   0  0  0  0  0  0  0  0  0  0  0  0
    9.2750  -16.4923   23.3111 C   0  0  0  0  0  0  0  0  0  0  0  0
   10.4463  -16.1532   23.0148 O   0  0  0  0  0  0  0  0  0  0  0  0
    6.4205  -20.7836   20.1474 O   0  0  0  0  0  0  0  0  0  0  0  0
    8.9155  -16.5615   24.6796 N   0  0  0  0  0  0  0  0  0  0  0  0
    9.7237  -16.0013   25.7418 C   0  0  1  0  0  0  0  0  0  0  0  0
    9.9988  -14.5569   25.5716 C   0  0  0  0  0  0  0  0  0  0  0  0
    8.7757  -13.7567   25.7825 C   0  0  0  0  0  0  0  0  0  0  0  0
    7.7177  -13.7179   24.8855 C   0  0  0  0  0  0  0  0  0  0  0  0
    6.6099  -12.9458   25.1572 C   0  0  0  0  0  0  0  0  0  0  0  0
    6.5050  -12.1913   26.3110 C   0  0  0  0  0  0  0  0  0  0  0  0
    7.5413  -12.2192   27.2064 C   0  0  0  0  0  0  0  0  0  0  0  0
    8.6441  -12.9859   26.9392 C   0  0  0  0  0  0  0  0  0  0  0  0
    9.2437  -16.4207   27.0810 C   0  0  0  0  0  0  0  0  0  0  0  0
    8.0675  -17.1849   27.2241 O   0  0  0  0  0  0  0  0  0  0  0  0
    9.8094  -16.1530   28.1684 O   0  0  0  0  0  0  0  0  0  0  0  0
  2  1  1  0
  3  4  1  0
  3  2  1  0
  4  5  1  0
  5  1  1  0
  5  6  1  1
  6  7  2  0
  8  6  1  0
  8  9  1  0
  9 14  1  0
  9 10  1  6
 11 10  1  0
 12 11  1  0
 12 16  1  0
 13 12  2  0
 14 15  2  0
 17 18  1  0
 17 14  1  0
 18 26  1  0
 18 19  1  1
 20 19  1  0
 21 20  2  0
 22 21  1  0
 23 22  2  0
 23 24  1  0
 24 25  2  0
 25 20  1  0
 26 28  2  0
 26 27  1  0
M  END
$$$$
