PEF.pdb
     RDKit          3D

 28 29  0  0  1  0  0  0  0  0999 V2000
    9.2564  -14.3152   18.2514 N   0  0  0  0  0  0  0  0  0  0  0  0
    8.6053  -13.5039   17.2206 C   0  0  0  0  0  0  0  0  0  0  0  0
    7.1476  -13.7747   17.4890 C   0  0  0  0  0  0  0  0  0  0  0  0
    7.1022  -13.8430   18.9961 C   0  0  0  0  0  0  0  0  0  0  0  0
    8.5539  -13.9229   19.4331 C   0  0  1  0  0  0  0  0  0  0  0  0
    8.7255  -14.8481   20.5600 C   0  0  0  0  0  0  0  0  0  0  0  0
    8.0911  -14.6121   21.6197 O   0  0  0  0  0  0  0  0  0  0  0  0
    9.5563  -15.9960   20.5484 N   0  0  0  0  0  0  0  0  0  0  0  0
    9.6746  -16.8715   21.6777 C   0  0  1  0  0  0  0  0  0  0  0  0
   10.6933  -17.9694   21.4714 C   0  0  0  0  0  0  0  0  0  0  0  0
   10.6383  -18.9725   22.6026 C   0  0  0  0  0  0  0  0  0  0  0  0
   11.6136  -20.0432   22.3844 C   0  0  0  0  0  0  0  0  0  0  0  0
   12.3895  -20.4031   23.2878 O   0  0  0  0  0  0  0  0  0  0  0  0
   10.0210  -16.0670   22.9058 C   0  0  0  0  0  0  0  0  0  0  0  0
   10.7432  -15.0440   22.8250 O   0  0  0  0  0  0  0  0  0  0  0  0
   11.6693  -20.6661   21.1419 O   0  0  0  0  0  0  0  0  0  0  0  0
    9.5345  -16.4539   24.1788 N   0  0  0  0  0  0  0  0  0  0  0  0
    8.9789  -15.5189   25.1339 C   0  0  1  0  0  0  0  0  0  0  0  0
    8.0401  -14.5481   24.5280 C   0  0  0  0  0  0  0  0  0  0  0  0
    7.4633  -13.6577   25.5554 C   0  0  0  0  0  0  0  0  0  0  0  0
    6.1937  -13.8222   26.0908 C   0  0  0  0  0  0  0  0  0  0  0  0
    5.7292  -12.9474   27.0479 C   0  0  0  0  0  0  0  0  0  0  0  0
    6.4908  -11.8892   27.5079 C   0  0  0  0  0  0  0  0  0  0  0  0
    7.7464  -11.7136   26.9890 C   0  0  0  0  0  0  0  0  0  0  0  0
    8.2111  -12.5817   26.0372 C   0  0  0  0  0  0  0  0  0  0  0  0
    8.5090  -16.2001   26.3646 C   0  0  0  0  0  0  0  0  0  0  0  0
    8.2696  -17.5896   26.3791 O   0  0  0  0  0  0  0  0  0  0  0  0
    8.2898  -15.6369   27.4641 O   0  0  0  0  0  0  0  0  0  0  0  0
  2  1  1  0
  3  4  1  0
  3  2  1  0
  4  5  1  0
  5  1  1  0
  5  6  1  1
  6  7  2  0
  8  6  1  0
  8  9  1  0
  9 14  1  0
  9 10  1  6
 11 10  1  0
 12 11  1  0
 12 16  1  0
 13 12  2  0
 14 15  2  0
 17 18  1  0
 17 14  1  0
 18 26  1  0
 18 19  1  6
 20 19  1  0
 21 20  2  0
 22 21  1  0
 23 22  2  0
 23 24  1  0
 24 25  2  0
 25 20  1  0
 26 28  2  0
 26 27  1  0
M  END
$$$$
