PEF.pdb
     RDKit          3D

 28 29  0  0  1  0  0  0  0  0999 V2000
    8.8136  -14.6359   18.9729 N   0  0  0  0  0  0  0  0  0  0  0  0
    8.7785  -13.6747   17.8686 C   0  0  0  0  0  0  0  0  0  0  0  0
    7.5341  -12.8862   18.1846 C   0  0  0  0  0  0  0  0  0  0  0  0
    7.5797  -12.7973   19.6906 C   0  0  0  0  0  0  0  0  0  0  0  0
    8.6463  -13.7912   20.1141 C   0  0  1  0  0  0  0  0  0  0  0  0
    8.2563  -14.5109   21.3329 C   0  0  0  0  0  0  0  0  0  0  0  0
    8.0203  -13.8359   22.3672 O   0  0  0  0  0  0  0  0  0  0  0  0
    8.1236  -15.9178   21.4372 N   0  0  0  0  0  0  0  0  0  0  0  0
    7.5867  -16.5555   22.6038 C   0  0  1  0  0  0  0  0  0  0  0  0
    7.3612  -18.0387   22.4169 C   0  0  0  0  0  0  0  0  0  0  0  0
    8.6462  -18.7316   22.0204 C   0  0  0  0  0  0  0  0  0  0  0  0
    8.4073  -20.1578   21.7876 C   0  0  0  0  0  0  0  0  0  0  0  0
    8.9357  -21.0259   22.5049 O   0  0  0  0  0  0  0  0  0  0  0  0
    8.5030  -16.3142   23.7776 C   0  0  0  0  0  0  0  0  0  0  0  0
    9.7335  -16.1344   23.6098 O   0  0  0  0  0  0  0  0  0  0  0  0
    7.5730  -20.5434   20.7435 O   0  0  0  0  0  0  0  0  0  0  0  0
    7.9880  -16.2861   25.0970 N   0  0  0  0  0  0  0  0  0  0  0  0
    8.8137  -16.0751   26.2670 C   0  0  1  0  0  0  0  0  0  0  0  0
    8.1483  -15.2745   27.3192 C   0  0  0  0  0  0  0  0  0  0  0  0
    7.5213  -14.0658   26.7475 C   0  0  0  0  0  0  0  0  0  0  0  0
    6.1667  -13.9625   26.4647 C   0  0  0  0  0  0  0  0  0  0  0  0
    5.6593  -12.7979   25.9325 C   0  0  0  0  0  0  0  0  0  0  0  0
    6.4597  -11.7035   25.6621 C   0  0  0  0  0  0  0  0  0  0  0  0
    7.7991  -11.7900   25.9359 C   0  0  0  0  0  0  0  0  0  0  0  0
    8.3068  -12.9466   26.4651 C   0  0  0  0  0  0  0  0  0  0  0  0
    9.4665  -17.3289   26.7159 C   0  0  0  0  0  0  0  0  0  0  0  0
   10.4408  -17.3155   27.7350 O   0  0  0  0  0  0  0  0  0  0  0  0
    9.2279  -18.4724   26.2582 O   0  0  0  0  0  0  0  0  0  0  0  0
  2  1  1  0
  3  4  1  0
  3  2  1  0
  4  5  1  0
  5  1  1  0
  5  6  1  1
  6  7  2  0
  8  6  1  0
  8  9  1  0
  9 14  1  0
  9 10  1  6
 11 10  1  0
 12 11  1  0
 12 16  1  0
 13 12  2  0
 14 15  2  0
 17 18  1  0
 17 14  1  0
 18 26  1  0
 18 19  1  1
 20 19  1  0
 21 20  2  0
 22 21  1  0
 23 22  2  0
 23 24  1  0
 24 25  2  0
 25 20  1  0
 26 28  2  0
 26 27  1  0
M  END
$$$$
