PEF.pdb
     RDKit          3D

 28 29  0  0  1  0  0  0  0  0999 V2000
    8.9959  -13.8493   19.5252 N   0  0  0  0  0  0  0  0  0  0  0  0
    8.6078  -12.8539   18.5235 C   0  0  0  0  0  0  0  0  0  0  0  0
    7.1116  -12.8098   18.6952 C   0  0  0  0  0  0  0  0  0  0  0  0
    6.9517  -12.9557   20.1889 C   0  0  0  0  0  0  0  0  0  0  0  0
    8.3185  -13.3818   20.6940 C   0  0  1  0  0  0  0  0  0  0  0  0
    8.2085  -14.3873   21.7581 C   0  0  0  0  0  0  0  0  0  0  0  0
    7.4931  -14.1154   22.7558 O   0  0  0  0  0  0  0  0  0  0  0  0
    8.8499  -15.6508   21.7501 N   0  0  0  0  0  0  0  0  0  0  0  0
    8.6012  -16.6462   22.7518 C   0  0  1  0  0  0  0  0  0  0  0  0
    9.1585  -18.0038   22.3885 C   0  0  0  0  0  0  0  0  0  0  0  0
   10.6410  -17.9163   22.1006 C   0  0  0  0  0  0  0  0  0  0  0  0
   11.1673  -19.2305   21.7249 C   0  0  0  0  0  0  0  0  0  0  0  0
   10.4169  -20.2152   21.6028 O   0  0  0  0  0  0  0  0  0  0  0  0
    9.1713  -16.1878   24.0710 C   0  0  0  0  0  0  0  0  0  0  0  0
   10.1958  -15.4646   24.1154 O   0  0  0  0  0  0  0  0  0  0  0  0
   12.5327  -19.3751   21.5016 O   0  0  0  0  0  0  0  0  0  0  0  0
    8.5571  -16.5675   25.2898 N   0  0  0  0  0  0  0  0  0  0  0  0
    9.1184  -16.2656   26.5894 C   0  0  1  0  0  0  0  0  0  0  0  0
    8.1862  -15.5346   27.4768 C   0  0  0  0  0  0  0  0  0  0  0  0
    7.8286  -14.2219   26.9025 C   0  0  0  0  0  0  0  0  0  0  0  0
    8.6088  -13.0829   27.0421 C   0  0  0  0  0  0  0  0  0  0  0  0
    8.2047  -11.8951   26.4740 C   0  0  0  0  0  0  0  0  0  0  0  0
    7.0290  -11.7870   25.7547 C   0  0  0  0  0  0  0  0  0  0  0  0
    6.2478  -12.9027   25.6080 C   0  0  0  0  0  0  0  0  0  0  0  0
    6.6468  -14.0852   26.1717 C   0  0  0  0  0  0  0  0  0  0  0  0
    9.7984  -17.4418   27.1842 C   0  0  0  0  0  0  0  0  0  0  0  0
    9.8283  -18.6804   26.5112 O   0  0  0  0  0  0  0  0  0  0  0  0
   10.3889  -17.4524   28.2912 O   0  0  0  0  0  0  0  0  0  0  0  0
  2  1  1  0
  3  4  1  0
  3  2  1  0
  4  5  1  0
  5  1  1  0
  5  6  1  1
  6  7  2  0
  8  6  1  0
  8  9  1  0
  9 14  1  0
  9 10  1  6
 11 10  1  0
 12 11  1  0
 12 16  1  0
 13 12  2  0
 14 15  2  0
 17 18  1  0
 17 14  1  0
 18 26  1  0
 18 19  1  1
 20 19  1  0
 21 20  2  0
 22 21  1  0
 23 22  2  0
 23 24  1  0
 24 25  2  0
 25 20  1  0
 26 28  2  0
 26 27  1  0
M  END
$$$$
