PEF.pdb
     RDKit          3D

 28 29  0  0  1  0  0  0  0  0999 V2000
    9.1203  -13.8898   19.5871 N   0  0  0  0  0  0  0  0  0  0  0  0
    8.5681  -12.9334   18.6252 C   0  0  0  0  0  0  0  0  0  0  0  0
    7.1169  -13.3369   18.5865 C   0  0  0  0  0  0  0  0  0  0  0  0
    6.8422  -13.6994   20.0256 C   0  0  0  0  0  0  0  0  0  0  0  0
    8.2087  -13.7769   20.6826 C   0  0  1  0  0  0  0  0  0  0  0  0
    8.2845  -14.8917   21.6348 C   0  0  0  0  0  0  0  0  0  0  0  0
    7.3116  -15.0730   22.4105 O   0  0  0  0  0  0  0  0  0  0  0  0
    9.3763  -15.7876   21.7502 N   0  0  0  0  0  0  0  0  0  0  0  0
    9.4100  -16.8377   22.7260 C   0  0  1  0  0  0  0  0  0  0  0  0
   10.4753  -17.8730   22.4450 C   0  0  0  0  0  0  0  0  0  0  0  0
   10.3890  -18.3579   21.0146 C   0  0  0  0  0  0  0  0  0  0  0  0
   11.5397  -19.2044   20.6914 C   0  0  0  0  0  0  0  0  0  0  0  0
   12.3717  -18.8617   19.8324 O   0  0  0  0  0  0  0  0  0  0  0  0
    9.6122  -16.2449   24.0983 C   0  0  0  0  0  0  0  0  0  0  0  0
   10.4652  -15.3456   24.2940 O   0  0  0  0  0  0  0  0  0  0  0  0
   11.7007  -20.4134   21.3603 O   0  0  0  0  0  0  0  0  0  0  0  0
    8.8387  -16.6952   25.1964 N   0  0  0  0  0  0  0  0  0  0  0  0
    9.0898  -16.2904   26.5633 C   0  0  1  0  0  0  0  0  0  0  0  0
    7.9006  -15.7202   27.2352 C   0  0  0  0  0  0  0  0  0  0  0  0
    7.6565  -14.3329   26.7917 C   0  0  0  0  0  0  0  0  0  0  0  0
    8.5454  -13.2891   27.0064 C   0  0  0  0  0  0  0  0  0  0  0  0
    8.2433  -12.0219   26.5595 C   0  0  0  0  0  0  0  0  0  0  0  0
    7.0662  -11.7392   25.8915 C   0  0  0  0  0  0  0  0  0  0  0  0
    6.1784  -12.7592   25.6720 C   0  0  0  0  0  0  0  0  0  0  0  0
    6.4759  -14.0204   26.1150 C   0  0  0  0  0  0  0  0  0  0  0  0
    9.8315  -17.3285   27.3195 C   0  0  0  0  0  0  0  0  0  0  0  0
   10.1781  -18.5560   26.7185 O   0  0  0  0  0  0  0  0  0  0  0  0
   10.2090  -17.2236   28.5114 O   0  0  0  0  0  0  0  0  0  0  0  0
  2  1  1  0
  3  4  1  0
  3  2  1  0
  4  5  1  0
  5  1  1  0
  5  6  1  1
  6  7  2  0
  8  6  1  0
  8  9  1  0
  9 14  1  0
  9 10  1  6
 11 10  1  0
 12 11  1  0
 12 16  1  0
 13 12  2  0
 14 15  2  0
 17 18  1  0
 17 14  1  0
 18 26  1  0
 18 19  1  1
 20 19  1  0
 21 20  2  0
 22 21  1  0
 23 22  2  0
 23 24  1  0
 24 25  2  0
 25 20  1  0
 26 28  2  0
 26 27  1  0
M  END
$$$$
