PEF.pdb
     RDKit          3D

 28 29  0  0  1  0  0  0  0  0999 V2000
    8.7652  -14.6739   18.5625 N   0  0  0  0  0  0  0  0  0  0  0  0
    8.4301  -13.7041   17.5175 C   0  0  0  0  0  0  0  0  0  0  0  0
    7.1980  -13.0498   18.0865 C   0  0  0  0  0  0  0  0  0  0  0  0
    7.5183  -12.9801   19.5598 C   0  0  0  0  0  0  0  0  0  0  0  0
    8.7360  -13.8681   19.7430 C   0  0  1  0  0  0  0  0  0  0  0  0
    8.6540  -14.6421   20.9878 C   0  0  0  0  0  0  0  0  0  0  0  0
    8.5150  -14.0119   22.0670 O   0  0  0  0  0  0  0  0  0  0  0  0
    8.7196  -16.0552   21.0706 N   0  0  0  0  0  0  0  0  0  0  0  0
    8.3943  -16.7716   22.2693 C   0  0  1  0  0  0  0  0  0  0  0  0
    8.3790  -18.2711   22.0772 C   0  0  0  0  0  0  0  0  0  0  0  0
    8.4963  -18.6260   20.6113 C   0  0  0  0  0  0  0  0  0  0  0  0
    8.5522  -20.0795   20.4400 C   0  0  0  0  0  0  0  0  0  0  0  0
    8.1016  -20.6265   19.4176 O   0  0  0  0  0  0  0  0  0  0  0  0
    9.3674  -16.3985   23.3599 C   0  0  0  0  0  0  0  0  0  0  0  0
   10.6046  -16.5243   23.1921 O   0  0  0  0  0  0  0  0  0  0  0  0
    9.1211  -20.8585   21.4423 O   0  0  0  0  0  0  0  0  0  0  0  0
    8.8996  -15.8968   24.5993 N   0  0  0  0  0  0  0  0  0  0  0  0
    9.7761  -15.5581   25.7003 C   0  0  1  0  0  0  0  0  0  0  0  0
    9.9236  -14.0998   25.9068 C   0  0  0  0  0  0  0  0  0  0  0  0
    8.6100  -13.4257   25.8780 C   0  0  0  0  0  0  0  0  0  0  0  0
    7.8875  -13.1982   24.7153 C   0  0  0  0  0  0  0  0  0  0  0  0
    6.6671  -12.5625   24.7739 C   0  0  0  0  0  0  0  0  0  0  0  0
    6.1192  -12.1319   25.9681 C   0  0  0  0  0  0  0  0  0  0  0  0
    6.8205  -12.3492   27.1246 C   0  0  0  0  0  0  0  0  0  0  0  0
    8.0343  -12.9810   27.0697 C   0  0  0  0  0  0  0  0  0  0  0  0
    9.4787  -16.3617   26.9108 C   0  0  0  0  0  0  0  0  0  0  0  0
    8.3872  -17.2538   26.9399 O   0  0  0  0  0  0  0  0  0  0  0  0
   10.1373  -16.3321   27.9783 O   0  0  0  0  0  0  0  0  0  0  0  0
  2  1  1  0
  3  4  1  0
  3  2  1  0
  4  5  1  0
  5  1  1  0
  5  6  1  1
  6  7  2  0
  8  6  1  0
  8  9  1  0
  9 14  1  0
  9 10  1  6
 11 10  1  0
 12 11  1  0
 12 16  1  0
 13 12  2  0
 14 15  2  0
 17 18  1  0
 17 14  1  0
 18 26  1  0
 18 19  1  1
 20 19  1  0
 21 20  2  0
 22 21  1  0
 23 22  2  0
 23 24  1  0
 24 25  2  0
 25 20  1  0
 26 28  2  0
 26 27  1  0
M  END
$$$$
