IDW.pdb
     RDKit          3D

 31 32  0  0  1  0  0  0  0  0999 V2000
    6.4507  -12.5331   19.3164 C   0  0  0  0  0  0  0  0  0  0  0  0
    7.1293  -13.8535   19.0991 C   0  0  0  0  0  0  0  0  0  0  0  0
    7.7079  -14.4183   20.4016 C   0  0  2  0  0  0  0  0  0  0  0  0
    8.5472  -13.3818   21.0689 C   0  0  0  0  0  0  0  0  0  0  0  0
    8.4208  -15.6763   20.0507 C   0  0  2  0  0  0  0  0  0  0  0  0
    7.4961  -16.5764   19.4135 N   0  0  0  0  0  0  0  0  0  0  0  0
    9.1305  -16.3057   21.1825 C   0  0  0  0  0  0  0  0  0  0  0  0
    8.4648  -17.1741   21.8391 O   0  0  0  0  0  0  0  0  0  0  0  0
   10.4452  -16.0227   21.5725 N   0  0  0  0  0  0  0  0  0  0  0  0
   11.0491  -16.8292   22.6185 C   0  0  1  0  0  0  0  0  0  0  0  0
   12.5352  -16.6417   22.6911 C   0  0  0  0  0  0  0  0  0  0  0  0
   13.1378  -17.5235   23.7009 C   0  0  0  0  0  0  0  0  0  0  0  0
   13.6806  -17.0596   24.7336 O   0  0  0  0  0  0  0  0  0  0  0  0
   10.4883  -16.3692   23.9388 C   0  0  0  0  0  0  0  0  0  0  0  0
   10.1738  -15.1609   24.1032 O   0  0  0  0  0  0  0  0  0  0  0  0
   13.1178  -18.9168   23.5284 O   0  0  0  0  0  0  0  0  0  0  0  0
   10.2963  -17.2485   25.0188 N   0  0  0  0  0  0  0  0  0  0  0  0
    9.7624  -16.8839   26.3063 C   0  0  1  0  0  0  0  0  0  0  0  0
    8.2807  -17.2835   26.2923 C   0  0  0  0  0  0  0  0  0  0  0  0
    7.4223  -16.0630   26.1150 C   0  0  0  0  0  0  0  0  0  0  0  0
    6.1684  -16.0215   25.5430 C   0  0  0  0  0  0  0  0  0  0  0  0
    5.7250  -14.7568   25.5657 N   0  0  0  0  0  0  0  0  0  0  0  0
    6.6475  -13.9332   26.1402 C   0  0  0  0  0  0  0  0  0  0  0  0
    6.6672  -12.5810   26.3924 C   0  0  0  0  0  0  0  0  0  0  0  0
    7.7573  -12.0128   26.9983 C   0  0  0  0  0  0  0  0  0  0  0  0
    8.8209  -12.8378   27.3413 C   0  0  0  0  0  0  0  0  0  0  0  0
    8.8049  -14.1860   27.0915 C   0  0  0  0  0  0  0  0  0  0  0  0
    7.7020  -14.7637   26.4781 C   0  0  0  0  0  0  0  0  0  0  0  0
   10.4669  -17.5529   27.4171 C   0  0  0  0  0  0  0  0  0  0  0  0
   11.2809  -18.4714   27.1665 O   0  0  0  0  0  0  0  0  0  0  0  0
   10.2459  -17.1852   28.7307 O   0  0  0  0  0  0  0  0  0  0  0  0
  1  2  1  0
  2  3  1  0
  3  4  1  6
  5  3  1  0
  5  6  1  1
  7  5  1  0
  7  8  2  0
  9  7  1  0
 10  9  1  0
 10 11  1  1
 12 13  2  0
 12 11  1  0
 14 10  1  0
 15 14  2  0
 16 12  1  0
 17 14  1  0
 18 19  1  6
 18 17  1  0
 20 19  1  0
 21 20  2  0
 22 23  1  0
 22 21  1  0
 23 28  2  0
 24 25  2  0
 24 23  1  0
 25 26  1  0
 26 27  2  0
 28 27  1  0
 28 20  1  0
 29 18  1  0
 30 29  2  0
 31 29  1  0
M  END
$$$$
