IDW.pdb
     RDKit          3D

 31 32  0  0  1  0  0  0  0  0999 V2000
    7.1992  -11.9081   19.9629 C   0  0  0  0  0  0  0  0  0  0  0  0
    7.4077  -13.3532   19.6175 C   0  0  0  0  0  0  0  0  0  0  0  0
    7.9026  -14.1617   20.8223 C   0  0  2  0  0  0  0  0  0  0  0  0
    9.0616  -13.4657   21.4519 C   0  0  0  0  0  0  0  0  0  0  0  0
    8.1838  -15.5392   20.3351 C   0  0  2  0  0  0  0  0  0  0  0  0
    6.9767  -16.0964   19.7840 N   0  0  0  0  0  0  0  0  0  0  0  0
    8.8033  -16.4230   21.3430 C   0  0  0  0  0  0  0  0  0  0  0  0
    7.9926  -17.1071   22.0524 O   0  0  0  0  0  0  0  0  0  0  0  0
   10.1790  -16.5574   21.5666 N   0  0  0  0  0  0  0  0  0  0  0  0
   10.6277  -17.4331   22.6347 C   0  0  1  0  0  0  0  0  0  0  0  0
   12.0782  -17.7901   22.5025 C   0  0  0  0  0  0  0  0  0  0  0  0
   12.4130  -18.9767   23.3027 C   0  0  0  0  0  0  0  0  0  0  0  0
   11.5523  -19.5481   24.0162 O   0  0  0  0  0  0  0  0  0  0  0  0
   10.4806  -16.6881   23.9357 C   0  0  0  0  0  0  0  0  0  0  0  0
   10.9519  -15.5263   24.0533 O   0  0  0  0  0  0  0  0  0  0  0  0
   13.7159  -19.4998   23.2844 O   0  0  0  0  0  0  0  0  0  0  0  0
    9.8261  -17.2449   25.0484 N   0  0  0  0  0  0  0  0  0  0  0  0
    9.8483  -16.7066   26.3846 C   0  0  1  0  0  0  0  0  0  0  0  0
    8.4069  -16.7774   26.9067 C   0  0  0  0  0  0  0  0  0  0  0  0
    7.5431  -15.7997   26.1612 C   0  0  0  0  0  0  0  0  0  0  0  0
    6.5870  -16.1081   25.2168 C   0  0  0  0  0  0  0  0  0  0  0  0
    6.0294  -14.9704   24.7793 N   0  0  0  0  0  0  0  0  0  0  0  0
    6.5828  -13.8916   25.4034 C   0  0  0  0  0  0  0  0  0  0  0  0
    6.3603  -12.5377   25.3060 C   0  0  0  0  0  0  0  0  0  0  0  0
    7.0855  -11.6669   26.0768 C   0  0  0  0  0  0  0  0  0  0  0  0
    8.0352  -12.1930   26.9433 C   0  0  0  0  0  0  0  0  0  0  0  0
    8.2598  -13.5420   27.0431 C   0  0  0  0  0  0  0  0  0  0  0  0
    7.5265  -14.4258   26.2635 C   0  0  0  0  0  0  0  0  0  0  0  0
   10.7575  -17.4523   27.2762 C   0  0  0  0  0  0  0  0  0  0  0  0
   11.3573  -18.4620   26.8403 O   0  0  0  0  0  0  0  0  0  0  0  0
   10.9606  -17.0580   28.5850 O   0  0  0  0  0  0  0  0  0  0  0  0
  1  2  1  0
  2  3  1  0
  3  4  1  6
  5  3  1  0
  5  6  1  1
  7  5  1  0
  7  8  2  0
  9  7  1  0
 10  9  1  0
 10 11  1  6
 12 13  2  0
 12 11  1  0
 14 10  1  0
 15 14  2  0
 16 12  1  0
 17 14  1  0
 18 19  1  1
 18 17  1  0
 20 19  1  0
 21 20  2  0
 22 23  1  0
 22 21  1  0
 23 28  2  0
 24 25  2  0
 24 23  1  0
 25 26  1  0
 26 27  2  0
 28 27  1  0
 28 20  1  0
 29 18  1  0
 30 29  2  0
 31 29  1  0
M  END
$$$$
