IDW.pdb
     RDKit          3D

 31 32  0  0  1  0  0  0  0  0999 V2000
    7.3849  -12.1600   18.6511 C   0  0  0  0  0  0  0  0  0  0  0  0
    7.9783  -13.4966   18.3154 C   0  0  0  0  0  0  0  0  0  0  0  0
    8.4574  -14.2386   19.5684 C   0  0  2  0  0  0  0  0  0  0  0  0
    9.3799  -13.3637   20.3479 C   0  0  0  0  0  0  0  0  0  0  0  0
    9.0460  -15.5267   19.1121 C   0  0  2  0  0  0  0  0  0  0  0  0
    8.0281  -16.2975   18.4480 N   0  0  0  0  0  0  0  0  0  0  0  0
    9.7276  -16.2912   20.1758 C   0  0  0  0  0  0  0  0  0  0  0  0
    8.9907  -17.0949   20.8387 O   0  0  0  0  0  0  0  0  0  0  0  0
   11.0872  -16.1970   20.4970 N   0  0  0  0  0  0  0  0  0  0  0  0
   11.5786  -16.9156   21.6595 C   0  0  1  0  0  0  0  0  0  0  0  0
   13.0763  -16.9856   21.6904 C   0  0  0  0  0  0  0  0  0  0  0  0
   13.5972  -17.8056   20.5874 C   0  0  0  0  0  0  0  0  0  0  0  0
   13.4560  -19.0531   20.5770 O   0  0  0  0  0  0  0  0  0  0  0  0
   11.1539  -16.1536   22.8876 C   0  0  0  0  0  0  0  0  0  0  0  0
   11.2176  -14.8960   22.9022 O   0  0  0  0  0  0  0  0  0  0  0  0
   14.2701  -17.2031   19.5123 O   0  0  0  0  0  0  0  0  0  0  0  0
   10.6793  -16.7986   24.0431 N   0  0  0  0  0  0  0  0  0  0  0  0
    9.7852  -16.2202   25.0135 C   0  0  1  0  0  0  0  0  0  0  0  0
    8.5266  -15.7933   24.2460 C   0  0  0  0  0  0  0  0  0  0  0  0
    7.5177  -15.2148   25.1973 C   0  0  0  0  0  0  0  0  0  0  0  0
    6.4223  -15.8666   25.7232 C   0  0  0  0  0  0  0  0  0  0  0  0
    5.7634  -15.0225   26.5293 N   0  0  0  0  0  0  0  0  0  0  0  0
    6.3837  -13.8086   26.5663 C   0  0  0  0  0  0  0  0  0  0  0  0
    6.1068  -12.6355   27.2291 C   0  0  0  0  0  0  0  0  0  0  0  0
    6.9277  -11.5494   27.0717 C   0  0  0  0  0  0  0  0  0  0  0  0
    8.0284  -11.6755   26.2338 C   0  0  0  0  0  0  0  0  0  0  0  0
    8.3076  -12.8431   25.5714 C   0  0  0  0  0  0  0  0  0  0  0  0
    7.4777  -13.9445   25.7293 C   0  0  0  0  0  0  0  0  0  0  0  0
    9.4367  -17.1662   26.0910 C   0  0  0  0  0  0  0  0  0  0  0  0
    9.1626  -16.7275   27.2319 O   0  0  0  0  0  0  0  0  0  0  0  0
    9.4068  -18.5294   25.8658 O   0  0  0  0  0  0  0  0  0  0  0  0
  1  2  1  0
  2  3  1  0
  3  4  1  6
  5  3  1  0
  5  6  1  1
  7  5  1  0
  7  8  2  0
  9  7  1  0
 10  9  1  0
 10 11  1  6
 12 13  2  0
 12 11  1  0
 14 10  1  0
 15 14  2  0
 16 12  1  0
 17 14  1  0
 18 19  1  6
 18 17  1  0
 20 19  1  0
 21 20  2  0
 22 23  1  0
 22 21  1  0
 23 28  2  0
 24 25  2  0
 24 23  1  0
 25 26  1  0
 26 27  2  0
 28 27  1  0
 28 20  1  0
 29 18  1  0
 30 29  2  0
 31 29  1  0
M  END
$$$$
