IDW.pdb
     RDKit          3D

 31 32  0  0  1  0  0  0  0  0999 V2000
    7.3739  -11.5695   20.2398 C   0  0  0  0  0  0  0  0  0  0  0  0
    7.4242  -13.0255   19.8809 C   0  0  0  0  0  0  0  0  0  0  0  0
    7.9952  -13.8746   21.0225 C   0  0  2  0  0  0  0  0  0  0  0  0
    9.3174  -13.3272   21.4423 C   0  0  0  0  0  0  0  0  0  0  0  0
    8.0194  -15.2838   20.5456 C   0  0  2  0  0  0  0  0  0  0  0  0
    6.6822  -15.6816   20.1923 N   0  0  0  0  0  0  0  0  0  0  0  0
    8.6594  -16.2290   21.4825 C   0  0  0  0  0  0  0  0  0  0  0  0
    7.8771  -16.7989   22.3142 O   0  0  0  0  0  0  0  0  0  0  0  0
   10.0256  -16.5332   21.5193 N   0  0  0  0  0  0  0  0  0  0  0  0
   10.5065  -17.4514   22.5366 C   0  0  1  0  0  0  0  0  0  0  0  0
   11.8968  -17.9354   22.2508 C   0  0  0  0  0  0  0  0  0  0  0  0
   11.9597  -18.6607   20.9739 C   0  0  0  0  0  0  0  0  0  0  0  0
   12.8428  -18.4042   20.1191 O   0  0  0  0  0  0  0  0  0  0  0  0
   10.5667  -16.7037   23.8429 C   0  0  0  0  0  0  0  0  0  0  0  0
   11.1454  -15.5868   23.9036 O   0  0  0  0  0  0  0  0  0  0  0  0
   11.0232  -19.6654   20.6822 O   0  0  0  0  0  0  0  0  0  0  0  0
    9.9930  -17.2087   25.0228 N   0  0  0  0  0  0  0  0  0  0  0  0
   10.0762  -16.5906   26.3216 C   0  0  1  0  0  0  0  0  0  0  0  0
    8.7024  -16.7750   26.9804 C   0  0  0  0  0  0  0  0  0  0  0  0
    7.6944  -15.8740   26.3247 C   0  0  0  0  0  0  0  0  0  0  0  0
    6.6202  -16.2712   25.5570 C   0  0  0  0  0  0  0  0  0  0  0  0
    5.9544  -15.1816   25.1493 N   0  0  0  0  0  0  0  0  0  0  0  0
    6.5494  -14.0489   25.6211 C   0  0  0  0  0  0  0  0  0  0  0  0
    6.2568  -12.7117   25.4856 C   0  0  0  0  0  0  0  0  0  0  0  0
    7.0526  -11.7718   26.0871 C   0  0  0  0  0  0  0  0  0  0  0  0
    8.1444  -12.2121   26.8244 C   0  0  0  0  0  0  0  0  0  0  0  0
    8.4392  -13.5441   26.9617 C   0  0  0  0  0  0  0  0  0  0  0  0
    7.6347  -14.4978   26.3534 C   0  0  0  0  0  0  0  0  0  0  0  0
   11.1349  -17.1849   27.1603 C   0  0  0  0  0  0  0  0  0  0  0  0
   11.3379  -16.7313   28.3102 O   0  0  0  0  0  0  0  0  0  0  0  0
   11.9083  -18.2342   26.7013 O   0  0  0  0  0  0  0  0  0  0  0  0
  1  2  1  0
  2  3  1  0
  3  4  1  6
  5  3  1  0
  5  6  1  1
  7  5  1  0
  7  8  2  0
  9  7  1  0
 10  9  1  0
 10 11  1  6
 12 13  2  0
 12 11  1  0
 14 10  1  0
 15 14  2  0
 16 12  1  0
 17 14  1  0
 18 19  1  1
 18 17  1  0
 20 19  1  0
 21 20  2  0
 22 23  1  0
 22 21  1  0
 23 28  2  0
 24 25  2  0
 24 23  1  0
 25 26  1  0
 26 27  2  0
 28 27  1  0
 28 20  1  0
 29 18  1  0
 30 29  2  0
 31 29  1  0
M  END
$$$$
