IDW.pdb
     RDKit          3D

 31 32  0  0  1  0  0  0  0  0999 V2000
    6.8236  -11.8858   20.2757 C   0  0  0  0  0  0  0  0  0  0  0  0
    7.1000  -13.2992   19.8550 C   0  0  0  0  0  0  0  0  0  0  0  0
    7.6506  -14.1411   21.0119 C   0  0  2  0  0  0  0  0  0  0  0  0
    8.8132  -13.4425   21.6319 C   0  0  0  0  0  0  0  0  0  0  0  0
    7.9468  -15.4921   20.4634 C   0  0  2  0  0  0  0  0  0  0  0  0
    6.7349  -16.0574   19.9314 N   0  0  0  0  0  0  0  0  0  0  0  0
    8.6202  -16.3977   21.4158 C   0  0  0  0  0  0  0  0  0  0  0  0
    7.8500  -17.1283   22.1238 O   0  0  0  0  0  0  0  0  0  0  0  0
   10.0054  -16.5059   21.5897 N   0  0  0  0  0  0  0  0  0  0  0  0
   10.5103  -17.4187   22.6001 C   0  0  1  0  0  0  0  0  0  0  0  0
   11.9608  -17.7412   22.3978 C   0  0  0  0  0  0  0  0  0  0  0  0
   12.3888  -18.8500   23.2625 C   0  0  0  0  0  0  0  0  0  0  0  0
   13.5893  -18.9871   23.6036 O   0  0  0  0  0  0  0  0  0  0  0  0
   10.3998  -16.7346   23.9376 C   0  0  0  0  0  0  0  0  0  0  0  0
   10.8896  -15.5858   24.1002 O   0  0  0  0  0  0  0  0  0  0  0  0
   11.4534  -19.7875   23.7288 O   0  0  0  0  0  0  0  0  0  0  0  0
    9.7604  -17.3352   25.0362 N   0  0  0  0  0  0  0  0  0  0  0  0
    9.7978  -16.8481   26.3916 C   0  0  1  0  0  0  0  0  0  0  0  0
    8.3482  -16.8510   26.8956 C   0  0  0  0  0  0  0  0  0  0  0  0
    7.5693  -15.7565   26.2226 C   0  0  0  0  0  0  0  0  0  0  0  0
    6.5853  -15.9199   25.2706 C   0  0  0  0  0  0  0  0  0  0  0  0
    6.1269  -14.7125   24.9118 N   0  0  0  0  0  0  0  0  0  0  0  0
    6.7754  -13.7278   25.5969 C   0  0  0  0  0  0  0  0  0  0  0  0
    6.6714  -12.3562   25.5876 C   0  0  0  0  0  0  0  0  0  0  0  0
    7.4736  -11.6026   26.4042 C   0  0  0  0  0  0  0  0  0  0  0  0
    8.3780  -12.2634   27.2257 C   0  0  0  0  0  0  0  0  0  0  0  0
    8.4846  -13.6304   27.2378 C   0  0  0  0  0  0  0  0  0  0  0  0
    7.6732  -14.3957   26.4116 C   0  0  0  0  0  0  0  0  0  0  0  0
   10.6495  -17.6792   27.2643 C   0  0  0  0  0  0  0  0  0  0  0  0
   10.7535  -17.3916   28.4791 O   0  0  0  0  0  0  0  0  0  0  0  0
   11.3358  -18.7707   26.7669 O   0  0  0  0  0  0  0  0  0  0  0  0
  1  2  1  0
  2  3  1  0
  3  4  1  6
  5  3  1  0
  5  6  1  1
  7  5  1  0
  7  8  2  0
  9  7  1  0
 10  9  1  0
 10 11  1  6
 12 13  2  0
 12 11  1  0
 14 10  1  0
 15 14  2  0
 16 12  1  0
 17 14  1  0
 18 19  1  1
 18 17  1  0
 20 19  1  0
 21 20  2  0
 22 23  1  0
 22 21  1  0
 23 28  2  0
 24 25  2  0
 24 23  1  0
 25 26  1  0
 26 27  2  0
 28 27  1  0
 28 20  1  0
 29 18  1  0
 30 29  2  0
 31 29  1  0
M  END
$$$$
