IDW.pdb
     RDKit          3D

 31 32  0  0  1  0  0  0  0  0999 V2000
    8.3478  -12.0212   21.2050 C   0  0  0  0  0  0  0  0  0  0  0  0
    7.9852  -13.4712   21.0744 C   0  0  0  0  0  0  0  0  0  0  0  0
    8.4720  -14.0633   19.7468 C   0  0  2  0  0  0  0  0  0  0  0  0
    7.9679  -13.2356   18.6132 C   0  0  0  0  0  0  0  0  0  0  0  0
    8.0456  -15.4886   19.7245 C   0  0  2  0  0  0  0  0  0  0  0  0
    6.6086  -15.5484   19.7789 N   0  0  0  0  0  0  0  0  0  0  0  0
    8.6840  -16.3276   20.7585 C   0  0  0  0  0  0  0  0  0  0  0  0
    7.9306  -16.6839   21.7249 O   0  0  0  0  0  0  0  0  0  0  0  0
   10.0200  -16.7464   20.7508 N   0  0  0  0  0  0  0  0  0  0  0  0
   10.4918  -17.5866   21.8374 C   0  0  1  0  0  0  0  0  0  0  0  0
   11.7956  -18.2527   21.5130 C   0  0  0  0  0  0  0  0  0  0  0  0
   11.6729  -19.1264   20.3374 C   0  0  0  0  0  0  0  0  0  0  0  0
   12.2757  -18.8697   19.2664 O   0  0  0  0  0  0  0  0  0  0  0  0
   10.7410  -16.7020   23.0309 C   0  0  0  0  0  0  0  0  0  0  0  0
   11.3777  -15.6241   22.8943 O   0  0  0  0  0  0  0  0  0  0  0  0
   10.8704  -20.2774   20.3899 O   0  0  0  0  0  0  0  0  0  0  0  0
   10.2844  -17.0340   24.3184 N   0  0  0  0  0  0  0  0  0  0  0  0
   10.5336  -16.2703   25.5144 C   0  0  1  0  0  0  0  0  0  0  0  0
    9.9567  -14.8702   25.2652 C   0  0  0  0  0  0  0  0  0  0  0  0
    8.5042  -14.8385   25.6485 C   0  0  0  0  0  0  0  0  0  0  0  0
    7.6293  -15.9041   25.6258 C   0  0  0  0  0  0  0  0  0  0  0  0
    6.4249  -15.4827   26.0362 N   0  0  0  0  0  0  0  0  0  0  0  0
    6.4569  -14.1535   26.3388 C   0  0  0  0  0  0  0  0  0  0  0  0
    5.5019  -13.2731   26.7918 C   0  0  0  0  0  0  0  0  0  0  0  0
    5.8297  -11.9610   27.0136 C   0  0  0  0  0  0  0  0  0  0  0  0
    7.1373  -11.5615   26.7684 C   0  0  0  0  0  0  0  0  0  0  0  0
    8.0919  -12.4361   26.3169 C   0  0  0  0  0  0  0  0  0  0  0  0
    7.7623  -13.7654   26.0916 C   0  0  0  0  0  0  0  0  0  0  0  0
    9.9155  -16.8782   26.7086 C   0  0  0  0  0  0  0  0  0  0  0  0
    9.1701  -17.8762   26.5766 O   0  0  0  0  0  0  0  0  0  0  0  0
   10.1433  -16.3671   27.9722 O   0  0  0  0  0  0  0  0  0  0  0  0
  1  2  1  0
  2  3  1  0
  3  4  1  6
  5  3  1  0
  5  6  1  1
  7  5  1  0
  7  8  2  0
  9  7  1  0
 10  9  1  0
 10 11  1  6
 12 13  2  0
 12 11  1  0
 14 10  1  0
 15 14  2  0
 16 12  1  0
 17 14  1  0
 18 19  1  6
 18 17  1  0
 20 19  1  0
 21 20  2  0
 22 23  1  0
 22 21  1  0
 23 28  2  0
 24 25  2  0
 24 23  1  0
 25 26  1  0
 26 27  2  0
 28 27  1  0
 28 20  1  0
 29 18  1  0
 30 29  2  0
 31 29  1  0
M  END
$$$$
