IDW.pdb
     RDKit          3D

 31 32  0  0  1  0  0  0  0  0999 V2000
    6.3448  -12.3209   20.0656 C   0  0  0  0  0  0  0  0  0  0  0  0
    7.0248  -13.6022   19.6821 C   0  0  0  0  0  0  0  0  0  0  0  0
    7.6952  -14.2742   20.8859 C   0  0  2  0  0  0  0  0  0  0  0  0
    8.6674  -13.3312   21.5101 C   0  0  0  0  0  0  0  0  0  0  0  0
    8.2811  -15.5524   20.3993 C   0  0  2  0  0  0  0  0  0  0  0  0
    7.2345  -16.3612   19.8320 N   0  0  0  0  0  0  0  0  0  0  0  0
    9.0698  -16.2813   21.4128 C   0  0  0  0  0  0  0  0  0  0  0  0
    8.6002  -17.4125   21.7710 O   0  0  0  0  0  0  0  0  0  0  0  0
   10.2625  -15.8291   21.9903 N   0  0  0  0  0  0  0  0  0  0  0  0
   11.2330  -16.8110   22.4411 C   0  0  1  0  0  0  0  0  0  0  0  0
   12.6443  -16.3586   22.2119 C   0  0  0  0  0  0  0  0  0  0  0  0
   13.6111  -17.3654   22.6724 C   0  0  0  0  0  0  0  0  0  0  0  0
   14.6677  -17.0344   23.2644 O   0  0  0  0  0  0  0  0  0  0  0  0
   11.0661  -16.9765   23.9290 C   0  0  0  0  0  0  0  0  0  0  0  0
   11.7538  -17.8300   24.5491 O   0  0  0  0  0  0  0  0  0  0  0  0
   13.3692  -18.7316   22.4569 O   0  0  0  0  0  0  0  0  0  0  0  0
   10.1567  -16.2035   24.6718 N   0  0  0  0  0  0  0  0  0  0  0  0
    9.8991  -16.3452   26.0822 C   0  0  1  0  0  0  0  0  0  0  0  0
    8.4578  -16.8561   26.2125 C   0  0  0  0  0  0  0  0  0  0  0  0
    7.4912  -15.7458   25.9117 C   0  0  0  0  0  0  0  0  0  0  0  0
    6.2789  -15.8696   25.2664 C   0  0  0  0  0  0  0  0  0  0  0  0
    5.7068  -14.6601   25.1863 N   0  0  0  0  0  0  0  0  0  0  0  0
    6.5007  -13.7126   25.7621 C   0  0  0  0  0  0  0  0  0  0  0  0
    6.3645  -12.3544   25.9322 C   0  0  0  0  0  0  0  0  0  0  0  0
    7.3490  -11.6409   26.5646 C   0  0  0  0  0  0  0  0  0  0  0  0
    8.4679  -12.3277   27.0183 C   0  0  0  0  0  0  0  0  0  0  0  0
    8.6072  -13.6814   26.8506 C   0  0  0  0  0  0  0  0  0  0  0  0
    7.6114  -14.4062   26.2105 C   0  0  0  0  0  0  0  0  0  0  0  0
   10.8384  -17.2779   26.7344 C   0  0  0  0  0  0  0  0  0  0  0  0
   10.9269  -17.2905   27.9839 O   0  0  0  0  0  0  0  0  0  0  0  0
   11.6238  -18.1395   25.9924 O   0  0  0  0  0  0  0  0  0  0  0  0
  1  2  1  0
  2  3  1  0
  3  4  1  6
  5  3  1  0
  5  6  1  1
  7  5  1  0
  7  8  2  0
  9  7  1  0
 10  9  1  0
 10 11  1  1
 12 13  2  0
 12 11  1  0
 14 10  1  0
 15 14  2  0
 16 12  1  0
 17 14  1  0
 18 19  1  6
 18 17  1  0
 20 19  1  0
 21 20  2  0
 22 23  1  0
 22 21  1  0
 23 28  2  0
 24 25  2  0
 24 23  1  0
 25 26  1  0
 26 27  2  0
 28 27  1  0
 28 20  1  0
 29 18  1  0
 30 29  2  0
 31 29  1  0
M  END
$$$$
