IDW.pdb
     RDKit          3D

 31 32  0  0  1  0  0  0  0  0999 V2000
    6.6720  -12.2346   19.7840 C   0  0  0  0  0  0  0  0  0  0  0  0
    7.2415  -13.5902   19.4857 C   0  0  0  0  0  0  0  0  0  0  0  0
    7.7980  -14.2645   20.7450 C   0  0  2  0  0  0  0  0  0  0  0  0
    8.7347  -13.3350   21.4397 C   0  0  0  0  0  0  0  0  0  0  0  0
    8.3960  -15.5580   20.3170 C   0  0  2  0  0  0  0  0  0  0  0  0
    7.3830  -16.3517   19.6726 N   0  0  0  0  0  0  0  0  0  0  0  0
    9.0854  -16.2927   21.3966 C   0  0  0  0  0  0  0  0  0  0  0  0
    8.3888  -17.1783   21.9957 O   0  0  0  0  0  0  0  0  0  0  0  0
   10.4121  -16.0898   21.7957 N   0  0  0  0  0  0  0  0  0  0  0  0
   10.9795  -16.9735   22.7989 C   0  0  1  0  0  0  0  0  0  0  0  0
   12.4731  -17.0613   22.6964 C   0  0  0  0  0  0  0  0  0  0  0  0
   13.0222  -18.0119   23.6737 C   0  0  0  0  0  0  0  0  0  0  0  0
   14.1078  -17.7890   24.2637 O   0  0  0  0  0  0  0  0  0  0  0  0
   10.6704  -16.3931   24.1541 C   0  0  0  0  0  0  0  0  0  0  0  0
   11.0097  -15.2112   24.4258 O   0  0  0  0  0  0  0  0  0  0  0  0
   12.3359  -19.2007   23.9695 O   0  0  0  0  0  0  0  0  0  0  0  0
   10.0055  -17.1288   25.1507 N   0  0  0  0  0  0  0  0  0  0  0  0
    9.8670  -16.7311   26.5285 C   0  0  1  0  0  0  0  0  0  0  0  0
    8.4101  -17.0144   26.9191 C   0  0  0  0  0  0  0  0  0  0  0  0
    7.5160  -15.9322   26.3833 C   0  0  0  0  0  0  0  0  0  0  0  0
    6.4552  -16.1015   25.5189 C   0  0  0  0  0  0  0  0  0  0  0  0
    5.9040  -14.9049   25.2721 N   0  0  0  0  0  0  0  0  0  0  0  0
    6.5641  -13.9218   25.9483 C   0  0  0  0  0  0  0  0  0  0  0  0
    6.3901  -12.5594   26.0254 C   0  0  0  0  0  0  0  0  0  0  0  0
    7.2272  -11.8048   26.8052 C   0  0  0  0  0  0  0  0  0  0  0  0
    8.2383  -12.4550   27.5012 C   0  0  0  0  0  0  0  0  0  0  0  0
    8.4148  -13.8128   27.4269 C   0  0  0  0  0  0  0  0  0  0  0  0
    7.5682  -14.5791   26.6378 C   0  0  0  0  0  0  0  0  0  0  0  0
   10.7912  -17.4589   27.4194 C   0  0  0  0  0  0  0  0  0  0  0  0
   10.8069  -17.1911   28.6430 O   0  0  0  0  0  0  0  0  0  0  0  0
   11.6414  -18.4320   26.9294 O   0  0  0  0  0  0  0  0  0  0  0  0
  1  2  1  0
  2  3  1  0
  3  4  1  6
  5  3  1  0
  5  6  1  1
  7  5  1  0
  7  8  2  0
  9  7  1  0
 10  9  1  0
 10 11  1  6
 12 13  2  0
 12 11  1  0
 14 10  1  0
 15 14  2  0
 16 12  1  0
 17 14  1  0
 18 19  1  1
 18 17  1  0
 20 19  1  0
 21 20  2  0
 22 23  1  0
 22 21  1  0
 23 28  2  0
 24 25  2  0
 24 23  1  0
 25 26  1  0
 26 27  2  0
 28 27  1  0
 28 20  1  0
 29 18  1  0
 30 29  2  0
 31 29  1  0
M  END
$$$$
