IDW.pdb
     RDKit          3D

 31 32  0  0  1  0  0  0  0  0999 V2000
    7.7813  -11.7026   19.6705 C   0  0  0  0  0  0  0  0  0  0  0  0
    7.8021  -13.1486   19.2708 C   0  0  0  0  0  0  0  0  0  0  0  0
    8.1327  -14.0630   20.4561 C   0  0  2  0  0  0  0  0  0  0  0  0
    9.4135  -13.6276   21.0839 C   0  0  0  0  0  0  0  0  0  0  0  0
    8.1256  -15.4595   19.9426 C   0  0  2  0  0  0  0  0  0  0  0  0
    6.8181  -15.7602   19.4218 N   0  0  0  0  0  0  0  0  0  0  0  0
    8.5882  -16.4659   20.9193 C   0  0  0  0  0  0  0  0  0  0  0  0
    7.6946  -16.9251   21.7061 O   0  0  0  0  0  0  0  0  0  0  0  0
    9.9016  -16.9365   21.0372 N   0  0  0  0  0  0  0  0  0  0  0  0
   10.2288  -17.8147   22.1467 C   0  0  1  0  0  0  0  0  0  0  0  0
   11.3804  -18.7216   21.8304 C   0  0  0  0  0  0  0  0  0  0  0  0
   11.6937  -19.6047   22.9629 C   0  0  0  0  0  0  0  0  0  0  0  0
   12.4100  -19.2145   23.9174 O   0  0  0  0  0  0  0  0  0  0  0  0
   10.6591  -16.9542   23.3059 C   0  0  0  0  0  0  0  0  0  0  0  0
   11.4494  -15.9920   23.1172 O   0  0  0  0  0  0  0  0  0  0  0  0
   11.1926  -20.9158   22.9995 O   0  0  0  0  0  0  0  0  0  0  0  0
   10.2076  -17.1831   24.6174 N   0  0  0  0  0  0  0  0  0  0  0  0
   10.5563  -16.3915   25.7696 C   0  0  1  0  0  0  0  0  0  0  0  0
   10.0007  -14.9838   25.5152 C   0  0  0  0  0  0  0  0  0  0  0  0
    8.5191  -14.9646   25.7650 C   0  0  0  0  0  0  0  0  0  0  0  0
    7.6816  -16.0595   25.7989 C   0  0  0  0  0  0  0  0  0  0  0  0
    6.4331  -15.6405   26.0487 N   0  0  0  0  0  0  0  0  0  0  0  0
    6.3985  -14.2842   26.1862 C   0  0  0  0  0  0  0  0  0  0  0  0
    5.3811  -13.3948   26.4428 C   0  0  0  0  0  0  0  0  0  0  0  0
    5.6487  -12.0534   26.5281 C   0  0  0  0  0  0  0  0  0  0  0  0
    6.9608  -11.6341   26.3491 C   0  0  0  0  0  0  0  0  0  0  0  0
    7.9777  -12.5176   26.0931 C   0  0  0  0  0  0  0  0  0  0  0  0
    7.7090  -13.8766   26.0063 C   0  0  0  0  0  0  0  0  0  0  0  0
   10.0043  -16.9461   27.0207 C   0  0  0  0  0  0  0  0  0  0  0  0
   10.2179  -16.3548   28.1042 O   0  0  0  0  0  0  0  0  0  0  0  0
    9.2548  -18.1071   27.0206 O   0  0  0  0  0  0  0  0  0  0  0  0
  1  2  1  0
  2  3  1  0
  3  4  1  6
  5  3  1  0
  5  6  1  1
  7  5  1  0
  7  8  2  0
  9  7  1  0
 10  9  1  0
 10 11  1  6
 12 13  2  0
 12 11  1  0
 14 10  1  0
 15 14  2  0
 16 12  1  0
 17 14  1  0
 18 19  1  6
 18 17  1  0
 20 19  1  0
 21 20  2  0
 22 23  1  0
 22 21  1  0
 23 28  2  0
 24 25  2  0
 24 23  1  0
 25 26  1  0
 26 27  2  0
 28 27  1  0
 28 20  1  0
 29 18  1  0
 30 29  2  0
 31 29  1  0
M  END
$$$$
