IDW.pdb
     RDKit          3D

 31 32  0  0  1  0  0  0  0  0999 V2000
    7.1632  -11.9146   19.6591 C   0  0  0  0  0  0  0  0  0  0  0  0
    7.3641  -13.3865   19.4487 C   0  0  0  0  0  0  0  0  0  0  0  0
    7.7347  -14.1033   20.7522 C   0  0  2  0  0  0  0  0  0  0  0  0
    8.8390  -13.3677   21.4331 C   0  0  0  0  0  0  0  0  0  0  0  0
    8.0424  -15.5155   20.3990 C   0  0  2  0  0  0  0  0  0  0  0  0
    6.8674  -16.1229   19.8317 N   0  0  0  0  0  0  0  0  0  0  0  0
    8.6058  -16.3084   21.5101 C   0  0  0  0  0  0  0  0  0  0  0  0
    7.7628  -16.9779   22.1954 O   0  0  0  0  0  0  0  0  0  0  0  0
    9.9619  -16.3735   21.8527 N   0  0  0  0  0  0  0  0  0  0  0  0
   10.3770  -17.3212   22.8719 C   0  0  1  0  0  0  0  0  0  0  0  0
   11.7515  -17.8631   22.6149 C   0  0  0  0  0  0  0  0  0  0  0  0
   12.1233  -18.8759   23.6131 C   0  0  0  0  0  0  0  0  0  0  0  0
   11.3077  -19.7531   23.9895 O   0  0  0  0  0  0  0  0  0  0  0  0
   10.4377  -16.5888   24.1868 C   0  0  0  0  0  0  0  0  0  0  0  0
   11.0287  -15.4794   24.2635 O   0  0  0  0  0  0  0  0  0  0  0  0
   13.4118  -18.8822   24.1710 O   0  0  0  0  0  0  0  0  0  0  0  0
    9.8509  -17.1004   25.3575 N   0  0  0  0  0  0  0  0  0  0  0  0
   10.0694  -16.5957   26.6891 C   0  0  1  0  0  0  0  0  0  0  0  0
    8.7129  -16.6528   27.4045 C   0  0  0  0  0  0  0  0  0  0  0  0
    7.7538  -15.6908   26.7624 C   0  0  0  0  0  0  0  0  0  0  0  0
    6.7139  -16.0150   25.9170 C   0  0  0  0  0  0  0  0  0  0  0  0
    6.0869  -14.8880   25.5517 N   0  0  0  0  0  0  0  0  0  0  0  0
    6.6748  -13.8011   26.1283 C   0  0  0  0  0  0  0  0  0  0  0  0
    6.4106  -12.4524   26.0696 C   0  0  0  0  0  0  0  0  0  0  0  0
    7.1894  -11.5704   26.7723 C   0  0  0  0  0  0  0  0  0  0  0  0
    8.2353  -12.0799   27.5313 C   0  0  0  0  0  0  0  0  0  0  0  0
    8.5017  -13.4235   27.5923 C   0  0  0  0  0  0  0  0  0  0  0  0
    7.7143  -14.3187   26.8815 C   0  0  0  0  0  0  0  0  0  0  0  0
   11.0768  -17.3799   27.4293 C   0  0  0  0  0  0  0  0  0  0  0  0
   11.5319  -18.4320   26.9244 O   0  0  0  0  0  0  0  0  0  0  0  0
   11.5289  -16.9755   28.6710 O   0  0  0  0  0  0  0  0  0  0  0  0
  1  2  1  0
  2  3  1  0
  3  4  1  6
  5  3  1  0
  5  6  1  1
  7  5  1  0
  7  8  2  0
  9  7  1  0
 10  9  1  0
 10 11  1  6
 12 13  2  0
 12 11  1  0
 14 10  1  0
 15 14  2  0
 16 12  1  0
 17 14  1  0
 18 19  1  1
 18 17  1  0
 20 19  1  0
 21 20  2  0
 22 23  1  0
 22 21  1  0
 23 28  2  0
 24 25  2  0
 24 23  1  0
 25 26  1  0
 26 27  2  0
 28 27  1  0
 28 20  1  0
 29 18  1  0
 30 29  2  0
 31 29  1  0
M  END
$$$$
