IDW.pdb
     RDKit          3D

 31 32  0  0  1  0  0  0  0  0999 V2000
    6.7224  -12.4265   20.5000 C   0  0  0  0  0  0  0  0  0  0  0  0
    7.3375  -13.7372   20.1065 C   0  0  0  0  0  0  0  0  0  0  0  0
    7.8379  -14.5209   21.3253 C   0  0  2  0  0  0  0  0  0  0  0  0
    8.6880  -13.6382   22.1752 C   0  0  0  0  0  0  0  0  0  0  0  0
    8.5154  -15.7409   20.8092 C   0  0  2  0  0  0  0  0  0  0  0  0
    7.6281  -16.4213   19.9030 N   0  0  0  0  0  0  0  0  0  0  0  0
    9.0387  -16.6340   21.8623 C   0  0  0  0  0  0  0  0  0  0  0  0
    8.3029  -17.6346   22.1553 O   0  0  0  0  0  0  0  0  0  0  0  0
   10.2514  -16.4627   22.5409 N   0  0  0  0  0  0  0  0  0  0  0  0
   10.8474  -17.6110   23.2008 C   0  0  1  0  0  0  0  0  0  0  0  0
   12.2629  -17.8435   22.7637 C   0  0  0  0  0  0  0  0  0  0  0  0
   13.0943  -16.6516   22.9842 C   0  0  0  0  0  0  0  0  0  0  0  0
   12.7575  -15.5278   22.5369 O   0  0  0  0  0  0  0  0  0  0  0  0
   10.8907  -17.3238   24.6789 C   0  0  0  0  0  0  0  0  0  0  0  0
   11.4470  -18.1373   25.4629 O   0  0  0  0  0  0  0  0  0  0  0  0
   14.2941  -16.7477   23.7071 O   0  0  0  0  0  0  0  0  0  0  0  0
   10.3251  -16.1624   25.2336 N   0  0  0  0  0  0  0  0  0  0  0  0
   10.1599  -15.9059   26.6417 C   0  0  1  0  0  0  0  0  0  0  0  0
    8.7534  -16.3961   27.0115 C   0  0  0  0  0  0  0  0  0  0  0  0
    7.7188  -15.4978   26.3947 C   0  0  0  0  0  0  0  0  0  0  0  0
    6.5993  -15.8989   25.6967 C   0  0  0  0  0  0  0  0  0  0  0  0
    5.9222  -14.8108   25.3044 N   0  0  0  0  0  0  0  0  0  0  0  0
    6.5535  -13.6752   25.7184 C   0  0  0  0  0  0  0  0  0  0  0  0
    6.2667  -12.3379   25.5717 C   0  0  0  0  0  0  0  0  0  0  0  0
    7.1039  -11.3946   26.1079 C   0  0  0  0  0  0  0  0  0  0  0  0
    8.2311  -11.8316   26.7919 C   0  0  0  0  0  0  0  0  0  0  0  0
    8.5204  -13.1636   26.9402 C   0  0  0  0  0  0  0  0  0  0  0  0
    7.6739  -14.1208   26.3980 C   0  0  0  0  0  0  0  0  0  0  0  0
   11.1776  -16.5915   27.4613 C   0  0  0  0  0  0  0  0  0  0  0  0
   11.1907  -16.4163   28.7016 O   0  0  0  0  0  0  0  0  0  0  0  0
   12.1184  -17.4246   26.8863 O   0  0  0  0  0  0  0  0  0  0  0  0
  1  2  1  0
  2  3  1  0
  3  4  1  6
  5  3  1  0
  5  6  1  1
  7  5  1  0
  7  8  2  0
  9  7  1  0
 10  9  1  0
 10 11  1  6
 12 13  2  0
 12 11  1  0
 14 10  1  0
 15 14  2  0
 16 12  1  0
 17 14  1  0
 18 19  1  1
 18 17  1  0
 20 19  1  0
 21 20  2  0
 22 23  1  0
 22 21  1  0
 23 28  2  0
 24 25  2  0
 24 23  1  0
 25 26  1  0
 26 27  2  0
 28 27  1  0
 28 20  1  0
 29 18  1  0
 30 29  2  0
 31 29  1  0
M  END
$$$$
