IDW.pdb
     RDKit          3D

 31 32  0  0  1  0  0  0  0  0999 V2000
    7.8321  -11.9618   19.0054 C   0  0  0  0  0  0  0  0  0  0  0  0
    7.8001  -13.4518   18.8323 C   0  0  0  0  0  0  0  0  0  0  0  0
    8.1365  -14.1846   20.1361 C   0  0  2  0  0  0  0  0  0  0  0  0
    9.4734  -13.7441   20.6289 C   0  0  0  0  0  0  0  0  0  0  0  0
    8.0158  -15.6415   19.8593 C   0  0  2  0  0  0  0  0  0  0  0  0
    6.6851  -15.9196   19.3868 N   0  0  0  0  0  0  0  0  0  0  0  0
    8.4041  -16.5069   20.9911 C   0  0  0  0  0  0  0  0  0  0  0  0
    7.5072  -16.6912   21.8800 O   0  0  0  0  0  0  0  0  0  0  0  0
    9.6524  -17.1207   21.1504 N   0  0  0  0  0  0  0  0  0  0  0  0
    9.8788  -17.9413   22.3272 C   0  0  1  0  0  0  0  0  0  0  0  0
   10.9239  -18.9910   22.0929 C   0  0  0  0  0  0  0  0  0  0  0  0
   12.1166  -18.4247   21.4470 C   0  0  0  0  0  0  0  0  0  0  0  0
   13.1473  -18.1456   22.1074 O   0  0  0  0  0  0  0  0  0  0  0  0
   10.3995  -17.0465   23.4214 C   0  0  0  0  0  0  0  0  0  0  0  0
   11.1970  -16.1118   23.1451 O   0  0  0  0  0  0  0  0  0  0  0  0
   12.1265  -18.1822   20.0640 O   0  0  0  0  0  0  0  0  0  0  0  0
   10.0264  -17.2125   24.7666 N   0  0  0  0  0  0  0  0  0  0  0  0
   10.4416  -16.3681   25.8576 C   0  0  1  0  0  0  0  0  0  0  0  0
    9.9116  -14.9619   25.5460 C   0  0  0  0  0  0  0  0  0  0  0  0
    8.4539  -14.8734   25.8996 C   0  0  0  0  0  0  0  0  0  0  0  0
    7.5227  -15.8841   25.7873 C   0  0  0  0  0  0  0  0  0  0  0  0
    6.3334  -15.4231   26.1993 N   0  0  0  0  0  0  0  0  0  0  0  0
    6.4309  -14.1204   26.5905 C   0  0  0  0  0  0  0  0  0  0  0  0
    5.5147  -13.2190   27.0809 C   0  0  0  0  0  0  0  0  0  0  0  0
    5.9085  -11.9448   27.3966 C   0  0  0  0  0  0  0  0  0  0  0  0
    7.2418  -11.6047   27.2065 C   0  0  0  0  0  0  0  0  0  0  0  0
    8.1579  -12.5004   26.7179 C   0  0  0  0  0  0  0  0  0  0  0  0
    7.7614  -13.7914   26.3975 C   0  0  0  0  0  0  0  0  0  0  0  0
    9.9270  -16.8370   27.1588 C   0  0  0  0  0  0  0  0  0  0  0  0
    9.1264  -17.7996   27.1945 O   0  0  0  0  0  0  0  0  0  0  0  0
   10.3119  -16.2337   28.3411 O   0  0  0  0  0  0  0  0  0  0  0  0
  1  2  1  0
  2  3  1  0
  3  4  1  6
  5  3  1  0
  5  6  1  1
  7  5  1  0
  7  8  2  0
  9  7  1  0
 10  9  1  0
 10 11  1  6
 12 13  2  0
 12 11  1  0
 14 10  1  0
 15 14  2  0
 16 12  1  0
 17 14  1  0
 18 19  1  6
 18 17  1  0
 20 19  1  0
 21 20  2  0
 22 23  1  0
 22 21  1  0
 23 28  2  0
 24 25  2  0
 24 23  1  0
 25 26  1  0
 26 27  2  0
 28 27  1  0
 28 20  1  0
 29 18  1  0
 30 29  2  0
 31 29  1  0
M  END
$$$$
