IDW.pdb
     RDKit          3D

 31 32  0  0  1  0  0  0  0  0999 V2000
    8.1846  -11.9777   21.9521 C   0  0  0  0  0  0  0  0  0  0  0  0
    7.7268  -13.3943   21.7663 C   0  0  0  0  0  0  0  0  0  0  0  0
    8.3085  -14.0192   20.4930 C   0  0  2  0  0  0  0  0  0  0  0  0
    7.7992  -13.2878   19.2972 C   0  0  0  0  0  0  0  0  0  0  0  0
    7.9797  -15.4698   20.5315 C   0  0  2  0  0  0  0  0  0  0  0  0
    6.5499  -15.6245   20.5852 N   0  0  0  0  0  0  0  0  0  0  0  0
    8.6680  -16.2181   21.6024 C   0  0  0  0  0  0  0  0  0  0  0  0
    7.9092  -16.7733   22.4653 O   0  0  0  0  0  0  0  0  0  0  0  0
   10.0554  -16.3559   21.7316 N   0  0  0  0  0  0  0  0  0  0  0  0
   10.5739  -17.2292   22.7697 C   0  0  1  0  0  0  0  0  0  0  0  0
   12.0398  -17.4983   22.6031 C   0  0  0  0  0  0  0  0  0  0  0  0
   12.3282  -18.1026   21.2947 C   0  0  0  0  0  0  0  0  0  0  0  0
   11.6952  -19.1062   20.8843 O   0  0  0  0  0  0  0  0  0  0  0  0
   10.4090  -16.5250   24.0911 C   0  0  0  0  0  0  0  0  0  0  0  0
   10.7348  -15.3138   24.2047 O   0  0  0  0  0  0  0  0  0  0  0  0
   13.3280  -17.5634   20.4694 O   0  0  0  0  0  0  0  0  0  0  0  0
    9.8962  -17.1744   25.2276 N   0  0  0  0  0  0  0  0  0  0  0  0
   10.0065  -16.6962   26.5823 C   0  0  1  0  0  0  0  0  0  0  0  0
    8.6107  -16.8293   27.2061 C   0  0  0  0  0  0  0  0  0  0  0  0
    7.6500  -15.9034   26.5151 C   0  0  0  0  0  0  0  0  0  0  0  0
    6.6989  -16.2595   25.5824 C   0  0  0  0  0  0  0  0  0  0  0  0
    6.0379  -15.1588   25.1978 N   0  0  0  0  0  0  0  0  0  0  0  0
    6.5157  -14.0586   25.8464 C   0  0  0  0  0  0  0  0  0  0  0  0
    6.1793  -12.7255   25.8015 C   0  0  0  0  0  0  0  0  0  0  0  0
    6.8492  -11.8229   26.5857 C   0  0  0  0  0  0  0  0  0  0  0  0
    7.8610  -12.2959   27.4114 C   0  0  0  0  0  0  0  0  0  0  0  0
    8.1992  -13.6239   27.4589 C   0  0  0  0  0  0  0  0  0  0  0  0
    7.5222  -14.5398   26.6657 C   0  0  0  0  0  0  0  0  0  0  0  0
   10.9977  -17.4565   27.3679 C   0  0  0  0  0  0  0  0  0  0  0  0
   11.5618  -18.4495   26.8532 O   0  0  0  0  0  0  0  0  0  0  0  0
   11.3164  -17.0939   28.6627 O   0  0  0  0  0  0  0  0  0  0  0  0
  1  2  1  0
  2  3  1  0
  3  4  1  6
  5  3  1  0
  5  6  1  1
  7  5  1  0
  7  8  2  0
  9  7  1  0
 10  9  1  0
 10 11  1  6
 12 13  2  0
 12 11  1  0
 14 10  1  0
 15 14  2  0
 16 12  1  0
 17 14  1  0
 18 19  1  1
 18 17  1  0
 20 19  1  0
 21 20  2  0
 22 23  1  0
 22 21  1  0
 23 28  2  0
 24 25  2  0
 24 23  1  0
 25 26  1  0
 26 27  2  0
 28 27  1  0
 28 20  1  0
 29 18  1  0
 30 29  2  0
 31 29  1  0
M  END
$$$$
