IDW.pdb
     RDKit          3D

 31 32  0  0  1  0  0  0  0  0999 V2000
    8.4128  -12.0325   21.8269 C   0  0  0  0  0  0  0  0  0  0  0  0
    7.9316  -13.4188   21.5144 C   0  0  0  0  0  0  0  0  0  0  0  0
    8.4280  -13.8997   20.1460 C   0  0  2  0  0  0  0  0  0  0  0  0
    7.8936  -13.0082   19.0766 C   0  0  0  0  0  0  0  0  0  0  0  0
    8.0434  -15.3317   20.0230 C   0  0  2  0  0  0  0  0  0  0  0  0
    6.6079  -15.4298   19.9903 N   0  0  0  0  0  0  0  0  0  0  0  0
    8.6450  -16.2101   21.0463 C   0  0  0  0  0  0  0  0  0  0  0  0
    7.8208  -16.8203   21.8058 O   0  0  0  0  0  0  0  0  0  0  0  0
   10.0176  -16.4129   21.2344 N   0  0  0  0  0  0  0  0  0  0  0  0
   10.4475  -17.4304   22.1773 C   0  0  1  0  0  0  0  0  0  0  0  0
   11.7024  -18.1206   21.7324 C   0  0  0  0  0  0  0  0  0  0  0  0
   12.1398  -19.1226   22.7148 C   0  0  0  0  0  0  0  0  0  0  0  0
   13.1501  -18.9336   23.4358 O   0  0  0  0  0  0  0  0  0  0  0  0
   10.7665  -16.7470   23.4812 C   0  0  0  0  0  0  0  0  0  0  0  0
   11.5122  -15.7322   23.4949 O   0  0  0  0  0  0  0  0  0  0  0  0
   11.4286  -20.3236   22.8675 O   0  0  0  0  0  0  0  0  0  0  0  0
   10.2574  -17.2019   24.7101 N   0  0  0  0  0  0  0  0  0  0  0  0
   10.6123  -16.6789   26.0049 C   0  0  1  0  0  0  0  0  0  0  0  0
   10.2311  -15.1923   25.9934 C   0  0  0  0  0  0  0  0  0  0  0  0
    8.7357  -15.0465   26.0073 C   0  0  0  0  0  0  0  0  0  0  0  0
    7.8143  -16.0519   25.8038 C   0  0  0  0  0  0  0  0  0  0  0  0
    6.5818  -15.5327   25.8927 N   0  0  0  0  0  0  0  0  0  0  0  0
    6.6401  -14.1952   26.1523 C   0  0  0  0  0  0  0  0  0  0  0  0
    5.6733  -13.2328   26.3293 C   0  0  0  0  0  0  0  0  0  0  0  0
    6.0360  -11.9359   26.5837 C   0  0  0  0  0  0  0  0  0  0  0  0
    7.3904  -11.6358   26.6547 C   0  0  0  0  0  0  0  0  0  0  0  0
    8.3569  -12.5923   26.4788 C   0  0  0  0  0  0  0  0  0  0  0  0
    7.9920  -13.9065   26.2210 C   0  0  0  0  0  0  0  0  0  0  0  0
    9.9208  -17.3807   27.1035 C   0  0  0  0  0  0  0  0  0  0  0  0
    9.1407  -18.3241   26.8380 O   0  0  0  0  0  0  0  0  0  0  0  0
   10.1172  -17.0167   28.4221 O   0  0  0  0  0  0  0  0  0  0  0  0
  1  2  1  0
  2  3  1  0
  3  4  1  6
  5  3  1  0
  5  6  1  1
  7  5  1  0
  7  8  2  0
  9  7  1  0
 10  9  1  0
 10 11  1  6
 12 13  2  0
 12 11  1  0
 14 10  1  0
 15 14  2  0
 16 12  1  0
 17 14  1  0
 18 19  1  6
 18 17  1  0
 20 19  1  0
 21 20  2  0
 22 23  1  0
 22 21  1  0
 23 28  2  0
 24 25  2  0
 24 23  1  0
 25 26  1  0
 26 27  2  0
 28 27  1  0
 28 20  1  0
 29 18  1  0
 30 29  2  0
 31 29  1  0
M  END
$$$$
