IDW.pdb
     RDKit          3D

 31 32  0  0  1  0  0  0  0  0999 V2000
    7.3829  -11.8351   19.8672 C   0  0  0  0  0  0  0  0  0  0  0  0
    7.3448  -13.3212   19.6642 C   0  0  0  0  0  0  0  0  0  0  0  0
    7.9688  -14.0740   20.8449 C   0  0  2  0  0  0  0  0  0  0  0  0
    9.3602  -13.5874   21.0714 C   0  0  0  0  0  0  0  0  0  0  0  0
    7.8504  -15.5267   20.5454 C   0  0  2  0  0  0  0  0  0  0  0  0
    6.4581  -15.8642   20.4072 N   0  0  0  0  0  0  0  0  0  0  0  0
    8.5495  -16.4020   21.5075 C   0  0  0  0  0  0  0  0  0  0  0  0
    7.8434  -16.8305   22.4803 O   0  0  0  0  0  0  0  0  0  0  0  0
    9.8946  -16.7825   21.4273 N   0  0  0  0  0  0  0  0  0  0  0  0
   10.4382  -17.6391   22.4665 C   0  0  1  0  0  0  0  0  0  0  0  0
   11.7812  -18.1948   22.0971 C   0  0  0  0  0  0  0  0  0  0  0  0
   12.2617  -19.1499   23.1058 C   0  0  0  0  0  0  0  0  0  0  0  0
   11.5697  -19.4413   24.1121 O   0  0  0  0  0  0  0  0  0  0  0  0
   10.6403  -16.7982   23.6999 C   0  0  0  0  0  0  0  0  0  0  0  0
   11.3262  -15.7438   23.6382 O   0  0  0  0  0  0  0  0  0  0  0  0
   13.5175  -19.7613   22.9621 O   0  0  0  0  0  0  0  0  0  0  0  0
   10.0849  -17.1462   24.9436 N   0  0  0  0  0  0  0  0  0  0  0  0
   10.4924  -16.6115   26.2179 C   0  0  1  0  0  0  0  0  0  0  0  0
   10.1043  -15.1268   26.2114 C   0  0  0  0  0  0  0  0  0  0  0  0
    8.6089  -14.9881   26.1634 C   0  0  0  0  0  0  0  0  0  0  0  0
    7.6962  -16.0145   26.0423 C   0  0  0  0  0  0  0  0  0  0  0  0
    6.4605  -15.4951   26.0363 N   0  0  0  0  0  0  0  0  0  0  0  0
    6.5083  -14.1370   26.1505 C   0  0  0  0  0  0  0  0  0  0  0  0
    5.5346  -13.1662   26.1921 C   0  0  0  0  0  0  0  0  0  0  0  0
    5.8868  -11.8474   26.3150 C   0  0  0  0  0  0  0  0  0  0  0  0
    7.2378  -11.5343   26.3944 C   0  0  0  0  0  0  0  0  0  0  0  0
    8.2111  -12.4992   26.3534 C   0  0  0  0  0  0  0  0  0  0  0  0
    7.8568  -13.8355   26.2289 C   0  0  0  0  0  0  0  0  0  0  0  0
    9.8518  -17.3076   27.3505 C   0  0  0  0  0  0  0  0  0  0  0  0
   10.0187  -16.8749   28.5141 O   0  0  0  0  0  0  0  0  0  0  0  0
    9.0698  -18.4297   27.1522 O   0  0  0  0  0  0  0  0  0  0  0  0
  1  2  1  0
  2  3  1  0
  3  4  1  6
  5  3  1  0
  5  6  1  1
  7  5  1  0
  7  8  2  0
  9  7  1  0
 10  9  1  0
 10 11  1  6
 12 13  2  0
 12 11  1  0
 14 10  1  0
 15 14  2  0
 16 12  1  0
 17 14  1  0
 18 19  1  6
 18 17  1  0
 20 19  1  0
 21 20  2  0
 22 23  1  0
 22 21  1  0
 23 28  2  0
 24 25  2  0
 24 23  1  0
 25 26  1  0
 26 27  2  0
 28 27  1  0
 28 20  1  0
 29 18  1  0
 30 29  2  0
 31 29  1  0
M  END
$$$$
