PWF.pdb
     RDKit          3D

 33 36  0  0  1  0  0  0  0  0999 V2000
    9.5210  -19.6986   20.2781 N   0  0  0  0  0  0  0  0  0  0  0  0
    9.1964  -20.4401   19.0753 C   0  0  0  0  0  0  0  0  0  0  0  0
    8.7958  -19.3802   18.0756 C   0  0  0  0  0  0  0  0  0  0  0  0
    9.1155  -18.0446   18.7608 C   0  0  0  0  0  0  0  0  0  0  0  0
   10.1418  -18.5194   19.7699 C   0  0  1  0  0  0  0  0  0  0  0  0
   10.3592  -17.4765   20.8020 C   0  0  0  0  0  0  0  0  0  0  0  0
   11.2773  -16.6327   20.6472 O   0  0  0  0  0  0  0  0  0  0  0  0
    9.5691  -17.3861   21.9713 N   0  0  0  0  0  0  0  0  0  0  0  0
    9.5313  -16.2491   22.8728 C   0  0  1  0  0  0  0  0  0  0  0  0
    8.0632  -15.9726   23.1018 C   0  0  0  0  0  0  0  0  0  0  0  0
    7.7401  -14.5903   23.4531 C   0  0  0  0  0  0  0  0  0  0  0  0
    7.7999  -13.5299   22.5478 C   0  0  0  0  0  0  0  0  0  0  0  0
    7.4200  -12.3893   23.1349 N   0  0  0  0  0  0  0  0  0  0  0  0
    7.1102  -12.6956   24.4271 C   0  0  0  0  0  0  0  0  0  0  0  0
    6.6748  -11.8620   25.4342 C   0  0  0  0  0  0  0  0  0  0  0  0
    6.4427  -12.4455   26.6624 C   0  0  0  0  0  0  0  0  0  0  0  0
    6.6276  -13.7804   26.8957 C   0  0  0  0  0  0  0  0  0  0  0  0
    7.0612  -14.6002   25.8849 C   0  0  0  0  0  0  0  0  0  0  0  0
    7.3081  -14.0671   24.6328 C   0  0  0  0  0  0  0  0  0  0  0  0
   10.3371  -16.3735   24.0680 C   0  0  0  0  0  0  0  0  0  0  0  0
   11.3281  -15.5834   24.2324 O   0  0  0  0  0  0  0  0  0  0  0  0
   10.1049  -17.3193   25.0964 N   0  0  0  0  0  0  0  0  0  0  0  0
   11.0361  -17.5163   26.2073 C   0  0  1  0  0  0  0  0  0  0  0  0
   10.1729  -17.3567   27.4577 C   0  0  0  0  0  0  0  0  0  0  0  0
    9.8524  -15.9597   27.7789 C   0  0  0  0  0  0  0  0  0  0  0  0
   10.8727  -15.1219   28.1722 C   0  0  0  0  0  0  0  0  0  0  0  0
   10.6012  -13.7835   28.4777 C   0  0  0  0  0  0  0  0  0  0  0  0
    9.3311  -13.2847   28.3931 C   0  0  0  0  0  0  0  0  0  0  0  0
    8.3065  -14.1122   28.0017 C   0  0  0  0  0  0  0  0  0  0  0  0
    8.5862  -15.4418   27.6998 C   0  0  0  0  0  0  0  0  0  0  0  0
   11.6068  -18.8787   26.2445 C   0  0  0  0  0  0  0  0  0  0  0  0
   11.0448  -19.8399   25.3970 O   0  0  0  0  0  0  0  0  0  0  0  0
   12.5559  -19.2084   26.9897 O   0  0  0  0  0  0  0  0  0  0  0  0
  1  5  1  0
  1  2  1  0
  2  3  1  0
  3  4  1  0
  5  4  1  0
  6  7  2  0
  5  6  1  1
  8  6  1  0
  9  8  1  0
  9 10  1  1
 11 10  1  0
 12 11  2  0
 13 12  1  0
 14 13  1  0
 14 19  2  0
 15 14  1  0
 16 15  2  0
 16 17  1  0
 17 18  2  0
 18 19  1  0
 19 11  1  0
 20 22  1  0
 20  9  1  0
 21 20  2  0
 23 22  1  0
 23 31  1  0
 23 24  1  1
 24 25  1  0
 25 26  2  0
 25 30  1  0
 26 27  1  0
 27 28  2  0
 29 28  1  0
 30 29  2  0
 31 32  1  0
 33 31  2  0
M  END
$$$$
