PWF.pdb
     RDKit          3D

 33 36  0  0  1  0  0  0  0  0999 V2000
    4.5512  -19.8611   22.7292 N   0  0  0  0  0  0  0  0  0  0  0  0
    3.4223  -20.6429   22.2643 C   0  0  0  0  0  0  0  0  0  0  0  0
    2.3179  -19.6306   22.0682 C   0  0  0  0  0  0  0  0  0  0  0  0
    2.9885  -18.2647   22.2686 C   0  0  0  0  0  0  0  0  0  0  0  0
    4.4278  -18.6483   21.9888 C   0  0  1  0  0  0  0  0  0  0  0  0
    5.3393  -17.5763   22.4579 C   0  0  0  0  0  0  0  0  0  0  0  0
    5.2850  -16.4393   21.9257 O   0  0  0  0  0  0  0  0  0  0  0  0
    6.2822  -17.7771   23.4924 N   0  0  0  0  0  0  0  0  0  0  0  0
    7.2770  -16.8107   23.9205 C   0  0  1  0  0  0  0  0  0  0  0  0
    7.2765  -16.8828   25.4302 C   0  0  0  0  0  0  0  0  0  0  0  0
    7.2341  -15.5900   26.1125 C   0  0  0  0  0  0  0  0  0  0  0  0
    6.1102  -14.7630   26.1296 C   0  0  0  0  0  0  0  0  0  0  0  0
    6.3471  -13.6638   26.8547 N   0  0  0  0  0  0  0  0  0  0  0  0
    7.6264  -13.7641   27.3157 C   0  0  0  0  0  0  0  0  0  0  0  0
    8.3358  -12.8815   28.1009 C   0  0  0  0  0  0  0  0  0  0  0  0
    9.6316  -13.2365   28.4139 C   0  0  0  0  0  0  0  0  0  0  0  0
   10.2071  -14.3987   27.9799 C   0  0  0  0  0  0  0  0  0  0  0  0
    9.4907  -15.2696   27.1988 C   0  0  0  0  0  0  0  0  0  0  0  0
    8.1862  -14.9633   26.8561 C   0  0  0  0  0  0  0  0  0  0  0  0
    8.5739  -16.9293   23.2902 C   0  0  0  0  0  0  0  0  0  0  0  0
    8.9606  -18.0758   22.8789 O   0  0  0  0  0  0  0  0  0  0  0  0
    9.4660  -15.8489   23.0828 N   0  0  0  0  0  0  0  0  0  0  0  0
   10.6026  -15.9337   22.1657 C   0  0  1  0  0  0  0  0  0  0  0  0
   10.8013  -14.5003   21.6757 C   0  0  0  0  0  0  0  0  0  0  0  0
    9.6256  -13.9411   20.9955 C   0  0  0  0  0  0  0  0  0  0  0  0
    8.7739  -13.1280   21.7102 C   0  0  0  0  0  0  0  0  0  0  0  0
    7.6494  -12.5735   21.0887 C   0  0  0  0  0  0  0  0  0  0  0  0
    7.3754  -12.8246   19.7730 C   0  0  0  0  0  0  0  0  0  0  0  0
    8.2189  -13.6343   19.0513 C   0  0  0  0  0  0  0  0  0  0  0  0
    9.3348  -14.1812   19.6780 C   0  0  0  0  0  0  0  0  0  0  0  0
   11.8542  -16.3406   22.8372 C   0  0  0  0  0  0  0  0  0  0  0  0
   11.8080  -16.5547   24.2193 O   0  0  0  0  0  0  0  0  0  0  0  0
   12.9392  -16.4993   22.2354 O   0  0  0  0  0  0  0  0  0  0  0  0
  1  5  1  0
  1  2  1  0
  2  3  1  0
  3  4  1  0
  5  4  1  0
  6  7  2  0
  5  6  1  1
  8  6  1  0
  9  8  1  0
  9 10  1  1
 11 10  1  0
 12 11  2  0
 13 12  1  0
 14 13  1  0
 14 19  2  0
 15 14  1  0
 16 15  2  0
 16 17  1  0
 17 18  2  0
 18 19  1  0
 19 11  1  0
 20 22  1  0
 20  9  1  0
 21 20  2  0
 23 22  1  0
 23 31  1  0
 23 24  1  1
 24 25  1  0
 25 26  2  0
 25 30  1  0
 26 27  1  0
 27 28  2  0
 29 28  1  0
 30 29  2  0
 31 32  1  0
 33 31  2  0
M  END
$$$$
