PWF.pdb
     RDKit          3D

 33 36  0  0  1  0  0  0  0  0999 V2000
    8.1620  -15.4541   18.7332 N   0  0  0  0  0  0  0  0  0  0  0  0
    7.9619  -14.9394   17.3928 C   0  0  0  0  0  0  0  0  0  0  0  0
    8.1315  -13.4446   17.5338 C   0  0  0  0  0  0  0  0  0  0  0  0
    8.6198  -13.2326   18.9733 C   0  0  0  0  0  0  0  0  0  0  0  0
    9.1884  -14.6097   19.2509 C   0  0  1  0  0  0  0  0  0  0  0  0
    9.4143  -14.7817   20.7067 C   0  0  0  0  0  0  0  0  0  0  0  0
   10.3273  -14.1306   21.2737 O   0  0  0  0  0  0  0  0  0  0  0  0
    8.6381  -15.6586   21.4994 N   0  0  0  0  0  0  0  0  0  0  0  0
    8.6710  -15.7310   22.9487 C   0  0  1  0  0  0  0  0  0  0  0  0
    7.2715  -16.1282   23.3582 C   0  0  0  0  0  0  0  0  0  0  0  0
    6.7555  -15.4459   24.5443 C   0  0  0  0  0  0  0  0  0  0  0  0
    6.1940  -16.1120   25.6345 C   0  0  0  0  0  0  0  0  0  0  0  0
    5.8396  -15.2402   26.5856 N   0  0  0  0  0  0  0  0  0  0  0  0
    6.1660  -13.9994   26.1240 C   0  0  0  0  0  0  0  0  0  0  0  0
    5.9939  -12.7757   26.7336 C   0  0  0  0  0  0  0  0  0  0  0  0
    6.4125  -11.6682   26.0256 C   0  0  0  0  0  0  0  0  0  0  0  0
    6.9726  -11.7524   24.7808 C   0  0  0  0  0  0  0  0  0  0  0  0
    7.1389  -12.9765   24.1843 C   0  0  0  0  0  0  0  0  0  0  0  0
    6.7374  -14.1200   24.8506 C   0  0  0  0  0  0  0  0  0  0  0  0
    9.7369  -16.5328   23.5093 C   0  0  0  0  0  0  0  0  0  0  0  0
   10.0334  -17.6451   22.9543 O   0  0  0  0  0  0  0  0  0  0  0  0
   10.4990  -16.1706   24.6470 N   0  0  0  0  0  0  0  0  0  0  0  0
   11.5841  -17.0047   25.1636 C   0  0  1  0  0  0  0  0  0  0  0  0
   12.3908  -16.0649   26.0581 C   0  0  0  0  0  0  0  0  0  0  0  0
   11.5772  -15.3562   27.0549 C   0  0  0  0  0  0  0  0  0  0  0  0
   11.4637  -15.8943   28.3178 C   0  0  0  0  0  0  0  0  0  0  0  0
   10.7020  -15.2393   29.2921 C   0  0  0  0  0  0  0  0  0  0  0  0
   10.0615  -14.0639   29.0137 C   0  0  0  0  0  0  0  0  0  0  0  0
   10.1685  -13.5189   27.7570 C   0  0  0  0  0  0  0  0  0  0  0  0
   10.9283  -14.1776   26.7946 C   0  0  0  0  0  0  0  0  0  0  0  0
   11.1030  -18.1104   26.0174 C   0  0  0  0  0  0  0  0  0  0  0  0
    9.7249  -18.2029   26.2422 O   0  0  0  0  0  0  0  0  0  0  0  0
   11.8608  -18.9558   26.5425 O   0  0  0  0  0  0  0  0  0  0  0  0
  1  5  1  0
  1  2  1  0
  2  3  1  0
  3  4  1  0
  5  4  1  0
  6  7  2  0
  5  6  1  1
  8  6  1  0
  9  8  1  0
  9 10  1  6
 11 10  1  0
 12 11  2  0
 13 12  1  0
 14 13  1  0
 14 19  2  0
 15 14  1  0
 16 15  2  0
 16 17  1  0
 17 18  2  0
 18 19  1  0
 19 11  1  0
 20 22  1  0
 20  9  1  0
 21 20  2  0
 23 22  1  0
 23 31  1  0
 23 24  1  1
 24 25  1  0
 25 26  2  0
 25 30  1  0
 26 27  1  0
 27 28  2  0
 29 28  1  0
 30 29  2  0
 31 32  1  0
 33 31  2  0
M  END
$$$$
