PWF.pdb
     RDKit          3D

 33 36  0  0  1  0  0  0  0  0999 V2000
    7.5215  -15.4659   19.4317 N   0  0  0  0  0  0  0  0  0  0  0  0
    7.1117  -15.0339   18.1099 C   0  0  0  0  0  0  0  0  0  0  0  0
    7.3402  -13.5403   18.1136 C   0  0  0  0  0  0  0  0  0  0  0  0
    8.0691  -13.2517   19.4331 C   0  0  0  0  0  0  0  0  0  0  0  0
    8.6413  -14.6275   19.7100 C   0  0  1  0  0  0  0  0  0  0  0  0
    9.1046  -14.7109   21.1166 C   0  0  0  0  0  0  0  0  0  0  0  0
   10.0433  -13.9714   21.5052 O   0  0  0  0  0  0  0  0  0  0  0  0
    8.5306  -15.5984   22.0560 N   0  0  0  0  0  0  0  0  0  0  0  0
    8.8640  -15.6574   23.4674 C   0  0  1  0  0  0  0  0  0  0  0  0
    7.6414  -16.2377   24.1403 C   0  0  0  0  0  0  0  0  0  0  0  0
    6.7876  -15.2647   24.8206 C   0  0  0  0  0  0  0  0  0  0  0  0
    5.5849  -15.5973   25.4455 C   0  0  0  0  0  0  0  0  0  0  0  0
    5.0356  -14.5167   26.0118 N   0  0  0  0  0  0  0  0  0  0  0  0
    5.8741  -13.4711   25.7608 C   0  0  0  0  0  0  0  0  0  0  0  0
    5.7452  -12.1498   26.1297 C   0  0  0  0  0  0  0  0  0  0  0  0
    6.7512  -11.2952   25.7288 C   0  0  0  0  0  0  0  0  0  0  0  0
    7.8320  -11.7120   25.0018 C   0  0  0  0  0  0  0  0  0  0  0  0
    7.9493  -13.0302   24.6406 C   0  0  0  0  0  0  0  0  0  0  0  0
    6.9692  -13.9304   25.0175 C   0  0  0  0  0  0  0  0  0  0  0  0
   10.1183  -16.3045   23.7857 C   0  0  0  0  0  0  0  0  0  0  0  0
   10.5698  -17.2030   22.9971 O   0  0  0  0  0  0  0  0  0  0  0  0
   10.9059  -16.0094   24.9253 N   0  0  0  0  0  0  0  0  0  0  0  0
   12.1590  -16.7060   25.2160 C   0  0  1  0  0  0  0  0  0  0  0  0
   12.8051  -15.8763   26.3243 C   0  0  0  0  0  0  0  0  0  0  0  0
   11.8826  -15.5249   27.4121 C   0  0  0  0  0  0  0  0  0  0  0  0
   11.8342  -16.3357   28.5245 C   0  0  0  0  0  0  0  0  0  0  0  0
   10.9715  -16.0238   29.5813 C   0  0  0  0  0  0  0  0  0  0  0  0
   10.1672  -14.9193   29.5322 C   0  0  0  0  0  0  0  0  0  0  0  0
   10.2081  -14.1040   28.4270 C   0  0  0  0  0  0  0  0  0  0  0  0
   11.0694  -14.4224   27.3810 C   0  0  0  0  0  0  0  0  0  0  0  0
   11.9494  -18.0649   25.7568 C   0  0  0  0  0  0  0  0  0  0  0  0
   13.0815  -18.8592   25.9698 O   0  0  0  0  0  0  0  0  0  0  0  0
   10.8213  -18.5323   26.0283 O   0  0  0  0  0  0  0  0  0  0  0  0
  1  5  1  0
  1  2  1  0
  2  3  1  0
  3  4  1  0
  5  4  1  0
  6  7  2  0
  5  6  1  1
  8  6  1  0
  9  8  1  0
  9 10  1  1
 11 10  1  0
 12 11  2  0
 13 12  1  0
 14 13  1  0
 14 19  2  0
 15 14  1  0
 16 15  2  0
 16 17  1  0
 17 18  2  0
 18 19  1  0
 19 11  1  0
 20 22  1  0
 20  9  1  0
 21 20  2  0
 23 22  1  0
 23 31  1  0
 23 24  1  1
 24 25  1  0
 25 26  2  0
 25 30  1  0
 26 27  1  0
 27 28  2  0
 29 28  1  0
 30 29  2  0
 31 32  1  0
 33 31  2  0
M  END
$$$$
