PWF.pdb
     RDKit          3D

 33 36  0  0  1  0  0  0  0  0999 V2000
    8.0666  -15.5089   18.8648 N   0  0  0  0  0  0  0  0  0  0  0  0
    7.7542  -15.0416   17.5285 C   0  0  0  0  0  0  0  0  0  0  0  0
    7.8728  -13.5379   17.6176 C   0  0  0  0  0  0  0  0  0  0  0  0
    8.4502  -13.2654   19.0133 C   0  0  0  0  0  0  0  0  0  0  0  0
    9.0914  -14.6111   19.2868 C   0  0  1  0  0  0  0  0  0  0  0  0
    9.4237  -14.7317   20.7274 C   0  0  0  0  0  0  0  0  0  0  0  0
   10.3470  -14.0302   21.2115 O   0  0  0  0  0  0  0  0  0  0  0  0
    8.7394  -15.6136   21.5954 N   0  0  0  0  0  0  0  0  0  0  0  0
    8.8879  -15.6539   23.0387 C   0  0  1  0  0  0  0  0  0  0  0  0
    7.5729  -16.1877   23.5584 C   0  0  0  0  0  0  0  0  0  0  0  0
    6.8916  -15.3254   24.5231 C   0  0  0  0  0  0  0  0  0  0  0  0
    6.0379  -15.8042   25.5179 C   0  0  0  0  0  0  0  0  0  0  0  0
    5.5851  -14.7967   26.2729 N   0  0  0  0  0  0  0  0  0  0  0  0
    6.1384  -13.6533   25.7771 C   0  0  0  0  0  0  0  0  0  0  0  0
    5.9750  -12.3546   26.2078 C   0  0  0  0  0  0  0  0  0  0  0  0
    6.6563  -11.3808   25.5073 C   0  0  0  0  0  0  0  0  0  0  0  0
    7.4591  -11.6626   24.4366 C   0  0  0  0  0  0  0  0  0  0  0  0
    7.6141  -12.9595   24.0173 C   0  0  0  0  0  0  0  0  0  0  0  0
    6.9544  -13.9755   24.6848 C   0  0  0  0  0  0  0  0  0  0  0  0
   10.0717  -16.3283   23.5257 C   0  0  0  0  0  0  0  0  0  0  0  0
   10.4964  -17.3611   22.9044 O   0  0  0  0  0  0  0  0  0  0  0  0
   10.8174  -15.9208   24.6588 N   0  0  0  0  0  0  0  0  0  0  0  0
   12.0255  -16.6197   25.0971 C   0  0  1  0  0  0  0  0  0  0  0  0
   12.6520  -15.6826   26.1282 C   0  0  0  0  0  0  0  0  0  0  0  0
   11.7553  -15.3473   27.2424 C   0  0  0  0  0  0  0  0  0  0  0  0
   10.9497  -14.2357   27.1300 C   0  0  0  0  0  0  0  0  0  0  0  0
   10.0790  -13.8940   28.1708 C   0  0  0  0  0  0  0  0  0  0  0  0
   10.0103  -14.6484   29.3090 C   0  0  0  0  0  0  0  0  0  0  0  0
   10.8097  -15.7592   29.4307 C   0  0  0  0  0  0  0  0  0  0  0  0
   11.6725  -16.0912   28.3903 C   0  0  0  0  0  0  0  0  0  0  0  0
   11.7345  -17.8931   25.7877 C   0  0  0  0  0  0  0  0  0  0  0  0
   10.3910  -18.2428   25.9630 O   0  0  0  0  0  0  0  0  0  0  0  0
   12.6220  -18.6622   26.2183 O   0  0  0  0  0  0  0  0  0  0  0  0
  1  5  1  0
  1  2  1  0
  2  3  1  0
  3  4  1  0
  5  4  1  0
  6  7  2  0
  5  6  1  1
  8  6  1  0
  9  8  1  0
  9 10  1  1
 11 10  1  0
 12 11  2  0
 13 12  1  0
 14 13  1  0
 14 19  2  0
 15 14  1  0
 16 15  2  0
 16 17  1  0
 17 18  2  0
 18 19  1  0
 19 11  1  0
 20 22  1  0
 20  9  1  0
 21 20  2  0
 23 22  1  0
 23 31  1  0
 23 24  1  1
 24 25  1  0
 25 26  2  0
 25 30  1  0
 26 27  1  0
 27 28  2  0
 29 28  1  0
 30 29  2  0
 31 32  1  0
 33 31  2  0
M  END
$$$$
