PWF.pdb
     RDKit          3D

 33 36  0  0  1  0  0  0  0  0999 V2000
    7.8663  -15.2023   19.4922 N   0  0  0  0  0  0  0  0  0  0  0  0
    7.4938  -14.6638   18.1987 C   0  0  0  0  0  0  0  0  0  0  0  0
    7.6732  -13.1707   18.3461 C   0  0  0  0  0  0  0  0  0  0  0  0
    8.3409  -12.9825   19.7151 C   0  0  0  0  0  0  0  0  0  0  0  0
    8.9466  -14.3606   19.8907 C   0  0  1  0  0  0  0  0  0  0  0  0
    9.3579  -14.5583   21.3020 C   0  0  0  0  0  0  0  0  0  0  0  0
   10.2662  -13.8400   21.7897 O   0  0  0  0  0  0  0  0  0  0  0  0
    8.7665  -15.5336   22.1379 N   0  0  0  0  0  0  0  0  0  0  0  0
    9.0388  -15.7022   23.5536 C   0  0  1  0  0  0  0  0  0  0  0  0
    7.7793  -16.3059   24.1311 C   0  0  0  0  0  0  0  0  0  0  0  0
    6.8949  -15.3612   24.8122 C   0  0  0  0  0  0  0  0  0  0  0  0
    5.7372  -15.7411   25.4925 C   0  0  0  0  0  0  0  0  0  0  0  0
    5.1460  -14.6754   26.0448 N   0  0  0  0  0  0  0  0  0  0  0  0
    5.9120  -13.5924   25.7290 C   0  0  0  0  0  0  0  0  0  0  0  0
    5.7189  -12.2689   26.0604 C   0  0  0  0  0  0  0  0  0  0  0  0
    6.6578  -11.3719   25.5947 C   0  0  0  0  0  0  0  0  0  0  0  0
    7.7343  -11.7501   24.8407 C   0  0  0  0  0  0  0  0  0  0  0  0
    7.9158  -13.0709   24.5173 C   0  0  0  0  0  0  0  0  0  0  0  0
    7.0046  -14.0127   24.9596 C   0  0  0  0  0  0  0  0  0  0  0  0
   10.2675  -16.3956   23.8744 C   0  0  0  0  0  0  0  0  0  0  0  0
   10.8617  -17.0597   22.9584 O   0  0  0  0  0  0  0  0  0  0  0  0
   10.8807  -16.3909   25.1512 N   0  0  0  0  0  0  0  0  0  0  0  0
   12.0487  -17.2139   25.4647 C   0  0  1  0  0  0  0  0  0  0  0  0
   12.4154  -16.8216   26.8950 C   0  0  0  0  0  0  0  0  0  0  0  0
   11.5607  -15.7661   27.4547 C   0  0  0  0  0  0  0  0  0  0  0  0
   11.6542  -14.4948   26.9329 C   0  0  0  0  0  0  0  0  0  0  0  0
   10.8481  -13.4690   27.4392 C   0  0  0  0  0  0  0  0  0  0  0  0
    9.9600  -13.7049   28.4515 C   0  0  0  0  0  0  0  0  0  0  0  0
    9.8590  -14.9697   28.9787 C   0  0  0  0  0  0  0  0  0  0  0  0
   10.6649  -15.9834   28.4687 C   0  0  0  0  0  0  0  0  0  0  0  0
   11.7470  -18.6603   25.4749 C   0  0  0  0  0  0  0  0  0  0  0  0
   12.8204  -19.5450   25.6273 O   0  0  0  0  0  0  0  0  0  0  0  0
   10.5917  -19.1243   25.3541 O   0  0  0  0  0  0  0  0  0  0  0  0
  1  5  1  0
  1  2  1  0
  2  3  1  0
  3  4  1  0
  5  4  1  0
  6  7  2  0
  5  6  1  1
  8  6  1  0
  9  8  1  0
  9 10  1  6
 11 10  1  0
 12 11  2  0
 13 12  1  0
 14 13  1  0
 14 19  2  0
 15 14  1  0
 16 15  2  0
 16 17  1  0
 17 18  2  0
 18 19  1  0
 19 11  1  0
 20 22  1  0
 20  9  1  0
 21 20  2  0
 23 22  1  0
 23 31  1  0
 23 24  1  1
 24 25  1  0
 25 26  2  0
 25 30  1  0
 26 27  1  0
 27 28  2  0
 29 28  1  0
 30 29  2  0
 31 32  1  0
 33 31  2  0
M  END
$$$$
