PWF.pdb
     RDKit          3D

 33 36  0  0  1  0  0  0  0  0999 V2000
    8.5605  -17.2898   18.4989 N   0  0  0  0  0  0  0  0  0  0  0  0
    8.4863  -17.2545   17.0515 C   0  0  0  0  0  0  0  0  0  0  0  0
    8.5931  -15.7879   16.7042 C   0  0  0  0  0  0  0  0  0  0  0  0
    8.9207  -15.0869   18.0297 C   0  0  0  0  0  0  0  0  0  0  0  0
    9.4999  -16.2587   18.7968 C   0  0  1  0  0  0  0  0  0  0  0  0
    9.5769  -15.9313   20.2415 C   0  0  0  0  0  0  0  0  0  0  0  0
   10.4584  -15.1349   20.6507 O   0  0  0  0  0  0  0  0  0  0  0  0
    8.6907  -16.4829   21.1955 N   0  0  0  0  0  0  0  0  0  0  0  0
    8.6259  -16.1078   22.5962 C   0  0  1  0  0  0  0  0  0  0  0  0
    7.1514  -16.0030   22.9112 C   0  0  0  0  0  0  0  0  0  0  0  0
    6.8376  -15.5399   24.2624 C   0  0  0  0  0  0  0  0  0  0  0  0
    6.3787  -16.3792   25.2786 C   0  0  0  0  0  0  0  0  0  0  0  0
    6.2070  -15.6918   26.4136 N   0  0  0  0  0  0  0  0  0  0  0  0
    6.5514  -14.3995   26.1473 C   0  0  0  0  0  0  0  0  0  0  0  0
    6.5390  -13.3089   26.9894 C   0  0  0  0  0  0  0  0  0  0  0  0
    6.9343  -12.1041   26.4461 C   0  0  0  0  0  0  0  0  0  0  0  0
    7.3231  -11.9711   25.1417 C   0  0  0  0  0  0  0  0  0  0  0  0
    7.3314  -13.0644   24.3131 C   0  0  0  0  0  0  0  0  0  0  0  0
    6.9453  -14.2973   24.8069 C   0  0  0  0  0  0  0  0  0  0  0  0
    9.4004  -16.9312   23.4992 C   0  0  0  0  0  0  0  0  0  0  0  0
    9.3001  -18.2026   23.4188 O   0  0  0  0  0  0  0  0  0  0  0  0
   10.2858  -16.4274   24.4833 N   0  0  0  0  0  0  0  0  0  0  0  0
   11.0477  -17.3012   25.3755 C   0  0  1  0  0  0  0  0  0  0  0  0
   12.0972  -16.3828   25.9992 C   0  0  0  0  0  0  0  0  0  0  0  0
   11.5250  -15.2536   26.7443 C   0  0  0  0  0  0  0  0  0  0  0  0
   11.3064  -15.3978   28.0967 C   0  0  0  0  0  0  0  0  0  0  0  0
   10.7696  -14.3380   28.8361 C   0  0  0  0  0  0  0  0  0  0  0  0
   10.4543  -13.1496   28.2381 C   0  0  0  0  0  0  0  0  0  0  0  0
   10.6688  -12.9956   26.8897 C   0  0  0  0  0  0  0  0  0  0  0  0
   11.2031  -14.0553   26.1626 C   0  0  0  0  0  0  0  0  0  0  0  0
   10.2331  -17.8443   26.4821 C   0  0  0  0  0  0  0  0  0  0  0  0
   10.8403  -18.7667   27.3415 O   0  0  0  0  0  0  0  0  0  0  0  0
    9.0411  -17.5226   26.6829 O   0  0  0  0  0  0  0  0  0  0  0  0
  1  5  1  0
  1  2  1  0
  2  3  1  0
  3  4  1  0
  5  4  1  0
  6  7  2  0
  5  6  1  1
  8  6  1  0
  9  8  1  0
  9 10  1  1
 11 10  1  0
 12 11  2  0
 13 12  1  0
 14 13  1  0
 14 19  2  0
 15 14  1  0
 16 15  2  0
 16 17  1  0
 17 18  2  0
 18 19  1  0
 19 11  1  0
 20 22  1  0
 20  9  1  0
 21 20  2  0
 23 22  1  0
 23 31  1  0
 23 24  1  1
 24 25  1  0
 25 26  2  0
 25 30  1  0
 26 27  1  0
 27 28  2  0
 29 28  1  0
 30 29  2  0
 31 32  1  0
 33 31  2  0
M  END
$$$$
