PWF.pdb
     RDKit          3D

 33 36  0  0  1  0  0  0  0  0999 V2000
    8.6632  -19.0202   21.3150 N   0  0  0  0  0  0  0  0  0  0  0  0
    8.5197  -20.0981   20.3562 C   0  0  0  0  0  0  0  0  0  0  0  0
    9.0745  -19.5340   19.0689 C   0  0  0  0  0  0  0  0  0  0  0  0
    9.6881  -18.1820   19.4577 C   0  0  0  0  0  0  0  0  0  0  0  0
    9.9012  -18.4198   20.9393 C   0  0  1  0  0  0  0  0  0  0  0  0
   10.1644  -17.1324   21.6274 C   0  0  0  0  0  0  0  0  0  0  0  0
   11.2341  -16.5143   21.3982 O   0  0  0  0  0  0  0  0  0  0  0  0
    9.2535  -16.5591   22.5445 N   0  0  0  0  0  0  0  0  0  0  0  0
    9.4395  -15.2949   23.2329 C   0  0  1  0  0  0  0  0  0  0  0  0
    8.1516  -14.5333   23.0195 C   0  0  0  0  0  0  0  0  0  0  0  0
    7.6370  -14.5569   21.6508 C   0  0  0  0  0  0  0  0  0  0  0  0
    6.6503  -15.4411   21.2126 C   0  0  0  0  0  0  0  0  0  0  0  0
    6.3531  -15.2138   19.9279 N   0  0  0  0  0  0  0  0  0  0  0  0
    7.1432  -14.1809   19.5177 C   0  0  0  0  0  0  0  0  0  0  0  0
    7.2132  -13.5837   18.2779 C   0  0  0  0  0  0  0  0  0  0  0  0
    8.1191  -12.5526   18.1389 C   0  0  0  0  0  0  0  0  0  0  0  0
    8.9188  -12.1254   19.1628 C   0  0  0  0  0  0  0  0  0  0  0  0
    8.8398  -12.7278   20.3927 C   0  0  0  0  0  0  0  0  0  0  0  0
    7.9473  -13.7664   20.5873 C   0  0  0  0  0  0  0  0  0  0  0  0
    9.8875  -15.3918   24.6052 C   0  0  0  0  0  0  0  0  0  0  0  0
   10.7222  -14.5308   25.0469 O   0  0  0  0  0  0  0  0  0  0  0  0
    9.4591  -16.3846   25.5201 N   0  0  0  0  0  0  0  0  0  0  0  0
    9.8574  -16.3800   26.9277 C   0  0  1  0  0  0  0  0  0  0  0  0
    8.5592  -16.1121   27.6874 C   0  0  0  0  0  0  0  0  0  0  0  0
    7.9622  -14.8029   27.3919 C   0  0  0  0  0  0  0  0  0  0  0  0
    8.6118  -13.6681   27.8252 C   0  0  0  0  0  0  0  0  0  0  0  0
    8.0727  -12.4057   27.5530 C   0  0  0  0  0  0  0  0  0  0  0  0
    6.9025  -12.2737   26.8584 C   0  0  0  0  0  0  0  0  0  0  0  0
    6.2470  -13.3995   26.4217 C   0  0  0  0  0  0  0  0  0  0  0  0
    6.7908  -14.6507   26.6973 C   0  0  0  0  0  0  0  0  0  0  0  0
   10.3662  -17.6894   27.3856 C   0  0  0  0  0  0  0  0  0  0  0  0
   10.3328  -18.7518   26.4755 O   0  0  0  0  0  0  0  0  0  0  0  0
   10.8186  -17.8896   28.5345 O   0  0  0  0  0  0  0  0  0  0  0  0
  1  5  1  0
  1  2  1  0
  2  3  1  0
  3  4  1  0
  5  4  1  0
  6  7  2  0
  5  6  1  1
  8  6  1  0
  9  8  1  0
  9 10  1  1
 11 10  1  0
 12 11  2  0
 13 12  1  0
 14 13  1  0
 14 19  2  0
 15 14  1  0
 16 15  2  0
 16 17  1  0
 17 18  2  0
 18 19  1  0
 19 11  1  0
 20 22  1  0
 20  9  1  0
 21 20  2  0
 23 22  1  0
 23 31  1  0
 23 24  1  1
 24 25  1  0
 25 26  2  0
 25 30  1  0
 26 27  1  0
 27 28  2  0
 29 28  1  0
 30 29  2  0
 31 32  1  0
 33 31  2  0
M  END
$$$$
