PWF.pdb
     RDKit          3D

 33 36  0  0  1  0  0  0  0  0999 V2000
    8.6389  -18.1458   18.5004 N   0  0  0  0  0  0  0  0  0  0  0  0
    8.5949  -18.4452   17.0826 C   0  0  0  0  0  0  0  0  0  0  0  0
    8.7801  -17.1057   16.4084 C   0  0  0  0  0  0  0  0  0  0  0  0
    9.1154  -16.1302   17.5449 C   0  0  0  0  0  0  0  0  0  0  0  0
    9.6214  -17.1149   18.5799 C   0  0  1  0  0  0  0  0  0  0  0  0
    9.6860  -16.4639   19.9111 C   0  0  0  0  0  0  0  0  0  0  0  0
   10.6027  -15.6398   20.1545 O   0  0  0  0  0  0  0  0  0  0  0  0
    8.7493  -16.7320   20.9360 N   0  0  0  0  0  0  0  0  0  0  0  0
    8.7410  -16.1121   22.2484 C   0  0  1  0  0  0  0  0  0  0  0  0
    7.5132  -16.6603   22.9386 C   0  0  0  0  0  0  0  0  0  0  0  0
    6.9811  -15.8241   24.0138 C   0  0  0  0  0  0  0  0  0  0  0  0
    6.3071  -16.3324   25.1251 C   0  0  0  0  0  0  0  0  0  0  0  0
    5.9641  -15.3438   25.9589 N   0  0  0  0  0  0  0  0  0  0  0  0
    6.4105  -14.1834   25.3988 C   0  0  0  0  0  0  0  0  0  0  0  0
    6.2959  -12.8939   25.8706 C   0  0  0  0  0  0  0  0  0  0  0  0
    6.8386  -11.8980   25.0854 C   0  0  0  0  0  0  0  0  0  0  0  0
    7.4635  -12.1500   23.8953 C   0  0  0  0  0  0  0  0  0  0  0  0
    7.5715  -13.4382   23.4360 C   0  0  0  0  0  0  0  0  0  0  0  0
    7.0456  -14.4754   24.1847 C   0  0  0  0  0  0  0  0  0  0  0  0
    9.9758  -16.2158   22.9953 C   0  0  0  0  0  0  0  0  0  0  0  0
   10.6261  -17.3155   22.9681 O   0  0  0  0  0  0  0  0  0  0  0  0
   10.5362  -15.1684   23.7667 N   0  0  0  0  0  0  0  0  0  0  0  0
   11.0061  -15.3673   25.1377 C   0  0  1  0  0  0  0  0  0  0  0  0
    9.8970  -14.7775   26.0072 C   0  0  0  0  0  0  0  0  0  0  0  0
   10.1543  -14.8912   27.4490 C   0  0  0  0  0  0  0  0  0  0  0  0
   10.5685  -13.7716   28.1361 C   0  0  0  0  0  0  0  0  0  0  0  0
   10.8144  -13.8454   29.5117 C   0  0  0  0  0  0  0  0  0  0  0  0
   10.6505  -15.0180   30.1953 C   0  0  0  0  0  0  0  0  0  0  0  0
   10.2375  -16.1405   29.5191 C   0  0  0  0  0  0  0  0  0  0  0  0
    9.9953  -16.0573   28.1510 C   0  0  0  0  0  0  0  0  0  0  0  0
   11.1310  -16.7939   25.5015 C   0  0  0  0  0  0  0  0  0  0  0  0
   10.0472  -17.6322   25.2174 O   0  0  0  0  0  0  0  0  0  0  0  0
   12.1470  -17.2802   26.0455 O   0  0  0  0  0  0  0  0  0  0  0  0
  1  5  1  0
  1  2  1  0
  2  3  1  0
  3  4  1  0
  5  4  1  0
  6  7  2  0
  5  6  1  1
  8  6  1  0
  9  8  1  0
  9 10  1  1
 11 10  1  0
 12 11  2  0
 13 12  1  0
 14 13  1  0
 14 19  2  0
 15 14  1  0
 16 15  2  0
 16 17  1  0
 17 18  2  0
 18 19  1  0
 19 11  1  0
 20 22  1  0
 20  9  1  0
 21 20  2  0
 23 22  1  0
 23 31  1  0
 23 24  1  1
 24 25  1  0
 25 26  2  0
 25 30  1  0
 26 27  1  0
 27 28  2  0
 29 28  1  0
 30 29  2  0
 31 32  1  0
 33 31  2  0
M  END
$$$$
