PWF.pdb
     RDKit          3D

 33 36  0  0  1  0  0  0  0  0999 V2000
    9.3287  -19.1050   19.1175 N   0  0  0  0  0  0  0  0  0  0  0  0
    9.2742  -20.4903   18.6936 C   0  0  0  0  0  0  0  0  0  0  0  0
    9.9372  -21.2544   19.8160 C   0  0  0  0  0  0  0  0  0  0  0  0
   10.1617  -20.2181   20.9256 C   0  0  0  0  0  0  0  0  0  0  0  0
    9.1202  -19.1924   20.5258 C   0  0  1  0  0  0  0  0  0  0  0  0
    9.3661  -17.9148   21.2381 C   0  0  0  0  0  0  0  0  0  0  0  0
   10.3709  -17.2219   20.9396 O   0  0  0  0  0  0  0  0  0  0  0  0
    8.5092  -17.4325   22.2543 N   0  0  0  0  0  0  0  0  0  0  0  0
    8.7580  -16.2626   23.0766 C   0  0  1  0  0  0  0  0  0  0  0  0
    7.4106  -15.5974   23.2387 C   0  0  0  0  0  0  0  0  0  0  0  0
    7.4565  -14.2007   23.6696 C   0  0  0  0  0  0  0  0  0  0  0  0
    8.0080  -13.1741   22.9018 C   0  0  0  0  0  0  0  0  0  0  0  0
    7.8822  -11.9990   23.5292 N   0  0  0  0  0  0  0  0  0  0  0  0
    7.2488  -12.2491   24.7105 C   0  0  0  0  0  0  0  0  0  0  0  0
    6.8969  -11.3663   25.7083 C   0  0  0  0  0  0  0  0  0  0  0  0
    6.2650  -11.9009   26.8119 C   0  0  0  0  0  0  0  0  0  0  0  0
    5.9903  -13.2350   26.9350 C   0  0  0  0  0  0  0  0  0  0  0  0
    6.3455  -14.1040   25.9348 C   0  0  0  0  0  0  0  0  0  0  0  0
    6.9807  -13.6208   24.8051 C   0  0  0  0  0  0  0  0  0  0  0  0
    9.4861  -16.5053   24.3031 C   0  0  0  0  0  0  0  0  0  0  0  0
    8.9137  -16.2687   25.4209 O   0  0  0  0  0  0  0  0  0  0  0  0
   10.8113  -17.0017   24.3637 N   0  0  0  0  0  0  0  0  0  0  0  0
   11.9184  -16.2202   24.9145 C   0  0  1  0  0  0  0  0  0  0  0  0
   11.9620  -16.6134   26.3901 C   0  0  0  0  0  0  0  0  0  0  0  0
   11.0855  -15.8003   27.2435 C   0  0  0  0  0  0  0  0  0  0  0  0
   10.5248  -16.3825   28.3588 C   0  0  0  0  0  0  0  0  0  0  0  0
    9.6915  -15.6324   29.1962 C   0  0  0  0  0  0  0  0  0  0  0  0
    9.4193  -14.3198   28.9276 C   0  0  0  0  0  0  0  0  0  0  0  0
    9.9737  -13.7297   27.8176 C   0  0  0  0  0  0  0  0  0  0  0  0
   10.8014  -14.4838   26.9907 C   0  0  0  0  0  0  0  0  0  0  0  0
   13.2256  -16.5834   24.3294 C   0  0  0  0  0  0  0  0  0  0  0  0
   13.2459  -17.6031   23.3714 O   0  0  0  0  0  0  0  0  0  0  0  0
   14.3011  -16.0294   24.6476 O   0  0  0  0  0  0  0  0  0  0  0  0
  1  5  1  0
  1  2  1  0
  2  3  1  0
  3  4  1  0
  5  4  1  0
  6  7  2  0
  5  6  1  1
  8  6  1  0
  9  8  1  0
  9 10  1  1
 11 10  1  0
 12 11  2  0
 13 12  1  0
 14 13  1  0
 14 19  2  0
 15 14  1  0
 16 15  2  0
 16 17  1  0
 17 18  2  0
 18 19  1  0
 19 11  1  0
 20 22  1  0
 20  9  1  0
 21 20  2  0
 23 22  1  0
 23 31  1  0
 23 24  1  1
 24 25  1  0
 25 26  2  0
 25 30  1  0
 26 27  1  0
 27 28  2  0
 29 28  1  0
 30 29  2  0
 31 32  1  0
 33 31  2  0
M  END
$$$$
