PWF.pdb
     RDKit          3D

 33 36  0  0  1  0  0  0  0  0999 V2000
    8.3081  -15.3671   18.3207 N   0  0  0  0  0  0  0  0  0  0  0  0
    8.1004  -14.9117   16.9601 C   0  0  0  0  0  0  0  0  0  0  0  0
    8.1018  -13.4043   17.0628 C   0  0  0  0  0  0  0  0  0  0  0  0
    8.5137  -13.1035   18.5103 C   0  0  0  0  0  0  0  0  0  0  0  0
    9.2181  -14.4027   18.8460 C   0  0  1  0  0  0  0  0  0  0  0  0
    9.4103  -14.5117   20.3128 C   0  0  0  0  0  0  0  0  0  0  0  0
   10.2227  -13.7465   20.8902 O   0  0  0  0  0  0  0  0  0  0  0  0
    8.7113  -15.4520   21.1045 N   0  0  0  0  0  0  0  0  0  0  0  0
    8.6533  -15.4498   22.5548 C   0  0  1  0  0  0  0  0  0  0  0  0
    7.1981  -15.6765   22.8943 C   0  0  0  0  0  0  0  0  0  0  0  0
    6.7714  -15.1375   24.1850 C   0  0  0  0  0  0  0  0  0  0  0  0
    6.3559  -15.9327   25.2539 C   0  0  0  0  0  0  0  0  0  0  0  0
    6.0568  -15.1743   26.3149 N   0  0  0  0  0  0  0  0  0  0  0  0
    6.2738  -13.8793   25.9470 C   0  0  0  0  0  0  0  0  0  0  0  0
    6.1042  -12.7290   26.6864 C   0  0  0  0  0  0  0  0  0  0  0  0
    6.3945  -11.5386   26.0528 C   0  0  0  0  0  0  0  0  0  0  0  0
    6.8298  -11.4751   24.7578 C   0  0  0  0  0  0  0  0  0  0  0  0
    6.9950  -12.6273   24.0319 C   0  0  0  0  0  0  0  0  0  0  0  0
    6.7192  -13.8487   24.6192 C   0  0  0  0  0  0  0  0  0  0  0  0
    9.5932  -16.3272   23.2182 C   0  0  0  0  0  0  0  0  0  0  0  0
    9.7540  -17.5140   22.7725 O   0  0  0  0  0  0  0  0  0  0  0  0
   10.3714  -15.9637   24.3445 N   0  0  0  0  0  0  0  0  0  0  0  0
   11.3426  -16.8719   24.9544 C   0  0  1  0  0  0  0  0  0  0  0  0
   12.1076  -15.9973   25.9463 C   0  0  0  0  0  0  0  0  0  0  0  0
   11.2522  -15.3728   26.9641 C   0  0  0  0  0  0  0  0  0  0  0  0
   11.1366  -15.9825   28.1939 C   0  0  0  0  0  0  0  0  0  0  0  0
   10.3355  -15.4086   29.1874 C   0  0  0  0  0  0  0  0  0  0  0  0
    9.6579  -14.2430   28.9606 C   0  0  0  0  0  0  0  0  0  0  0  0
    9.7666  -13.6269   27.7373 C   0  0  0  0  0  0  0  0  0  0  0  0
   10.5658  -14.2052   26.7555 C   0  0  0  0  0  0  0  0  0  0  0  0
   10.7070  -17.9559   25.7315 C   0  0  0  0  0  0  0  0  0  0  0  0
   11.5460  -18.9067   26.3233 O   0  0  0  0  0  0  0  0  0  0  0  0
    9.4698  -18.0622   25.8820 O   0  0  0  0  0  0  0  0  0  0  0  0
  1  5  1  0
  1  2  1  0
  2  3  1  0
  3  4  1  0
  5  4  1  0
  6  7  2  0
  5  6  1  1
  8  6  1  0
  9  8  1  0
  9 10  1  6
 11 10  1  0
 12 11  2  0
 13 12  1  0
 14 13  1  0
 14 19  2  0
 15 14  1  0
 16 15  2  0
 16 17  1  0
 17 18  2  0
 18 19  1  0
 19 11  1  0
 20 22  1  0
 20  9  1  0
 21 20  2  0
 23 22  1  0
 23 31  1  0
 23 24  1  1
 24 25  1  0
 25 26  2  0
 25 30  1  0
 26 27  1  0
 27 28  2  0
 29 28  1  0
 30 29  2  0
 31 32  1  0
 33 31  2  0
M  END
$$$$
