PWF.pdb
     RDKit          3D

 33 36  0  0  1  0  0  0  0  0999 V2000
    9.6425  -18.6032   19.6994 N   0  0  0  0  0  0  0  0  0  0  0  0
    9.6335  -19.1708   18.3654 C   0  0  0  0  0  0  0  0  0  0  0  0
    9.4354  -17.9836   17.4519 C   0  0  0  0  0  0  0  0  0  0  0  0
    9.5370  -16.7553   18.3666 C   0  0  0  0  0  0  0  0  0  0  0  0
   10.3190  -17.3612   19.5147 C   0  0  1  0  0  0  0  0  0  0  0  0
   10.2520  -16.4719   20.6999 C   0  0  0  0  0  0  0  0  0  0  0  0
   11.0175  -15.4782   20.7735 O   0  0  0  0  0  0  0  0  0  0  0  0
    9.3526  -16.6937   21.7684 N   0  0  0  0  0  0  0  0  0  0  0  0
    9.0666  -15.7507   22.8341 C   0  0  1  0  0  0  0  0  0  0  0  0
    7.5786  -15.8620   23.0739 C   0  0  0  0  0  0  0  0  0  0  0  0
    7.0757  -15.0985   24.2153 C   0  0  0  0  0  0  0  0  0  0  0  0
    6.5529  -15.6872   25.3675 C   0  0  0  0  0  0  0  0  0  0  0  0
    6.2024  -14.7502   26.2559 N   0  0  0  0  0  0  0  0  0  0  0  0
    6.4927  -13.5436   25.6910 C   0  0  0  0  0  0  0  0  0  0  0  0
    6.3095  -12.2791   26.2072 C   0  0  0  0  0  0  0  0  0  0  0  0
    6.6891  -11.2231   25.4049 C   0  0  0  0  0  0  0  0  0  0  0  0
    7.2224  -11.3943   24.1573 C   0  0  0  0  0  0  0  0  0  0  0  0
    7.4002  -12.6582   23.6543 C   0  0  0  0  0  0  0  0  0  0  0  0
    7.0374  -13.7531   24.4175 C   0  0  0  0  0  0  0  0  0  0  0  0
    9.8993  -15.8681   24.0114 C   0  0  0  0  0  0  0  0  0  0  0  0
   10.2967  -14.8047   24.5981 O   0  0  0  0  0  0  0  0  0  0  0  0
   10.3129  -17.0971   24.5812 N   0  0  0  0  0  0  0  0  0  0  0  0
   11.3999  -17.1845   25.5563 C   0  0  1  0  0  0  0  0  0  0  0  0
   10.6907  -17.3280   26.9019 C   0  0  0  0  0  0  0  0  0  0  0  0
   10.3035  -16.0455   27.5044 C   0  0  0  0  0  0  0  0  0  0  0  0
   11.2928  -15.1454   27.8337 C   0  0  0  0  0  0  0  0  0  0  0  0
   10.9561  -13.9118   28.4022 C   0  0  0  0  0  0  0  0  0  0  0  0
    9.6519  -13.5777   28.6401 C   0  0  0  0  0  0  0  0  0  0  0  0
    8.6577  -14.4686   28.3151 C   0  0  0  0  0  0  0  0  0  0  0  0
    9.0023  -15.6930   27.7501 C   0  0  0  0  0  0  0  0  0  0  0  0
   12.2383  -18.3878   25.3767 C   0  0  0  0  0  0  0  0  0  0  0  0
   11.9310  -19.2380   24.3087 O   0  0  0  0  0  0  0  0  0  0  0  0
   13.1967  -18.6783   26.1262 O   0  0  0  0  0  0  0  0  0  0  0  0
  1  5  1  0
  1  2  1  0
  2  3  1  0
  3  4  1  0
  5  4  1  0
  6  7  2  0
  5  6  1  1
  8  6  1  0
  9  8  1  0
  9 10  1  1
 11 10  1  0
 12 11  2  0
 13 12  1  0
 14 13  1  0
 14 19  2  0
 15 14  1  0
 16 15  2  0
 16 17  1  0
 17 18  2  0
 18 19  1  0
 19 11  1  0
 20 22  1  0
 20  9  1  0
 21 20  2  0
 23 22  1  0
 23 31  1  0
 23 24  1  1
 24 25  1  0
 25 26  2  0
 25 30  1  0
 26 27  1  0
 27 28  2  0
 29 28  1  0
 30 29  2  0
 31 32  1  0
 33 31  2  0
M  END
$$$$
