PWF.pdb
     RDKit          3D

 33 36  0  0  1  0  0  0  0  0999 V2000
    9.1057  -18.7167   18.9273 N   0  0  0  0  0  0  0  0  0  0  0  0
    9.1649  -19.1024   17.5311 C   0  0  0  0  0  0  0  0  0  0  0  0
    9.8979  -17.9662   16.8568 C   0  0  0  0  0  0  0  0  0  0  0  0
   10.3836  -17.0688   18.0033 C   0  0  0  0  0  0  0  0  0  0  0  0
   10.3624  -18.0753   19.1362 C   0  0  1  0  0  0  0  0  0  0  0  0
   10.4566  -17.3743   20.4400 C   0  0  0  0  0  0  0  0  0  0  0  0
   11.5601  -16.9023   20.8118 O   0  0  0  0  0  0  0  0  0  0  0  0
    9.3448  -17.2100   21.2982 N   0  0  0  0  0  0  0  0  0  0  0  0
    9.3160  -16.3722   22.4832 C   0  0  1  0  0  0  0  0  0  0  0  0
    7.9669  -15.6913   22.4552 C   0  0  0  0  0  0  0  0  0  0  0  0
    7.8318  -14.5461   23.3545 C   0  0  0  0  0  0  0  0  0  0  0  0
    8.3331  -13.2759   23.0671 C   0  0  0  0  0  0  0  0  0  0  0  0
    8.0350  -12.4197   24.0511 N   0  0  0  0  0  0  0  0  0  0  0  0
    7.3380  -13.1237   24.9881 C   0  0  0  0  0  0  0  0  0  0  0  0
    6.8164  -12.6889   26.1871 C   0  0  0  0  0  0  0  0  0  0  0  0
    6.1570  -13.6291   26.9514 C   0  0  0  0  0  0  0  0  0  0  0  0
    6.0142  -14.9325   26.5627 C   0  0  0  0  0  0  0  0  0  0  0  0
    6.5377  -15.3535   25.3667 C   0  0  0  0  0  0  0  0  0  0  0  0
    7.2079  -14.4514   24.5604 C   0  0  0  0  0  0  0  0  0  0  0  0
    9.6556  -17.0345   23.7239 C   0  0  0  0  0  0  0  0  0  0  0  0
    9.1716  -18.1933   23.9606 O   0  0  0  0  0  0  0  0  0  0  0  0
   10.5065  -16.4896   24.7165 N   0  0  0  0  0  0  0  0  0  0  0  0
   11.1666  -17.3174   25.7259 C   0  0  1  0  0  0  0  0  0  0  0  0
   11.9582  -16.3224   26.5729 C   0  0  0  0  0  0  0  0  0  0  0  0
   11.1138  -15.4342   27.3828 C   0  0  0  0  0  0  0  0  0  0  0  0
   10.7100  -14.2333   26.8423 C   0  0  0  0  0  0  0  0  0  0  0  0
    9.8988  -13.3685   27.5856 C   0  0  0  0  0  0  0  0  0  0  0  0
    9.4943  -13.6941   28.8503 C   0  0  0  0  0  0  0  0  0  0  0  0
    9.8915  -14.8898   29.3983 C   0  0  0  0  0  0  0  0  0  0  0  0
   10.6982  -15.7434   28.6514 C   0  0  0  0  0  0  0  0  0  0  0  0
   10.2123  -17.9936   26.6288 C   0  0  0  0  0  0  0  0  0  0  0  0
    8.8470  -17.8207   26.3756 O   0  0  0  0  0  0  0  0  0  0  0  0
   10.5640  -18.7032   27.5971 O   0  0  0  0  0  0  0  0  0  0  0  0
  1  5  1  0
  1  2  1  0
  2  3  1  0
  3  4  1  0
  5  4  1  0
  6  7  2  0
  5  6  1  1
  8  6  1  0
  9  8  1  0
  9 10  1  1
 11 10  1  0
 12 11  2  0
 13 12  1  0
 14 13  1  0
 14 19  2  0
 15 14  1  0
 16 15  2  0
 16 17  1  0
 17 18  2  0
 18 19  1  0
 19 11  1  0
 20 22  1  0
 20  9  1  0
 21 20  2  0
 23 22  1  0
 23 31  1  0
 23 24  1  1
 24 25  1  0
 25 26  2  0
 25 30  1  0
 26 27  1  0
 27 28  2  0
 29 28  1  0
 30 29  2  0
 31 32  1  0
 33 31  2  0
M  END
$$$$
