PWF.pdb
     RDKit          3D

 33 36  0  0  1  0  0  0  0  0999 V2000
    8.1894  -15.4797   18.7783 N   0  0  0  0  0  0  0  0  0  0  0  0
    7.9940  -15.0129   17.4198 C   0  0  0  0  0  0  0  0  0  0  0  0
    8.0974  -13.5087   17.5195 C   0  0  0  0  0  0  0  0  0  0  0  0
    8.5481  -13.2346   18.9608 C   0  0  0  0  0  0  0  0  0  0  0  0
    9.1689  -14.5776   19.2894 C   0  0  1  0  0  0  0  0  0  0  0  0
    9.3733  -14.6978   20.7537 C   0  0  0  0  0  0  0  0  0  0  0  0
   10.2383  -13.9834   21.3196 O   0  0  0  0  0  0  0  0  0  0  0  0
    8.6287  -15.5935   21.5555 N   0  0  0  0  0  0  0  0  0  0  0  0
    8.6927  -15.6756   23.0032 C   0  0  1  0  0  0  0  0  0  0  0  0
    7.3280  -16.1617   23.4340 C   0  0  0  0  0  0  0  0  0  0  0  0
    6.6878  -15.3650   24.4799 C   0  0  0  0  0  0  0  0  0  0  0  0
    5.9030  -15.9127   25.4956 C   0  0  0  0  0  0  0  0  0  0  0  0
    5.4758  -14.9553   26.3270 N   0  0  0  0  0  0  0  0  0  0  0  0
    5.9774  -13.7762   25.8607 C   0  0  0  0  0  0  0  0  0  0  0  0
    5.8147  -12.5052   26.3674 C   0  0  0  0  0  0  0  0  0  0  0  0
    6.4353  -11.4821   25.6809 C   0  0  0  0  0  0  0  0  0  0  0  0
    7.1795  -11.6910   24.5527 C   0  0  0  0  0  0  0  0  0  0  0  0
    7.3343  -12.9611   24.0579 C   0  0  0  0  0  0  0  0  0  0  0  0
    6.7342  -14.0241   24.7082 C   0  0  0  0  0  0  0  0  0  0  0  0
    9.8160  -16.4147   23.5372 C   0  0  0  0  0  0  0  0  0  0  0  0
   10.1364  -17.5291   23.0000 O   0  0  0  0  0  0  0  0  0  0  0  0
   10.6102  -15.9875   24.6294 N   0  0  0  0  0  0  0  0  0  0  0  0
   11.7959  -16.7208   25.0727 C   0  0  1  0  0  0  0  0  0  0  0  0
   12.4648  -15.7860   26.0791 C   0  0  0  0  0  0  0  0  0  0  0  0
   11.5843  -15.3799   27.1825 C   0  0  0  0  0  0  0  0  0  0  0  0
   10.8082  -14.2525   27.0272 C   0  0  0  0  0  0  0  0  0  0  0  0
    9.9533  -13.8437   28.0569 C   0  0  0  0  0  0  0  0  0  0  0  0
    9.8714  -14.5472   29.2263 C   0  0  0  0  0  0  0  0  0  0  0  0
   10.6413  -15.6732   29.3910 C   0  0  0  0  0  0  0  0  0  0  0  0
   11.4885  -16.0721   28.3613 C   0  0  0  0  0  0  0  0  0  0  0  0
   11.4650  -17.9683   25.7920 C   0  0  0  0  0  0  0  0  0  0  0  0
   10.1129  -18.2419   26.0263 O   0  0  0  0  0  0  0  0  0  0  0  0
   12.3265  -18.7798   26.1968 O   0  0  0  0  0  0  0  0  0  0  0  0
  1  5  1  0
  1  2  1  0
  2  3  1  0
  3  4  1  0
  5  4  1  0
  6  7  2  0
  5  6  1  1
  8  6  1  0
  9  8  1  0
  9 10  1  6
 11 10  1  0
 12 11  2  0
 13 12  1  0
 14 13  1  0
 14 19  2  0
 15 14  1  0
 16 15  2  0
 16 17  1  0
 17 18  2  0
 18 19  1  0
 19 11  1  0
 20 22  1  0
 20  9  1  0
 21 20  2  0
 23 22  1  0
 23 31  1  0
 23 24  1  1
 24 25  1  0
 25 26  2  0
 25 30  1  0
 26 27  1  0
 27 28  2  0
 29 28  1  0
 30 29  2  0
 31 32  1  0
 33 31  2  0
M  END
$$$$
