PWF.pdb
     RDKit          3D

 33 36  0  0  1  0  0  0  0  0999 V2000
    7.4783  -15.5329   19.3485 N   0  0  0  0  0  0  0  0  0  0  0  0
    7.0623  -15.1120   18.0250 C   0  0  0  0  0  0  0  0  0  0  0  0
    7.3807  -13.6356   17.9814 C   0  0  0  0  0  0  0  0  0  0  0  0
    8.1586  -13.3570   19.2749 C   0  0  0  0  0  0  0  0  0  0  0  0
    8.6534  -14.7574   19.5768 C   0  0  1  0  0  0  0  0  0  0  0  0
    9.1459  -14.8315   20.9740 C   0  0  0  0  0  0  0  0  0  0  0  0
   10.1611  -14.1714   21.3094 O   0  0  0  0  0  0  0  0  0  0  0  0
    8.5168  -15.6235   21.9621 N   0  0  0  0  0  0  0  0  0  0  0  0
    8.8288  -15.6015   23.3795 C   0  0  1  0  0  0  0  0  0  0  0  0
    7.5988  -16.1500   24.0654 C   0  0  0  0  0  0  0  0  0  0  0  0
    6.7409  -15.1469   24.6949 C   0  0  0  0  0  0  0  0  0  0  0  0
    5.5763  -15.4590   25.3977 C   0  0  0  0  0  0  0  0  0  0  0  0
    5.0141  -14.3497   25.8912 N   0  0  0  0  0  0  0  0  0  0  0  0
    5.8061  -13.3056   25.5142 C   0  0  0  0  0  0  0  0  0  0  0  0
    5.6476  -11.9613   25.7720 C   0  0  0  0  0  0  0  0  0  0  0  0
    6.6071  -11.1156   25.2552 C   0  0  0  0  0  0  0  0  0  0  0  0
    7.6710  -11.5622   24.5211 C   0  0  0  0  0  0  0  0  0  0  0  0
    7.8181  -12.9030   24.2712 C   0  0  0  0  0  0  0  0  0  0  0  0
    6.8850  -13.7955   24.7670 C   0  0  0  0  0  0  0  0  0  0  0  0
   10.0811  -16.2229   23.7524 C   0  0  0  0  0  0  0  0  0  0  0  0
   10.5540  -17.1546   23.0165 O   0  0  0  0  0  0  0  0  0  0  0  0
   10.8444  -15.8675   24.8913 N   0  0  0  0  0  0  0  0  0  0  0  0
   12.1285  -16.4949   25.2034 C   0  0  1  0  0  0  0  0  0  0  0  0
   12.6659  -15.6896   26.3852 C   0  0  0  0  0  0  0  0  0  0  0  0
   11.7369  -15.6167   27.5207 C   0  0  0  0  0  0  0  0  0  0  0  0
   10.7910  -14.6155   27.5366 C   0  0  0  0  0  0  0  0  0  0  0  0
    9.8864  -14.5237   28.6004 C   0  0  0  0  0  0  0  0  0  0  0  0
    9.9222  -15.4165   29.6352 C   0  0  0  0  0  0  0  0  0  0  0  0
   10.8618  -16.4189   29.6286 C   0  0  0  0  0  0  0  0  0  0  0  0
   11.7572  -16.5022   28.5663 C   0  0  0  0  0  0  0  0  0  0  0  0
   11.9895  -17.8937   25.6584 C   0  0  0  0  0  0  0  0  0  0  0  0
   13.1632  -18.6121   25.9124 O   0  0  0  0  0  0  0  0  0  0  0  0
   10.8857  -18.4585   25.8236 O   0  0  0  0  0  0  0  0  0  0  0  0
  1  5  1  0
  1  2  1  0
  2  3  1  0
  3  4  1  0
  5  4  1  0
  6  7  2  0
  5  6  1  1
  8  6  1  0
  9  8  1  0
  9 10  1  1
 11 10  1  0
 12 11  2  0
 13 12  1  0
 14 13  1  0
 14 19  2  0
 15 14  1  0
 16 15  2  0
 16 17  1  0
 17 18  2  0
 18 19  1  0
 19 11  1  0
 20 22  1  0
 20  9  1  0
 21 20  2  0
 23 22  1  0
 23 31  1  0
 23 24  1  1
 24 25  1  0
 25 26  2  0
 25 30  1  0
 26 27  1  0
 27 28  2  0
 29 28  1  0
 30 29  2  0
 31 32  1  0
 33 31  2  0
M  END
$$$$
