TGR.pdb
     RDKit          3D

 23 22  0  0  1  0  0  0  0  0999 V2000
    8.5241  -21.3511   18.7511 C   0  0  0  0  0  0  0  0  0  0  0  0
    8.8168  -19.8613   18.7893 C   0  0  1  0  0  0  0  0  0  0  0  0
    7.7843  -19.2129   18.1439 O   0  0  0  0  0  0  0  0  0  0  0  0
    8.9891  -19.4248   20.2303 C   0  0  2  0  0  0  0  0  0  0  0  0
    7.7800  -19.6201   20.9763 N   0  0  0  0  0  0  0  0  0  0  0  0
    9.5401  -18.0670   20.3596 C   0  0  0  0  0  0  0  0  0  0  0  0
    8.7726  -17.0420   20.3433 O   0  0  0  0  0  0  0  0  0  0  0  0
   10.9404  -17.8624   20.5058 N   0  0  0  0  0  0  0  0  0  0  0  0
   11.5250  -16.5542   20.6715 C   0  0  0  0  0  0  0  0  0  0  0  0
   11.2526  -16.0348   22.0206 C   0  0  0  0  0  0  0  0  0  0  0  0
   11.8211  -14.9587   22.4003 O   0  0  0  0  0  0  0  0  0  0  0  0
    7.9289  -11.4261   25.7266 N   0  0  0  0  0  0  0  0  0  0  0  0
    7.0017  -12.1088   26.5788 C   0  0  0  0  0  0  0  0  0  0  0  0
    6.7226  -11.6014   27.7268 N   0  0  0  0  0  0  0  0  0  0  0  0
    6.3859  -13.3237   26.1894 N   0  0  0  0  0  0  0  0  0  0  0  0
    6.7677  -14.0530   25.0038 C   0  0  0  0  0  0  0  0  0  0  0  0
    8.1526  -14.6369   25.2843 C   0  0  0  0  0  0  0  0  0  0  0  0
    8.6050  -15.4163   24.0825 C   0  0  0  0  0  0  0  0  0  0  0  0
    9.9829  -15.9626   24.1972 C   0  0  2  0  0  0  0  0  0  0  0  0
   10.3942  -16.6287   22.9603 N   0  0  0  0  0  0  0  0  0  0  0  0
   10.0852  -16.9367   25.2809 C   0  0  0  0  0  0  0  0  0  0  0  0
    9.8153  -16.6092   26.4561 O   0  0  0  0  0  0  0  0  0  0  0  0
   10.4759  -18.2320   25.0349 O   0  0  0  0  0  0  0  0  0  0  0  0
  2  1  1  1
  2  4  1  0
  3  2  1  0
  4  5  1  6
  6  4  1  0
  6  8  1  0
  7  6  2  0
  9  8  1  0
  9 10  1  0
 10 20  1  0
 10 11  2  0
 13 12  1  0
 13 14  2  0
 15 13  1  0
 16 17  1  0
 16 15  1  0
 18 17  1  0
 19 18  1  6
 20 19  1  0
 21 23  1  0
 21 19  1  0
 22 21  2  0
M  END
$$$$
