TGR.pdb
     RDKit          3D

 23 22  0  0  1  0  0  0  0  0999 V2000
    6.6055  -14.0777   16.8158 C   0  0  0  0  0  0  0  0  0  0  0  0
    8.0018  -14.5369   17.1977 C   0  0  1  0  0  0  0  0  0  0  0  0
    8.8612  -14.1546   16.1886 O   0  0  0  0  0  0  0  0  0  0  0  0
    8.3664  -13.9515   18.5473 C   0  0  2  0  0  0  0  0  0  0  0  0
    8.2675  -12.5209   18.5326 N   0  0  0  0  0  0  0  0  0  0  0  0
    9.6561  -14.4407   19.0586 C   0  0  0  0  0  0  0  0  0  0  0  0
    9.8535  -15.6905   19.2559 O   0  0  0  0  0  0  0  0  0  0  0  0
   10.7144  -13.5342   19.3458 N   0  0  0  0  0  0  0  0  0  0  0  0
   12.0577  -13.9702   19.6385 C   0  0  0  0  0  0  0  0  0  0  0  0
   12.1267  -14.5598   20.9845 C   0  0  0  0  0  0  0  0  0  0  0  0
   11.4528  -14.0338   21.9303 O   0  0  0  0  0  0  0  0  0  0  0  0
   12.3662  -19.9405   19.0844 N   0  0  0  0  0  0  0  0  0  0  0  0
   13.1066  -20.8833   19.8686 C   0  0  0  0  0  0  0  0  0  0  0  0
   13.8518  -21.7421   19.2683 N   0  0  0  0  0  0  0  0  0  0  0  0
   13.0395  -20.8924   21.2837 N   0  0  0  0  0  0  0  0  0  0  0  0
   12.2783  -19.9271   22.0400 C   0  0  0  0  0  0  0  0  0  0  0  0
   13.0634  -18.6165   21.9798 C   0  0  0  0  0  0  0  0  0  0  0  0
   12.3313  -17.5734   22.7750 C   0  0  0  0  0  0  0  0  0  0  0  0
   12.9378  -16.2179   22.7014 C   0  0  2  0  0  0  0  0  0  0  0  0
   12.8863  -15.6870   21.3382 N   0  0  0  0  0  0  0  0  0  0  0  0
   14.3375  -16.2334   23.1190 C   0  0  0  0  0  0  0  0  0  0  0  0
   14.6492  -16.5684   24.2816 O   0  0  0  0  0  0  0  0  0  0  0  0
   15.3412  -15.8844   22.2462 O   0  0  0  0  0  0  0  0  0  0  0  0
  2  1  1  6
  2  4  1  0
  3  2  1  0
  4  5  1  6
  6  4  1  0
  6  8  1  0
  7  6  2  0
  9  8  1  0
  9 10  1  0
 10 20  1  0
 10 11  2  0
 13 12  1  0
 13 14  2  0
 15 13  1  0
 16 17  1  0
 16 15  1  0
 18 17  1  0
 19 18  1  6
 20 19  1  0
 21 23  1  0
 21 19  1  0
 22 21  2  0
M  END
$$$$
