TGR.pdb
     RDKit          3D

 23 22  0  0  1  0  0  0  0  0999 V2000
   11.6447  -21.2239   23.8878 C   0  0  0  0  0  0  0  0  0  0  0  0
   12.5225  -21.9339   22.8720 C   0  0  1  0  0  0  0  0  0  0  0  0
   12.8196  -23.1842   23.3737 O   0  0  0  0  0  0  0  0  0  0  0  0
   11.8034  -21.9801   21.5387 C   0  0  2  0  0  0  0  0  0  0  0  0
   11.9801  -23.2525   20.9014 N   0  0  0  0  0  0  0  0  0  0  0  0
   12.1316  -20.8417   20.6668 C   0  0  0  0  0  0  0  0  0  0  0  0
   13.3481  -20.4921   20.4723 O   0  0  0  0  0  0  0  0  0  0  0  0
   11.1027  -20.1025   20.0193 N   0  0  0  0  0  0  0  0  0  0  0  0
   11.3606  -18.8967   19.2710 C   0  0  0  0  0  0  0  0  0  0  0  0
   11.3988  -17.7314   20.1680 C   0  0  0  0  0  0  0  0  0  0  0  0
   11.6793  -16.5843   19.6875 O   0  0  0  0  0  0  0  0  0  0  0  0
    8.1578  -12.3317   20.7864 N   0  0  0  0  0  0  0  0  0  0  0  0
    7.4076  -13.2740   20.0108 C   0  0  0  0  0  0  0  0  0  0  0  0
    7.0653  -12.9598   18.8119 N   0  0  0  0  0  0  0  0  0  0  0  0
    7.0360  -14.5389   20.5291 N   0  0  0  0  0  0  0  0  0  0  0  0
    7.6042  -15.0910   21.7357 C   0  0  0  0  0  0  0  0  0  0  0  0
    9.0645  -15.4122   21.4165 C   0  0  0  0  0  0  0  0  0  0  0  0
    9.6747  -16.1225   22.5911 C   0  0  0  0  0  0  0  0  0  0  0  0
   11.0805  -16.5552   22.3749 C   0  0  2  0  0  0  0  0  0  0  0  0
   11.1431  -17.7619   21.5487 N   0  0  0  0  0  0  0  0  0  0  0  0
   11.7521  -16.8474   23.6388 C   0  0  0  0  0  0  0  0  0  0  0  0
   11.2544  -17.6575   24.4494 O   0  0  0  0  0  0  0  0  0  0  0  0
   12.9440  -16.2435   23.9640 O   0  0  0  0  0  0  0  0  0  0  0  0
  2  1  1  1
  2  4  1  0
  3  2  1  0
  4  5  1  6
  6  4  1  0
  6  8  1  0
  7  6  2  0
  9  8  1  0
  9 10  1  0
 10 20  1  0
 10 11  2  0
 13 12  1  0
 13 14  2  0
 15 13  1  0
 16 17  1  0
 16 15  1  0
 18 17  1  0
 19 18  1  1
 20 19  1  0
 21 23  1  0
 21 19  1  0
 22 21  2  0
M  END
$$$$
