TGR.pdb
     RDKit          3D

 23 22  0  0  1  0  0  0  0  0999 V2000
   12.1927  -20.9210   16.7479 C   0  0  0  0  0  0  0  0  0  0  0  0
   11.6782  -20.3501   18.0578 C   0  0  1  0  0  0  0  0  0  0  0  0
   12.7211  -20.3626   18.9608 O   0  0  0  0  0  0  0  0  0  0  0  0
   11.1180  -18.9638   17.8105 C   0  0  2  0  0  0  0  0  0  0  0  0
   12.1557  -18.0477   17.4355 N   0  0  0  0  0  0  0  0  0  0  0  0
   10.2811  -18.4742   18.9168 C   0  0  0  0  0  0  0  0  0  0  0  0
    9.3096  -19.1769   19.3667 O   0  0  0  0  0  0  0  0  0  0  0  0
   10.5329  -17.2068   19.5122 N   0  0  0  0  0  0  0  0  0  0  0  0
    9.7253  -16.6722   20.5809 C   0  0  0  0  0  0  0  0  0  0  0  0
   10.5037  -16.5957   21.8268 C   0  0  0  0  0  0  0  0  0  0  0  0
   11.3475  -17.5141   22.0916 O   0  0  0  0  0  0  0  0  0  0  0  0
    7.5909  -13.9566   18.6023 N   0  0  0  0  0  0  0  0  0  0  0  0
    8.2137  -13.0414   19.5116 C   0  0  0  0  0  0  0  0  0  0  0  0
    8.7626  -11.9769   19.0438 N   0  0  0  0  0  0  0  0  0  0  0  0
    8.2388  -13.2784   20.9081 N   0  0  0  0  0  0  0  0  0  0  0  0
    7.4709  -14.3237   21.5412 C   0  0  0  0  0  0  0  0  0  0  0  0
    7.7254  -14.1957   23.0434 C   0  0  0  0  0  0  0  0  0  0  0  0
    8.1083  -15.5421   23.5887 C   0  0  0  0  0  0  0  0  0  0  0  0
    9.5428  -15.6600   23.9613 C   0  0  2  0  0  0  0  0  0  0  0  0
   10.4061  -15.5711   22.7825 N   0  0  0  0  0  0  0  0  0  0  0  0
    9.8226  -16.9327   24.6213 C   0  0  0  0  0  0  0  0  0  0  0  0
    9.2017  -17.9667   24.2950 O   0  0  0  0  0  0  0  0  0  0  0  0
   10.7735  -17.0240   25.6105 O   0  0  0  0  0  0  0  0  0  0  0  0
  2  1  1  6
  2  4  1  0
  3  2  1  0
  4  5  1  1
  6  4  1  0
  6  8  1  0
  7  6  2  0
  9  8  1  0
  9 10  1  0
 10 20  1  0
 10 11  2  0
 13 12  1  0
 13 14  2  0
 15 13  1  0
 16 17  1  0
 16 15  1  0
 18 17  1  0
 19 18  1  6
 20 19  1  0
 21 23  1  0
 21 19  1  0
 22 21  2  0
M  END
$$$$
