TGR.pdb
     RDKit          3D

 23 22  0  0  1  0  0  0  0  0999 V2000
   10.0937  -15.4547   17.8464 C   0  0  0  0  0  0  0  0  0  0  0  0
    9.4807  -15.1254   19.1963 C   0  0  1  0  0  0  0  0  0  0  0  0
   10.4776  -14.6054   19.9956 O   0  0  0  0  0  0  0  0  0  0  0  0
    8.3177  -14.1745   18.9961 C   0  0  2  0  0  0  0  0  0  0  0  0
    8.6901  -13.0746   18.1545 N   0  0  0  0  0  0  0  0  0  0  0  0
    7.6918  -13.7550   20.2595 C   0  0  0  0  0  0  0  0  0  0  0  0
    7.8442  -12.5640   20.7048 O   0  0  0  0  0  0  0  0  0  0  0  0
    6.9018  -14.6650   21.0158 N   0  0  0  0  0  0  0  0  0  0  0  0
    6.1471  -14.2643   22.1779 C   0  0  0  0  0  0  0  0  0  0  0  0
    7.0108  -14.2339   23.3683 C   0  0  0  0  0  0  0  0  0  0  0  0
    6.5486  -13.7681   24.4615 O   0  0  0  0  0  0  0  0  0  0  0  0
    9.3943  -20.0458   27.6963 N   0  0  0  0  0  0  0  0  0  0  0  0
    7.9828  -19.8182   27.7853 C   0  0  0  0  0  0  0  0  0  0  0  0
    7.2258  -20.7663   28.2111 N   0  0  0  0  0  0  0  0  0  0  0  0
    7.4024  -18.5790   27.4186 N   0  0  0  0  0  0  0  0  0  0  0  0
    8.1758  -17.4652   26.9241 C   0  0  0  0  0  0  0  0  0  0  0  0
    8.6147  -17.8402   25.5083 C   0  0  0  0  0  0  0  0  0  0  0  0
    8.0621  -16.8299   24.5437 C   0  0  0  0  0  0  0  0  0  0  0  0
    8.8419  -15.5658   24.4765 C   0  0  2  0  0  0  0  0  0  0  0  0
    8.3389  -14.6879   23.4186 N   0  0  0  0  0  0  0  0  0  0  0  0
   10.2547  -15.8208   24.2071 C   0  0  0  0  0  0  0  0  0  0  0  0
   10.9813  -16.3481   25.0761 O   0  0  0  0  0  0  0  0  0  0  0  0
   10.8158  -15.4915   22.9956 O   0  0  0  0  0  0  0  0  0  0  0  0
  2  1  1  6
  2  4  1  0
  3  2  1  0
  4  5  1  1
  6  4  1  0
  6  8  1  0
  7  6  2  0
  9  8  1  0
  9 10  1  0
 10 20  1  0
 10 11  2  0
 13 12  1  0
 13 14  2  0
 15 13  1  0
 16 17  1  0
 16 15  1  0
 18 17  1  0
 19 18  1  6
 20 19  1  0
 21 23  1  0
 21 19  1  0
 22 21  2  0
M  END
$$$$
