TGR.pdb
     RDKit          3D

 23 22  0  0  1  0  0  0  0  0999 V2000
    9.2230  -19.0668   15.2653 C   0  0  0  0  0  0  0  0  0  0  0  0
    9.3339  -19.6534   16.6618 C   0  0  1  0  0  0  0  0  0  0  0  0
    9.3943  -21.0260   16.5380 O   0  0  0  0  0  0  0  0  0  0  0  0
   10.5446  -19.0617   17.3554 C   0  0  2  0  0  0  0  0  0  0  0  0
   11.7579  -19.4556   16.7001 N   0  0  0  0  0  0  0  0  0  0  0  0
   10.5582  -19.3117   18.8050 C   0  0  0  0  0  0  0  0  0  0  0  0
    9.6176  -18.8748   19.5561 O   0  0  0  0  0  0  0  0  0  0  0  0
   11.6189  -20.0457   19.4053 N   0  0  0  0  0  0  0  0  0  0  0  0
   11.6944  -20.2880   20.8252 C   0  0  0  0  0  0  0  0  0  0  0  0
   12.1478  -19.0797   21.5312 C   0  0  0  0  0  0  0  0  0  0  0  0
   13.0446  -18.3466   20.9984 O   0  0  0  0  0  0  0  0  0  0  0  0
    7.2937  -13.4685   19.1312 N   0  0  0  0  0  0  0  0  0  0  0  0
    7.7603  -12.8969   20.3591 C   0  0  0  0  0  0  0  0  0  0  0  0
    7.5331  -11.6529   20.5916 N   0  0  0  0  0  0  0  0  0  0  0  0
    8.4618  -13.6653   21.3205 N   0  0  0  0  0  0  0  0  0  0  0  0
    8.8844  -15.0248   21.0829 C   0  0  0  0  0  0  0  0  0  0  0  0
    9.6181  -15.4750   22.3464 C   0  0  0  0  0  0  0  0  0  0  0  0
   10.0967  -16.8860   22.1548 C   0  0  0  0  0  0  0  0  0  0  0  0
   11.2430  -17.2611   23.0241 C   0  0  2  0  0  0  0  0  0  0  0  0
   11.6683  -18.6395   22.7757 N   0  0  0  0  0  0  0  0  0  0  0  0
   10.9012  -17.1503   24.4399 C   0  0  0  0  0  0  0  0  0  0  0  0
   10.4704  -18.1408   25.0681 O   0  0  0  0  0  0  0  0  0  0  0  0
   11.0474  -15.9603   25.1132 O   0  0  0  0  0  0  0  0  0  0  0  0
  2  1  1  6
  2  4  1  0
  3  2  1  0
  4  5  1  6
  6  4  1  0
  6  8  1  0
  7  6  2  0
  9  8  1  0
  9 10  1  0
 10 20  1  0
 10 11  2  0
 13 12  1  0
 13 14  2  0
 15 13  1  0
 16 17  1  0
 16 15  1  0
 18 17  1  0
 19 18  1  6
 20 19  1  0
 21 23  1  0
 21 19  1  0
 22 21  2  0
M  END
$$$$
