TGR.pdb
     RDKit          3D

 23 22  0  0  1  0  0  0  0  0999 V2000
    8.6160  -13.2497   24.3736 C   0  0  0  0  0  0  0  0  0  0  0  0
    8.7899  -13.5730   22.8999 C   0  0  1  0  0  0  0  0  0  0  0  0
    9.6753  -14.6264   22.8018 O   0  0  0  0  0  0  0  0  0  0  0  0
    7.4341  -13.8732   22.2929 C   0  0  2  0  0  0  0  0  0  0  0  0
    6.7640  -14.9141   23.0170 N   0  0  0  0  0  0  0  0  0  0  0  0
    7.4924  -14.1169   20.8434 C   0  0  0  0  0  0  0  0  0  0  0  0
    7.2333  -15.2744   20.3606 O   0  0  0  0  0  0  0  0  0  0  0  0
    7.8387  -13.0701   19.9443 N   0  0  0  0  0  0  0  0  0  0  0  0
    7.9592  -13.2715   18.5211 C   0  0  0  0  0  0  0  0  0  0  0  0
    9.0721  -14.1860   18.2222 C   0  0  0  0  0  0  0  0  0  0  0  0
    9.3286  -14.4790   17.0082 O   0  0  0  0  0  0  0  0  0  0  0  0
   16.6811  -12.8742   17.5835 N   0  0  0  0  0  0  0  0  0  0  0  0
   16.5943  -13.6278   18.7987 C   0  0  0  0  0  0  0  0  0  0  0  0
   17.4963  -13.4608   19.6997 N   0  0  0  0  0  0  0  0  0  0  0  0
   15.5429  -14.5481   19.0323 N   0  0  0  0  0  0  0  0  0  0  0  0
   14.4575  -14.7529   18.1032 C   0  0  0  0  0  0  0  0  0  0  0  0
   13.1729  -14.7424   18.9323 C   0  0  0  0  0  0  0  0  0  0  0  0
   12.0362  -15.2214   18.0750 C   0  0  0  0  0  0  0  0  0  0  0  0
   10.9030  -15.8047   18.8405 C   0  0  2  0  0  0  0  0  0  0  0  0
    9.9096  -14.7839   19.1780 N   0  0  0  0  0  0  0  0  0  0  0  0
   11.3558  -16.4131   20.0889 C   0  0  0  0  0  0  0  0  0  0  0  0
   11.0320  -15.9189   21.1897 O   0  0  0  0  0  0  0  0  0  0  0  0
   12.1430  -17.5407   20.0829 O   0  0  0  0  0  0  0  0  0  0  0  0
  2  1  1  1
  2  4  1  0
  3  2  1  0
  4  5  1  1
  6  4  1  0
  6  8  1  0
  7  6  2  0
  9  8  1  0
  9 10  1  0
 10 20  1  0
 10 11  2  0
 13 12  1  0
 13 14  2  0
 15 13  1  0
 16 17  1  0
 16 15  1  0
 18 17  1  0
 19 18  1  1
 20 19  1  0
 21 23  1  0
 21 19  1  0
 22 21  2  0
M  END
$$$$
