TGR.pdb
     RDKit          3D

 23 22  0  0  1  0  0  0  0  0999 V2000
    1.5539  -19.7180   19.8973 C   0  0  0  0  0  0  0  0  0  0  0  0
    2.0681  -19.3413   21.2758 C   0  0  1  0  0  0  0  0  0  0  0  0
    1.5274  -20.2284   22.1835 O   0  0  0  0  0  0  0  0  0  0  0  0
    3.5835  -19.3500   21.2612 C   0  0  2  0  0  0  0  0  0  0  0  0
    4.0892  -20.6688   21.0127 N   0  0  0  0  0  0  0  0  0  0  0  0
    4.1753  -18.7138   22.4483 C   0  0  0  0  0  0  0  0  0  0  0  0
    3.9630  -17.4775   22.7060 O   0  0  0  0  0  0  0  0  0  0  0  0
    4.9982  -19.4595   23.3377 N   0  0  0  0  0  0  0  0  0  0  0  0
    5.5581  -18.8953   24.5412 C   0  0  0  0  0  0  0  0  0  0  0  0
    6.8668  -18.2835   24.2635 C   0  0  0  0  0  0  0  0  0  0  0  0
    7.6000  -18.7722   23.3421 O   0  0  0  0  0  0  0  0  0  0  0  0
    8.3855  -12.8539   18.4895 N   0  0  0  0  0  0  0  0  0  0  0  0
    8.1550  -12.7430   19.8990 C   0  0  0  0  0  0  0  0  0  0  0  0
    8.0452  -11.5731   20.4210 N   0  0  0  0  0  0  0  0  0  0  0  0
    8.0441  -13.8858   20.7289 N   0  0  0  0  0  0  0  0  0  0  0  0
    7.7556  -13.8060   22.1409 C   0  0  0  0  0  0  0  0  0  0  0  0
    7.8160  -15.2375   22.6746 C   0  0  0  0  0  0  0  0  0  0  0  0
    8.5370  -15.2356   23.9925 C   0  0  0  0  0  0  0  0  0  0  0  0
    8.6987  -16.5841   24.5973 C   0  0  2  0  0  0  0  0  0  0  0  0
    7.4019  -17.1726   24.9360 N   0  0  0  0  0  0  0  0  0  0  0  0
    9.4952  -16.5312   25.8207 C   0  0  0  0  0  0  0  0  0  0  0  0
    8.9595  -16.7119   26.9349 O   0  0  0  0  0  0  0  0  0  0  0  0
   10.8475  -16.2858   25.7758 O   0  0  0  0  0  0  0  0  0  0  0  0
  2  1  1  6
  2  4  1  0
  3  2  1  0
  4  5  1  1
  6  4  1  0
  6  8  1  0
  7  6  2  0
  9  8  1  0
  9 10  1  0
 10 20  1  0
 10 11  2  0
 13 12  1  0
 13 14  2  0
 15 13  1  0
 16 17  1  0
 16 15  1  0
 18 17  1  0
 19 18  1  1
 20 19  1  0
 21 23  1  0
 21 19  1  0
 22 21  2  0
M  END
$$$$
