TGR.pdb
     RDKit          3D

 23 22  0  0  1  0  0  0  0  0999 V2000
    8.2955  -20.1266   14.6176 C   0  0  0  0  0  0  0  0  0  0  0  0
    8.0751  -20.2096   16.1180 C   0  0  1  0  0  0  0  0  0  0  0  0
    7.4846  -21.4263   16.3899 O   0  0  0  0  0  0  0  0  0  0  0  0
    9.4006  -20.0166   16.8270 C   0  0  2  0  0  0  0  0  0  0  0  0
   10.2922  -21.1075   16.5594 N   0  0  0  0  0  0  0  0  0  0  0  0
    9.2505  -19.7259   18.2612 C   0  0  0  0  0  0  0  0  0  0  0  0
    8.5530  -18.7287   18.6602 O   0  0  0  0  0  0  0  0  0  0  0  0
    9.8781  -20.5477   19.2383 N   0  0  0  0  0  0  0  0  0  0  0  0
    9.6747  -20.3697   20.6552 C   0  0  0  0  0  0  0  0  0  0  0  0
   10.3833  -19.1718   21.1314 C   0  0  0  0  0  0  0  0  0  0  0  0
   11.2857  -18.6491   20.3980 O   0  0  0  0  0  0  0  0  0  0  0  0
    9.1909  -12.6699   18.7234 N   0  0  0  0  0  0  0  0  0  0  0  0
    8.9738  -12.1695   20.0480 C   0  0  0  0  0  0  0  0  0  0  0  0
    8.9336  -10.8978   20.2334 N   0  0  0  0  0  0  0  0  0  0  0  0
    8.8017  -13.0374   21.1544 N   0  0  0  0  0  0  0  0  0  0  0  0
    8.8970  -14.4737   21.0481 C   0  0  0  0  0  0  0  0  0  0  0  0
    8.6895  -15.0249   22.4591 C   0  0  0  0  0  0  0  0  0  0  0  0
    8.7622  -16.5245   22.4115 C   0  0  0  0  0  0  0  0  0  0  0  0
   10.1432  -17.0680   22.4994 C   0  0  2  0  0  0  0  0  0  0  0  0
   10.1502  -18.5248   22.3560 N   0  0  0  0  0  0  0  0  0  0  0  0
   10.7661  -16.7453   23.7807 C   0  0  0  0  0  0  0  0  0  0  0  0
   10.6517  -17.5193   24.7547 O   0  0  0  0  0  0  0  0  0  0  0  0
   11.4924  -15.5891   23.9442 O   0  0  0  0  0  0  0  0  0  0  0  0
  2  1  1  6
  2  4  1  0
  3  2  1  0
  4  5  1  1
  6  4  1  0
  6  8  1  0
  7  6  2  0
  9  8  1  0
  9 10  1  0
 10 20  1  0
 10 11  2  0
 13 12  1  0
 13 14  2  0
 15 13  1  0
 16 17  1  0
 16 15  1  0
 18 17  1  0
 19 18  1  1
 20 19  1  0
 21 23  1  0
 21 19  1  0
 22 21  2  0
M  END
$$$$
