TGR.pdb
     RDKit          3D

 23 22  0  0  1  0  0  0  0  0999 V2000
   -0.6505  -19.6144   20.6352 C   0  0  0  0  0  0  0  0  0  0  0  0
    0.6538  -19.9673   21.3286 C   0  0  1  0  0  0  0  0  0  0  0  0
    0.6628  -21.3306   21.5396 O   0  0  0  0  0  0  0  0  0  0  0  0
    1.8142  -19.4858   20.4809 C   0  0  2  0  0  0  0  0  0  0  0  0
    1.6933  -19.9507   19.1296 N   0  0  0  0  0  0  0  0  0  0  0  0
    3.1257  -19.7750   21.0809 C   0  0  0  0  0  0  0  0  0  0  0  0
    3.5785  -20.9720   21.1255 O   0  0  0  0  0  0  0  0  0  0  0  0
    3.9214  -18.7291   21.6261 N   0  0  0  0  0  0  0  0  0  0  0  0
    5.1579  -18.9736   22.3275 C   0  0  0  0  0  0  0  0  0  0  0  0
    5.7506  -17.7072   22.7846 C   0  0  0  0  0  0  0  0  0  0  0  0
    5.1671  -16.6090   22.5034 O   0  0  0  0  0  0  0  0  0  0  0  0
   10.6389  -17.4226   29.0365 N   0  0  0  0  0  0  0  0  0  0  0  0
    9.6773  -18.3799   28.5772 C   0  0  0  0  0  0  0  0  0  0  0  0
    9.8409  -19.6191   28.8784 N   0  0  0  0  0  0  0  0  0  0  0  0
    8.5542  -17.9968   27.8034 N   0  0  0  0  0  0  0  0  0  0  0  0
    8.5989  -16.9358   26.8259 C   0  0  0  0  0  0  0  0  0  0  0  0
    7.1942  -16.8393   26.2301 C   0  0  0  0  0  0  0  0  0  0  0  0
    7.1929  -15.7919   25.1533 C   0  0  0  0  0  0  0  0  0  0  0  0
    7.5751  -16.3022   23.8102 C   0  0  2  0  0  0  0  0  0  0  0  0
    6.9352  -17.5885   23.5297 N   0  0  0  0  0  0  0  0  0  0  0  0
    9.0193  -16.4914   23.6994 C   0  0  0  0  0  0  0  0  0  0  0  0
    9.5014  -17.6373   23.5741 O   0  0  0  0  0  0  0  0  0  0  0  0
    9.8787  -15.4183   23.7268 O   0  0  0  0  0  0  0  0  0  0  0  0
  2  1  1  6
  2  4  1  0
  3  2  1  0
  4  5  1  6
  6  4  1  0
  6  8  1  0
  7  6  2  0
  9  8  1  0
  9 10  1  0
 10 20  1  0
 10 11  2  0
 13 12  1  0
 13 14  2  0
 15 13  1  0
 16 17  1  0
 16 15  1  0
 18 17  1  0
 19 18  1  1
 20 19  1  0
 21 23  1  0
 21 19  1  0
 22 21  2  0
M  END
$$$$
