TGR.pdb
     RDKit          3D

 23 22  0  0  1  0  0  0  0  0999 V2000
    8.3740  -13.8479   14.9149 C   0  0  0  0  0  0  0  0  0  0  0  0
    8.2710  -14.8945   16.0105 C   0  0  1  0  0  0  0  0  0  0  0  0
    9.4892  -15.5365   16.0950 O   0  0  0  0  0  0  0  0  0  0  0  0
    7.8587  -14.2216   17.3044 C   0  0  2  0  0  0  0  0  0  0  0  0
    8.7973  -13.2037   17.6780 N   0  0  0  0  0  0  0  0  0  0  0  0
    7.5748  -15.1771   18.3863 C   0  0  0  0  0  0  0  0  0  0  0  0
    6.7079  -16.1068   18.2314 O   0  0  0  0  0  0  0  0  0  0  0  0
    8.2584  -15.0889   19.6310 N   0  0  0  0  0  0  0  0  0  0  0  0
    8.1533  -16.1017   20.6526 C   0  0  0  0  0  0  0  0  0  0  0  0
    9.0695  -15.8085   21.7655 C   0  0  0  0  0  0  0  0  0  0  0  0
    9.9567  -14.9044   21.6204 O   0  0  0  0  0  0  0  0  0  0  0  0
    5.3719  -11.5347   26.3441 N   0  0  0  0  0  0  0  0  0  0  0  0
    6.3745  -12.4773   26.7422 C   0  0  0  0  0  0  0  0  0  0  0  0
    7.4355  -12.0467   27.3271 N   0  0  0  0  0  0  0  0  0  0  0  0
    6.2263  -13.8669   26.5096 N   0  0  0  0  0  0  0  0  0  0  0  0
    7.3093  -14.8087   26.6626 C   0  0  0  0  0  0  0  0  0  0  0  0
    7.9934  -14.9039   25.2986 C   0  0  0  0  0  0  0  0  0  0  0  0
    9.1194  -15.8943   25.3867 C   0  0  0  0  0  0  0  0  0  0  0  0
    9.9067  -16.0309   24.1329 C   0  0  2  0  0  0  0  0  0  0  0  0
    9.0573  -16.4478   23.0160 N   0  0  0  0  0  0  0  0  0  0  0  0
   10.9720  -17.0203   24.2737 C   0  0  0  0  0  0  0  0  0  0  0  0
   10.8558  -18.1549   23.7634 O   0  0  0  0  0  0  0  0  0  0  0  0
   12.1242  -16.7276   24.9650 O   0  0  0  0  0  0  0  0  0  0  0  0
  2  1  1  6
  2  4  1  0
  3  2  1  0
  4  5  1  1
  6  4  1  0
  6  8  1  0
  7  6  2  0
  9  8  1  0
  9 10  1  0
 10 20  1  0
 10 11  2  0
 13 12  1  0
 13 14  2  0
 15 13  1  0
 16 17  1  0
 16 15  1  0
 18 17  1  0
 19 18  1  1
 20 19  1  0
 21 23  1  0
 21 19  1  0
 22 21  2  0
M  END
$$$$
