TGR.pdb
     RDKit          3D

 23 22  0  0  1  0  0  0  0  0999 V2000
    9.0290  -17.6130   15.7313 C   0  0  0  0  0  0  0  0  0  0  0  0
    9.6687  -16.6474   16.7137 C   0  0  1  0  0  0  0  0  0  0  0  0
    9.2858  -17.0245   17.9842 O   0  0  0  0  0  0  0  0  0  0  0  0
   11.1711  -16.6572   16.5143 C   0  0  2  0  0  0  0  0  0  0  0  0
   11.6965  -17.9874   16.6200 N   0  0  0  0  0  0  0  0  0  0  0  0
   11.8723  -15.6848   17.3668 C   0  0  0  0  0  0  0  0  0  0  0  0
   11.6248  -14.4317   17.2751 O   0  0  0  0  0  0  0  0  0  0  0  0
   12.8427  -16.1161   18.3137 N   0  0  0  0  0  0  0  0  0  0  0  0
   13.5987  -15.1981   19.1298 C   0  0  0  0  0  0  0  0  0  0  0  0
   13.0713  -15.1743   20.5029 C   0  0  0  0  0  0  0  0  0  0  0  0
   13.6522  -14.4552   21.3810 O   0  0  0  0  0  0  0  0  0  0  0  0
    7.9838  -13.8210   17.9122 N   0  0  0  0  0  0  0  0  0  0  0  0
    8.2984  -12.9441   19.0004 C   0  0  0  0  0  0  0  0  0  0  0  0
    8.3943  -11.6820   18.7741 N   0  0  0  0  0  0  0  0  0  0  0  0
    8.5045  -13.4306   20.3149 N   0  0  0  0  0  0  0  0  0  0  0  0
    9.4308  -14.4938   20.6226 C   0  0  0  0  0  0  0  0  0  0  0  0
    9.2305  -14.8252   22.1017 C   0  0  0  0  0  0  0  0  0  0  0  0
   10.0252  -16.0550   22.4371 C   0  0  0  0  0  0  0  0  0  0  0  0
   11.4975  -15.8695   22.3454 C   0  0  2  0  0  0  0  0  0  0  0  0
   11.9489  -15.8886   20.9531 N   0  0  0  0  0  0  0  0  0  0  0  0
   12.2161  -16.9219   23.0594 C   0  0  0  0  0  0  0  0  0  0  0  0
   12.9648  -17.7097   22.4429 O   0  0  0  0  0  0  0  0  0  0  0  0
   12.0893  -17.0684   24.4208 O   0  0  0  0  0  0  0  0  0  0  0  0
  2  1  1  6
  2  4  1  0
  3  2  1  0
  4  5  1  1
  6  4  1  0
  6  8  1  0
  7  6  2  0
  9  8  1  0
  9 10  1  0
 10 20  1  0
 10 11  2  0
 13 12  1  0
 13 14  2  0
 15 13  1  0
 16 17  1  0
 16 15  1  0
 18 17  1  0
 19 18  1  6
 20 19  1  0
 21 23  1  0
 21 19  1  0
 22 21  2  0
M  END
$$$$
