DNK.pdb
     RDKit          3D

 26 25  0  0  1  0  0  0  0  0999 V2000
   18.5291  -12.2726  -15.3073 N   0  0  0  0  0  0  0  0  0  0  0  0
   17.7975  -11.0666  -15.1482 C   0  0  1  0  0  0  0  0  0  0  0  0
   16.3348  -11.4605  -14.9526 C   0  0  0  0  0  0  0  0  0  0  0  0
   15.8931  -12.2766  -16.1162 C   0  0  0  0  0  0  0  0  0  0  0  0
   16.1011  -11.8520  -17.2835 O   0  0  0  0  0  0  0  0  0  0  0  0
   18.2360  -10.1536  -14.0930 C   0  0  0  0  0  0  0  0  0  0  0  0
   18.1718  -10.5267  -12.8638 O   0  0  0  0  0  0  0  0  0  0  0  0
   15.2575  -13.4942  -15.9783 O   0  0  0  0  0  0  0  0  0  0  0  0
   20.0093   -6.1123  -11.3577 N   0  0  0  0  0  0  0  0  0  0  0  0
   20.6546   -6.0364  -12.6194 C   0  0  0  0  0  0  0  0  0  0  0  0
   21.5833   -5.2006  -12.7269 O   0  0  0  0  0  0  0  0  0  0  0  0
   20.1872   -6.9351  -13.6922 C   0  0  0  0  0  0  0  0  0  0  0  0
   19.1904   -7.9590  -13.2369 C   0  0  2  0  0  0  0  0  0  0  0  0
   18.7416   -8.8539  -14.2853 N   0  0  0  0  0  0  0  0  0  0  0  0
   18.0756   -7.4127  -12.4684 C   0  0  0  0  0  0  0  0  0  0  0  0
   17.1738   -6.7644  -13.1008 O   0  0  0  0  0  0  0  0  0  0  0  0
   17.9198   -7.5458  -11.0687 N   0  0  0  0  0  0  0  0  0  0  0  0
   16.7612   -7.0261  -10.3331 C   0  0  1  0  0  0  0  0  0  0  0  0
   15.8205   -8.1140   -9.9538 C   0  0  0  0  0  0  0  0  0  0  0  0
   14.6035   -7.5506   -9.2946 C   0  0  0  0  0  0  0  0  0  0  0  0
   13.6116   -8.6111   -8.8765 C   0  0  0  0  0  0  0  0  0  0  0  0
   12.3229   -7.9880   -8.3671 C   0  0  0  0  0  0  0  0  0  0  0  0
   11.3493   -8.9781   -7.9641 N   0  0  0  0  0  0  0  0  0  0  0  0
   17.2597   -6.2080   -9.2025 C   0  0  0  0  0  0  0  0  0  0  0  0
   16.6169   -5.1317   -8.6556 O   0  0  0  0  0  0  0  0  0  0  0  0
   18.3861   -6.5060   -8.6674 O   0  0  0  0  0  0  0  0  0  0  0  0
  2  3  1  0
  2  1  1  1
  4  3  1  0
  4  8  1  0
  5  4  2  0
  6  2  1  0
  7  6  2  0
  9 10  1  0
 10 12  1  0
 11 10  2  0
 13 12  1  6
 13 14  1  0
 14  6  1  0
 15 13  1  0
 15 17  1  0
 16 15  2  0
 18 19  1  1
 18 17  1  0
 20 21  1  0
 20 19  1  0
 22 21  1  0
 23 22  1  0
 24 18  1  0
 25 24  1  0
 26 24  2  0
M  END
$$$$
