DNK.pdb
     RDKit          3D

 26 25  0  0  1  0  0  0  0  0999 V2000
   20.9924  -12.0765  -16.6905 N   0  0  0  0  0  0  0  0  0  0  0  0
   19.6462  -11.7842  -17.0332 C   0  0  1  0  0  0  0  0  0  0  0  0
   18.7973  -12.9432  -16.5146 C   0  0  0  0  0  0  0  0  0  0  0  0
   19.4700  -14.2264  -16.8549 C   0  0  0  0  0  0  0  0  0  0  0  0
   20.1974  -14.2898  -17.8811 O   0  0  0  0  0  0  0  0  0  0  0  0
   19.1059  -10.5016  -16.5834 C   0  0  0  0  0  0  0  0  0  0  0  0
   17.8320  -10.3297  -16.5400 O   0  0  0  0  0  0  0  0  0  0  0  0
   19.3348  -15.3682  -16.0908 O   0  0  0  0  0  0  0  0  0  0  0  0
   18.2578   -5.8734  -14.5096 N   0  0  0  0  0  0  0  0  0  0  0  0
   17.6964   -7.0991  -14.0666 C   0  0  0  0  0  0  0  0  0  0  0  0
   16.7324   -7.0205  -13.2684 O   0  0  0  0  0  0  0  0  0  0  0  0
   18.2845   -8.3541  -14.5731 C   0  0  0  0  0  0  0  0  0  0  0  0
   19.3240   -8.1535  -15.6354 C   0  0  2  0  0  0  0  0  0  0  0  0
   19.8620   -9.3862  -16.1762 N   0  0  0  0  0  0  0  0  0  0  0  0
   20.3766   -7.2076  -15.2757 C   0  0  0  0  0  0  0  0  0  0  0  0
   21.1916   -7.5431  -14.3501 O   0  0  0  0  0  0  0  0  0  0  0  0
   20.5609   -5.9402  -15.8763 N   0  0  0  0  0  0  0  0  0  0  0  0
   21.7253   -5.0859  -15.6159 C   0  0  1  0  0  0  0  0  0  0  0  0
   21.7853   -3.9390  -16.5610 C   0  0  0  0  0  0  0  0  0  0  0  0
   22.9468   -3.0548  -16.2417 C   0  0  0  0  0  0  0  0  0  0  0  0
   23.1043   -1.9093  -17.2145 C   0  0  0  0  0  0  0  0  0  0  0  0
   24.2714   -1.0164  -16.8279 C   0  0  0  0  0  0  0  0  0  0  0  0
   24.5790   -0.0345  -17.8436 N   0  0  0  0  0  0  0  0  0  0  0  0
   21.7152   -4.7142  -14.1814 C   0  0  0  0  0  0  0  0  0  0  0  0
   22.8166   -4.6248  -13.3754 O   0  0  0  0  0  0  0  0  0  0  0  0
   20.5962   -4.4476  -13.6152 O   0  0  0  0  0  0  0  0  0  0  0  0
  2  3  1  0
  2  1  1  1
  4  3  1  0
  4  8  1  0
  5  4  2  0
  6  2  1  0
  7  6  2  0
  9 10  1  0
 10 12  1  0
 11 10  2  0
 13 12  1  1
 13 14  1  0
 14  6  1  0
 15 13  1  0
 15 17  1  0
 16 15  2  0
 18 19  1  6
 18 17  1  0
 20 21  1  0
 20 19  1  0
 22 21  1  0
 23 22  1  0
 24 18  1  0
 25 24  1  0
 26 24  2  0
M  END
$$$$
