DNK.pdb
     RDKit          3D

 26 25  0  0  1  0  0  0  0  0999 V2000
   16.8294   -9.6231  -15.9741 N   0  0  0  0  0  0  0  0  0  0  0  0
   17.1907  -10.4433  -14.8732 C   0  0  1  0  0  0  0  0  0  0  0  0
   18.3216  -11.3514  -15.3521 C   0  0  0  0  0  0  0  0  0  0  0  0
   17.7699  -12.3483  -16.3096 C   0  0  0  0  0  0  0  0  0  0  0  0
   17.2224  -11.9485  -17.3710 O   0  0  0  0  0  0  0  0  0  0  0  0
   17.5576   -9.7676  -13.6290 C   0  0  0  0  0  0  0  0  0  0  0  0
   17.4121  -10.3800  -12.5074 O   0  0  0  0  0  0  0  0  0  0  0  0
   17.8289  -13.7098  -16.0896 O   0  0  0  0  0  0  0  0  0  0  0  0
   20.8819   -8.7870  -12.9077 N   0  0  0  0  0  0  0  0  0  0  0  0
   20.8165   -7.3801  -12.7338 C   0  0  0  0  0  0  0  0  0  0  0  0
   21.8892   -6.7455  -12.8730 O   0  0  0  0  0  0  0  0  0  0  0  0
   19.5080   -6.7823  -12.4059 C   0  0  0  0  0  0  0  0  0  0  0  0
   18.3963   -7.7815  -12.2829 C   0  0  2  0  0  0  0  0  0  0  0  0
   18.0738   -8.4623  -13.5214 N   0  0  0  0  0  0  0  0  0  0  0  0
   17.2040   -7.2746  -11.6098 C   0  0  0  0  0  0  0  0  0  0  0  0
   16.3969   -6.5509  -12.2869 O   0  0  0  0  0  0  0  0  0  0  0  0
   16.8751   -7.5236  -10.2567 N   0  0  0  0  0  0  0  0  0  0  0  0
   15.7179   -6.9219   -9.5840 C   0  0  1  0  0  0  0  0  0  0  0  0
   14.7964   -7.9587   -9.0472 C   0  0  0  0  0  0  0  0  0  0  0  0
   13.6053   -7.3229   -8.4069 C   0  0  0  0  0  0  0  0  0  0  0  0
   12.6089   -8.3287   -7.8791 C   0  0  0  0  0  0  0  0  0  0  0  0
   11.3807   -7.6389   -7.3096 C   0  0  0  0  0  0  0  0  0  0  0  0
   10.3904   -8.5764   -6.8293 N   0  0  0  0  0  0  0  0  0  0  0  0
   16.2180   -5.9509   -8.5825 C   0  0  0  0  0  0  0  0  0  0  0  0
   17.5247   -5.7951   -8.2095 O   0  0  0  0  0  0  0  0  0  0  0  0
   15.3826   -5.1751   -7.9961 O   0  0  0  0  0  0  0  0  0  0  0  0
  2  3  1  0
  2  1  1  6
  4  3  1  0
  4  8  1  0
  5  4  2  0
  6  2  1  0
  7  6  2  0
  9 10  1  0
 10 12  1  0
 11 10  2  0
 13 12  1  6
 13 14  1  0
 14  6  1  0
 15 13  1  0
 15 17  1  0
 16 15  2  0
 18 19  1  1
 18 17  1  0
 20 21  1  0
 20 19  1  0
 22 21  1  0
 23 22  1  0
 24 18  1  0
 25 24  1  0
 26 24  2  0
M  END
$$$$
