DNK.pdb
     RDKit          3D

 26 25  0  0  1  0  0  0  0  0999 V2000
   19.4171  -11.3411  -16.5955 N   0  0  0  0  0  0  0  0  0  0  0  0
   20.2283  -10.3155  -17.1481 C   0  0  1  0  0  0  0  0  0  0  0  0
   19.8346  -10.1856  -18.6181 C   0  0  0  0  0  0  0  0  0  0  0  0
   20.1056  -11.4762  -19.3080 C   0  0  0  0  0  0  0  0  0  0  0  0
   19.1394  -12.1994  -19.6679 O   0  0  0  0  0  0  0  0  0  0  0  0
   20.2009   -9.0121  -16.4850 C   0  0  0  0  0  0  0  0  0  0  0  0
   19.0713   -8.4840  -16.1697 O   0  0  0  0  0  0  0  0  0  0  0  0
   21.3821  -11.9273  -19.5775 O   0  0  0  0  0  0  0  0  0  0  0  0
   21.1894   -4.6144  -14.0127 N   0  0  0  0  0  0  0  0  0  0  0  0
   22.1900   -5.5412  -13.6208 C   0  0  0  0  0  0  0  0  0  0  0  0
   22.9731   -5.1735  -12.7130 O   0  0  0  0  0  0  0  0  0  0  0  0
   22.2304   -6.8481  -14.3047 C   0  0  0  0  0  0  0  0  0  0  0  0
   21.2938   -6.9534  -15.4713 C   0  0  2  0  0  0  0  0  0  0  0  0
   21.3258   -8.2388  -16.1408 N   0  0  0  0  0  0  0  0  0  0  0  0
   21.3808   -5.8422  -16.4145 C   0  0  0  0  0  0  0  0  0  0  0  0
   21.9401   -6.0580  -17.5433 O   0  0  0  0  0  0  0  0  0  0  0  0
   20.8922   -4.5374  -16.1699 N   0  0  0  0  0  0  0  0  0  0  0  0
   20.3712   -3.6603  -17.2248 C   0  0  1  0  0  0  0  0  0  0  0  0
   19.3174   -4.3361  -18.0279 C   0  0  0  0  0  0  0  0  0  0  0  0
   18.7369   -3.3942  -19.0323 C   0  0  0  0  0  0  0  0  0  0  0  0
   18.8666   -3.8901  -20.4537 C   0  0  0  0  0  0  0  0  0  0  0  0
   17.5042   -4.0438  -21.1087 C   0  0  0  0  0  0  0  0  0  0  0  0
   17.5960   -4.4762  -22.4853 N   0  0  0  0  0  0  0  0  0  0  0  0
   19.9580   -2.3812  -16.6009 C   0  0  0  0  0  0  0  0  0  0  0  0
   20.3427   -1.1348  -17.0128 O   0  0  0  0  0  0  0  0  0  0  0  0
   19.1740   -2.4075  -15.5869 O   0  0  0  0  0  0  0  0  0  0  0  0
  2  3  1  0
  2  1  1  1
  4  3  1  0
  4  8  1  0
  5  4  2  0
  6  2  1  0
  7  6  2  0
  9 10  1  0
 10 12  1  0
 11 10  2  0
 13 12  1  1
 13 14  1  0
 14  6  1  0
 15 13  1  0
 15 17  1  0
 16 15  2  0
 18 19  1  1
 18 17  1  0
 20 21  1  0
 20 19  1  0
 22 21  1  0
 23 22  1  0
 24 18  1  0
 25 24  1  0
 26 24  2  0
M  END
$$$$
