DNK.pdb
     RDKit          3D

 26 25  0  0  1  0  0  0  0  0999 V2000
   19.7274  -10.2297  -17.3946 N   0  0  0  0  0  0  0  0  0  0  0  0
   18.9952  -10.1279  -16.1827 C   0  0  1  0  0  0  0  0  0  0  0  0
   19.2899  -11.3945  -15.3814 C   0  0  0  0  0  0  0  0  0  0  0  0
   19.1014  -12.5794  -16.2619 C   0  0  0  0  0  0  0  0  0  0  0  0
   18.8592  -12.4077  -17.4859 O   0  0  0  0  0  0  0  0  0  0  0  0
   19.2155   -8.9336  -15.3676 C   0  0  0  0  0  0  0  0  0  0  0  0
   18.5685   -8.7892  -14.2654 O   0  0  0  0  0  0  0  0  0  0  0  0
   19.1799  -13.8771  -15.7976 O   0  0  0  0  0  0  0  0  0  0  0  0
   20.7293   -4.3794  -13.4345 N   0  0  0  0  0  0  0  0  0  0  0  0
   21.8513   -5.2319  -13.6018 C   0  0  0  0  0  0  0  0  0  0  0  0
   22.9236   -4.8623  -13.0667 O   0  0  0  0  0  0  0  0  0  0  0  0
   21.6705   -6.4704  -14.3832 C   0  0  0  0  0  0  0  0  0  0  0  0
   20.2728   -6.6726  -14.8881 C   0  0  2  0  0  0  0  0  0  0  0  0
   20.0964   -7.8787  -15.6726 N   0  0  0  0  0  0  0  0  0  0  0  0
   19.6954   -5.5029  -15.5441 C   0  0  0  0  0  0  0  0  0  0  0  0
   20.3208   -5.0075  -16.5426 O   0  0  0  0  0  0  0  0  0  0  0  0
   18.4909   -4.8724  -15.1535 N   0  0  0  0  0  0  0  0  0  0  0  0
   17.9354   -3.6996  -15.8388 C   0  0  1  0  0  0  0  0  0  0  0  0
   16.4704   -3.5765  -15.6132 C   0  0  0  0  0  0  0  0  0  0  0  0
   15.7303   -4.6207  -16.3845 C   0  0  0  0  0  0  0  0  0  0  0  0
   14.6587   -5.3094  -15.5716 C   0  0  0  0  0  0  0  0  0  0  0  0
   13.7983   -6.2073  -16.4446 C   0  0  0  0  0  0  0  0  0  0  0  0
   12.7518   -6.8691  -15.6982 N   0  0  0  0  0  0  0  0  0  0  0  0
   18.7307   -2.5131  -15.4440 C   0  0  0  0  0  0  0  0  0  0  0  0
   18.9883   -1.4288  -16.2369 O   0  0  0  0  0  0  0  0  0  0  0  0
   19.2354   -2.4655  -14.2664 O   0  0  0  0  0  0  0  0  0  0  0  0
  2  3  1  0
  2  1  1  6
  4  3  1  0
  4  8  1  0
  5  4  2  0
  6  2  1  0
  7  6  2  0
  9 10  1  0
 10 12  1  0
 11 10  2  0
 13 12  1  6
 13 14  1  0
 14  6  1  0
 15 13  1  0
 15 17  1  0
 16 15  2  0
 18 19  1  1
 18 17  1  0
 20 21  1  0
 20 19  1  0
 22 21  1  0
 23 22  1  0
 24 18  1  0
 25 24  1  0
 26 24  2  0
M  END
$$$$
