DNK.pdb
     RDKit          3D

 26 25  0  0  1  0  0  0  0  0999 V2000
   23.0607  -21.6781  -15.7115 N   0  0  0  0  0  0  0  0  0  0  0  0
   23.4981  -20.5965  -14.9028 C   0  0  1  0  0  0  0  0  0  0  0  0
   23.6376  -19.3856  -15.8232 C   0  0  0  0  0  0  0  0  0  0  0  0
   24.5441  -19.7359  -16.9504 C   0  0  0  0  0  0  0  0  0  0  0  0
   25.0200  -20.8998  -17.0221 O   0  0  0  0  0  0  0  0  0  0  0  0
   22.6871  -20.2683  -13.7307 C   0  0  0  0  0  0  0  0  0  0  0  0
   22.7921  -19.1053  -13.1917 O   0  0  0  0  0  0  0  0  0  0  0  0
   24.8950  -18.8356  -17.9364 O   0  0  0  0  0  0  0  0  0  0  0  0
   19.0068  -17.9282  -11.0684 N   0  0  0  0  0  0  0  0  0  0  0  0
   18.8154  -19.1196  -11.8152 C   0  0  0  0  0  0  0  0  0  0  0  0
   17.7305  -19.7242  -11.6418 O   0  0  0  0  0  0  0  0  0  0  0  0
   19.8950  -19.5484  -12.7251 C   0  0  0  0  0  0  0  0  0  0  0  0
   20.6953  -20.7096  -12.2148 C   0  0  2  0  0  0  0  0  0  0  0  0
   21.7649  -21.1252  -13.1006 N   0  0  0  0  0  0  0  0  0  0  0  0
   19.8913  -21.8398  -11.7587 C   0  0  0  0  0  0  0  0  0  0  0  0
   19.3475  -22.5833  -12.6447 O   0  0  0  0  0  0  0  0  0  0  0  0
   19.6660  -22.1735  -10.4026 N   0  0  0  0  0  0  0  0  0  0  0  0
   18.9182  -23.3627   -9.9780 C   0  0  1  0  0  0  0  0  0  0  0  0
   19.0128  -23.5733   -8.5087 C   0  0  0  0  0  0  0  0  0  0  0  0
   18.2791  -24.8115   -8.1068 C   0  0  0  0  0  0  0  0  0  0  0  0
   18.4441  -25.1492   -6.6433 C   0  0  0  0  0  0  0  0  0  0  0  0
   17.5971  -26.3501   -6.2573 C   0  0  0  0  0  0  0  0  0  0  0  0
   17.6986  -26.6718   -4.8515 N   0  0  0  0  0  0  0  0  0  0  0  0
   17.5380  -23.2546  -10.5067 C   0  0  0  0  0  0  0  0  0  0  0  0
   16.8050  -24.2829  -11.0322 O   0  0  0  0  0  0  0  0  0  0  0  0
   16.9506  -22.1152  -10.4855 O   0  0  0  0  0  0  0  0  0  0  0  0
  2  3  1  0
  2  1  1  6
  4  3  1  0
  4  8  1  0
  5  4  2  0
  6  2  1  0
  7  6  2  0
  9 10  1  0
 10 12  1  0
 11 10  2  0
 13 12  1  6
 13 14  1  0
 14  6  1  0
 15 13  1  0
 15 17  1  0
 16 15  2  0
 18 19  1  1
 18 17  1  0
 20 21  1  0
 20 19  1  0
 22 21  1  0
 23 22  1  0
 24 18  1  0
 25 24  1  0
 26 24  2  0
M  END
$$$$
