DNK.pdb
     RDKit          3D

 26 25  0  0  1  0  0  0  0  0999 V2000
   19.5808  -11.6399  -17.7100 N   0  0  0  0  0  0  0  0  0  0  0  0
   19.5023  -11.0423  -16.4247 C   0  0  1  0  0  0  0  0  0  0  0  0
   19.5512  -12.1792  -15.4059 C   0  0  0  0  0  0  0  0  0  0  0  0
   18.3481  -13.0379  -15.5802 C   0  0  0  0  0  0  0  0  0  0  0  0
   17.4852  -12.7250  -16.4426 O   0  0  0  0  0  0  0  0  0  0  0  0
   20.4921  -10.0141  -16.1048 C   0  0  0  0  0  0  0  0  0  0  0  0
   20.4294   -9.4026  -14.9750 O   0  0  0  0  0  0  0  0  0  0  0  0
   18.1271  -14.1773  -14.8330 O   0  0  0  0  0  0  0  0  0  0  0  0
   24.6764   -6.9905  -15.8939 N   0  0  0  0  0  0  0  0  0  0  0  0
   24.9397   -7.9024  -16.9488 C   0  0  0  0  0  0  0  0  0  0  0  0
   26.0616   -7.8140  -17.5022 O   0  0  0  0  0  0  0  0  0  0  0  0
   23.8854   -8.8704  -17.3077 C   0  0  0  0  0  0  0  0  0  0  0  0
   22.5950   -8.6650  -16.5717 C   0  0  2  0  0  0  0  0  0  0  0  0
   21.5511   -9.6026  -16.9360 N   0  0  0  0  0  0  0  0  0  0  0  0
   22.1164   -7.2856  -16.5703 C   0  0  0  0  0  0  0  0  0  0  0  0
   21.5356   -6.8529  -17.6234 O   0  0  0  0  0  0  0  0  0  0  0  0
   22.2506   -6.3870  -15.4860 N   0  0  0  0  0  0  0  0  0  0  0  0
   21.5596   -5.0941  -15.4197 C   0  0  1  0  0  0  0  0  0  0  0  0
   20.0976   -5.2421  -15.6492 C   0  0  0  0  0  0  0  0  0  0  0  0
   19.4144   -3.9161  -15.5598 C   0  0  0  0  0  0  0  0  0  0  0  0
   17.9301   -3.9949  -15.8315 C   0  0  0  0  0  0  0  0  0  0  0  0
   17.2920   -2.6163  -15.8023 C   0  0  0  0  0  0  0  0  0  0  0  0
   15.8862   -2.6484  -16.1383 N   0  0  0  0  0  0  0  0  0  0  0  0
   21.9290   -4.4369  -14.1439 C   0  0  0  0  0  0  0  0  0  0  0  0
   22.5218   -5.0514  -13.0753 O   0  0  0  0  0  0  0  0  0  0  0  0
   21.6866   -3.1868  -13.9944 O   0  0  0  0  0  0  0  0  0  0  0  0
  2  3  1  0
  2  1  1  6
  4  3  1  0
  4  8  1  0
  5  4  2  0
  6  2  1  0
  7  6  2  0
  9 10  1  0
 10 12  1  0
 11 10  2  0
 13 12  1  6
 13 14  1  0
 14  6  1  0
 15 13  1  0
 15 17  1  0
 16 15  2  0
 18 19  1  1
 18 17  1  0
 20 21  1  0
 20 19  1  0
 22 21  1  0
 23 22  1  0
 24 18  1  0
 25 24  1  0
 26 24  2  0
M  END
$$$$
