DNK.pdb
     RDKit          3D

 26 25  0  0  1  0  0  0  0  0999 V2000
   25.5839  -22.1058  -11.5400 N   0  0  0  0  0  0  0  0  0  0  0  0
   25.0937  -20.7742  -11.4971 C   0  0  1  0  0  0  0  0  0  0  0  0
   25.9134  -20.0363  -10.4404 C   0  0  0  0  0  0  0  0  0  0  0  0
   25.7618  -20.7347   -9.1350 C   0  0  0  0  0  0  0  0  0  0  0  0
   24.9437  -21.6870   -9.0348 O   0  0  0  0  0  0  0  0  0  0  0  0
   25.0749  -20.0286  -12.7552 C   0  0  0  0  0  0  0  0  0  0  0  0
   25.1550  -18.7451  -12.7336 O   0  0  0  0  0  0  0  0  0  0  0  0
   26.4840  -20.3862   -8.0113 O   0  0  0  0  0  0  0  0  0  0  0  0
   26.4455  -18.8137  -17.5614 N   0  0  0  0  0  0  0  0  0  0  0  0
   27.2410  -18.6658  -16.3955 C   0  0  0  0  0  0  0  0  0  0  0  0
   28.2756  -17.9657  -16.5053 O   0  0  0  0  0  0  0  0  0  0  0  0
   26.7941  -19.3401  -15.1614 C   0  0  0  0  0  0  0  0  0  0  0  0
   25.4383  -19.9719  -15.2702 C   0  0  2  0  0  0  0  0  0  0  0  0
   24.9731  -20.5878  -14.0431 N   0  0  0  0  0  0  0  0  0  0  0  0
   25.2769  -20.8548  -16.4218 C   0  0  0  0  0  0  0  0  0  0  0  0
   26.2289  -21.6630  -16.6940 O   0  0  0  0  0  0  0  0  0  0  0  0
   24.1411  -20.8807  -17.2646 N   0  0  0  0  0  0  0  0  0  0  0  0
   22.9429  -21.6785  -16.9791 C   0  0  1  0  0  0  0  0  0  0  0  0
   22.5598  -21.5970  -15.5443 C   0  0  0  0  0  0  0  0  0  0  0  0
   21.4241  -22.5225  -15.2499 C   0  0  0  0  0  0  0  0  0  0  0  0
   20.3398  -21.8827  -14.4144 C   0  0  0  0  0  0  0  0  0  0  0  0
   19.2591  -22.8878  -14.0533 C   0  0  0  0  0  0  0  0  0  0  0  0
   18.2230  -22.3144  -13.2237 N   0  0  0  0  0  0  0  0  0  0  0  0
   21.8821  -21.2780  -17.9333 C   0  0  0  0  0  0  0  0  0  0  0  0
   21.5205  -21.9696  -19.0566 O   0  0  0  0  0  0  0  0  0  0  0  0
   21.2274  -20.1968  -17.7187 O   0  0  0  0  0  0  0  0  0  0  0  0
  2  3  1  0
  2  1  1  6
  4  3  1  0
  4  8  1  0
  5  4  2  0
  6  2  1  0
  7  6  2  0
  9 10  1  0
 10 12  1  0
 11 10  2  0
 13 12  1  1
 13 14  1  0
 14  6  1  0
 15 13  1  0
 15 17  1  0
 16 15  2  0
 18 19  1  1
 18 17  1  0
 20 21  1  0
 20 19  1  0
 22 21  1  0
 23 22  1  0
 24 18  1  0
 25 24  1  0
 26 24  2  0
M  END
$$$$
