DNK.pdb
     RDKit          3D

 26 25  0  0  1  0  0  0  0  0999 V2000
   12.2836  -11.0755  -10.1844 N   0  0  0  0  0  0  0  0  0  0  0  0
   13.6966  -10.9760  -10.0901 C   0  0  1  0  0  0  0  0  0  0  0  0
   14.2757  -11.8640  -11.1896 C   0  0  0  0  0  0  0  0  0  0  0  0
   13.8457  -13.2692  -10.9541 C   0  0  0  0  0  0  0  0  0  0  0  0
   13.1128  -13.5337   -9.9646 O   0  0  0  0  0  0  0  0  0  0  0  0
   14.2767   -9.6345  -10.1453 C   0  0  0  0  0  0  0  0  0  0  0  0
   13.5428   -8.6139   -9.8733 O   0  0  0  0  0  0  0  0  0  0  0  0
   14.2152  -14.3132  -11.7782 O   0  0  0  0  0  0  0  0  0  0  0  0
   16.0887   -4.8811   -9.2804 N   0  0  0  0  0  0  0  0  0  0  0  0
   16.7017   -6.0856   -8.8477 C   0  0  0  0  0  0  0  0  0  0  0  0
   17.8409   -5.9840   -8.3334 O   0  0  0  0  0  0  0  0  0  0  0  0
   15.9599   -7.3473   -9.0354 C   0  0  0  0  0  0  0  0  0  0  0  0
   16.2333   -8.0245  -10.3453 C   0  0  2  0  0  0  0  0  0  0  0  0
   15.6089   -9.3259  -10.4795 N   0  0  0  0  0  0  0  0  0  0  0  0
   17.6427   -8.0512  -10.7258 C   0  0  0  0  0  0  0  0  0  0  0  0
   18.4352   -8.7778  -10.0349 O   0  0  0  0  0  0  0  0  0  0  0  0
   18.1997   -7.3270  -11.8058 N   0  0  0  0  0  0  0  0  0  0  0  0
   19.5155   -7.6249  -12.3834 C   0  0  1  0  0  0  0  0  0  0  0  0
   19.3978   -8.4367  -13.6241 C   0  0  0  0  0  0  0  0  0  0  0  0
   20.7500   -8.8169  -14.1339 C   0  0  0  0  0  0  0  0  0  0  0  0
   20.6956   -9.7856  -15.2923 C   0  0  0  0  0  0  0  0  0  0  0  0
   22.0913  -10.1715  -15.7522 C   0  0  0  0  0  0  0  0  0  0  0  0
   22.0745  -11.1627  -16.8046 N   0  0  0  0  0  0  0  0  0  0  0  0
   20.2525   -6.3487  -12.5387 C   0  0  0  0  0  0  0  0  0  0  0  0
   19.6914   -5.1378  -12.8384 O   0  0  0  0  0  0  0  0  0  0  0  0
   21.5254   -6.3422  -12.3863 O   0  0  0  0  0  0  0  0  0  0  0  0
  2  3  1  0
  2  1  1  6
  4  3  1  0
  4  8  1  0
  5  4  2  0
  6  2  1  0
  7  6  2  0
  9 10  1  0
 10 12  1  0
 11 10  2  0
 13 12  1  1
 13 14  1  0
 14  6  1  0
 15 13  1  0
 15 17  1  0
 16 15  2  0
 18 19  1  6
 18 17  1  0
 20 21  1  0
 20 19  1  0
 22 21  1  0
 23 22  1  0
 24 18  1  0
 25 24  1  0
 26 24  2  0
M  END
$$$$
