DNK.pdb
     RDKit          3D

 26 25  0  0  1  0  0  0  0  0999 V2000
   19.8154  -11.8160  -17.5039 N   0  0  0  0  0  0  0  0  0  0  0  0
   19.3113  -11.1570  -16.3521 C   0  0  1  0  0  0  0  0  0  0  0  0
   18.7295  -12.2387  -15.4441 C   0  0  0  0  0  0  0  0  0  0  0  0
   17.5006  -12.7917  -16.0757 C   0  0  0  0  0  0  0  0  0  0  0  0
   17.0675  -12.2770  -17.1404 O   0  0  0  0  0  0  0  0  0  0  0  0
   20.2386  -10.3008  -15.6130 C   0  0  0  0  0  0  0  0  0  0  0  0
   19.9132   -9.8729  -14.4445 O   0  0  0  0  0  0  0  0  0  0  0  0
   16.8007  -13.8568  -15.5451 O   0  0  0  0  0  0  0  0  0  0  0  0
   23.4824  -11.3345  -14.5022 N   0  0  0  0  0  0  0  0  0  0  0  0
   24.3487  -10.4868  -15.2403 C   0  0  0  0  0  0  0  0  0  0  0  0
   25.4955  -10.9307  -15.4860 O   0  0  0  0  0  0  0  0  0  0  0  0
   23.8384   -9.1656  -15.6544 C   0  0  0  0  0  0  0  0  0  0  0  0
   22.3819   -8.9576  -15.3637 C   0  0  2  0  0  0  0  0  0  0  0  0
   21.5029   -9.8748  -16.0620 N   0  0  0  0  0  0  0  0  0  0  0  0
   21.9364   -7.5725  -15.4849 C   0  0  0  0  0  0  0  0  0  0  0  0
   21.8184   -7.0826  -16.6596 O   0  0  0  0  0  0  0  0  0  0  0  0
   21.6267   -6.7271  -14.3939 N   0  0  0  0  0  0  0  0  0  0  0  0
   21.1996   -5.3318  -14.5505 C   0  0  1  0  0  0  0  0  0  0  0  0
   19.7775   -5.1469  -14.1560 C   0  0  0  0  0  0  0  0  0  0  0  0
   18.8940   -5.1415  -15.3611 C   0  0  0  0  0  0  0  0  0  0  0  0
   17.4279   -5.0087  -15.0204 C   0  0  0  0  0  0  0  0  0  0  0  0
   16.5555   -5.2597  -16.2387 C   0  0  0  0  0  0  0  0  0  0  0  0
   15.1451   -5.1346  -15.9465 N   0  0  0  0  0  0  0  0  0  0  0  0
   22.1655   -4.4686  -13.8308 C   0  0  0  0  0  0  0  0  0  0  0  0
   23.2273   -4.9095  -13.0897 O   0  0  0  0  0  0  0  0  0  0  0  0
   22.0240   -3.1956  -13.8855 O   0  0  0  0  0  0  0  0  0  0  0  0
  2  3  1  0
  2  1  1  6
  4  3  1  0
  4  8  1  0
  5  4  2  0
  6  2  1  0
  7  6  2  0
  9 10  1  0
 10 12  1  0
 11 10  2  0
 13 12  1  6
 13 14  1  0
 14  6  1  0
 15 13  1  0
 15 17  1  0
 16 15  2  0
 18 19  1  1
 18 17  1  0
 20 21  1  0
 20 19  1  0
 22 21  1  0
 23 22  1  0
 24 18  1  0
 25 24  1  0
 26 24  2  0
M  END
$$$$
