DNK.pdb
     RDKit          3D

 26 25  0  0  1  0  0  0  0  0999 V2000
   13.9573  -10.3902  -12.6377 N   0  0  0  0  0  0  0  0  0  0  0  0
   15.0785  -10.2944  -11.7724 C   0  0  1  0  0  0  0  0  0  0  0  0
   16.1095  -11.3042  -12.2726 C   0  0  0  0  0  0  0  0  0  0  0  0
   15.5779  -12.6795  -12.0706 C   0  0  0  0  0  0  0  0  0  0  0  0
   14.8677  -12.9254  -11.0600 O   0  0  0  0  0  0  0  0  0  0  0  0
   15.6829   -8.9728  -11.6063 C   0  0  0  0  0  0  0  0  0  0  0  0
   15.6438   -8.1305  -12.5775 O   0  0  0  0  0  0  0  0  0  0  0  0
   15.8278  -13.7151  -12.9486 O   0  0  0  0  0  0  0  0  0  0  0  0
   18.0908   -4.7329   -9.8405 N   0  0  0  0  0  0  0  0  0  0  0  0
   17.2413   -5.2084   -8.8079 C   0  0  0  0  0  0  0  0  0  0  0  0
   17.0586   -4.4423   -7.8321 O   0  0  0  0  0  0  0  0  0  0  0  0
   16.6480   -6.5507   -8.9615 C   0  0  0  0  0  0  0  0  0  0  0  0
   16.9276   -7.1912  -10.2885 C   0  0  2  0  0  0  0  0  0  0  0  0
   16.3319   -8.5030  -10.4488 N   0  0  0  0  0  0  0  0  0  0  0  0
   18.3346   -7.1770  -10.6785 C   0  0  0  0  0  0  0  0  0  0  0  0
   19.1677   -7.7989   -9.9351 O   0  0  0  0  0  0  0  0  0  0  0  0
   18.8473   -6.5208  -11.8219 N   0  0  0  0  0  0  0  0  0  0  0  0
   20.1931   -6.7625  -12.3550 C   0  0  1  0  0  0  0  0  0  0  0  0
   20.1447   -7.4521  -13.6720 C   0  0  0  0  0  0  0  0  0  0  0  0
   21.5218   -7.6253  -14.2256 C   0  0  0  0  0  0  0  0  0  0  0  0
   21.5349   -8.2804  -15.5872 C   0  0  0  0  0  0  0  0  0  0  0  0
   22.9523   -8.4208  -16.1160 C   0  0  0  0  0  0  0  0  0  0  0  0
   23.0087   -9.1431  -17.3672 N   0  0  0  0  0  0  0  0  0  0  0  0
   20.9310   -5.4774  -12.3487 C   0  0  0  0  0  0  0  0  0  0  0  0
   22.2793   -5.3355  -12.1669 O   0  0  0  0  0  0  0  0  0  0  0  0
   20.2822   -4.3859  -12.5256 O   0  0  0  0  0  0  0  0  0  0  0  0
  2  3  1  0
  2  1  1  6
  4  3  1  0
  4  8  1  0
  5  4  2  0
  6  2  1  0
  7  6  2  0
  9 10  1  0
 10 12  1  0
 11 10  2  0
 13 12  1  1
 13 14  1  0
 14  6  1  0
 15 13  1  0
 15 17  1  0
 16 15  2  0
 18 19  1  6
 18 17  1  0
 20 21  1  0
 20 19  1  0
 22 21  1  0
 23 22  1  0
 24 18  1  0
 25 24  1  0
 26 24  2  0
M  END
$$$$
