DNK.pdb
     RDKit          3D

 26 25  0  0  1  0  0  0  0  0999 V2000
   17.6779  -13.0770  -14.7242 N   0  0  0  0  0  0  0  0  0  0  0  0
   18.1063  -13.6400  -15.9549 C   0  0  1  0  0  0  0  0  0  0  0  0
   16.8658  -14.2230  -16.6288 C   0  0  0  0  0  0  0  0  0  0  0  0
   16.2522  -15.2325  -15.7236 C   0  0  0  0  0  0  0  0  0  0  0  0
   16.7072  -15.3751  -14.5580 O   0  0  0  0  0  0  0  0  0  0  0  0
   18.8336  -12.7638  -16.8728 C   0  0  0  0  0  0  0  0  0  0  0  0
   18.8071  -13.0054  -18.1358 O   0  0  0  0  0  0  0  0  0  0  0  0
   15.1931  -16.0326  -16.1031 O   0  0  0  0  0  0  0  0  0  0  0  0
   20.0432   -8.8250  -20.2134 N   0  0  0  0  0  0  0  0  0  0  0  0
   19.9828   -8.6515  -18.8062 C   0  0  0  0  0  0  0  0  0  0  0  0
   20.5187   -7.6165  -18.3434 O   0  0  0  0  0  0  0  0  0  0  0  0
   19.3035   -9.6902  -18.0082 C   0  0  0  0  0  0  0  0  0  0  0  0
   20.2317  -10.7147  -17.4267 C   0  0  2  0  0  0  0  0  0  0  0  0
   19.5936  -11.6365  -16.5077 N   0  0  0  0  0  0  0  0  0  0  0  0
   21.4684  -10.1639  -16.8798 C   0  0  0  0  0  0  0  0  0  0  0  0
   21.4838   -9.8402  -15.6434 O   0  0  0  0  0  0  0  0  0  0  0  0
   22.6559   -9.9584  -17.6204 N   0  0  0  0  0  0  0  0  0  0  0  0
   23.8952   -9.4396  -17.0300 C   0  0  1  0  0  0  0  0  0  0  0  0
   25.0820   -9.7833  -17.8580 C   0  0  0  0  0  0  0  0  0  0  0  0
   26.3278   -9.2286  -17.2471 C   0  0  0  0  0  0  0  0  0  0  0  0
   27.5742   -9.5691  -18.0305 C   0  0  0  0  0  0  0  0  0  0  0  0
   28.8051   -8.9297  -17.4103 C   0  0  0  0  0  0  0  0  0  0  0  0
   30.0360   -9.4165  -17.9920 N   0  0  0  0  0  0  0  0  0  0  0  0
   23.7129   -7.9923  -16.7688 C   0  0  0  0  0  0  0  0  0  0  0  0
   23.9895   -7.3560  -15.5900 O   0  0  0  0  0  0  0  0  0  0  0  0
   23.2591   -7.2429  -17.7049 O   0  0  0  0  0  0  0  0  0  0  0  0
  2  3  1  0
  2  1  1  1
  4  3  1  0
  4  8  1  0
  5  4  2  0
  6  2  1  0
  7  6  2  0
  9 10  1  0
 10 12  1  0
 11 10  2  0
 13 12  1  1
 13 14  1  0
 14  6  1  0
 15 13  1  0
 15 17  1  0
 16 15  2  0
 18 19  1  6
 18 17  1  0
 20 21  1  0
 20 19  1  0
 22 21  1  0
 23 22  1  0
 24 18  1  0
 25 24  1  0
 26 24  2  0
M  END
$$$$
