DNK.pdb
     RDKit          3D

 26 25  0  0  1  0  0  0  0  0999 V2000
   17.0824  -11.0798  -12.7497 N   0  0  0  0  0  0  0  0  0  0  0  0
   15.9412  -10.4193  -13.2756 C   0  0  1  0  0  0  0  0  0  0  0  0
   14.7341  -11.2964  -12.9489 C   0  0  0  0  0  0  0  0  0  0  0  0
   14.9044  -12.6198  -13.6081 C   0  0  0  0  0  0  0  0  0  0  0  0
   16.0566  -13.1195  -13.7029 O   0  0  0  0  0  0  0  0  0  0  0  0
   15.7123   -9.0393  -12.8485 C   0  0  0  0  0  0  0  0  0  0  0  0
   14.7034   -8.3904  -13.3123 O   0  0  0  0  0  0  0  0  0  0  0  0
   13.8469  -13.3382  -14.1289 O   0  0  0  0  0  0  0  0  0  0  0  0
   14.9014   -7.7437   -9.3392 N   0  0  0  0  0  0  0  0  0  0  0  0
   16.1494   -7.1177   -9.0850 C   0  0  0  0  0  0  0  0  0  0  0  0
   16.5257   -7.0781   -7.8894 O   0  0  0  0  0  0  0  0  0  0  0  0
   16.8961   -6.5687  -10.2331 C   0  0  0  0  0  0  0  0  0  0  0  0
   16.3117   -6.9279  -11.5668 C   0  0  2  0  0  0  0  0  0  0  0  0
   16.5121   -8.3125  -11.9464 N   0  0  0  0  0  0  0  0  0  0  0  0
   16.6631   -6.0079  -12.6447 C   0  0  0  0  0  0  0  0  0  0  0  0
   17.8113   -6.1373  -13.1911 O   0  0  0  0  0  0  0  0  0  0  0  0
   15.8246   -4.9772  -13.1301 N   0  0  0  0  0  0  0  0  0  0  0  0
   16.1881   -4.1022  -14.2508 C   0  0  1  0  0  0  0  0  0  0  0  0
   15.1572   -4.1284  -15.3226 C   0  0  0  0  0  0  0  0  0  0  0  0
   15.5293   -3.2000  -16.4328 C   0  0  0  0  0  0  0  0  0  0  0  0
   14.5081   -3.1685  -17.5461 C   0  0  0  0  0  0  0  0  0  0  0  0
   14.9587   -2.2628  -18.6798 C   0  0  0  0  0  0  0  0  0  0  0  0
   13.9577   -2.1290  -19.7144 N   0  0  0  0  0  0  0  0  0  0  0  0
   16.4919   -2.7571  -13.7082 C   0  0  0  0  0  0  0  0  0  0  0  0
   16.0364   -2.2579  -12.5190 O   0  0  0  0  0  0  0  0  0  0  0  0
   17.2423   -1.9677  -14.3846 O   0  0  0  0  0  0  0  0  0  0  0  0
  2  3  1  0
  2  1  1  1
  4  3  1  0
  4  8  1  0
  5  4  2  0
  6  2  1  0
  7  6  2  0
  9 10  1  0
 10 12  1  0
 11 10  2  0
 13 12  1  1
 13 14  1  0
 14  6  1  0
 15 13  1  0
 15 17  1  0
 16 15  2  0
 18 19  1  6
 18 17  1  0
 20 21  1  0
 20 19  1  0
 22 21  1  0
 23 22  1  0
 24 18  1  0
 25 24  1  0
 26 24  2  0
M  END
$$$$
