DNK.pdb
     RDKit          3D

 26 25  0  0  1  0  0  0  0  0999 V2000
   19.0892  -11.2353  -16.7954 N   0  0  0  0  0  0  0  0  0  0  0  0
   18.3273  -10.9110  -15.6424 C   0  0  1  0  0  0  0  0  0  0  0  0
   18.3775  -12.1300  -14.7233 C   0  0  0  0  0  0  0  0  0  0  0  0
   17.7555  -13.2883  -15.4206 C   0  0  0  0  0  0  0  0  0  0  0  0
   18.0857  -13.5445  -16.6087 O   0  0  0  0  0  0  0  0  0  0  0  0
   18.6982   -9.6966  -14.9166 C   0  0  0  0  0  0  0  0  0  0  0  0
   18.0622   -9.3784  -13.8449 O   0  0  0  0  0  0  0  0  0  0  0  0
   16.8207  -14.1087  -14.8216 O   0  0  0  0  0  0  0  0  0  0  0  0
   22.5992   -5.3316  -14.0491 N   0  0  0  0  0  0  0  0  0  0  0  0
   21.8158   -6.2920  -13.3578 C   0  0  0  0  0  0  0  0  0  0  0  0
   21.4754   -6.0024  -12.1861 O   0  0  0  0  0  0  0  0  0  0  0  0
   21.4686   -7.5407  -14.0631 C   0  0  0  0  0  0  0  0  0  0  0  0
   20.0602   -7.5776  -14.5772 C   0  0  2  0  0  0  0  0  0  0  0  0
   19.7195   -8.7986  -15.2804 N   0  0  0  0  0  0  0  0  0  0  0  0
   19.6603   -6.3869  -15.3215 C   0  0  0  0  0  0  0  0  0  0  0  0
   20.0249   -6.2945  -16.5430 O   0  0  0  0  0  0  0  0  0  0  0  0
   18.8981   -5.3213  -14.7882 N   0  0  0  0  0  0  0  0  0  0  0  0
   18.5563   -4.1140  -15.5494 C   0  0  1  0  0  0  0  0  0  0  0  0
   17.1754   -3.6501  -15.2491 C   0  0  0  0  0  0  0  0  0  0  0  0
   16.8319   -2.4528  -16.0747 C   0  0  0  0  0  0  0  0  0  0  0  0
   15.4377   -1.9325  -15.8123 C   0  0  0  0  0  0  0  0  0  0  0  0
   15.1448   -0.6990  -16.6496 C   0  0  0  0  0  0  0  0  0  0  0  0
   13.8513   -0.1236  -16.3562 N   0  0  0  0  0  0  0  0  0  0  0  0
   19.6183   -3.1063  -15.3203 C   0  0  0  0  0  0  0  0  0  0  0  0
   20.3265   -2.4614  -16.2967 O   0  0  0  0  0  0  0  0  0  0  0  0
   19.9253   -2.7878  -14.1170 O   0  0  0  0  0  0  0  0  0  0  0  0
  2  3  1  0
  2  1  1  6
  4  3  1  0
  4  8  1  0
  5  4  2  0
  6  2  1  0
  7  6  2  0
  9 10  1  0
 10 12  1  0
 11 10  2  0
 13 12  1  6
 13 14  1  0
 14  6  1  0
 15 13  1  0
 15 17  1  0
 16 15  2  0
 18 19  1  1
 18 17  1  0
 20 21  1  0
 20 19  1  0
 22 21  1  0
 23 22  1  0
 24 18  1  0
 25 24  1  0
 26 24  2  0
M  END
$$$$
