FHI.pdb
     RDKit          3D

 30 31  0  0  1  0  0  0  0  0999 V2000
    9.0243  -18.1008   18.5391 N   0  0  0  0  0  0  0  0  0  0  0  0
    8.9151  -16.8789   19.2923 C   0  0  1  0  0  0  0  0  0  0  0  0
    8.0118  -15.9108   18.5694 C   0  0  0  0  0  0  0  0  0  0  0  0
    7.9229  -14.6424   19.3090 C   0  0  0  0  0  0  0  0  0  0  0  0
    8.8433  -13.6576   19.0470 C   0  0  0  0  0  0  0  0  0  0  0  0
    8.7462  -12.4753   19.7486 C   0  0  0  0  0  0  0  0  0  0  0  0
    7.7562  -12.2839   20.6858 C   0  0  0  0  0  0  0  0  0  0  0  0
    6.8271  -13.2664   20.9564 C   0  0  0  0  0  0  0  0  0  0  0  0
    6.9306  -14.4535   20.2469 C   0  0  0  0  0  0  0  0  0  0  0  0
    8.3962  -17.0680   20.6479 C   0  0  0  0  0  0  0  0  0  0  0  0
    7.2414  -17.5463   20.7785 O   0  0  0  0  0  0  0  0  0  0  0  0
    9.1055  -16.7489   21.8514 N   0  0  0  0  0  0  0  0  0  0  0  0
    8.5036  -16.8946   23.1543 C   0  0  1  0  0  0  0  0  0  0  0  0
    8.5479  -18.2621   23.7311 C   0  0  0  0  0  0  0  0  0  0  0  0
    9.7747  -19.0330   23.5817 C   0  0  0  0  0  0  0  0  0  0  0  0
   10.9688  -18.7754   23.0111 C   0  0  0  0  0  0  0  0  0  0  0  0
   11.8210  -19.8288   23.1508 N   0  0  0  0  0  0  0  0  0  0  0  0
   11.1127  -20.7387   23.8243 C   0  0  0  0  0  0  0  0  0  0  0  0
    9.8946  -20.3028   24.0977 N   0  0  0  0  0  0  0  0  0  0  0  0
    9.1460  -15.9502   24.0936 C   0  0  0  0  0  0  0  0  0  0  0  0
   10.3033  -15.5678   23.8738 O   0  0  0  0  0  0  0  0  0  0  0  0
    6.0617  -12.1660   26.3264 C   0  0  0  0  0  0  0  0  0  0  0  0
    7.1852  -12.9772   25.7262 C   0  0  0  0  0  0  0  0  0  0  0  0
    8.0444  -13.6484   26.7527 C   0  0  2  0  0  0  0  0  0  0  0  0
    8.6744  -12.5746   27.6031 C   0  0  0  0  0  0  0  0  0  0  0  0
    9.0593  -14.5648   26.1463 C   0  0  2  0  0  0  0  0  0  0  0  0
    8.4395  -15.5000   25.2185 N   0  0  0  0  0  0  0  0  0  0  0  0
    9.7772  -15.3360   27.1740 C   0  0  0  0  0  0  0  0  0  0  0  0
   10.9820  -14.8633   27.6988 O   0  0  0  0  0  0  0  0  0  0  0  0
    9.3918  -16.4355   27.6501 O   0  0  0  0  0  0  0  0  0  0  0  0
  2  1  1  6
  2 10  1  0
  2  3  1  0
  3  4  1  0
  4  9  2  0
  5  6  2  0
  5  4  1  0
  6  7  1  0
  7  8  2  0
  9  8  1  0
 10 12  1  0
 10 11  2  0
 12 13  1  0
 13 20  1  0
 14 15  1  0
 13 14  1  1
 15 19  1  0
 15 16  2  0
 16 17  1  0
 18 17  1  0
 19 18  2  0
 20 27  1  0
 20 21  2  0
 22 23  1  0
 23 24  1  0
 24 26  1  0
 24 25  1  6
 26 28  1  0
 26 27  1  6
 28 30  2  0
 28 29  1  0
M  END
$$$$
