FHI.pdb
     RDKit          3D

 30 31  0  0  1  0  0  0  0  0999 V2000
    8.3864  -16.8287   19.6009 N   0  0  0  0  0  0  0  0  0  0  0  0
    9.5233  -16.6572   20.4671 C   0  0  1  0  0  0  0  0  0  0  0  0
   10.0393  -15.2436   20.3608 C   0  0  0  0  0  0  0  0  0  0  0  0
    8.9206  -14.2984   20.2238 C   0  0  0  0  0  0  0  0  0  0  0  0
    8.5997  -13.8294   18.9736 C   0  0  0  0  0  0  0  0  0  0  0  0
    7.5490  -12.9444   18.8625 C   0  0  0  0  0  0  0  0  0  0  0  0
    6.8395  -12.5401   19.9708 C   0  0  0  0  0  0  0  0  0  0  0  0
    7.1537  -13.0051   21.2306 C   0  0  0  0  0  0  0  0  0  0  0  0
    8.2119  -13.8953   21.3352 C   0  0  0  0  0  0  0  0  0  0  0  0
    9.2377  -16.9383   21.8749 C   0  0  0  0  0  0  0  0  0  0  0  0
    8.0411  -16.8953   22.2564 O   0  0  0  0  0  0  0  0  0  0  0  0
   10.2222  -17.2621   22.8645 N   0  0  0  0  0  0  0  0  0  0  0  0
    9.8663  -17.5333   24.2359 C   0  0  1  0  0  0  0  0  0  0  0  0
   10.4935  -18.7390   24.8341 C   0  0  0  0  0  0  0  0  0  0  0  0
   10.1496  -20.0411   24.2793 C   0  0  0  0  0  0  0  0  0  0  0  0
    9.0920  -20.5027   23.5819 C   0  0  0  0  0  0  0  0  0  0  0  0
    9.2453  -21.8182   23.2641 N   0  0  0  0  0  0  0  0  0  0  0  0
   10.4288  -22.1480   23.7877 C   0  0  0  0  0  0  0  0  0  0  0  0
   10.9949  -21.1202   24.3974 N   0  0  0  0  0  0  0  0  0  0  0  0
   10.1945  -16.3532   25.0646 C   0  0  0  0  0  0  0  0  0  0  0  0
   11.2079  -15.6908   24.8036 O   0  0  0  0  0  0  0  0  0  0  0  0
    6.6808  -12.6671   26.2719 C   0  0  0  0  0  0  0  0  0  0  0  0
    7.9133  -13.5034   26.0221 C   0  0  0  0  0  0  0  0  0  0  0  0
    8.5525  -14.0055   27.2798 C   0  0  2  0  0  0  0  0  0  0  0  0
    8.9219  -12.8101   28.1208 C   0  0  0  0  0  0  0  0  0  0  0  0
    9.7217  -14.9005   27.0156 C   0  0  2  0  0  0  0  0  0  0  0  0
    9.3573  -15.9993   26.1326 N   0  0  0  0  0  0  0  0  0  0  0  0
   10.2654  -15.4654   28.2611 C   0  0  0  0  0  0  0  0  0  0  0  0
   11.3091  -14.8235   28.9313 O   0  0  0  0  0  0  0  0  0  0  0  0
    9.8611  -16.5240   28.8089 O   0  0  0  0  0  0  0  0  0  0  0  0
  2  1  1  6
  2 10  1  0
  2  3  1  0
  3  4  1  0
  4  9  2  0
  5  6  2  0
  5  4  1  0
  6  7  1  0
  7  8  2  0
  9  8  1  0
 10 12  1  0
 10 11  2  0
 12 13  1  0
 13 20  1  0
 14 15  1  0
 13 14  1  1
 15 19  1  0
 15 16  2  0
 16 17  1  0
 18 17  1  0
 19 18  2  0
 20 27  1  0
 20 21  2  0
 22 23  1  0
 23 24  1  0
 24 26  1  0
 24 25  1  1
 26 28  1  0
 26 27  1  6
 28 30  2  0
 28 29  1  0
M  END
$$$$
