FHI.pdb
     RDKit          3D

 30 31  0  0  1  0  0  0  0  0999 V2000
    6.6544  -17.8941   20.0530 N   0  0  0  0  0  0  0  0  0  0  0  0
    7.2357  -16.8011   20.7877 C   0  0  1  0  0  0  0  0  0  0  0  0
    6.2954  -15.6214   20.7799 C   0  0  0  0  0  0  0  0  0  0  0  0
    7.0463  -14.3683   20.6081 C   0  0  0  0  0  0  0  0  0  0  0  0
    7.2719  -13.5760   21.7068 C   0  0  0  0  0  0  0  0  0  0  0  0
    7.9770  -12.4053   21.5288 C   0  0  0  0  0  0  0  0  0  0  0  0
    8.4432  -12.0377   20.2868 C   0  0  0  0  0  0  0  0  0  0  0  0
    8.2222  -12.8262   19.1772 C   0  0  0  0  0  0  0  0  0  0  0  0
    7.5120  -14.0028   19.3633 C   0  0  0  0  0  0  0  0  0  0  0  0
    7.5507  -17.1294   22.1790 C   0  0  0  0  0  0  0  0  0  0  0  0
    6.5991  -17.2304   22.9935 O   0  0  0  0  0  0  0  0  0  0  0  0
    8.8702  -17.3474   22.6934 N   0  0  0  0  0  0  0  0  0  0  0  0
    9.1058  -17.6720   24.0792 C   0  0  1  0  0  0  0  0  0  0  0  0
   10.0749  -18.7699   24.3241 C   0  0  0  0  0  0  0  0  0  0  0  0
   10.3565  -19.1449   25.7032 C   0  0  0  0  0  0  0  0  0  0  0  0
    9.7892  -18.8294   26.8849 C   0  0  0  0  0  0  0  0  0  0  0  0
   10.4124  -19.4627   27.9172 N   0  0  0  0  0  0  0  0  0  0  0  0
   11.3778  -20.1758   27.3318 C   0  0  0  0  0  0  0  0  0  0  0  0
   11.3759  -20.0130   26.0195 N   0  0  0  0  0  0  0  0  0  0  0  0
    9.5575  -16.4573   24.7916 C   0  0  0  0  0  0  0  0  0  0  0  0
   10.5078  -15.8052   24.3380 O   0  0  0  0  0  0  0  0  0  0  0  0
    6.2594  -12.7197   26.3959 C   0  0  0  0  0  0  0  0  0  0  0  0
    7.4696  -13.5230   25.9825 C   0  0  0  0  0  0  0  0  0  0  0  0
    8.2747  -14.0199   27.1431 C   0  0  2  0  0  0  0  0  0  0  0  0
    8.7553  -12.8210   27.9206 C   0  0  0  0  0  0  0  0  0  0  0  0
    9.3970  -14.9165   26.7256 C   0  0  2  0  0  0  0  0  0  0  0  0
    8.9068  -16.0594   25.9686 N   0  0  0  0  0  0  0  0  0  0  0  0
   10.1529  -15.4163   27.8854 C   0  0  0  0  0  0  0  0  0  0  0  0
   11.3808  -14.8456   28.2275 O   0  0  0  0  0  0  0  0  0  0  0  0
    9.7819  -16.3553   28.6368 O   0  0  0  0  0  0  0  0  0  0  0  0
  2  1  1  1
  2 10  1  0
  2  3  1  0
  3  4  1  0
  4  9  2  0
  5  6  2  0
  5  4  1  0
  6  7  1  0
  7  8  2  0
  9  8  1  0
 10 12  1  0
 10 11  2  0
 12 13  1  0
 13 20  1  0
 14 15  1  0
 13 14  1  6
 15 19  1  0
 15 16  2  0
 16 17  1  0
 18 17  1  0
 19 18  2  0
 20 27  1  0
 20 21  2  0
 22 23  1  0
 23 24  1  0
 24 26  1  0
 24 25  1  6
 26 28  1  0
 26 27  1  1
 28 30  2  0
 28 29  1  0
M  END
$$$$
