FHI.pdb
     RDKit          3D

 30 31  0  0  1  0  0  0  0  0999 V2000
    8.0415  -17.6394   18.3210 N   0  0  0  0  0  0  0  0  0  0  0  0
    8.3083  -16.4761   19.1258 C   0  0  1  0  0  0  0  0  0  0  0  0
    7.2567  -15.4249   18.8708 C   0  0  0  0  0  0  0  0  0  0  0  0
    7.5607  -14.2012   19.6284 C   0  0  0  0  0  0  0  0  0  0  0  0
    6.9759  -14.0215   20.8578 C   0  0  0  0  0  0  0  0  0  0  0  0
    7.2711  -12.8696   21.5545 C   0  0  0  0  0  0  0  0  0  0  0  0
    8.1271  -11.9244   21.0360 C   0  0  0  0  0  0  0  0  0  0  0  0
    8.7195  -12.0953   19.8024 C   0  0  0  0  0  0  0  0  0  0  0  0
    8.4182  -13.2565   19.1067 C   0  0  0  0  0  0  0  0  0  0  0  0
    8.3452  -16.7511   20.5630 C   0  0  0  0  0  0  0  0  0  0  0  0
    7.3037  -17.1962   21.1076 O   0  0  0  0  0  0  0  0  0  0  0  0
    9.4845  -16.5520   21.4089 N   0  0  0  0  0  0  0  0  0  0  0  0
    9.5001  -16.9870   22.7843 C   0  0  1  0  0  0  0  0  0  0  0  0
   10.5857  -17.9338   23.1445 C   0  0  0  0  0  0  0  0  0  0  0  0
   10.5218  -19.2888   22.6140 C   0  0  0  0  0  0  0  0  0  0  0  0
    9.5076  -20.0808   22.2113 C   0  0  0  0  0  0  0  0  0  0  0  0
    9.9663  -21.2835   21.7660 N   0  0  0  0  0  0  0  0  0  0  0  0
   11.2918  -21.2037   21.9077 C   0  0  0  0  0  0  0  0  0  0  0  0
   11.6586  -20.0357   22.4076 N   0  0  0  0  0  0  0  0  0  0  0  0
    9.5759  -15.8026   23.6666 C   0  0  0  0  0  0  0  0  0  0  0  0
   10.3946  -14.9084   23.4138 O   0  0  0  0  0  0  0  0  0  0  0  0
    6.4164  -11.8903   26.9215 C   0  0  0  0  0  0  0  0  0  0  0  0
    7.6747  -12.7213   26.8397 C   0  0  0  0  0  0  0  0  0  0  0  0
    7.5745  -13.8522   25.8633 C   0  0  2  0  0  0  0  0  0  0  0  0
    6.4397  -14.7430   26.3011 C   0  0  0  0  0  0  0  0  0  0  0  0
    8.8612  -14.6000   25.7119 C   0  0  2  0  0  0  0  0  0  0  0  0
    8.7226  -15.7062   24.7755 N   0  0  0  0  0  0  0  0  0  0  0  0
    9.3320  -15.1365   26.9991 C   0  0  0  0  0  0  0  0  0  0  0  0
    9.2613  -16.5063   27.2618 O   0  0  0  0  0  0  0  0  0  0  0  0
    9.8166  -14.4462   27.9333 O   0  0  0  0  0  0  0  0  0  0  0  0
  2  1  1  6
  2 10  1  0
  2  3  1  0
  3  4  1  0
  4  9  2  0
  5  6  2  0
  5  4  1  0
  6  7  1  0
  7  8  2  0
  9  8  1  0
 10 12  1  0
 10 11  2  0
 12 13  1  0
 13 20  1  0
 14 15  1  0
 13 14  1  6
 15 19  1  0
 15 16  2  0
 16 17  1  0
 18 17  1  0
 19 18  2  0
 20 27  1  0
 20 21  2  0
 22 23  1  0
 23 24  1  0
 24 26  1  0
 24 25  1  1
 26 28  1  0
 26 27  1  6
 28 30  2  0
 28 29  1  0
M  END
$$$$
