FHI.pdb
     RDKit          3D

 30 31  0  0  1  0  0  0  0  0999 V2000
    8.3050  -17.7853   18.8186 N   0  0  0  0  0  0  0  0  0  0  0  0
    8.4612  -16.6142   19.6410 C   0  0  1  0  0  0  0  0  0  0  0  0
    7.3089  -15.6685   19.4093 C   0  0  0  0  0  0  0  0  0  0  0  0
    7.4872  -14.4400   20.1985 C   0  0  0  0  0  0  0  0  0  0  0  0
    6.9495  -14.3803   21.4607 C   0  0  0  0  0  0  0  0  0  0  0  0
    7.1255  -13.2222   22.1868 C   0  0  0  0  0  0  0  0  0  0  0  0
    7.8197  -12.1542   21.6650 C   0  0  0  0  0  0  0  0  0  0  0  0
    8.3636  -12.2039   20.3986 C   0  0  0  0  0  0  0  0  0  0  0  0
    8.1828  -13.3721   19.6734 C   0  0  0  0  0  0  0  0  0  0  0  0
    8.5354  -16.9071   21.0733 C   0  0  0  0  0  0  0  0  0  0  0  0
    7.5877  -17.5449   21.5970 O   0  0  0  0  0  0  0  0  0  0  0  0
    9.6124  -16.5216   21.9362 N   0  0  0  0  0  0  0  0  0  0  0  0
    9.6804  -16.9513   23.3117 C   0  0  1  0  0  0  0  0  0  0  0  0
   10.6871  -18.0026   23.6053 C   0  0  0  0  0  0  0  0  0  0  0  0
   10.5890  -19.2684   22.8915 C   0  0  0  0  0  0  0  0  0  0  0  0
    9.7555  -19.7349   21.9398 C   0  0  0  0  0  0  0  0  0  0  0  0
   10.0896  -21.0019   21.5679 N   0  0  0  0  0  0  0  0  0  0  0  0
   11.1527  -21.2968   22.3202 C   0  0  0  0  0  0  0  0  0  0  0  0
   11.4785  -20.2934   23.1174 N   0  0  0  0  0  0  0  0  0  0  0  0
    9.9378  -15.7778   24.1741 C   0  0  0  0  0  0  0  0  0  0  0  0
   10.8150  -14.9661   23.8493 O   0  0  0  0  0  0  0  0  0  0  0  0
    6.2370  -12.6327   26.1841 C   0  0  0  0  0  0  0  0  0  0  0  0
    7.5002  -13.3002   25.6948 C   0  0  0  0  0  0  0  0  0  0  0  0
    8.3563  -13.8310   26.8028 C   0  0  2  0  0  0  0  0  0  0  0  0
    8.7201  -12.6761   27.7009 C   0  0  0  0  0  0  0  0  0  0  0  0
    9.5595  -14.5651   26.3017 C   0  0  2  0  0  0  0  0  0  0  0  0
    9.1881  -15.5985   25.3458 N   0  0  0  0  0  0  0  0  0  0  0  0
   10.3077  -15.1958   27.4011 C   0  0  0  0  0  0  0  0  0  0  0  0
    9.9435  -16.4601   27.8693 O   0  0  0  0  0  0  0  0  0  0  0  0
   11.2934  -14.6807   27.9903 O   0  0  0  0  0  0  0  0  0  0  0  0
  2  1  1  6
  2 10  1  0
  2  3  1  0
  3  4  1  0
  4  9  2  0
  5  6  2  0
  5  4  1  0
  6  7  1  0
  7  8  2  0
  9  8  1  0
 10 12  1  0
 10 11  2  0
 12 13  1  0
 13 20  1  0
 14 15  1  0
 13 14  1  6
 15 19  1  0
 15 16  2  0
 16 17  1  0
 18 17  1  0
 19 18  2  0
 20 27  1  0
 20 21  2  0
 22 23  1  0
 23 24  1  0
 24 26  1  0
 24 25  1  1
 26 28  1  0
 26 27  1  6
 28 30  2  0
 28 29  1  0
M  END
$$$$
