FHI.pdb
     RDKit          3D

 30 31  0  0  1  0  0  0  0  0999 V2000
    8.6957  -17.6224   18.0865 N   0  0  0  0  0  0  0  0  0  0  0  0
    8.7620  -16.4579   18.9302 C   0  0  1  0  0  0  0  0  0  0  0  0
    7.7282  -15.4497   18.4936 C   0  0  0  0  0  0  0  0  0  0  0  0
    7.7184  -14.2969   19.4071 C   0  0  0  0  0  0  0  0  0  0  0  0
    6.8471  -14.3009   20.4685 C   0  0  0  0  0  0  0  0  0  0  0  0
    6.8504  -13.2132   21.3149 C   0  0  0  0  0  0  0  0  0  0  0  0
    7.7014  -12.1516   21.1053 C   0  0  0  0  0  0  0  0  0  0  0  0
    8.5802  -12.1378   20.0425 C   0  0  0  0  0  0  0  0  0  0  0  0
    8.5717  -13.2354   19.1948 C   0  0  0  0  0  0  0  0  0  0  0  0
    8.5518  -16.7474   20.3496 C   0  0  0  0  0  0  0  0  0  0  0  0
    7.5206  -17.3865   20.6772 O   0  0  0  0  0  0  0  0  0  0  0  0
    9.4359  -16.3571   21.4077 N   0  0  0  0  0  0  0  0  0  0  0  0
    9.2267  -16.7769   22.7719 C   0  0  1  0  0  0  0  0  0  0  0  0
   10.0456  -17.9317   23.2196 C   0  0  0  0  0  0  0  0  0  0  0  0
    9.8817  -19.2021   22.5261 C   0  0  0  0  0  0  0  0  0  0  0  0
    9.1015  -19.6074   21.5039 C   0  0  0  0  0  0  0  0  0  0  0  0
    9.3306  -20.9140   21.1950 N   0  0  0  0  0  0  0  0  0  0  0  0
   10.2748  -21.2962   22.0585 C   0  0  0  0  0  0  0  0  0  0  0  0
   10.6270  -20.3082   22.8637 N   0  0  0  0  0  0  0  0  0  0  0  0
    9.4688  -15.6307   23.6744 C   0  0  0  0  0  0  0  0  0  0  0  0
   10.3975  -14.8492   23.4280 O   0  0  0  0  0  0  0  0  0  0  0  0
    5.6747  -12.9787   26.9269 C   0  0  0  0  0  0  0  0  0  0  0  0
    6.6569  -14.0224   26.4508 C   0  0  0  0  0  0  0  0  0  0  0  0
    7.9687  -13.4456   26.0160 C   0  0  2  0  0  0  0  0  0  0  0  0
    7.7283  -12.6392   24.7651 C   0  0  0  0  0  0  0  0  0  0  0  0
    9.0242  -14.4888   25.8283 C   0  0  2  0  0  0  0  0  0  0  0  0
    8.6467  -15.4427   24.7951 N   0  0  0  0  0  0  0  0  0  0  0  0
    9.2828  -15.2298   27.0734 C   0  0  0  0  0  0  0  0  0  0  0  0
    9.8799  -14.5928   28.1634 O   0  0  0  0  0  0  0  0  0  0  0  0
    9.0042  -16.4427   27.2611 O   0  0  0  0  0  0  0  0  0  0  0  0
  2  1  1  6
  2 10  1  0
  2  3  1  0
  3  4  1  0
  4  9  2  0
  5  6  2  0
  5  4  1  0
  6  7  1  0
  7  8  2  0
  9  8  1  0
 10 12  1  0
 10 11  2  0
 12 13  1  0
 13 20  1  0
 14 15  1  0
 13 14  1  1
 15 19  1  0
 15 16  2  0
 16 17  1  0
 18 17  1  0
 19 18  2  0
 20 27  1  0
 20 21  2  0
 22 23  1  0
 23 24  1  0
 24 26  1  0
 24 25  1  6
 26 28  1  0
 26 27  1  6
 28 30  2  0
 28 29  1  0
M  END
$$$$
