FHI.pdb
     RDKit          3D

 30 31  0  0  1  0  0  0  0  0999 V2000
    7.9199  -18.0317   18.9173 N   0  0  0  0  0  0  0  0  0  0  0  0
    8.0962  -16.8425   19.7091 C   0  0  1  0  0  0  0  0  0  0  0  0
    7.0166  -15.8422   19.3780 C   0  0  0  0  0  0  0  0  0  0  0  0
    7.2616  -14.5724   20.0790 C   0  0  0  0  0  0  0  0  0  0  0  0
    8.0235  -13.6115   19.4610 C   0  0  0  0  0  0  0  0  0  0  0  0
    8.2436  -12.4276   20.1313 C   0  0  0  0  0  0  0  0  0  0  0  0
    7.7164  -12.2113   21.3844 C   0  0  0  0  0  0  0  0  0  0  0  0
    6.9500  -13.1696   22.0138 C   0  0  0  0  0  0  0  0  0  0  0  0
    6.7324  -14.3585   21.3337 C   0  0  0  0  0  0  0  0  0  0  0  0
    8.0698  -17.0874   21.1521 C   0  0  0  0  0  0  0  0  0  0  0  0
    7.0078  -17.5292   21.6583 O   0  0  0  0  0  0  0  0  0  0  0  0
    9.1683  -16.8621   22.0441 N   0  0  0  0  0  0  0  0  0  0  0  0
    9.0893  -17.1807   23.4489 C   0  0  1  0  0  0  0  0  0  0  0  0
    9.8447  -18.3855   23.8760 C   0  0  0  0  0  0  0  0  0  0  0  0
    9.4808  -19.6693   23.2919 C   0  0  0  0  0  0  0  0  0  0  0  0
    8.3470  -20.3988   23.2875 C   0  0  0  0  0  0  0  0  0  0  0  0
    8.5003  -21.5465   22.5701 N   0  0  0  0  0  0  0  0  0  0  0  0
    9.7619  -21.4972   22.1351 C   0  0  0  0  0  0  0  0  0  0  0  0
   10.3750  -20.3989   22.5428 N   0  0  0  0  0  0  0  0  0  0  0  0
    9.5469  -16.0158   24.2367 C   0  0  0  0  0  0  0  0  0  0  0  0
   10.5975  -15.4424   23.9187 O   0  0  0  0  0  0  0  0  0  0  0  0
    6.1948  -12.2174   25.7436 C   0  0  0  0  0  0  0  0  0  0  0  0
    7.4182  -13.0189   25.3673 C   0  0  0  0  0  0  0  0  0  0  0  0
    8.1564  -13.5629   26.5513 C   0  0  2  0  0  0  0  0  0  0  0  0
    8.6354  -12.3948   27.3752 C   0  0  0  0  0  0  0  0  0  0  0  0
    9.2704  -14.4831   26.1641 C   0  0  2  0  0  0  0  0  0  0  0  0
    8.7883  -15.5756   25.3312 N   0  0  0  0  0  0  0  0  0  0  0  0
    9.9357  -15.0570   27.3449 C   0  0  0  0  0  0  0  0  0  0  0  0
    9.5594  -16.3125   27.8272 O   0  0  0  0  0  0  0  0  0  0  0  0
   10.8573  -14.4985   27.9952 O   0  0  0  0  0  0  0  0  0  0  0  0
  2  1  1  6
  2 10  1  0
  2  3  1  0
  3  4  1  0
  4  9  2  0
  5  6  2  0
  5  4  1  0
  6  7  1  0
  7  8  2  0
  9  8  1  0
 10 12  1  0
 10 11  2  0
 12 13  1  0
 13 20  1  0
 14 15  1  0
 13 14  1  6
 15 19  1  0
 15 16  2  0
 16 17  1  0
 18 17  1  0
 19 18  2  0
 20 27  1  0
 20 21  2  0
 22 23  1  0
 23 24  1  0
 24 26  1  0
 24 25  1  6
 26 28  1  0
 26 27  1  6
 28 30  2  0
 28 29  1  0
M  END
$$$$
