FHI.pdb
     RDKit          3D

 30 31  0  0  1  0  0  0  0  0999 V2000
    8.3861  -18.4340   18.8941 N   0  0  0  0  0  0  0  0  0  0  0  0
    8.4110  -17.1487   19.5419 C   0  0  1  0  0  0  0  0  0  0  0  0
    7.5836  -16.1627   18.7552 C   0  0  0  0  0  0  0  0  0  0  0  0
    7.5724  -14.8532   19.4251 C   0  0  0  0  0  0  0  0  0  0  0  0
    8.5861  -13.9655   19.1603 C   0  0  0  0  0  0  0  0  0  0  0  0
    8.5608  -12.7431   19.7962 C   0  0  0  0  0  0  0  0  0  0  0  0
    7.5500  -12.4179   20.6723 C   0  0  0  0  0  0  0  0  0  0  0  0
    6.5274  -13.3021   20.9452 C   0  0  0  0  0  0  0  0  0  0  0  0
    6.5589  -14.5303   20.3019 C   0  0  0  0  0  0  0  0  0  0  0  0
    7.9120  -17.1739   20.9178 C   0  0  0  0  0  0  0  0  0  0  0  0
    6.6742  -17.2970   21.0965 O   0  0  0  0  0  0  0  0  0  0  0  0
    8.7288  -17.0686   22.0904 N   0  0  0  0  0  0  0  0  0  0  0  0
    8.1595  -16.9928   23.4137 C   0  0  1  0  0  0  0  0  0  0  0  0
    8.1999  -18.2507   24.2016 C   0  0  0  0  0  0  0  0  0  0  0  0
    7.5355  -19.4265   23.6560 C   0  0  0  0  0  0  0  0  0  0  0  0
    6.8327  -19.6558   22.5285 C   0  0  0  0  0  0  0  0  0  0  0  0
    6.4229  -20.9527   22.4564 N   0  0  0  0  0  0  0  0  0  0  0  0
    6.8965  -21.5106   23.5734 C   0  0  0  0  0  0  0  0  0  0  0  0
    7.5618  -20.6368   24.3099 N   0  0  0  0  0  0  0  0  0  0  0  0
    8.8394  -15.9216   24.1734 C   0  0  0  0  0  0  0  0  0  0  0  0
   10.0681  -15.7971   24.0804 O   0  0  0  0  0  0  0  0  0  0  0  0
    6.1557  -11.2849   26.2500 C   0  0  0  0  0  0  0  0  0  0  0  0
    6.6995  -12.6847   26.0905 C   0  0  0  0  0  0  0  0  0  0  0  0
    8.1300  -12.7170   25.6488 C   0  0  2  0  0  0  0  0  0  0  0  0
    8.1859  -12.2276   24.2239 C   0  0  0  0  0  0  0  0  0  0  0  0
    8.7548  -14.0661   25.8137 C   0  0  2  0  0  0  0  0  0  0  0  0
    8.0875  -15.0622   24.9877 N   0  0  0  0  0  0  0  0  0  0  0  0
    8.7104  -14.5175   27.2138 C   0  0  0  0  0  0  0  0  0  0  0  0
    9.4906  -13.8858   28.1848 O   0  0  0  0  0  0  0  0  0  0  0  0
    8.0022  -15.4652   27.6432 O   0  0  0  0  0  0  0  0  0  0  0  0
  2  1  1  6
  2 10  1  0
  2  3  1  0
  3  4  1  0
  4  9  2  0
  5  6  2  0
  5  4  1  0
  6  7  1  0
  7  8  2  0
  9  8  1  0
 10 12  1  0
 10 11  2  0
 12 13  1  0
 13 20  1  0
 14 15  1  0
 13 14  1  1
 15 19  1  0
 15 16  2  0
 16 17  1  0
 18 17  1  0
 19 18  2  0
 20 27  1  0
 20 21  2  0
 22 23  1  0
 23 24  1  0
 24 26  1  0
 24 25  1  6
 26 28  1  0
 26 27  1  6
 28 30  2  0
 28 29  1  0
M  END
$$$$
