FHI.pdb
     RDKit          3D

 30 31  0  0  1  0  0  0  0  0999 V2000
    7.4645  -16.0022   19.9004 N   0  0  0  0  0  0  0  0  0  0  0  0
    7.8010  -15.3040   21.1134 C   0  0  1  0  0  0  0  0  0  0  0  0
    6.5755  -14.6212   21.6681 C   0  0  0  0  0  0  0  0  0  0  0  0
    6.9453  -13.7198   22.7701 C   0  0  0  0  0  0  0  0  0  0  0  0
    7.5548  -12.5258   22.4723 C   0  0  0  0  0  0  0  0  0  0  0  0
    7.8948  -11.6928   23.5163 C   0  0  0  0  0  0  0  0  0  0  0  0
    7.6326  -12.0444   24.8211 C   0  0  0  0  0  0  0  0  0  0  0  0
    7.0210  -13.2410   25.1308 C   0  0  0  0  0  0  0  0  0  0  0  0
    6.6814  -14.0745   24.0757 C   0  0  0  0  0  0  0  0  0  0  0  0
    8.3570  -16.1692   22.1550 C   0  0  0  0  0  0  0  0  0  0  0  0
    7.5820  -16.9707   22.7350 O   0  0  0  0  0  0  0  0  0  0  0  0
    9.7280  -16.1770   22.5718 N   0  0  0  0  0  0  0  0  0  0  0  0
   10.2422  -17.1655   23.4880 C   0  0  1  0  0  0  0  0  0  0  0  0
   11.2949  -18.0590   22.9418 C   0  0  0  0  0  0  0  0  0  0  0  0
   10.9349  -18.9666   21.8609 C   0  0  0  0  0  0  0  0  0  0  0  0
    9.7713  -19.2653   21.2487 C   0  0  0  0  0  0  0  0  0  0  0  0
    9.9548  -20.1823   20.2585 N   0  0  0  0  0  0  0  0  0  0  0  0
   11.2657  -20.4356   20.2826 C   0  0  0  0  0  0  0  0  0  0  0  0
   11.8802  -19.7334   21.2195 N   0  0  0  0  0  0  0  0  0  0  0  0
   10.7605  -16.4852   24.6945 C   0  0  0  0  0  0  0  0  0  0  0  0
   11.5218  -15.5169   24.5659 O   0  0  0  0  0  0  0  0  0  0  0  0
   10.0250  -13.4370   29.4235 C   0  0  0  0  0  0  0  0  0  0  0  0
   10.6797  -14.7357   29.0168 C   0  0  0  0  0  0  0  0  0  0  0  0
   10.1086  -15.3185   27.7612 C   0  0  2  0  0  0  0  0  0  0  0  0
    8.7290  -15.8377   28.0773 C   0  0  0  0  0  0  0  0  0  0  0  0
   10.9889  -16.3674   27.1591 C   0  0  2  0  0  0  0  0  0  0  0  0
   10.3851  -16.9431   25.9659 N   0  0  0  0  0  0  0  0  0  0  0  0
   11.2664  -17.4552   28.1110 C   0  0  0  0  0  0  0  0  0  0  0  0
   10.6977  -18.7174   27.9267 O   0  0  0  0  0  0  0  0  0  0  0  0
   12.0035  -17.3537   29.1261 O   0  0  0  0  0  0  0  0  0  0  0  0
  2  1  1  6
  2 10  1  0
  2  3  1  0
  3  4  1  0
  4  9  2  0
  5  6  2  0
  5  4  1  0
  6  7  1  0
  7  8  2  0
  9  8  1  0
 10 12  1  0
 10 11  2  0
 12 13  1  0
 13 20  1  0
 14 15  1  0
 13 14  1  6
 15 19  1  0
 15 16  2  0
 16 17  1  0
 18 17  1  0
 19 18  2  0
 20 27  1  0
 20 21  2  0
 22 23  1  0
 23 24  1  0
 24 26  1  0
 24 25  1  1
 26 28  1  0
 26 27  1  6
 28 30  2  0
 28 29  1  0
M  END
$$$$
