FHI.pdb
     RDKit          3D

 30 31  0  0  1  0  0  0  0  0999 V2000
    5.6170  -17.5019   24.1119 N   0  0  0  0  0  0  0  0  0  0  0  0
    6.6396  -16.5130   24.3325 C   0  0  1  0  0  0  0  0  0  0  0  0
    6.4508  -15.8744   25.6862 C   0  0  0  0  0  0  0  0  0  0  0  0
    6.5714  -14.4120   25.5845 C   0  0  0  0  0  0  0  0  0  0  0  0
    5.5396  -13.6294   26.0415 C   0  0  0  0  0  0  0  0  0  0  0  0
    5.6684  -12.2611   25.9388 C   0  0  0  0  0  0  0  0  0  0  0  0
    6.7973  -11.6919   25.3944 C   0  0  0  0  0  0  0  0  0  0  0  0
    7.8390  -12.4687   24.9326 C   0  0  0  0  0  0  0  0  0  0  0  0
    7.7030  -13.8447   25.0389 C   0  0  0  0  0  0  0  0  0  0  0  0
    8.0002  -17.0481   24.2617 C   0  0  0  0  0  0  0  0  0  0  0  0
    8.2265  -18.1629   24.7957 O   0  0  0  0  0  0  0  0  0  0  0  0
    9.1073  -16.3972   23.6260 N   0  0  0  0  0  0  0  0  0  0  0  0
   10.4463  -16.9302   23.6903 C   0  0  1  0  0  0  0  0  0  0  0  0
   11.3111  -16.6325   22.5206 C   0  0  0  0  0  0  0  0  0  0  0  0
   10.8596  -17.0610   21.2037 C   0  0  0  0  0  0  0  0  0  0  0  0
   10.3209  -18.2042   20.7340 C   0  0  0  0  0  0  0  0  0  0  0  0
   10.0423  -18.1096   19.4041 N   0  0  0  0  0  0  0  0  0  0  0  0
   10.4263  -16.8740   19.0740 C   0  0  0  0  0  0  0  0  0  0  0  0
   10.9159  -16.2218   20.1149 N   0  0  0  0  0  0  0  0  0  0  0  0
   11.1054  -16.4384   24.9194 C   0  0  0  0  0  0  0  0  0  0  0  0
   11.9513  -15.5376   24.8362 O   0  0  0  0  0  0  0  0  0  0  0  0
    8.5700  -13.7682   28.0175 C   0  0  0  0  0  0  0  0  0  0  0  0
    9.7259  -14.4732   27.3486 C   0  0  0  0  0  0  0  0  0  0  0  0
   10.2266  -15.6537   28.1219 C   0  0  2  0  0  0  0  0  0  0  0  0
   10.6973  -15.1606   29.4666 C   0  0  0  0  0  0  0  0  0  0  0  0
   11.2860  -16.4157   27.3907 C   0  0  2  0  0  0  0  0  0  0  0  0
   10.7660  -16.9960   26.1608 N   0  0  0  0  0  0  0  0  0  0  0  0
   11.8435  -17.4989   28.2167 C   0  0  0  0  0  0  0  0  0  0  0  0
   11.2345  -18.7555   28.2386 O   0  0  0  0  0  0  0  0  0  0  0  0
   12.8673  -17.3981   28.9418 O   0  0  0  0  0  0  0  0  0  0  0  0
  2  1  1  1
  2 10  1  0
  2  3  1  0
  3  4  1  0
  4  9  2  0
  5  6  2  0
  5  4  1  0
  6  7  1  0
  7  8  2  0
  9  8  1  0
 10 12  1  0
 10 11  2  0
 12 13  1  0
 13 20  1  0
 14 15  1  0
 13 14  1  6
 15 19  1  0
 15 16  2  0
 16 17  1  0
 18 17  1  0
 19 18  2  0
 20 27  1  0
 20 21  2  0
 22 23  1  0
 23 24  1  0
 24 26  1  0
 24 25  1  1
 26 28  1  0
 26 27  1  6
 28 30  2  0
 28 29  1  0
M  END
$$$$
