FHI.pdb
     RDKit          3D

 30 31  0  0  1  0  0  0  0  0999 V2000
    8.1446  -17.7897   18.6917 N   0  0  0  0  0  0  0  0  0  0  0  0
    8.3113  -16.6144   19.5059 C   0  0  1  0  0  0  0  0  0  0  0  0
    7.2752  -15.5828   19.1342 C   0  0  0  0  0  0  0  0  0  0  0  0
    7.5384  -14.3163   19.8345 C   0  0  0  0  0  0  0  0  0  0  0  0
    6.9290  -14.0898   21.0441 C   0  0  0  0  0  0  0  0  0  0  0  0
    7.1861  -12.8983   21.6871 C   0  0  0  0  0  0  0  0  0  0  0  0
    8.0289  -11.9599   21.1356 C   0  0  0  0  0  0  0  0  0  0  0  0
    8.6457  -12.1775   19.9215 C   0  0  0  0  0  0  0  0  0  0  0  0
    8.3827  -13.3785   19.2798 C   0  0  0  0  0  0  0  0  0  0  0  0
    8.2068  -16.8746   20.9426 C   0  0  0  0  0  0  0  0  0  0  0  0
    7.0939  -17.2383   21.3991 O   0  0  0  0  0  0  0  0  0  0  0  0
    9.2820  -16.7470   21.8812 N   0  0  0  0  0  0  0  0  0  0  0  0
    9.1450  -17.1510   23.2593 C   0  0  1  0  0  0  0  0  0  0  0  0
    9.9498  -18.3314   23.6639 C   0  0  0  0  0  0  0  0  0  0  0  0
    9.6072  -19.6269   23.0930 C   0  0  0  0  0  0  0  0  0  0  0  0
    8.6441  -20.0421   22.2457 C   0  0  0  0  0  0  0  0  0  0  0  0
    8.7525  -21.3754   21.9891 N   0  0  0  0  0  0  0  0  0  0  0  0
    9.8112  -21.7637   22.7045 C   0  0  0  0  0  0  0  0  0  0  0  0
   10.3444  -20.7545   23.3722 N   0  0  0  0  0  0  0  0  0  0  0  0
    9.4836  -16.0088   24.1354 C   0  0  0  0  0  0  0  0  0  0  0  0
   10.3569  -15.2069   23.7776 O   0  0  0  0  0  0  0  0  0  0  0  0
    6.0940  -12.6333   26.2521 C   0  0  0  0  0  0  0  0  0  0  0  0
    7.2958  -13.3910   25.7399 C   0  0  0  0  0  0  0  0  0  0  0  0
    8.0917  -14.0434   26.8277 C   0  0  2  0  0  0  0  0  0  0  0  0
    8.5171  -12.9705   27.7975 C   0  0  0  0  0  0  0  0  0  0  0  0
    9.2506  -14.8301   26.3026 C   0  0  2  0  0  0  0  0  0  0  0  0
    8.8139  -15.8475   25.3571 N   0  0  0  0  0  0  0  0  0  0  0  0
    9.9939  -15.4915   27.3872 C   0  0  0  0  0  0  0  0  0  0  0  0
   11.1048  -14.8710   27.9629 O   0  0  0  0  0  0  0  0  0  0  0  0
    9.7117  -16.6186   27.8710 O   0  0  0  0  0  0  0  0  0  0  0  0
  2  1  1  6
  2 10  1  0
  2  3  1  0
  3  4  1  0
  4  9  2  0
  5  6  2  0
  5  4  1  0
  6  7  1  0
  7  8  2  0
  9  8  1  0
 10 12  1  0
 10 11  2  0
 12 13  1  0
 13 20  1  0
 14 15  1  0
 13 14  1  1
 15 19  1  0
 15 16  2  0
 16 17  1  0
 18 17  1  0
 19 18  2  0
 20 27  1  0
 20 21  2  0
 22 23  1  0
 23 24  1  0
 24 26  1  0
 24 25  1  1
 26 28  1  0
 26 27  1  6
 28 30  2  0
 28 29  1  0
M  END
$$$$
