FHI.pdb
     RDKit          3D

 30 31  0  0  1  0  0  0  0  0999 V2000
    8.3705  -17.5713   19.0415 N   0  0  0  0  0  0  0  0  0  0  0  0
    8.5479  -16.4234   19.8918 C   0  0  1  0  0  0  0  0  0  0  0  0
    7.3636  -15.4987   19.7575 C   0  0  0  0  0  0  0  0  0  0  0  0
    7.6247  -14.2273   20.4497 C   0  0  0  0  0  0  0  0  0  0  0  0
    7.2010  -14.0813   21.7477 C   0  0  0  0  0  0  0  0  0  0  0  0
    7.4534  -12.8839   22.3818 C   0  0  0  0  0  0  0  0  0  0  0  0
    8.1110  -11.8617   21.7355 C   0  0  0  0  0  0  0  0  0  0  0  0
    8.5406  -11.9982   20.4322 C   0  0  0  0  0  0  0  0  0  0  0  0
    8.2834  -13.2055   19.8001 C   0  0  0  0  0  0  0  0  0  0  0  0
    8.7113  -16.7596   21.3071 C   0  0  0  0  0  0  0  0  0  0  0  0
    7.7560  -17.3260   21.8952 O   0  0  0  0  0  0  0  0  0  0  0  0
    9.8846  -16.4926   22.0851 N   0  0  0  0  0  0  0  0  0  0  0  0
   10.0396  -16.9921   23.4296 C   0  0  1  0  0  0  0  0  0  0  0  0
   11.1593  -17.9458   23.6335 C   0  0  0  0  0  0  0  0  0  0  0  0
   11.1359  -19.2027   22.8977 C   0  0  0  0  0  0  0  0  0  0  0  0
   10.2162  -19.8033   22.1159 C   0  0  0  0  0  0  0  0  0  0  0  0
   10.6802  -20.9865   21.6263 N   0  0  0  0  0  0  0  0  0  0  0  0
   11.9119  -21.0919   22.1315 C   0  0  0  0  0  0  0  0  0  0  0  0
   12.2175  -20.0530   22.8904 N   0  0  0  0  0  0  0  0  0  0  0  0
   10.1993  -15.8503   24.3557 C   0  0  0  0  0  0  0  0  0  0  0  0
   10.8577  -14.8646   23.9967 O   0  0  0  0  0  0  0  0  0  0  0  0
    6.4260  -13.1875   26.6008 C   0  0  0  0  0  0  0  0  0  0  0  0
    7.7536  -13.6850   26.0808 C   0  0  0  0  0  0  0  0  0  0  0  0
    8.6276  -14.2656   27.1491 C   0  0  2  0  0  0  0  0  0  0  0  0
    8.8919  -13.1867   28.1684 C   0  0  0  0  0  0  0  0  0  0  0  0
    9.8889  -14.8576   26.6048 C   0  0  2  0  0  0  0  0  0  0  0  0
    9.6054  -15.8968   25.6254 N   0  0  0  0  0  0  0  0  0  0  0  0
   10.7207  -15.4380   27.6713 C   0  0  0  0  0  0  0  0  0  0  0  0
   10.5496  -16.7700   28.0546 O   0  0  0  0  0  0  0  0  0  0  0  0
   11.6164  -14.8199   28.3036 O   0  0  0  0  0  0  0  0  0  0  0  0
  2  1  1  6
  2 10  1  0
  2  3  1  0
  3  4  1  0
  4  9  2  0
  5  6  2  0
  5  4  1  0
  6  7  1  0
  7  8  2  0
  9  8  1  0
 10 12  1  0
 10 11  2  0
 12 13  1  0
 13 20  1  0
 14 15  1  0
 13 14  1  6
 15 19  1  0
 15 16  2  0
 16 17  1  0
 18 17  1  0
 19 18  2  0
 20 27  1  0
 20 21  2  0
 22 23  1  0
 23 24  1  0
 24 26  1  0
 24 25  1  1
 26 28  1  0
 26 27  1  6
 28 30  2  0
 28 29  1  0
M  END
$$$$
