FHI.pdb
     RDKit          3D

 30 31  0  0  1  0  0  0  0  0999 V2000
    7.4832  -17.8875   19.0226 N   0  0  0  0  0  0  0  0  0  0  0  0
    7.8657  -16.7114   19.7593 C   0  0  1  0  0  0  0  0  0  0  0  0
    6.8405  -15.6236   19.5556 C   0  0  0  0  0  0  0  0  0  0  0  0
    7.2349  -14.4054   20.2794 C   0  0  0  0  0  0  0  0  0  0  0  0
    8.0124  -13.4749   19.6349 C   0  0  0  0  0  0  0  0  0  0  0  0
    8.3732  -12.3392   20.3272 C   0  0  0  0  0  0  0  0  0  0  0  0
    7.9676  -12.1400   21.6275 C   0  0  0  0  0  0  0  0  0  0  0  0
    7.1867  -13.0681   22.2838 C   0  0  0  0  0  0  0  0  0  0  0  0
    6.8273  -14.2086   21.5814 C   0  0  0  0  0  0  0  0  0  0  0  0
    8.0138  -16.9408   21.1974 C   0  0  0  0  0  0  0  0  0  0  0  0
    7.0553  -17.4696   21.8145 O   0  0  0  0  0  0  0  0  0  0  0  0
    9.1755  -16.6077   21.9674 N   0  0  0  0  0  0  0  0  0  0  0  0
    9.3467  -17.0602   23.3264 C   0  0  1  0  0  0  0  0  0  0  0  0
   10.3523  -18.1351   23.5219 C   0  0  0  0  0  0  0  0  0  0  0  0
   10.0788  -19.4461   22.9492 C   0  0  0  0  0  0  0  0  0  0  0  0
    9.0412  -20.3019   23.0435 C   0  0  0  0  0  0  0  0  0  0  0  0
    9.2495  -21.4165   22.2889 N   0  0  0  0  0  0  0  0  0  0  0  0
   10.4456  -21.2172   21.7296 C   0  0  0  0  0  0  0  0  0  0  0  0
   10.9683  -20.0596   22.0974 N   0  0  0  0  0  0  0  0  0  0  0  0
    9.6975  -15.9056   24.1813 C   0  0  0  0  0  0  0  0  0  0  0  0
   10.6415  -15.1731   23.8554 O   0  0  0  0  0  0  0  0  0  0  0  0
    6.2883  -12.3677   25.8922 C   0  0  0  0  0  0  0  0  0  0  0  0
    7.5173  -13.1549   25.5042 C   0  0  0  0  0  0  0  0  0  0  0  0
    8.2370  -13.7447   26.6776 C   0  0  2  0  0  0  0  0  0  0  0  0
    8.6627  -12.6120   27.5769 C   0  0  0  0  0  0  0  0  0  0  0  0
    9.3849  -14.6145   26.2731 C   0  0  2  0  0  0  0  0  0  0  0  0
    8.9595  -15.6544   25.3472 N   0  0  0  0  0  0  0  0  0  0  0  0
   10.0152  -15.2576   27.4373 C   0  0  0  0  0  0  0  0  0  0  0  0
    9.6627  -16.5587   27.8024 O   0  0  0  0  0  0  0  0  0  0  0  0
   10.8849  -14.7224   28.1730 O   0  0  0  0  0  0  0  0  0  0  0  0
  2  1  1  6
  2 10  1  0
  2  3  1  0
  3  4  1  0
  4  9  2  0
  5  6  2  0
  5  4  1  0
  6  7  1  0
  7  8  2  0
  9  8  1  0
 10 12  1  0
 10 11  2  0
 12 13  1  0
 13 20  1  0
 14 15  1  0
 13 14  1  6
 15 19  1  0
 15 16  2  0
 16 17  1  0
 18 17  1  0
 19 18  2  0
 20 27  1  0
 20 21  2  0
 22 23  1  0
 23 24  1  0
 24 26  1  0
 24 25  1  1
 26 28  1  0
 26 27  1  6
 28 30  2  0
 28 29  1  0
M  END
$$$$
