FHI.pdb
     RDKit          3D

 30 31  0  0  1  0  0  0  0  0999 V2000
    8.5568  -17.9019   18.3922 N   0  0  0  0  0  0  0  0  0  0  0  0
    8.6247  -16.7070   19.1922 C   0  0  1  0  0  0  0  0  0  0  0  0
    7.6600  -15.6776   18.6579 C   0  0  0  0  0  0  0  0  0  0  0  0
    7.7326  -14.4440   19.4558 C   0  0  0  0  0  0  0  0  0  0  0  0
    6.8695  -14.2875   20.5124 C   0  0  0  0  0  0  0  0  0  0  0  0
    6.9505  -13.1260   21.2498 C   0  0  0  0  0  0  0  0  0  0  0  0
    7.8689  -12.1488   20.9389 C   0  0  0  0  0  0  0  0  0  0  0  0
    8.7401  -12.2962   19.8801 C   0  0  0  0  0  0  0  0  0  0  0  0
    8.6533  -13.4673   19.1423 C   0  0  0  0  0  0  0  0  0  0  0  0
    8.3238  -16.9290   20.6074 C   0  0  0  0  0  0  0  0  0  0  0  0
    7.1752  -17.3382   20.9114 O   0  0  0  0  0  0  0  0  0  0  0  0
    9.2424  -16.7153   21.6862 N   0  0  0  0  0  0  0  0  0  0  0  0
    8.9128  -17.0556   23.0488 C   0  0  1  0  0  0  0  0  0  0  0  0
    9.5118  -18.3156   23.5573 C   0  0  0  0  0  0  0  0  0  0  0  0
    9.1273  -19.5673   22.9193 C   0  0  0  0  0  0  0  0  0  0  0  0
    7.9532  -20.2152   22.7794 C   0  0  0  0  0  0  0  0  0  0  0  0
    8.1056  -21.3667   22.0682 N   0  0  0  0  0  0  0  0  0  0  0  0
    9.4082  -21.4040   21.7766 C   0  0  0  0  0  0  0  0  0  0  0  0
   10.0467  -20.3538   22.2644 N   0  0  0  0  0  0  0  0  0  0  0  0
    9.3045  -15.9390   23.9358 C   0  0  0  0  0  0  0  0  0  0  0  0
   10.3765  -15.3519   23.7359 O   0  0  0  0  0  0  0  0  0  0  0  0
    5.7548  -12.3596   25.9037 C   0  0  0  0  0  0  0  0  0  0  0  0
    6.9650  -13.1068   25.3958 C   0  0  0  0  0  0  0  0  0  0  0  0
    7.7504  -13.7704   26.4844 C   0  0  2  0  0  0  0  0  0  0  0  0
    8.1851  -12.7043   27.4578 C   0  0  0  0  0  0  0  0  0  0  0  0
    8.9020  -14.5689   25.9609 C   0  0  2  0  0  0  0  0  0  0  0  0
    8.4603  -15.5592   24.9894 N   0  0  0  0  0  0  0  0  0  0  0  0
    9.6164  -15.2652   27.0431 C   0  0  0  0  0  0  0  0  0  0  0  0
   10.7069  -14.6612   27.6726 O   0  0  0  0  0  0  0  0  0  0  0  0
    9.3256  -16.4098   27.4784 O   0  0  0  0  0  0  0  0  0  0  0  0
  2  1  1  6
  2 10  1  0
  2  3  1  0
  3  4  1  0
  4  9  2  0
  5  6  2  0
  5  4  1  0
  6  7  1  0
  7  8  2  0
  9  8  1  0
 10 12  1  0
 10 11  2  0
 12 13  1  0
 13 20  1  0
 14 15  1  0
 13 14  1  1
 15 19  1  0
 15 16  2  0
 16 17  1  0
 18 17  1  0
 19 18  2  0
 20 27  1  0
 20 21  2  0
 22 23  1  0
 23 24  1  0
 24 26  1  0
 24 25  1  1
 26 28  1  0
 26 27  1  6
 28 30  2  0
 28 29  1  0
M  END
$$$$
