WGQ.pdb
     RDKit          3D

 28 29  0  0  1  0  0  0  0  0999 V2000
    7.2801  -16.8174   22.6444 N   0  0  0  0  0  0  0  0  0  0  0  0
    8.4065  -16.0152   22.9790 C   0  0  1  0  0  0  0  0  0  0  0  0
    8.6729  -15.8438   24.4426 C   0  0  0  0  0  0  0  0  0  0  0  0
    7.5638  -15.1437   25.1262 C   0  0  0  0  0  0  0  0  0  0  0  0
    6.4524  -15.7575   25.6815 C   0  0  0  0  0  0  0  0  0  0  0  0
    5.6825  -14.8077   26.2257 N   0  0  0  0  0  0  0  0  0  0  0  0
    6.2501  -13.6051   26.0448 C   0  0  0  0  0  0  0  0  0  0  0  0
    5.8438  -12.3180   26.4178 C   0  0  0  0  0  0  0  0  0  0  0  0
    6.6075  -11.2155   26.1087 C   0  0  0  0  0  0  0  0  0  0  0  0
    7.7707  -11.4359   25.4261 C   0  0  0  0  0  0  0  0  0  0  0  0
    8.1934  -12.6880   25.0479 C   0  0  0  0  0  0  0  0  0  0  0  0
    7.4153  -13.8015   25.3648 C   0  0  0  0  0  0  0  0  0  0  0  0
    9.6524  -16.4773   22.2883 C   0  0  0  0  0  0  0  0  0  0  0  0
   10.6515  -15.7179   22.2629 O   0  0  0  0  0  0  0  0  0  0  0  0
    9.7487  -17.7427   21.6606 N   0  0  0  0  0  0  0  0  0  0  0  0
   10.9034  -18.1387   20.9362 C   0  0  0  0  0  0  0  0  0  0  0  0
   12.0257  -18.6750   21.7030 C   0  0  0  0  0  0  0  0  0  0  0  0
   11.7707  -19.3013   22.7545 O   0  0  0  0  0  0  0  0  0  0  0  0
   16.9151  -17.9193   18.0265 N   0  0  0  0  0  0  0  0  0  0  0  0
   17.2068  -18.1083   19.3950 C   0  0  0  0  0  0  0  0  0  0  0  0
   18.3824  -18.3639   19.7427 O   0  0  0  0  0  0  0  0  0  0  0  0
   16.0719  -17.9897   20.3658 C   0  0  0  0  0  0  0  0  0  0  0  0
   15.6415  -19.3238   20.8743 C   0  0  0  0  0  0  0  0  0  0  0  0
   14.5256  -19.1523   21.8499 C   0  0  2  0  0  0  0  0  0  0  0  0
   13.3662  -18.5092   21.2913 N   0  0  0  0  0  0  0  0  0  0  0  0
   15.0038  -18.6005   23.1342 C   0  0  0  0  0  0  0  0  0  0  0  0
   14.4498  -17.4141   23.5835 O   0  0  0  0  0  0  0  0  0  0  0  0
   15.8678  -19.1552   23.8081 O   0  0  0  0  0  0  0  0  0  0  0  0
  2  1  1  1
  3  4  1  0
  3  2  1  0
  4  5  2  0
  6  5  1  0
  7  6  1  0
  8  7  2  0
  9  8  1  0
 10  9  2  0
 10 11  1  0
 11 12  2  0
 12  7  1  0
 12  4  1  0
 13 15  1  0
 13  2  1  0
 14 13  2  0
 16 15  1  0
 17 16  1  0
 17 25  1  0
 18 17  2  0
 19 20  1  0
 20 21  2  0
 22 23  1  0
 22 20  1  0
 24 23  1  6
 24 25  1  0
 24 26  1  0
 26 27  1  0
 28 26  2  0
M  END
$$$$
