WGQ.pdb
     RDKit          3D

 28 29  0  0  1  0  0  0  0  0999 V2000
    7.0149  -17.4676   23.3849 N   0  0  0  0  0  0  0  0  0  0  0  0
    7.9986  -16.4396   23.3745 C   0  0  1  0  0  0  0  0  0  0  0  0
    8.4127  -15.9202   24.7165 C   0  0  0  0  0  0  0  0  0  0  0  0
    7.3650  -15.0732   25.3267 C   0  0  0  0  0  0  0  0  0  0  0  0
    6.2031  -15.5412   25.9194 C   0  0  0  0  0  0  0  0  0  0  0  0
    5.5152  -14.4868   26.3735 N   0  0  0  0  0  0  0  0  0  0  0  0
    6.1843  -13.3563   26.0984 C   0  0  0  0  0  0  0  0  0  0  0  0
    5.8882  -12.0125   26.3574 C   0  0  0  0  0  0  0  0  0  0  0  0
    6.7444  -11.0089   25.9651 C   0  0  0  0  0  0  0  0  0  0  0  0
    7.8871  -11.3843   25.3162 C   0  0  0  0  0  0  0  0  0  0  0  0
    8.2026  -12.6952   25.0492 C   0  0  0  0  0  0  0  0  0  0  0  0
    7.3309  -13.7079   25.4500 C   0  0  0  0  0  0  0  0  0  0  0  0
    9.2110  -16.8281   22.5857 C   0  0  0  0  0  0  0  0  0  0  0  0
    9.5767  -18.0289   22.5839 O   0  0  0  0  0  0  0  0  0  0  0  0
    9.9641  -15.8907   21.8384 N   0  0  0  0  0  0  0  0  0  0  0  0
   11.2998  -16.1487   21.4331 C   0  0  0  0  0  0  0  0  0  0  0  0
   12.3118  -16.2510   22.4822 C   0  0  0  0  0  0  0  0  0  0  0  0
   13.4850  -16.5151   22.1407 O   0  0  0  0  0  0  0  0  0  0  0  0
   11.4402  -14.2040   28.4160 N   0  0  0  0  0  0  0  0  0  0  0  0
   10.8613  -15.4396   28.0529 C   0  0  0  0  0  0  0  0  0  0  0  0
    9.9722  -15.9385   28.7802 O   0  0  0  0  0  0  0  0  0  0  0  0
   11.3546  -16.0909   26.7971 C   0  0  0  0  0  0  0  0  0  0  0  0
   12.4131  -15.2761   26.1343 C   0  0  0  0  0  0  0  0  0  0  0  0
   12.9347  -16.0060   24.9421 C   0  0  2  0  0  0  0  0  0  0  0  0
   12.0034  -16.0591   23.8467 N   0  0  0  0  0  0  0  0  0  0  0  0
   13.5508  -17.2950   25.3180 C   0  0  0  0  0  0  0  0  0  0  0  0
   12.9576  -18.4608   24.8648 O   0  0  0  0  0  0  0  0  0  0  0  0
   14.5615  -17.3639   26.0122 O   0  0  0  0  0  0  0  0  0  0  0  0
  2  1  1  1
  3  4  1  0
  3  2  1  0
  4  5  2  0
  6  5  1  0
  7  6  1  0
  8  7  2  0
  9  8  1  0
 10  9  2  0
 10 11  1  0
 11 12  2  0
 12  7  1  0
 12  4  1  0
 13 15  1  0
 13  2  1  0
 14 13  2  0
 16 15  1  0
 17 16  1  0
 17 25  1  0
 18 17  2  0
 19 20  1  0
 20 21  2  0
 22 23  1  0
 22 20  1  0
 24 23  1  1
 24 25  1  0
 24 26  1  0
 26 27  1  0
 28 26  2  0
M  END
$$$$
