WGQ.pdb
     RDKit          3D

 28 29  0  0  1  0  0  0  0  0999 V2000
    8.8561  -16.6654   24.5280 N   0  0  0  0  0  0  0  0  0  0  0  0
    8.5570  -16.1969   23.2182 C   0  0  1  0  0  0  0  0  0  0  0  0
    7.5909  -15.0556   23.1391 C   0  0  0  0  0  0  0  0  0  0  0  0
    7.0517  -14.6969   24.4688 C   0  0  0  0  0  0  0  0  0  0  0  0
    6.3553  -15.5532   25.3067 C   0  0  0  0  0  0  0  0  0  0  0  0
    6.0485  -14.8824   26.4234 N   0  0  0  0  0  0  0  0  0  0  0  0
    6.5176  -13.6275   26.3418 C   0  0  0  0  0  0  0  0  0  0  0  0
    6.4533  -12.5496   27.2331 C   0  0  0  0  0  0  0  0  0  0  0  0
    7.0153  -11.3335   26.9176 C   0  0  0  0  0  0  0  0  0  0  0  0
    7.6333  -11.2301   25.7031 C   0  0  0  0  0  0  0  0  0  0  0  0
    7.7111  -12.2716   24.8094 C   0  0  0  0  0  0  0  0  0  0  0  0
    7.1401  -13.5018   25.1354 C   0  0  0  0  0  0  0  0  0  0  0  0
    9.7944  -15.8676   22.4414 C   0  0  0  0  0  0  0  0  0  0  0  0
   10.7844  -15.3902   23.0477 O   0  0  0  0  0  0  0  0  0  0  0  0
    9.8925  -16.0749   21.0443 N   0  0  0  0  0  0  0  0  0  0  0  0
   11.1439  -16.1304   20.3767 C   0  0  0  0  0  0  0  0  0  0  0  0
   12.3394  -15.8442   21.1666 C   0  0  0  0  0  0  0  0  0  0  0  0
   12.9447  -14.7728   20.9461 O   0  0  0  0  0  0  0  0  0  0  0  0
   11.4456  -17.6563   26.9009 N   0  0  0  0  0  0  0  0  0  0  0  0
   12.7486  -17.3591   26.4454 C   0  0  0  0  0  0  0  0  0  0  0  0
   13.7336  -17.6867   27.1459 O   0  0  0  0  0  0  0  0  0  0  0  0
   12.8763  -16.6573   25.1279 C   0  0  0  0  0  0  0  0  0  0  0  0
   13.9281  -17.2791   24.2732 C   0  0  0  0  0  0  0  0  0  0  0  0
   13.9966  -16.5661   22.9643 C   0  0  2  0  0  0  0  0  0  0  0  0
   12.8171  -16.7302   22.1569 N   0  0  0  0  0  0  0  0  0  0  0  0
   15.2800  -16.8126   22.2753 C   0  0  0  0  0  0  0  0  0  0  0  0
   16.4501  -16.4595   22.9254 O   0  0  0  0  0  0  0  0  0  0  0  0
   15.3406  -17.3151   21.1564 O   0  0  0  0  0  0  0  0  0  0  0  0
  2  1  1  1
  3  4  1  0
  3  2  1  0
  4  5  2  0
  6  5  1  0
  7  6  1  0
  8  7  2  0
  9  8  1  0
 10  9  2  0
 10 11  1  0
 11 12  2  0
 12  7  1  0
 12  4  1  0
 13 15  1  0
 13  2  1  0
 14 13  2  0
 16 15  1  0
 17 16  1  0
 17 25  1  0
 18 17  2  0
 19 20  1  0
 20 21  2  0
 22 23  1  0
 22 20  1  0
 24 23  1  1
 24 25  1  0
 24 26  1  0
 26 27  1  0
 28 26  2  0
M  END
$$$$
