WGQ.pdb
     RDKit          3D

 28 29  0  0  1  0  0  0  0  0999 V2000
    9.4522  -16.5576   24.2702 N   0  0  0  0  0  0  0  0  0  0  0  0
    8.4096  -16.5812   23.3023 C   0  0  1  0  0  0  0  0  0  0  0  0
    7.6337  -15.3097   23.1490 C   0  0  0  0  0  0  0  0  0  0  0  0
    7.1597  -14.7931   24.4513 C   0  0  0  0  0  0  0  0  0  0  0  0
    6.5143  -15.5427   25.4218 C   0  0  0  0  0  0  0  0  0  0  0  0
    6.2589  -14.7417   26.4630 N   0  0  0  0  0  0  0  0  0  0  0  0
    6.7120  -13.5049   26.2055 C   0  0  0  0  0  0  0  0  0  0  0  0
    6.6836  -12.3265   26.9614 C   0  0  0  0  0  0  0  0  0  0  0  0
    7.2181  -11.1565   26.4719 C   0  0  0  0  0  0  0  0  0  0  0  0
    7.7726  -11.2002   25.2236 C   0  0  0  0  0  0  0  0  0  0  0  0
    7.8142  -12.3426   24.4602 C   0  0  0  0  0  0  0  0  0  0  0  0
    7.2713  -13.5255   24.9624 C   0  0  0  0  0  0  0  0  0  0  0  0
    8.8948  -17.0430   21.9627 C   0  0  0  0  0  0  0  0  0  0  0  0
    8.8020  -18.2596   21.6682 O   0  0  0  0  0  0  0  0  0  0  0  0
    9.4560  -16.1576   21.0111 N   0  0  0  0  0  0  0  0  0  0  0  0
    9.9212  -16.6060   19.7472 C   0  0  0  0  0  0  0  0  0  0  0  0
   11.3314  -16.9748   19.6431 C   0  0  0  0  0  0  0  0  0  0  0  0
   11.7349  -17.4466   18.5581 O   0  0  0  0  0  0  0  0  0  0  0  0
   16.8090  -13.0888   18.9985 N   0  0  0  0  0  0  0  0  0  0  0  0
   15.6472  -13.8693   18.8123 C   0  0  0  0  0  0  0  0  0  0  0  0
   14.9331  -13.6761   17.8018 O   0  0  0  0  0  0  0  0  0  0  0  0
   15.3334  -14.8999   19.8535 C   0  0  0  0  0  0  0  0  0  0  0  0
   13.8665  -15.1461   19.9589 C   0  0  0  0  0  0  0  0  0  0  0  0
   13.6251  -16.4576   20.6281 C   0  0  2  0  0  0  0  0  0  0  0  0
   12.2333  -16.8111   20.7171 N   0  0  0  0  0  0  0  0  0  0  0  0
   14.3953  -16.5798   21.8829 C   0  0  0  0  0  0  0  0  0  0  0  0
   15.7755  -16.4986   21.8141 O   0  0  0  0  0  0  0  0  0  0  0  0
   13.8553  -16.7492   22.9728 O   0  0  0  0  0  0  0  0  0  0  0  0
  2  1  1  1
  3  4  1  0
  3  2  1  0
  4  5  2  0
  6  5  1  0
  7  6  1  0
  8  7  2  0
  9  8  1  0
 10  9  2  0
 10 11  1  0
 11 12  2  0
 12  7  1  0
 12  4  1  0
 13 15  1  0
 13  2  1  0
 14 13  2  0
 16 15  1  0
 17 16  1  0
 17 25  1  0
 18 17  2  0
 19 20  1  0
 20 21  2  0
 22 23  1  0
 22 20  1  0
 24 23  1  1
 24 25  1  0
 24 26  1  0
 26 27  1  0
 28 26  2  0
M  END
$$$$
