WGQ.pdb
     RDKit          3D

 28 29  0  0  1  0  0  0  0  0999 V2000
    8.8846  -16.7862   24.4902 N   0  0  0  0  0  0  0  0  0  0  0  0
    8.1161  -16.5867   23.3094 C   0  0  1  0  0  0  0  0  0  0  0  0
    6.9170  -15.7016   23.4541 C   0  0  0  0  0  0  0  0  0  0  0  0
    6.8170  -15.1271   24.8133 C   0  0  0  0  0  0  0  0  0  0  0  0
    6.6091  -15.8534   25.9750 C   0  0  0  0  0  0  0  0  0  0  0  0
    6.5970  -14.9968   27.0032 N   0  0  0  0  0  0  0  0  0  0  0  0
    6.7881  -13.7465   26.5541 C   0  0  0  0  0  0  0  0  0  0  0  0
    6.8527  -12.5171   27.2212 C   0  0  0  0  0  0  0  0  0  0  0  0
    7.0556  -11.3445   26.5297 C   0  0  0  0  0  0  0  0  0  0  0  0
    7.1894  -11.4375   25.1729 C   0  0  0  0  0  0  0  0  0  0  0  0
    7.1303  -12.6306   24.4928 C   0  0  0  0  0  0  0  0  0  0  0  0
    6.9252  -13.8157   25.1995 C   0  0  0  0  0  0  0  0  0  0  0  0
    8.9570  -16.1168   22.1627 C   0  0  0  0  0  0  0  0  0  0  0  0
    8.5132  -16.2343   20.9944 O   0  0  0  0  0  0  0  0  0  0  0  0
   10.2381  -15.5423   22.3449 N   0  0  0  0  0  0  0  0  0  0  0  0
   11.2515  -15.6310   21.3549 C   0  0  0  0  0  0  0  0  0  0  0  0
   12.0697  -16.8417   21.3384 C   0  0  0  0  0  0  0  0  0  0  0  0
   11.6505  -17.8230   20.6872 O   0  0  0  0  0  0  0  0  0  0  0  0
   16.9299  -14.7435   20.8367 N   0  0  0  0  0  0  0  0  0  0  0  0
   17.0119  -16.1451   20.6867 C   0  0  0  0  0  0  0  0  0  0  0  0
   17.6167  -16.6226   19.6996 O   0  0  0  0  0  0  0  0  0  0  0  0
   16.3586  -16.9914   21.7362 C   0  0  0  0  0  0  0  0  0  0  0  0
   15.3600  -17.9276   21.1447 C   0  0  0  0  0  0  0  0  0  0  0  0
   14.1902  -18.0578   22.0618 C   0  0  2  0  0  0  0  0  0  0  0  0
   13.3008  -16.9275   22.0245 N   0  0  0  0  0  0  0  0  0  0  0  0
   14.6005  -18.5018   23.4098 C   0  0  0  0  0  0  0  0  0  0  0  0
   15.3460  -19.6632   23.5174 O   0  0  0  0  0  0  0  0  0  0  0  0
   14.3042  -17.8797   24.4263 O   0  0  0  0  0  0  0  0  0  0  0  0
  2  1  1  1
  3  4  1  0
  3  2  1  0
  4  5  2  0
  6  5  1  0
  7  6  1  0
  8  7  2  0
  9  8  1  0
 10  9  2  0
 10 11  1  0
 11 12  2  0
 12  7  1  0
 12  4  1  0
 13 15  1  0
 13  2  1  0
 14 13  2  0
 16 15  1  0
 17 16  1  0
 17 25  1  0
 18 17  2  0
 19 20  1  0
 20 21  2  0
 22 23  1  0
 22 20  1  0
 24 23  1  6
 24 25  1  0
 24 26  1  0
 26 27  1  0
 28 26  2  0
M  END
$$$$
