WGQ.pdb
     RDKit          3D

 28 29  0  0  1  0  0  0  0  0999 V2000
    6.9241  -17.9380   24.1657 N   0  0  0  0  0  0  0  0  0  0  0  0
    7.3406  -16.7788   23.4534 C   0  0  1  0  0  0  0  0  0  0  0  0
    8.2038  -15.8211   24.2149 C   0  0  0  0  0  0  0  0  0  0  0  0
    7.4160  -15.0027   25.1621 C   0  0  0  0  0  0  0  0  0  0  0  0
    6.5051  -15.4984   26.0812 C   0  0  0  0  0  0  0  0  0  0  0  0
    6.0087  -14.4652   26.7720 N   0  0  0  0  0  0  0  0  0  0  0  0
    6.5610  -13.3218   26.3371 C   0  0  0  0  0  0  0  0  0  0  0  0
    6.3743  -11.9901   26.7274 C   0  0  0  0  0  0  0  0  0  0  0  0
    7.0649  -10.9683   26.1165 C   0  0  0  0  0  0  0  0  0  0  0  0
    7.9334  -11.3134   25.1193 C   0  0  0  0  0  0  0  0  0  0  0  0
    8.1360  -12.6118   24.7164 C   0  0  0  0  0  0  0  0  0  0  0  0
    7.4336  -13.6431   25.3401 C   0  0  0  0  0  0  0  0  0  0  0  0
    7.9934  -17.1227   22.1501 C   0  0  0  0  0  0  0  0  0  0  0  0
    8.4515  -18.2797   21.9856 O   0  0  0  0  0  0  0  0  0  0  0  0
    8.1144  -16.1905   21.0914 N   0  0  0  0  0  0  0  0  0  0  0  0
    8.8042  -16.5000   19.8900 C   0  0  0  0  0  0  0  0  0  0  0  0
   10.2634  -16.5532   19.9484 C   0  0  0  0  0  0  0  0  0  0  0  0
   10.8799  -16.8733   18.9090 O   0  0  0  0  0  0  0  0  0  0  0  0
   13.2279  -15.0041   17.8490 N   0  0  0  0  0  0  0  0  0  0  0  0
   13.6556  -14.3456   19.0226 C   0  0  0  0  0  0  0  0  0  0  0  0
   14.8210  -13.8909   19.0815 O   0  0  0  0  0  0  0  0  0  0  0  0
   12.6719  -14.2288   20.1465 C   0  0  0  0  0  0  0  0  0  0  0  0
   13.0946  -15.0277   21.3326 C   0  0  0  0  0  0  0  0  0  0  0  0
   12.4036  -16.3500   21.3185 C   0  0  2  0  0  0  0  0  0  0  0  0
   10.9809  -16.2541   21.1272 N   0  0  0  0  0  0  0  0  0  0  0  0
   12.8396  -17.2054   22.4413 C   0  0  0  0  0  0  0  0  0  0  0  0
   11.8826  -17.6418   23.3414 O   0  0  0  0  0  0  0  0  0  0  0  0
   14.0112  -17.5377   22.5993 O   0  0  0  0  0  0  0  0  0  0  0  0
  2  1  1  1
  3  4  1  0
  3  2  1  0
  4  5  2  0
  6  5  1  0
  7  6  1  0
  8  7  2  0
  9  8  1  0
 10  9  2  0
 10 11  1  0
 11 12  2  0
 12  7  1  0
 12  4  1  0
 13 15  1  0
 13  2  1  0
 14 13  2  0
 16 15  1  0
 17 16  1  0
 17 25  1  0
 18 17  2  0
 19 20  1  0
 20 21  2  0
 22 23  1  0
 22 20  1  0
 24 23  1  1
 24 25  1  0
 24 26  1  0
 26 27  1  0
 28 26  2  0
M  END
$$$$
