WGQ.pdb
     RDKit          3D

 28 29  0  0  1  0  0  0  0  0999 V2000
    7.3208  -14.9397   22.1893 N   0  0  0  0  0  0  0  0  0  0  0  0
    8.5111  -15.2722   22.8943 C   0  0  1  0  0  0  0  0  0  0  0  0
    8.3219  -15.7737   24.2925 C   0  0  0  0  0  0  0  0  0  0  0  0
    7.2562  -15.0346   25.0035 C   0  0  0  0  0  0  0  0  0  0  0  0
    6.0130  -15.5481   25.3369 C   0  0  0  0  0  0  0  0  0  0  0  0
    5.3323  -14.5970   25.9875 N   0  0  0  0  0  0  0  0  0  0  0  0
    6.0840  -13.4896   26.0880 C   0  0  0  0  0  0  0  0  0  0  0  0
    5.8285  -12.2400   26.6657 C   0  0  0  0  0  0  0  0  0  0  0  0
    6.7728  -11.2391   26.6379 C   0  0  0  0  0  0  0  0  0  0  0  0
    7.9608  -11.5215   26.0243 C   0  0  0  0  0  0  0  0  0  0  0  0
    8.2381  -12.7389   25.4495 C   0  0  0  0  0  0  0  0  0  0  0  0
    7.2771  -13.7496   25.4817 C   0  0  0  0  0  0  0  0  0  0  0  0
    9.3729  -16.2264   22.1264 C   0  0  0  0  0  0  0  0  0  0  0  0
    9.2813  -16.2569   20.8748 O   0  0  0  0  0  0  0  0  0  0  0  0
   10.2911  -17.0990   22.7587 N   0  0  0  0  0  0  0  0  0  0  0  0
   11.2664  -17.8258   22.0269 C   0  0  0  0  0  0  0  0  0  0  0  0
   12.2519  -18.5856   22.7928 C   0  0  0  0  0  0  0  0  0  0  0  0
   13.1854  -19.1326   22.1666 O   0  0  0  0  0  0  0  0  0  0  0  0
   17.0611  -16.5916   22.7599 N   0  0  0  0  0  0  0  0  0  0  0  0
   16.0993  -16.4891   23.7886 C   0  0  0  0  0  0  0  0  0  0  0  0
   16.2787  -15.6686   24.7175 O   0  0  0  0  0  0  0  0  0  0  0  0
   14.9008  -17.3843   23.7051 C   0  0  0  0  0  0  0  0  0  0  0  0
   13.9457  -17.1300   24.8217 C   0  0  0  0  0  0  0  0  0  0  0  0
   13.2092  -18.3861   25.1471 C   0  0  2  0  0  0  0  0  0  0  0  0
   12.1789  -18.7121   24.1973 N   0  0  0  0  0  0  0  0  0  0  0  0
   12.8035  -18.4284   26.5671 C   0  0  0  0  0  0  0  0  0  0  0  0
   13.0760  -19.5761   27.2915 O   0  0  0  0  0  0  0  0  0  0  0  0
   12.2385  -17.4878   27.1185 O   0  0  0  0  0  0  0  0  0  0  0  0
  2  1  1  6
  3  4  1  0
  3  2  1  0
  4  5  2  0
  6  5  1  0
  7  6  1  0
  8  7  2  0
  9  8  1  0
 10  9  2  0
 10 11  1  0
 11 12  2  0
 12  7  1  0
 12  4  1  0
 13 15  1  0
 13  2  1  0
 14 13  2  0
 16 15  1  0
 17 16  1  0
 17 25  1  0
 18 17  2  0
 19 20  1  0
 20 21  2  0
 22 23  1  0
 22 20  1  0
 24 23  1  6
 24 25  1  0
 24 26  1  0
 26 27  1  0
 28 26  2  0
M  END
$$$$
