WGQ.pdb
     RDKit          3D

 28 29  0  0  1  0  0  0  0  0999 V2000
    6.6854  -17.8800   24.4846 N   0  0  0  0  0  0  0  0  0  0  0  0
    7.6817  -16.9069   24.1936 C   0  0  1  0  0  0  0  0  0  0  0  0
    8.1056  -16.0446   25.3422 C   0  0  0  0  0  0  0  0  0  0  0  0
    7.0878  -15.0224   25.6687 C   0  0  0  0  0  0  0  0  0  0  0  0
    5.9959  -15.2180   26.4992 C   0  0  0  0  0  0  0  0  0  0  0  0
    5.3167  -14.0670   26.5695 N   0  0  0  0  0  0  0  0  0  0  0  0
    5.9242  -13.1354   25.8183 C   0  0  0  0  0  0  0  0  0  0  0  0
    5.6094  -11.7953   25.5620 C   0  0  0  0  0  0  0  0  0  0  0  0
    6.3973  -11.0270   24.7355 C   0  0  0  0  0  0  0  0  0  0  0  0
    7.4916  -11.6301   24.1820 C   0  0  0  0  0  0  0  0  0  0  0  0
    7.8240  -12.9431   24.4165 C   0  0  0  0  0  0  0  0  0  0  0  0
    7.0217  -13.7164   25.2558 C   0  0  0  0  0  0  0  0  0  0  0  0
    8.8872  -17.5121   23.5429 C   0  0  0  0  0  0  0  0  0  0  0  0
    9.2142  -18.6869   23.8407 O   0  0  0  0  0  0  0  0  0  0  0  0
    9.6759  -16.8089   22.6006 N   0  0  0  0  0  0  0  0  0  0  0  0
   10.9729  -17.2477   22.2264 C   0  0  0  0  0  0  0  0  0  0  0  0
   12.0502  -17.0619   23.1960 C   0  0  0  0  0  0  0  0  0  0  0  0
   13.2049  -16.8668   22.7584 O   0  0  0  0  0  0  0  0  0  0  0  0
   10.6322  -13.7209   28.3846 N   0  0  0  0  0  0  0  0  0  0  0  0
   10.6594  -15.1007   28.0857 C   0  0  0  0  0  0  0  0  0  0  0  0
   10.1844  -15.9166   28.9084 O   0  0  0  0  0  0  0  0  0  0  0  0
   11.2658  -15.5124   26.7791 C   0  0  0  0  0  0  0  0  0  0  0  0
   12.2554  -16.6140   26.9550 C   0  0  0  0  0  0  0  0  0  0  0  0
   12.8146  -17.0022   25.6273 C   0  0  2  0  0  0  0  0  0  0  0  0
   11.8227  -17.0935   24.5892 N   0  0  0  0  0  0  0  0  0  0  0  0
   13.7302  -18.1563   25.7373 C   0  0  0  0  0  0  0  0  0  0  0  0
   14.8213  -18.0478   26.5823 O   0  0  0  0  0  0  0  0  0  0  0  0
   13.5557  -19.1973   25.1095 O   0  0  0  0  0  0  0  0  0  0  0  0
  2  1  1  1
  3  4  1  0
  3  2  1  0
  4  5  2  0
  6  5  1  0
  7  6  1  0
  8  7  2  0
  9  8  1  0
 10  9  2  0
 10 11  1  0
 11 12  2  0
 12  7  1  0
 12  4  1  0
 13 15  1  0
 13  2  1  0
 14 13  2  0
 16 15  1  0
 17 16  1  0
 17 25  1  0
 18 17  2  0
 19 20  1  0
 20 21  2  0
 22 23  1  0
 22 20  1  0
 24 23  1  1
 24 25  1  0
 24 26  1  0
 26 27  1  0
 28 26  2  0
M  END
$$$$
