WGQ.pdb
     RDKit          3D

 28 29  0  0  1  0  0  0  0  0999 V2000
    7.6361  -16.9565   23.3647 N   0  0  0  0  0  0  0  0  0  0  0  0
    7.7395  -15.9986   22.3178 C   0  0  1  0  0  0  0  0  0  0  0  0
    7.7847  -14.5651   22.7482 C   0  0  0  0  0  0  0  0  0  0  0  0
    7.2807  -14.3877   24.1273 C   0  0  0  0  0  0  0  0  0  0  0  0
    6.6360  -15.3607   24.8743 C   0  0  0  0  0  0  0  0  0  0  0  0
    6.3487  -14.8406   26.0735 N   0  0  0  0  0  0  0  0  0  0  0  0
    6.7806  -13.5712   26.1324 C   0  0  0  0  0  0  0  0  0  0  0  0
    6.7169  -12.6122   27.1507 C   0  0  0  0  0  0  0  0  0  0  0  0
    7.2350  -11.3500   26.9700 C   0  0  0  0  0  0  0  0  0  0  0  0
    7.8091  -11.0805   25.7595 C   0  0  0  0  0  0  0  0  0  0  0  0
    7.8853  -12.0026   24.7429 C   0  0  0  0  0  0  0  0  0  0  0  0
    7.3589  -13.2805   24.9326 C   0  0  0  0  0  0  0  0  0  0  0  0
    8.8874  -16.2883   21.4005 C   0  0  0  0  0  0  0  0  0  0  0  0
    9.2709  -15.3962   20.6050 O   0  0  0  0  0  0  0  0  0  0  0  0
    9.5606  -17.5338   21.3953 N   0  0  0  0  0  0  0  0  0  0  0  0
   10.9761  -17.6256   21.4463 C   0  0  0  0  0  0  0  0  0  0  0  0
   11.5604  -18.3811   22.5523 C   0  0  0  0  0  0  0  0  0  0  0  0
   10.9440  -18.3988   23.6398 O   0  0  0  0  0  0  0  0  0  0  0  0
   16.8339  -21.0616   20.5253 N   0  0  0  0  0  0  0  0  0  0  0  0
   16.7595  -19.6791   20.8025 C   0  0  0  0  0  0  0  0  0  0  0  0
   17.1153  -18.8573   19.9271 O   0  0  0  0  0  0  0  0  0  0  0  0
   16.2503  -19.2717   22.1513 C   0  0  0  0  0  0  0  0  0  0  0  0
   15.0875  -18.3445   22.0432 C   0  0  0  0  0  0  0  0  0  0  0  0
   14.0391  -18.7381   23.0291 C   0  0  2  0  0  0  0  0  0  0  0  0
   12.7797  -19.0815   22.4242 N   0  0  0  0  0  0  0  0  0  0  0  0
   13.9661  -17.7867   24.1569 C   0  0  0  0  0  0  0  0  0  0  0  0
   14.3274  -18.2351   25.4158 O   0  0  0  0  0  0  0  0  0  0  0  0
   13.5991  -16.6234   24.0141 O   0  0  0  0  0  0  0  0  0  0  0  0
  2  1  1  1
  3  4  1  0
  3  2  1  0
  4  5  2  0
  6  5  1  0
  7  6  1  0
  8  7  2  0
  9  8  1  0
 10  9  2  0
 10 11  1  0
 11 12  2  0
 12  7  1  0
 12  4  1  0
 13 15  1  0
 13  2  1  0
 14 13  2  0
 16 15  1  0
 17 16  1  0
 17 25  1  0
 18 17  2  0
 19 20  1  0
 20 21  2  0
 22 23  1  0
 22 20  1  0
 24 23  1  6
 24 25  1  0
 24 26  1  0
 26 27  1  0
 28 26  2  0
M  END
$$$$
