GAW.pdb
     RDKit          3D

 24 25  0  0  1  0  0  0  0  0999 V2000
    7.2871  -12.4436   18.9526 N   0  0  0  0  0  0  0  0  0  0  0  0
    8.3578  -13.4199   18.9846 C   0  0  0  0  0  0  0  0  0  0  0  0
    8.2235  -14.2725   20.1890 C   0  0  0  0  0  0  0  0  0  0  0  0
    7.5206  -13.8725   21.1333 O   0  0  0  0  0  0  0  0  0  0  0  0
    8.9475  -17.8962   20.8305 C   0  0  0  0  0  0  0  0  0  0  0  0
    8.6512  -16.4917   21.2944 C   0  0  2  0  0  0  0  0  0  0  0  0
    8.8849  -15.5087   20.2486 N   0  0  0  0  0  0  0  0  0  0  0  0
    9.4633  -16.0964   22.4787 C   0  0  0  0  0  0  0  0  0  0  0  0
   10.5297  -15.4085   22.3460 O   0  0  0  0  0  0  0  0  0  0  0  0
    9.1196  -16.4464   23.8048 N   0  0  0  0  0  0  0  0  0  0  0  0
    9.9401  -16.0753   24.9439 C   0  0  1  0  0  0  0  0  0  0  0  0
    9.0343  -16.1451   26.1571 C   0  0  0  0  0  0  0  0  0  0  0  0
    7.7978  -15.3788   26.0205 C   0  0  0  0  0  0  0  0  0  0  0  0
    6.5367  -15.8384   25.7148 C   0  0  0  0  0  0  0  0  0  0  0  0
    5.7103  -14.7813   25.6992 N   0  0  0  0  0  0  0  0  0  0  0  0
    6.3624  -13.6414   25.9798 C   0  0  0  0  0  0  0  0  0  0  0  0
    6.0121  -12.3142   26.0907 C   0  0  0  0  0  0  0  0  0  0  0  0
    6.9784  -11.4011   26.3993 C   0  0  0  0  0  0  0  0  0  0  0  0
    8.3022  -11.7271   26.6102 C   0  0  0  0  0  0  0  0  0  0  0  0
    8.6359  -13.0612   26.4953 C   0  0  0  0  0  0  0  0  0  0  0  0
    7.6894  -14.0135   26.1852 C   0  0  0  0  0  0  0  0  0  0  0  0
   11.0082  -17.1191   25.1670 C   0  0  0  0  0  0  0  0  0  0  0  0
   12.0683  -16.9070   26.0321 O   0  0  0  0  0  0  0  0  0  0  0  0
   10.9628  -18.2208   24.5664 O   0  0  0  0  0  0  0  0  0  0  0  0
  1  2  1  0
  3  2  1  0
  3  7  1  0
  4  3  2  0
  6  8  1  0
  6  7  1  0
  6  5  1  6
  8 10  1  0
  9  8  2  0
 10 11  1  0
 11 12  1  1
 12 13  1  0
 13 14  2  0
 13 21  1  0
 14 15  1  0
 15 16  1  0
 16 17  2  0
 17 18  1  0
 19 18  2  0
 20 19  1  0
 21 20  2  0
 21 16  1  0
 22 11  1  0
 23 22  1  0
 24 22  2  0
M  END
$$$$
