GAW.pdb
     RDKit          3D

 24 25  0  0  1  0  0  0  0  0999 V2000
    4.2874  -16.6451   20.8474 N   0  0  0  0  0  0  0  0  0  0  0  0
    5.4028  -15.7244   20.7531 C   0  0  0  0  0  0  0  0  0  0  0  0
    6.6179  -16.3479   21.3279 C   0  0  0  0  0  0  0  0  0  0  0  0
    6.4888  -17.2170   22.2076 O   0  0  0  0  0  0  0  0  0  0  0  0
   10.1777  -16.5430   20.2085 C   0  0  0  0  0  0  0  0  0  0  0  0
    9.1196  -16.6104   21.2815 C   0  0  2  0  0  0  0  0  0  0  0  0
    7.8869  -15.9535   20.8771 N   0  0  0  0  0  0  0  0  0  0  0  0
    9.5631  -15.9942   22.5628 C   0  0  0  0  0  0  0  0  0  0  0  0
    9.8692  -14.7571   22.6274 O   0  0  0  0  0  0  0  0  0  0  0  0
    9.6748  -16.7181   23.7723 N   0  0  0  0  0  0  0  0  0  0  0  0
   10.2406  -16.1367   24.9765 C   0  0  1  0  0  0  0  0  0  0  0  0
    9.2125  -16.3470   26.0700 C   0  0  0  0  0  0  0  0  0  0  0  0
    7.9308  -15.6936   25.8144 C   0  0  0  0  0  0  0  0  0  0  0  0
    6.7492  -16.2633   25.3971 C   0  0  0  0  0  0  0  0  0  0  0  0
    5.8373  -15.2839   25.2977 N   0  0  0  0  0  0  0  0  0  0  0  0
    6.3570  -14.0907   25.6290 C   0  0  0  0  0  0  0  0  0  0  0  0
    5.8816  -12.8001   25.6974 C   0  0  0  0  0  0  0  0  0  0  0  0
    6.7305  -11.8049   26.0872 C   0  0  0  0  0  0  0  0  0  0  0  0
    8.0528  -12.0121   26.4216 C   0  0  0  0  0  0  0  0  0  0  0  0
    8.5127  -13.3111   26.3477 C   0  0  0  0  0  0  0  0  0  0  0  0
    7.6871  -14.3436   25.9586 C   0  0  0  0  0  0  0  0  0  0  0  0
   11.4588  -16.9219   25.4002 C   0  0  0  0  0  0  0  0  0  0  0  0
   11.8475  -18.0784   24.7452 O   0  0  0  0  0  0  0  0  0  0  0  0
   12.1604  -16.5424   26.3698 O   0  0  0  0  0  0  0  0  0  0  0  0
  1  2  1  0
  3  2  1  0
  3  7  1  0
  4  3  2  0
  6  8  1  0
  6  7  1  0
  6  5  1  6
  8 10  1  0
  9  8  2  0
 10 11  1  0
 11 12  1  1
 12 13  1  0
 13 14  2  0
 13 21  1  0
 14 15  1  0
 15 16  1  0
 16 17  2  0
 17 18  1  0
 19 18  2  0
 20 19  1  0
 21 20  2  0
 21 16  1  0
 22 11  1  0
 23 22  1  0
 24 22  2  0
M  END
$$$$
