GAW.pdb
     RDKit          3D

 24 25  0  0  1  0  0  0  0  0999 V2000
    6.9609  -20.0371   22.1487 N   0  0  0  0  0  0  0  0  0  0  0  0
    6.2137  -18.8108   21.9523 C   0  0  0  0  0  0  0  0  0  0  0  0
    7.1298  -17.7286   21.5221 C   0  0  0  0  0  0  0  0  0  0  0  0
    8.1574  -18.0270   20.8891 O   0  0  0  0  0  0  0  0  0  0  0  0
    6.7727  -14.0209   21.1903 C   0  0  0  0  0  0  0  0  0  0  0  0
    7.6106  -15.2651   21.3504 C   0  0  2  0  0  0  0  0  0  0  0  0
    6.8296  -16.3932   21.8318 N   0  0  0  0  0  0  0  0  0  0  0  0
    8.7520  -15.0703   22.2872 C   0  0  0  0  0  0  0  0  0  0  0  0
    9.6662  -14.2145   22.0423 O   0  0  0  0  0  0  0  0  0  0  0  0
    8.9019  -15.8022   23.4876 N   0  0  0  0  0  0  0  0  0  0  0  0
   10.0547  -15.6430   24.3560 C   0  0  1  0  0  0  0  0  0  0  0  0
    9.5053  -15.4381   25.7535 C   0  0  0  0  0  0  0  0  0  0  0  0
    8.0869  -15.0889   25.7893 C   0  0  0  0  0  0  0  0  0  0  0  0
    6.9988  -15.9151   25.6214 C   0  0  0  0  0  0  0  0  0  0  0  0
    5.8939  -15.1626   25.7377 N   0  0  0  0  0  0  0  0  0  0  0  0
    6.1962  -13.8759   25.9746 C   0  0  0  0  0  0  0  0  0  0  0  0
    5.4741  -12.7194   26.1683 C   0  0  0  0  0  0  0  0  0  0  0  0
    6.1459  -11.5519   26.3885 C   0  0  0  0  0  0  0  0  0  0  0  0
    7.5214  -11.4548   26.4300 C   0  0  0  0  0  0  0  0  0  0  0  0
    8.2295  -12.6229   26.2341 C   0  0  0  0  0  0  0  0  0  0  0  0
    7.5882  -13.8217   26.0089 C   0  0  0  0  0  0  0  0  0  0  0  0
   10.8389  -16.9325   24.4069 C   0  0  0  0  0  0  0  0  0  0  0  0
   12.1054  -16.9964   24.9630 O   0  0  0  0  0  0  0  0  0  0  0  0
   10.3575  -17.9940   23.9404 O   0  0  0  0  0  0  0  0  0  0  0  0
  1  2  1  0
  3  2  1  0
  3  7  1  0
  4  3  2  0
  6  8  1  0
  6  7  1  0
  6  5  1  1
  8 10  1  0
  9  8  2  0
 10 11  1  0
 11 12  1  1
 12 13  1  0
 13 14  2  0
 13 21  1  0
 14 15  1  0
 15 16  1  0
 16 17  2  0
 17 18  1  0
 19 18  2  0
 20 19  1  0
 21 20  2  0
 21 16  1  0
 22 11  1  0
 23 22  1  0
 24 22  2  0
M  END
$$$$
