GAW.pdb
     RDKit          3D

 24 25  0  0  1  0  0  0  0  0999 V2000
    7.5774  -11.9683   19.0429 N   0  0  0  0  0  0  0  0  0  0  0  0
    8.3004  -13.2244   19.0440 C   0  0  0  0  0  0  0  0  0  0  0  0
    8.0385  -13.9529   20.3074 C   0  0  0  0  0  0  0  0  0  0  0  0
    7.7854  -13.3013   21.3356 O   0  0  0  0  0  0  0  0  0  0  0  0
    7.5046  -17.5905   21.1745 C   0  0  0  0  0  0  0  0  0  0  0  0
    7.7857  -16.1473   21.5117 C   0  0  2  0  0  0  0  0  0  0  0  0
    8.0793  -15.3554   20.3279 N   0  0  0  0  0  0  0  0  0  0  0  0
    8.9264  -15.9915   22.4565 C   0  0  0  0  0  0  0  0  0  0  0  0
   10.1044  -15.7462   22.0319 O   0  0  0  0  0  0  0  0  0  0  0  0
    8.7902  -16.1017   23.8595 N   0  0  0  0  0  0  0  0  0  0  0  0
    9.9241  -15.9999   24.7608 C   0  0  1  0  0  0  0  0  0  0  0  0
    9.3598  -15.5808   26.1035 C   0  0  0  0  0  0  0  0  0  0  0  0
    8.0254  -14.9903   26.0292 C   0  0  0  0  0  0  0  0  0  0  0  0
    6.8158  -15.6285   25.8734 C   0  0  0  0  0  0  0  0  0  0  0  0
    5.8578  -14.6889   25.8616 N   0  0  0  0  0  0  0  0  0  0  0  0
    6.3735  -13.4570   26.0019 C   0  0  0  0  0  0  0  0  0  0  0  0
    5.8603  -12.1801   26.0533 C   0  0  0  0  0  0  0  0  0  0  0  0
    6.7189  -11.1304   26.2081 C   0  0  0  0  0  0  0  0  0  0  0  0
    8.0871  -11.2687   26.3179 C   0  0  0  0  0  0  0  0  0  0  0  0
    8.5845  -12.5548   26.2645 C   0  0  0  0  0  0  0  0  0  0  0  0
    7.7506  -13.6408   26.1092 C   0  0  0  0  0  0  0  0  0  0  0  0
   10.5302  -17.3660   24.9771 C   0  0  0  0  0  0  0  0  0  0  0  0
    9.9335  -18.5161   24.4886 O   0  0  0  0  0  0  0  0  0  0  0  0
   11.6044  -17.4969   25.6136 O   0  0  0  0  0  0  0  0  0  0  0  0
  1  2  1  0
  3  2  1  0
  3  7  1  0
  4  3  2  0
  6  8  1  0
  6  7  1  0
  6  5  1  6
  8 10  1  0
  9  8  2  0
 10 11  1  0
 11 12  1  1
 12 13  1  0
 13 14  2  0
 13 21  1  0
 14 15  1  0
 15 16  1  0
 16 17  2  0
 17 18  1  0
 19 18  2  0
 20 19  1  0
 21 20  2  0
 21 16  1  0
 22 11  1  0
 23 22  1  0
 24 22  2  0
M  END
$$$$
