GAW.pdb
     RDKit          3D

 24 25  0  0  1  0  0  0  0  0999 V2000
    7.1966  -12.8864   18.8538 N   0  0  0  0  0  0  0  0  0  0  0  0
    8.5166  -13.3829   19.1880 C   0  0  0  0  0  0  0  0  0  0  0  0
    8.4152  -14.3862   20.2737 C   0  0  0  0  0  0  0  0  0  0  0  0
    7.5245  -14.2561   21.1312 O   0  0  0  0  0  0  0  0  0  0  0  0
    9.8928  -17.8116   20.7477 C   0  0  0  0  0  0  0  0  0  0  0  0
    9.1873  -16.5746   21.2455 C   0  0  2  0  0  0  0  0  0  0  0  0
    9.3172  -15.4602   20.3204 N   0  0  0  0  0  0  0  0  0  0  0  0
    9.6900  -16.1236   22.5730 C   0  0  0  0  0  0  0  0  0  0  0  0
   10.5430  -15.1794   22.6680 O   0  0  0  0  0  0  0  0  0  0  0  0
    9.2686  -16.6954   23.7955 N   0  0  0  0  0  0  0  0  0  0  0  0
    9.8333  -16.3005   25.0736 C   0  0  1  0  0  0  0  0  0  0  0  0
    8.7169  -16.4389   26.0892 C   0  0  0  0  0  0  0  0  0  0  0  0
    7.5986  -15.5241   25.8715 C   0  0  0  0  0  0  0  0  0  0  0  0
    6.3596  -15.8002   25.3388 C   0  0  0  0  0  0  0  0  0  0  0  0
    5.6551  -14.6581   25.3323 N   0  0  0  0  0  0  0  0  0  0  0  0
    6.3670  -13.6366   25.8351 C   0  0  0  0  0  0  0  0  0  0  0  0
    6.1382  -12.2961   26.0520 C   0  0  0  0  0  0  0  0  0  0  0  0
    7.1323  -11.5379   26.5998 C   0  0  0  0  0  0  0  0  0  0  0  0
    8.3689  -12.0356   26.9550 C   0  0  0  0  0  0  0  0  0  0  0  0
    8.5814  -13.3806   26.7310 C   0  0  0  0  0  0  0  0  0  0  0  0
    7.6032  -14.1796   26.1799 C   0  0  0  0  0  0  0  0  0  0  0  0
   10.8951  -17.2896   25.4916 C   0  0  0  0  0  0  0  0  0  0  0  0
   11.7366  -17.0489   26.5645 O   0  0  0  0  0  0  0  0  0  0  0  0
   11.0448  -18.3698   24.8695 O   0  0  0  0  0  0  0  0  0  0  0  0
  1  2  1  0
  3  2  1  0
  3  7  1  0
  4  3  2  0
  6  8  1  0
  6  7  1  0
  6  5  1  6
  8 10  1  0
  9  8  2  0
 10 11  1  0
 11 12  1  1
 12 13  1  0
 13 14  2  0
 13 21  1  0
 14 15  1  0
 15 16  1  0
 16 17  2  0
 17 18  1  0
 19 18  2  0
 20 19  1  0
 21 20  2  0
 21 16  1  0
 22 11  1  0
 23 22  1  0
 24 22  2  0
M  END
$$$$
