GAW.pdb
     RDKit          3D

 24 25  0  0  1  0  0  0  0  0999 V2000
    8.0543  -12.3656   18.5140 N   0  0  0  0  0  0  0  0  0  0  0  0
    8.8321  -13.5862   18.5890 C   0  0  0  0  0  0  0  0  0  0  0  0
    8.5302  -14.2967   19.8538 C   0  0  0  0  0  0  0  0  0  0  0  0
    8.3399  -13.6310   20.8865 O   0  0  0  0  0  0  0  0  0  0  0  0
    7.8995  -17.9273   20.7399 C   0  0  0  0  0  0  0  0  0  0  0  0
    8.1232  -16.4692   21.0555 C   0  0  2  0  0  0  0  0  0  0  0  0
    8.4636  -15.6983   19.8704 N   0  0  0  0  0  0  0  0  0  0  0  0
    9.2035  -16.2597   22.0592 C   0  0  0  0  0  0  0  0  0  0  0  0
   10.4213  -16.1347   21.6995 O   0  0  0  0  0  0  0  0  0  0  0  0
    8.9637  -16.1858   23.4507 N   0  0  0  0  0  0  0  0  0  0  0  0
   10.0347  -16.0117   24.4156 C   0  0  1  0  0  0  0  0  0  0  0  0
    9.6917  -14.7651   25.2065 C   0  0  0  0  0  0  0  0  0  0  0  0
    8.2824  -14.6670   25.5795 C   0  0  0  0  0  0  0  0  0  0  0  0
    7.3599  -15.6804   25.7088 C   0  0  0  0  0  0  0  0  0  0  0  0
    6.1929  -15.1256   26.0708 N   0  0  0  0  0  0  0  0  0  0  0  0
    6.2963  -13.7918   26.1879 C   0  0  0  0  0  0  0  0  0  0  0  0
    5.4370  -12.7679   26.5189 C   0  0  0  0  0  0  0  0  0  0  0  0
    5.9110  -11.4880   26.5324 C   0  0  0  0  0  0  0  0  0  0  0  0
    7.2142  -11.1497   26.2316 C   0  0  0  0  0  0  0  0  0  0  0  0
    8.0618  -12.1878   25.9023 C   0  0  0  0  0  0  0  0  0  0  0  0
    7.6215  -13.4933   25.8773 C   0  0  0  0  0  0  0  0  0  0  0  0
   10.0174  -17.1480   25.4100 C   0  0  0  0  0  0  0  0  0  0  0  0
   11.0454  -17.3413   26.3172 O   0  0  0  0  0  0  0  0  0  0  0  0
    9.0584  -17.9577   25.4409 O   0  0  0  0  0  0  0  0  0  0  0  0
  1  2  1  0
  3  2  1  0
  3  7  1  0
  4  3  2  0
  6  8  1  0
  6  7  1  0
  6  5  1  6
  8 10  1  0
  9  8  2  0
 10 11  1  0
 11 12  1  1
 12 13  1  0
 13 14  2  0
 13 21  1  0
 14 15  1  0
 15 16  1  0
 16 17  2  0
 17 18  1  0
 19 18  2  0
 20 19  1  0
 21 20  2  0
 21 16  1  0
 22 11  1  0
 23 22  1  0
 24 22  2  0
M  END
$$$$
