GAW.pdb
     RDKit          3D

 24 25  0  0  1  0  0  0  0  0999 V2000
    4.9417  -15.0739   20.1547 N   0  0  0  0  0  0  0  0  0  0  0  0
    6.2462  -14.5394   20.4911 C   0  0  0  0  0  0  0  0  0  0  0  0
    7.0302  -15.5572   21.2295 C   0  0  0  0  0  0  0  0  0  0  0  0
    6.4944  -16.1573   22.1774 O   0  0  0  0  0  0  0  0  0  0  0  0
   10.3735  -17.2246   20.7213 C   0  0  0  0  0  0  0  0  0  0  0  0
    9.2142  -16.7595   21.5671 C   0  0  2  0  0  0  0  0  0  0  0  0
    8.3548  -15.8283   20.8538 N   0  0  0  0  0  0  0  0  0  0  0  0
    9.6535  -16.0980   22.8271 C   0  0  0  0  0  0  0  0  0  0  0  0
   10.0427  -14.8828   22.8317 O   0  0  0  0  0  0  0  0  0  0  0  0
    9.6709  -16.7529   24.0800 N   0  0  0  0  0  0  0  0  0  0  0  0
   10.2106  -16.1295   25.2753 C   0  0  1  0  0  0  0  0  0  0  0  0
    9.1524  -16.2882   26.3486 C   0  0  0  0  0  0  0  0  0  0  0  0
    7.9054  -15.5824   26.0628 C   0  0  0  0  0  0  0  0  0  0  0  0
    6.7355  -16.0898   25.5442 C   0  0  0  0  0  0  0  0  0  0  0  0
    5.8570  -15.0794   25.4555 N   0  0  0  0  0  0  0  0  0  0  0  0
    6.3875  -13.9250   25.8904 C   0  0  0  0  0  0  0  0  0  0  0  0
    5.9431  -12.6274   26.0133 C   0  0  0  0  0  0  0  0  0  0  0  0
    6.7936  -11.6838   26.5125 C   0  0  0  0  0  0  0  0  0  0  0  0
    8.0882  -11.9505   26.9073 C   0  0  0  0  0  0  0  0  0  0  0  0
    8.5174  -13.2557   26.7776 C   0  0  0  0  0  0  0  0  0  0  0  0
    7.6891  -14.2371   26.2780 C   0  0  0  0  0  0  0  0  0  0  0  0
   11.4099  -16.9077   25.7613 C   0  0  0  0  0  0  0  0  0  0  0  0
   12.2368  -16.4267   26.7624 O   0  0  0  0  0  0  0  0  0  0  0  0
   11.6928  -18.0254   25.2643 O   0  0  0  0  0  0  0  0  0  0  0  0
  1  2  1  0
  3  2  1  0
  3  7  1  0
  4  3  2  0
  6  8  1  0
  6  7  1  0
  6  5  1  6
  8 10  1  0
  9  8  2  0
 10 11  1  0
 11 12  1  1
 12 13  1  0
 13 14  2  0
 13 21  1  0
 14 15  1  0
 15 16  1  0
 16 17  2  0
 17 18  1  0
 19 18  2  0
 20 19  1  0
 21 20  2  0
 21 16  1  0
 22 11  1  0
 23 22  1  0
 24 22  2  0
M  END
$$$$
