GAW.pdb
     RDKit          3D

 24 25  0  0  1  0  0  0  0  0999 V2000
    6.9963  -12.9908   18.8230 N   0  0  0  0  0  0  0  0  0  0  0  0
    8.3076  -13.5044   19.1655 C   0  0  0  0  0  0  0  0  0  0  0  0
    8.1903  -14.4803   20.2743 C   0  0  0  0  0  0  0  0  0  0  0  0
    7.2871  -14.3289   21.1152 O   0  0  0  0  0  0  0  0  0  0  0  0
    9.6411  -17.8880   20.8961 C   0  0  0  0  0  0  0  0  0  0  0  0
    8.9840  -16.6096   21.3540 C   0  0  2  0  0  0  0  0  0  0  0  0
    9.0913  -15.5526   20.3611 N   0  0  0  0  0  0  0  0  0  0  0  0
    9.5578  -16.0952   22.6285 C   0  0  0  0  0  0  0  0  0  0  0  0
   10.4399  -15.1733   22.6288 O   0  0  0  0  0  0  0  0  0  0  0  0
    9.1758  -16.5797   23.9007 N   0  0  0  0  0  0  0  0  0  0  0  0
    9.7843  -16.1013   25.1292 C   0  0  1  0  0  0  0  0  0  0  0  0
    8.7167  -16.2105   26.1994 C   0  0  0  0  0  0  0  0  0  0  0  0
    7.5207  -15.4160   25.9290 C   0  0  0  0  0  0  0  0  0  0  0  0
    6.3158  -15.8342   25.4112 C   0  0  0  0  0  0  0  0  0  0  0  0
    5.5095  -14.7639   25.3393 N   0  0  0  0  0  0  0  0  0  0  0  0
    6.1215  -13.6546   25.7846 C   0  0  0  0  0  0  0  0  0  0  0  0
    5.7694  -12.3308   25.9253 C   0  0  0  0  0  0  0  0  0  0  0  0
    6.6861  -11.4550   26.4307 C   0  0  0  0  0  0  0  0  0  0  0  0
    7.9609  -11.8162   26.8150 C   0  0  0  0  0  0  0  0  0  0  0  0
    8.2972  -13.1464   26.6675 C   0  0  0  0  0  0  0  0  0  0  0  0
    7.4000  -14.0616   26.1612 C   0  0  0  0  0  0  0  0  0  0  0  0
   10.8889  -17.0400   25.5524 C   0  0  0  0  0  0  0  0  0  0  0  0
   11.8211  -16.6859   26.5131 O   0  0  0  0  0  0  0  0  0  0  0  0
   10.9928  -18.1805   25.0379 O   0  0  0  0  0  0  0  0  0  0  0  0
  1  2  1  0
  3  2  1  0
  3  7  1  0
  4  3  2  0
  6  8  1  0
  6  7  1  0
  6  5  1  6
  8 10  1  0
  9  8  2  0
 10 11  1  0
 11 12  1  1
 12 13  1  0
 13 14  2  0
 13 21  1  0
 14 15  1  0
 15 16  1  0
 16 17  2  0
 17 18  1  0
 19 18  2  0
 20 19  1  0
 21 20  2  0
 21 16  1  0
 22 11  1  0
 23 22  1  0
 24 22  2  0
M  END
$$$$
