GAW.pdb
     RDKit          3D

 24 25  0  0  1  0  0  0  0  0999 V2000
    7.3164  -20.0625   21.0947 N   0  0  0  0  0  0  0  0  0  0  0  0
    6.7383  -18.8419   21.6204 C   0  0  0  0  0  0  0  0  0  0  0  0
    7.5499  -17.6779   21.1938 C   0  0  0  0  0  0  0  0  0  0  0  0
    8.6629  -17.8783   20.6773 O   0  0  0  0  0  0  0  0  0  0  0  0
    6.9322  -13.9822   20.8346 C   0  0  0  0  0  0  0  0  0  0  0  0
    7.8208  -15.1803   21.0593 C   0  0  2  0  0  0  0  0  0  0  0  0
    7.0574  -16.3767   21.3764 N   0  0  0  0  0  0  0  0  0  0  0  0
    8.8051  -14.9657   22.1563 C   0  0  0  0  0  0  0  0  0  0  0  0
    9.6783  -14.0381   22.0854 O   0  0  0  0  0  0  0  0  0  0  0  0
    8.8424  -15.7557   23.3284 N   0  0  0  0  0  0  0  0  0  0  0  0
    9.8097  -15.5294   24.3875 C   0  0  1  0  0  0  0  0  0  0  0  0
    9.0997  -15.8595   25.6852 C   0  0  0  0  0  0  0  0  0  0  0  0
    7.8042  -15.2012   25.8380 C   0  0  0  0  0  0  0  0  0  0  0  0
    6.5474  -15.7528   25.7324 C   0  0  0  0  0  0  0  0  0  0  0  0
    5.6539  -14.7760   25.9519 N   0  0  0  0  0  0  0  0  0  0  0  0
    6.2573  -13.6019   26.1982 C   0  0  0  0  0  0  0  0  0  0  0  0
    5.8330  -12.3216   26.4761 C   0  0  0  0  0  0  0  0  0  0  0  0
    6.7668  -11.3462   26.6743 C   0  0  0  0  0  0  0  0  0  0  0  0
    8.1277  -11.5637   26.6133 C   0  0  0  0  0  0  0  0  0  0  0  0
    8.5356  -12.8521   26.3339 C   0  0  0  0  0  0  0  0  0  0  0  0
    7.6239  -13.8646   26.1275 C   0  0  0  0  0  0  0  0  0  0  0  0
   10.9386  -16.5255   24.2709 C   0  0  0  0  0  0  0  0  0  0  0  0
   12.0706  -16.4437   25.0642 O   0  0  0  0  0  0  0  0  0  0  0  0
   10.8800  -17.4660   23.4413 O   0  0  0  0  0  0  0  0  0  0  0  0
  1  2  1  0
  3  2  1  0
  3  7  1  0
  4  3  2  0
  6  8  1  0
  6  7  1  0
  6  5  1  1
  8 10  1  0
  9  8  2  0
 10 11  1  0
 11 12  1  1
 12 13  1  0
 13 14  2  0
 13 21  1  0
 14 15  1  0
 15 16  1  0
 16 17  2  0
 17 18  1  0
 19 18  2  0
 20 19  1  0
 21 20  2  0
 21 16  1  0
 22 11  1  0
 23 22  1  0
 24 22  2  0
M  END
$$$$
