GAW.pdb
     RDKit          3D

 24 25  0  0  1  0  0  0  0  0999 V2000
    5.2984  -15.3461   20.7436 N   0  0  0  0  0  0  0  0  0  0  0  0
    6.6382  -14.8196   20.9120 C   0  0  0  0  0  0  0  0  0  0  0  0
    7.4920  -15.8265   21.5849 C   0  0  0  0  0  0  0  0  0  0  0  0
    6.9579  -16.6652   22.3313 O   0  0  0  0  0  0  0  0  0  0  0  0
   11.0919  -16.8912   21.3301 C   0  0  0  0  0  0  0  0  0  0  0  0
    9.8002  -16.6940   22.0840 C   0  0  2  0  0  0  0  0  0  0  0  0
    8.8793  -15.8210   21.3739 N   0  0  0  0  0  0  0  0  0  0  0  0
   10.0117  -16.1219   23.4427 C   0  0  0  0  0  0  0  0  0  0  0  0
   10.4045  -14.9177   23.5964 O   0  0  0  0  0  0  0  0  0  0  0  0
    9.7977  -16.8543   24.6331 N   0  0  0  0  0  0  0  0  0  0  0  0
   10.1463  -16.3299   25.9415 C   0  0  1  0  0  0  0  0  0  0  0  0
    8.8974  -16.4514   26.7914 C   0  0  0  0  0  0  0  0  0  0  0  0
    7.7509  -15.7088   26.2727 C   0  0  0  0  0  0  0  0  0  0  0  0
    6.6384  -16.1968   25.6253 C   0  0  0  0  0  0  0  0  0  0  0  0
    5.8465  -15.1535   25.3331 N   0  0  0  0  0  0  0  0  0  0  0  0
    6.3802  -13.9959   25.7554 C   0  0  0  0  0  0  0  0  0  0  0  0
    6.0045  -12.6716   25.7150 C   0  0  0  0  0  0  0  0  0  0  0  0
    6.8317  -11.7348   26.2637 C   0  0  0  0  0  0  0  0  0  0  0  0
    8.0370  -12.0339   26.8646 C   0  0  0  0  0  0  0  0  0  0  0  0
    8.3980  -13.3654   26.8966 C   0  0  0  0  0  0  0  0  0  0  0  0
    7.5904  -14.3411   26.3536 C   0  0  0  0  0  0  0  0  0  0  0  0
   11.1759  -17.2222   26.5927 C   0  0  0  0  0  0  0  0  0  0  0  0
   11.8148  -16.8645   27.7680 O   0  0  0  0  0  0  0  0  0  0  0  0
   11.4838  -18.3258   26.0794 O   0  0  0  0  0  0  0  0  0  0  0  0
  1  2  1  0
  3  2  1  0
  3  7  1  0
  4  3  2  0
  6  8  1  0
  6  7  1  0
  6  5  1  6
  8 10  1  0
  9  8  2  0
 10 11  1  0
 11 12  1  1
 12 13  1  0
 13 14  2  0
 13 21  1  0
 14 15  1  0
 15 16  1  0
 16 17  2  0
 17 18  1  0
 19 18  2  0
 20 19  1  0
 21 20  2  0
 21 16  1  0
 22 11  1  0
 23 22  1  0
 24 22  2  0
M  END
$$$$
