GAW.pdb
     RDKit          3D

 24 25  0  0  1  0  0  0  0  0999 V2000
    6.5414  -20.0948   21.2604 N   0  0  0  0  0  0  0  0  0  0  0  0
    6.1623  -18.8532   21.9050 C   0  0  0  0  0  0  0  0  0  0  0  0
    7.0842  -17.7702   21.4893 C   0  0  0  0  0  0  0  0  0  0  0  0
    8.1430  -18.0711   20.9113 O   0  0  0  0  0  0  0  0  0  0  0  0
    6.7459  -14.0454   21.1603 C   0  0  0  0  0  0  0  0  0  0  0  0
    7.5607  -15.3068   21.3042 C   0  0  2  0  0  0  0  0  0  0  0  0
    6.7544  -16.4316   21.7509 N   0  0  0  0  0  0  0  0  0  0  0  0
    8.6925  -15.1517   22.2598 C   0  0  0  0  0  0  0  0  0  0  0  0
    9.6675  -14.3693   22.0043 O   0  0  0  0  0  0  0  0  0  0  0  0
    8.7671  -15.8438   23.4905 N   0  0  0  0  0  0  0  0  0  0  0  0
    9.8828  -15.6834   24.4058 C   0  0  1  0  0  0  0  0  0  0  0  0
    9.3043  -15.8029   25.8016 C   0  0  0  0  0  0  0  0  0  0  0  0
    7.9705  -15.2233   25.9437 C   0  0  0  0  0  0  0  0  0  0  0  0
    6.7521  -15.8627   25.9041 C   0  0  0  0  0  0  0  0  0  0  0  0
    5.7991  -14.9350   26.0827 N   0  0  0  0  0  0  0  0  0  0  0  0
    6.3264  -13.7099   26.2388 C   0  0  0  0  0  0  0  0  0  0  0  0
    5.8220  -12.4452   26.4449 C   0  0  0  0  0  0  0  0  0  0  0  0
    6.6915  -11.3992   26.5578 C   0  0  0  0  0  0  0  0  0  0  0  0
    8.0625  -11.5296   26.4776 C   0  0  0  0  0  0  0  0  0  0  0  0
    8.5510  -12.8036   26.2710 C   0  0  0  0  0  0  0  0  0  0  0  0
    7.7060  -13.8855   26.1518 C   0  0  0  0  0  0  0  0  0  0  0  0
   10.8386  -16.8428   24.2557 C   0  0  0  0  0  0  0  0  0  0  0  0
   10.5325  -17.9467   23.4779 O   0  0  0  0  0  0  0  0  0  0  0  0
   11.9501  -16.8365   24.8395 O   0  0  0  0  0  0  0  0  0  0  0  0
  1  2  1  0
  3  2  1  0
  3  7  1  0
  4  3  2  0
  6  8  1  0
  6  7  1  0
  6  5  1  1
  8 10  1  0
  9  8  2  0
 10 11  1  0
 11 12  1  1
 12 13  1  0
 13 14  2  0
 13 21  1  0
 14 15  1  0
 15 16  1  0
 16 17  2  0
 17 18  1  0
 19 18  2  0
 20 19  1  0
 21 20  2  0
 21 16  1  0
 22 11  1  0
 23 22  1  0
 24 22  2  0
M  END
$$$$
