GAW.pdb
     RDKit          3D

 24 25  0  0  1  0  0  0  0  0999 V2000
    6.9678  -12.9215   19.2645 N   0  0  0  0  0  0  0  0  0  0  0  0
    8.2291  -13.6240   19.3912 C   0  0  0  0  0  0  0  0  0  0  0  0
    8.1361  -14.6306   20.4745 C   0  0  0  0  0  0  0  0  0  0  0  0
    7.2229  -14.5296   21.3121 O   0  0  0  0  0  0  0  0  0  0  0  0
    9.6606  -18.0102   21.0336 C   0  0  0  0  0  0  0  0  0  0  0  0
    9.0092  -16.7423   21.5273 C   0  0  2  0  0  0  0  0  0  0  0  0
    9.0709  -15.6751   20.5414 N   0  0  0  0  0  0  0  0  0  0  0  0
    9.6244  -16.2345   22.7851 C   0  0  0  0  0  0  0  0  0  0  0  0
   10.5591  -15.3664   22.7572 O   0  0  0  0  0  0  0  0  0  0  0  0
    9.2267  -16.6673   24.0710 N   0  0  0  0  0  0  0  0  0  0  0  0
    9.8724  -16.1968   25.2835 C   0  0  1  0  0  0  0  0  0  0  0  0
    8.8018  -16.1891   26.3562 C   0  0  0  0  0  0  0  0  0  0  0  0
    7.6499  -15.3475   26.0402 C   0  0  0  0  0  0  0  0  0  0  0  0
    6.4113  -15.7321   25.5787 C   0  0  0  0  0  0  0  0  0  0  0  0
    5.6692  -14.6239   25.4313 N   0  0  0  0  0  0  0  0  0  0  0  0
    6.3558  -13.5215   25.7727 C   0  0  0  0  0  0  0  0  0  0  0  0
    6.0865  -12.1715   25.8086 C   0  0  0  0  0  0  0  0  0  0  0  0
    7.0645  -11.3151   26.2243 C   0  0  0  0  0  0  0  0  0  0  0  0
    8.3233  -11.7210   26.6165 C   0  0  0  0  0  0  0  0  0  0  0  0
    8.5763  -13.0770   26.5746 C   0  0  0  0  0  0  0  0  0  0  0  0
    7.6153  -13.9738   26.1609 C   0  0  0  0  0  0  0  0  0  0  0  0
   10.9032  -17.2025   25.7377 C   0  0  0  0  0  0  0  0  0  0  0  0
   11.8376  -16.9014   26.7142 O   0  0  0  0  0  0  0  0  0  0  0  0
   10.9407  -18.3527   25.2358 O   0  0  0  0  0  0  0  0  0  0  0  0
  1  2  1  0
  3  2  1  0
  3  7  1  0
  4  3  2  0
  6  8  1  0
  6  7  1  0
  6  5  1  6
  8 10  1  0
  9  8  2  0
 10 11  1  0
 11 12  1  1
 12 13  1  0
 13 14  2  0
 13 21  1  0
 14 15  1  0
 15 16  1  0
 16 17  2  0
 17 18  1  0
 19 18  2  0
 20 19  1  0
 21 20  2  0
 21 16  1  0
 22 11  1  0
 23 22  1  0
 24 22  2  0
M  END
$$$$
