GAW.pdb
     RDKit          3D

 24 25  0  0  1  0  0  0  0  0999 V2000
    5.7141  -19.4896   22.6963 N   0  0  0  0  0  0  0  0  0  0  0  0
    5.4048  -18.1168   22.3497 C   0  0  0  0  0  0  0  0  0  0  0  0
    6.6071  -17.4582   21.7873 C   0  0  0  0  0  0  0  0  0  0  0  0
    7.5240  -18.1657   21.3353 O   0  0  0  0  0  0  0  0  0  0  0  0
    7.3867  -13.9412   20.7305 C   0  0  0  0  0  0  0  0  0  0  0  0
    7.7921  -15.3317   21.1521 C   0  0  2  0  0  0  0  0  0  0  0  0
    6.6952  -16.0577   21.7721 N   0  0  0  0  0  0  0  0  0  0  0  0
    8.9336  -15.3302   22.1088 C   0  0  0  0  0  0  0  0  0  0  0  0
   10.0807  -14.8898   21.7646 O   0  0  0  0  0  0  0  0  0  0  0  0
    8.8317  -15.8053   23.4366 N   0  0  0  0  0  0  0  0  0  0  0  0
    9.9848  -15.9200   24.3116 C   0  0  1  0  0  0  0  0  0  0  0  0
    9.7539  -14.9403   25.4446 C   0  0  0  0  0  0  0  0  0  0  0  0
    8.3447  -14.7177   25.7600 C   0  0  0  0  0  0  0  0  0  0  0  0
    7.3150  -15.6312   25.7638 C   0  0  0  0  0  0  0  0  0  0  0  0
    6.1951  -14.9816   26.1166 N   0  0  0  0  0  0  0  0  0  0  0  0
    6.4318  -13.6800   26.3472 C   0  0  0  0  0  0  0  0  0  0  0  0
    5.6684  -12.5968   26.7215 C   0  0  0  0  0  0  0  0  0  0  0  0
    6.2730  -11.3811   26.8614 C   0  0  0  0  0  0  0  0  0  0  0  0
    7.6189  -11.1651   26.6489 C   0  0  0  0  0  0  0  0  0  0  0  0
    8.3691  -12.2612   26.2745 C   0  0  0  0  0  0  0  0  0  0  0  0
    7.7959  -13.5051   26.1226 C   0  0  0  0  0  0  0  0  0  0  0  0
   10.0093  -17.2886   24.9492 C   0  0  0  0  0  0  0  0  0  0  0  0
   11.1059  -17.7437   25.6617 O   0  0  0  0  0  0  0  0  0  0  0  0
    9.0236  -18.0598   24.8491 O   0  0  0  0  0  0  0  0  0  0  0  0
  1  2  1  0
  3  2  1  0
  3  7  1  0
  4  3  2  0
  6  8  1  0
  6  7  1  0
  6  5  1  1
  8 10  1  0
  9  8  2  0
 10 11  1  0
 11 12  1  1
 12 13  1  0
 13 14  2  0
 13 21  1  0
 14 15  1  0
 15 16  1  0
 16 17  2  0
 17 18  1  0
 19 18  2  0
 20 19  1  0
 21 20  2  0
 21 16  1  0
 22 11  1  0
 23 22  1  0
 24 22  2  0
M  END
$$$$
