GAW.pdb
     RDKit          3D

 24 25  0  0  1  0  0  0  0  0999 V2000
    8.5567  -13.3170   17.7679 N   0  0  0  0  0  0  0  0  0  0  0  0
    8.0719  -12.7638   19.0167 C   0  0  0  0  0  0  0  0  0  0  0  0
    8.0291  -13.8232   20.0517 C   0  0  0  0  0  0  0  0  0  0  0  0
    7.7674  -13.5068   21.2252 O   0  0  0  0  0  0  0  0  0  0  0  0
    8.4208  -17.5968   19.9689 C   0  0  0  0  0  0  0  0  0  0  0  0
    8.2060  -16.2629   20.6400 C   0  0  2  0  0  0  0  0  0  0  0  0
    8.2824  -15.1574   19.6984 N   0  0  0  0  0  0  0  0  0  0  0  0
    9.1913  -16.0030   21.7262 C   0  0  0  0  0  0  0  0  0  0  0  0
   10.3270  -15.4791   21.4735 O   0  0  0  0  0  0  0  0  0  0  0  0
    8.9458  -16.3107   23.0842 N   0  0  0  0  0  0  0  0  0  0  0  0
    9.9476  -16.1197   24.1177 C   0  0  1  0  0  0  0  0  0  0  0  0
    9.6307  -14.7899   24.7721 C   0  0  0  0  0  0  0  0  0  0  0  0
    8.2387  -14.6521   25.1944 C   0  0  0  0  0  0  0  0  0  0  0  0
    7.2539  -15.6135   25.2195 C   0  0  0  0  0  0  0  0  0  0  0  0
    6.1337  -15.0376   25.6823 N   0  0  0  0  0  0  0  0  0  0  0  0
    6.3275  -13.7394   25.9658 C   0  0  0  0  0  0  0  0  0  0  0  0
    5.5446  -12.7147   26.4491 C   0  0  0  0  0  0  0  0  0  0  0  0
    6.1025  -11.4798   26.6125 C   0  0  0  0  0  0  0  0  0  0  0  0
    7.4189  -11.1883   26.3204 C   0  0  0  0  0  0  0  0  0  0  0  0
    8.1892  -12.2265   25.8374 C   0  0  0  0  0  0  0  0  0  0  0  0
    7.6630  -13.4874   25.6583 C   0  0  0  0  0  0  0  0  0  0  0  0
    9.7744  -17.1613   25.1971 C   0  0  0  0  0  0  0  0  0  0  0  0
   10.7215  -17.3504   26.1894 O   0  0  0  0  0  0  0  0  0  0  0  0
    8.7543  -17.8928   25.2239 O   0  0  0  0  0  0  0  0  0  0  0  0
  1  2  1  0
  3  2  1  0
  3  7  1  0
  4  3  2  0
  6  8  1  0
  6  7  1  0
  6  5  1  6
  8 10  1  0
  9  8  2  0
 10 11  1  0
 11 12  1  1
 12 13  1  0
 13 14  2  0
 13 21  1  0
 14 15  1  0
 15 16  1  0
 16 17  2  0
 17 18  1  0
 19 18  2  0
 20 19  1  0
 21 20  2  0
 21 16  1  0
 22 11  1  0
 23 22  1  0
 24 22  2  0
M  END
$$$$
