GAW.pdb
     RDKit          3D

 24 25  0  0  1  0  0  0  0  0999 V2000
    5.7522  -19.3252   21.8519 N   0  0  0  0  0  0  0  0  0  0  0  0
    5.5767  -17.9031   22.0694 C   0  0  0  0  0  0  0  0  0  0  0  0
    6.7825  -17.1731   21.6125 C   0  0  0  0  0  0  0  0  0  0  0  0
    7.7867  -17.8235   21.2742 O   0  0  0  0  0  0  0  0  0  0  0  0
    7.5629  -13.6643   20.5740 C   0  0  0  0  0  0  0  0  0  0  0  0
    7.9422  -14.9762   21.2150 C   0  0  2  0  0  0  0  0  0  0  0  0
    6.7765  -15.7706   21.5680 N   0  0  0  0  0  0  0  0  0  0  0  0
    8.7592  -14.7964   22.4473 C   0  0  0  0  0  0  0  0  0  0  0  0
    9.1924  -13.6456   22.7882 O   0  0  0  0  0  0  0  0  0  0  0  0
    9.1061  -15.8627   23.3086 N   0  0  0  0  0  0  0  0  0  0  0  0
    9.9434  -15.6747   24.4799 C   0  0  1  0  0  0  0  0  0  0  0  0
    9.1114  -16.1132   25.6684 C   0  0  0  0  0  0  0  0  0  0  0  0
    7.8335  -15.4153   25.7892 C   0  0  0  0  0  0  0  0  0  0  0  0
    6.5654  -15.9140   25.5938 C   0  0  0  0  0  0  0  0  0  0  0  0
    5.6962  -14.9164   25.8170 N   0  0  0  0  0  0  0  0  0  0  0  0
    6.3265  -13.7787   26.1512 C   0  0  0  0  0  0  0  0  0  0  0  0
    5.9331  -12.4983   26.4711 C   0  0  0  0  0  0  0  0  0  0  0  0
    6.8888  -11.5689   26.7639 C   0  0  0  0  0  0  0  0  0  0  0  0
    8.2427  -11.8337   26.7598 C   0  0  0  0  0  0  0  0  0  0  0  0
    8.6195  -13.1215   26.4373 C   0  0  0  0  0  0  0  0  0  0  0  0
    7.6850  -14.0883   26.1356 C   0  0  0  0  0  0  0  0  0  0  0  0
   11.1177  -16.6226   24.4271 C   0  0  0  0  0  0  0  0  0  0  0  0
   12.1976  -16.4972   25.2846 O   0  0  0  0  0  0  0  0  0  0  0  0
   11.1463  -17.5613   23.5938 O   0  0  0  0  0  0  0  0  0  0  0  0
  1  2  1  0
  3  2  1  0
  3  7  1  0
  4  3  2  0
  6  8  1  0
  6  7  1  0
  6  5  1  1
  8 10  1  0
  9  8  2  0
 10 11  1  0
 11 12  1  1
 12 13  1  0
 13 14  2  0
 13 21  1  0
 14 15  1  0
 15 16  1  0
 16 17  2  0
 17 18  1  0
 19 18  2  0
 20 19  1  0
 21 20  2  0
 21 16  1  0
 22 11  1  0
 23 22  1  0
 24 22  2  0
M  END
$$$$
