RKL.pdb
     RDKit          3D

 29 28  0  0  1  0  0  0  0  0999 V2000
    7.5112  -13.6821   13.4733 N   0  0  0  0  0  0  0  0  0  0  0  0
    8.2954  -14.1410   14.5980 C   0  0  0  0  0  0  0  0  0  0  0  0
    8.7027  -15.3633   14.6433 N   0  0  0  0  0  0  0  0  0  0  0  0
    8.6246  -13.2639   15.6543 N   0  0  0  0  0  0  0  0  0  0  0  0
    8.7278  -13.7359   17.0481 C   0  0  0  0  0  0  0  0  0  0  0  0
    7.3843  -14.1855   17.5503 C   0  0  0  0  0  0  0  0  0  0  0  0
    7.4349  -14.7420   18.9027 C   0  0  0  0  0  0  0  0  0  0  0  0
    8.7376  -15.0587   19.5333 C   0  0  2  0  0  0  0  0  0  0  0  0
    9.6970  -15.7864   18.8350 N   0  0  0  0  0  0  0  0  0  0  0  0
    8.5073  -15.5790   20.8874 C   0  0  0  0  0  0  0  0  0  0  0  0
    7.4761  -15.2208   21.5034 O   0  0  0  0  0  0  0  0  0  0  0  0
    9.2228  -15.7408   15.4490 N   0  0  0  0  0  0  0  0  0  0  0  0
    9.4118  -16.4607   21.4997 C   0  0  1  0  0  0  0  0  0  0  0  0
    9.2094  -16.9151   22.8695 C   0  0  0  0  0  0  0  0  0  0  0  0
   10.1684  -18.0301   23.1381 C   0  0  0  0  0  0  0  0  0  0  0  0
   10.0793  -18.5912   24.5356 C   0  0  0  0  0  0  0  0  0  0  0  0
   11.1343  -19.7051   24.6093 C   0  0  0  0  0  0  0  0  0  0  0  0
   11.0361  -20.3096   26.0075 N   0  0  0  0  0  0  0  0  0  0  0  0
   11.9966  -21.4161   26.0320 C   0  0  0  0  0  0  0  0  0  0  0  0
    9.3657  -15.7749   23.8028 O   0  0  0  0  0  0  0  0  0  0  0  0
   10.3827  -15.0413   23.8034 C   0  0  0  0  0  0  0  0  0  0  0  0
    7.8681  -11.2858   25.9473 C   0  0  2  0  0  0  0  0  0  0  0  0
    7.0405  -12.4181   26.5990 C   0  0  0  0  0  0  0  0  0  0  0  0
    5.6765  -11.8628   26.8138 C   0  0  0  0  0  0  0  0  0  0  0  0
    7.1672  -13.5723   25.6847 C   0  0  1  0  0  0  0  0  0  0  0  0
    8.4399  -14.3304   25.6718 N   0  0  0  0  0  0  0  0  0  0  0  0
    8.3500  -15.4482   24.7647 C   0  0  0  0  0  0  0  0  0  0  0  0
    8.9663  -14.6715   26.9899 O   0  0  0  0  0  0  0  0  0  0  0  0
    8.6611  -15.7466   27.5511 O   0  0  0  0  0  0  0  0  0  0  0  0
  2  3  2  0
  2  1  1  0
  4  2  1  0
  5  4  1  0
  6  7  1  0
  6  5  1  0
  8 10  1  0
  8  7  1  0
  8  9  1  6
 10 12  1  0
 11 10  2  0
 12 13  1  0
 13 19  1  0
 13 14  1  6
 15 14  1  0
 16 17  1  0
 16 15  1  0
 18 17  1  0
 19 20  2  0
 19 26  1  0
 22 21  1  1
 22 23  1  0
 24 22  1  0
 25 27  1  0
 25 24  1  6
 26 25  1  0
 27 29  1  0
 28 27  2  0
M  END
$$$$
