RKL.pdb
     RDKit          3D

 29 28  0  0  1  0  0  0  0  0999 V2000
    8.6586  -12.5287   17.2701 N   0  0  0  0  0  0  0  0  0  0  0  0
    8.3297  -13.8366   16.7488 C   0  0  0  0  0  0  0  0  0  0  0  0
    9.0746  -14.3759   15.8454 N   0  0  0  0  0  0  0  0  0  0  0  0
    7.1973  -14.5370   17.2184 N   0  0  0  0  0  0  0  0  0  0  0  0
    7.0673  -14.9386   18.6319 C   0  0  0  0  0  0  0  0  0  0  0  0
    8.2560  -15.7545   19.0567 C   0  0  0  0  0  0  0  0  0  0  0  0
    8.1691  -16.2153   20.4428 C   0  0  0  0  0  0  0  0  0  0  0  0
    7.2457  -17.3145   20.8095 C   0  0  2  0  0  0  0  0  0  0  0  0
    6.1351  -17.5917   20.0176 N   0  0  0  0  0  0  0  0  0  0  0  0
    6.9124  -17.2123   22.2362 C   0  0  0  0  0  0  0  0  0  0  0  0
    5.8012  -16.7330   22.5628 O   0  0  0  0  0  0  0  0  0  0  0  0
    8.9420  -15.3484   15.5309 N   0  0  0  0  0  0  0  0  0  0  0  0
    7.8064  -17.6359   23.2321 C   0  0  1  0  0  0  0  0  0  0  0  0
    7.5008  -17.4526   24.6452 C   0  0  0  0  0  0  0  0  0  0  0  0
    7.6814  -18.7660   25.3362 C   0  0  0  0  0  0  0  0  0  0  0  0
    6.7798  -19.8593   24.8188 C   0  0  0  0  0  0  0  0  0  0  0  0
    7.0476  -21.0816   25.7095 C   0  0  0  0  0  0  0  0  0  0  0  0
    6.0879  -22.1764   25.2509 N   0  0  0  0  0  0  0  0  0  0  0  0
    6.3100  -23.3067   26.1570 C   0  0  0  0  0  0  0  0  0  0  0  0
    8.3529  -16.3777   25.2056 O   0  0  0  0  0  0  0  0  0  0  0  0
    9.5427  -16.2077   24.8478 C   0  0  0  0  0  0  0  0  0  0  0  0
    5.9720  -11.7477   26.6757 C   0  0  2  0  0  0  0  0  0  0  0  0
    6.8266  -12.8552   26.0162 C   0  0  0  0  0  0  0  0  0  0  0  0
    7.3035  -12.2947   24.7226 C   0  0  0  0  0  0  0  0  0  0  0  0
    7.8507  -13.2105   27.0207 C   0  0  2  0  0  0  0  0  0  0  0  0
    8.6571  -14.4350   26.8088 N   0  0  0  0  0  0  0  0  0  0  0  0
    7.8547  -15.4660   26.1976 C   0  0  0  0  0  0  0  0  0  0  0  0
    9.4168  -14.8806   27.9730 O   0  0  0  0  0  0  0  0  0  0  0  0
   10.2294  -14.1219   28.5455 O   0  0  0  0  0  0  0  0  0  0  0  0
  2  3  2  0
  2  1  1  0
  4  2  1  0
  5  4  1  0
  6  7  1  0
  6  5  1  0
  8 10  1  0
  8  7  1  0
  8  9  1  6
 10 12  1  0
 11 10  2  0
 12 13  1  0
 13 19  1  0
 13 14  1  6
 15 14  1  0
 16 17  1  0
 16 15  1  0
 18 17  1  0
 19 20  2  0
 19 26  1  0
 22 21  1  6
 22 23  1  0
 24 22  1  0
 25 27  1  0
 25 24  1  6
 26 25  1  0
 27 29  1  0
 28 27  2  0
M  END
$$$$
