RKL.pdb
     RDKit          3D

 29 28  0  0  1  0  0  0  0  0999 V2000
   12.4438  -19.8731   23.3179 N   0  0  0  0  0  0  0  0  0  0  0  0
   12.4021  -21.2094   23.8686 C   0  0  0  0  0  0  0  0  0  0  0  0
   13.4559  -21.9512   23.8397 N   0  0  0  0  0  0  0  0  0  0  0  0
   11.2159  -21.7170   24.4421 N   0  0  0  0  0  0  0  0  0  0  0  0
    9.9242  -21.0204   24.2917 C   0  0  0  0  0  0  0  0  0  0  0  0
    9.7811  -20.4763   22.8979 C   0  0  0  0  0  0  0  0  0  0  0  0
    8.4535  -19.9209   22.6330 C   0  0  0  0  0  0  0  0  0  0  0  0
    8.1199  -19.3863   21.2921 C   0  0  2  0  0  0  0  0  0  0  0  0
    8.2053  -20.2043   20.1692 N   0  0  0  0  0  0  0  0  0  0  0  0
    8.7928  -18.0944   21.1038 C   0  0  0  0  0  0  0  0  0  0  0  0
    9.4321  -17.8966   20.0440 O   0  0  0  0  0  0  0  0  0  0  0  0
   13.4876  -22.8804   24.2845 N   0  0  0  0  0  0  0  0  0  0  0  0
    8.7353  -17.0866   22.0793 C   0  0  1  0  0  0  0  0  0  0  0  0
    8.8591  -15.6805   21.7170 C   0  0  0  0  0  0  0  0  0  0  0  0
    7.7190  -15.3282   20.8164 C   0  0  0  0  0  0  0  0  0  0  0  0
    7.6884  -13.8768   20.4062 C   0  0  0  0  0  0  0  0  0  0  0  0
    7.6212  -13.8750   18.8718 C   0  0  0  0  0  0  0  0  0  0  0  0
    7.6484  -12.4130   18.4338 N   0  0  0  0  0  0  0  0  0  0  0  0
    7.5504  -12.4328   16.9717 C   0  0  0  0  0  0  0  0  0  0  0  0
    8.9104  -14.8508   22.9435 O   0  0  0  0  0  0  0  0  0  0  0  0
    9.0247  -13.6025   22.9063 C   0  0  0  0  0  0  0  0  0  0  0  0
    8.3198  -11.5938   26.3627 C   0  0  2  0  0  0  0  0  0  0  0  0
    7.3214  -12.7711   26.4568 C   0  0  0  0  0  0  0  0  0  0  0  0
    5.9648  -12.1607   26.5007 C   0  0  0  0  0  0  0  0  0  0  0  0
    7.6358  -13.6445   25.3069 C   0  0  1  0  0  0  0  0  0  0  0  0
    8.6908  -14.6726   25.4647 N   0  0  0  0  0  0  0  0  0  0  0  0
    8.8308  -15.4396   24.2513 C   0  0  0  0  0  0  0  0  0  0  0  0
    8.5846  -15.4824   26.6746 O   0  0  0  0  0  0  0  0  0  0  0  0
    7.8354  -16.4826   26.7210 O   0  0  0  0  0  0  0  0  0  0  0  0
  2  3  2  0
  2  1  1  0
  4  2  1  0
  5  4  1  0
  6  7  1  0
  6  5  1  0
  8 10  1  0
  8  7  1  0
  8  9  1  6
 10 12  1  0
 11 10  2  0
 12 13  1  0
 13 19  1  0
 13 14  1  1
 15 14  1  0
 16 17  1  0
 16 15  1  0
 18 17  1  0
 19 20  2  0
 19 26  1  0
 22 21  1  1
 22 23  1  0
 24 22  1  0
 25 27  1  0
 25 24  1  6
 26 25  1  0
 27 29  1  0
 28 27  2  0
M  END
$$$$
