RKL.pdb
     RDKit          3D

 29 28  0  0  1  0  0  0  0  0999 V2000
    9.6995  -14.3755   19.8624 N   0  0  0  0  0  0  0  0  0  0  0  0
    9.3153  -14.1357   18.4893 C   0  0  0  0  0  0  0  0  0  0  0  0
   10.2196  -13.9286   17.5942 N   0  0  0  0  0  0  0  0  0  0  0  0
    7.9549  -14.1257   18.1117 N   0  0  0  0  0  0  0  0  0  0  0  0
    6.9605  -14.9874   18.7787 C   0  0  0  0  0  0  0  0  0  0  0  0
    6.8153  -14.5992   20.2234 C   0  0  0  0  0  0  0  0  0  0  0  0
    5.8669  -15.4431   20.9511 C   0  0  0  0  0  0  0  0  0  0  0  0
    6.1600  -16.8784   21.1732 C   0  0  2  0  0  0  0  0  0  0  0  0
    5.4310  -17.8558   20.5018 N   0  0  0  0  0  0  0  0  0  0  0  0
    6.2574  -17.1359   22.6160 C   0  0  0  0  0  0  0  0  0  0  0  0
    5.2175  -17.0651   23.3124 O   0  0  0  0  0  0  0  0  0  0  0  0
    9.9861  -13.6500   16.6298 N   0  0  0  0  0  0  0  0  0  0  0  0
    7.4812  -17.4558   23.2246 C   0  0  2  0  0  0  0  0  0  0  0  0
    7.6024  -17.5352   24.6747 C   0  0  0  0  0  0  0  0  0  0  0  0
    8.2386  -18.8436   25.0190 C   0  0  0  0  0  0  0  0  0  0  0  0
    7.4397  -19.6760   25.9910 C   0  0  0  0  0  0  0  0  0  0  0  0
    8.2869  -20.9267   26.2686 C   0  0  0  0  0  0  0  0  0  0  0  0
    7.4813  -21.7971   27.2295 N   0  0  0  0  0  0  0  0  0  0  0  0
    8.3078  -22.9802   27.4842 C   0  0  0  0  0  0  0  0  0  0  0  0
    8.3633  -16.3675   25.1775 O   0  0  0  0  0  0  0  0  0  0  0  0
    9.4787  -16.0392   24.7080 C   0  0  0  0  0  0  0  0  0  0  0  0
    5.6461  -12.1630   27.5886 C   0  0  2  0  0  0  0  0  0  0  0  0
    6.4645  -13.0711   26.6414 C   0  0  0  0  0  0  0  0  0  0  0  0
    6.6710  -12.2875   25.3930 C   0  0  0  0  0  0  0  0  0  0  0  0
    7.6678  -13.4547   27.4088 C   0  0  2  0  0  0  0  0  0  0  0  0
    8.5954  -14.4499   26.8225 N   0  0  0  0  0  0  0  0  0  0  0  0
    7.8570  -15.5431   26.2395 C   0  0  0  0  0  0  0  0  0  0  0  0
    9.6859  -14.8658   27.6992 O   0  0  0  0  0  0  0  0  0  0  0  0
   10.7335  -14.1897   27.7956 O   0  0  0  0  0  0  0  0  0  0  0  0
  2  3  2  0
  2  1  1  0
  4  2  1  0
  5  4  1  0
  6  7  1  0
  6  5  1  0
  8 10  1  0
  8  7  1  0
  8  9  1  1
 10 12  1  0
 11 10  2  0
 12 13  1  0
 13 19  1  0
 13 14  1  6
 15 14  1  0
 16 17  1  0
 16 15  1  0
 18 17  1  0
 19 20  2  0
 19 26  1  0
 22 21  1  6
 22 23  1  0
 24 22  1  0
 25 27  1  0
 25 24  1  6
 26 25  1  0
 27 29  1  0
 28 27  2  0
M  END
$$$$
