RKL.pdb
     RDKit          3D

 29 28  0  0  1  0  0  0  0  0999 V2000
    8.9899  -12.7875   17.8834 N   0  0  0  0  0  0  0  0  0  0  0  0
    9.6380  -13.7749   18.7174 C   0  0  0  0  0  0  0  0  0  0  0  0
   10.9247  -13.8205   18.7801 N   0  0  0  0  0  0  0  0  0  0  0  0
    8.8769  -14.6957   19.4700 N   0  0  0  0  0  0  0  0  0  0  0  0
    7.4117  -14.5728   19.5901 C   0  0  0  0  0  0  0  0  0  0  0  0
    6.9984  -14.6174   21.0345 C   0  0  0  0  0  0  0  0  0  0  0  0
    5.8670  -15.5123   21.2795 C   0  0  0  0  0  0  0  0  0  0  0  0
    6.0983  -16.9387   21.6070 C   0  0  2  0  0  0  0  0  0  0  0  0
    5.2877  -17.9261   21.0546 N   0  0  0  0  0  0  0  0  0  0  0  0
    6.2561  -17.0832   23.0601 C   0  0  0  0  0  0  0  0  0  0  0  0
    5.3182  -16.7182   23.8075 O   0  0  0  0  0  0  0  0  0  0  0  0
   11.4237  -14.5155   19.3548 N   0  0  0  0  0  0  0  0  0  0  0  0
    7.4264  -17.6161   23.6230 C   0  0  2  0  0  0  0  0  0  0  0  0
    7.6104  -17.6681   25.0677 C   0  0  0  0  0  0  0  0  0  0  0  0
    8.2904  -18.9559   25.4057 C   0  0  0  0  0  0  0  0  0  0  0  0
    8.5845  -19.1258   26.8756 C   0  0  0  0  0  0  0  0  0  0  0  0
    9.3622  -20.4445   26.9990 C   0  0  0  0  0  0  0  0  0  0  0  0
    9.7506  -20.5882   28.4682 N   0  0  0  0  0  0  0  0  0  0  0  0
   10.5463  -21.8160   28.5521 C   0  0  0  0  0  0  0  0  0  0  0  0
    8.3649  -16.4753   25.5189 O   0  0  0  0  0  0  0  0  0  0  0  0
    9.4327  -16.1091   24.9728 C   0  0  0  0  0  0  0  0  0  0  0  0
    5.6747  -12.1871   27.3761 C   0  0  2  0  0  0  0  0  0  0  0  0
    6.6324  -13.0967   26.5715 C   0  0  0  0  0  0  0  0  0  0  0  0
    7.0037  -12.3300   25.3511 C   0  0  0  0  0  0  0  0  0  0  0  0
    7.7193  -13.4482   27.5091 C   0  0  2  0  0  0  0  0  0  0  0  0
    8.6437  -14.5466   27.1434 N   0  0  0  0  0  0  0  0  0  0  0  0
    7.9072  -15.6690   26.6161 C   0  0  0  0  0  0  0  0  0  0  0  0
    9.6162  -14.9007   28.1729 O   0  0  0  0  0  0  0  0  0  0  0  0
   10.3978  -14.0472   28.6468 O   0  0  0  0  0  0  0  0  0  0  0  0
  2  3  2  0
  2  1  1  0
  4  2  1  0
  5  4  1  0
  6  7  1  0
  6  5  1  0
  8 10  1  0
  8  7  1  0
  8  9  1  1
 10 12  1  0
 11 10  2  0
 12 13  1  0
 13 19  1  0
 13 14  1  6
 15 14  1  0
 16 17  1  0
 16 15  1  0
 18 17  1  0
 19 20  2  0
 19 26  1  0
 22 21  1  6
 22 23  1  0
 24 22  1  0
 25 27  1  0
 25 24  1  6
 26 25  1  0
 27 29  1  0
 28 27  2  0
M  END
$$$$
