RKL.pdb
     RDKit          3D

 29 28  0  0  1  0  0  0  0  0999 V2000
    9.7562  -14.8880   16.6516 N   0  0  0  0  0  0  0  0  0  0  0  0
    8.4956  -14.5071   16.0547 C   0  0  0  0  0  0  0  0  0  0  0  0
    8.3822  -14.4475   14.7720 N   0  0  0  0  0  0  0  0  0  0  0  0
    7.3791  -14.1977   16.8617 N   0  0  0  0  0  0  0  0  0  0  0  0
    7.5305  -13.8186   18.2793 C   0  0  0  0  0  0  0  0  0  0  0  0
    8.7380  -14.4870   18.8748 C   0  0  0  0  0  0  0  0  0  0  0  0
    8.4954  -15.0187   20.2163 C   0  0  0  0  0  0  0  0  0  0  0  0
    7.7191  -16.2676   20.3971 C   0  0  2  0  0  0  0  0  0  0  0  0
    6.7143  -16.6062   19.4954 N   0  0  0  0  0  0  0  0  0  0  0  0
    7.2822  -16.3690   21.7958 C   0  0  0  0  0  0  0  0  0  0  0  0
    6.1210  -16.0021   22.0926 O   0  0  0  0  0  0  0  0  0  0  0  0
    7.5334  -14.0887   14.3104 N   0  0  0  0  0  0  0  0  0  0  0  0
    8.1325  -16.8630   22.7974 C   0  0  1  0  0  0  0  0  0  0  0  0
    7.6801  -16.9813   24.1777 C   0  0  0  0  0  0  0  0  0  0  0  0
    7.8439  -18.4053   24.6024 C   0  0  0  0  0  0  0  0  0  0  0  0
    7.5686  -18.6433   26.0664 C   0  0  0  0  0  0  0  0  0  0  0  0
    7.9330  -20.1120   26.3293 C   0  0  0  0  0  0  0  0  0  0  0  0
    7.6476  -20.3768   27.8052 N   0  0  0  0  0  0  0  0  0  0  0  0
    7.9852  -21.7850   28.0304 C   0  0  0  0  0  0  0  0  0  0  0  0
    8.4277  -16.0291   25.0321 O   0  0  0  0  0  0  0  0  0  0  0  0
    9.6804  -15.9742   25.0407 C   0  0  0  0  0  0  0  0  0  0  0  0
    6.5267  -11.0036   26.0552 C   0  0  2  0  0  0  0  0  0  0  0  0
    7.3642  -12.2317   25.6285 C   0  0  0  0  0  0  0  0  0  0  0  0
    8.4818  -11.7029   24.8000 C   0  0  0  0  0  0  0  0  0  0  0  0
    7.7192  -12.9205   26.8869 C   0  0  2  0  0  0  0  0  0  0  0  0
    8.4296  -14.2182   26.8091 N   0  0  0  0  0  0  0  0  0  0  0  0
    7.7487  -15.1106   25.9033 C   0  0  0  0  0  0  0  0  0  0  0  0
    8.7627  -14.8156   28.0987 O   0  0  0  0  0  0  0  0  0  0  0  0
    8.2682  -15.9079   28.4538 O   0  0  0  0  0  0  0  0  0  0  0  0
  2  3  2  0
  2  1  1  0
  4  2  1  0
  5  4  1  0
  6  7  1  0
  6  5  1  0
  8 10  1  0
  8  7  1  0
  8  9  1  6
 10 12  1  0
 11 10  2  0
 12 13  1  0
 13 19  1  0
 13 14  1  1
 15 14  1  0
 16 17  1  0
 16 15  1  0
 18 17  1  0
 19 20  2  0
 19 26  1  0
 22 21  1  6
 22 23  1  0
 24 22  1  0
 25 27  1  0
 25 24  1  6
 26 25  1  0
 27 29  1  0
 28 27  2  0
M  END
$$$$
