RKL.pdb
     RDKit          3D

 29 28  0  0  1  0  0  0  0  0999 V2000
    9.0662  -13.7672   16.1566 N   0  0  0  0  0  0  0  0  0  0  0  0
    8.3702  -13.2942   17.3323 C   0  0  0  0  0  0  0  0  0  0  0  0
    8.4598  -12.0559   17.6794 N   0  0  0  0  0  0  0  0  0  0  0  0
    7.5878  -14.1746   18.1110 N   0  0  0  0  0  0  0  0  0  0  0  0
    7.5727  -15.6275   17.8559 C   0  0  0  0  0  0  0  0  0  0  0  0
    7.9663  -16.3816   19.0950 C   0  0  0  0  0  0  0  0  0  0  0  0
    9.3859  -16.2451   19.4223 C   0  0  0  0  0  0  0  0  0  0  0  0
    9.9729  -17.0158   20.5434 C   0  0  2  0  0  0  0  0  0  0  0  0
    9.5208  -18.3020   20.8235 N   0  0  0  0  0  0  0  0  0  0  0  0
   10.0330  -16.1640   21.7385 C   0  0  0  0  0  0  0  0  0  0  0  0
   10.8341  -15.2001   21.7520 O   0  0  0  0  0  0  0  0  0  0  0  0
    8.0213  -11.6916   18.5379 N   0  0  0  0  0  0  0  0  0  0  0  0
    9.2189  -16.4071   22.8559 C   0  0  1  0  0  0  0  0  0  0  0  0
    9.3454  -15.6070   24.0674 C   0  0  0  0  0  0  0  0  0  0  0  0
    7.9714  -15.2575   24.5417 C   0  0  0  0  0  0  0  0  0  0  0  0
    7.9437  -14.1822   25.5995 C   0  0  0  0  0  0  0  0  0  0  0  0
    6.4669  -14.0097   25.9848 C   0  0  0  0  0  0  0  0  0  0  0  0
    6.4066  -12.8569   26.9836 N   0  0  0  0  0  0  0  0  0  0  0  0
    5.0115  -12.7855   27.4265 C   0  0  0  0  0  0  0  0  0  0  0  0
   10.1385  -16.3484   25.0757 O   0  0  0  0  0  0  0  0  0  0  0  0
   10.7876  -17.3832   24.7921 C   0  0  0  0  0  0  0  0  0  0  0  0
   10.2000  -14.1577   30.2833 C   0  0  2  0  0  0  0  0  0  0  0  0
   10.3820  -14.5232   28.7916 C   0  0  0  0  0  0  0  0  0  0  0  0
   11.3724  -13.5555   28.2463 C   0  0  0  0  0  0  0  0  0  0  0  0
   10.7537  -15.9535   28.7810 C   0  0  2  0  0  0  0  0  0  0  0  0
   10.9104  -16.6359   27.4754 N   0  0  0  0  0  0  0  0  0  0  0  0
   10.2051  -15.9155   26.4439 C   0  0  0  0  0  0  0  0  0  0  0  0
   10.6396  -18.0702   27.4944 O   0  0  0  0  0  0  0  0  0  0  0  0
   11.3654  -18.8580   28.1396 O   0  0  0  0  0  0  0  0  0  0  0  0
  2  3  2  0
  2  1  1  0
  4  2  1  0
  5  4  1  0
  6  7  1  0
  6  5  1  0
  8 10  1  0
  8  7  1  0
  8  9  1  1
 10 12  1  0
 11 10  2  0
 12 13  1  0
 13 19  1  0
 13 14  1  1
 15 14  1  0
 16 17  1  0
 16 15  1  0
 18 17  1  0
 19 20  2  0
 19 26  1  0
 22 21  1  6
 22 23  1  0
 24 22  1  0
 25 27  1  0
 25 24  1  6
 26 25  1  0
 27 29  1  0
 28 27  2  0
M  END
$$$$
