RKL.pdb
     RDKit          3D

 29 28  0  0  1  0  0  0  0  0999 V2000
    7.5848  -20.9707   22.6265 N   0  0  0  0  0  0  0  0  0  0  0  0
    8.5652  -21.3707   23.6110 C   0  0  0  0  0  0  0  0  0  0  0  0
    8.2473  -22.2173   24.5297 N   0  0  0  0  0  0  0  0  0  0  0  0
    9.8750  -20.8444   23.5805 N   0  0  0  0  0  0  0  0  0  0  0  0
   10.2332  -19.7109   22.7069 C   0  0  0  0  0  0  0  0  0  0  0  0
   10.2738  -20.1489   21.2697 C   0  0  0  0  0  0  0  0  0  0  0  0
    9.4727  -19.2986   20.3885 C   0  0  0  0  0  0  0  0  0  0  0  0
   10.0766  -18.1082   19.7455 C   0  0  2  0  0  0  0  0  0  0  0  0
   11.2796  -18.2184   19.0540 N   0  0  0  0  0  0  0  0  0  0  0  0
   10.0704  -16.9882   20.6957 C   0  0  0  0  0  0  0  0  0  0  0  0
   11.1631  -16.4657   21.0187 O   0  0  0  0  0  0  0  0  0  0  0  0
    8.9298  -22.5624   25.2205 N   0  0  0  0  0  0  0  0  0  0  0  0
    8.8757  -16.4968   21.2448 C   0  0  2  0  0  0  0  0  0  0  0  0
    8.8811  -15.3792   22.1801 C   0  0  0  0  0  0  0  0  0  0  0  0
    7.5983  -14.6287   22.0182 C   0  0  0  0  0  0  0  0  0  0  0  0
    7.7326  -13.3493   21.2302 C   0  0  0  0  0  0  0  0  0  0  0  0
    7.6239  -13.7526   19.7522 C   0  0  0  0  0  0  0  0  0  0  0  0
    7.8857  -12.4912   18.9335 N   0  0  0  0  0  0  0  0  0  0  0  0
    7.7513  -12.8915   17.5301 C   0  0  0  0  0  0  0  0  0  0  0  0
    9.0920  -15.8814   23.5581 O   0  0  0  0  0  0  0  0  0  0  0  0
    8.6948  -17.0112   23.9299 C   0  0  0  0  0  0  0  0  0  0  0  0
   10.6090  -13.1782   28.8522 C   0  0  2  0  0  0  0  0  0  0  0  0
   10.3836  -14.5803   28.2399 C   0  0  0  0  0  0  0  0  0  0  0  0
    9.2541  -15.1857   28.9967 C   0  0  0  0  0  0  0  0  0  0  0  0
   10.1851  -14.3492   26.7938 C   0  0  1  0  0  0  0  0  0  0  0  0
    9.9663  -15.5194   25.9121 N   0  0  0  0  0  0  0  0  0  0  0  0
    9.7692  -15.0918   24.5488 C   0  0  0  0  0  0  0  0  0  0  0  0
    8.9684  -16.4717   26.3898 O   0  0  0  0  0  0  0  0  0  0  0  0
    9.3048  -17.5193   26.9841 O   0  0  0  0  0  0  0  0  0  0  0  0
  2  3  2  0
  2  1  1  0
  4  2  1  0
  5  4  1  0
  6  7  1  0
  6  5  1  0
  8 10  1  0
  8  7  1  0
  8  9  1  1
 10 12  1  0
 11 10  2  0
 12 13  1  0
 13 19  1  0
 13 14  1  6
 15 14  1  0
 16 17  1  0
 16 15  1  0
 18 17  1  0
 19 20  2  0
 19 26  1  0
 22 21  1  1
 22 23  1  0
 24 22  1  0
 25 27  1  0
 25 24  1  6
 26 25  1  0
 27 29  1  0
 28 27  2  0
M  END
$$$$
