RKL.pdb
     RDKit          3D

 29 28  0  0  1  0  0  0  0  0999 V2000
    9.2412  -14.9141   14.8647 N   0  0  0  0  0  0  0  0  0  0  0  0
    8.5315  -13.6984   15.1946 C   0  0  0  0  0  0  0  0  0  0  0  0
    8.4107  -12.7641   14.3147 N   0  0  0  0  0  0  0  0  0  0  0  0
    7.9645  -13.5184   16.4751 N   0  0  0  0  0  0  0  0  0  0  0  0
    8.1369  -14.5192   17.5451 C   0  0  0  0  0  0  0  0  0  0  0  0
    6.8703  -15.3054   17.7368 C   0  0  0  0  0  0  0  0  0  0  0  0
    6.9105  -16.1799   18.9093 C   0  0  0  0  0  0  0  0  0  0  0  0
    7.0018  -15.6023   20.2707 C   0  0  2  0  0  0  0  0  0  0  0  0
    7.2273  -14.2394   20.4413 N   0  0  0  0  0  0  0  0  0  0  0  0
    7.8958  -16.4310   21.0901 C   0  0  0  0  0  0  0  0  0  0  0  0
    7.9946  -17.6526   20.8273 O   0  0  0  0  0  0  0  0  0  0  0  0
    7.9917  -11.8491   14.5370 N   0  0  0  0  0  0  0  0  0  0  0  0
    8.6339  -15.8866   22.1528 C   0  0  2  0  0  0  0  0  0  0  0  0
    9.5297  -16.7155   22.9492 C   0  0  0  0  0  0  0  0  0  0  0  0
   10.4963  -17.3814   22.0233 C   0  0  0  0  0  0  0  0  0  0  0  0
   11.3850  -18.3993   22.6942 C   0  0  0  0  0  0  0  0  0  0  0  0
   12.2723  -18.9799   21.5830 C   0  0  0  0  0  0  0  0  0  0  0  0
   13.1973  -19.9963   22.2473 N   0  0  0  0  0  0  0  0  0  0  0  0
   13.9571  -20.6158   21.1580 C   0  0  0  0  0  0  0  0  0  0  0  0
   10.1913  -15.8859   23.9834 O   0  0  0  0  0  0  0  0  0  0  0  0
   10.9752  -14.9506   23.6948 C   0  0  0  0  0  0  0  0  0  0  0  0
    8.2716  -12.2402   26.3477 C   0  0  2  0  0  0  0  0  0  0  0  0
    7.4167  -13.5268   26.4216 C   0  0  0  0  0  0  0  0  0  0  0  0
    6.0662  -13.1558   25.9180 C   0  0  0  0  0  0  0  0  0  0  0  0
    8.1705  -14.5427   25.6575 C   0  0  1  0  0  0  0  0  0  0  0  0
    9.3847  -15.1325   26.2678 N   0  0  0  0  0  0  0  0  0  0  0  0
    9.9663  -16.1127   25.3839 C   0  0  0  0  0  0  0  0  0  0  0  0
    9.2208  -15.5915   27.6438 O   0  0  0  0  0  0  0  0  0  0  0  0
    9.2329  -14.7867   28.6010 O   0  0  0  0  0  0  0  0  0  0  0  0
  2  3  2  0
  2  1  1  0
  4  2  1  0
  5  4  1  0
  6  7  1  0
  6  5  1  0
  8 10  1  0
  8  7  1  0
  8  9  1  6
 10 12  1  0
 11 10  2  0
 12 13  1  0
 13 19  1  0
 13 14  1  6
 15 14  1  0
 16 17  1  0
 16 15  1  0
 18 17  1  0
 19 20  2  0
 19 26  1  0
 22 21  1  1
 22 23  1  0
 24 22  1  0
 25 27  1  0
 25 24  1  6
 26 25  1  0
 27 29  1  0
 28 27  2  0
M  END
$$$$
