RKL.pdb
     RDKit          3D

 29 28  0  0  1  0  0  0  0  0999 V2000
    8.9613  -15.3341   15.9251 N   0  0  0  0  0  0  0  0  0  0  0  0
    8.4056  -14.0754   15.4807 C   0  0  0  0  0  0  0  0  0  0  0  0
    8.0956  -13.9102   14.2404 N   0  0  0  0  0  0  0  0  0  0  0  0
    8.1954  -13.0175   16.3918 N   0  0  0  0  0  0  0  0  0  0  0  0
    8.2902  -13.2217   17.8497 C   0  0  0  0  0  0  0  0  0  0  0  0
    7.2125  -14.1585   18.3191 C   0  0  0  0  0  0  0  0  0  0  0  0
    7.2389  -14.3840   19.7647 C   0  0  0  0  0  0  0  0  0  0  0  0
    8.5308  -14.5111   20.4788 C   0  0  2  0  0  0  0  0  0  0  0  0
    9.6671  -14.9449   19.8021 N   0  0  0  0  0  0  0  0  0  0  0  0
    8.3175  -15.2265   21.7437 C   0  0  0  0  0  0  0  0  0  0  0  0
    7.2224  -15.0876   22.3374 O   0  0  0  0  0  0  0  0  0  0  0  0
    7.7616  -13.0075   13.8719 N   0  0  0  0  0  0  0  0  0  0  0  0
    9.3076  -16.0541   22.2960 C   0  0  1  0  0  0  0  0  0  0  0  0
    9.0167  -16.9216   23.4303 C   0  0  0  0  0  0  0  0  0  0  0  0
    9.5519  -18.2839   23.1257 C   0  0  0  0  0  0  0  0  0  0  0  0
    8.6761  -19.0934   22.2018 C   0  0  0  0  0  0  0  0  0  0  0  0
    9.4499  -20.3894   21.9177 C   0  0  0  0  0  0  0  0  0  0  0  0
    8.5495  -21.2535   21.0387 N   0  0  0  0  0  0  0  0  0  0  0  0
    9.3213  -22.4642   20.7456 C   0  0  0  0  0  0  0  0  0  0  0  0
    9.5853  -16.3356   24.6667 O   0  0  0  0  0  0  0  0  0  0  0  0
    9.9191  -17.0369   25.6512 C   0  0  0  0  0  0  0  0  0  0  0  0
    5.9368  -13.5137   26.4237 C   0  0  2  0  0  0  0  0  0  0  0  0
    7.0690  -12.5669   25.9618 C   0  0  0  0  0  0  0  0  0  0  0  0
    7.6515  -11.9831   27.2007 C   0  0  0  0  0  0  0  0  0  0  0  0
    7.9561  -13.3976   25.1208 C   0  0  2  0  0  0  0  0  0  0  0  0
    9.0878  -14.1036   25.7655 N   0  0  0  0  0  0  0  0  0  0  0  0
    9.7855  -14.9195   24.8024 C   0  0  0  0  0  0  0  0  0  0  0  0
    8.7540  -14.7970   27.0060 O   0  0  0  0  0  0  0  0  0  0  0  0
    9.2286  -14.4278   28.1024 O   0  0  0  0  0  0  0  0  0  0  0  0
  2  3  2  0
  2  1  1  0
  4  2  1  0
  5  4  1  0
  6  7  1  0
  6  5  1  0
  8 10  1  0
  8  7  1  0
  8  9  1  6
 10 12  1  0
 11 10  2  0
 12 13  1  0
 13 19  1  0
 13 14  1  1
 15 14  1  0
 16 17  1  0
 16 15  1  0
 18 17  1  0
 19 20  2  0
 19 26  1  0
 22 21  1  6
 22 23  1  0
 24 22  1  0
 25 27  1  0
 25 24  1  6
 26 25  1  0
 27 29  1  0
 28 27  2  0
M  END
$$$$
