GKN.pdb
     RDKit          3D

 22 21  0  0  1  0  0  0  0  0999 V2000
    7.5384  -21.1331   20.7269 N   0  0  0  0  0  0  0  0  0  0  0  0
    7.1582  -20.0366   21.5868 C   0  0  0  0  0  0  0  0  0  0  0  0
    7.9421  -18.7869   21.3157 C   0  0  0  0  0  0  0  0  0  0  0  0
    9.0885  -18.9206   20.8879 O   0  0  0  0  0  0  0  0  0  0  0  0
    7.4284  -17.4990   21.5344 N   0  0  0  0  0  0  0  0  0  0  0  0
    8.0675  -16.2616   21.4755 C   0  0  1  0  0  0  0  0  0  0  0  0
    7.2530  -14.9795   21.5198 C   0  0  0  0  0  0  0  0  0  0  0  0
    7.9552  -13.7516   21.0923 C   0  0  0  0  0  0  0  0  0  0  0  0
    7.9673  -13.6742   19.5601 C   0  0  0  0  0  0  0  0  0  0  0  0
    8.6960  -12.4742   19.0486 C   0  0  0  0  0  0  0  0  0  0  0  0
    8.5426  -12.4959   17.6078 N   0  0  0  0  0  0  0  0  0  0  0  0
    9.1498  -16.0276   22.4378 C   0  0  0  0  0  0  0  0  0  0  0  0
    8.8882  -16.4928   23.6187 O   0  0  0  0  0  0  0  0  0  0  0  0
   12.8663  -19.2035   24.2646 N   0  0  0  0  0  0  0  0  0  0  0  0
   12.5504  -17.8132   24.1215 C   0  0  0  0  0  0  0  0  0  0  0  0
   13.3523  -17.0129   24.6654 O   0  0  0  0  0  0  0  0  0  0  0  0
   11.3704  -17.3388   23.3946 C   0  0  0  0  0  0  0  0  0  0  0  0
   11.5327  -15.8902   22.9946 C   0  0  2  0  0  0  0  0  0  0  0  0
   10.3730  -15.4090   22.2684 N   0  0  0  0  0  0  0  0  0  0  0  0
   12.7950  -15.7436   22.2024 C   0  0  0  0  0  0  0  0  0  0  0  0
   12.8875  -16.0935   20.8890 O   0  0  0  0  0  0  0  0  0  0  0  0
   13.7880  -15.2676   22.8298 O   0  0  0  0  0  0  0  0  0  0  0  0
  1  2  1  0
  2  3  1  0
  3  4  2  0
  3  5  1  0
  5  6  1  0
  6 12  1  0
  6  7  1  1
  8  7  1  0
  9  8  1  0
 10  9  1  0
 10 11  1  0
 12 13  2  0
 12 19  1  0
 15 17  1  0
 15 14  1  0
 16 15  2  0
 18 20  1  0
 18 17  1  6
 19 18  1  0
 20 21  1  0
 22 20  2  0
M  END
$$$$
