GKN.pdb
     RDKit          3D

 22 21  0  0  1  0  0  0  0  0999 V2000
    5.0194  -19.2460   22.3183 N   0  0  0  0  0  0  0  0  0  0  0  0
    5.0505  -17.8445   22.6660 C   0  0  0  0  0  0  0  0  0  0  0  0
    6.3705  -17.1998   22.3627 C   0  0  0  0  0  0  0  0  0  0  0  0
    7.3097  -17.9424   22.0774 O   0  0  0  0  0  0  0  0  0  0  0  0
    6.5697  -15.8108   22.3987 N   0  0  0  0  0  0  0  0  0  0  0  0
    7.7501  -15.0759   22.2999 C   0  0  1  0  0  0  0  0  0  0  0  0
    7.7095  -13.6238   21.8537 C   0  0  0  0  0  0  0  0  0  0  0  0
    7.0764  -13.3668   20.5436 C   0  0  0  0  0  0  0  0  0  0  0  0
    8.1116  -13.5565   19.4272 C   0  0  0  0  0  0  0  0  0  0  0  0
    7.5361  -13.3456   18.0645 C   0  0  0  0  0  0  0  0  0  0  0  0
    8.6203  -13.5768   17.1312 N   0  0  0  0  0  0  0  0  0  0  0  0
    8.6223  -15.0603   23.4793 C   0  0  0  0  0  0  0  0  0  0  0  0
    7.9661  -15.0904   24.5963 O   0  0  0  0  0  0  0  0  0  0  0  0
    8.2173  -17.5145   26.5497 N   0  0  0  0  0  0  0  0  0  0  0  0
    9.5486  -17.3937   26.0335 C   0  0  0  0  0  0  0  0  0  0  0  0
   10.4698  -17.4272   26.8876 O   0  0  0  0  0  0  0  0  0  0  0  0
    9.8341  -17.2366   24.6054 C   0  0  0  0  0  0  0  0  0  0  0  0
   10.6978  -16.0204   24.3612 C   0  0  2  0  0  0  0  0  0  0  0  0
   10.0004  -15.0274   23.5666 N   0  0  0  0  0  0  0  0  0  0  0  0
   11.9800  -16.4556   23.7215 C   0  0  0  0  0  0  0  0  0  0  0  0
   12.0471  -16.9177   22.4416 O   0  0  0  0  0  0  0  0  0  0  0  0
   13.0157  -16.3683   24.4465 O   0  0  0  0  0  0  0  0  0  0  0  0
  1  2  1  0
  2  3  1  0
  3  4  2  0
  3  5  1  0
  5  6  1  0
  6 12  1  0
  6  7  1  1
  8  7  1  0
  9  8  1  0
 10  9  1  0
 10 11  1  0
 12 13  2  0
 12 19  1  0
 15 17  1  0
 15 14  1  0
 16 15  2  0
 18 20  1  0
 18 17  1  6
 19 18  1  0
 20 21  1  0
 22 20  2  0
M  END
$$$$
