GKN.pdb
     RDKit          3D

 22 21  0  0  1  0  0  0  0  0999 V2000
    6.1303  -20.3094   19.4036 N   0  0  0  0  0  0  0  0  0  0  0  0
    6.6578  -19.9440   20.6976 C   0  0  0  0  0  0  0  0  0  0  0  0
    7.5194  -18.7172   20.6483 C   0  0  0  0  0  0  0  0  0  0  0  0
    8.6661  -18.8488   20.2207 O   0  0  0  0  0  0  0  0  0  0  0  0
    7.0764  -17.4537   21.0699 N   0  0  0  0  0  0  0  0  0  0  0  0
    7.7684  -16.2462   21.1492 C   0  0  1  0  0  0  0  0  0  0  0  0
    7.0216  -14.9574   21.4497 C   0  0  0  0  0  0  0  0  0  0  0  0
    7.7790  -13.7063   21.2386 C   0  0  0  0  0  0  0  0  0  0  0  0
    8.0309  -13.5056   19.7386 C   0  0  0  0  0  0  0  0  0  0  0  0
    8.7500  -12.2304   19.4396 C   0  0  0  0  0  0  0  0  0  0  0  0
    8.8620  -12.1621   17.9964 N   0  0  0  0  0  0  0  0  0  0  0  0
    8.9262  -16.2033   22.0489 C   0  0  0  0  0  0  0  0  0  0  0  0
    8.6586  -16.6339   23.2415 O   0  0  0  0  0  0  0  0  0  0  0  0
   13.4574  -19.2067   22.9860 N   0  0  0  0  0  0  0  0  0  0  0  0
   12.4847  -18.2660   23.4575 C   0  0  0  0  0  0  0  0  0  0  0  0
   12.6364  -17.8716   24.6410 O   0  0  0  0  0  0  0  0  0  0  0  0
   11.3765  -17.7879   22.6273 C   0  0  0  0  0  0  0  0  0  0  0  0
   11.3012  -16.2784   22.6498 C   0  0  2  0  0  0  0  0  0  0  0  0
   10.2227  -15.7901   21.8118 N   0  0  0  0  0  0  0  0  0  0  0  0
   12.6295  -15.7197   22.2422 C   0  0  0  0  0  0  0  0  0  0  0  0
   13.6923  -15.6477   23.0914 O   0  0  0  0  0  0  0  0  0  0  0  0
   12.7127  -15.3121   21.0451 O   0  0  0  0  0  0  0  0  0  0  0  0
  1  2  1  0
  2  3  1  0
  3  4  2  0
  3  5  1  0
  5  6  1  0
  6 12  1  0
  6  7  1  1
  8  7  1  0
  9  8  1  0
 10  9  1  0
 10 11  1  0
 12 13  2  0
 12 19  1  0
 15 17  1  0
 15 14  1  0
 16 15  2  0
 18 20  1  0
 18 17  1  6
 19 18  1  0
 20 21  1  0
 22 20  2  0
M  END
$$$$
