GKN.pdb
     RDKit          3D

 22 21  0  0  1  0  0  0  0  0999 V2000
    4.7492  -19.5662   22.8874 N   0  0  0  0  0  0  0  0  0  0  0  0
    4.8959  -18.2205   23.3910 C   0  0  0  0  0  0  0  0  0  0  0  0
    6.0711  -17.5025   22.7965 C   0  0  0  0  0  0  0  0  0  0  0  0
    7.0224  -18.1885   22.4231 O   0  0  0  0  0  0  0  0  0  0  0  0
    6.1258  -16.1065   22.6603 N   0  0  0  0  0  0  0  0  0  0  0  0
    7.1721  -15.2925   22.2293 C   0  0  1  0  0  0  0  0  0  0  0  0
    6.9123  -13.8359   21.8829 C   0  0  0  0  0  0  0  0  0  0  0  0
    8.0117  -13.1285   21.1941 C   0  0  0  0  0  0  0  0  0  0  0  0
    7.9841  -13.4696   19.6985 C   0  0  0  0  0  0  0  0  0  0  0  0
    9.0576  -12.7724   18.9277 C   0  0  0  0  0  0  0  0  0  0  0  0
    8.8297  -13.1021   17.5351 N   0  0  0  0  0  0  0  0  0  0  0  0
    8.3694  -15.2477   23.0757 C   0  0  0  0  0  0  0  0  0  0  0  0
    8.1124  -14.9151   24.3015 O   0  0  0  0  0  0  0  0  0  0  0  0
    8.1244  -17.1843   26.1272 N   0  0  0  0  0  0  0  0  0  0  0  0
    9.4407  -16.7260   25.7945 C   0  0  0  0  0  0  0  0  0  0  0  0
    9.9792  -15.9593   26.6321 O   0  0  0  0  0  0  0  0  0  0  0  0
   10.1267  -17.1136   24.5596 C   0  0  0  0  0  0  0  0  0  0  0  0
   10.6159  -15.8944   23.8119 C   0  0  2  0  0  0  0  0  0  0  0  0
    9.6895  -15.5092   22.7645 N   0  0  0  0  0  0  0  0  0  0  0  0
   11.9878  -16.1699   23.2783 C   0  0  0  0  0  0  0  0  0  0  0  0
   12.2659  -16.2172   21.9454 O   0  0  0  0  0  0  0  0  0  0  0  0
   12.8904  -16.3585   24.1476 O   0  0  0  0  0  0  0  0  0  0  0  0
  1  2  1  0
  2  3  1  0
  3  4  2  0
  3  5  1  0
  5  6  1  0
  6 12  1  0
  6  7  1  1
  8  7  1  0
  9  8  1  0
 10  9  1  0
 10 11  1  0
 12 13  2  0
 12 19  1  0
 15 17  1  0
 15 14  1  0
 16 15  2  0
 18 20  1  0
 18 17  1  6
 19 18  1  0
 20 21  1  0
 22 20  2  0
M  END
$$$$
