GKN.pdb
     RDKit          3D

 22 21  0  0  1  0  0  0  0  0999 V2000
    9.4511  -17.9818   17.3300 N   0  0  0  0  0  0  0  0  0  0  0  0
    9.1013  -18.3691   18.6768 C   0  0  0  0  0  0  0  0  0  0  0  0
    9.5273  -17.3594   19.7009 C   0  0  0  0  0  0  0  0  0  0  0  0
   10.7351  -17.2333   19.9018 O   0  0  0  0  0  0  0  0  0  0  0  0
    8.6171  -16.5755   20.4272 N   0  0  0  0  0  0  0  0  0  0  0  0
    8.8487  -15.6527   21.4459 C   0  0  1  0  0  0  0  0  0  0  0  0
    7.7416  -14.7102   21.8876 C   0  0  0  0  0  0  0  0  0  0  0  0
    7.6267  -13.4467   21.1302 C   0  0  0  0  0  0  0  0  0  0  0  0
    7.4445  -13.7569   19.6388 C   0  0  0  0  0  0  0  0  0  0  0  0
    7.2026  -12.5309   18.8196 C   0  0  0  0  0  0  0  0  0  0  0  0
    7.0897  -12.9817   17.4470 N   0  0  0  0  0  0  0  0  0  0  0  0
    9.3919  -16.1762   22.7040 C   0  0  0  0  0  0  0  0  0  0  0  0
    8.7312  -17.1947   23.1573 O   0  0  0  0  0  0  0  0  0  0  0  0
   12.4356  -18.2190   23.1448 N   0  0  0  0  0  0  0  0  0  0  0  0
   13.0823  -17.3232   24.0574 C   0  0  0  0  0  0  0  0  0  0  0  0
   14.3364  -17.3942   24.0949 O   0  0  0  0  0  0  0  0  0  0  0  0
   12.3432  -16.3821   24.9023 C   0  0  0  0  0  0  0  0  0  0  0  0
   10.8572  -16.4822   24.6447 C   0  0  2  0  0  0  0  0  0  0  0  0
   10.4779  -15.7569   23.4473 N   0  0  0  0  0  0  0  0  0  0  0  0
   10.1206  -15.9971   25.8551 C   0  0  0  0  0  0  0  0  0  0  0  0
    9.2762  -14.9283   25.8265 O   0  0  0  0  0  0  0  0  0  0  0  0
   10.3279  -16.6457   26.9239 O   0  0  0  0  0  0  0  0  0  0  0  0
  1  2  1  0
  2  3  1  0
  3  4  2  0
  3  5  1  0
  5  6  1  0
  6 12  1  0
  6  7  1  1
  8  7  1  0
  9  8  1  0
 10  9  1  0
 10 11  1  0
 12 13  2  0
 12 19  1  0
 15 17  1  0
 15 14  1  0
 16 15  2  0
 18 20  1  0
 18 17  1  1
 19 18  1  0
 20 21  1  0
 22 20  2  0
M  END
$$$$
