GKN.pdb
     RDKit          3D

 22 21  0  0  1  0  0  0  0  0999 V2000
    4.8523  -19.9045   21.7442 N   0  0  0  0  0  0  0  0  0  0  0  0
    4.9892  -18.4786   21.9296 C   0  0  0  0  0  0  0  0  0  0  0  0
    6.3168  -17.9572   21.4652 C   0  0  0  0  0  0  0  0  0  0  0  0
    7.1659  -18.7858   21.1373 O   0  0  0  0  0  0  0  0  0  0  0  0
    6.6206  -16.5884   21.3995 N   0  0  0  0  0  0  0  0  0  0  0  0
    7.8082  -15.9543   21.0381 C   0  0  1  0  0  0  0  0  0  0  0  0
    7.7746  -14.7163   20.1575 C   0  0  0  0  0  0  0  0  0  0  0  0
    7.5591  -14.9537   18.7151 C   0  0  0  0  0  0  0  0  0  0  0  0
    7.8936  -13.6791   17.9295 C   0  0  0  0  0  0  0  0  0  0  0  0
    7.6504  -13.8249   16.4624 C   0  0  0  0  0  0  0  0  0  0  0  0
    8.0817  -12.5799   15.8589 N   0  0  0  0  0  0  0  0  0  0  0  0
    8.7239  -15.5916   22.1252 C   0  0  0  0  0  0  0  0  0  0  0  0
    8.1111  -15.3051   23.2306 O   0  0  0  0  0  0  0  0  0  0  0  0
   12.2132  -17.6045   25.1633 N   0  0  0  0  0  0  0  0  0  0  0  0
   11.2561  -18.3007   24.3555 C   0  0  0  0  0  0  0  0  0  0  0  0
   11.1101  -19.5220   24.6136 O   0  0  0  0  0  0  0  0  0  0  0  0
   10.4918  -17.6467   23.2907 C   0  0  0  0  0  0  0  0  0  0  0  0
   10.8478  -16.1806   23.1972 C   0  0  2  0  0  0  0  0  0  0  0  0
   10.1032  -15.5218   22.1411 N   0  0  0  0  0  0  0  0  0  0  0  0
   12.3278  -16.0511   23.0092 C   0  0  0  0  0  0  0  0  0  0  0  0
   12.9374  -16.2287   21.8038 O   0  0  0  0  0  0  0  0  0  0  0  0
   12.9928  -15.7617   24.0484 O   0  0  0  0  0  0  0  0  0  0  0  0
  1  2  1  0
  2  3  1  0
  3  4  2  0
  3  5  1  0
  5  6  1  0
  6 12  1  0
  6  7  1  1
  8  7  1  0
  9  8  1  0
 10  9  1  0
 10 11  1  0
 12 13  2  0
 12 19  1  0
 15 17  1  0
 15 14  1  0
 16 15  2  0
 18 20  1  0
 18 17  1  6
 19 18  1  0
 20 21  1  0
 22 20  2  0
M  END
$$$$
