GKN.pdb
     RDKit          3D

 22 21  0  0  1  0  0  0  0  0999 V2000
   11.8937  -18.6628   19.5026 N   0  0  0  0  0  0  0  0  0  0  0  0
   10.6088  -18.0059   19.4410 C   0  0  0  0  0  0  0  0  0  0  0  0
   10.5663  -16.7367   20.2393 C   0  0  0  0  0  0  0  0  0  0  0  0
   11.2283  -15.7856   19.8243 O   0  0  0  0  0  0  0  0  0  0  0  0
    9.8203  -16.6005   21.4206 N   0  0  0  0  0  0  0  0  0  0  0  0
    9.2413  -15.4647   21.9842 C   0  0  1  0  0  0  0  0  0  0  0  0
    8.2058  -14.6702   21.2060 C   0  0  0  0  0  0  0  0  0  0  0  0
    8.5648  -14.3281   19.8140 C   0  0  0  0  0  0  0  0  0  0  0  0
    7.4659  -13.4499   19.2016 C   0  0  0  0  0  0  0  0  0  0  0  0
    7.7548  -13.0668   17.7866 C   0  0  0  0  0  0  0  0  0  0  0  0
    6.6632  -12.2083   17.3727 N   0  0  0  0  0  0  0  0  0  0  0  0
    8.6450  -15.6156   23.3160 C   0  0  0  0  0  0  0  0  0  0  0  0
    7.3496  -15.6399   23.2923 O   0  0  0  0  0  0  0  0  0  0  0  0
   13.0681  -18.3932   24.8190 N   0  0  0  0  0  0  0  0  0  0  0  0
   11.7626  -18.4830   24.2352 C   0  0  0  0  0  0  0  0  0  0  0  0
   11.3142  -19.6464   24.0781 O   0  0  0  0  0  0  0  0  0  0  0  0
   10.9889  -17.3043   23.8379 C   0  0  0  0  0  0  0  0  0  0  0  0
    9.9600  -16.9579   24.8896 C   0  0  2  0  0  0  0  0  0  0  0  0
    9.2482  -15.7399   24.5523 N   0  0  0  0  0  0  0  0  0  0  0  0
   10.6391  -16.8640   26.2211 C   0  0  0  0  0  0  0  0  0  0  0  0
   10.6412  -15.7261   26.9703 O   0  0  0  0  0  0  0  0  0  0  0  0
   11.2199  -17.9174   26.6198 O   0  0  0  0  0  0  0  0  0  0  0  0
  1  2  1  0
  2  3  1  0
  3  4  2  0
  3  5  1  0
  5  6  1  0
  6 12  1  0
  6  7  1  6
  8  7  1  0
  9  8  1  0
 10  9  1  0
 10 11  1  0
 12 13  2  0
 12 19  1  0
 15 17  1  0
 15 14  1  0
 16 15  2  0
 18 20  1  0
 18 17  1  6
 19 18  1  0
 20 21  1  0
 22 20  2  0
M  END
$$$$
