GKN.pdb
     RDKit          3D

 22 21  0  0  1  0  0  0  0  0999 V2000
    4.9384  -19.6930   22.5982 N   0  0  0  0  0  0  0  0  0  0  0  0
    5.4868  -18.7086   23.5017 C   0  0  0  0  0  0  0  0  0  0  0  0
    6.5223  -17.8382   22.8537 C   0  0  0  0  0  0  0  0  0  0  0  0
    7.4910  -18.3985   22.3412 O   0  0  0  0  0  0  0  0  0  0  0  0
    6.4311  -16.4379   22.8179 N   0  0  0  0  0  0  0  0  0  0  0  0
    7.3470  -15.4957   22.3528 C   0  0  1  0  0  0  0  0  0  0  0  0
    6.9110  -14.0590   22.1186 C   0  0  0  0  0  0  0  0  0  0  0  0
    7.8571  -13.2103   21.3648 C   0  0  0  0  0  0  0  0  0  0  0  0
    7.9079  -13.6718   19.9025 C   0  0  0  0  0  0  0  0  0  0  0  0
    8.8255  -12.8402   19.0664 C   0  0  0  0  0  0  0  0  0  0  0  0
    8.8081  -13.4310   17.7433 N   0  0  0  0  0  0  0  0  0  0  0  0
    8.6037  -15.3679   23.0986 C   0  0  0  0  0  0  0  0  0  0  0  0
    8.4463  -15.4752   24.3804 O   0  0  0  0  0  0  0  0  0  0  0  0
   12.2217  -19.0786   24.3436 N   0  0  0  0  0  0  0  0  0  0  0  0
   11.7499  -17.7495   24.5971 C   0  0  0  0  0  0  0  0  0  0  0  0
   12.3564  -17.1183   25.4988 O   0  0  0  0  0  0  0  0  0  0  0  0
   10.6312  -17.1519   23.8643 C   0  0  0  0  0  0  0  0  0  0  0  0
   11.0072  -15.7894   23.3285 C   0  0  2  0  0  0  0  0  0  0  0  0
    9.8918  -15.1641   22.6437 N   0  0  0  0  0  0  0  0  0  0  0  0
   12.2061  -15.9298   22.4421 C   0  0  0  0  0  0  0  0  0  0  0  0
   12.1414  -15.8043   21.0871 O   0  0  0  0  0  0  0  0  0  0  0  0
   13.3016  -16.1745   23.0304 O   0  0  0  0  0  0  0  0  0  0  0  0
  1  2  1  0
  2  3  1  0
  3  4  2  0
  3  5  1  0
  5  6  1  0
  6 12  1  0
  6  7  1  1
  8  7  1  0
  9  8  1  0
 10  9  1  0
 10 11  1  0
 12 13  2  0
 12 19  1  0
 15 17  1  0
 15 14  1  0
 16 15  2  0
 18 20  1  0
 18 17  1  6
 19 18  1  0
 20 21  1  0
 22 20  2  0
M  END
$$$$
