GKN.pdb
     RDKit          3D

 22 21  0  0  1  0  0  0  0  0999 V2000
    6.5110  -20.4317   18.3547 N   0  0  0  0  0  0  0  0  0  0  0  0
    5.9911  -19.6487   19.4515 C   0  0  0  0  0  0  0  0  0  0  0  0
    6.9277  -18.5594   19.8828 C   0  0  0  0  0  0  0  0  0  0  0  0
    8.1329  -18.7567   19.7292 O   0  0  0  0  0  0  0  0  0  0  0  0
    6.4884  -17.3525   20.4494 N   0  0  0  0  0  0  0  0  0  0  0  0
    7.2256  -16.2646   20.9142 C   0  0  1  0  0  0  0  0  0  0  0  0
    6.5549  -14.9146   21.1059 C   0  0  0  0  0  0  0  0  0  0  0  0
    7.4609  -13.7558   21.2461 C   0  0  0  0  0  0  0  0  0  0  0  0
    7.9110  -13.2852   19.8569 C   0  0  0  0  0  0  0  0  0  0  0  0
    8.7720  -12.0652   19.9118 C   0  0  0  0  0  0  0  0  0  0  0  0
    9.1191  -11.7574   18.5390 N   0  0  0  0  0  0  0  0  0  0  0  0
    7.9885  -16.4605   22.1518 C   0  0  0  0  0  0  0  0  0  0  0  0
    7.3263  -17.1065   23.0593 O   0  0  0  0  0  0  0  0  0  0  0  0
   11.0505  -20.0327   23.8267 N   0  0  0  0  0  0  0  0  0  0  0  0
   11.4192  -19.1164   22.7885 C   0  0  0  0  0  0  0  0  0  0  0  0
   12.6243  -19.1507   22.4336 O   0  0  0  0  0  0  0  0  0  0  0  0
   10.4659  -18.1901   22.1730 C   0  0  0  0  0  0  0  0  0  0  0  0
   10.1807  -17.0242   23.0917 C   0  0  2  0  0  0  0  0  0  0  0  0
    9.2746  -16.0742   22.4751 N   0  0  0  0  0  0  0  0  0  0  0  0
   11.4780  -16.3901   23.4889 C   0  0  0  0  0  0  0  0  0  0  0  0
   12.0422  -15.3641   22.7923 O   0  0  0  0  0  0  0  0  0  0  0  0
   12.0305  -16.8664   24.5251 O   0  0  0  0  0  0  0  0  0  0  0  0
  1  2  1  0
  2  3  1  0
  3  4  2  0
  3  5  1  0
  5  6  1  0
  6 12  1  0
  6  7  1  1
  8  7  1  0
  9  8  1  0
 10  9  1  0
 10 11  1  0
 12 13  2  0
 12 19  1  0
 15 17  1  0
 15 14  1  0
 16 15  2  0
 18 20  1  0
 18 17  1  6
 19 18  1  0
 20 21  1  0
 22 20  2  0
M  END
$$$$
