PQA.pdb
     RDKit          3D

 22 22  0  0  1  0  0  0  0  0999 V2000
    8.7290  -15.2366   19.9327 N   0  0  0  0  0  0  0  0  0  0  0  0
    8.2755  -15.3144   18.5760 C   0  0  0  0  0  0  0  0  0  0  0  0
    7.6989  -13.9508   18.2528 C   0  0  0  0  0  0  0  0  0  0  0  0
    7.0789  -13.5928   19.5885 C   0  0  0  0  0  0  0  0  0  0  0  0
    8.1980  -14.0511   20.5278 C   0  0  1  0  0  0  0  0  0  0  0  0
    7.6742  -14.2934   21.8937 C   0  0  0  0  0  0  0  0  0  0  0  0
    7.0872  -13.3217   22.4742 O   0  0  0  0  0  0  0  0  0  0  0  0
    7.9128  -19.6822   25.1081 N   0  0  0  0  0  0  0  0  0  0  0  0
    7.2212  -18.8746   26.0382 C   0  0  0  0  0  0  0  0  0  0  0  0
    6.8755  -19.3504   27.1391 O   0  0  0  0  0  0  0  0  0  0  0  0
    6.9193  -17.4454   25.6656 C   0  0  0  0  0  0  0  0  0  0  0  0
    7.4542  -17.1523   24.2947 C   0  0  0  0  0  0  0  0  0  0  0  0
    7.2067  -15.7387   23.8390 C   0  0  2  0  0  0  0  0  0  0  0  0
    7.8154  -15.5294   22.5204 N   0  0  0  0  0  0  0  0  0  0  0  0
    7.7945  -14.7956   24.8207 C   0  0  0  0  0  0  0  0  0  0  0  0
    9.0335  -14.6821   24.9343 O   0  0  0  0  0  0  0  0  0  0  0  0
    6.6672  -11.9394   26.9805 C   0  0  0  0  0  0  0  0  0  0  0  0
    7.6290  -13.0212   26.5225 C   0  0  2  0  0  0  0  0  0  0  0  0
    6.9826  -13.9857   25.6691 N   0  0  0  0  0  0  0  0  0  0  0  0
    8.1224  -13.6886   27.7505 C   0  0  0  0  0  0  0  0  0  0  0  0
    7.8103  -14.8858   27.9559 O   0  0  0  0  0  0  0  0  0  0  0  0
    8.9169  -13.0540   28.6909 O   0  0  0  0  0  0  0  0  0  0  0  0
  1  2  1  0
  2  3  1  0
  4  3  1  0
  5  1  1  0
  5  6  1  1
  5  4  1  0
  6 14  1  0
  7  6  2  0
  9 11  1  0
  9  8  1  0
 10  9  2  0
 12 11  1  0
 13 12  1  1
 14 13  1  0
 15 13  1  0
 16 15  2  0
 18 17  1  1
 18 20  1  0
 18 19  1  0
 19 15  1  0
 20 22  1  0
 21 20  2  0
M  END
$$$$
