PQA.pdb
     RDKit          3D

 22 22  0  0  1  0  0  0  0  0999 V2000
    9.0501  -15.0043   19.9766 N   0  0  0  0  0  0  0  0  0  0  0  0
    8.7762  -15.2338   18.5893 C   0  0  0  0  0  0  0  0  0  0  0  0
    7.9996  -14.0225   18.1141 C   0  0  0  0  0  0  0  0  0  0  0  0
    7.1761  -13.7237   19.3509 C   0  0  0  0  0  0  0  0  0  0  0  0
    8.2460  -13.9137   20.4299 C   0  0  1  0  0  0  0  0  0  0  0  0
    7.6234  -14.1836   21.7483 C   0  0  0  0  0  0  0  0  0  0  0  0
    6.7196  -13.3755   22.1430 O   0  0  0  0  0  0  0  0  0  0  0  0
    8.3875  -19.2590   25.3395 N   0  0  0  0  0  0  0  0  0  0  0  0
    7.5711  -18.4822   26.1913 C   0  0  0  0  0  0  0  0  0  0  0  0
    7.1975  -18.9462   27.2880 O   0  0  0  0  0  0  0  0  0  0  0  0
    7.1726  -17.0995   25.7416 C   0  0  0  0  0  0  0  0  0  0  0  0
    7.7818  -16.8037   24.4026 C   0  0  0  0  0  0  0  0  0  0  0  0
    7.4107  -15.4509   23.8555 C   0  0  2  0  0  0  0  0  0  0  0  0
    8.0069  -15.2734   22.5265 N   0  0  0  0  0  0  0  0  0  0  0  0
    7.9042  -14.3968   24.7741 C   0  0  0  0  0  0  0  0  0  0  0  0
    9.0205  -14.5016   25.3253 O   0  0  0  0  0  0  0  0  0  0  0  0
    5.9845  -12.1221   26.9239 C   0  0  0  0  0  0  0  0  0  0  0  0
    7.3067  -12.6000   26.3511 C   0  0  2  0  0  0  0  0  0  0  0  0
    7.1368  -13.2304   25.0664 N   0  0  0  0  0  0  0  0  0  0  0  0
    7.8533  -13.5780   27.3215 C   0  0  0  0  0  0  0  0  0  0  0  0
    7.3023  -14.6997   27.4260 O   0  0  0  0  0  0  0  0  0  0  0  0
    8.9500  -13.3156   28.1258 O   0  0  0  0  0  0  0  0  0  0  0  0
  1  2  1  0
  2  3  1  0
  4  3  1  0
  5  1  1  0
  5  6  1  1
  5  4  1  0
  6 14  1  0
  7  6  2  0
  9 11  1  0
  9  8  1  0
 10  9  2  0
 12 11  1  0
 13 12  1  1
 14 13  1  0
 15 13  1  0
 16 15  2  0
 18 17  1  1
 18 20  1  0
 18 19  1  0
 19 15  1  0
 20 22  1  0
 21 20  2  0
M  END
$$$$
