PQA.pdb
     RDKit          3D

 22 22  0  0  1  0  0  0  0  0999 V2000
    8.6997  -15.0922   19.9931 N   0  0  0  0  0  0  0  0  0  0  0  0
    8.2231  -14.8933   18.6569 C   0  0  0  0  0  0  0  0  0  0  0  0
    8.0994  -13.3935   18.4797 C   0  0  0  0  0  0  0  0  0  0  0  0
    7.6448  -12.9910   19.8684 C   0  0  0  0  0  0  0  0  0  0  0  0
    8.5781  -13.8637   20.7124 C   0  0  1  0  0  0  0  0  0  0  0  0
    8.0267  -14.0615   22.0746 C   0  0  0  0  0  0  0  0  0  0  0  0
    7.8026  -13.0170   22.7706 O   0  0  0  0  0  0  0  0  0  0  0  0
    5.7818  -19.3705   24.5028 N   0  0  0  0  0  0  0  0  0  0  0  0
    7.1705  -19.2896   24.2567 C   0  0  0  0  0  0  0  0  0  0  0  0
    7.8623  -20.3283   24.2491 O   0  0  0  0  0  0  0  0  0  0  0  0
    7.7793  -17.9331   24.0080 C   0  0  0  0  0  0  0  0  0  0  0  0
    6.7312  -16.8694   24.1548 C   0  0  0  0  0  0  0  0  0  0  0  0
    7.2543  -15.4729   23.9462 C   0  0  2  0  0  0  0  0  0  0  0  0
    7.7628  -15.3338   22.5769 N   0  0  0  0  0  0  0  0  0  0  0  0
    8.3423  -15.2053   24.9175 C   0  0  0  0  0  0  0  0  0  0  0  0
    9.5286  -15.4810   24.6392 O   0  0  0  0  0  0  0  0  0  0  0  0
    8.9113  -13.1603   27.9779 C   0  0  0  0  0  0  0  0  0  0  0  0
    9.2082  -14.3244   27.0497 C   0  0  2  0  0  0  0  0  0  0  0  0
    8.0871  -14.6283   26.1969 N   0  0  0  0  0  0  0  0  0  0  0  0
    9.5067  -15.4867   27.9196 C   0  0  0  0  0  0  0  0  0  0  0  0
    8.7451  -16.4824   27.8818 O   0  0  0  0  0  0  0  0  0  0  0  0
   10.5917  -15.5312   28.7793 O   0  0  0  0  0  0  0  0  0  0  0  0
  1  2  1  0
  2  3  1  0
  4  3  1  0
  5  1  1  0
  5  6  1  1
  5  4  1  0
  6 14  1  0
  7  6  2  0
  9 11  1  0
  9  8  1  0
 10  9  2  0
 12 11  1  0
 13 12  1  6
 14 13  1  0
 15 13  1  0
 16 15  2  0
 18 17  1  1
 18 20  1  0
 18 19  1  0
 19 15  1  0
 20 22  1  0
 21 20  2  0
M  END
$$$$
