PQA.pdb
     RDKit          3D

 22 22  0  0  1  0  0  0  0  0999 V2000
    8.8179  -15.1780   19.8608 N   0  0  0  0  0  0  0  0  0  0  0  0
    8.5423  -15.2000   18.4552 C   0  0  0  0  0  0  0  0  0  0  0  0
    8.2844  -13.7598   18.0607 C   0  0  0  0  0  0  0  0  0  0  0  0
    7.5719  -13.2602   19.3016 C   0  0  0  0  0  0  0  0  0  0  0  0
    8.4483  -13.9000   20.3820 C   0  0  1  0  0  0  0  0  0  0  0  0
    7.7111  -14.0072   21.6641 C   0  0  0  0  0  0  0  0  0  0  0  0
    7.2219  -12.9334   22.1472 O   0  0  0  0  0  0  0  0  0  0  0  0
    6.3008  -19.4730   24.3364 N   0  0  0  0  0  0  0  0  0  0  0  0
    7.3972  -18.8019   24.9221 C   0  0  0  0  0  0  0  0  0  0  0  0
    8.0415  -19.3474   25.8413 O   0  0  0  0  0  0  0  0  0  0  0  0
    7.7579  -17.4304   24.4106 C   0  0  0  0  0  0  0  0  0  0  0  0
    6.5237  -16.7244   23.9311 C   0  0  0  0  0  0  0  0  0  0  0  0
    6.7600  -15.2877   23.5476 C   0  0  2  0  0  0  0  0  0  0  0  0
    7.5571  -15.2280   22.3170 N   0  0  0  0  0  0  0  0  0  0  0  0
    7.4772  -14.5971   24.6464 C   0  0  0  0  0  0  0  0  0  0  0  0
    8.7170  -14.6981   24.7623 O   0  0  0  0  0  0  0  0  0  0  0  0
    6.7815  -11.8976   27.1580 C   0  0  0  0  0  0  0  0  0  0  0  0
    7.5743  -13.0448   26.5578 C   0  0  2  0  0  0  0  0  0  0  0  0
    6.7929  -13.7965   25.6086 N   0  0  0  0  0  0  0  0  0  0  0  0
    7.9661  -13.9187   27.6891 C   0  0  0  0  0  0  0  0  0  0  0  0
    7.4783  -15.0719   27.7603 O   0  0  0  0  0  0  0  0  0  0  0  0
    8.8501  -13.5251   28.6799 O   0  0  0  0  0  0  0  0  0  0  0  0
  1  2  1  0
  2  3  1  0
  4  3  1  0
  5  1  1  0
  5  6  1  1
  5  4  1  0
  6 14  1  0
  7  6  2  0
  9 11  1  0
  9  8  1  0
 10  9  2  0
 12 11  1  0
 13 12  1  1
 14 13  1  0
 15 13  1  0
 16 15  2  0
 18 17  1  1
 18 20  1  0
 18 19  1  0
 19 15  1  0
 20 22  1  0
 21 20  2  0
M  END
$$$$
