PQA.pdb
     RDKit          3D

 22 22  0  0  1  0  0  0  0  0999 V2000
    8.8175  -15.1018   19.9371 N   0  0  0  0  0  0  0  0  0  0  0  0
    8.4795  -15.1290   18.5452 C   0  0  0  0  0  0  0  0  0  0  0  0
    7.8894  -13.7681   18.2353 C   0  0  0  0  0  0  0  0  0  0  0  0
    7.1510  -13.4895   19.5291 C   0  0  0  0  0  0  0  0  0  0  0  0
    8.2030  -13.9601   20.5374 C   0  0  1  0  0  0  0  0  0  0  0  0
    7.5766  -14.2797   21.8429 C   0  0  0  0  0  0  0  0  0  0  0  0
    6.8803  -13.3654   22.3951 O   0  0  0  0  0  0  0  0  0  0  0  0
    7.7002  -19.7883   24.8500 N   0  0  0  0  0  0  0  0  0  0  0  0
    6.9841  -19.0132   25.7892 C   0  0  0  0  0  0  0  0  0  0  0  0
    6.5487  -19.5444   26.8313 O   0  0  0  0  0  0  0  0  0  0  0  0
    6.7664  -17.5501   25.4979 C   0  0  0  0  0  0  0  0  0  0  0  0
    7.3134  -17.2136   24.1418 C   0  0  0  0  0  0  0  0  0  0  0  0
    7.1611  -15.7619   23.7721 C   0  0  2  0  0  0  0  0  0  0  0  0
    7.7395  -15.5255   22.4445 N   0  0  0  0  0  0  0  0  0  0  0  0
    7.8530  -14.9227   24.7799 C   0  0  0  0  0  0  0  0  0  0  0  0
    9.1000  -14.8497   24.8025 O   0  0  0  0  0  0  0  0  0  0  0  0
    6.9790  -12.1579   27.1466 C   0  0  0  0  0  0  0  0  0  0  0  0
    7.8693  -13.2577   26.5964 C   0  0  2  0  0  0  0  0  0  0  0  0
    7.1355  -14.1705   25.7568 N   0  0  0  0  0  0  0  0  0  0  0  0
    8.4125  -13.9818   27.7701 C   0  0  0  0  0  0  0  0  0  0  0  0
    8.1045  -15.1863   27.9340 O   0  0  0  0  0  0  0  0  0  0  0  0
    9.2496  -13.3927   28.7031 O   0  0  0  0  0  0  0  0  0  0  0  0
  1  2  1  0
  2  3  1  0
  4  3  1  0
  5  1  1  0
  5  6  1  1
  5  4  1  0
  6 14  1  0
  7  6  2  0
  9 11  1  0
  9  8  1  0
 10  9  2  0
 12 11  1  0
 13 12  1  1
 14 13  1  0
 15 13  1  0
 16 15  2  0
 18 17  1  1
 18 20  1  0
 18 19  1  0
 19 15  1  0
 20 22  1  0
 21 20  2  0
M  END
$$$$
