PQA.pdb
     RDKit          3D

 22 22  0  0  1  0  0  0  0  0999 V2000
    8.4466  -15.1407   20.2497 N   0  0  0  0  0  0  0  0  0  0  0  0
    7.8528  -14.8052   18.9899 C   0  0  0  0  0  0  0  0  0  0  0  0
    7.6693  -13.3011   19.0055 C   0  0  0  0  0  0  0  0  0  0  0  0
    7.3219  -13.0835   20.4645 C   0  0  0  0  0  0  0  0  0  0  0  0
    8.3491  -14.0113   21.1194 C   0  0  1  0  0  0  0  0  0  0  0  0
    7.9211  -14.3900   22.4876 C   0  0  0  0  0  0  0  0  0  0  0  0
    7.2551  -13.5279   23.1501 O   0  0  0  0  0  0  0  0  0  0  0  0
    7.0233  -20.0503   24.7629 N   0  0  0  0  0  0  0  0  0  0  0  0
    6.8973  -19.3153   25.9627 C   0  0  0  0  0  0  0  0  0  0  0  0
    6.5635  -19.8961   27.0158 O   0  0  0  0  0  0  0  0  0  0  0  0
    7.1739  -17.8337   25.9313 C   0  0  0  0  0  0  0  0  0  0  0  0
    7.5571  -17.4161   24.5419 C   0  0  0  0  0  0  0  0  0  0  0  0
    7.8209  -15.9400   24.4058 C   0  0  2  0  0  0  0  0  0  0  0  0
    8.2314  -15.6348   23.0305 N   0  0  0  0  0  0  0  0  0  0  0  0
    8.8918  -15.5426   25.3512 C   0  0  0  0  0  0  0  0  0  0  0  0
   10.0892  -15.7998   25.1044 O   0  0  0  0  0  0  0  0  0  0  0  0
    9.3497  -13.2463   28.2605 C   0  0  0  0  0  0  0  0  0  0  0  0
    9.7103  -14.4433   27.3991 C   0  0  2  0  0  0  0  0  0  0  0  0
    8.6072  -14.8576   26.5697 N   0  0  0  0  0  0  0  0  0  0  0  0
   10.0741  -15.5354   28.3328 C   0  0  0  0  0  0  0  0  0  0  0  0
    9.3714  -16.5740   28.3526 O   0  0  0  0  0  0  0  0  0  0  0  0
   11.1587  -15.4685   29.1916 O   0  0  0  0  0  0  0  0  0  0  0  0
  1  2  1  0
  2  3  1  0
  4  3  1  0
  5  1  1  0
  5  6  1  1
  5  4  1  0
  6 14  1  0
  7  6  2  0
  9 11  1  0
  9  8  1  0
 10  9  2  0
 12 11  1  0
 13 12  1  6
 14 13  1  0
 15 13  1  0
 16 15  2  0
 18 17  1  1
 18 20  1  0
 18 19  1  0
 19 15  1  0
 20 22  1  0
 21 20  2  0
M  END
$$$$
