PQA.pdb
     RDKit          3D

 22 22  0  0  1  0  0  0  0  0999 V2000
    8.9093  -15.0457   19.7820 N   0  0  0  0  0  0  0  0  0  0  0  0
    8.3718  -14.9031   18.4617 C   0  0  0  0  0  0  0  0  0  0  0  0
    7.9077  -13.4644   18.3563 C   0  0  0  0  0  0  0  0  0  0  0  0
    7.4032  -13.2361   19.7670 C   0  0  0  0  0  0  0  0  0  0  0  0
    8.5277  -13.9092   20.5592 C   0  0  1  0  0  0  0  0  0  0  0  0
    8.0644  -14.2857   21.9165 C   0  0  0  0  0  0  0  0  0  0  0  0
    7.4314  -13.4020   22.5829 O   0  0  0  0  0  0  0  0  0  0  0  0
    6.9592  -19.5475   22.5544 N   0  0  0  0  0  0  0  0  0  0  0  0
    6.1132  -19.1568   23.6161 C   0  0  0  0  0  0  0  0  0  0  0  0
    5.0512  -19.7779   23.8261 O   0  0  0  0  0  0  0  0  0  0  0  0
    6.5265  -17.9867   24.4721 C   0  0  0  0  0  0  0  0  0  0  0  0
    7.8016  -17.3957   23.9463 C   0  0  0  0  0  0  0  0  0  0  0  0
    7.7410  -15.9039   23.7519 C   0  0  2  0  0  0  0  0  0  0  0  0
    8.3084  -15.5511   22.4455 N   0  0  0  0  0  0  0  0  0  0  0  0
    8.5075  -15.2359   24.8312 C   0  0  0  0  0  0  0  0  0  0  0  0
    9.7565  -15.2667   24.8404 O   0  0  0  0  0  0  0  0  0  0  0  0
    7.9028  -12.6762   27.4887 C   0  0  0  0  0  0  0  0  0  0  0  0
    8.6773  -13.8028   26.8287 C   0  0  2  0  0  0  0  0  0  0  0  0
    7.8622  -14.5368   25.8941 N   0  0  0  0  0  0  0  0  0  0  0  0
    9.1206  -14.7011   27.9211 C   0  0  0  0  0  0  0  0  0  0  0  0
    8.6380  -15.8567   27.9880 O   0  0  0  0  0  0  0  0  0  0  0  0
   10.0476  -14.3279   28.8800 O   0  0  0  0  0  0  0  0  0  0  0  0
  1  2  1  0
  2  3  1  0
  4  3  1  0
  5  1  1  0
  5  6  1  1
  5  4  1  0
  6 14  1  0
  7  6  2  0
  9 11  1  0
  9  8  1  0
 10  9  2  0
 12 11  1  0
 13 12  1  1
 14 13  1  0
 15 13  1  0
 16 15  2  0
 18 17  1  1
 18 20  1  0
 18 19  1  0
 19 15  1  0
 20 22  1  0
 21 20  2  0
M  END
$$$$
