PQA.pdb
     RDKit          3D

 22 22  0  0  1  0  0  0  0  0999 V2000
    8.5427  -15.0800   19.7552 N   0  0  0  0  0  0  0  0  0  0  0  0
    7.9472  -14.9022   18.4644 C   0  0  0  0  0  0  0  0  0  0  0  0
    7.6227  -13.4258   18.3574 C   0  0  0  0  0  0  0  0  0  0  0  0
    7.2251  -13.1290   19.7894 C   0  0  0  0  0  0  0  0  0  0  0  0
    8.3208  -13.9005   20.5305 C   0  0  1  0  0  0  0  0  0  0  0  0
    7.9010  -14.2104   21.9184 C   0  0  0  0  0  0  0  0  0  0  0  0
    7.5030  -13.2364   22.6387 O   0  0  0  0  0  0  0  0  0  0  0  0
    7.6141  -19.9040   24.5548 N   0  0  0  0  0  0  0  0  0  0  0  0
    6.9055  -19.1492   25.5159 C   0  0  0  0  0  0  0  0  0  0  0  0
    6.3687  -19.7233   26.4854 O   0  0  0  0  0  0  0  0  0  0  0  0
    6.8197  -17.6547   25.3364 C   0  0  0  0  0  0  0  0  0  0  0  0
    7.4566  -17.2602   24.0364 C   0  0  0  0  0  0  0  0  0  0  0  0
    7.3561  -15.7880   23.7366 C   0  0  2  0  0  0  0  0  0  0  0  0
    7.9384  -15.5099   22.4188 N   0  0  0  0  0  0  0  0  0  0  0  0
    8.0814  -15.0233   24.7796 C   0  0  0  0  0  0  0  0  0  0  0  0
    9.3301  -14.9852   24.7910 O   0  0  0  0  0  0  0  0  0  0  0  0
    7.2987  -12.4131   27.3580 C   0  0  0  0  0  0  0  0  0  0  0  0
    8.1635  -13.4648   26.6866 C   0  0  2  0  0  0  0  0  0  0  0  0
    7.3952  -14.3057   25.8039 N   0  0  0  0  0  0  0  0  0  0  0  0
    8.7482  -14.2825   27.7759 C   0  0  0  0  0  0  0  0  0  0  0  0
    8.4312  -15.4929   27.8610 O   0  0  0  0  0  0  0  0  0  0  0  0
    9.6336  -13.7755   28.7124 O   0  0  0  0  0  0  0  0  0  0  0  0
  1  2  1  0
  2  3  1  0
  4  3  1  0
  5  1  1  0
  5  6  1  1
  5  4  1  0
  6 14  1  0
  7  6  2  0
  9 11  1  0
  9  8  1  0
 10  9  2  0
 12 11  1  0
 13 12  1  1
 14 13  1  0
 15 13  1  0
 16 15  2  0
 18 17  1  1
 18 20  1  0
 18 19  1  0
 19 15  1  0
 20 22  1  0
 21 20  2  0
M  END
$$$$
