PQA.pdb
     RDKit          3D

 22 22  0  0  1  0  0  0  0  0999 V2000
    7.4323  -14.9122   19.5914 N   0  0  0  0  0  0  0  0  0  0  0  0
    7.0263  -13.8068   18.7755 C   0  0  0  0  0  0  0  0  0  0  0  0
    8.0043  -12.6889   19.0754 C   0  0  0  0  0  0  0  0  0  0  0  0
    8.2392  -12.9211   20.5545 C   0  0  0  0  0  0  0  0  0  0  0  0
    8.3715  -14.4467   20.5622 C   0  0  1  0  0  0  0  0  0  0  0  0
    8.1008  -14.9928   21.9139 C   0  0  0  0  0  0  0  0  0  0  0  0
    6.9043  -14.9123   22.3467 O   0  0  0  0  0  0  0  0  0  0  0  0
   10.6456  -19.7421   24.7307 N   0  0  0  0  0  0  0  0  0  0  0  0
    9.8847  -19.2475   25.8133 C   0  0  0  0  0  0  0  0  0  0  0  0
    9.7866  -19.9171   26.8619 O   0  0  0  0  0  0  0  0  0  0  0  0
    9.2071  -17.9090   25.6643 C   0  0  0  0  0  0  0  0  0  0  0  0
    9.4587  -17.3604   24.2906 C   0  0  0  0  0  0  0  0  0  0  0  0
    8.8009  -16.0291   24.0418 C   0  0  2  0  0  0  0  0  0  0  0  0
    9.1089  -15.5707   22.6823 N   0  0  0  0  0  0  0  0  0  0  0  0
    9.2978  -15.0427   25.0310 C   0  0  0  0  0  0  0  0  0  0  0  0
   10.4739  -14.6242   24.9799 O   0  0  0  0  0  0  0  0  0  0  0  0
    7.9202  -12.5729   27.4379 C   0  0  0  0  0  0  0  0  0  0  0  0
    9.0010  -13.5176   26.9437 C   0  0  2  0  0  0  0  0  0  0  0  0
    8.4665  -14.5332   26.0723 N   0  0  0  0  0  0  0  0  0  0  0  0
    9.5875  -14.1490   28.1496 C   0  0  0  0  0  0  0  0  0  0  0  0
    9.4519  -15.3851   28.3124 O   0  0  0  0  0  0  0  0  0  0  0  0
   10.2833  -13.4393   29.1142 O   0  0  0  0  0  0  0  0  0  0  0  0
  1  2  1  0
  2  3  1  0
  4  3  1  0
  5  1  1  0
  5  6  1  1
  5  4  1  0
  6 14  1  0
  7  6  2  0
  9 11  1  0
  9  8  1  0
 10  9  2  0
 12 11  1  0
 13 12  1  1
 14 13  1  0
 15 13  1  0
 16 15  2  0
 18 17  1  1
 18 20  1  0
 18 19  1  0
 19 15  1  0
 20 22  1  0
 21 20  2  0
M  END
$$$$
