PQA.pdb
     RDKit          3D

 22 22  0  0  1  0  0  0  0  0999 V2000
    8.3131  -15.8464   18.5569 N   0  0  0  0  0  0  0  0  0  0  0  0
    8.1121  -17.0358   17.7840 C   0  0  0  0  0  0  0  0  0  0  0  0
    6.8504  -17.6752   18.3276 C   0  0  0  0  0  0  0  0  0  0  0  0
    6.9896  -17.3449   19.8002 C   0  0  0  0  0  0  0  0  0  0  0  0
    7.4560  -15.8899   19.6992 C   0  0  1  0  0  0  0  0  0  0  0  0
    8.1511  -15.4715   20.9403 C   0  0  0  0  0  0  0  0  0  0  0  0
    9.4250  -15.5252   20.9419 O   0  0  0  0  0  0  0  0  0  0  0  0
    6.4689  -13.3490   27.4975 N   0  0  0  0  0  0  0  0  0  0  0  0
    6.8667  -12.7004   26.3073 C   0  0  0  0  0  0  0  0  0  0  0  0
    6.3680  -11.5974   26.0033 O   0  0  0  0  0  0  0  0  0  0  0  0
    7.8945  -13.3709   25.4315 C   0  0  0  0  0  0  0  0  0  0  0  0
    7.2721  -13.7623   24.1235 C   0  0  0  0  0  0  0  0  0  0  0  0
    8.1863  -14.5638   23.2353 C   0  0  2  0  0  0  0  0  0  0  0  0
    7.4457  -15.0371   22.0602 N   0  0  0  0  0  0  0  0  0  0  0  0
    8.7195  -15.7205   23.9944 C   0  0  0  0  0  0  0  0  0  0  0  0
    8.0193  -16.7378   24.1832 O   0  0  0  0  0  0  0  0  0  0  0  0
   11.9807  -17.2194   24.5043 C   0  0  0  0  0  0  0  0  0  0  0  0
   10.5773  -16.9681   25.0261 C   0  0  2  0  0  0  0  0  0  0  0  0
   10.0390  -15.7243   24.5364 N   0  0  0  0  0  0  0  0  0  0  0  0
   10.6831  -16.9219   26.5038 C   0  0  0  0  0  0  0  0  0  0  0  0
   10.2844  -15.8975   27.1075 O   0  0  0  0  0  0  0  0  0  0  0  0
   11.2035  -17.9597   27.2591 O   0  0  0  0  0  0  0  0  0  0  0  0
  1  2  1  0
  2  3  1  0
  4  3  1  0
  5  1  1  0
  5  6  1  1
  5  4  1  0
  6 14  1  0
  7  6  2  0
  9 11  1  0
  9  8  1  0
 10  9  2  0
 12 11  1  0
 13 12  1  1
 14 13  1  0
 15 13  1  0
 16 15  2  0
 18 17  1  6
 18 20  1  0
 18 19  1  0
 19 15  1  0
 20 22  1  0
 21 20  2  0
M  END
$$$$
