PQA.pdb
     RDKit          3D

 22 22  0  0  1  0  0  0  0  0999 V2000
    8.7525  -15.3196   19.9477 N   0  0  0  0  0  0  0  0  0  0  0  0
    8.2905  -15.3346   18.5917 C   0  0  0  0  0  0  0  0  0  0  0  0
    7.8329  -13.9209   18.2940 C   0  0  0  0  0  0  0  0  0  0  0  0
    7.2495  -13.5340   19.6382 C   0  0  0  0  0  0  0  0  0  0  0  0
    8.3275  -14.1032   20.5650 C   0  0  1  0  0  0  0  0  0  0  0  0
    7.7883  -14.3230   21.9287 C   0  0  0  0  0  0  0  0  0  0  0  0
    7.1852  -13.3453   22.4821 O   0  0  0  0  0  0  0  0  0  0  0  0
    7.8635  -19.6366   25.3640 N   0  0  0  0  0  0  0  0  0  0  0  0
    6.8031  -19.5148   24.4386 C   0  0  0  0  0  0  0  0  0  0  0  0
    6.0732  -20.4977   24.1960 O   0  0  0  0  0  0  0  0  0  0  0  0
    6.5849  -18.1836   23.7655 C   0  0  0  0  0  0  0  0  0  0  0  0
    7.5109  -17.1585   24.3513 C   0  0  0  0  0  0  0  0  0  0  0  0
    7.2491  -15.7585   23.8627 C   0  0  2  0  0  0  0  0  0  0  0  0
    7.9323  -15.5450   22.5818 N   0  0  0  0  0  0  0  0  0  0  0  0
    7.7452  -14.7866   24.8666 C   0  0  0  0  0  0  0  0  0  0  0  0
    8.9679  -14.5589   24.9849 O   0  0  0  0  0  0  0  0  0  0  0  0
    6.3457  -12.1066   27.0955 C   0  0  0  0  0  0  0  0  0  0  0  0
    7.4115  -13.0678   26.6006 C   0  0  2  0  0  0  0  0  0  0  0  0
    6.8605  -14.0766   25.7316 N   0  0  0  0  0  0  0  0  0  0  0  0
    7.9909  -13.7061   27.8063 C   0  0  0  0  0  0  0  0  0  0  0  0
    7.7972  -14.9307   27.9952 O   0  0  0  0  0  0  0  0  0  0  0  0
    8.7412  -13.0151   28.7432 O   0  0  0  0  0  0  0  0  0  0  0  0
  1  2  1  0
  2  3  1  0
  4  3  1  0
  5  1  1  0
  5  6  1  1
  5  4  1  0
  6 14  1  0
  7  6  2  0
  9 11  1  0
  9  8  1  0
 10  9  2  0
 12 11  1  0
 13 12  1  1
 14 13  1  0
 15 13  1  0
 16 15  2  0
 18 17  1  1
 18 20  1  0
 18 19  1  0
 19 15  1  0
 20 22  1  0
 21 20  2  0
M  END
$$$$
