QWY.pdb
     RDKit          3D

 36 38  0  0  1  0  0  0  0  0999 V2000
   26.6222  -18.8919  -19.2405 N   0  0  0  0  0  0  0  0  0  0  0  0
   27.8984  -19.4589  -19.4460 C   0  0  0  0  0  0  0  0  0  0  0  0
   28.5796  -19.1519  -20.4420 O   0  0  0  0  0  0  0  0  0  0  0  0
   28.4252  -20.4262  -18.4648 C   0  0  0  0  0  0  0  0  0  0  0  0
   27.5591  -20.5366  -17.2423 C   0  0  0  0  0  0  0  0  0  0  0  0
   28.1814  -21.5294  -16.2861 C   0  0  2  0  0  0  0  0  0  0  0  0
   28.2336  -22.8337  -16.9369 N   0  0  0  0  0  0  0  0  0  0  0  0
   27.3650  -21.6911  -15.0543 C   0  0  0  0  0  0  0  0  0  0  0  0
   26.3472  -22.4629  -15.0139 O   0  0  0  0  0  0  0  0  0  0  0  0
   27.6735  -20.9940  -13.8519 N   0  0  0  0  0  0  0  0  0  0  0  0
   26.8489  -21.0119  -12.6703 C   0  0  1  0  0  0  0  0  0  0  0  0
   27.5602  -20.5601  -11.4564 C   0  0  0  0  0  0  0  0  0  0  0  0
   26.8207  -20.4705  -10.2123 C   0  0  0  0  0  0  0  0  0  0  0  0
   25.4513  -20.3224  -10.0221 C   0  0  0  0  0  0  0  0  0  0  0  0
   25.1991  -20.2664   -8.7034 N   0  0  0  0  0  0  0  0  0  0  0  0
   26.3505  -20.3728   -8.0324 C   0  0  0  0  0  0  0  0  0  0  0  0
   26.6021  -20.3751   -6.6674 C   0  0  0  0  0  0  0  0  0  0  0  0
   27.8726  -20.5051   -6.1752 C   0  0  0  0  0  0  0  0  0  0  0  0
   28.9090  -20.6351   -7.0601 C   0  0  0  0  0  0  0  0  0  0  0  0
   28.6419  -20.6306   -8.4133 C   0  0  0  0  0  0  0  0  0  0  0  0
   27.3806  -20.5020   -8.9568 C   0  0  0  0  0  0  0  0  0  0  0  0
   25.5323  -20.3758  -12.8960 C   0  0  0  0  0  0  0  0  0  0  0  0
   25.4965  -19.1478  -13.1553 O   0  0  0  0  0  0  0  0  0  0  0  0
   24.6912  -17.9478  -18.6459 O   0  0  0  0  0  0  0  0  0  0  0  0
   24.1589  -18.6822  -17.5923 C   0  0  0  0  0  0  0  0  0  0  0  0
   24.4694  -20.0145  -17.3853 C   0  0  0  0  0  0  0  0  0  0  0  0
   23.9352  -20.7413  -16.3327 C   0  0  0  0  0  0  0  0  0  0  0  0
   23.0690  -20.1429  -15.4556 C   0  0  0  0  0  0  0  0  0  0  0  0
   22.4483  -20.8263  -14.3119 C   0  0  0  0  0  0  0  0  0  0  0  0
   23.0090  -20.4062  -12.9754 C   0  0  2  0  0  0  0  0  0  0  0  0
   24.2942  -21.0635  -12.8401 N   0  0  0  0  0  0  0  0  0  0  0  0
   22.1256  -20.6665  -11.8391 C   0  0  0  0  0  0  0  0  0  0  0  0
   21.9239  -21.9721  -11.4185 O   0  0  0  0  0  0  0  0  0  0  0  0
   22.7532  -18.7999  -15.6608 C   0  0  0  0  0  0  0  0  0  0  0  0
   23.2825  -18.0776  -16.7045 C   0  0  0  0  0  0  0  0  0  0  0  0
   21.5313  -19.7549  -11.2153 O   0  0  0  0  0  0  0  0  0  0  0  0
  2  1  1  0
  3  2  2  0
  4  2  1  0
  5  4  1  0
  6  5  1  0
  6  7  1  6
  8  6  1  0
  8  9  2  0
 10  8  1  0
 11 10  1  0
 11 12  1  1
 12 13  1  0
 13 14  2  0
 13 21  1  0
 14 15  1  0
 15 16  1  0
 16 17  2  0
 17 18  1  0
 19 18  2  0
 20 19  1  0
 21 20  2  0
 21 16  1  0
 22 11  1  0
 23 22  2  0
 25 24  1  0
 25 35  2  0
 26 25  1  0
 27 26  2  0
 27 28  1  0
 28 34  2  0
 29 28  1  0
 30 29  1  6
 30 31  1  0
 31 22  1  0
 32 33  1  0
 32 30  1  0
 34 35  1  0
 36 32  2  0
M  END
$$$$
