QWY.pdb
     RDKit          3D

 36 38  0  0  1  0  0  0  0  0999 V2000
   29.3276  -23.5987  -17.1544 N   0  0  0  0  0  0  0  0  0  0  0  0
   29.1448  -22.2026  -17.0553 C   0  0  0  0  0  0  0  0  0  0  0  0
   28.6057  -21.5630  -17.9776 O   0  0  0  0  0  0  0  0  0  0  0  0
   29.6004  -21.4992  -15.8414 C   0  0  0  0  0  0  0  0  0  0  0  0
   28.7585  -21.8200  -14.6393 C   0  0  0  0  0  0  0  0  0  0  0  0
   27.4899  -20.9983  -14.6932 C   0  0  2  0  0  0  0  0  0  0  0  0
   27.8257  -19.6043  -14.4257 N   0  0  0  0  0  0  0  0  0  0  0  0
   26.5185  -21.4190  -13.6493 C   0  0  0  0  0  0  0  0  0  0  0  0
   26.0414  -22.6037  -13.6074 O   0  0  0  0  0  0  0  0  0  0  0  0
   26.0672  -20.5233  -12.6390 N   0  0  0  0  0  0  0  0  0  0  0  0
   25.1316  -20.8767  -11.6015 C   0  0  1  0  0  0  0  0  0  0  0  0
   25.5280  -20.3830  -10.2663 C   0  0  0  0  0  0  0  0  0  0  0  0
   26.8297  -20.7558   -9.7475 C   0  0  0  0  0  0  0  0  0  0  0  0
   27.8204  -21.5227  -10.3507 C   0  0  0  0  0  0  0  0  0  0  0  0
   28.8594  -21.6333   -9.5057 N   0  0  0  0  0  0  0  0  0  0  0  0
   28.5810  -20.9683   -8.3799 C   0  0  0  0  0  0  0  0  0  0  0  0
   29.3352  -20.7884   -7.2286 C   0  0  0  0  0  0  0  0  0  0  0  0
   28.8646  -20.0543   -6.1737 C   0  0  0  0  0  0  0  0  0  0  0  0
   27.6208  -19.4905   -6.2695 C   0  0  0  0  0  0  0  0  0  0  0  0
   26.8843  -19.6791   -7.4202 C   0  0  0  0  0  0  0  0  0  0  0  0
   27.3145  -20.4099   -8.5082 C   0  0  0  0  0  0  0  0  0  0  0  0
   23.7327  -20.5853  -11.9853 C   0  0  0  0  0  0  0  0  0  0  0  0
   23.3415  -19.3925  -11.9644 O   0  0  0  0  0  0  0  0  0  0  0  0
   15.3551  -21.8237  -14.6964 O   0  0  0  0  0  0  0  0  0  0  0  0
   16.6931  -21.9960  -14.3607 C   0  0  0  0  0  0  0  0  0  0  0  0
   17.1027  -22.8713  -13.3705 C   0  0  0  0  0  0  0  0  0  0  0  0
   18.4386  -23.0385  -13.0404 C   0  0  0  0  0  0  0  0  0  0  0  0
   19.4033  -22.3248  -13.7020 C   0  0  0  0  0  0  0  0  0  0  0  0
   20.8431  -22.4286  -13.4253 C   0  0  0  0  0  0  0  0  0  0  0  0
   21.3870  -21.2889  -12.5993 C   0  0  2  0  0  0  0  0  0  0  0  0
   22.7924  -21.5696  -12.3803 N   0  0  0  0  0  0  0  0  0  0  0  0
   20.6642  -21.0467  -11.3510 C   0  0  0  0  0  0  0  0  0  0  0  0
   20.8576  -21.9000  -10.2755 O   0  0  0  0  0  0  0  0  0  0  0  0
   18.9946  -21.4412  -14.7009 C   0  0  0  0  0  0  0  0  0  0  0  0
   17.6698  -21.2743  -15.0294 C   0  0  0  0  0  0  0  0  0  0  0  0
   19.8653  -20.0914  -11.2005 O   0  0  0  0  0  0  0  0  0  0  0  0
  2  1  1  0
  3  2  2  0
  4  2  1  0
  5  4  1  0
  6  5  1  0
  6  7  1  1
  8  6  1  0
  8  9  2  0
 10  8  1  0
 11 10  1  0
 11 12  1  1
 12 13  1  0
 13 14  2  0
 13 21  1  0
 14 15  1  0
 15 16  1  0
 16 17  2  0
 17 18  1  0
 19 18  2  0
 20 19  1  0
 21 20  2  0
 21 16  1  0
 22 11  1  0
 23 22  2  0
 25 24  1  0
 25 35  2  0
 26 25  1  0
 27 26  2  0
 27 28  1  0
 28 34  2  0
 29 28  1  0
 30 29  1  1
 30 31  1  0
 31 22  1  0
 32 33  1  0
 32 30  1  0
 34 35  1  0
 36 32  2  0
M  END
$$$$
