QWY.pdb
     RDKit          3D

 36 38  0  0  1  0  0  0  0  0999 V2000
   26.9477  -17.9027  -18.3073 N   0  0  0  0  0  0  0  0  0  0  0  0
   28.1905  -18.1435  -18.9316 C   0  0  0  0  0  0  0  0  0  0  0  0
   28.8404  -17.2106  -19.4393 O   0  0  0  0  0  0  0  0  0  0  0  0
   28.7198  -19.5195  -18.9794 C   0  0  0  0  0  0  0  0  0  0  0  0
   27.8396  -20.5009  -18.2590 C   0  0  0  0  0  0  0  0  0  0  0  0
   28.4738  -20.8480  -16.9306 C   0  0  2  0  0  0  0  0  0  0  0  0
   29.1846  -22.1141  -17.0701 N   0  0  0  0  0  0  0  0  0  0  0  0
   27.4521  -21.0387  -15.8676 C   0  0  0  0  0  0  0  0  0  0  0  0
   26.2622  -21.4212  -16.1339 O   0  0  0  0  0  0  0  0  0  0  0  0
   27.7448  -20.8050  -14.4941 N   0  0  0  0  0  0  0  0  0  0  0  0
   26.7762  -20.8999  -13.4314 C   0  0  1  0  0  0  0  0  0  0  0  0
   27.3683  -20.7392  -12.0871 C   0  0  0  0  0  0  0  0  0  0  0  0
   26.5057  -20.8716  -10.9291 C   0  0  0  0  0  0  0  0  0  0  0  0
   25.4577  -21.7615  -10.7212 C   0  0  0  0  0  0  0  0  0  0  0  0
   24.9181  -21.5233   -9.5138 N   0  0  0  0  0  0  0  0  0  0  0  0
   25.5752  -20.5150   -8.9316 C   0  0  0  0  0  0  0  0  0  0  0  0
   25.3944  -19.9168   -7.6923 C   0  0  0  0  0  0  0  0  0  0  0  0
   26.1915  -18.8860   -7.2733 C   0  0  0  0  0  0  0  0  0  0  0  0
   27.1855  -18.4453   -8.1051 C   0  0  0  0  0  0  0  0  0  0  0  0
   27.3517  -19.0505   -9.3333 C   0  0  0  0  0  0  0  0  0  0  0  0
   26.5746  -20.0905   -9.7996 C   0  0  0  0  0  0  0  0  0  0  0  0
   25.5781  -20.0709  -13.6894 C   0  0  0  0  0  0  0  0  0  0  0  0
   25.7314  -18.9473  -14.2284 O   0  0  0  0  0  0  0  0  0  0  0  0
   18.7210  -16.3880  -17.0748 O   0  0  0  0  0  0  0  0  0  0  0  0
   19.7790  -17.1613  -16.6108 C   0  0  0  0  0  0  0  0  0  0  0  0
   19.6917  -18.5359  -16.4805 C   0  0  0  0  0  0  0  0  0  0  0  0
   20.7505  -19.3014  -16.0171 C   0  0  0  0  0  0  0  0  0  0  0  0
   21.9319  -18.6999  -15.6705 C   0  0  0  0  0  0  0  0  0  0  0  0
   23.1097  -19.4213  -15.1677 C   0  0  0  0  0  0  0  0  0  0  0  0
   23.0875  -19.6575  -13.6775 C   0  0  2  0  0  0  0  0  0  0  0  0
   24.2540  -20.4609  -13.3678 N   0  0  0  0  0  0  0  0  0  0  0  0
   21.8492  -20.2537  -13.1771 C   0  0  0  0  0  0  0  0  0  0  0  0
   20.8878  -19.4406  -12.5968 O   0  0  0  0  0  0  0  0  0  0  0  0
   22.0240  -17.3143  -15.8003 C   0  0  0  0  0  0  0  0  0  0  0  0
   20.9746  -16.5536  -16.2599 C   0  0  0  0  0  0  0  0  0  0  0  0
   21.6079  -21.4827  -13.2469 O   0  0  0  0  0  0  0  0  0  0  0  0
  2  1  1  0
  3  2  2  0
  4  2  1  0
  5  4  1  0
  6  5  1  0
  6  7  1  6
  8  6  1  0
  8  9  2  0
 10  8  1  0
 11 10  1  0
 11 12  1  1
 12 13  1  0
 13 14  2  0
 13 21  1  0
 14 15  1  0
 15 16  1  0
 16 17  2  0
 17 18  1  0
 19 18  2  0
 20 19  1  0
 21 20  2  0
 21 16  1  0
 22 11  1  0
 23 22  2  0
 25 24  1  0
 25 35  2  0
 26 25  1  0
 27 26  2  0
 27 28  1  0
 28 34  2  0
 29 28  1  0
 30 29  1  6
 30 31  1  0
 31 22  1  0
 32 33  1  0
 32 30  1  0
 34 35  1  0
 36 32  2  0
M  END
$$$$
