QWY.pdb
     RDKit          3D

 36 38  0  0  1  0  0  0  0  0999 V2000
   28.8253  -17.5273  -15.7339 N   0  0  0  0  0  0  0  0  0  0  0  0
   28.0424  -18.1858  -16.7064 C   0  0  0  0  0  0  0  0  0  0  0  0
   28.2764  -18.0379  -17.9204 O   0  0  0  0  0  0  0  0  0  0  0  0
   26.9352  -19.0582  -16.2721 C   0  0  0  0  0  0  0  0  0  0  0  0
   26.8048  -19.1229  -14.7769 C   0  0  0  0  0  0  0  0  0  0  0  0
   27.4724  -20.3852  -14.2786 C   0  0  2  0  0  0  0  0  0  0  0  0
   27.3171  -21.4249  -15.2898 N   0  0  0  0  0  0  0  0  0  0  0  0
   26.8332  -20.8901  -13.0350 C   0  0  0  0  0  0  0  0  0  0  0  0
   25.7358  -21.5446  -13.0561 O   0  0  0  0  0  0  0  0  0  0  0  0
   27.4101  -20.6713  -11.7520 N   0  0  0  0  0  0  0  0  0  0  0  0
   26.7298  -20.9147  -10.5052 C   0  0  1  0  0  0  0  0  0  0  0  0
   27.5977  -20.7345   -9.3228 C   0  0  0  0  0  0  0  0  0  0  0  0
   26.9916  -20.7688   -8.0061 C   0  0  0  0  0  0  0  0  0  0  0  0
   25.7278  -21.2190   -7.6407 C   0  0  0  0  0  0  0  0  0  0  0  0
   25.5725  -21.0512   -6.3165 N   0  0  0  0  0  0  0  0  0  0  0  0
   26.6854  -20.5109   -5.8100 C   0  0  0  0  0  0  0  0  0  0  0  0
   27.0051  -20.1604   -4.5056 C   0  0  0  0  0  0  0  0  0  0  0  0
   28.2215  -19.6188   -4.1889 C   0  0  0  0  0  0  0  0  0  0  0  0
   29.1338  -19.4238   -5.1908 C   0  0  0  0  0  0  0  0  0  0  0  0
   28.8003  -19.7772   -6.4816 C   0  0  0  0  0  0  0  0  0  0  0  0
   27.5891  -20.3250   -6.8499 C   0  0  0  0  0  0  0  0  0  0  0  0
   25.4251  -20.2207  -10.4339 C   0  0  0  0  0  0  0  0  0  0  0  0
   25.4167  -18.9710  -10.3129 O   0  0  0  0  0  0  0  0  0  0  0  0
   22.3189  -21.1790  -16.8325 O   0  0  0  0  0  0  0  0  0  0  0  0
   22.4469  -20.6876  -15.5384 C   0  0  0  0  0  0  0  0  0  0  0  0
   21.4022  -20.7054  -14.6315 C   0  0  0  0  0  0  0  0  0  0  0  0
   21.5363  -20.2138  -13.3423 C   0  0  0  0  0  0  0  0  0  0  0  0
   22.7325  -19.6881  -12.9296 C   0  0  0  0  0  0  0  0  0  0  0  0
   22.9748  -19.1407  -11.5871 C   0  0  0  0  0  0  0  0  0  0  0  0
   22.9014  -20.1719  -10.4879 C   0  0  2  0  0  0  0  0  0  0  0  0
   24.1692  -20.8751  -10.4940 N   0  0  0  0  0  0  0  0  0  0  0  0
   21.7584  -21.0794  -10.5841 C   0  0  0  0  0  0  0  0  0  0  0  0
   20.4823  -20.5955  -10.3398 O   0  0  0  0  0  0  0  0  0  0  0  0
   23.7882  -19.6682  -13.8408 C   0  0  0  0  0  0  0  0  0  0  0  0
   23.6567  -20.1555  -15.1199 C   0  0  0  0  0  0  0  0  0  0  0  0
   21.8746  -22.2925  -10.8811 O   0  0  0  0  0  0  0  0  0  0  0  0
  2  1  1  0
  3  2  2  0
  4  2  1  0
  5  4  1  0
  6  5  1  0
  6  7  1  6
  8  6  1  0
  8  9  2  0
 10  8  1  0
 11 10  1  0
 11 12  1  1
 12 13  1  0
 13 14  2  0
 13 21  1  0
 14 15  1  0
 15 16  1  0
 16 17  2  0
 17 18  1  0
 19 18  2  0
 20 19  1  0
 21 20  2  0
 21 16  1  0
 22 11  1  0
 23 22  2  0
 25 24  1  0
 25 35  2  0
 26 25  1  0
 27 26  2  0
 27 28  1  0
 28 34  2  0
 29 28  1  0
 30 29  1  6
 30 31  1  0
 31 22  1  0
 32 33  1  0
 32 30  1  0
 34 35  1  0
 36 32  2  0
M  END
$$$$
