QWY.pdb
     RDKit          3D

 36 38  0  0  1  0  0  0  0  0999 V2000
   29.8210   -9.0298  -25.1940 N   0  0  0  0  0  0  0  0  0  0  0  0
   29.3945   -9.7002  -24.0274 C   0  0  0  0  0  0  0  0  0  0  0  0
   28.2920  -10.2778  -23.9908 O   0  0  0  0  0  0  0  0  0  0  0  0
   30.2705   -9.7126  -22.8407 C   0  0  0  0  0  0  0  0  0  0  0  0
   31.5638   -8.9839  -23.0715 C   0  0  0  0  0  0  0  0  0  0  0  0
   32.1747   -8.6295  -21.7342 C   0  0  2  0  0  0  0  0  0  0  0  0
   32.8587   -9.8053  -21.2078 N   0  0  0  0  0  0  0  0  0  0  0  0
   31.1368   -8.2495  -20.7399 C   0  0  0  0  0  0  0  0  0  0  0  0
   30.0912   -8.9590  -20.5490 O   0  0  0  0  0  0  0  0  0  0  0  0
   31.2522   -7.0734  -19.9460 N   0  0  0  0  0  0  0  0  0  0  0  0
   30.3025   -6.6811  -18.9356 C   0  0  1  0  0  0  0  0  0  0  0  0
   30.9375   -6.2842  -17.6617 C   0  0  0  0  0  0  0  0  0  0  0  0
   31.8152   -7.2300  -17.0002 C   0  0  0  0  0  0  0  0  0  0  0  0
   31.7991   -8.6192  -17.0565 C   0  0  0  0  0  0  0  0  0  0  0  0
   32.7818   -9.0975  -16.2747 N   0  0  0  0  0  0  0  0  0  0  0  0
   33.4336   -8.0734  -15.7148 C   0  0  0  0  0  0  0  0  0  0  0  0
   34.5155   -8.0598  -14.8454 C   0  0  0  0  0  0  0  0  0  0  0  0
   35.0485   -6.8858  -14.3862 C   0  0  0  0  0  0  0  0  0  0  0  0
   34.4925   -5.7058  -14.8018 C   0  0  0  0  0  0  0  0  0  0  0  0
   33.4177   -5.7368  -15.6656 C   0  0  0  0  0  0  0  0  0  0  0  0
   32.8459   -6.8929  -16.1548 C   0  0  0  0  0  0  0  0  0  0  0  0
   29.2937   -5.7308  -19.4536 C   0  0  0  0  0  0  0  0  0  0  0  0
   29.6882   -4.7400  -20.1161 O   0  0  0  0  0  0  0  0  0  0  0  0
   27.0402   -5.8246  -26.1078 O   0  0  0  0  0  0  0  0  0  0  0  0
   26.7800   -5.8277  -24.7421 C   0  0  0  0  0  0  0  0  0  0  0  0
   27.1202   -6.8908  -23.9246 C   0  0  0  0  0  0  0  0  0  0  0  0
   26.8580   -6.8877  -22.5634 C   0  0  0  0  0  0  0  0  0  0  0  0
   26.2426   -5.8081  -21.9858 C   0  0  0  0  0  0  0  0  0  0  0  0
   25.9197   -5.7093  -20.5552 C   0  0  0  0  0  0  0  0  0  0  0  0
   26.9245   -4.9135  -19.7589 C   0  0  2  0  0  0  0  0  0  0  0  0
   27.8969   -5.8622  -19.2525 N   0  0  0  0  0  0  0  0  0  0  0  0
   26.3424   -4.0902  -18.6994 C   0  0  0  0  0  0  0  0  0  0  0  0
   26.0927   -2.7478  -18.9395 O   0  0  0  0  0  0  0  0  0  0  0  0
   25.8979   -4.7344  -22.8064 C   0  0  0  0  0  0  0  0  0  0  0  0
   26.1574   -4.7360  -24.1569 C   0  0  0  0  0  0  0  0  0  0  0  0
   26.0526   -4.5432  -17.5661 O   0  0  0  0  0  0  0  0  0  0  0  0
  2  1  1  0
  3  2  2  0
  4  2  1  0
  5  4  1  0
  6  5  1  0
  6  7  1  1
  8  6  1  0
  8  9  2  0
 10  8  1  0
 11 10  1  0
 11 12  1  1
 12 13  1  0
 13 14  2  0
 13 21  1  0
 14 15  1  0
 15 16  1  0
 16 17  2  0
 17 18  1  0
 19 18  2  0
 20 19  1  0
 21 20  2  0
 21 16  1  0
 22 11  1  0
 23 22  2  0
 25 24  1  0
 25 35  2  0
 26 25  1  0
 27 26  2  0
 27 28  1  0
 28 34  2  0
 29 28  1  0
 30 29  1  1
 30 31  1  0
 31 22  1  0
 32 33  1  0
 32 30  1  0
 34 35  1  0
 36 32  2  0
M  END
$$$$
