QWY.pdb
     RDKit          3D

 36 38  0  0  1  0  0  0  0  0999 V2000
   28.4852  -17.8648  -15.4539 N   0  0  0  0  0  0  0  0  0  0  0  0
   28.8117  -18.4980  -16.6725 C   0  0  0  0  0  0  0  0  0  0  0  0
   29.6272  -17.9831  -17.4601 O   0  0  0  0  0  0  0  0  0  0  0  0
   28.1755  -19.7851  -17.0105 C   0  0  0  0  0  0  0  0  0  0  0  0
   27.3063  -20.3070  -15.9019 C   0  0  0  0  0  0  0  0  0  0  0  0
   28.1758  -21.0125  -14.8852 C   0  0  2  0  0  0  0  0  0  0  0  0
   28.6561  -22.2603  -15.4684 N   0  0  0  0  0  0  0  0  0  0  0  0
   27.4101  -21.3713  -13.6625 C   0  0  0  0  0  0  0  0  0  0  0  0
   26.2437  -21.8899  -13.7227 O   0  0  0  0  0  0  0  0  0  0  0  0
   27.9359  -21.1560  -12.3571 N   0  0  0  0  0  0  0  0  0  0  0  0
   27.1508  -21.2011  -11.1495 C   0  0  1  0  0  0  0  0  0  0  0  0
   27.9452  -20.9533   -9.9284 C   0  0  0  0  0  0  0  0  0  0  0  0
   27.2442  -20.7136   -8.6819 C   0  0  0  0  0  0  0  0  0  0  0  0
   25.8759  -20.7312   -8.4351 C   0  0  0  0  0  0  0  0  0  0  0  0
   25.6636  -20.4369   -7.1413 N   0  0  0  0  0  0  0  0  0  0  0  0
   26.8398  -20.2298   -6.5406 C   0  0  0  0  0  0  0  0  0  0  0  0
   27.1356  -19.9083   -5.2231 C   0  0  0  0  0  0  0  0  0  0  0  0
   28.4269  -19.7442   -4.8003 C   0  0  0  0  0  0  0  0  0  0  0  0
   29.4397  -19.9039   -5.7074 C   0  0  0  0  0  0  0  0  0  0  0  0
   29.1287  -20.2231   -7.0126 C   0  0  0  0  0  0  0  0  0  0  0  0
   27.8449  -20.3980   -7.4860 C   0  0  0  0  0  0  0  0  0  0  0  0
   25.9084  -20.4053  -11.2588 C   0  0  0  0  0  0  0  0  0  0  0  0
   26.0040  -19.1656  -11.4334 O   0  0  0  0  0  0  0  0  0  0  0  0
   22.3239  -22.1465  -17.2950 O   0  0  0  0  0  0  0  0  0  0  0  0
   22.5786  -21.4701  -16.1074 C   0  0  0  0  0  0  0  0  0  0  0  0
   21.7190  -21.5229  -15.0246 C   0  0  0  0  0  0  0  0  0  0  0  0
   21.9787  -20.8461  -13.8431 C   0  0  0  0  0  0  0  0  0  0  0  0
   23.1173  -20.0937  -13.7195 C   0  0  0  0  0  0  0  0  0  0  0  0
   23.4814  -19.3387  -12.5121 C   0  0  0  0  0  0  0  0  0  0  0  0
   23.3969  -20.1474  -11.2409 C   0  0  2  0  0  0  0  0  0  0  0  0
   24.6024  -20.9505  -11.1798 N   0  0  0  0  0  0  0  0  0  0  0  0
   22.1821  -20.9521  -11.1147 C   0  0  0  0  0  0  0  0  0  0  0  0
   22.2799  -22.3350  -11.0990 O   0  0  0  0  0  0  0  0  0  0  0  0
   23.9866  -20.0378  -14.8088 C   0  0  0  0  0  0  0  0  0  0  0  0
   23.7303  -20.7087  -15.9815 C   0  0  0  0  0  0  0  0  0  0  0  0
   21.0376  -20.4478  -11.0183 O   0  0  0  0  0  0  0  0  0  0  0  0
  2  1  1  0
  3  2  2  0
  4  2  1  0
  5  4  1  0
  6  5  1  0
  6  7  1  6
  8  6  1  0
  8  9  2  0
 10  8  1  0
 11 10  1  0
 11 12  1  1
 12 13  1  0
 13 14  2  0
 13 21  1  0
 14 15  1  0
 15 16  1  0
 16 17  2  0
 17 18  1  0
 19 18  2  0
 20 19  1  0
 21 20  2  0
 21 16  1  0
 22 11  1  0
 23 22  2  0
 25 24  1  0
 25 35  2  0
 26 25  1  0
 27 26  2  0
 27 28  1  0
 28 34  2  0
 29 28  1  0
 30 29  1  6
 30 31  1  0
 31 22  1  0
 32 33  1  0
 32 30  1  0
 34 35  1  0
 36 32  2  0
M  END
$$$$
