QWY.pdb
     RDKit          3D

 36 38  0  0  1  0  0  0  0  0999 V2000
   26.6185  -24.4677  -18.8837 N   0  0  0  0  0  0  0  0  0  0  0  0
   27.8998  -23.8778  -18.9345 C   0  0  0  0  0  0  0  0  0  0  0  0
   28.6038  -23.9692  -19.9576 O   0  0  0  0  0  0  0  0  0  0  0  0
   28.4048  -23.1455  -17.7578 C   0  0  0  0  0  0  0  0  0  0  0  0
   27.4485  -23.1862  -16.5998 C   0  0  0  0  0  0  0  0  0  0  0  0
   27.7383  -22.0205  -15.6809 C   0  0  2  0  0  0  0  0  0  0  0  0
   29.1082  -22.1395  -15.1945 N   0  0  0  0  0  0  0  0  0  0  0  0
   26.8516  -22.0285  -14.4876 C   0  0  0  0  0  0  0  0  0  0  0  0
   26.1277  -23.0386  -14.1896 O   0  0  0  0  0  0  0  0  0  0  0  0
   26.7613  -20.9098  -13.6117 N   0  0  0  0  0  0  0  0  0  0  0  0
   25.8756  -20.8381  -12.4772 C   0  0  1  0  0  0  0  0  0  0  0  0
   26.4539  -20.1054  -11.3317 C   0  0  0  0  0  0  0  0  0  0  0  0
   27.5860  -20.6869  -10.6368 C   0  0  0  0  0  0  0  0  0  0  0  0
   28.6667  -21.3848  -11.1645 C   0  0  0  0  0  0  0  0  0  0  0  0
   29.4750  -21.7598  -10.1586 N   0  0  0  0  0  0  0  0  0  0  0  0
   28.9610  -21.3321   -9.0010 C   0  0  0  0  0  0  0  0  0  0  0  0
   29.4297  -21.4668   -7.7015 C   0  0  0  0  0  0  0  0  0  0  0  0
   28.7476  -20.9408   -6.6378 C   0  0  0  0  0  0  0  0  0  0  0  0
   27.5785  -20.2693   -6.8752 C   0  0  0  0  0  0  0  0  0  0  0  0
   27.1266  -20.1446   -8.1723 C   0  0  0  0  0  0  0  0  0  0  0  0
   27.7773  -20.6569   -9.2755 C   0  0  0  0  0  0  0  0  0  0  0  0
   24.5083  -20.4216  -12.8592 C   0  0  0  0  0  0  0  0  0  0  0  0
   24.3698  -19.6377  -13.8302 O   0  0  0  0  0  0  0  0  0  0  0  0
   16.9216  -20.5380  -16.6395 O   0  0  0  0  0  0  0  0  0  0  0  0
   18.1367  -20.7411  -15.9952 C   0  0  0  0  0  0  0  0  0  0  0  0
   18.3824  -21.8523  -15.2084 C   0  0  0  0  0  0  0  0  0  0  0  0
   19.5962  -22.0490  -14.5685 C   0  0  0  0  0  0  0  0  0  0  0  0
   20.6007  -21.1270  -14.7044 C   0  0  0  0  0  0  0  0  0  0  0  0
   21.9198  -21.2425  -14.0663 C   0  0  0  0  0  0  0  0  0  0  0  0
   21.9945  -20.5984  -12.7038 C   0  0  2  0  0  0  0  0  0  0  0  0
   23.3299  -20.8507  -12.1987 N   0  0  0  0  0  0  0  0  0  0  0  0
   20.9535  -21.0304  -11.7717 C   0  0  0  0  0  0  0  0  0  0  0  0
   19.7516  -20.3408  -11.7258 O   0  0  0  0  0  0  0  0  0  0  0  0
   20.3571  -20.0053  -15.4967 C   0  0  0  0  0  0  0  0  0  0  0  0
   19.1535  -19.8088  -16.1322 C   0  0  0  0  0  0  0  0  0  0  0  0
   21.0938  -22.0086  -10.9991 O   0  0  0  0  0  0  0  0  0  0  0  0
  2  1  1  0
  3  2  2  0
  4  2  1  0
  5  4  1  0
  6  5  1  0
  6  7  1  1
  8  6  1  0
  8  9  2  0
 10  8  1  0
 11 10  1  0
 11 12  1  1
 12 13  1  0
 13 14  2  0
 13 21  1  0
 14 15  1  0
 15 16  1  0
 16 17  2  0
 17 18  1  0
 19 18  2  0
 20 19  1  0
 21 20  2  0
 21 16  1  0
 22 11  1  0
 23 22  2  0
 25 24  1  0
 25 35  2  0
 26 25  1  0
 27 26  2  0
 27 28  1  0
 28 34  2  0
 29 28  1  0
 30 29  1  6
 30 31  1  0
 31 22  1  0
 32 33  1  0
 32 30  1  0
 34 35  1  0
 36 32  2  0
M  END
$$$$
