QWY.pdb
     RDKit          3D

 36 38  0  0  1  0  0  0  0  0999 V2000
   29.5684  -17.0806  -15.8684 N   0  0  0  0  0  0  0  0  0  0  0  0
   28.3314  -17.6390  -16.2561 C   0  0  0  0  0  0  0  0  0  0  0  0
   27.3500  -16.9109  -16.4953 O   0  0  0  0  0  0  0  0  0  0  0  0
   28.2069  -19.1038  -16.3774 C   0  0  0  0  0  0  0  0  0  0  0  0
   27.2832  -19.6908  -15.3483 C   0  0  0  0  0  0  0  0  0  0  0  0
   28.0717  -20.6187  -14.4513 C   0  0  2  0  0  0  0  0  0  0  0  0
   28.4008  -21.8250  -15.2023 N   0  0  0  0  0  0  0  0  0  0  0  0
   27.2773  -21.0462  -13.2696 C   0  0  0  0  0  0  0  0  0  0  0  0
   26.1387  -21.6138  -13.3894 O   0  0  0  0  0  0  0  0  0  0  0  0
   27.7432  -20.8459  -11.9393 N   0  0  0  0  0  0  0  0  0  0  0  0
   26.9484  -21.0746  -10.7592 C   0  0  1  0  0  0  0  0  0  0  0  0
   27.7258  -20.9812   -9.5059 C   0  0  0  0  0  0  0  0  0  0  0  0
   27.0092  -20.8174   -8.2561 C   0  0  0  0  0  0  0  0  0  0  0  0
   25.6808  -21.1117   -7.9689 C   0  0  0  0  0  0  0  0  0  0  0  0
   25.4304  -20.7868   -6.6893 N   0  0  0  0  0  0  0  0  0  0  0  0
   26.5435  -20.2944   -6.1365 C   0  0  0  0  0  0  0  0  0  0  0  0
   26.7836  -19.8328   -4.8497 C   0  0  0  0  0  0  0  0  0  0  0  0
   28.0157  -19.3691   -4.4752 C   0  0  0  0  0  0  0  0  0  0  0  0
   29.0248  -19.3663   -5.4003 C   0  0  0  0  0  0  0  0  0  0  0  0
   28.7695  -19.8282   -6.6746 C   0  0  0  0  0  0  0  0  0  0  0  0
   27.5464  -20.3041   -7.0991 C   0  0  0  0  0  0  0  0  0  0  0  0
   25.6891  -20.2981  -10.7725 C   0  0  0  0  0  0  0  0  0  0  0  0
   25.7579  -19.0448  -10.8013 O   0  0  0  0  0  0  0  0  0  0  0  0
   21.0640  -21.5345  -16.7518 O   0  0  0  0  0  0  0  0  0  0  0  0
   21.6490  -20.9820  -15.6181 C   0  0  0  0  0  0  0  0  0  0  0  0
   23.0019  -21.0947  -15.3517 C   0  0  0  0  0  0  0  0  0  0  0  0
   23.5791  -20.5414  -14.2193 C   0  0  0  0  0  0  0  0  0  0  0  0
   22.8052  -19.8561  -13.3199 C   0  0  0  0  0  0  0  0  0  0  0  0
   23.3203  -19.2360  -12.0907 C   0  0  0  0  0  0  0  0  0  0  0  0
   23.1735  -20.1035  -10.8647 C   0  0  2  0  0  0  0  0  0  0  0  0
   24.3952  -20.8765  -10.7554 N   0  0  0  0  0  0  0  0  0  0  0  0
   21.9771  -20.9448  -10.8577 C   0  0  0  0  0  0  0  0  0  0  0  0
   20.7462  -20.3759  -10.5689 O   0  0  0  0  0  0  0  0  0  0  0  0
   21.4407  -19.7402  -13.5847 C   0  0  0  0  0  0  0  0  0  0  0  0
   20.8667  -20.2885  -14.7076 C   0  0  0  0  0  0  0  0  0  0  0  0
   22.0074  -22.1745  -11.1035 O   0  0  0  0  0  0  0  0  0  0  0  0
  2  1  1  0
  3  2  2  0
  4  2  1  0
  5  4  1  0
  6  5  1  0
  6  7  1  6
  8  6  1  0
  8  9  2  0
 10  8  1  0
 11 10  1  0
 11 12  1  1
 12 13  1  0
 13 14  2  0
 13 21  1  0
 14 15  1  0
 15 16  1  0
 16 17  2  0
 17 18  1  0
 19 18  2  0
 20 19  1  0
 21 20  2  0
 21 16  1  0
 22 11  1  0
 23 22  2  0
 25 24  1  0
 25 35  2  0
 26 25  1  0
 27 26  2  0
 27 28  1  0
 28 34  2  0
 29 28  1  0
 30 29  1  6
 30 31  1  0
 31 22  1  0
 32 33  1  0
 32 30  1  0
 34 35  1  0
 36 32  2  0
M  END
$$$$
