QWY.pdb
     RDKit          3D

 36 38  0  0  1  0  0  0  0  0999 V2000
   26.3668  -20.1248  -17.2958 N   0  0  0  0  0  0  0  0  0  0  0  0
   27.7286  -20.4773  -17.4123 C   0  0  0  0  0  0  0  0  0  0  0  0
   28.4172  -20.0568  -18.3607 O   0  0  0  0  0  0  0  0  0  0  0  0
   28.3369  -21.3548  -16.3945 C   0  0  0  0  0  0  0  0  0  0  0  0
   27.3572  -21.7747  -15.3359 C   0  0  0  0  0  0  0  0  0  0  0  0
   27.2302  -20.6661  -14.3150 C   0  0  2  0  0  0  0  0  0  0  0  0
   28.5589  -20.1307  -14.0405 N   0  0  0  0  0  0  0  0  0  0  0  0
   26.6890  -21.1676  -13.0243 C   0  0  0  0  0  0  0  0  0  0  0  0
   25.6965  -21.9710  -12.9736 O   0  0  0  0  0  0  0  0  0  0  0  0
   27.2481  -20.7791  -11.7740 N   0  0  0  0  0  0  0  0  0  0  0  0
   26.6803  -21.1151  -10.4929 C   0  0  1  0  0  0  0  0  0  0  0  0
   27.6629  -21.0705   -9.3902 C   0  0  0  0  0  0  0  0  0  0  0  0
   27.1730  -21.0219   -8.0263 C   0  0  0  0  0  0  0  0  0  0  0  0
   25.9493  -21.4518   -7.5249 C   0  0  0  0  0  0  0  0  0  0  0  0
   25.9074  -21.1996   -6.2056 N   0  0  0  0  0  0  0  0  0  0  0  0
   27.0550  -20.6242   -5.8330 C   0  0  0  0  0  0  0  0  0  0  0  0
   27.4830  -20.1896   -4.5862 C   0  0  0  0  0  0  0  0  0  0  0  0
   28.7173  -19.6247   -4.4113 C   0  0  0  0  0  0  0  0  0  0  0  0
   29.5381  -19.4917   -5.4988 C   0  0  0  0  0  0  0  0  0  0  0  0
   29.0976  -19.9285   -6.7307 C   0  0  0  0  0  0  0  0  0  0  0  0
   27.8640  -20.5028   -6.9569 C   0  0  0  0  0  0  0  0  0  0  0  0
   25.4163  -20.3914  -10.2329 C   0  0  0  0  0  0  0  0  0  0  0  0
   25.4752  -19.1801   -9.9078 O   0  0  0  0  0  0  0  0  0  0  0  0
   19.5760  -17.3635  -15.5902 O   0  0  0  0  0  0  0  0  0  0  0  0
   20.5138  -17.9700  -14.7623 C   0  0  0  0  0  0  0  0  0  0  0  0
   20.5400  -17.7628  -13.3946 C   0  0  0  0  0  0  0  0  0  0  0  0
   21.4778  -18.3706  -12.5745 C   0  0  0  0  0  0  0  0  0  0  0  0
   22.4198  -19.2078  -13.1125 C   0  0  0  0  0  0  0  0  0  0  0  0
   23.4559  -19.8968  -12.3300 C   0  0  0  0  0  0  0  0  0  0  0  0
   22.9983  -20.3212  -10.9561 C   0  0  2  0  0  0  0  0  0  0  0  0
   24.1285  -20.9760  -10.3269 N   0  0  0  0  0  0  0  0  0  0  0  0
   21.7952  -21.1528  -10.9484 C   0  0  0  0  0  0  0  0  0  0  0  0
   21.8599  -22.4487  -11.4370 O   0  0  0  0  0  0  0  0  0  0  0  0
   22.3970  -19.4193  -14.4909 C   0  0  0  0  0  0  0  0  0  0  0  0
   21.4672  -18.8171  -15.3058 C   0  0  0  0  0  0  0  0  0  0  0  0
   20.6897  -20.7478  -10.5157 O   0  0  0  0  0  0  0  0  0  0  0  0
  2  1  1  0
  3  2  2  0
  4  2  1  0
  5  4  1  0
  6  5  1  0
  6  7  1  1
  8  6  1  0
  8  9  2  0
 10  8  1  0
 11 10  1  0
 11 12  1  1
 12 13  1  0
 13 14  2  0
 13 21  1  0
 14 15  1  0
 15 16  1  0
 16 17  2  0
 17 18  1  0
 19 18  2  0
 20 19  1  0
 21 20  2  0
 21 16  1  0
 22 11  1  0
 23 22  2  0
 25 24  1  0
 25 35  2  0
 26 25  1  0
 27 26  2  0
 27 28  1  0
 28 34  2  0
 29 28  1  0
 30 29  1  6
 30 31  1  0
 31 22  1  0
 32 33  1  0
 32 30  1  0
 34 35  1  0
 36 32  2  0
M  END
$$$$
