QWY.pdb
     RDKit          3D

 36 38  0  0  1  0  0  0  0  0999 V2000
   25.6271  -20.8928  -21.2826 N   0  0  0  0  0  0  0  0  0  0  0  0
   26.8709  -20.3434  -20.9040 C   0  0  0  0  0  0  0  0  0  0  0  0
   27.9284  -20.9761  -21.0828 O   0  0  0  0  0  0  0  0  0  0  0  0
   26.9112  -19.0030  -20.2896 C   0  0  0  0  0  0  0  0  0  0  0  0
   25.7269  -18.7393  -19.4037 C   0  0  0  0  0  0  0  0  0  0  0  0
   26.2045  -18.0922  -18.1229 C   0  0  2  0  0  0  0  0  0  0  0  0
   27.5880  -17.6668  -18.3033 N   0  0  0  0  0  0  0  0  0  0  0  0
   26.1894  -19.0493  -16.9854 C   0  0  0  0  0  0  0  0  0  0  0  0
   25.9040  -20.2848  -17.1447 O   0  0  0  0  0  0  0  0  0  0  0  0
   26.4925  -18.6404  -15.6559 N   0  0  0  0  0  0  0  0  0  0  0  0
   26.4173  -19.5045  -14.5051 C   0  0  1  0  0  0  0  0  0  0  0  0
   27.4100  -19.1733  -13.4618 C   0  0  0  0  0  0  0  0  0  0  0  0
   27.5416  -20.0612  -12.3230 C   0  0  0  0  0  0  0  0  0  0  0  0
   28.1575  -21.3060  -12.2561 C   0  0  0  0  0  0  0  0  0  0  0  0
   28.0302  -21.7875  -11.0080 N   0  0  0  0  0  0  0  0  0  0  0  0
   27.3569  -20.9040  -10.2643 C   0  0  0  0  0  0  0  0  0  0  0  0
   26.9864  -20.9469   -8.9273 C   0  0  0  0  0  0  0  0  0  0  0  0
   26.2957  -19.9194   -8.3439 C   0  0  0  0  0  0  0  0  0  0  0  0
   25.9695  -18.8310   -9.1076 C   0  0  0  0  0  0  0  0  0  0  0  0
   26.3449  -18.8043  -10.4345 C   0  0  0  0  0  0  0  0  0  0  0  0
   27.0403  -19.8139  -11.0667 C   0  0  0  0  0  0  0  0  0  0  0  0
   25.0301  -19.6692  -14.0177 C   0  0  0  0  0  0  0  0  0  0  0  0
   24.2590  -18.6792  -14.0585 O   0  0  0  0  0  0  0  0  0  0  0  0
   20.4831  -22.5741   -7.3006 O   0  0  0  0  0  0  0  0  0  0  0  0
   21.1855  -21.9978   -8.3529 C   0  0  0  0  0  0  0  0  0  0  0  0
   22.5518  -22.1528   -8.5058 C   0  0  0  0  0  0  0  0  0  0  0  0
   23.2463  -21.5754   -9.5574 C   0  0  0  0  0  0  0  0  0  0  0  0
   22.5801  -20.8223  -10.4883 C   0  0  0  0  0  0  0  0  0  0  0  0
   23.2244  -20.1680  -11.6359 C   0  0  0  0  0  0  0  0  0  0  0  0
   23.1890  -20.9883  -12.9020 C   0  0  2  0  0  0  0  0  0  0  0  0
   24.5042  -20.8804  -13.5026 N   0  0  0  0  0  0  0  0  0  0  0  0
   22.1191  -20.6238  -13.8302 C   0  0  0  0  0  0  0  0  0  0  0  0
   22.4288  -20.3541  -15.1544 O   0  0  0  0  0  0  0  0  0  0  0  0
   21.2026  -20.6636  -10.3378 C   0  0  0  0  0  0  0  0  0  0  0  0
   20.5122  -21.2357   -9.2951 C   0  0  0  0  0  0  0  0  0  0  0  0
   20.9161  -20.5411  -13.4846 O   0  0  0  0  0  0  0  0  0  0  0  0
  2  1  1  0
  3  2  2  0
  4  2  1  0
  5  4  1  0
  6  5  1  0
  6  7  1  6
  8  6  1  0
  8  9  2  0
 10  8  1  0
 11 10  1  0
 11 12  1  1
 12 13  1  0
 13 14  2  0
 13 21  1  0
 14 15  1  0
 15 16  1  0
 16 17  2  0
 17 18  1  0
 19 18  2  0
 20 19  1  0
 21 20  2  0
 21 16  1  0
 22 11  1  0
 23 22  2  0
 25 24  1  0
 25 35  2  0
 26 25  1  0
 27 26  2  0
 27 28  1  0
 28 34  2  0
 29 28  1  0
 30 29  1  1
 30 31  1  0
 31 22  1  0
 32 33  1  0
 32 30  1  0
 34 35  1  0
 36 32  2  0
M  END
$$$$
