QWY.pdb
     RDKit          3D

 36 38  0  0  1  0  0  0  0  0999 V2000
   29.5715  -26.5990  -15.6828 N   0  0  0  0  0  0  0  0  0  0  0  0
   29.4385  -26.1405  -17.0111 C   0  0  0  0  0  0  0  0  0  0  0  0
   30.0731  -26.6781  -17.9378 O   0  0  0  0  0  0  0  0  0  0  0  0
   28.5351  -25.0102  -17.2976 C   0  0  0  0  0  0  0  0  0  0  0  0
   27.8483  -24.4946  -16.0650 C   0  0  0  0  0  0  0  0  0  0  0  0
   26.4597  -24.0238  -16.4357 C   0  0  2  0  0  0  0  0  0  0  0  0
   26.5600  -23.1416  -17.5930 N   0  0  0  0  0  0  0  0  0  0  0  0
   25.8372  -23.2341  -15.3406 C   0  0  0  0  0  0  0  0  0  0  0  0
   25.6825  -23.7121  -14.1656 O   0  0  0  0  0  0  0  0  0  0  0  0
   25.3792  -21.9014  -15.5425 N   0  0  0  0  0  0  0  0  0  0  0  0
   24.7549  -21.0958  -14.5238 C   0  0  1  0  0  0  0  0  0  0  0  0
   25.4772  -19.8354  -14.2534 C   0  0  0  0  0  0  0  0  0  0  0  0
   26.8621  -19.9070  -13.8299 C   0  0  0  0  0  0  0  0  0  0  0  0
   28.0083  -19.5647  -14.5389 C   0  0  0  0  0  0  0  0  0  0  0  0
   29.0835  -19.8063  -13.7699 N   0  0  0  0  0  0  0  0  0  0  0  0
   28.6792  -20.2908  -12.5914 C   0  0  0  0  0  0  0  0  0  0  0  0
   29.4101  -20.6801  -11.4775 C   0  0  0  0  0  0  0  0  0  0  0  0
   28.7958  -21.1496  -10.3481 C   0  0  0  0  0  0  0  0  0  0  0  0
   27.4294  -21.2316  -10.3302 C   0  0  0  0  0  0  0  0  0  0  0  0
   26.7180  -20.8410  -11.4455 C   0  0  0  0  0  0  0  0  0  0  0  0
   27.2910  -20.3626  -12.6055 C   0  0  0  0  0  0  0  0  0  0  0  0
   23.2989  -20.9472  -14.7410 C   0  0  0  0  0  0  0  0  0  0  0  0
   22.7604  -21.6055  -15.6645 O   0  0  0  0  0  0  0  0  0  0  0  0
   17.6680  -24.3832   -9.5804 O   0  0  0  0  0  0  0  0  0  0  0  0
   18.6967  -23.6903  -10.2083 C   0  0  0  0  0  0  0  0  0  0  0  0
   19.4934  -22.7783   -9.5390 C   0  0  0  0  0  0  0  0  0  0  0  0
   20.5176  -22.0905  -10.1710 C   0  0  0  0  0  0  0  0  0  0  0  0
   20.7685  -22.3036  -11.5011 C   0  0  0  0  0  0  0  0  0  0  0  0
   21.8273  -21.6240  -12.2612 C   0  0  0  0  0  0  0  0  0  0  0  0
   21.3115  -20.5852  -13.2265 C   0  0  2  0  0  0  0  0  0  0  0  0
   22.4594  -20.1044  -13.9703 N   0  0  0  0  0  0  0  0  0  0  0  0
   20.5558  -19.5000  -12.6017 C   0  0  0  0  0  0  0  0  0  0  0  0
   21.2032  -18.6271  -11.7407 O   0  0  0  0  0  0  0  0  0  0  0  0
   19.9677  -23.2220  -12.1796 C   0  0  0  0  0  0  0  0  0  0  0  0
   18.9512  -23.9052  -11.5540 C   0  0  0  0  0  0  0  0  0  0  0  0
   19.3324  -19.3149  -12.8077 O   0  0  0  0  0  0  0  0  0  0  0  0
  2  1  1  0
  3  2  2  0
  4  2  1  0
  5  4  1  0
  6  5  1  0
  6  7  1  6
  8  6  1  0
  8  9  2  0
 10  8  1  0
 11 10  1  0
 11 12  1  6
 12 13  1  0
 13 14  2  0
 13 21  1  0
 14 15  1  0
 15 16  1  0
 16 17  2  0
 17 18  1  0
 19 18  2  0
 20 19  1  0
 21 20  2  0
 21 16  1  0
 22 11  1  0
 23 22  2  0
 25 24  1  0
 25 35  2  0
 26 25  1  0
 27 26  2  0
 27 28  1  0
 28 34  2  0
 29 28  1  0
 30 29  1  1
 30 31  1  0
 31 22  1  0
 32 33  1  0
 32 30  1  0
 34 35  1  0
 36 32  2  0
M  END
$$$$
