QWY.pdb
     RDKit          3D

 36 38  0  0  1  0  0  0  0  0999 V2000
   15.5687  -21.9544    0.7172 N   0  0  0  0  0  0  0  0  0  0  0  0
   15.1937  -21.5464    2.0154 C   0  0  0  0  0  0  0  0  0  0  0  0
   15.2628  -22.3349    2.9766 O   0  0  0  0  0  0  0  0  0  0  0  0
   14.7149  -20.1676    2.2287 C   0  0  0  0  0  0  0  0  0  0  0  0
   15.5886  -19.3941    3.1748 C   0  0  0  0  0  0  0  0  0  0  0  0
   14.7172  -18.7238    4.2133 C   0  0  2  0  0  0  0  0  0  0  0  0
   13.9735  -17.6452    3.5720 N   0  0  0  0  0  0  0  0  0  0  0  0
   15.5285  -18.1077    5.2961 C   0  0  0  0  0  0  0  0  0  0  0  0
   16.0807  -16.9633    5.1599 O   0  0  0  0  0  0  0  0  0  0  0  0
   15.7342  -18.7604    6.5444 N   0  0  0  0  0  0  0  0  0  0  0  0
   16.5926  -18.2609    7.5886 C   0  0  1  0  0  0  0  0  0  0  0  0
   16.2376  -18.7714    8.9290 C   0  0  0  0  0  0  0  0  0  0  0  0
   16.0289  -17.8179   10.0013 C   0  0  0  0  0  0  0  0  0  0  0  0
   16.4500  -16.4953   10.0846 C   0  0  0  0  0  0  0  0  0  0  0  0
   16.0530  -15.9861   11.2631 N   0  0  0  0  0  0  0  0  0  0  0  0
   15.3915  -16.9260   11.9458 C   0  0  0  0  0  0  0  0  0  0  0  0
   14.7909  -16.8780   13.1962 C   0  0  0  0  0  0  0  0  0  0  0  0
   14.1464  -17.9652   13.7216 C   0  0  0  0  0  0  0  0  0  0  0  0
   14.1006  -19.1192   12.9866 C   0  0  0  0  0  0  0  0  0  0  0  0
   14.7025  -19.1503   11.7461 C   0  0  0  0  0  0  0  0  0  0  0  0
   15.3633  -18.0825   11.1750 C   0  0  0  0  0  0  0  0  0  0  0  0
   18.0255  -18.3720    7.2371 C   0  0  0  0  0  0  0  0  0  0  0  0
   18.4334  -19.4380    6.7140 O   0  0  0  0  0  0  0  0  0  0  0  0
   20.1237  -11.0780    7.5714 O   0  0  0  0  0  0  0  0  0  0  0  0
   20.3020  -12.4134    7.2281 C   0  0  0  0  0  0  0  0  0  0  0  0
   21.3534  -13.1702    7.7139 C   0  0  0  0  0  0  0  0  0  0  0  0
   21.5256  -14.5013    7.3676 C   0  0  0  0  0  0  0  0  0  0  0  0
   20.6389  -15.1095    6.5181 C   0  0  0  0  0  0  0  0  0  0  0  0
   20.7353  -16.5121    6.0893 C   0  0  0  0  0  0  0  0  0  0  0  0
   20.3956  -17.5041    7.1745 C   0  0  2  0  0  0  0  0  0  0  0  0
   18.9811  -17.3473    7.4513 N   0  0  0  0  0  0  0  0  0  0  0  0
   21.2170  -17.3890    8.3791 C   0  0  0  0  0  0  0  0  0  0  0  0
   20.6302  -16.9812    9.5672 O   0  0  0  0  0  0  0  0  0  0  0  0
   19.5776  -14.3500    6.0261 C   0  0  0  0  0  0  0  0  0  0  0  0
   19.4054  -13.0294    6.3687 C   0  0  0  0  0  0  0  0  0  0  0  0
   22.4451  -17.6444    8.3934 O   0  0  0  0  0  0  0  0  0  0  0  0
  2  1  1  0
  3  2  2  0
  4  2  1  0
  5  4  1  0
  6  5  1  0
  6  7  1  6
  8  6  1  0
  8  9  2  0
 10  8  1  0
 11 10  1  0
 11 12  1  1
 12 13  1  0
 13 14  2  0
 13 21  1  0
 14 15  1  0
 15 16  1  0
 16 17  2  0
 17 18  1  0
 19 18  2  0
 20 19  1  0
 21 20  2  0
 21 16  1  0
 22 11  1  0
 23 22  2  0
 25 24  1  0
 25 35  2  0
 26 25  1  0
 27 26  2  0
 27 28  1  0
 28 34  2  0
 29 28  1  0
 30 29  1  6
 30 31  1  0
 31 22  1  0
 32 33  1  0
 32 30  1  0
 34 35  1  0
 36 32  2  0
M  END
$$$$
