QWY.pdb
     RDKit          3D

 36 38  0  0  1  0  0  0  0  0999 V2000
   29.2211  -18.4911  -16.6462 N   0  0  0  0  0  0  0  0  0  0  0  0
   29.5211  -19.3186  -17.7497 C   0  0  0  0  0  0  0  0  0  0  0  0
   30.4636  -19.0434  -18.5155 O   0  0  0  0  0  0  0  0  0  0  0  0
   28.7039  -20.5224  -17.9927 C   0  0  0  0  0  0  0  0  0  0  0  0
   27.7370  -20.7975  -16.8764 C   0  0  0  0  0  0  0  0  0  0  0  0
   28.4909  -21.3899  -15.7068 C   0  0  2  0  0  0  0  0  0  0  0  0
   29.0076  -22.6964  -16.0988 N   0  0  0  0  0  0  0  0  0  0  0  0
   27.6027  -21.6081  -14.5348 C   0  0  0  0  0  0  0  0  0  0  0  0
   26.3734  -21.9305  -14.6685 O   0  0  0  0  0  0  0  0  0  0  0  0
   28.0746  -21.4694  -13.1988 N   0  0  0  0  0  0  0  0  0  0  0  0
   27.2191  -21.3493  -12.0454 C   0  0  1  0  0  0  0  0  0  0  0  0
   27.9520  -21.0042  -10.8096 C   0  0  0  0  0  0  0  0  0  0  0  0
   27.1903  -20.6583   -9.6253 C   0  0  0  0  0  0  0  0  0  0  0  0
   25.8178  -20.4769   -9.4950 C   0  0  0  0  0  0  0  0  0  0  0  0
   25.5419  -20.1469   -8.2219 N   0  0  0  0  0  0  0  0  0  0  0  0
   26.6807  -20.1079   -7.5229 C   0  0  0  0  0  0  0  0  0  0  0  0
   26.9075  -19.8241   -6.1832 C   0  0  0  0  0  0  0  0  0  0  0  0
   28.1687  -19.8453   -5.6519 C   0  0  0  0  0  0  0  0  0  0  0  0
   29.2208  -20.1549   -6.4713 C   0  0  0  0  0  0  0  0  0  0  0  0
   28.9782  -20.4341   -7.8000 C   0  0  0  0  0  0  0  0  0  0  0  0
   27.7272  -20.4251   -8.3811 C   0  0  0  0  0  0  0  0  0  0  0  0
   26.0258  -20.5178  -12.3169 C   0  0  0  0  0  0  0  0  0  0  0  0
   26.1925  -19.3650  -12.7854 O   0  0  0  0  0  0  0  0  0  0  0  0
   19.0365  -17.8029  -16.4278 O   0  0  0  0  0  0  0  0  0  0  0  0
   20.1855  -18.3101  -15.8318 C   0  0  0  0  0  0  0  0  0  0  0  0
   21.2603  -17.5082  -15.4914 C   0  0  0  0  0  0  0  0  0  0  0  0
   22.4034  -18.0202  -14.8973 C   0  0  0  0  0  0  0  0  0  0  0  0
   22.4954  -19.3607  -14.6288 C   0  0  0  0  0  0  0  0  0  0  0  0
   23.6627  -19.9999  -14.0049 C   0  0  0  0  0  0  0  0  0  0  0  0
   23.5312  -20.1813  -12.5126 C   0  0  2  0  0  0  0  0  0  0  0  0
   24.6920  -20.9364  -12.0831 N   0  0  0  0  0  0  0  0  0  0  0  0
   22.2748  -20.7964  -12.0856 C   0  0  0  0  0  0  0  0  0  0  0  0
   21.2106  -19.9871  -11.7185 O   0  0  0  0  0  0  0  0  0  0  0  0
   21.4140  -20.1727  -14.9705 C   0  0  0  0  0  0  0  0  0  0  0  0
   20.2795  -19.6662  -15.5598 C   0  0  0  0  0  0  0  0  0  0  0  0
   22.1074  -22.0384  -12.0334 O   0  0  0  0  0  0  0  0  0  0  0  0
  2  1  1  0
  3  2  2  0
  4  2  1  0
  5  4  1  0
  6  5  1  0
  6  7  1  6
  8  6  1  0
  8  9  2  0
 10  8  1  0
 11 10  1  0
 11 12  1  1
 12 13  1  0
 13 14  2  0
 13 21  1  0
 14 15  1  0
 15 16  1  0
 16 17  2  0
 17 18  1  0
 19 18  2  0
 20 19  1  0
 21 20  2  0
 21 16  1  0
 22 11  1  0
 23 22  2  0
 25 24  1  0
 25 35  2  0
 26 25  1  0
 27 26  2  0
 27 28  1  0
 28 34  2  0
 29 28  1  0
 30 29  1  6
 30 31  1  0
 31 22  1  0
 32 33  1  0
 32 30  1  0
 34 35  1  0
 36 32  2  0
M  END
$$$$
