QWY.pdb
     RDKit          3D

 36 38  0  0  1  0  0  0  0  0999 V2000
   23.8958  -14.0329  -19.8292 N   0  0  0  0  0  0  0  0  0  0  0  0
   22.5558  -13.7930  -20.2022 C   0  0  0  0  0  0  0  0  0  0  0  0
   22.2841  -13.2458  -21.2872 O   0  0  0  0  0  0  0  0  0  0  0  0
   21.4691  -14.1981  -19.2907 C   0  0  0  0  0  0  0  0  0  0  0  0
   21.9827  -14.7685  -17.9993 C   0  0  0  0  0  0  0  0  0  0  0  0
   22.4013  -16.2038  -18.2271 C   0  0  2  0  0  0  0  0  0  0  0  0
   21.2533  -16.9500  -18.7298 N   0  0  0  0  0  0  0  0  0  0  0  0
   22.8251  -16.8595  -16.9619 C   0  0  0  0  0  0  0  0  0  0  0  0
   23.3122  -16.1944  -15.9855 O   0  0  0  0  0  0  0  0  0  0  0  0
   22.7108  -18.2655  -16.7699 N   0  0  0  0  0  0  0  0  0  0  0  0
   23.1620  -18.9620  -15.5918 C   0  0  1  0  0  0  0  0  0  0  0  0
   22.2307  -20.0198  -15.1476 C   0  0  0  0  0  0  0  0  0  0  0  0
   22.3735  -20.5508  -13.8059 C   0  0  0  0  0  0  0  0  0  0  0  0
   23.1264  -21.6376  -13.3752 C   0  0  0  0  0  0  0  0  0  0  0  0
   22.9555  -21.7873  -12.0508 N   0  0  0  0  0  0  0  0  0  0  0  0
   22.1224  -20.8407  -11.6069 C   0  0  0  0  0  0  0  0  0  0  0  0
   21.6512  -20.5816  -10.3273 C   0  0  0  0  0  0  0  0  0  0  0  0
   20.7968  -19.5419  -10.0774 C   0  0  0  0  0  0  0  0  0  0  0  0
   20.4066  -18.7476  -11.1219 C   0  0  0  0  0  0  0  0  0  0  0  0
   20.8839  -19.0189  -12.3872 C   0  0  0  0  0  0  0  0  0  0  0  0
   21.7447  -20.0537  -12.6887 C   0  0  0  0  0  0  0  0  0  0  0  0
   24.5777  -19.3792  -15.6953 C   0  0  0  0  0  0  0  0  0  0  0  0
   24.9426  -20.0137  -16.7154 O   0  0  0  0  0  0  0  0  0  0  0  0
   25.4928  -21.1788   -8.7723 O   0  0  0  0  0  0  0  0  0  0  0  0
   26.0001  -20.6343   -9.9466 C   0  0  0  0  0  0  0  0  0  0  0  0
   25.5663  -19.4205  -10.4494 C   0  0  0  0  0  0  0  0  0  0  0  0
   26.0763  -18.8830  -11.6210 C   0  0  0  0  0  0  0  0  0  0  0  0
   27.0419  -19.5570  -12.3216 C   0  0  0  0  0  0  0  0  0  0  0  0
   27.6434  -19.0739  -13.5727 C   0  0  0  0  0  0  0  0  0  0  0  0
   26.9369  -19.5601  -14.8143 C   0  0  2  0  0  0  0  0  0  0  0  0
   25.5627  -19.1093  -14.7124 N   0  0  0  0  0  0  0  0  0  0  0  0
   27.0370  -21.0012  -15.0431 C   0  0  0  0  0  0  0  0  0  0  0  0
   28.2376  -21.5396  -15.4801 O   0  0  0  0  0  0  0  0  0  0  0  0
   27.4819  -20.7811  -11.8183 C   0  0  0  0  0  0  0  0  0  0  0  0
   26.9770  -21.3156  -10.6561 C   0  0  0  0  0  0  0  0  0  0  0  0
   26.0773  -21.7882  -14.8616 O   0  0  0  0  0  0  0  0  0  0  0  0
  2  1  1  0
  3  2  2  0
  4  2  1  0
  5  4  1  0
  6  5  1  0
  6  7  1  1
  8  6  1  0
  8  9  2  0
 10  8  1  0
 11 10  1  0
 11 12  1  6
 12 13  1  0
 13 14  2  0
 13 21  1  0
 14 15  1  0
 15 16  1  0
 16 17  2  0
 17 18  1  0
 19 18  2  0
 20 19  1  0
 21 20  2  0
 21 16  1  0
 22 11  1  0
 23 22  2  0
 25 24  1  0
 25 35  2  0
 26 25  1  0
 27 26  2  0
 27 28  1  0
 28 34  2  0
 29 28  1  0
 30 29  1  1
 30 31  1  0
 31 22  1  0
 32 33  1  0
 32 30  1  0
 34 35  1  0
 36 32  2  0
M  END
$$$$
