NMY.pdb
     RDKit          3D

 29 29  0  0  1  0  0  0  0  0999 V2000
    9.8398  -17.3870   16.8592 N   0  0  0  0  0  0  0  0  0  0  0  0
    8.7550  -17.1524   17.7301 C   0  0  0  0  0  0  0  0  0  0  0  0
    7.7166  -17.8484   17.5607 O   0  0  0  0  0  0  0  0  0  0  0  0
    8.8607  -16.1188   18.7967 C   0  0  0  0  0  0  0  0  0  0  0  0
    9.0039  -16.8316   20.1011 C   0  0  2  0  0  0  0  0  0  0  0  0
    7.8320  -17.5967   20.3944 N   0  0  0  0  0  0  0  0  0  0  0  0
    9.3362  -15.9120   21.2331 C   0  0  0  0  0  0  0  0  0  0  0  0
   10.3820  -15.2538   21.1320 O   0  0  0  0  0  0  0  0  0  0  0  0
    6.0109  -11.1983   25.9307 C   0  0  0  0  0  0  0  0  0  0  0  0
    6.6535  -12.8722   26.0412 S   0  0  0  0  0  0  0  0  0  0  0  0
    6.9536  -13.4618   24.3286 C   0  0  0  0  0  0  0  0  0  0  0  0
    7.5331  -14.8220   24.4429 C   0  0  0  0  0  0  0  0  0  0  0  0
    8.7454  -15.0769   23.5615 C   0  0  2  0  0  0  0  0  0  0  0  0
    8.4932  -15.8004   22.3672 N   0  0  0  0  0  0  0  0  0  0  0  0
    9.8521  -15.5437   24.3964 C   0  0  0  0  0  0  0  0  0  0  0  0
   10.3165  -14.8543   25.3678 O   0  0  0  0  0  0  0  0  0  0  0  0
   10.9434  -14.3111   30.7360 O   0  0  0  0  0  0  0  0  0  0  0  0
   10.7728  -15.1413   29.6318 C   0  0  0  0  0  0  0  0  0  0  0  0
   10.1673  -14.6603   28.5017 C   0  0  0  0  0  0  0  0  0  0  0  0
   10.0075  -15.4971   27.4193 C   0  0  0  0  0  0  0  0  0  0  0  0
   10.4605  -16.7911   27.5049 C   0  0  0  0  0  0  0  0  0  0  0  0
   10.2997  -17.7084   26.3770 C   0  0  0  0  0  0  0  0  0  0  0  0
   11.3045  -17.4177   25.2897 C   0  0  2  0  0  0  0  0  0  0  0  0
   10.5124  -16.7989   24.2088 N   0  0  0  0  0  0  0  0  0  0  0  0
   11.9231  -18.6740   24.8339 C   0  0  0  0  0  0  0  0  0  0  0  0
   11.4139  -19.3790   23.9638 O   0  0  0  0  0  0  0  0  0  0  0  0
   11.0757  -17.2739   28.6573 C   0  0  0  0  0  0  0  0  0  0  0  0
   11.2321  -16.4430   29.7261 C   0  0  0  0  0  0  0  0  0  0  0  0
   13.1220  -19.0648   25.4143 O   0  0  0  0  0  0  0  0  0  0  0  0
  2  1  1  0
  3  2  2  0
  4  5  1  0
  4  2  1  0
  5  6  1  1
  7  5  1  0
  7  8  2  0
  9 10  1  0
 11 10  1  0
 12 11  1  0
 13 12  1  1
 13 14  1  0
 14  7  1  0
 15 24  1  0
 15 13  1  0
 16 15  2  0
 18 17  1  0
 19 18  2  0
 20 19  1  0
 21 20  2  0
 21 27  1  0
 22 21  1  0
 23 24  1  0
 23 22  1  1
 25 23  1  0
 26 25  2  0
 27 28  2  0
 28 18  1  0
 29 25  1  0
M  END
$$$$
