NMY.pdb
     RDKit          3D

 29 29  0  0  1  0  0  0  0  0999 V2000
    5.7057  -21.9751   23.4257 N   0  0  0  0  0  0  0  0  0  0  0  0
    4.5711  -21.2053   23.0934 C   0  0  0  0  0  0  0  0  0  0  0  0
    3.5384  -21.8278   22.7228 O   0  0  0  0  0  0  0  0  0  0  0  0
    4.6205  -19.7200   23.1860 C   0  0  0  0  0  0  0  0  0  0  0  0
    6.0233  -19.3370   23.5259 C   0  0  2  0  0  0  0  0  0  0  0  0
    6.3976  -19.8575   24.8040 N   0  0  0  0  0  0  0  0  0  0  0  0
    6.2543  -17.8604   23.4642 C   0  0  0  0  0  0  0  0  0  0  0  0
    6.0568  -17.3073   22.3723 O   0  0  0  0  0  0  0  0  0  0  0  0
    6.9205  -11.3300   27.8811 C   0  0  0  0  0  0  0  0  0  0  0  0
    6.7695  -13.1192   27.8268 S   0  0  0  0  0  0  0  0  0  0  0  0
    7.0002  -13.6394   26.0813 C   0  0  0  0  0  0  0  0  0  0  0  0
    6.8120  -15.1099   26.0477 C   0  0  0  0  0  0  0  0  0  0  0  0
    6.9779  -15.7449   24.6763 C   0  0  2  0  0  0  0  0  0  0  0  0
    6.6793  -17.1301   24.6024 N   0  0  0  0  0  0  0  0  0  0  0  0
    8.2510  -15.3112   24.1010 C   0  0  0  0  0  0  0  0  0  0  0  0
    8.6682  -14.1059   24.1891 O   0  0  0  0  0  0  0  0  0  0  0  0
    7.1539  -14.0370   17.5696 O   0  0  0  0  0  0  0  0  0  0  0  0
    7.8753  -14.1147   18.7576 C   0  0  0  0  0  0  0  0  0  0  0  0
    8.5225  -15.2747   19.0899 C   0  0  0  0  0  0  0  0  0  0  0  0
    9.2311  -15.3322   20.2698 C   0  0  0  0  0  0  0  0  0  0  0  0
    9.2679  -14.2233   21.0796 C   0  0  0  0  0  0  0  0  0  0  0  0
   10.0043  -14.2528   22.3431 C   0  0  0  0  0  0  0  0  0  0  0  0
   10.3562  -15.6663   22.7366 C   0  0  2  0  0  0  0  0  0  0  0  0
    9.1394  -16.1818   23.3941 N   0  0  0  0  0  0  0  0  0  0  0  0
   11.4935  -15.6547   23.6721 C   0  0  0  0  0  0  0  0  0  0  0  0
   12.6352  -15.3681   23.3145 O   0  0  0  0  0  0  0  0  0  0  0  0
    8.6074  -13.0465   20.7356 C   0  0  0  0  0  0  0  0  0  0  0  0
    7.9075  -12.9933   19.5675 C   0  0  0  0  0  0  0  0  0  0  0  0
   11.2555  -15.9804   25.0002 O   0  0  0  0  0  0  0  0  0  0  0  0
  2  1  1  0
  3  2  2  0
  4  5  1  0
  4  2  1  0
  5  6  1  1
  7  5  1  0
  7  8  2  0
  9 10  1  0
 11 10  1  0
 12 11  1  0
 13 12  1  1
 13 14  1  0
 14  7  1  0
 15 24  1  0
 15 13  1  0
 16 15  2  0
 18 17  1  0
 19 18  2  0
 20 19  1  0
 21 20  2  0
 21 27  1  0
 22 21  1  0
 23 24  1  0
 23 22  1  1
 25 23  1  0
 26 25  2  0
 27 28  2  0
 28 18  1  0
 29 25  1  0
M  END
$$$$
