NMY.pdb
     RDKit          3D

 29 29  0  0  1  0  0  0  0  0999 V2000
    9.6514  -16.0305   16.4820 N   0  0  0  0  0  0  0  0  0  0  0  0
    8.5333  -15.7073   17.2794 C   0  0  0  0  0  0  0  0  0  0  0  0
    7.3950  -16.0150   16.8311 O   0  0  0  0  0  0  0  0  0  0  0  0
    8.7203  -15.0305   18.5924 C   0  0  0  0  0  0  0  0  0  0  0  0
    8.6509  -16.0794   19.6530 C   0  0  2  0  0  0  0  0  0  0  0  0
    7.3357  -16.6346   19.7345 N   0  0  0  0  0  0  0  0  0  0  0  0
    9.1038  -15.5854   20.9904 C   0  0  0  0  0  0  0  0  0  0  0  0
   10.2580  -15.1384   21.0612 O   0  0  0  0  0  0  0  0  0  0  0  0
    7.3268  -11.7003   26.1987 C   0  0  0  0  0  0  0  0  0  0  0  0
    6.3476  -13.1716   25.8770 S   0  0  0  0  0  0  0  0  0  0  0  0
    6.8188  -13.7952   24.2158 C   0  0  0  0  0  0  0  0  0  0  0  0
    7.4583  -15.1169   24.4238 C   0  0  0  0  0  0  0  0  0  0  0  0
    8.6096  -15.4260   23.4800 C   0  0  2  0  0  0  0  0  0  0  0  0
    8.2511  -15.6277   22.1220 N   0  0  0  0  0  0  0  0  0  0  0  0
    9.4711  -16.4363   24.0938 C   0  0  0  0  0  0  0  0  0  0  0  0
    9.2829  -17.6900   23.9285 O   0  0  0  0  0  0  0  0  0  0  0  0
   10.2613  -14.3164   30.9327 O   0  0  0  0  0  0  0  0  0  0  0  0
   10.8231  -14.8709   29.7861 C   0  0  0  0  0  0  0  0  0  0  0  0
   11.4257  -16.0990   29.8452 C   0  0  0  0  0  0  0  0  0  0  0  0
   11.9761  -16.6310   28.6999 C   0  0  0  0  0  0  0  0  0  0  0  0
   11.9045  -15.9134   27.5308 C   0  0  0  0  0  0  0  0  0  0  0  0
   12.4857  -16.4453   26.2984 C   0  0  0  0  0  0  0  0  0  0  0  0
   11.4534  -17.1845   25.4831 C   0  0  2  0  0  0  0  0  0  0  0  0
   10.5915  -16.1233   24.9266 N   0  0  0  0  0  0  0  0  0  0  0  0
   10.6807  -18.0848   26.3554 C   0  0  0  0  0  0  0  0  0  0  0  0
    9.5115  -17.8574   26.6632 O   0  0  0  0  0  0  0  0  0  0  0  0
   11.2901  -14.6648   27.4777 C   0  0  0  0  0  0  0  0  0  0  0  0
   10.7466  -14.1418   28.6127 C   0  0  0  0  0  0  0  0  0  0  0  0
   11.3048  -19.2259   26.8402 O   0  0  0  0  0  0  0  0  0  0  0  0
  2  1  1  0
  3  2  2  0
  4  5  1  0
  4  2  1  0
  5  6  1  1
  7  5  1  0
  7  8  2  0
  9 10  1  0
 11 10  1  0
 12 11  1  0
 13 12  1  1
 13 14  1  0
 14  7  1  0
 15 24  1  0
 15 13  1  0
 16 15  2  0
 18 17  1  0
 19 18  2  0
 20 19  1  0
 21 20  2  0
 21 27  1  0
 22 21  1  0
 23 24  1  0
 23 22  1  1
 25 23  1  0
 26 25  2  0
 27 28  2  0
 28 18  1  0
 29 25  1  0
M  END
$$$$
