NMY.pdb
     RDKit          3D

 29 29  0  0  1  0  0  0  0  0999 V2000
    8.1680  -19.7388   17.1501 N   0  0  0  0  0  0  0  0  0  0  0  0
    9.1727  -19.5182   18.1157 C   0  0  0  0  0  0  0  0  0  0  0  0
    9.8910  -20.5039   18.4382 O   0  0  0  0  0  0  0  0  0  0  0  0
    9.3543  -18.1661   18.7121 C   0  0  0  0  0  0  0  0  0  0  0  0
    9.4882  -18.3404   20.1892 C   0  0  2  0  0  0  0  0  0  0  0  0
    8.3343  -18.9872   20.7321 N   0  0  0  0  0  0  0  0  0  0  0  0
    9.7638  -17.0557   20.9040 C   0  0  0  0  0  0  0  0  0  0  0  0
   10.9295  -16.6348   20.8709 O   0  0  0  0  0  0  0  0  0  0  0  0
    7.0082  -12.1806   18.5889 C   0  0  0  0  0  0  0  0  0  0  0  0
    7.8140  -12.4880   20.1648 S   0  0  0  0  0  0  0  0  0  0  0  0
    7.1129  -14.0406   20.8491 C   0  0  0  0  0  0  0  0  0  0  0  0
    7.6738  -14.1952   22.2131 C   0  0  0  0  0  0  0  0  0  0  0  0
    8.8593  -15.1418   22.3137 C   0  0  2  0  0  0  0  0  0  0  0  0
    8.7383  -16.3543   21.5866 N   0  0  0  0  0  0  0  0  0  0  0  0
    9.2668  -15.2485   23.7145 C   0  0  0  0  0  0  0  0  0  0  0  0
    9.6249  -14.2330   24.4038 O   0  0  0  0  0  0  0  0  0  0  0  0
    6.4945  -11.2634   27.0853 O   0  0  0  0  0  0  0  0  0  0  0  0
    6.9935  -12.5585   26.9781 C   0  0  0  0  0  0  0  0  0  0  0  0
    8.3057  -12.8125   27.2757 C   0  0  0  0  0  0  0  0  0  0  0  0
    8.7810  -14.1005   27.1635 C   0  0  0  0  0  0  0  0  0  0  0  0
    7.9241  -15.0937   26.7558 C   0  0  0  0  0  0  0  0  0  0  0  0
    8.3980  -16.4707   26.6183 C   0  0  0  0  0  0  0  0  0  0  0  0
    9.7006  -16.5262   25.8590 C   0  0  2  0  0  0  0  0  0  0  0  0
    9.3035  -16.4821   24.4380 N   0  0  0  0  0  0  0  0  0  0  0  0
   10.4048  -17.7819   26.1685 C   0  0  0  0  0  0  0  0  0  0  0  0
   10.8169  -18.0427   27.2980 O   0  0  0  0  0  0  0  0  0  0  0  0
    6.5904  -14.8285   26.4547 C   0  0  0  0  0  0  0  0  0  0  0  0
    6.1239  -13.5531   26.5671 C   0  0  0  0  0  0  0  0  0  0  0  0
   10.6041  -18.6941   25.1414 O   0  0  0  0  0  0  0  0  0  0  0  0
  2  1  1  0
  3  2  2  0
  4  5  1  0
  4  2  1  0
  5  6  1  1
  7  5  1  0
  7  8  2  0
  9 10  1  0
 11 10  1  0
 12 11  1  0
 13 12  1  1
 13 14  1  0
 14  7  1  0
 15 24  1  0
 15 13  1  0
 16 15  2  0
 18 17  1  0
 19 18  2  0
 20 19  1  0
 21 20  2  0
 21 27  1  0
 22 21  1  0
 23 24  1  0
 23 22  1  1
 25 23  1  0
 26 25  2  0
 27 28  2  0
 28 18  1  0
 29 25  1  0
M  END
$$$$
