NMY.pdb
     RDKit          3D

 29 29  0  0  1  0  0  0  0  0999 V2000
    9.6517  -18.7714   16.7166 N   0  0  0  0  0  0  0  0  0  0  0  0
    8.5931  -18.2936   17.5175 C   0  0  0  0  0  0  0  0  0  0  0  0
    7.4966  -18.9145   17.4569 O   0  0  0  0  0  0  0  0  0  0  0  0
    8.7916  -17.1027   18.3889 C   0  0  0  0  0  0  0  0  0  0  0  0
    8.7665  -17.5732   19.8060 C   0  0  2  0  0  0  0  0  0  0  0  0
    7.4727  -18.0731   20.1535 N   0  0  0  0  0  0  0  0  0  0  0  0
    9.2095  -16.5236   20.7754 C   0  0  0  0  0  0  0  0  0  0  0  0
   10.4259  -16.2911   20.8327 O   0  0  0  0  0  0  0  0  0  0  0  0
    6.4456  -11.8077   26.5839 C   0  0  0  0  0  0  0  0  0  0  0  0
    6.1361  -13.1411   25.4205 S   0  0  0  0  0  0  0  0  0  0  0  0
    7.6655  -13.3773   24.4327 C   0  0  0  0  0  0  0  0  0  0  0  0
    7.3916  -14.4830   23.4833 C   0  0  0  0  0  0  0  0  0  0  0  0
    8.5624  -14.8651   22.5917 C   0  0  2  0  0  0  0  0  0  0  0  0
    8.2797  -15.8288   21.5892 N   0  0  0  0  0  0  0  0  0  0  0  0
    9.7391  -15.1050   23.4266 C   0  0  0  0  0  0  0  0  0  0  0  0
   10.6343  -14.2134   23.6226 O   0  0  0  0  0  0  0  0  0  0  0  0
   11.6507  -15.3989   31.5293 O   0  0  0  0  0  0  0  0  0  0  0  0
   11.1372  -15.5320   30.2423 C   0  0  0  0  0  0  0  0  0  0  0  0
   10.7497  -16.7630   29.7846 C   0  0  0  0  0  0  0  0  0  0  0  0
   10.2440  -16.8745   28.5082 C   0  0  0  0  0  0  0  0  0  0  0  0
   10.1431  -15.7466   27.7306 C   0  0  0  0  0  0  0  0  0  0  0  0
    9.6181  -15.8308   26.3680 C   0  0  0  0  0  0  0  0  0  0  0  0
   10.6537  -16.3783   25.4171 C   0  0  2  0  0  0  0  0  0  0  0  0
    9.9983  -16.3431   24.0950 N   0  0  0  0  0  0  0  0  0  0  0  0
   10.9976  -17.7592   25.7959 C   0  0  0  0  0  0  0  0  0  0  0  0
   10.2519  -18.7094   25.5623 O   0  0  0  0  0  0  0  0  0  0  0  0
   10.5390  -14.4975   28.2024 C   0  0  0  0  0  0  0  0  0  0  0  0
   11.0387  -14.3911   29.4658 C   0  0  0  0  0  0  0  0  0  0  0  0
   12.2076  -17.9827   26.4383 O   0  0  0  0  0  0  0  0  0  0  0  0
  2  1  1  0
  3  2  2  0
  4  5  1  0
  4  2  1  0
  5  6  1  1
  7  5  1  0
  7  8  2  0
  9 10  1  0
 11 10  1  0
 12 11  1  0
 13 12  1  1
 13 14  1  0
 14  7  1  0
 15 24  1  0
 15 13  1  0
 16 15  2  0
 18 17  1  0
 19 18  2  0
 20 19  1  0
 21 20  2  0
 21 27  1  0
 22 21  1  0
 23 24  1  0
 23 22  1  1
 25 23  1  0
 26 25  2  0
 27 28  2  0
 28 18  1  0
 29 25  1  0
M  END
$$$$
