NMY.pdb
     RDKit          3D

 29 29  0  0  1  0  0  0  0  0999 V2000
    6.9468  -13.1515   18.5789 N   0  0  0  0  0  0  0  0  0  0  0  0
    8.0186  -13.9720   18.9893 C   0  0  0  0  0  0  0  0  0  0  0  0
    8.3577  -14.9098   18.2166 O   0  0  0  0  0  0  0  0  0  0  0  0
    8.7026  -13.7171   20.2871 C   0  0  0  0  0  0  0  0  0  0  0  0
    8.5372  -14.9386   21.1301 C   0  0  2  0  0  0  0  0  0  0  0  0
    7.1549  -15.1905   21.3956 N   0  0  0  0  0  0  0  0  0  0  0  0
    9.3210  -14.8776   22.4028 C   0  0  0  0  0  0  0  0  0  0  0  0
   10.5505  -14.7567   22.2985 O   0  0  0  0  0  0  0  0  0  0  0  0
    5.7238  -11.2674   26.6159 C   0  0  0  0  0  0  0  0  0  0  0  0
    7.2888  -12.0772   26.9653 S   0  0  0  0  0  0  0  0  0  0  0  0
    7.5975  -13.2853   25.6178 C   0  0  0  0  0  0  0  0  0  0  0  0
    8.8737  -13.9671   25.9426 C   0  0  0  0  0  0  0  0  0  0  0  0
    9.3054  -15.0269   24.9416 C   0  0  2  0  0  0  0  0  0  0  0  0
    8.6852  -14.9547   23.6674 N   0  0  0  0  0  0  0  0  0  0  0  0
    9.3106  -16.3322   25.6016 C   0  0  0  0  0  0  0  0  0  0  0  0
    8.2431  -17.0105   25.7886 O   0  0  0  0  0  0  0  0  0  0  0  0
   12.3655  -19.0947   20.7918 O   0  0  0  0  0  0  0  0  0  0  0  0
   12.1955  -19.0788   22.1732 C   0  0  0  0  0  0  0  0  0  0  0  0
   11.2831  -19.9146   22.7596 C   0  0  0  0  0  0  0  0  0  0  0  0
   11.1292  -19.8842   24.1281 C   0  0  0  0  0  0  0  0  0  0  0  0
   11.8962  -19.0154   24.8657 C   0  0  0  0  0  0  0  0  0  0  0  0
   11.7524  -18.9518   26.3199 C   0  0  0  0  0  0  0  0  0  0  0  0
   10.4455  -18.3072   26.7113 C   0  0  2  0  0  0  0  0  0  0  0  0
   10.4942  -16.9669   26.0949 N   0  0  0  0  0  0  0  0  0  0  0  0
   10.3585  -18.2075   28.1780 C   0  0  0  0  0  0  0  0  0  0  0  0
   10.4201  -17.1296   28.7679 O   0  0  0  0  0  0  0  0  0  0  0  0
   12.8225  -18.1680   24.2630 C   0  0  0  0  0  0  0  0  0  0  0  0
   12.9720  -18.2010   22.9088 C   0  0  0  0  0  0  0  0  0  0  0  0
   10.2018  -19.3775   28.9082 O   0  0  0  0  0  0  0  0  0  0  0  0
  2  1  1  0
  3  2  2  0
  4  5  1  0
  4  2  1  0
  5  6  1  1
  7  5  1  0
  7  8  2  0
  9 10  1  0
 11 10  1  0
 12 11  1  0
 13 12  1  1
 13 14  1  0
 14  7  1  0
 15 24  1  0
 15 13  1  0
 16 15  2  0
 18 17  1  0
 19 18  2  0
 20 19  1  0
 21 20  2  0
 21 27  1  0
 22 21  1  0
 23 24  1  0
 23 22  1  1
 25 23  1  0
 26 25  2  0
 27 28  2  0
 28 18  1  0
 29 25  1  0
M  END
$$$$
