NMY.pdb
     RDKit          3D

 29 29  0  0  1  0  0  0  0  0999 V2000
    9.1991  -18.4745   15.2661 N   0  0  0  0  0  0  0  0  0  0  0  0
   10.2114  -18.2045   16.2109 C   0  0  0  0  0  0  0  0  0  0  0  0
   11.3129  -18.8019   16.0647 O   0  0  0  0  0  0  0  0  0  0  0  0
    9.9608  -17.2486   17.3246 C   0  0  0  0  0  0  0  0  0  0  0  0
   10.5244  -17.8508   18.5696 C   0  0  2  0  0  0  0  0  0  0  0  0
    9.8448  -19.0646   18.9007 N   0  0  0  0  0  0  0  0  0  0  0  0
   10.5182  -16.9045   19.7280 C   0  0  0  0  0  0  0  0  0  0  0  0
   11.6197  -16.4939   20.1221 O   0  0  0  0  0  0  0  0  0  0  0  0
    6.4140  -11.9673   21.6742 C   0  0  0  0  0  0  0  0  0  0  0  0
    6.3500  -12.8087   20.0882 S   0  0  0  0  0  0  0  0  0  0  0  0
    7.8413  -13.8728   19.9680 C   0  0  0  0  0  0  0  0  0  0  0  0
    7.9229  -14.6349   21.2375 C   0  0  0  0  0  0  0  0  0  0  0  0
    9.1451  -15.5297   21.3689 C   0  0  2  0  0  0  0  0  0  0  0  0
    9.3082  -16.4979   20.3444 N   0  0  0  0  0  0  0  0  0  0  0  0
    9.2424  -16.0043   22.7490 C   0  0  0  0  0  0  0  0  0  0  0  0
    9.0695  -17.2306   23.0664 O   0  0  0  0  0  0  0  0  0  0  0  0
   10.5560  -15.6937   31.4516 O   0  0  0  0  0  0  0  0  0  0  0  0
   10.2801  -15.4119   30.1166 C   0  0  0  0  0  0  0  0  0  0  0  0
    9.5975  -16.3206   29.3528 C   0  0  0  0  0  0  0  0  0  0  0  0
    9.3341  -16.0236   28.0338 C   0  0  0  0  0  0  0  0  0  0  0  0
    9.7641  -14.8234   27.5223 C   0  0  0  0  0  0  0  0  0  0  0  0
    9.5082  -14.4799   26.1238 C   0  0  0  0  0  0  0  0  0  0  0  0
    9.6336  -15.6909   25.2327 C   0  0  2  0  0  0  0  0  0  0  0  0
    9.5360  -15.1537   23.8613 N   0  0  0  0  0  0  0  0  0  0  0  0
    8.5324  -16.6289   25.5085 C   0  0  0  0  0  0  0  0  0  0  0  0
    7.3789  -16.4149   25.1381 O   0  0  0  0  0  0  0  0  0  0  0  0
   10.4578  -13.9035   28.3048 C   0  0  0  0  0  0  0  0  0  0  0  0
   10.7165  -14.2009   29.6093 C   0  0  0  0  0  0  0  0  0  0  0  0
    8.8192  -17.7908   26.2117 O   0  0  0  0  0  0  0  0  0  0  0  0
  2  1  1  0
  3  2  2  0
  4  5  1  0
  4  2  1  0
  5  6  1  1
  7  5  1  0
  7  8  2  0
  9 10  1  0
 11 10  1  0
 12 11  1  0
 13 12  1  1
 13 14  1  0
 14  7  1  0
 15 24  1  0
 15 13  1  0
 16 15  2  0
 18 17  1  0
 19 18  2  0
 20 19  1  0
 21 20  2  0
 21 27  1  0
 22 21  1  0
 23 24  1  0
 23 22  1  1
 25 23  1  0
 26 25  2  0
 27 28  2  0
 28 18  1  0
 29 25  1  0
M  END
$$$$
