NMY.pdb
     RDKit          3D

 29 29  0  0  1  0  0  0  0  0999 V2000
   12.6144  -18.1739   16.1784 N   0  0  0  0  0  0  0  0  0  0  0  0
   12.1492  -18.4363   17.4843 C   0  0  0  0  0  0  0  0  0  0  0  0
   12.3172  -19.6027   17.9343 O   0  0  0  0  0  0  0  0  0  0  0  0
   11.4908  -17.3602   18.2751 C   0  0  0  0  0  0  0  0  0  0  0  0
   11.0801  -17.9510   19.5837 C   0  0  2  0  0  0  0  0  0  0  0  0
    9.9748  -18.8423   19.4153 N   0  0  0  0  0  0  0  0  0  0  0  0
   10.7758  -16.9155   20.6195 C   0  0  0  0  0  0  0  0  0  0  0  0
   11.7332  -16.2576   21.0524 O   0  0  0  0  0  0  0  0  0  0  0  0
    7.2273  -12.0147   19.1149 C   0  0  0  0  0  0  0  0  0  0  0  0
    7.4190  -12.7459   20.7446 S   0  0  0  0  0  0  0  0  0  0  0  0
    7.4784  -14.5680   20.5280 C   0  0  0  0  0  0  0  0  0  0  0  0
    7.6769  -15.1501   21.8773 C   0  0  0  0  0  0  0  0  0  0  0  0
    9.0317  -15.8034   22.0992 C   0  0  2  0  0  0  0  0  0  0  0  0
    9.4536  -16.6990   21.0826 N   0  0  0  0  0  0  0  0  0  0  0  0
    9.1089  -16.2845   23.4783 C   0  0  0  0  0  0  0  0  0  0  0  0
    8.5573  -17.3741   23.8565 O   0  0  0  0  0  0  0  0  0  0  0  0
    6.3330  -10.7320   26.6286 O   0  0  0  0  0  0  0  0  0  0  0  0
    6.8084  -12.0376   26.5446 C   0  0  0  0  0  0  0  0  0  0  0  0
    7.6889  -12.5064   27.4826 C   0  0  0  0  0  0  0  0  0  0  0  0
    8.1481  -13.8013   27.3825 C   0  0  0  0  0  0  0  0  0  0  0  0
    7.7092  -14.5853   26.3435 C   0  0  0  0  0  0  0  0  0  0  0  0
    8.1830  -15.9620   26.2029 C   0  0  0  0  0  0  0  0  0  0  0  0
    9.6671  -16.0035   25.9338 C   0  0  2  0  0  0  0  0  0  0  0  0
    9.7995  -15.5918   24.5225 N   0  0  0  0  0  0  0  0  0  0  0  0
   10.1712  -17.3730   26.1306 C   0  0  0  0  0  0  0  0  0  0  0  0
    9.7758  -18.3220   25.4548 O   0  0  0  0  0  0  0  0  0  0  0  0
    6.8134  -14.1023   25.3928 C   0  0  0  0  0  0  0  0  0  0  0  0
    6.3613  -12.8208   25.4953 C   0  0  0  0  0  0  0  0  0  0  0  0
   11.1252  -17.5870   27.1159 O   0  0  0  0  0  0  0  0  0  0  0  0
  2  1  1  0
  3  2  2  0
  4  5  1  0
  4  2  1  0
  5  6  1  6
  7  5  1  0
  7  8  2  0
  9 10  1  0
 11 10  1  0
 12 11  1  0
 13 12  1  6
 13 14  1  0
 14  7  1  0
 15 24  1  0
 15 13  1  0
 16 15  2  0
 18 17  1  0
 19 18  2  0
 20 19  1  0
 21 20  2  0
 21 27  1  0
 22 21  1  0
 23 24  1  0
 23 22  1  6
 25 23  1  0
 26 25  2  0
 27 28  2  0
 28 18  1  0
 29 25  1  0
M  END
$$$$
