NMY.pdb
     RDKit          3D

 29 29  0  0  1  0  0  0  0  0999 V2000
    8.8330  -20.9477   17.5252 N   0  0  0  0  0  0  0  0  0  0  0  0
    9.8158  -20.5208   18.4429 C   0  0  0  0  0  0  0  0  0  0  0  0
   10.6132  -21.3934   18.8836 O   0  0  0  0  0  0  0  0  0  0  0  0
    9.8847  -19.0920   18.8559 C   0  0  0  0  0  0  0  0  0  0  0  0
    9.8264  -19.0517   20.3476 C   0  0  2  0  0  0  0  0  0  0  0  0
    8.5756  -19.5568   20.8219 N   0  0  0  0  0  0  0  0  0  0  0  0
   10.0955  -17.6894   20.9037 C   0  0  0  0  0  0  0  0  0  0  0  0
   11.2470  -17.2485   20.7738 O   0  0  0  0  0  0  0  0  0  0  0  0
    7.3213  -11.9932   19.8442 C   0  0  0  0  0  0  0  0  0  0  0  0
    6.9366  -12.2665   21.5776 S   0  0  0  0  0  0  0  0  0  0  0  0
    8.2841  -13.2924   22.2863 C   0  0  0  0  0  0  0  0  0  0  0  0
    8.0944  -14.6657   21.7598 C   0  0  0  0  0  0  0  0  0  0  0  0
    9.1952  -15.6486   22.1254 C   0  0  2  0  0  0  0  0  0  0  0  0
    9.0798  -16.9399   21.5486 N   0  0  0  0  0  0  0  0  0  0  0  0
    9.4295  -15.5872   23.5680 C   0  0  0  0  0  0  0  0  0  0  0  0
    9.9695  -14.5752   24.1326 O   0  0  0  0  0  0  0  0  0  0  0  0
    6.6045  -11.0936   26.3746 O   0  0  0  0  0  0  0  0  0  0  0  0
    7.0452  -12.4110   26.4629 C   0  0  0  0  0  0  0  0  0  0  0  0
    8.2902  -12.6835   26.9636 C   0  0  0  0  0  0  0  0  0  0  0  0
    8.7085  -13.9935   27.0430 C   0  0  0  0  0  0  0  0  0  0  0  0
    7.8639  -14.9896   26.6169 C   0  0  0  0  0  0  0  0  0  0  0  0
    8.2796  -16.3905   26.6798 C   0  0  0  0  0  0  0  0  0  0  0  0
    9.5362  -16.6233   25.8777 C   0  0  2  0  0  0  0  0  0  0  0  0
    9.0818  -16.6389   24.4734 N   0  0  0  0  0  0  0  0  0  0  0  0
   10.1331  -17.9168   26.2507 C   0  0  0  0  0  0  0  0  0  0  0  0
   10.2358  -18.8473   25.4525 O   0  0  0  0  0  0  0  0  0  0  0  0
    6.5987  -14.7055   26.1087 C   0  0  0  0  0  0  0  0  0  0  0  0
    6.1884  -13.4083   26.0319 C   0  0  0  0  0  0  0  0  0  0  0  0
   10.5918  -18.0786   27.5507 O   0  0  0  0  0  0  0  0  0  0  0  0
  2  1  1  0
  3  2  2  0
  4  5  1  0
  4  2  1  0
  5  6  1  6
  7  5  1  0
  7  8  2  0
  9 10  1  0
 11 10  1  0
 12 11  1  0
 13 12  1  1
 13 14  1  0
 14  7  1  0
 15 24  1  0
 15 13  1  0
 16 15  2  0
 18 17  1  0
 19 18  2  0
 20 19  1  0
 21 20  2  0
 21 27  1  0
 22 21  1  0
 23 24  1  0
 23 22  1  1
 25 23  1  0
 26 25  2  0
 27 28  2  0
 28 18  1  0
 29 25  1  0
M  END
$$$$
