NMY.pdb
     RDKit          3D

 29 29  0  0  1  0  0  0  0  0999 V2000
   10.4783  -17.5315   17.2861 N   0  0  0  0  0  0  0  0  0  0  0  0
    9.4122  -16.9376   17.9940 C   0  0  0  0  0  0  0  0  0  0  0  0
    8.2445  -17.1518   17.5675 O   0  0  0  0  0  0  0  0  0  0  0  0
    9.6851  -16.0971   19.1924 C   0  0  0  0  0  0  0  0  0  0  0  0
    9.0233  -16.7510   20.3605 C   0  0  2  0  0  0  0  0  0  0  0  0
    7.6113  -16.8482   20.1569 N   0  0  0  0  0  0  0  0  0  0  0  0
    9.3284  -16.0713   21.6576 C   0  0  0  0  0  0  0  0  0  0  0  0
   10.4776  -16.2047   22.1034 O   0  0  0  0  0  0  0  0  0  0  0  0
    6.2312  -11.6631   27.4194 C   0  0  0  0  0  0  0  0  0  0  0  0
    6.0094  -12.5823   25.8919 S   0  0  0  0  0  0  0  0  0  0  0  0
    7.6719  -12.8394   25.1567 C   0  0  0  0  0  0  0  0  0  0  0  0
    7.4646  -13.5676   23.8816 C   0  0  0  0  0  0  0  0  0  0  0  0
    8.4809  -14.6622   23.5977 C   0  0  2  0  0  0  0  0  0  0  0  0
    8.3477  -15.3111   22.3428 N   0  0  0  0  0  0  0  0  0  0  0  0
    8.5997  -15.5200   24.7765 C   0  0  0  0  0  0  0  0  0  0  0  0
    7.6180  -16.2021   25.2300 O   0  0  0  0  0  0  0  0  0  0  0  0
    9.9052  -21.4902   30.5425 O   0  0  0  0  0  0  0  0  0  0  0  0
    9.8232  -20.5881   29.4856 C   0  0  0  0  0  0  0  0  0  0  0  0
    8.6254  -19.9988   29.1809 C   0  0  0  0  0  0  0  0  0  0  0  0
    8.5643  -19.1087   28.1313 C   0  0  0  0  0  0  0  0  0  0  0  0
    9.7079  -18.8380   27.4199 C   0  0  0  0  0  0  0  0  0  0  0  0
    9.6766  -17.9041   26.2946 C   0  0  0  0  0  0  0  0  0  0  0  0
    9.8460  -16.4798   26.7627 C   0  0  2  0  0  0  0  0  0  0  0  0
    9.8087  -15.6760   25.5252 N   0  0  0  0  0  0  0  0  0  0  0  0
   11.1417  -16.3307   27.4465 C   0  0  0  0  0  0  0  0  0  0  0  0
   12.1870  -16.1171   26.8339 O   0  0  0  0  0  0  0  0  0  0  0  0
   10.9231  -19.4408   27.7352 C   0  0  0  0  0  0  0  0  0  0  0  0
   10.9795  -20.3207   28.7743 C   0  0  0  0  0  0  0  0  0  0  0  0
   11.1708  -16.4373   28.8302 O   0  0  0  0  0  0  0  0  0  0  0  0
  2  1  1  0
  3  2  2  0
  4  5  1  0
  4  2  1  0
  5  6  1  6
  7  5  1  0
  7  8  2  0
  9 10  1  0
 11 10  1  0
 12 11  1  0
 13 12  1  1
 13 14  1  0
 14  7  1  0
 15 24  1  0
 15 13  1  0
 16 15  2  0
 18 17  1  0
 19 18  2  0
 20 19  1  0
 21 20  2  0
 21 27  1  0
 22 21  1  0
 23 24  1  0
 23 22  1  6
 25 23  1  0
 26 25  2  0
 27 28  2  0
 28 18  1  0
 29 25  1  0
M  END
$$$$
