NMY.pdb
     RDKit          3D

 29 29  0  0  1  0  0  0  0  0999 V2000
   10.6416  -17.1355   16.2223 N   0  0  0  0  0  0  0  0  0  0  0  0
    9.5118  -16.9977   17.0558 C   0  0  0  0  0  0  0  0  0  0  0  0
    8.4877  -17.6712   16.7575 O   0  0  0  0  0  0  0  0  0  0  0  0
    9.5560  -16.0867   18.2328 C   0  0  0  0  0  0  0  0  0  0  0  0
    9.2994  -16.9123   19.4504 C   0  0  2  0  0  0  0  0  0  0  0  0
    7.9264  -17.3061   19.5184 N   0  0  0  0  0  0  0  0  0  0  0  0
    9.7210  -16.2320   20.7141 C   0  0  0  0  0  0  0  0  0  0  0  0
   10.9330  -16.0118   20.8545 O   0  0  0  0  0  0  0  0  0  0  0  0
    6.9182  -12.5714   27.1888 C   0  0  0  0  0  0  0  0  0  0  0  0
    6.5453  -13.5027   25.6985 S   0  0  0  0  0  0  0  0  0  0  0  0
    8.1306  -14.1641   25.0504 C   0  0  0  0  0  0  0  0  0  0  0  0
    7.8330  -14.7573   23.7243 C   0  0  0  0  0  0  0  0  0  0  0  0
    9.0418  -15.3062   22.9833 C   0  0  2  0  0  0  0  0  0  0  0  0
    8.7770  -15.8577   21.7031 N   0  0  0  0  0  0  0  0  0  0  0  0
    9.8354  -16.1208   23.9032 C   0  0  0  0  0  0  0  0  0  0  0  0
    9.6442  -17.3768   24.0464 O   0  0  0  0  0  0  0  0  0  0  0  0
    9.4991  -14.9265   30.8616 O   0  0  0  0  0  0  0  0  0  0  0  0
   10.2763  -15.0752   29.7164 C   0  0  0  0  0  0  0  0  0  0  0  0
   10.3053  -14.0806   28.7757 C   0  0  0  0  0  0  0  0  0  0  0  0
   11.0802  -14.2463   27.6490 C   0  0  0  0  0  0  0  0  0  0  0  0
   11.8021  -15.4057   27.5015 C   0  0  0  0  0  0  0  0  0  0  0  0
   12.6289  -15.6174   26.3136 C   0  0  0  0  0  0  0  0  0  0  0  0
   11.9180  -16.4807   25.3008 C   0  0  2  0  0  0  0  0  0  0  0  0
   10.8873  -15.5980   24.7199 N   0  0  0  0  0  0  0  0  0  0  0  0
   11.3008  -17.6350   25.9754 C   0  0  0  0  0  0  0  0  0  0  0  0
   11.9639  -18.5836   26.3928 O   0  0  0  0  0  0  0  0  0  0  0  0
   11.7682  -16.4134   28.4622 C   0  0  0  0  0  0  0  0  0  0  0  0
   11.0004  -16.2458   29.5755 C   0  0  0  0  0  0  0  0  0  0  0  0
    9.9225  -17.6407   26.1397 O   0  0  0  0  0  0  0  0  0  0  0  0
  2  1  1  0
  3  2  2  0
  4  5  1  0
  4  2  1  0
  5  6  1  1
  7  5  1  0
  7  8  2  0
  9 10  1  0
 11 10  1  0
 12 11  1  0
 13 12  1  1
 13 14  1  0
 14  7  1  0
 15 24  1  0
 15 13  1  0
 16 15  2  0
 18 17  1  0
 19 18  2  0
 20 19  1  0
 21 20  2  0
 21 27  1  0
 22 21  1  0
 23 24  1  0
 23 22  1  1
 25 23  1  0
 26 25  2  0
 27 28  2  0
 28 18  1  0
 29 25  1  0
M  END
$$$$
