NMY.pdb
     RDKit          3D

 29 29  0  0  1  0  0  0  0  0999 V2000
   11.3289  -18.3072   18.1462 N   0  0  0  0  0  0  0  0  0  0  0  0
   10.7647  -17.2014   18.8166 C   0  0  0  0  0  0  0  0  0  0  0  0
    9.9303  -16.5028   18.1786 O   0  0  0  0  0  0  0  0  0  0  0  0
   11.1574  -16.8962   20.2200 C   0  0  0  0  0  0  0  0  0  0  0  0
    9.9454  -17.0719   21.0745 C   0  0  2  0  0  0  0  0  0  0  0  0
    8.7726  -16.6181   20.3939 N   0  0  0  0  0  0  0  0  0  0  0  0
   10.0747  -16.4112   22.4103 C   0  0  0  0  0  0  0  0  0  0  0  0
   11.1525  -16.5566   23.0055 O   0  0  0  0  0  0  0  0  0  0  0  0
    6.6077  -11.2912   27.3998 C   0  0  0  0  0  0  0  0  0  0  0  0
    6.6661  -12.0251   25.7611 S   0  0  0  0  0  0  0  0  0  0  0  0
    7.8528  -13.4245   25.8257 C   0  0  0  0  0  0  0  0  0  0  0  0
    7.9224  -13.9861   24.4550 C   0  0  0  0  0  0  0  0  0  0  0  0
    8.9406  -15.1003   24.2713 C   0  0  2  0  0  0  0  0  0  0  0  0
    9.0130  -15.6549   22.9672 N   0  0  0  0  0  0  0  0  0  0  0  0
    8.8234  -16.0416   25.3848 C   0  0  0  0  0  0  0  0  0  0  0  0
    7.7389  -16.6679   25.6421 O   0  0  0  0  0  0  0  0  0  0  0  0
   14.8386  -19.8845   24.6257 O   0  0  0  0  0  0  0  0  0  0  0  0
   13.5570  -19.5822   25.0768 C   0  0  0  0  0  0  0  0  0  0  0  0
   12.5992  -19.1699   24.1893 C   0  0  0  0  0  0  0  0  0  0  0  0
   11.3367  -18.8752   24.6550 C   0  0  0  0  0  0  0  0  0  0  0  0
   11.0749  -19.0035   25.9973 C   0  0  0  0  0  0  0  0  0  0  0  0
    9.7474  -18.6911   26.5263 C   0  0  0  0  0  0  0  0  0  0  0  0
    9.7611  -17.4000   27.3070 C   0  0  2  0  0  0  0  0  0  0  0  0
    9.8960  -16.3478   26.2806 N   0  0  0  0  0  0  0  0  0  0  0  0
   10.9108  -17.3862   28.2271 C   0  0  0  0  0  0  0  0  0  0  0  0
   11.0289  -18.1990   29.1431 O   0  0  0  0  0  0  0  0  0  0  0  0
   12.0537  -19.4235   26.8946 C   0  0  0  0  0  0  0  0  0  0  0  0
   13.3014  -19.7142   26.4302 C   0  0  0  0  0  0  0  0  0  0  0  0
   11.8878  -16.4174   28.0438 O   0  0  0  0  0  0  0  0  0  0  0  0
  2  1  1  0
  3  2  2  0
  4  5  1  0
  4  2  1  0
  5  6  1  6
  7  5  1  0
  7  8  2  0
  9 10  1  0
 11 10  1  0
 12 11  1  0
 13 12  1  6
 13 14  1  0
 14  7  1  0
 15 24  1  0
 15 13  1  0
 16 15  2  0
 18 17  1  0
 19 18  2  0
 20 19  1  0
 21 20  2  0
 21 27  1  0
 22 21  1  0
 23 24  1  0
 23 22  1  6
 25 23  1  0
 26 25  2  0
 27 28  2  0
 28 18  1  0
 29 25  1  0
M  END
$$$$
