NMY.pdb
     RDKit          3D

 29 29  0  0  1  0  0  0  0  0999 V2000
   11.2334  -20.9242   18.0329 N   0  0  0  0  0  0  0  0  0  0  0  0
   10.6605  -19.9017   17.2476 C   0  0  0  0  0  0  0  0  0  0  0  0
   10.1538  -20.2371   16.1420 O   0  0  0  0  0  0  0  0  0  0  0  0
   10.6683  -18.4932   17.7302 C   0  0  0  0  0  0  0  0  0  0  0  0
   10.5592  -18.5273   19.2191 C   0  0  2  0  0  0  0  0  0  0  0  0
    9.2636  -18.9767   19.6244 N   0  0  0  0  0  0  0  0  0  0  0  0
   10.8910  -17.2156   19.8570 C   0  0  0  0  0  0  0  0  0  0  0  0
   12.0862  -16.8862   19.8719 O   0  0  0  0  0  0  0  0  0  0  0  0
    6.5988  -11.9129   18.3415 C   0  0  0  0  0  0  0  0  0  0  0  0
    7.0148  -12.6140   19.9424 S   0  0  0  0  0  0  0  0  0  0  0  0
    8.5709  -13.5669   19.7395 C   0  0  0  0  0  0  0  0  0  0  0  0
    8.8424  -14.2196   21.0431 C   0  0  0  0  0  0  0  0  0  0  0  0
   10.0555  -15.1361   21.0591 C   0  0  2  0  0  0  0  0  0  0  0  0
    9.8843  -16.3900   20.4175 N   0  0  0  0  0  0  0  0  0  0  0  0
   10.6209  -15.1550   22.4080 C   0  0  0  0  0  0  0  0  0  0  0  0
   11.0442  -14.0978   22.9891 O   0  0  0  0  0  0  0  0  0  0  0  0
   10.7829  -15.2541   30.7800 O   0  0  0  0  0  0  0  0  0  0  0  0
   10.5648  -15.5161   29.4304 C   0  0  0  0  0  0  0  0  0  0  0  0
   10.2495  -14.4925   28.5773 C   0  0  0  0  0  0  0  0  0  0  0  0
   10.0372  -14.7718   27.2453 C   0  0  0  0  0  0  0  0  0  0  0  0
   10.1479  -16.0702   26.8109 C   0  0  0  0  0  0  0  0  0  0  0  0
    9.9211  -16.4028   25.4046 C   0  0  0  0  0  0  0  0  0  0  0  0
   11.1939  -16.2827   24.6034 C   0  0  2  0  0  0  0  0  0  0  0  0
   10.7529  -16.3418   23.1960 N   0  0  0  0  0  0  0  0  0  0  0  0
   12.0903  -17.4073   24.9202 C   0  0  0  0  0  0  0  0  0  0  0  0
   11.9978  -18.4989   24.3603 O   0  0  0  0  0  0  0  0  0  0  0  0
   10.4690  -17.1067   27.6839 C   0  0  0  0  0  0  0  0  0  0  0  0
   10.6784  -16.8265   29.0010 C   0  0  0  0  0  0  0  0  0  0  0  0
   13.0689  -17.2160   25.8859 O   0  0  0  0  0  0  0  0  0  0  0  0
  2  1  1  0
  3  2  2  0
  4  5  1  0
  4  2  1  0
  5  6  1  6
  7  5  1  0
  7  8  2  0
  9 10  1  0
 11 10  1  0
 12 11  1  0
 13 12  1  1
 13 14  1  0
 14  7  1  0
 15 24  1  0
 15 13  1  0
 16 15  2  0
 18 17  1  0
 19 18  2  0
 20 19  1  0
 21 20  2  0
 21 27  1  0
 22 21  1  0
 23 24  1  0
 23 22  1  1
 25 23  1  0
 26 25  2  0
 27 28  2  0
 28 18  1  0
 29 25  1  0
M  END
$$$$
