NMY.pdb
     RDKit          3D

 29 29  0  0  1  0  0  0  0  0999 V2000
    8.2035  -19.9636   19.4304 N   0  0  0  0  0  0  0  0  0  0  0  0
    7.4624  -18.9476   20.0699 C   0  0  0  0  0  0  0  0  0  0  0  0
    6.2463  -18.8333   19.7544 O   0  0  0  0  0  0  0  0  0  0  0  0
    8.1161  -18.0617   21.0723 C   0  0  0  0  0  0  0  0  0  0  0  0
    7.7813  -16.6516   20.7124 C   0  0  2  0  0  0  0  0  0  0  0  0
    8.2162  -16.3483   19.3844 N   0  0  0  0  0  0  0  0  0  0  0  0
    8.3232  -15.6574   21.6899 C   0  0  0  0  0  0  0  0  0  0  0  0
    9.4708  -15.2364   21.4832 O   0  0  0  0  0  0  0  0  0  0  0  0
    6.3721  -11.0831   27.6248 C   0  0  0  0  0  0  0  0  0  0  0  0
    5.9981  -12.7363   27.0294 S   0  0  0  0  0  0  0  0  0  0  0  0
    7.4677  -13.3356   26.1065 C   0  0  0  0  0  0  0  0  0  0  0  0
    6.9568  -14.0491   24.9111 C   0  0  0  0  0  0  0  0  0  0  0  0
    8.0311  -14.5776   23.9740 C   0  0  2  0  0  0  0  0  0  0  0  0
    7.5581  -15.2190   22.7999 N   0  0  0  0  0  0  0  0  0  0  0  0
    9.0382  -15.2922   24.7579 C   0  0  0  0  0  0  0  0  0  0  0  0
    9.5409  -14.8109   25.8305 O   0  0  0  0  0  0  0  0  0  0  0  0
    7.8789  -19.7208   30.2972 O   0  0  0  0  0  0  0  0  0  0  0  0
    8.4196  -19.4575   29.0419 C   0  0  0  0  0  0  0  0  0  0  0  0
    7.5956  -19.3278   27.9559 C   0  0  0  0  0  0  0  0  0  0  0  0
    8.1495  -19.0674   26.7219 C   0  0  0  0  0  0  0  0  0  0  0  0
    9.5137  -18.9454   26.6162 C   0  0  0  0  0  0  0  0  0  0  0  0
   10.1352  -18.6770   25.3196 C   0  0  0  0  0  0  0  0  0  0  0  0
   10.5895  -17.2417   25.2190 C   0  0  2  0  0  0  0  0  0  0  0  0
    9.5508  -16.5804   24.4050 N   0  0  0  0  0  0  0  0  0  0  0  0
   11.8997  -17.1795   24.5495 C   0  0  0  0  0  0  0  0  0  0  0  0
   12.0354  -16.7311   23.4119 O   0  0  0  0  0  0  0  0  0  0  0  0
   10.3461  -19.0783   27.7248 C   0  0  0  0  0  0  0  0  0  0  0  0
    9.7944  -19.3358   28.9441 C   0  0  0  0  0  0  0  0  0  0  0  0
   13.0118  -17.6460   25.2367 O   0  0  0  0  0  0  0  0  0  0  0  0
  2  1  1  0
  3  2  2  0
  4  5  1  0
  4  2  1  0
  5  6  1  6
  7  5  1  0
  7  8  2  0
  9 10  1  0
 11 10  1  0
 12 11  1  0
 13 12  1  1
 13 14  1  0
 14  7  1  0
 15 24  1  0
 15 13  1  0
 16 15  2  0
 18 17  1  0
 19 18  2  0
 20 19  1  0
 21 20  2  0
 21 27  1  0
 22 21  1  0
 23 24  1  0
 23 22  1  6
 25 23  1  0
 26 25  2  0
 27 28  2  0
 28 18  1  0
 29 25  1  0
M  END
$$$$
