NMY.pdb
     RDKit          3D

 29 29  0  0  1  0  0  0  0  0999 V2000
    8.2011  -12.4607   16.9095 N   0  0  0  0  0  0  0  0  0  0  0  0
    7.5426  -13.5498   17.5183 C   0  0  0  0  0  0  0  0  0  0  0  0
    7.0602  -14.4325   16.7571 O   0  0  0  0  0  0  0  0  0  0  0  0
    7.4371  -13.6271   19.0015 C   0  0  0  0  0  0  0  0  0  0  0  0
    8.2121  -14.8238   19.4457 C   0  0  2  0  0  0  0  0  0  0  0  0
    7.4235  -16.0113   19.3334 N   0  0  0  0  0  0  0  0  0  0  0  0
    8.7628  -14.6795   20.8290 C   0  0  0  0  0  0  0  0  0  0  0  0
    9.8439  -14.0833   20.9425 O   0  0  0  0  0  0  0  0  0  0  0  0
    5.7382  -13.3432   26.9060 C   0  0  0  0  0  0  0  0  0  0  0  0
    6.8403  -12.6056   25.6942 S   0  0  0  0  0  0  0  0  0  0  0  0
    6.6230  -13.5247   24.1198 C   0  0  0  0  0  0  0  0  0  0  0  0
    7.3076  -14.8288   24.2911 C   0  0  0  0  0  0  0  0  0  0  0  0
    8.4495  -15.0842   23.3202 C   0  0  2  0  0  0  0  0  0  0  0  0
    8.0786  -15.2012   21.9556 N   0  0  0  0  0  0  0  0  0  0  0  0
    9.3117  -16.1335   23.8636 C   0  0  0  0  0  0  0  0  0  0  0  0
    9.0993  -17.3757   23.6480 O   0  0  0  0  0  0  0  0  0  0  0  0
   10.5572  -14.6151   30.9561 O   0  0  0  0  0  0  0  0  0  0  0  0
   11.0094  -15.0097   29.7002 C   0  0  0  0  0  0  0  0  0  0  0  0
   10.8661  -14.1710   28.6272 C   0  0  0  0  0  0  0  0  0  0  0  0
   11.3198  -14.5794   27.3924 C   0  0  0  0  0  0  0  0  0  0  0  0
   11.9033  -15.8172   27.2729 C   0  0  0  0  0  0  0  0  0  0  0  0
   12.3886  -16.2852   25.9748 C   0  0  0  0  0  0  0  0  0  0  0  0
   11.2936  -16.9749   25.1992 C   0  0  2  0  0  0  0  0  0  0  0  0
   10.4595  -15.8745   24.6773 N   0  0  0  0  0  0  0  0  0  0  0  0
   10.5151  -17.8419   26.0997 C   0  0  0  0  0  0  0  0  0  0  0  0
    9.3948  -17.5325   26.5032 O   0  0  0  0  0  0  0  0  0  0  0  0
   12.0461  -16.6653   28.3683 C   0  0  0  0  0  0  0  0  0  0  0  0
   11.5961  -16.2577   29.5884 C   0  0  0  0  0  0  0  0  0  0  0  0
   11.0762  -19.0468   26.4997 O   0  0  0  0  0  0  0  0  0  0  0  0
  2  1  1  0
  3  2  2  0
  4  5  1  0
  4  2  1  0
  5  6  1  1
  7  5  1  0
  7  8  2  0
  9 10  1  0
 11 10  1  0
 12 11  1  0
 13 12  1  1
 13 14  1  0
 14  7  1  0
 15 24  1  0
 15 13  1  0
 16 15  2  0
 18 17  1  0
 19 18  2  0
 20 19  1  0
 21 20  2  0
 21 27  1  0
 22 21  1  0
 23 24  1  0
 23 22  1  1
 25 23  1  0
 26 25  2  0
 27 28  2  0
 28 18  1  0
 29 25  1  0
M  END
$$$$
