NMY.pdb
     RDKit          3D

 29 29  0  0  1  0  0  0  0  0999 V2000
    8.8173  -17.4066   17.2422 N   0  0  0  0  0  0  0  0  0  0  0  0
    7.8150  -17.0171   18.1555 C   0  0  0  0  0  0  0  0  0  0  0  0
    6.6749  -17.5398   18.0202 O   0  0  0  0  0  0  0  0  0  0  0  0
    8.1200  -16.0273   19.2251 C   0  0  0  0  0  0  0  0  0  0  0  0
    8.4561  -16.7921   20.4630 C   0  0  2  0  0  0  0  0  0  0  0  0
    7.3109  -17.4932   20.9547 N   0  0  0  0  0  0  0  0  0  0  0  0
    9.0544  -15.9342   21.5324 C   0  0  0  0  0  0  0  0  0  0  0  0
   10.2163  -15.5415   21.3511 O   0  0  0  0  0  0  0  0  0  0  0  0
    6.2507  -11.8265   26.1044 C   0  0  0  0  0  0  0  0  0  0  0  0
    5.3655  -13.1575   25.2845 S   0  0  0  0  0  0  0  0  0  0  0  0
    6.4871  -13.8658   24.0152 C   0  0  0  0  0  0  0  0  0  0  0  0
    7.7253  -14.2732   24.7221 C   0  0  0  0  0  0  0  0  0  0  0  0
    8.7984  -14.8817   23.8334 C   0  0  2  0  0  0  0  0  0  0  0  0
    8.3249  -15.5880   22.6975 N   0  0  0  0  0  0  0  0  0  0  0  0
    9.7828  -15.5638   24.6733 C   0  0  0  0  0  0  0  0  0  0  0  0
   10.5127  -14.9408   25.5182 O   0  0  0  0  0  0  0  0  0  0  0  0
   11.6828  -13.6102   30.2604 O   0  0  0  0  0  0  0  0  0  0  0  0
   11.3570  -14.6409   29.3834 C   0  0  0  0  0  0  0  0  0  0  0  0
   10.3645  -14.4624   28.4570 C   0  0  0  0  0  0  0  0  0  0  0  0
   10.0565  -15.4941   27.5978 C   0  0  0  0  0  0  0  0  0  0  0  0
   10.7544  -16.6733   27.6954 C   0  0  0  0  0  0  0  0  0  0  0  0
   10.4475  -17.7917   26.8041 C   0  0  0  0  0  0  0  0  0  0  0  0
   11.0797  -17.5979   25.4479 C   0  0  2  0  0  0  0  0  0  0  0  0
   10.0204  -16.9739   24.6309 N   0  0  0  0  0  0  0  0  0  0  0  0
   11.4725  -18.9030   24.8901 C   0  0  0  0  0  0  0  0  0  0  0  0
   10.8852  -19.4137   23.9372 O   0  0  0  0  0  0  0  0  0  0  0  0
   11.7628  -16.8482   28.6399 C   0  0  0  0  0  0  0  0  0  0  0  0
   12.0648  -15.8252   29.4881 C   0  0  0  0  0  0  0  0  0  0  0  0
   12.5439  -19.5695   25.4685 O   0  0  0  0  0  0  0  0  0  0  0  0
  2  1  1  0
  3  2  2  0
  4  5  1  0
  4  2  1  0
  5  6  1  1
  7  5  1  0
  7  8  2  0
  9 10  1  0
 11 10  1  0
 12 11  1  0
 13 12  1  1
 13 14  1  0
 14  7  1  0
 15 24  1  0
 15 13  1  0
 16 15  2  0
 18 17  1  0
 19 18  2  0
 20 19  1  0
 21 20  2  0
 21 27  1  0
 22 21  1  0
 23 24  1  0
 23 22  1  1
 25 23  1  0
 26 25  2  0
 27 28  2  0
 28 18  1  0
 29 25  1  0
M  END
$$$$
