TQS.pdb
     RDKit          3D

 23 22  0  0  1  0  0  0  0  0999 V2000
   16.4582  -18.9211   16.2500 C   0  0  0  0  0  0  0  0  0  0  0  0
   15.5571  -18.1950   15.2906 C   0  0  1  0  0  0  0  0  0  0  0  0
   16.2808  -17.5804   14.2629 O   0  0  0  0  0  0  0  0  0  0  0  0
   14.6191  -19.1896   14.6634 C   0  0  2  0  0  0  0  0  0  0  0  0
   13.8344  -18.6216   13.6038 N   0  0  0  0  0  0  0  0  0  0  0  0
   13.7295  -19.7621   15.6882 C   0  0  0  0  0  0  0  0  0  0  0  0
   12.6523  -19.1797   16.0005 O   0  0  0  0  0  0  0  0  0  0  0  0
   14.6922  -25.4981   18.1811 N   0  0  0  0  0  0  0  0  0  0  0  0
   13.4757  -25.0786   18.7848 C   0  0  0  0  0  0  0  0  0  0  0  0
   12.8895  -25.8616   19.5692 O   0  0  0  0  0  0  0  0  0  0  0  0
   12.8881  -23.7491   18.5119 C   0  0  0  0  0  0  0  0  0  0  0  0
   13.7760  -23.0151   17.5341 C   0  0  0  0  0  0  0  0  0  0  0  0
   13.2107  -21.6233   17.2763 C   0  0  2  0  0  0  0  0  0  0  0  0
   14.0916  -20.9776   16.3254 N   0  0  0  0  0  0  0  0  0  0  0  0
   13.2189  -20.8440   18.5391 C   0  0  0  0  0  0  0  0  0  0  0  0
   14.2697  -20.2909   18.9482 O   0  0  0  0  0  0  0  0  0  0  0  0
   10.2451  -18.5949   19.9805 O   0  0  0  0  0  0  0  0  0  0  0  0
   10.6656  -19.5192   20.9526 C   0  0  0  0  0  0  0  0  0  0  0  0
   12.0946  -19.9218   20.5672 C   0  0  2  0  0  0  0  0  0  0  0  0
   12.0473  -20.6913   19.3337 N   0  0  0  0  0  0  0  0  0  0  0  0
   12.6325  -20.7286   21.6741 C   0  0  0  0  0  0  0  0  0  0  0  0
   12.9429  -20.1296   22.8708 O   0  0  0  0  0  0  0  0  0  0  0  0
   12.8072  -21.9510   21.5300 O   0  0  0  0  0  0  0  0  0  0  0  0
  2  1  1  1
  2  3  1  0
  4  5  1  6
  4  2  1  0
  6  7  2  0
  6  4  1  0
  8  9  1  0
  9 10  2  0
  9 11  1  0
 11 12  1  0
 13 12  1  1
 13 15  1  0
 13 14  1  0
 14  6  1  0
 15 20  1  0
 16 15  2  0
 18 17  1  0
 19 18  1  1
 19 21  1  0
 20 19  1  0
 21 23  2  0
 21 22  1  0
M  END
$$$$
