TQS.pdb
     RDKit          3D

 23 22  0  0  1  0  0  0  0  0999 V2000
    8.3381  -12.5417   19.4989 C   0  0  0  0  0  0  0  0  0  0  0  0
    7.6924  -13.1810   18.3015 C   0  0  1  0  0  0  0  0  0  0  0  0
    7.1302  -12.2285   17.4445 O   0  0  0  0  0  0  0  0  0  0  0  0
    8.7431  -13.9321   17.5305 C   0  0  2  0  0  0  0  0  0  0  0  0
    8.2460  -14.4752   16.2981 N   0  0  0  0  0  0  0  0  0  0  0  0
    9.3031  -15.0130   18.3596 C   0  0  0  0  0  0  0  0  0  0  0  0
    8.9229  -16.2075   18.1987 O   0  0  0  0  0  0  0  0  0  0  0  0
   14.9450  -15.8183   19.0151 N   0  0  0  0  0  0  0  0  0  0  0  0
   14.2463  -14.5823   18.9504 C   0  0  0  0  0  0  0  0  0  0  0  0
   14.8495  -13.5693   18.5238 O   0  0  0  0  0  0  0  0  0  0  0  0
   12.8336  -14.4626   19.3716 C   0  0  0  0  0  0  0  0  0  0  0  0
   12.3376  -15.8221   19.8062 C   0  0  0  0  0  0  0  0  0  0  0  0
   10.8622  -15.7326   20.1781 C   0  0  2  0  0  0  0  0  0  0  0  0
   10.2768  -14.7030   19.3446 N   0  0  0  0  0  0  0  0  0  0  0  0
   10.7338  -15.3256   21.5993 C   0  0  0  0  0  0  0  0  0  0  0  0
   11.2263  -14.2446   22.0072 O   0  0  0  0  0  0  0  0  0  0  0  0
    7.8076  -16.6223   23.7536 O   0  0  0  0  0  0  0  0  0  0  0  0
    8.4904  -15.5271   24.3109 C   0  0  0  0  0  0  0  0  0  0  0  0
    9.9675  -15.7141   23.9422 C   0  0  2  0  0  0  0  0  0  0  0  0
   10.0532  -16.1352   22.5525 N   0  0  0  0  0  0  0  0  0  0  0  0
   10.5132  -16.7430   24.8418 C   0  0  0  0  0  0  0  0  0  0  0  0
   11.0144  -17.9117   24.3219 O   0  0  0  0  0  0  0  0  0  0  0  0
   10.5222  -16.5582   26.0711 O   0  0  0  0  0  0  0  0  0  0  0  0
  2  1  1  1
  2  3  1  0
  4  5  1  6
  4  2  1  0
  6  7  2  0
  6  4  1  0
  8  9  1  0
  9 10  2  0
  9 11  1  0
 11 12  1  0
 13 12  1  6
 13 15  1  0
 13 14  1  0
 14  6  1  0
 15 20  1  0
 16 15  2  0
 18 17  1  0
 19 18  1  1
 19 21  1  0
 20 19  1  0
 21 23  2  0
 21 22  1  0
M  END
$$$$
