TQS.pdb
     RDKit          3D

 23 22  0  0  1  0  0  0  0  0999 V2000
    8.9981  -12.6608   19.7104 C   0  0  0  0  0  0  0  0  0  0  0  0
    8.1121  -13.2745   18.6627 C   0  0  1  0  0  0  0  0  0  0  0  0
    7.8557  -12.3848   17.6138 O   0  0  0  0  0  0  0  0  0  0  0  0
    8.8078  -14.4777   18.0875 C   0  0  2  0  0  0  0  0  0  0  0  0
    8.0716  -15.0852   17.0150 N   0  0  0  0  0  0  0  0  0  0  0  0
    9.0564  -15.4722   19.1451 C   0  0  0  0  0  0  0  0  0  0  0  0
    8.1616  -16.3050   19.4658 O   0  0  0  0  0  0  0  0  0  0  0  0
   14.4325  -18.3926   20.0095 N   0  0  0  0  0  0  0  0  0  0  0  0
   13.8653  -18.3796   21.3127 C   0  0  0  0  0  0  0  0  0  0  0  0
   14.5846  -18.7022   22.2876 O   0  0  0  0  0  0  0  0  0  0  0  0
   12.4556  -17.9971   21.5453 C   0  0  0  0  0  0  0  0  0  0  0  0
   12.0677  -16.9334   20.5448 C   0  0  0  0  0  0  0  0  0  0  0  0
   10.6308  -16.4931   20.7987 C   0  0  2  0  0  0  0  0  0  0  0  0
   10.3132  -15.4891   19.8044 N   0  0  0  0  0  0  0  0  0  0  0  0
   10.5323  -15.8780   22.1456 C   0  0  0  0  0  0  0  0  0  0  0  0
   11.4029  -15.0678   22.5493 O   0  0  0  0  0  0  0  0  0  0  0  0
    7.2709  -16.5494   24.3541 O   0  0  0  0  0  0  0  0  0  0  0  0
    7.9477  -15.3867   24.7622 C   0  0  0  0  0  0  0  0  0  0  0  0
    9.4139  -15.5834   24.3569 C   0  0  2  0  0  0  0  0  0  0  0  0
    9.4569  -16.1770   23.0296 N   0  0  0  0  0  0  0  0  0  0  0  0
   10.0251  -16.4748   25.3556 C   0  0  0  0  0  0  0  0  0  0  0  0
   10.1772  -16.0486   26.6526 O   0  0  0  0  0  0  0  0  0  0  0  0
   10.4044  -17.6130   25.0294 O   0  0  0  0  0  0  0  0  0  0  0  0
  2  1  1  1
  2  3  1  0
  4  5  1  6
  4  2  1  0
  6  7  2  0
  6  4  1  0
  8  9  1  0
  9 10  2  0
  9 11  1  0
 11 12  1  0
 13 12  1  6
 13 15  1  0
 13 14  1  0
 14  6  1  0
 15 20  1  0
 16 15  2  0
 18 17  1  0
 19 18  1  1
 19 21  1  0
 20 19  1  0
 21 23  2  0
 21 22  1  0
M  END
$$$$
