TQS.pdb
     RDKit          3D

 23 22  0  0  1  0  0  0  0  0999 V2000
    7.5404  -12.3746   19.3255 C   0  0  0  0  0  0  0  0  0  0  0  0
    8.6606  -13.3177   19.6647 C   0  0  1  0  0  0  0  0  0  0  0  0
    8.2119  -14.4056   20.4215 O   0  0  0  0  0  0  0  0  0  0  0  0
    9.2431  -13.8542   18.3859 C   0  0  2  0  0  0  0  0  0  0  0  0
    8.2788  -14.5579   17.5884 N   0  0  0  0  0  0  0  0  0  0  0  0
   10.3836  -14.7382   18.6811 C   0  0  0  0  0  0  0  0  0  0  0  0
   10.3031  -15.9816   18.4695 O   0  0  0  0  0  0  0  0  0  0  0  0
   15.8680  -16.0689   16.9775 N   0  0  0  0  0  0  0  0  0  0  0  0
   15.5328  -14.7442   17.3688 C   0  0  0  0  0  0  0  0  0  0  0  0
   16.4477  -13.8918   17.4603 O   0  0  0  0  0  0  0  0  0  0  0  0
   14.1394  -14.3492   17.6689 C   0  0  0  0  0  0  0  0  0  0  0  0
   13.9668  -14.2714   19.1679 C   0  0  0  0  0  0  0  0  0  0  0  0
   12.7023  -15.0182   19.5759 C   0  0  2  0  0  0  0  0  0  0  0  0
   11.5788  -14.1821   19.2071 N   0  0  0  0  0  0  0  0  0  0  0  0
   12.6925  -15.2079   21.0476 C   0  0  0  0  0  0  0  0  0  0  0  0
   13.3019  -14.4117   21.8041 O   0  0  0  0  0  0  0  0  0  0  0  0
    9.9526  -17.5064   22.6726 O   0  0  0  0  0  0  0  0  0  0  0  0
   10.5543  -16.6221   23.5850 C   0  0  0  0  0  0  0  0  0  0  0  0
   11.9997  -16.4355   23.1069 C   0  0  2  0  0  0  0  0  0  0  0  0
   11.9986  -16.2902   21.6595 N   0  0  0  0  0  0  0  0  0  0  0  0
   12.7516  -17.6316   23.5183 C   0  0  0  0  0  0  0  0  0  0  0  0
   13.3242  -18.4415   22.5678 O   0  0  0  0  0  0  0  0  0  0  0  0
   12.8705  -17.9120   24.7236 O   0  0  0  0  0  0  0  0  0  0  0  0
  2  1  1  6
  2  3  1  0
  4  5  1  1
  4  2  1  0
  6  7  2  0
  6  4  1  0
  8  9  1  0
  9 10  2  0
  9 11  1  0
 11 12  1  0
 13 12  1  1
 13 15  1  0
 13 14  1  0
 14  6  1  0
 15 20  1  0
 16 15  2  0
 18 17  1  0
 19 18  1  6
 19 21  1  0
 20 19  1  0
 21 23  2  0
 21 22  1  0
M  END
$$$$
