TQS.pdb
     RDKit          3D

 23 22  0  0  1  0  0  0  0  0999 V2000
    8.7493  -12.6567   19.4571 C   0  0  0  0  0  0  0  0  0  0  0  0
    8.1322  -13.2140   18.2049 C   0  0  1  0  0  0  0  0  0  0  0  0
    8.2949  -12.3495   17.1169 O   0  0  0  0  0  0  0  0  0  0  0  0
    8.8131  -14.5124   17.8683 C   0  0  2  0  0  0  0  0  0  0  0  0
    8.3670  -15.0668   16.6215 N   0  0  0  0  0  0  0  0  0  0  0  0
    8.6027  -15.4895   18.9501 C   0  0  0  0  0  0  0  0  0  0  0  0
    7.5887  -16.2437   18.9450 O   0  0  0  0  0  0  0  0  0  0  0  0
   12.3425  -19.2820   19.2702 N   0  0  0  0  0  0  0  0  0  0  0  0
   12.6951  -18.2708   20.2048 C   0  0  0  0  0  0  0  0  0  0  0  0
   13.8147  -18.3311   20.7659 O   0  0  0  0  0  0  0  0  0  0  0  0
   11.7790  -17.1559   20.5294 C   0  0  0  0  0  0  0  0  0  0  0  0
   10.3829  -17.7069   20.7031 C   0  0  0  0  0  0  0  0  0  0  0  0
    9.4255  -16.5725   21.0490 C   0  0  2  0  0  0  0  0  0  0  0  0
    9.5503  -15.5788   20.0029 N   0  0  0  0  0  0  0  0  0  0  0  0
    9.8293  -15.9600   22.3389 C   0  0  0  0  0  0  0  0  0  0  0  0
   10.8620  -15.2497   22.4198 O   0  0  0  0  0  0  0  0  0  0  0  0
    7.3051  -16.1770   25.3840 O   0  0  0  0  0  0  0  0  0  0  0  0
    8.1971  -15.1015   25.5395 C   0  0  0  0  0  0  0  0  0  0  0  0
    9.4625  -15.4820   24.7606 C   0  0  2  0  0  0  0  0  0  0  0  0
    9.0708  -16.1494   23.5289 N   0  0  0  0  0  0  0  0  0  0  0  0
   10.2496  -16.3790   25.6215 C   0  0  0  0  0  0  0  0  0  0  0  0
   10.7797  -15.9083   26.7983 O   0  0  0  0  0  0  0  0  0  0  0  0
   10.4368  -17.5618   25.2876 O   0  0  0  0  0  0  0  0  0  0  0  0
  2  1  1  1
  2  3  1  0
  4  5  1  6
  4  2  1  0
  6  7  2  0
  6  4  1  0
  8  9  1  0
  9 10  2  0
  9 11  1  0
 11 12  1  0
 13 12  1  6
 13 15  1  0
 13 14  1  0
 14  6  1  0
 15 20  1  0
 16 15  2  0
 18 17  1  0
 19 18  1  1
 19 21  1  0
 20 19  1  0
 21 23  2  0
 21 22  1  0
M  END
$$$$
