TQS.pdb
     RDKit          3D

 23 22  0  0  1  0  0  0  0  0999 V2000
    7.5991  -12.0610   18.3777 C   0  0  0  0  0  0  0  0  0  0  0  0
    8.4598  -13.1380   18.9764 C   0  0  1  0  0  0  0  0  0  0  0  0
    7.6963  -14.0998   19.6471 O   0  0  0  0  0  0  0  0  0  0  0  0
    9.2052  -13.8310   17.8688 C   0  0  2  0  0  0  0  0  0  0  0  0
    8.3322  -14.3766   16.8681 N   0  0  0  0  0  0  0  0  0  0  0  0
   10.0554  -14.8990   18.4219 C   0  0  0  0  0  0  0  0  0  0  0  0
    9.6931  -16.1078   18.3531 O   0  0  0  0  0  0  0  0  0  0  0  0
   15.7351  -15.1826   17.4285 N   0  0  0  0  0  0  0  0  0  0  0  0
   15.3464  -14.1574   18.3330 C   0  0  0  0  0  0  0  0  0  0  0  0
   16.1643  -13.2454   18.5997 O   0  0  0  0  0  0  0  0  0  0  0  0
   14.0086  -14.1406   18.9636 C   0  0  0  0  0  0  0  0  0  0  0  0
   13.4646  -15.5499   18.9907 C   0  0  0  0  0  0  0  0  0  0  0  0
   12.1089  -15.5608   19.6871 C   0  0  2  0  0  0  0  0  0  0  0  0
   11.2896  -14.5601   19.0353 N   0  0  0  0  0  0  0  0  0  0  0  0
   12.2810  -15.1820   21.1115 C   0  0  0  0  0  0  0  0  0  0  0  0
   12.0968  -13.9988   21.4905 O   0  0  0  0  0  0  0  0  0  0  0  0
    9.6862  -16.9860   23.9976 O   0  0  0  0  0  0  0  0  0  0  0  0
   10.4514  -16.8439   22.8268 C   0  0  0  0  0  0  0  0  0  0  0  0
   11.8274  -16.3371   23.2766 C   0  0  2  0  0  0  0  0  0  0  0  0
   12.6587  -16.1343   22.1003 N   0  0  0  0  0  0  0  0  0  0  0  0
   12.4017  -17.3644   24.1599 C   0  0  0  0  0  0  0  0  0  0  0  0
   12.3236  -17.2169   25.5236 O   0  0  0  0  0  0  0  0  0  0  0  0
   12.9574  -18.3658   23.6763 O   0  0  0  0  0  0  0  0  0  0  0  0
  2  1  1  6
  2  3  1  0
  4  5  1  6
  4  2  1  0
  6  7  2  0
  6  4  1  0
  8  9  1  0
  9 10  2  0
  9 11  1  0
 11 12  1  0
 13 12  1  6
 13 15  1  0
 13 14  1  0
 14  6  1  0
 15 20  1  0
 16 15  2  0
 18 17  1  0
 19 18  1  6
 19 21  1  0
 20 19  1  0
 21 23  2  0
 21 22  1  0
M  END
$$$$
