TQS.pdb
     RDKit          3D

 23 22  0  0  1  0  0  0  0  0999 V2000
   10.9039  -14.0339   20.4997 C   0  0  0  0  0  0  0  0  0  0  0  0
    9.9374  -13.2483   19.6583 C   0  0  1  0  0  0  0  0  0  0  0  0
   10.4141  -13.0637   18.3559 O   0  0  0  0  0  0  0  0  0  0  0  0
    8.6432  -14.0100   19.5723 C   0  0  2  0  0  0  0  0  0  0  0  0
    7.6537  -13.3365   18.7796 N   0  0  0  0  0  0  0  0  0  0  0  0
    8.1119  -14.2591   20.9233 C   0  0  0  0  0  0  0  0  0  0  0  0
    7.4340  -13.3746   21.5192 O   0  0  0  0  0  0  0  0  0  0  0  0
    5.6434  -16.8307   25.6177 N   0  0  0  0  0  0  0  0  0  0  0  0
    6.4966  -17.7422   24.9384 C   0  0  0  0  0  0  0  0  0  0  0  0
    7.3016  -18.4303   25.6096 O   0  0  0  0  0  0  0  0  0  0  0  0
    6.4581  -17.8978   23.4681 C   0  0  0  0  0  0  0  0  0  0  0  0
    7.7587  -17.3906   22.8900 C   0  0  0  0  0  0  0  0  0  0  0  0
    7.7169  -15.8699   22.7953 C   0  0  2  0  0  0  0  0  0  0  0  0
    8.3675  -15.5046   21.5541 N   0  0  0  0  0  0  0  0  0  0  0  0
    8.4799  -15.2825   23.9243 C   0  0  0  0  0  0  0  0  0  0  0  0
    9.7275  -15.4096   23.9944 O   0  0  0  0  0  0  0  0  0  0  0  0
    6.5110  -13.2069   26.7500 O   0  0  0  0  0  0  0  0  0  0  0  0
    7.8205  -12.7290   26.5679 C   0  0  0  0  0  0  0  0  0  0  0  0
    8.6268  -13.9031   25.9988 C   0  0  2  0  0  0  0  0  0  0  0  0
    7.8369  -14.5566   24.9669 N   0  0  0  0  0  0  0  0  0  0  0  0
    8.9038  -14.8216   27.1146 C   0  0  0  0  0  0  0  0  0  0  0  0
    9.6971  -14.4118   28.1586 O   0  0  0  0  0  0  0  0  0  0  0  0
    8.4223  -15.9678   27.1157 O   0  0  0  0  0  0  0  0  0  0  0  0
  2  1  1  1
  2  3  1  0
  4  5  1  6
  4  2  1  0
  6  7  2  0
  6  4  1  0
  8  9  1  0
  9 10  2  0
  9 11  1  0
 11 12  1  0
 13 12  1  1
 13 15  1  0
 13 14  1  0
 14  6  1  0
 15 20  1  0
 16 15  2  0
 18 17  1  0
 19 18  1  1
 19 21  1  0
 20 19  1  0
 21 23  2  0
 21 22  1  0
M  END
$$$$
