TQS.pdb
     RDKit          3D

 23 22  0  0  1  0  0  0  0  0999 V2000
    9.4813  -15.5602   14.5221 C   0  0  0  0  0  0  0  0  0  0  0  0
   10.2740  -15.8991   15.7534 C   0  0  1  0  0  0  0  0  0  0  0  0
   10.0168  -17.2020   16.1940 O   0  0  0  0  0  0  0  0  0  0  0  0
   11.7389  -15.8039   15.4252 C   0  0  2  0  0  0  0  0  0  0  0  0
   12.1333  -16.7035   14.3781 N   0  0  0  0  0  0  0  0  0  0  0  0
   12.5453  -16.0606   16.6306 C   0  0  0  0  0  0  0  0  0  0  0  0
   12.9167  -17.2344   16.9160 O   0  0  0  0  0  0  0  0  0  0  0  0
   16.8106  -12.1625   18.0309 N   0  0  0  0  0  0  0  0  0  0  0  0
   16.7812  -13.2613   17.1298 C   0  0  0  0  0  0  0  0  0  0  0  0
   17.6197  -13.3011   16.1986 O   0  0  0  0  0  0  0  0  0  0  0  0
   15.7913  -14.3522   17.2630 C   0  0  0  0  0  0  0  0  0  0  0  0
   14.8861  -14.0487   18.4341 C   0  0  0  0  0  0  0  0  0  0  0  0
   13.8376  -15.1469   18.5672 C   0  0  2  0  0  0  0  0  0  0  0  0
   12.9041  -14.9763   17.4732 N   0  0  0  0  0  0  0  0  0  0  0  0
   13.1067  -14.9809   19.8479 C   0  0  0  0  0  0  0  0  0  0  0  0
   12.0485  -14.3066   19.9033 O   0  0  0  0  0  0  0  0  0  0  0  0
   10.6436  -16.3015   23.0755 O   0  0  0  0  0  0  0  0  0  0  0  0
   11.4275  -16.3423   21.9092 C   0  0  0  0  0  0  0  0  0  0  0  0
   12.7197  -15.5843   22.2382 C   0  0  2  0  0  0  0  0  0  0  0  0
   13.5691  -15.5731   21.0574 N   0  0  0  0  0  0  0  0  0  0  0  0
   13.3694  -16.2952   23.3509 C   0  0  0  0  0  0  0  0  0  0  0  0
   12.9120  -16.1224   24.6346 O   0  0  0  0  0  0  0  0  0  0  0  0
   14.3314  -17.0521   23.1331 O   0  0  0  0  0  0  0  0  0  0  0  0
  2  1  1  6
  2  3  1  0
  4  5  1  6
  4  2  1  0
  6  7  2  0
  6  4  1  0
  8  9  1  0
  9 10  2  0
  9 11  1  0
 11 12  1  0
 13 12  1  6
 13 15  1  0
 13 14  1  0
 14  6  1  0
 15 20  1  0
 16 15  2  0
 18 17  1  0
 19 18  1  6
 19 21  1  0
 20 19  1  0
 21 23  2  0
 21 22  1  0
M  END
$$$$
