TQS.pdb
     RDKit          3D

 23 22  0  0  1  0  0  0  0  0999 V2000
    8.1957  -12.4180   20.1371 C   0  0  0  0  0  0  0  0  0  0  0  0
    8.5255  -12.8858   18.7472 C   0  0  1  0  0  0  0  0  0  0  0  0
    9.8808  -13.2074   18.6157 O   0  0  0  0  0  0  0  0  0  0  0  0
    7.7264  -14.1259   18.4535 C   0  0  2  0  0  0  0  0  0  0  0  0
    6.3107  -13.8870   18.4511 N   0  0  0  0  0  0  0  0  0  0  0  0
    8.0506  -15.1798   19.4299 C   0  0  0  0  0  0  0  0  0  0  0  0
    7.4321  -15.2475   20.5299 O   0  0  0  0  0  0  0  0  0  0  0  0
   11.5864  -20.1969   17.9842 N   0  0  0  0  0  0  0  0  0  0  0  0
   11.3789  -20.3462   19.3823 C   0  0  0  0  0  0  0  0  0  0  0  0
   11.8576  -21.3508   19.9599 O   0  0  0  0  0  0  0  0  0  0  0  0
   10.6166  -19.3514   20.1677 C   0  0  0  0  0  0  0  0  0  0  0  0
   10.2191  -18.2127   19.2576 C   0  0  0  0  0  0  0  0  0  0  0  0
    9.4031  -17.1925   20.0426 C   0  0  2  0  0  0  0  0  0  0  0  0
    9.0667  -16.1230   19.1259 N   0  0  0  0  0  0  0  0  0  0  0  0
   10.2311  -16.6359   21.1411 C   0  0  0  0  0  0  0  0  0  0  0  0
   11.0543  -15.7126   20.9234 O   0  0  0  0  0  0  0  0  0  0  0  0
   11.0989  -16.1547   25.8354 O   0  0  0  0  0  0  0  0  0  0  0  0
   10.2811  -16.7785   24.8771 C   0  0  0  0  0  0  0  0  0  0  0  0
   10.9693  -16.5608   23.5237 C   0  0  2  0  0  0  0  0  0  0  0  0
   10.1292  -17.1200   22.4762 N   0  0  0  0  0  0  0  0  0  0  0  0
   12.2698  -17.2469   23.5821 C   0  0  0  0  0  0  0  0  0  0  0  0
   13.3629  -16.6001   24.1056 O   0  0  0  0  0  0  0  0  0  0  0  0
   12.3829  -18.4105   23.1590 O   0  0  0  0  0  0  0  0  0  0  0  0
  2  1  1  1
  2  3  1  0
  4  5  1  1
  4  2  1  0
  6  7  2  0
  6  4  1  0
  8  9  1  0
  9 10  2  0
  9 11  1  0
 11 12  1  0
 13 12  1  6
 13 15  1  0
 13 14  1  0
 14  6  1  0
 15 20  1  0
 16 15  2  0
 18 17  1  0
 19 18  1  1
 19 21  1  0
 20 19  1  0
 21 23  2  0
 21 22  1  0
M  END
$$$$
