TQS.pdb
     RDKit          3D

 23 22  0  0  1  0  0  0  0  0999 V2000
    7.6285  -12.3983   20.2320 C   0  0  0  0  0  0  0  0  0  0  0  0
    7.7393  -13.6680   19.4353 C   0  0  1  0  0  0  0  0  0  0  0  0
    8.1039  -13.4177   18.1079 O   0  0  0  0  0  0  0  0  0  0  0  0
    8.8052  -14.5324   20.0513 C   0  0  2  0  0  0  0  0  0  0  0  0
    9.0891  -15.7044   19.2722 N   0  0  0  0  0  0  0  0  0  0  0  0
    8.4121  -14.9257   21.4151 C   0  0  0  0  0  0  0  0  0  0  0  0
    7.3016  -14.5586   21.8938 O   0  0  0  0  0  0  0  0  0  0  0  0
   11.1108  -20.0658   22.0270 N   0  0  0  0  0  0  0  0  0  0  0  0
   10.9388  -19.2237   23.1590 C   0  0  0  0  0  0  0  0  0  0  0  0
   11.8853  -19.1050   23.9726 O   0  0  0  0  0  0  0  0  0  0  0  0
    9.6782  -18.4884   23.3991 C   0  0  0  0  0  0  0  0  0  0  0  0
   10.0071  -17.1345   23.9834 C   0  0  0  0  0  0  0  0  0  0  0  0
    8.9581  -16.1199   23.5438 C   0  0  2  0  0  0  0  0  0  0  0  0
    9.2926  -15.7234   22.1916 N   0  0  0  0  0  0  0  0  0  0  0  0
    9.0264  -14.9254   24.4215 C   0  0  0  0  0  0  0  0  0  0  0  0
    9.9939  -14.1278   24.3504 O   0  0  0  0  0  0  0  0  0  0  0  0
    6.1667  -12.6049   25.2071 O   0  0  0  0  0  0  0  0  0  0  0  0
    6.7014  -12.9058   26.4719 C   0  0  0  0  0  0  0  0  0  0  0  0
    8.1107  -13.4556   26.2184 C   0  0  2  0  0  0  0  0  0  0  0  0
    8.0077  -14.6348   25.3730 N   0  0  0  0  0  0  0  0  0  0  0  0
    8.6881  -13.7928   27.5293 C   0  0  0  0  0  0  0  0  0  0  0  0
    8.8439  -12.8147   28.4814 O   0  0  0  0  0  0  0  0  0  0  0  0
    9.0355  -14.9602   27.7784 O   0  0  0  0  0  0  0  0  0  0  0  0
  2  1  1  1
  2  3  1  0
  4  5  1  6
  4  2  1  0
  6  7  2  0
  6  4  1  0
  8  9  1  0
  9 10  2  0
  9 11  1  0
 11 12  1  0
 13 12  1  1
 13 15  1  0
 13 14  1  0
 14  6  1  0
 15 20  1  0
 16 15  2  0
 18 17  1  0
 19 18  1  1
 19 21  1  0
 20 19  1  0
 21 23  2  0
 21 22  1  0
M  END
$$$$
