TQS.pdb
     RDKit          3D

 23 22  0  0  1  0  0  0  0  0999 V2000
    8.6130  -12.5096   20.5672 C   0  0  0  0  0  0  0  0  0  0  0  0
    7.9229  -13.3793   19.5540 C   0  0  1  0  0  0  0  0  0  0  0  0
    8.3006  -13.0533   18.2468 O   0  0  0  0  0  0  0  0  0  0  0  0
    8.3114  -14.8110   19.8029 C   0  0  2  0  0  0  0  0  0  0  0  0
    7.7080  -15.7207   18.8704 N   0  0  0  0  0  0  0  0  0  0  0  0
    7.9551  -15.2003   21.1780 C   0  0  0  0  0  0  0  0  0  0  0  0
    6.7492  -15.4076   21.4940 O   0  0  0  0  0  0  0  0  0  0  0  0
   11.6827  -18.3096   25.0030 N   0  0  0  0  0  0  0  0  0  0  0  0
   10.6710  -17.8627   25.8957 C   0  0  0  0  0  0  0  0  0  0  0  0
   10.7007  -18.2538   27.0866 O   0  0  0  0  0  0  0  0  0  0  0  0
    9.5907  -16.9529   25.4568 C   0  0  0  0  0  0  0  0  0  0  0  0
    9.8072  -16.6050   24.0024 C   0  0  0  0  0  0  0  0  0  0  0  0
    8.6768  -15.7041   23.5191 C   0  0  2  0  0  0  0  0  0  0  0  0
    8.9796  -15.3417   22.1500 N   0  0  0  0  0  0  0  0  0  0  0  0
    8.6411  -14.4699   24.3421 C   0  0  0  0  0  0  0  0  0  0  0  0
    9.6176  -13.6803   24.3625 O   0  0  0  0  0  0  0  0  0  0  0  0
    5.3801  -13.5968   26.6482 O   0  0  0  0  0  0  0  0  0  0  0  0
    6.0507  -12.4689   26.1438 C   0  0  0  0  0  0  0  0  0  0  0  0
    7.5041  -12.9037   25.9175 C   0  0  2  0  0  0  0  0  0  0  0  0
    7.5091  -14.1309   25.1366 N   0  0  0  0  0  0  0  0  0  0  0  0
    8.1054  -13.1175   27.2435 C   0  0  0  0  0  0  0  0  0  0  0  0
    8.5690  -14.3626   27.5929 O   0  0  0  0  0  0  0  0  0  0  0  0
    8.1953  -12.1748   28.0490 O   0  0  0  0  0  0  0  0  0  0  0  0
  2  1  1  1
  2  3  1  0
  4  5  1  6
  4  2  1  0
  6  7  2  0
  6  4  1  0
  8  9  1  0
  9 10  2  0
  9 11  1  0
 11 12  1  0
 13 12  1  1
 13 15  1  0
 13 14  1  0
 14  6  1  0
 15 20  1  0
 16 15  2  0
 18 17  1  0
 19 18  1  1
 19 21  1  0
 20 19  1  0
 21 23  2  0
 21 22  1  0
M  END
$$$$
