TQS.pdb
     RDKit          3D

 23 22  0  0  1  0  0  0  0  0999 V2000
   12.1817  -16.6864   22.5481 C   0  0  0  0  0  0  0  0  0  0  0  0
   11.3326  -16.5352   21.3170 C   0  0  1  0  0  0  0  0  0  0  0  0
   11.9817  -17.0195   20.1761 O   0  0  0  0  0  0  0  0  0  0  0  0
   10.0694  -17.3309   21.5018 C   0  0  2  0  0  0  0  0  0  0  0  0
    9.2500  -17.3541   20.3232 N   0  0  0  0  0  0  0  0  0  0  0  0
    9.2952  -16.7954   22.6345 C   0  0  0  0  0  0  0  0  0  0  0  0
    8.6400  -15.7216   22.5132 O   0  0  0  0  0  0  0  0  0  0  0  0
    7.0319  -20.5526   26.8085 N   0  0  0  0  0  0  0  0  0  0  0  0
    6.4220  -20.0889   25.6114 C   0  0  0  0  0  0  0  0  0  0  0  0
    5.4616  -20.7373   25.1327 O   0  0  0  0  0  0  0  0  0  0  0  0
    6.8899  -18.8676   24.9207 C   0  0  0  0  0  0  0  0  0  0  0  0
    7.9966  -18.2402   25.7359 C   0  0  0  0  0  0  0  0  0  0  0  0
    8.5358  -17.0148   25.0074 C   0  0  2  0  0  0  0  0  0  0  0  0
    9.2898  -17.4965   23.8686 N   0  0  0  0  0  0  0  0  0  0  0  0
    9.4523  -16.2689   25.9050 C   0  0  0  0  0  0  0  0  0  0  0  0
   10.6042  -16.7028   26.1550 O   0  0  0  0  0  0  0  0  0  0  0  0
    8.0354  -13.0643   27.7364 O   0  0  0  0  0  0  0  0  0  0  0  0
    9.4375  -12.9637   27.7209 C   0  0  0  0  0  0  0  0  0  0  0  0
    9.9629  -14.3797   27.4535 C   0  0  2  0  0  0  0  0  0  0  0  0
    9.0691  -15.0410   26.5155 N   0  0  0  0  0  0  0  0  0  0  0  0
    9.9903  -15.0844   28.7451 C   0  0  0  0  0  0  0  0  0  0  0  0
   10.8027  -14.6310   29.7559 O   0  0  0  0  0  0  0  0  0  0  0  0
    9.2804  -16.0890   28.9249 O   0  0  0  0  0  0  0  0  0  0  0  0
  2  1  1  1
  2  3  1  0
  4  5  1  6
  4  2  1  0
  6  7  2  0
  6  4  1  0
  8  9  1  0
  9 10  2  0
  9 11  1  0
 11 12  1  0
 13 12  1  1
 13 15  1  0
 13 14  1  0
 14  6  1  0
 15 20  1  0
 16 15  2  0
 18 17  1  0
 19 18  1  1
 19 21  1  0
 20 19  1  0
 21 23  2  0
 21 22  1  0
M  END
$$$$
