QRF.pdb
     RDKit          3D

 32 32  0  0  1  0  0  0  0  0999 V2000
    6.9789  -12.6496   16.8925 N   0  0  0  0  0  0  0  0  0  0  0  0
    7.2588  -14.0193   17.0865 C   0  0  0  0  0  0  0  0  0  0  0  0
    7.2523  -14.7678   16.0692 O   0  0  0  0  0  0  0  0  0  0  0  0
    7.5584  -14.6386   18.4012 C   0  0  0  0  0  0  0  0  0  0  0  0
    7.4164  -13.6188   19.5037 C   0  0  0  0  0  0  0  0  0  0  0  0
    8.5443  -13.6645   20.4835 C   0  0  2  0  0  0  0  0  0  0  0  0
    9.7968  -13.7136   19.7571 N   0  0  0  0  0  0  0  0  0  0  0  0
    8.4693  -14.7223   21.5042 C   0  0  0  0  0  0  0  0  0  0  0  0
    7.4610  -14.7532   22.2570 O   0  0  0  0  0  0  0  0  0  0  0  0
    8.9591  -22.7674   20.7740 N   0  0  0  0  0  0  0  0  0  0  0  0
    9.3368  -22.7726   22.1469 C   0  0  0  0  0  0  0  0  0  0  0  0
    9.5473  -23.8800   22.7681 N   0  0  0  0  0  0  0  0  0  0  0  0
    9.4765  -21.5244   22.8195 N   0  0  0  0  0  0  0  0  0  0  0  0
    9.0320  -20.3198   22.1661 C   0  0  0  0  0  0  0  0  0  0  0  0
    9.1444  -19.1154   23.0988 C   0  0  0  0  0  0  0  0  0  0  0  0
    9.9825  -18.0269   22.4927 C   0  0  0  0  0  0  0  0  0  0  0  0
    9.2956  -16.7068   22.7228 C   0  0  2  0  0  0  0  0  0  0  0  0
    9.4461  -15.7212   21.7223 N   0  0  0  0  0  0  0  0  0  0  0  0
    9.5595  -16.1404   24.0491 C   0  0  0  0  0  0  0  0  0  0  0  0
   10.5439  -15.3667   24.1974 O   0  0  0  0  0  0  0  0  0  0  0  0
    9.8366  -23.8570   23.7688 N   0  0  0  0  0  0  0  0  0  0  0  0
    8.7329  -16.4448   25.1620 C   0  0  2  0  0  0  0  0  0  0  0  0
    9.0356  -16.0002   26.5293 C   0  0  0  0  0  0  0  0  0  0  0  0
    7.7483  -15.4197   27.0637 C   0  0  0  0  0  0  0  0  0  0  0  0
    7.5644  -13.9904   26.7632 C   0  0  0  0  0  0  0  0  0  0  0  0
    8.5453  -13.0414   26.8976 C   0  0  0  0  0  0  0  0  0  0  0  0
    8.2619  -11.7317   26.5799 C   0  0  0  0  0  0  0  0  0  0  0  0
    7.0071  -11.3456   26.1265 C   0  0  0  0  0  0  0  0  0  0  0  0
    6.0312  -12.2918   25.9934 C   0  0  0  0  0  0  0  0  0  0  0  0
    6.3280  -13.5887   26.3128 C   0  0  0  0  0  0  0  0  0  0  0  0
    9.5770  -17.0912   27.3392 O   0  0  0  0  0  0  0  0  0  0  0  0
    9.4924  -18.2759   26.9481 O   0  0  0  0  0  0  0  0  0  0  0  0
  1  2  1  0
  2  3  2  0
  4  2  1  0
  4  5  1  0
  6  5  1  0
  6  7  1  6
  8  6  1  0
  8  9  2  0
 10 11  1  0
 11 13  1  0
 11 12  2  0
 13 14  1  0
 14 15  1  0
 15 16  1  0
 17 16  1  6
 17 18  1  0
 18  8  1  0
 19 17  1  0
 20 19  2  0
 21 19  1  0
 22 21  1  0
 22 23  1  6
 23 24  1  0
 24 25  2  0
 24 29  1  0
 25 26  1  0
 26 27  2  0
 28 27  1  0
 29 28  2  0
 30 22  1  0
 31 30  2  0
 32 30  1  0
M  END
$$$$
