QRF.pdb
     RDKit          3D

 32 32  0  0  1  0  0  0  0  0999 V2000
    2.3583  -20.5620   23.8097 N   0  0  0  0  0  0  0  0  0  0  0  0
    1.9889  -20.0822   22.5347 C   0  0  0  0  0  0  0  0  0  0  0  0
    1.3486  -20.8646   21.7778 O   0  0  0  0  0  0  0  0  0  0  0  0
    2.3019  -18.7247   22.0238 C   0  0  0  0  0  0  0  0  0  0  0  0
    3.6658  -18.2891   22.4990 C   0  0  0  0  0  0  0  0  0  0  0  0
    4.4879  -17.6732   21.4132 C   0  0  2  0  0  0  0  0  0  0  0  0
    4.6500  -18.6355   20.3424 N   0  0  0  0  0  0  0  0  0  0  0  0
    5.7798  -17.1025   21.8275 C   0  0  0  0  0  0  0  0  0  0  0  0
    6.4860  -17.7545   22.6402 O   0  0  0  0  0  0  0  0  0  0  0  0
   10.5703  -14.1918   17.8004 N   0  0  0  0  0  0  0  0  0  0  0  0
    9.4723  -13.8832   16.9479 C   0  0  0  0  0  0  0  0  0  0  0  0
    9.5297  -14.1267   15.6854 N   0  0  0  0  0  0  0  0  0  0  0  0
    8.3073  -13.2981   17.5226 N   0  0  0  0  0  0  0  0  0  0  0  0
    8.2668  -13.0617   18.9432 C   0  0  0  0  0  0  0  0  0  0  0  0
    8.1162  -14.3717   19.7141 C   0  0  0  0  0  0  0  0  0  0  0  0
    8.0881  -14.1370   21.1970 C   0  0  0  0  0  0  0  0  0  0  0  0
    7.5397  -15.3684   21.8681 C   0  0  2  0  0  0  0  0  0  0  0  0
    6.3064  -15.8648   21.3912 N   0  0  0  0  0  0  0  0  0  0  0  0
    7.5266  -15.2729   23.3311 C   0  0  0  0  0  0  0  0  0  0  0  0
    6.6947  -14.5044   23.8851 O   0  0  0  0  0  0  0  0  0  0  0  0
    8.7291  -13.8556   15.0762 N   0  0  0  0  0  0  0  0  0  0  0  0
    8.4271  -16.0246   24.1302 C   0  0  1  0  0  0  0  0  0  0  0  0
    8.7888  -15.6439   25.5024 C   0  0  0  0  0  0  0  0  0  0  0  0
    7.4808  -15.3984   26.2157 C   0  0  0  0  0  0  0  0  0  0  0  0
    7.1906  -13.9768   26.4644 C   0  0  0  0  0  0  0  0  0  0  0  0
    8.0919  -12.9608   26.2742 C   0  0  0  0  0  0  0  0  0  0  0  0
    7.7078  -11.6638   26.5331 C   0  0  0  0  0  0  0  0  0  0  0  0
    6.4300  -11.3570   26.9827 C   0  0  0  0  0  0  0  0  0  0  0  0
    5.5335  -12.3700   27.1718 C   0  0  0  0  0  0  0  0  0  0  0  0
    5.9299  -13.6531   26.9101 C   0  0  0  0  0  0  0  0  0  0  0  0
    9.6295  -16.6596   26.1356 O   0  0  0  0  0  0  0  0  0  0  0  0
   10.0208  -16.5163   27.3146 O   0  0  0  0  0  0  0  0  0  0  0  0
  1  2  1  0
  2  3  2  0
  4  2  1  0
  4  5  1  0
  6  5  1  0
  6  7  1  6
  8  6  1  0
  8  9  2  0
 10 11  1  0
 11 13  1  0
 11 12  2  0
 13 14  1  0
 14 15  1  0
 15 16  1  0
 17 16  1  6
 17 18  1  0
 18  8  1  0
 19 17  1  0
 20 19  2  0
 21 19  1  0
 22 21  1  0
 22 23  1  1
 23 24  1  0
 24 25  2  0
 24 29  1  0
 25 26  1  0
 26 27  2  0
 28 27  1  0
 29 28  2  0
 30 22  1  0
 31 30  2  0
 32 30  1  0
M  END
$$$$
