QRF.pdb
     RDKit          3D

 32 32  0  0  1  0  0  0  0  0999 V2000
   15.1601  -14.5285   18.2488 N   0  0  0  0  0  0  0  0  0  0  0  0
   14.5891  -15.7575   17.8538 C   0  0  0  0  0  0  0  0  0  0  0  0
   14.9601  -16.2476   16.7506 O   0  0  0  0  0  0  0  0  0  0  0  0
   13.5840  -16.5105   18.6441 C   0  0  0  0  0  0  0  0  0  0  0  0
   13.3580  -15.8402   19.9766 C   0  0  0  0  0  0  0  0  0  0  0  0
   12.3704  -16.5678   20.8307 C   0  0  2  0  0  0  0  0  0  0  0  0
   11.4970  -17.3490   19.9787 N   0  0  0  0  0  0  0  0  0  0  0  0
   11.6046  -15.7413   21.7776 C   0  0  0  0  0  0  0  0  0  0  0  0
   12.2415  -15.0324   22.5999 O   0  0  0  0  0  0  0  0  0  0  0  0
    7.9193  -15.2225   18.2408 N   0  0  0  0  0  0  0  0  0  0  0  0
    7.6273  -13.8550   17.9722 C   0  0  0  0  0  0  0  0  0  0  0  0
    7.9936  -13.3082   16.8662 N   0  0  0  0  0  0  0  0  0  0  0  0
    6.9205  -13.1038   18.9549 N   0  0  0  0  0  0  0  0  0  0  0  0
    6.8354  -13.6107   20.3008 C   0  0  0  0  0  0  0  0  0  0  0  0
    8.2205  -13.7188   20.9356 C   0  0  0  0  0  0  0  0  0  0  0  0
    8.1508  -14.3266   22.3070 C   0  0  0  0  0  0  0  0  0  0  0  0
    9.5340  -14.7659   22.7088 C   0  0  2  0  0  0  0  0  0  0  0  0
   10.1941  -15.6738   21.8515 N   0  0  0  0  0  0  0  0  0  0  0  0
    9.6161  -15.2178   24.1011 C   0  0  0  0  0  0  0  0  0  0  0  0
   10.5769  -14.8226   24.8153 O   0  0  0  0  0  0  0  0  0  0  0  0
    7.8409  -12.2870   16.7264 N   0  0  0  0  0  0  0  0  0  0  0  0
    8.6404  -16.0864   24.6563 C   0  0  2  0  0  0  0  0  0  0  0  0
    8.5726  -16.4018   26.0897 C   0  0  0  0  0  0  0  0  0  0  0  0
    7.2056  -15.9480   26.5428 C   0  0  0  0  0  0  0  0  0  0  0  0
    6.9815  -14.4988   26.4146 C   0  0  0  0  0  0  0  0  0  0  0  0
    5.9120  -13.9382   25.7643 C   0  0  0  0  0  0  0  0  0  0  0  0
    5.8000  -12.5665   25.7125 C   0  0  0  0  0  0  0  0  0  0  0  0
    6.7430  -11.7345   26.3022 C   0  0  0  0  0  0  0  0  0  0  0  0
    7.8076  -12.2942   26.9493 C   0  0  0  0  0  0  0  0  0  0  0  0
    7.9049  -13.6583   26.9923 C   0  0  0  0  0  0  0  0  0  0  0  0
    8.8417  -17.8176   26.3394 O   0  0  0  0  0  0  0  0  0  0  0  0
    8.9409  -18.6233   25.3882 O   0  0  0  0  0  0  0  0  0  0  0  0
  1  2  1  0
  2  3  2  0
  4  2  1  0
  4  5  1  0
  6  5  1  0
  6  7  1  6
  8  6  1  0
  8  9  2  0
 10 11  1  0
 11 13  1  0
 11 12  2  0
 13 14  1  0
 14 15  1  0
 15 16  1  0
 17 16  1  6
 17 18  1  0
 18  8  1  0
 19 17  1  0
 20 19  2  0
 21 19  1  0
 22 21  1  0
 22 23  1  1
 23 24  1  0
 24 25  2  0
 24 29  1  0
 25 26  1  0
 26 27  2  0
 28 27  1  0
 29 28  2  0
 30 22  1  0
 31 30  2  0
 32 30  1  0
M  END
$$$$
