QRF.pdb
     RDKit          3D

 32 32  0  0  1  0  0  0  0  0999 V2000
    9.2177  -12.2566   17.9579 N   0  0  0  0  0  0  0  0  0  0  0  0
    8.2415  -13.1716   17.5084 C   0  0  0  0  0  0  0  0  0  0  0  0
    8.3347  -13.5905   16.3206 O   0  0  0  0  0  0  0  0  0  0  0  0
    7.1151  -13.6728   18.3340 C   0  0  0  0  0  0  0  0  0  0  0  0
    7.3741  -13.3965   19.7943 C   0  0  0  0  0  0  0  0  0  0  0  0
    8.5216  -14.1850   20.3382 C   0  0  2  0  0  0  0  0  0  0  0  0
    9.1172  -14.9517   19.2630 N   0  0  0  0  0  0  0  0  0  0  0  0
    8.2268  -15.0303   21.5064 C   0  0  0  0  0  0  0  0  0  0  0  0
    7.4729  -14.5674   22.4017 O   0  0  0  0  0  0  0  0  0  0  0  0
    6.3758  -22.1251   20.7152 N   0  0  0  0  0  0  0  0  0  0  0  0
    6.3404  -20.9850   19.8630 C   0  0  0  0  0  0  0  0  0  0  0  0
    6.6234  -21.0887   18.6117 N   0  0  0  0  0  0  0  0  0  0  0  0
    5.9850  -19.7251   20.4253 N   0  0  0  0  0  0  0  0  0  0  0  0
    6.5554  -19.3329   21.6888 C   0  0  0  0  0  0  0  0  0  0  0  0
    8.0561  -19.0796   21.5592 C   0  0  0  0  0  0  0  0  0  0  0  0
    8.6383  -18.5570   22.8409 C   0  0  0  0  0  0  0  0  0  0  0  0
    8.4288  -17.0667   22.8915 C   0  0  2  0  0  0  0  0  0  0  0  0
    8.7261  -16.3360   21.7199 N   0  0  0  0  0  0  0  0  0  0  0  0
    9.0432  -16.4353   24.0634 C   0  0  0  0  0  0  0  0  0  0  0  0
   10.2428  -16.0539   23.9924 O   0  0  0  0  0  0  0  0  0  0  0  0
    6.7054  -20.2258   18.0335 N   0  0  0  0  0  0  0  0  0  0  0  0
    8.3175  -16.2466   25.2685 C   0  0  1  0  0  0  0  0  0  0  0  0
    8.9362  -15.7539   26.5067 C   0  0  0  0  0  0  0  0  0  0  0  0
    7.8389  -15.0321   27.2516 C   0  0  0  0  0  0  0  0  0  0  0  0
    7.3767  -13.7996   26.5926 C   0  0  0  0  0  0  0  0  0  0  0  0
    8.1785  -12.7187   26.3288 C   0  0  0  0  0  0  0  0  0  0  0  0
    7.6389  -11.6187   25.6997 C   0  0  0  0  0  0  0  0  0  0  0  0
    6.3023  -11.5749   25.3249 C   0  0  0  0  0  0  0  0  0  0  0  0
    5.5050  -12.6521   25.5884 C   0  0  0  0  0  0  0  0  0  0  0  0
    6.0555  -13.7373   26.2139 C   0  0  0  0  0  0  0  0  0  0  0  0
    9.5541  -16.8409   27.2655 O   0  0  0  0  0  0  0  0  0  0  0  0
   10.2340  -16.5973   28.2863 O   0  0  0  0  0  0  0  0  0  0  0  0
  1  2  1  0
  2  3  2  0
  4  2  1  0
  4  5  1  0
  6  5  1  0
  6  7  1  6
  8  6  1  0
  8  9  2  0
 10 11  1  0
 11 13  1  0
 11 12  2  0
 13 14  1  0
 14 15  1  0
 15 16  1  0
 17 16  1  6
 17 18  1  0
 18  8  1  0
 19 17  1  0
 20 19  2  0
 21 19  1  0
 22 21  1  0
 22 23  1  6
 23 24  1  0
 24 25  2  0
 24 29  1  0
 25 26  1  0
 26 27  2  0
 28 27  1  0
 29 28  2  0
 30 22  1  0
 31 30  2  0
 32 30  1  0
M  END
$$$$
