QRF.pdb
     RDKit          3D

 32 32  0  0  1  0  0  0  0  0999 V2000
   10.6577  -22.7558   19.0313 N   0  0  0  0  0  0  0  0  0  0  0  0
    9.4975  -22.9859   19.8017 C   0  0  0  0  0  0  0  0  0  0  0  0
    8.7179  -23.9054   19.4252 O   0  0  0  0  0  0  0  0  0  0  0  0
    9.1318  -22.2222   21.0201 C   0  0  0  0  0  0  0  0  0  0  0  0
   10.1494  -21.1402   21.2838 C   0  0  0  0  0  0  0  0  0  0  0  0
    9.8456  -20.3469   22.5137 C   0  0  2  0  0  0  0  0  0  0  0  0
    8.5740  -20.7836   23.0531 N   0  0  0  0  0  0  0  0  0  0  0  0
    9.8964  -18.8834   22.3658 C   0  0  0  0  0  0  0  0  0  0  0  0
   10.9653  -18.3632   21.9520 O   0  0  0  0  0  0  0  0  0  0  0  0
    9.7764  -13.8795   18.7831 N   0  0  0  0  0  0  0  0  0  0  0  0
    8.5629  -13.1348   18.7658 C   0  0  0  0  0  0  0  0  0  0  0  0
    8.5360  -11.9295   18.3152 N   0  0  0  0  0  0  0  0  0  0  0  0
    7.3775  -13.7528   19.2587 N   0  0  0  0  0  0  0  0  0  0  0  0
    7.1224  -13.7538   20.6766 C   0  0  0  0  0  0  0  0  0  0  0  0
    8.2193  -14.5022   21.4316 C   0  0  0  0  0  0  0  0  0  0  0  0
    7.8324  -15.9297   21.6911 C   0  0  0  0  0  0  0  0  0  0  0  0
    8.9510  -16.6017   22.4427 C   0  0  2  0  0  0  0  0  0  0  0  0
    8.8366  -17.9932   22.6557 N   0  0  0  0  0  0  0  0  0  0  0  0
    9.3045  -15.9160   23.6894 C   0  0  0  0  0  0  0  0  0  0  0  0
    9.6665  -14.7092   23.6407 O   0  0  0  0  0  0  0  0  0  0  0  0
    7.6397  -11.3984   18.3312 N   0  0  0  0  0  0  0  0  0  0  0  0
    9.2472  -16.5809   24.9421 C   0  0  1  0  0  0  0  0  0  0  0  0
    9.5108  -15.9051   26.2197 C   0  0  0  0  0  0  0  0  0  0  0  0
    8.1576  -15.6896   26.8539 C   0  0  0  0  0  0  0  0  0  0  0  0
    7.5704  -14.3677   26.5805 C   0  0  0  0  0  0  0  0  0  0  0  0
    6.2852  -14.1697   26.1447 C   0  0  0  0  0  0  0  0  0  0  0  0
    5.8392  -12.8850   25.9276 C   0  0  0  0  0  0  0  0  0  0  0  0
    6.6576  -11.7828   26.1383 C   0  0  0  0  0  0  0  0  0  0  0  0
    7.9374  -11.9816   26.5721 C   0  0  0  0  0  0  0  0  0  0  0  0
    8.3658  -13.2637   26.7834 C   0  0  0  0  0  0  0  0  0  0  0  0
   10.4403  -16.6719   27.0488 O   0  0  0  0  0  0  0  0  0  0  0  0
   10.8388  -17.7988   26.6815 O   0  0  0  0  0  0  0  0  0  0  0  0
  1  2  1  0
  2  3  2  0
  4  2  1  0
  4  5  1  0
  6  5  1  0
  6  7  1  6
  8  6  1  0
  8  9  2  0
 10 11  1  0
 11 13  1  0
 11 12  2  0
 13 14  1  0
 14 15  1  0
 15 16  1  0
 17 16  1  1
 17 18  1  0
 18  8  1  0
 19 17  1  0
 20 19  2  0
 21 19  1  0
 22 21  1  0
 22 23  1  6
 23 24  1  0
 24 25  2  0
 24 29  1  0
 25 26  1  0
 26 27  2  0
 28 27  1  0
 29 28  2  0
 30 22  1  0
 31 30  2  0
 32 30  1  0
M  END
$$$$
