QRF.pdb
     RDKit          3D

 32 32  0  0  1  0  0  0  0  0999 V2000
   15.2385  -17.7756   21.6329 N   0  0  0  0  0  0  0  0  0  0  0  0
   13.8528  -18.0298   21.5469 C   0  0  0  0  0  0  0  0  0  0  0  0
   13.4346  -19.1435   21.9711 O   0  0  0  0  0  0  0  0  0  0  0  0
   12.8563  -17.0805   20.9925 C   0  0  0  0  0  0  0  0  0  0  0  0
   13.5404  -15.8214   20.5204 C   0  0  0  0  0  0  0  0  0  0  0  0
   12.5782  -14.7915   20.0228 C   0  0  2  0  0  0  0  0  0  0  0  0
   13.3224  -13.6429   19.5476 N   0  0  0  0  0  0  0  0  0  0  0  0
   11.5144  -14.3966   20.9602 C   0  0  0  0  0  0  0  0  0  0  0  0
   11.7870  -13.5448   21.8460 O   0  0  0  0  0  0  0  0  0  0  0  0
    8.1763  -13.0058   16.0691 N   0  0  0  0  0  0  0  0  0  0  0  0
    8.0916  -14.4167   16.2407 C   0  0  0  0  0  0  0  0  0  0  0  0
    8.2153  -15.2112   15.2357 N   0  0  0  0  0  0  0  0  0  0  0  0
    7.8662  -14.9313   17.5500 N   0  0  0  0  0  0  0  0  0  0  0  0
    8.0606  -14.0689   18.6876 C   0  0  0  0  0  0  0  0  0  0  0  0
    7.6347  -14.7611   19.9809 C   0  0  0  0  0  0  0  0  0  0  0  0
    7.9208  -13.9065   21.1819 C   0  0  0  0  0  0  0  0  0  0  0  0
    9.1978  -14.3860   21.8198 C   0  0  2  0  0  0  0  0  0  0  0  0
   10.1928  -14.8993   20.9588 N   0  0  0  0  0  0  0  0  0  0  0  0
    8.9751  -15.2932   22.9499 C   0  0  0  0  0  0  0  0  0  0  0  0
    9.7458  -16.2793   23.1019 O   0  0  0  0  0  0  0  0  0  0  0  0
    8.2353  -16.2402   15.3978 N   0  0  0  0  0  0  0  0  0  0  0  0
    7.9149  -15.0834   23.8700 C   0  0  2  0  0  0  0  0  0  0  0  0
    7.7080  -15.9231   25.0578 C   0  0  0  0  0  0  0  0  0  0  0  0
    6.5383  -15.3114   25.7908 C   0  0  0  0  0  0  0  0  0  0  0  0
    6.7564  -13.9179   26.2119 C   0  0  0  0  0  0  0  0  0  0  0  0
    5.8457  -12.9075   26.0366 C   0  0  0  0  0  0  0  0  0  0  0  0
    6.1545  -11.6398   26.4773 C   0  0  0  0  0  0  0  0  0  0  0  0
    7.3657  -11.3568   27.0955 C   0  0  0  0  0  0  0  0  0  0  0  0
    8.2717  -12.3641   27.2693 C   0  0  0  0  0  0  0  0  0  0  0  0
    7.9504  -13.6180   26.8263 C   0  0  0  0  0  0  0  0  0  0  0  0
    7.5133  -17.3263   24.6938 O   0  0  0  0  0  0  0  0  0  0  0  0
    7.1564  -17.6395   23.5370 O   0  0  0  0  0  0  0  0  0  0  0  0
  1  2  1  0
  2  3  2  0
  4  2  1  0
  4  5  1  0
  6  5  1  0
  6  7  1  1
  8  6  1  0
  8  9  2  0
 10 11  1  0
 11 13  1  0
 11 12  2  0
 13 14  1  0
 14 15  1  0
 15 16  1  0
 17 16  1  6
 17 18  1  0
 18  8  1  0
 19 17  1  0
 20 19  2  0
 21 19  1  0
 22 21  1  0
 22 23  1  1
 23 24  1  0
 24 25  2  0
 24 29  1  0
 25 26  1  0
 26 27  2  0
 28 27  1  0
 29 28  2  0
 30 22  1  0
 31 30  2  0
 32 30  1  0
M  END
$$$$
