QRF.pdb
     RDKit          3D

 32 32  0  0  1  0  0  0  0  0999 V2000
    7.7969  -12.2777   16.6192 N   0  0  0  0  0  0  0  0  0  0  0  0
    7.8347  -13.5892   16.0988 C   0  0  0  0  0  0  0  0  0  0  0  0
    7.3237  -13.7820   14.9601 O   0  0  0  0  0  0  0  0  0  0  0  0
    8.4315  -14.7544   16.7973 C   0  0  0  0  0  0  0  0  0  0  0  0
    8.8865  -14.3579   18.1799 C   0  0  0  0  0  0  0  0  0  0  0  0
    9.4545  -15.5040   18.9534 C   0  0  2  0  0  0  0  0  0  0  0  0
    9.5237  -16.6657   18.0906 N   0  0  0  0  0  0  0  0  0  0  0  0
    8.7870  -15.8157   20.2276 C   0  0  0  0  0  0  0  0  0  0  0  0
    8.6484  -14.8903   21.0695 O   0  0  0  0  0  0  0  0  0  0  0  0
    7.0515  -22.3902   23.3352 N   0  0  0  0  0  0  0  0  0  0  0  0
    6.9724  -21.8524   24.6512 C   0  0  0  0  0  0  0  0  0  0  0  0
    7.4798  -22.4828   25.6521 N   0  0  0  0  0  0  0  0  0  0  0  0
    6.3186  -20.6003   24.8371 N   0  0  0  0  0  0  0  0  0  0  0  0
    5.6727  -19.9706   23.7138 C   0  0  0  0  0  0  0  0  0  0  0  0
    6.3124  -18.6199   23.3984 C   0  0  0  0  0  0  0  0  0  0  0  0
    7.0002  -18.6355   22.0637 C   0  0  0  0  0  0  0  0  0  0  0  0
    7.6757  -17.3059   21.8556 C   0  0  2  0  0  0  0  0  0  0  0  0
    8.2828  -17.0832   20.5999 N   0  0  0  0  0  0  0  0  0  0  0  0
    8.5910  -16.9453   22.9426 C   0  0  0  0  0  0  0  0  0  0  0  0
    9.8166  -17.2160   22.8235 O   0  0  0  0  0  0  0  0  0  0  0  0
    7.3412  -22.1086   26.6146 N   0  0  0  0  0  0  0  0  0  0  0  0
    8.1262  -16.3013   24.1190 C   0  0  2  0  0  0  0  0  0  0  0  0
    8.9921  -16.0177   25.2716 C   0  0  0  0  0  0  0  0  0  0  0  0
    8.1609  -15.1741   26.2082 C   0  0  0  0  0  0  0  0  0  0  0  0
    8.8273  -14.8581   27.4822 C   0  0  0  0  0  0  0  0  0  0  0  0
    9.4983  -13.6884   27.7323 C   0  0  0  0  0  0  0  0  0  0  0  0
   10.0793  -13.4971   28.9662 C   0  0  0  0  0  0  0  0  0  0  0  0
   10.0038  -14.4587   29.9656 C   0  0  0  0  0  0  0  0  0  0  0  0
    9.3353  -15.6231   29.7149 C   0  0  0  0  0  0  0  0  0  0  0  0
    8.7634  -15.7984   28.4844 C   0  0  0  0  0  0  0  0  0  0  0  0
    9.5009  -17.2494   25.8745 O   0  0  0  0  0  0  0  0  0  0  0  0
    8.7628  -18.2519   25.9920 O   0  0  0  0  0  0  0  0  0  0  0  0
  1  2  1  0
  2  3  2  0
  4  2  1  0
  4  5  1  0
  6  5  1  0
  6  7  1  6
  8  6  1  0
  8  9  2  0
 10 11  1  0
 11 13  1  0
 11 12  2  0
 13 14  1  0
 14 15  1  0
 15 16  1  0
 17 16  1  1
 17 18  1  0
 18  8  1  0
 19 17  1  0
 20 19  2  0
 21 19  1  0
 22 21  1  0
 22 23  1  1
 23 24  1  0
 24 25  2  0
 24 29  1  0
 25 26  1  0
 26 27  2  0
 28 27  1  0
 29 28  2  0
 30 22  1  0
 31 30  2  0
 32 30  1  0
M  END
$$$$
