QRF.pdb
     RDKit          3D

 32 32  0  0  1  0  0  0  0  0999 V2000
    7.3366  -11.9995   18.1227 N   0  0  0  0  0  0  0  0  0  0  0  0
    7.6621  -13.1831   17.4259 C   0  0  0  0  0  0  0  0  0  0  0  0
    7.6777  -13.1340   16.1640 O   0  0  0  0  0  0  0  0  0  0  0  0
    7.9853  -14.4785   18.0734 C   0  0  0  0  0  0  0  0  0  0  0  0
    7.8522  -14.3613   19.5716 C   0  0  0  0  0  0  0  0  0  0  0  0
    9.0757  -14.8177   20.2990 C   0  0  2  0  0  0  0  0  0  0  0  0
    9.9467  -15.5067   19.3687 N   0  0  0  0  0  0  0  0  0  0  0  0
    8.8435  -15.6150   21.5142 C   0  0  0  0  0  0  0  0  0  0  0  0
    7.8186  -15.3681   22.2019 O   0  0  0  0  0  0  0  0  0  0  0  0
    8.3007  -22.2507   19.0911 N   0  0  0  0  0  0  0  0  0  0  0  0
    8.5750  -21.6022   20.3288 C   0  0  0  0  0  0  0  0  0  0  0  0
    7.6291  -21.0586   21.0116 N   0  0  0  0  0  0  0  0  0  0  0  0
    9.9206  -21.5674   20.7958 N   0  0  0  0  0  0  0  0  0  0  0  0
   10.2207  -20.8785   22.0250 C   0  0  0  0  0  0  0  0  0  0  0  0
    9.6192  -19.4745   22.0290 C   0  0  0  0  0  0  0  0  0  0  0  0
    9.9295  -18.7470   23.3053 C   0  0  0  0  0  0  0  0  0  0  0  0
    9.4133  -17.3369   23.1924 C   0  0  2  0  0  0  0  0  0  0  0  0
    9.6841  -16.6479   21.9896 N   0  0  0  0  0  0  0  0  0  0  0  0
    9.7481  -16.5035   24.3512 C   0  0  0  0  0  0  0  0  0  0  0  0
   10.8458  -15.8833   24.3601 O   0  0  0  0  0  0  0  0  0  0  0  0
    7.8566  -20.5826   21.9101 N   0  0  0  0  0  0  0  0  0  0  0  0
    8.8653  -16.3824   25.4560 C   0  0  2  0  0  0  0  0  0  0  0  0
    9.2627  -15.7801   26.7358 C   0  0  0  0  0  0  0  0  0  0  0  0
    8.0192  -15.1169   27.2779 C   0  0  0  0  0  0  0  0  0  0  0  0
    7.6697  -13.8556   26.6043 C   0  0  0  0  0  0  0  0  0  0  0  0
    6.4565  -13.6061   26.0154 C   0  0  0  0  0  0  0  0  0  0  0  0
    6.2371  -12.3844   25.4187 C   0  0  0  0  0  0  0  0  0  0  0  0
    7.2135  -11.3968   25.3972 C   0  0  0  0  0  0  0  0  0  0  0  0
    8.4213  -11.6468   25.9839 C   0  0  0  0  0  0  0  0  0  0  0  0
    8.6240  -12.8651   26.5727 C   0  0  0  0  0  0  0  0  0  0  0  0
    9.8470  -16.7736   27.6363 O   0  0  0  0  0  0  0  0  0  0  0  0
    9.7468  -17.9948   27.3867 O   0  0  0  0  0  0  0  0  0  0  0  0
  1  2  1  0
  2  3  2  0
  4  2  1  0
  4  5  1  0
  6  5  1  0
  6  7  1  6
  8  6  1  0
  8  9  2  0
 10 11  1  0
 11 13  1  0
 11 12  2  0
 13 14  1  0
 14 15  1  0
 15 16  1  0
 17 16  1  6
 17 18  1  0
 18  8  1  0
 19 17  1  0
 20 19  2  0
 21 19  1  0
 22 21  1  0
 22 23  1  6
 23 24  1  0
 24 25  2  0
 24 29  1  0
 25 26  1  0
 26 27  2  0
 28 27  1  0
 29 28  2  0
 30 22  1  0
 31 30  2  0
 32 30  1  0
M  END
$$$$
