QRF.pdb
     RDKit          3D

 32 32  0  0  1  0  0  0  0  0999 V2000
    7.5294  -15.1386   17.0162 N   0  0  0  0  0  0  0  0  0  0  0  0
    7.8080  -13.7560   16.9606 C   0  0  0  0  0  0  0  0  0  0  0  0
    8.3832  -13.3159   15.9259 O   0  0  0  0  0  0  0  0  0  0  0  0
    7.4730  -12.7867   18.0330 C   0  0  0  0  0  0  0  0  0  0  0  0
    6.9906  -13.5146   19.2632 C   0  0  0  0  0  0  0  0  0  0  0  0
    8.1046  -13.8990   20.1826 C   0  0  2  0  0  0  0  0  0  0  0  0
    9.1448  -14.5520   19.4143 N   0  0  0  0  0  0  0  0  0  0  0  0
    7.7227  -14.6941   21.3609 C   0  0  0  0  0  0  0  0  0  0  0  0
    6.9447  -14.1750   22.2033 O   0  0  0  0  0  0  0  0  0  0  0  0
    8.4842  -21.9127   19.1510 N   0  0  0  0  0  0  0  0  0  0  0  0
    9.5973  -21.1706   19.6384 C   0  0  0  0  0  0  0  0  0  0  0  0
   10.5349  -20.7903   18.8429 N   0  0  0  0  0  0  0  0  0  0  0  0
    9.6518  -20.8577   21.0273 N   0  0  0  0  0  0  0  0  0  0  0  0
    8.4916  -20.2912   21.6666 C   0  0  0  0  0  0  0  0  0  0  0  0
    8.6691  -18.7918   21.8980 C   0  0  0  0  0  0  0  0  0  0  0  0
    7.4844  -18.2008   22.6065 C   0  0  0  0  0  0  0  0  0  0  0  0
    7.7128  -16.7218   22.7732 C   0  0  2  0  0  0  0  0  0  0  0  0
    8.1616  -16.0092   21.6393 N   0  0  0  0  0  0  0  0  0  0  0  0
    8.5270  -16.3906   23.9466 C   0  0  0  0  0  0  0  0  0  0  0  0
    9.7752  -16.2758   23.8106 O   0  0  0  0  0  0  0  0  0  0  0  0
   11.3255  -20.2254   19.2187 N   0  0  0  0  0  0  0  0  0  0  0  0
    7.9402  -16.1980   25.2246 C   0  0  1  0  0  0  0  0  0  0  0  0
    8.7303  -15.9661   26.4414 C   0  0  0  0  0  0  0  0  0  0  0  0
    7.9183  -15.0068   27.2782 C   0  0  0  0  0  0  0  0  0  0  0  0
    7.8795  -13.6337   26.7491 C   0  0  0  0  0  0  0  0  0  0  0  0
    6.7377  -12.8826   26.6358 C   0  0  0  0  0  0  0  0  0  0  0  0
    6.8212  -11.6036   26.1319 C   0  0  0  0  0  0  0  0  0  0  0  0
    8.0330  -11.0533   25.7348 C   0  0  0  0  0  0  0  0  0  0  0  0
    9.1693  -11.8026   25.8480 C   0  0  0  0  0  0  0  0  0  0  0  0
    9.0702  -13.0713   26.3505 C   0  0  0  0  0  0  0  0  0  0  0  0
    9.0500  -17.2222   27.1192 O   0  0  0  0  0  0  0  0  0  0  0  0
    9.8444  -17.2393   28.0847 O   0  0  0  0  0  0  0  0  0  0  0  0
  1  2  1  0
  2  3  2  0
  4  2  1  0
  4  5  1  0
  6  5  1  0
  6  7  1  6
  8  6  1  0
  8  9  2  0
 10 11  1  0
 11 13  1  0
 11 12  2  0
 13 14  1  0
 14 15  1  0
 15 16  1  0
 17 16  1  6
 17 18  1  0
 18  8  1  0
 19 17  1  0
 20 19  2  0
 21 19  1  0
 22 21  1  0
 22 23  1  1
 23 24  1  0
 24 25  2  0
 24 29  1  0
 25 26  1  0
 26 27  2  0
 28 27  1  0
 29 28  2  0
 30 22  1  0
 31 30  2  0
 32 30  1  0
M  END
$$$$
