QRF.pdb
     RDKit          3D

 32 32  0  0  1  0  0  0  0  0999 V2000
   11.7423  -11.3514   20.2174 N   0  0  0  0  0  0  0  0  0  0  0  0
   11.6398  -11.9266   18.9326 C   0  0  0  0  0  0  0  0  0  0  0  0
   12.4366  -11.5168   18.0425 O   0  0  0  0  0  0  0  0  0  0  0  0
   10.6612  -12.9768   18.5569 C   0  0  0  0  0  0  0  0  0  0  0  0
    9.8477  -13.3873   19.7592 C   0  0  0  0  0  0  0  0  0  0  0  0
    8.7692  -14.3657   19.4220 C   0  0  2  0  0  0  0  0  0  0  0  0
    7.7044  -13.6713   18.7272 N   0  0  0  0  0  0  0  0  0  0  0  0
    8.2513  -15.1662   20.5433 C   0  0  0  0  0  0  0  0  0  0  0  0
    7.1461  -14.8385   21.0487 O   0  0  0  0  0  0  0  0  0  0  0  0
    7.9225  -21.8058   19.4889 N   0  0  0  0  0  0  0  0  0  0  0  0
    7.6741  -20.7831   18.5298 C   0  0  0  0  0  0  0  0  0  0  0  0
    8.1558  -20.8654   17.3392 N   0  0  0  0  0  0  0  0  0  0  0  0
    6.8801  -19.6650   18.9165 N   0  0  0  0  0  0  0  0  0  0  0  0
    6.8691  -19.2543   20.2974 C   0  0  0  0  0  0  0  0  0  0  0  0
    8.2692  -18.8614   20.7649 C   0  0  0  0  0  0  0  0  0  0  0  0
    8.2688  -18.4359   22.2049 C   0  0  0  0  0  0  0  0  0  0  0  0
    8.3860  -16.9357   22.2628 C   0  0  2  0  0  0  0  0  0  0  0  0
    8.8960  -16.2864   21.1168 N   0  0  0  0  0  0  0  0  0  0  0  0
    9.0606  -16.4540   23.4721 C   0  0  0  0  0  0  0  0  0  0  0  0
   10.3081  -16.2740   23.4443 O   0  0  0  0  0  0  0  0  0  0  0  0
    8.0809  -20.0457   16.7003 N   0  0  0  0  0  0  0  0  0  0  0  0
    8.3401  -16.1883   24.6658 C   0  0  1  0  0  0  0  0  0  0  0  0
    8.9860  -15.7433   25.9082 C   0  0  0  0  0  0  0  0  0  0  0  0
    7.8923  -15.1044   26.7301 C   0  0  0  0  0  0  0  0  0  0  0  0
    7.4492  -13.7947   26.2247 C   0  0  0  0  0  0  0  0  0  0  0  0
    8.2674  -12.8961   25.5891 C   0  0  0  0  0  0  0  0  0  0  0  0
    7.7418  -11.7009   25.1511 C   0  0  0  0  0  0  0  0  0  0  0  0
    6.4030  -11.3809   25.3362 C   0  0  0  0  0  0  0  0  0  0  0  0
    5.5894  -12.2767   25.9694 C   0  0  0  0  0  0  0  0  0  0  0  0
    6.1262  -13.4597   26.3988 C   0  0  0  0  0  0  0  0  0  0  0  0
    9.6677  -16.8478   26.5823 O   0  0  0  0  0  0  0  0  0  0  0  0
   10.3381  -16.6439   27.6180 O   0  0  0  0  0  0  0  0  0  0  0  0
  1  2  1  0
  2  3  2  0
  4  2  1  0
  4  5  1  0
  6  5  1  0
  6  7  1  1
  8  6  1  0
  8  9  2  0
 10 11  1  0
 11 13  1  0
 11 12  2  0
 13 14  1  0
 14 15  1  0
 15 16  1  0
 17 16  1  6
 17 18  1  0
 18  8  1  0
 19 17  1  0
 20 19  2  0
 21 19  1  0
 22 21  1  0
 22 23  1  6
 23 24  1  0
 24 25  2  0
 24 29  1  0
 25 26  1  0
 26 27  2  0
 28 27  1  0
 29 28  2  0
 30 22  1  0
 31 30  2  0
 32 30  1  0
M  END
$$$$
