QRF.pdb
     RDKit          3D

 32 32  0  0  1  0  0  0  0  0999 V2000
    1.5327  -18.7150   21.0250 N   0  0  0  0  0  0  0  0  0  0  0  0
    2.1238  -19.3314   22.1488 C   0  0  0  0  0  0  0  0  0  0  0  0
    1.4329  -20.1767   22.7837 O   0  0  0  0  0  0  0  0  0  0  0  0
    3.4980  -19.0537   22.6347 C   0  0  0  0  0  0  0  0  0  0  0  0
    4.0754  -17.8599   21.9154 C   0  0  0  0  0  0  0  0  0  0  0  0
    5.2741  -18.2043   21.0916 C   0  0  2  0  0  0  0  0  0  0  0  0
    5.1716  -19.5853   20.6661 N   0  0  0  0  0  0  0  0  0  0  0  0
    6.5814  -17.9236   21.7068 C   0  0  0  0  0  0  0  0  0  0  0  0
    7.0039  -18.7107   22.5936 O   0  0  0  0  0  0  0  0  0  0  0  0
    8.6503  -14.8297   17.3562 N   0  0  0  0  0  0  0  0  0  0  0  0
    8.6926  -13.4383   17.6555 C   0  0  0  0  0  0  0  0  0  0  0  0
    8.1184  -12.5812   16.8860 N   0  0  0  0  0  0  0  0  0  0  0  0
    9.3851  -13.0142   18.8261 N   0  0  0  0  0  0  0  0  0  0  0  0
   10.0415  -13.9972   19.6498 C   0  0  0  0  0  0  0  0  0  0  0  0
    9.0235  -14.8454   20.4096 C   0  0  0  0  0  0  0  0  0  0  0  0
    9.6987  -15.8332   21.3169 C   0  0  0  0  0  0  0  0  0  0  0  0
    8.6403  -16.6038   22.0609 C   0  0  2  0  0  0  0  0  0  0  0  0
    7.4181  -16.8286   21.3896 N   0  0  0  0  0  0  0  0  0  0  0  0
    8.3996  -16.0968   23.4153 C   0  0  0  0  0  0  0  0  0  0  0  0
    7.7164  -15.0473   23.5615 O   0  0  0  0  0  0  0  0  0  0  0  0
    8.1912  -11.5659   17.1086 N   0  0  0  0  0  0  0  0  0  0  0  0
    8.9181  -16.7609   24.5575 C   0  0  1  0  0  0  0  0  0  0  0  0
    8.9191  -16.1627   25.8995 C   0  0  0  0  0  0  0  0  0  0  0  0
    7.4818  -15.7988   26.1848 C   0  0  0  0  0  0  0  0  0  0  0  0
    7.2255  -14.3497   26.2207 C   0  0  0  0  0  0  0  0  0  0  0  0
    6.1376  -13.7443   25.6455 C   0  0  0  0  0  0  0  0  0  0  0  0
    5.9959  -12.3782   25.7479 C   0  0  0  0  0  0  0  0  0  0  0  0
    6.9269  -11.5961   26.4192 C   0  0  0  0  0  0  0  0  0  0  0  0
    8.0099  -12.2005   26.9914 C   0  0  0  0  0  0  0  0  0  0  0  0
    8.1366  -13.5583   26.8813 C   0  0  0  0  0  0  0  0  0  0  0  0
    9.5111  -17.0648   26.8870 O   0  0  0  0  0  0  0  0  0  0  0  0
    9.8470  -18.2259   26.5667 O   0  0  0  0  0  0  0  0  0  0  0  0
  1  2  1  0
  2  3  2  0
  4  2  1  0
  4  5  1  0
  6  5  1  0
  6  7  1  1
  8  6  1  0
  8  9  2  0
 10 11  1  0
 11 13  1  0
 11 12  2  0
 13 14  1  0
 14 15  1  0
 15 16  1  0
 17 16  1  6
 17 18  1  0
 18  8  1  0
 19 17  1  0
 20 19  2  0
 21 19  1  0
 22 21  1  0
 22 23  1  1
 23 24  1  0
 24 25  2  0
 24 29  1  0
 25 26  1  0
 26 27  2  0
 28 27  1  0
 29 28  2  0
 30 22  1  0
 31 30  2  0
 32 30  1  0
M  END
$$$$
