QRF.pdb
     RDKit          3D

 32 32  0  0  1  0  0  0  0  0999 V2000
    7.4514  -12.1430   16.7263 N   0  0  0  0  0  0  0  0  0  0  0  0
    7.7377  -13.3574   16.0665 C   0  0  0  0  0  0  0  0  0  0  0  0
    7.5660  -13.3987   14.8159 O   0  0  0  0  0  0  0  0  0  0  0  0
    8.2244  -14.5864   16.7405 C   0  0  0  0  0  0  0  0  0  0  0  0
    8.1227  -14.4363   18.2382 C   0  0  0  0  0  0  0  0  0  0  0  0
    9.2558  -15.0873   18.9637 C   0  0  2  0  0  0  0  0  0  0  0  0
    9.8754  -16.0628   18.0900 N   0  0  0  0  0  0  0  0  0  0  0  0
    8.9324  -15.6664   20.2776 C   0  0  0  0  0  0  0  0  0  0  0  0
    8.3398  -14.9412   21.1186 O   0  0  0  0  0  0  0  0  0  0  0  0
    7.2478  -21.7396   18.7566 N   0  0  0  0  0  0  0  0  0  0  0  0
    8.5956  -22.1984   18.7792 C   0  0  0  0  0  0  0  0  0  0  0  0
    9.0592  -22.9280   17.8257 N   0  0  0  0  0  0  0  0  0  0  0  0
    9.4211  -21.8327   19.8813 N   0  0  0  0  0  0  0  0  0  0  0  0
    8.8366  -21.1303   20.9952 C   0  0  0  0  0  0  0  0  0  0  0  0
    9.1658  -19.6399   20.9387 C   0  0  0  0  0  0  0  0  0  0  0  0
    8.6412  -18.9148   22.1445 C   0  0  0  0  0  0  0  0  0  0  0  0
    8.9407  -17.4471   21.9907 C   0  0  2  0  0  0  0  0  0  0  0  0
    9.2362  -16.9846   20.6893 N   0  0  0  0  0  0  0  0  0  0  0  0
    9.9333  -16.9553   22.9511 C   0  0  0  0  0  0  0  0  0  0  0  0
   11.0024  -17.6045   23.1102 O   0  0  0  0  0  0  0  0  0  0  0  0
   10.0706  -23.1783   17.8199 N   0  0  0  0  0  0  0  0  0  0  0  0
    9.7148  -15.7696   23.7001 C   0  0  2  0  0  0  0  0  0  0  0  0
   10.3474  -15.5174   25.0020 C   0  0  0  0  0  0  0  0  0  0  0  0
    9.2136  -15.2342   25.9582 C   0  0  0  0  0  0  0  0  0  0  0  0
    9.6470  -14.9556   27.3371 C   0  0  0  0  0  0  0  0  0  0  0  0
    9.9851  -15.9221   28.2496 C   0  0  0  0  0  0  0  0  0  0  0  0
   10.3841  -15.5445   29.5124 C   0  0  0  0  0  0  0  0  0  0  0  0
   10.4533  -14.2088   29.8872 C   0  0  0  0  0  0  0  0  0  0  0  0
   10.1161  -13.2475   28.9774 C   0  0  0  0  0  0  0  0  0  0  0  0
    9.7218  -13.6383   27.7269 C   0  0  0  0  0  0  0  0  0  0  0  0
   11.2017  -16.6333   25.4070 O   0  0  0  0  0  0  0  0  0  0  0  0
   12.4154  -16.4505   25.6464 O   0  0  0  0  0  0  0  0  0  0  0  0
  1  2  1  0
  2  3  2  0
  4  2  1  0
  4  5  1  0
  6  5  1  0
  6  7  1  6
  8  6  1  0
  8  9  2  0
 10 11  1  0
 11 13  1  0
 11 12  2  0
 13 14  1  0
 14 15  1  0
 15 16  1  0
 17 16  1  6
 17 18  1  0
 18  8  1  0
 19 17  1  0
 20 19  2  0
 21 19  1  0
 22 21  1  0
 22 23  1  1
 23 24  1  0
 24 25  2  0
 24 29  1  0
 25 26  1  0
 26 27  2  0
 28 27  1  0
 29 28  2  0
 30 22  1  0
 31 30  2  0
 32 30  1  0
M  END
$$$$
