QRF.pdb
     RDKit          3D

 32 32  0  0  1  0  0  0  0  0999 V2000
    8.8243  -12.3160   18.2514 N   0  0  0  0  0  0  0  0  0  0  0  0
    8.2384  -13.4000   17.5630 C   0  0  0  0  0  0  0  0  0  0  0  0
    8.6172  -13.6139   16.3774 O   0  0  0  0  0  0  0  0  0  0  0  0
    7.2091  -14.3024   18.1356 C   0  0  0  0  0  0  0  0  0  0  0  0
    7.1401  -14.1329   19.6330 C   0  0  0  0  0  0  0  0  0  0  0  0
    8.2759  -14.7955   20.3437 C   0  0  2  0  0  0  0  0  0  0  0  0
    8.9799  -15.6511   19.4104 N   0  0  0  0  0  0  0  0  0  0  0  0
    7.9310  -15.5136   21.5813 C   0  0  0  0  0  0  0  0  0  0  0  0
    7.1136  -14.9765   22.3737 O   0  0  0  0  0  0  0  0  0  0  0  0
    4.4514  -21.5460   23.4742 N   0  0  0  0  0  0  0  0  0  0  0  0
    4.7229  -21.7278   22.0883 C   0  0  0  0  0  0  0  0  0  0  0  0
    3.7956  -22.1045   21.2792 N   0  0  0  0  0  0  0  0  0  0  0  0
    6.0446  -21.4839   21.6156 N   0  0  0  0  0  0  0  0  0  0  0  0
    7.0286  -20.9501   22.5225 C   0  0  0  0  0  0  0  0  0  0  0  0
    7.0450  -19.4234   22.4787 C   0  0  0  0  0  0  0  0  0  0  0  0
    8.1745  -18.8621   23.2936 C   0  0  0  0  0  0  0  0  0  0  0  0
    8.1248  -17.3592   23.2129 C   0  0  2  0  0  0  0  0  0  0  0  0
    8.4470  -16.7716   21.9696 N   0  0  0  0  0  0  0  0  0  0  0  0
    8.8513  -16.6969   24.3005 C   0  0  0  0  0  0  0  0  0  0  0  0
   10.0858  -16.4790   24.1659 O   0  0  0  0  0  0  0  0  0  0  0  0
    3.9886  -22.1252   20.2555 N   0  0  0  0  0  0  0  0  0  0  0  0
    8.1951  -16.2989   25.4945 C   0  0  2  0  0  0  0  0  0  0  0  0
    8.9103  -15.7614   26.6600 C   0  0  0  0  0  0  0  0  0  0  0  0
    7.8856  -14.9719   27.4388 C   0  0  0  0  0  0  0  0  0  0  0  0
    7.4477  -13.7349   26.7719 C   0  0  0  0  0  0  0  0  0  0  0  0
    6.1667  -13.2470   26.8155 C   0  0  0  0  0  0  0  0  0  0  0  0
    5.8713  -12.0734   26.1582 C   0  0  0  0  0  0  0  0  0  0  0  0
    6.8377  -11.3697   25.4511 C   0  0  0  0  0  0  0  0  0  0  0  0
    8.1130  -11.8569   25.4085 C   0  0  0  0  0  0  0  0  0  0  0  0
    8.3909  -13.0239   26.0665 C   0  0  0  0  0  0  0  0  0  0  0  0
    9.5524  -16.8255   27.4312 O   0  0  0  0  0  0  0  0  0  0  0  0
    9.2155  -18.0190   27.2708 O   0  0  0  0  0  0  0  0  0  0  0  0
  1  2  1  0
  2  3  2  0
  4  2  1  0
  4  5  1  0
  6  5  1  0
  6  7  1  6
  8  6  1  0
  8  9  2  0
 10 11  1  0
 11 13  1  0
 11 12  2  0
 13 14  1  0
 14 15  1  0
 15 16  1  0
 17 16  1  6
 17 18  1  0
 18  8  1  0
 19 17  1  0
 20 19  2  0
 21 19  1  0
 22 21  1  0
 22 23  1  6
 23 24  1  0
 24 25  2  0
 24 29  1  0
 25 26  1  0
 26 27  2  0
 28 27  1  0
 29 28  2  0
 30 22  1  0
 31 30  2  0
 32 30  1  0
M  END
$$$$
