TDD.pdb
     RDKit          3D

 24 23  0  0  1  0  0  0  0  0999 V2000
    9.3046  -12.5760   20.2598 C   0  0  0  0  0  0  0  0  0  0  0  0
    8.3501  -13.4608   19.5225 C   0  0  1  0  0  0  0  0  0  0  0  0
    7.2236  -12.6957   19.1860 O   0  0  0  0  0  0  0  0  0  0  0  0
    8.9779  -13.9566   18.2413 C   0  0  2  0  0  0  0  0  0  0  0  0
    8.0003  -14.6479   17.4589 N   0  0  0  0  0  0  0  0  0  0  0  0
   10.1191  -14.8677   18.5176 C   0  0  0  0  0  0  0  0  0  0  0  0
    9.9552  -16.1058   18.7535 O   0  0  0  0  0  0  0  0  0  0  0  0
   11.4310  -14.3792   18.5266 N   0  0  0  0  0  0  0  0  0  0  0  0
   12.6213  -15.1012   18.8427 C   0  0  1  0  0  0  0  0  0  0  0  0
   13.8217  -14.3456   18.2625 C   0  0  0  0  0  0  0  0  0  0  0  0
   15.0667  -15.1201   18.3932 C   0  0  0  0  0  0  0  0  0  0  0  0
   16.1702  -14.5413   18.3430 O   0  0  0  0  0  0  0  0  0  0  0  0
   12.7988  -15.1147   20.3159 C   0  0  0  0  0  0  0  0  0  0  0  0
   13.0641  -14.0278   20.8946 O   0  0  0  0  0  0  0  0  0  0  0  0
   14.9921  -16.4932   18.5710 O   0  0  0  0  0  0  0  0  0  0  0  0
   12.6757  -16.3073   21.0533 N   0  0  0  0  0  0  0  0  0  0  0  0
   12.7707  -16.2959   22.4888 C   0  0  1  0  0  0  0  0  0  0  0  0
   12.0172  -17.4770   23.0388 C   0  0  0  0  0  0  0  0  0  0  0  0
   10.5613  -17.3632   22.9511 C   0  0  0  0  0  0  0  0  0  0  0  0
   10.1032  -16.2458   22.5487 O   0  0  0  0  0  0  0  0  0  0  0  0
   14.2121  -16.3358   22.8742 C   0  0  0  0  0  0  0  0  0  0  0  0
   15.1001  -16.6117   22.0277 O   0  0  0  0  0  0  0  0  0  0  0  0
    9.6335  -18.3341   23.2566 O   0  0  0  0  0  0  0  0  0  0  0  0
   14.6333  -16.0736   24.1688 O   0  0  0  0  0  0  0  0  0  0  0  0
  2  1  1  6
  3  2  1  0
  4  2  1  0
  4  6  1  0
  4  5  1  6
  6  7  2  0
  8  9  1  0
  8  6  1  0
  9 10  1  6
 10 11  1  0
 11 15  1  0
 12 11  2  0
 13  9  1  0
 14 13  2  0
 16 13  1  0
 17 21  1  0
 17 16  1  0
 17 18  1  1
 19 18  1  0
 20 19  2  0
 21 24  1  0
 22 21  2  0
 23 19  1  0
M  END
$$$$
