TDD.pdb
     RDKit          3D

 24 23  0  0  1  0  0  0  0  0999 V2000
    9.2458  -12.0863   20.0801 C   0  0  0  0  0  0  0  0  0  0  0  0
    8.1447  -12.9270   19.5160 C   0  0  1  0  0  0  0  0  0  0  0  0
    7.0786  -12.0777   19.1851 O   0  0  0  0  0  0  0  0  0  0  0  0
    8.6047  -13.6139   18.2519 C   0  0  2  0  0  0  0  0  0  0  0  0
    7.4966  -14.2635   17.6229 N   0  0  0  0  0  0  0  0  0  0  0  0
    9.6636  -14.6167   18.5380 C   0  0  0  0  0  0  0  0  0  0  0  0
    9.3912  -15.8080   18.8876 O   0  0  0  0  0  0  0  0  0  0  0  0
   11.0159  -14.2716   18.4291 N   0  0  0  0  0  0  0  0  0  0  0  0
   12.1452  -15.1201   18.6356 C   0  0  1  0  0  0  0  0  0  0  0  0
   13.2814  -14.6562   17.7179 C   0  0  0  0  0  0  0  0  0  0  0  0
   14.4623  -15.5278   17.8312 C   0  0  0  0  0  0  0  0  0  0  0  0
   14.3246  -16.7289   18.1370 O   0  0  0  0  0  0  0  0  0  0  0  0
   12.6269  -14.9492   20.0287 C   0  0  0  0  0  0  0  0  0  0  0  0
   12.8410  -13.7804   20.4465 O   0  0  0  0  0  0  0  0  0  0  0  0
   15.7202  -14.9946   17.5947 O   0  0  0  0  0  0  0  0  0  0  0  0
   12.8415  -16.0597   20.8665 N   0  0  0  0  0  0  0  0  0  0  0  0
   13.2996  -15.8817   22.2186 C   0  0  1  0  0  0  0  0  0  0  0  0
   12.6121  -16.8853   23.1048 C   0  0  0  0  0  0  0  0  0  0  0  0
   13.0368  -16.8514   24.5044 C   0  0  0  0  0  0  0  0  0  0  0  0
   13.8625  -17.7493   24.8682 O   0  0  0  0  0  0  0  0  0  0  0  0
   14.7826  -16.0477   22.2480 C   0  0  0  0  0  0  0  0  0  0  0  0
   15.3712  -16.7534   21.3896 O   0  0  0  0  0  0  0  0  0  0  0  0
   12.6400  -15.9533   25.4701 O   0  0  0  0  0  0  0  0  0  0  0  0
   15.5705  -15.4382   23.2124 O   0  0  0  0  0  0  0  0  0  0  0  0
  2  1  1  6
  3  2  1  0
  4  2  1  0
  4  6  1  0
  4  5  1  1
  6  7  2  0
  8  9  1  0
  8  6  1  0
  9 10  1  6
 10 11  1  0
 11 15  1  0
 12 11  2  0
 13  9  1  0
 14 13  2  0
 16 13  1  0
 17 21  1  0
 17 16  1  0
 17 18  1  1
 19 18  1  0
 20 19  2  0
 21 24  1  0
 22 21  2  0
 23 19  1  0
M  END
$$$$
