TDD.pdb
     RDKit          3D

 24 23  0  0  1  0  0  0  0  0999 V2000
   10.5302  -14.7163   18.7120 C   0  0  0  0  0  0  0  0  0  0  0  0
    9.5899  -13.5529   18.7175 C   0  0  1  0  0  0  0  0  0  0  0  0
    9.6645  -12.9309   17.4625 O   0  0  0  0  0  0  0  0  0  0  0  0
    8.1703  -14.0272   18.9203 C   0  0  2  0  0  0  0  0  0  0  0  0
    7.2689  -12.9233   18.8001 N   0  0  0  0  0  0  0  0  0  0  0  0
    7.9982  -14.6583   20.2548 C   0  0  0  0  0  0  0  0  0  0  0  0
    7.9750  -13.9774   21.3278 O   0  0  0  0  0  0  0  0  0  0  0  0
    7.8547  -16.0461   20.3703 N   0  0  0  0  0  0  0  0  0  0  0  0
    7.7633  -16.8097   21.5730 C   0  0  1  0  0  0  0  0  0  0  0  0
    7.1238  -18.1636   21.2468 C   0  0  0  0  0  0  0  0  0  0  0  0
    5.7439  -18.0095   20.7578 C   0  0  0  0  0  0  0  0  0  0  0  0
    4.8613  -17.5551   21.5125 O   0  0  0  0  0  0  0  0  0  0  0  0
    9.1333  -17.0944   22.0672 C   0  0  0  0  0  0  0  0  0  0  0  0
    9.8801  -17.8270   21.3655 O   0  0  0  0  0  0  0  0  0  0  0  0
    5.4446  -18.3759   19.4544 O   0  0  0  0  0  0  0  0  0  0  0  0
    9.5924  -16.5635   23.2872 N   0  0  0  0  0  0  0  0  0  0  0  0
   10.8600  -16.9691   23.8337 C   0  0  1  0  0  0  0  0  0  0  0  0
   11.8263  -15.8194   23.7349 C   0  0  0  0  0  0  0  0  0  0  0  0
   12.8939  -16.0059   22.7521 C   0  0  0  0  0  0  0  0  0  0  0  0
   12.6386  -15.6371   21.5608 O   0  0  0  0  0  0  0  0  0  0  0  0
   10.6570  -17.3961   25.2493 C   0  0  0  0  0  0  0  0  0  0  0  0
   11.5872  -17.9348   25.9017 O   0  0  0  0  0  0  0  0  0  0  0  0
   14.1446  -16.5369   22.9768 O   0  0  0  0  0  0  0  0  0  0  0  0
    9.4468  -17.2203   25.9027 O   0  0  0  0  0  0  0  0  0  0  0  0
  2  1  1  6
  3  2  1  0
  4  2  1  0
  4  6  1  0
  4  5  1  1
  6  7  2  0
  8  9  1  0
  8  6  1  0
  9 10  1  6
 10 11  1  0
 11 15  1  0
 12 11  2  0
 13  9  1  0
 14 13  2  0
 16 13  1  0
 17 21  1  0
 17 16  1  0
 17 18  1  1
 19 18  1  0
 20 19  2  0
 21 24  1  0
 22 21  2  0
 23 19  1  0
M  END
$$$$
