TDD.pdb
     RDKit          3D

 24 23  0  0  1  0  0  0  0  0999 V2000
   10.2929  -14.5885   18.1378 C   0  0  0  0  0  0  0  0  0  0  0  0
    9.0695  -13.7353   18.2512 C   0  0  1  0  0  0  0  0  0  0  0  0
    8.3954  -13.7806   17.0220 O   0  0  0  0  0  0  0  0  0  0  0  0
    8.1444  -14.2837   19.3119 C   0  0  2  0  0  0  0  0  0  0  0  0
    6.9051  -13.5702   19.2897 N   0  0  0  0  0  0  0  0  0  0  0  0
    8.7499  -14.1737   20.6646 C   0  0  0  0  0  0  0  0  0  0  0  0
    8.2235  -13.4758   21.5873 O   0  0  0  0  0  0  0  0  0  0  0  0
    9.9393  -14.8475   20.9667 N   0  0  0  0  0  0  0  0  0  0  0  0
   10.4406  -15.1809   22.2611 C   0  0  1  0  0  0  0  0  0  0  0  0
    9.4611  -16.1503   22.9314 C   0  0  0  0  0  0  0  0  0  0  0  0
    9.8814  -16.4872   24.3014 C   0  0  0  0  0  0  0  0  0  0  0  0
   10.5644  -15.6791   24.9614 O   0  0  0  0  0  0  0  0  0  0  0  0
   11.7232  -15.9111   22.1067 C   0  0  0  0  0  0  0  0  0  0  0  0
   11.6807  -17.1465   21.8646 O   0  0  0  0  0  0  0  0  0  0  0  0
    9.5083  -17.7089   24.8408 O   0  0  0  0  0  0  0  0  0  0  0  0
   12.9583  -15.2470   22.2270 N   0  0  0  0  0  0  0  0  0  0  0  0
   14.1958  -15.9647   22.0739 C   0  0  1  0  0  0  0  0  0  0  0  0
   15.2572  -15.0132   21.5910 C   0  0  0  0  0  0  0  0  0  0  0  0
   15.0843  -14.5598   20.2109 C   0  0  0  0  0  0  0  0  0  0  0  0
   14.3524  -15.2851   19.4633 O   0  0  0  0  0  0  0  0  0  0  0  0
   14.5611  -16.5755   23.3859 C   0  0  0  0  0  0  0  0  0  0  0  0
   15.6198  -17.2412   23.5166 O   0  0  0  0  0  0  0  0  0  0  0  0
   15.6272  -13.4335   19.6336 O   0  0  0  0  0  0  0  0  0  0  0  0
   13.7587  -16.4383   24.5082 O   0  0  0  0  0  0  0  0  0  0  0  0
  2  1  1  6
  3  2  1  0
  4  2  1  0
  4  6  1  0
  4  5  1  1
  6  7  2  0
  8  9  1  0
  8  6  1  0
  9 10  1  6
 10 11  1  0
 11 15  1  0
 12 11  2  0
 13  9  1  0
 14 13  2  0
 16 13  1  0
 17 21  1  0
 17 16  1  0
 17 18  1  1
 19 18  1  0
 20 19  2  0
 21 24  1  0
 22 21  2  0
 23 19  1  0
M  END
$$$$
