TDD.pdb
     RDKit          3D

 24 23  0  0  1  0  0  0  0  0999 V2000
    9.0108  -12.5563   19.9735 C   0  0  0  0  0  0  0  0  0  0  0  0
    8.1303  -13.4416   19.1498 C   0  0  1  0  0  0  0  0  0  0  0  0
    7.0218  -12.6869   18.7385 O   0  0  0  0  0  0  0  0  0  0  0  0
    8.8636  -13.9065   17.9138 C   0  0  2  0  0  0  0  0  0  0  0  0
    7.9696  -14.6302   17.0637 N   0  0  0  0  0  0  0  0  0  0  0  0
   10.0170  -14.7751   18.2660 C   0  0  0  0  0  0  0  0  0  0  0  0
    9.9230  -16.0420   18.3062 O   0  0  0  0  0  0  0  0  0  0  0  0
   11.2624  -14.2125   18.5696 N   0  0  0  0  0  0  0  0  0  0  0  0
   12.4528  -14.9008   18.9532 C   0  0  1  0  0  0  0  0  0  0  0  0
   13.6629  -14.0945   18.4693 C   0  0  0  0  0  0  0  0  0  0  0  0
   14.9290  -14.7873   18.7591 C   0  0  0  0  0  0  0  0  0  0  0  0
   15.7960  -14.2343   19.4646 O   0  0  0  0  0  0  0  0  0  0  0  0
   12.5309  -14.9375   20.4346 C   0  0  0  0  0  0  0  0  0  0  0  0
   11.8564  -14.0982   21.0883 O   0  0  0  0  0  0  0  0  0  0  0  0
   15.1398  -16.0548   18.2378 O   0  0  0  0  0  0  0  0  0  0  0  0
   13.3359  -15.8822   21.0982 N   0  0  0  0  0  0  0  0  0  0  0  0
   13.0311  -16.2907   22.4436 C   0  0  1  0  0  0  0  0  0  0  0  0
   11.7842  -17.1335   22.4288 C   0  0  0  0  0  0  0  0  0  0  0  0
   10.9632  -17.0250   23.6349 C   0  0  0  0  0  0  0  0  0  0  0  0
   11.3755  -16.2202   24.5309 O   0  0  0  0  0  0  0  0  0  0  0  0
   14.1971  -17.0442   22.9916 C   0  0  0  0  0  0  0  0  0  0  0  0
   14.8418  -16.6085   23.9795 O   0  0  0  0  0  0  0  0  0  0  0  0
    9.7931  -17.6991   23.9052 O   0  0  0  0  0  0  0  0  0  0  0  0
   14.6182  -18.2457   22.4427 O   0  0  0  0  0  0  0  0  0  0  0  0
  2  1  1  1
  3  2  1  0
  4  2  1  0
  4  6  1  0
  4  5  1  6
  6  7  2  0
  8  9  1  0
  8  6  1  0
  9 10  1  6
 10 11  1  0
 11 15  1  0
 12 11  2  0
 13  9  1  0
 14 13  2  0
 16 13  1  0
 17 21  1  0
 17 16  1  0
 17 18  1  6
 19 18  1  0
 20 19  2  0
 21 24  1  0
 22 21  2  0
 23 19  1  0
M  END
$$$$
