TDD.pdb
     RDKit          3D

 24 23  0  0  1  0  0  0  0  0999 V2000
    8.9769  -12.7398   20.5133 C   0  0  0  0  0  0  0  0  0  0  0  0
    7.9735  -13.4208   19.6375 C   0  0  1  0  0  0  0  0  0  0  0  0
    6.9175  -12.5253   19.4129 O   0  0  0  0  0  0  0  0  0  0  0  0
    8.5896  -13.7614   18.3012 C   0  0  2  0  0  0  0  0  0  0  0  0
    7.6066  -14.3621   17.4536 N   0  0  0  0  0  0  0  0  0  0  0  0
    9.7372  -14.6925   18.4583 C   0  0  0  0  0  0  0  0  0  0  0  0
    9.5977  -15.9546   18.4021 O   0  0  0  0  0  0  0  0  0  0  0  0
   11.0282  -14.1971   18.6773 N   0  0  0  0  0  0  0  0  0  0  0  0
   12.2222  -14.9526   18.8808 C   0  0  1  0  0  0  0  0  0  0  0  0
   13.3953  -14.1951   18.2496 C   0  0  0  0  0  0  0  0  0  0  0  0
   14.6543  -14.9493   18.3640 C   0  0  0  0  0  0  0  0  0  0  0  0
   14.9516  -15.8019   17.5038 O   0  0  0  0  0  0  0  0  0  0  0  0
   12.5000  -15.0303   20.3365 C   0  0  0  0  0  0  0  0  0  0  0  0
   12.5925  -13.9539   20.9842 O   0  0  0  0  0  0  0  0  0  0  0  0
   15.4968  -14.6980   19.4362 O   0  0  0  0  0  0  0  0  0  0  0  0
   12.6575  -16.2707   20.9827 N   0  0  0  0  0  0  0  0  0  0  0  0
   12.8911  -16.3353   22.4008 C   0  0  1  0  0  0  0  0  0  0  0  0
   12.1471  -17.5150   22.9664 C   0  0  0  0  0  0  0  0  0  0  0  0
   12.1963  -17.6220   24.4246 C   0  0  0  0  0  0  0  0  0  0  0  0
   12.8824  -16.7404   25.0350 O   0  0  0  0  0  0  0  0  0  0  0  0
   14.3602  -16.4461   22.6401 C   0  0  0  0  0  0  0  0  0  0  0  0
   15.0288  -17.3826   22.1330 O   0  0  0  0  0  0  0  0  0  0  0  0
   11.5806  -18.5728   25.2079 O   0  0  0  0  0  0  0  0  0  0  0  0
   15.0473  -15.5318   23.4237 O   0  0  0  0  0  0  0  0  0  0  0  0
  2  1  1  1
  3  2  1  0
  4  2  1  0
  4  6  1  0
  4  5  1  6
  6  7  2  0
  8  9  1  0
  8  6  1  0
  9 10  1  6
 10 11  1  0
 11 15  1  0
 12 11  2  0
 13  9  1  0
 14 13  2  0
 16 13  1  0
 17 21  1  0
 17 16  1  0
 17 18  1  6
 19 18  1  0
 20 19  2  0
 21 24  1  0
 22 21  2  0
 23 19  1  0
M  END
$$$$
