TDD.pdb
     RDKit          3D

 24 23  0  0  1  0  0  0  0  0999 V2000
    7.3403  -12.2449   19.4417 C   0  0  0  0  0  0  0  0  0  0  0  0
    8.5350  -13.1124   19.6818 C   0  0  1  0  0  0  0  0  0  0  0  0
    8.1910  -14.0619   20.6553 O   0  0  0  0  0  0  0  0  0  0  0  0
    8.9080  -13.8521   18.4188 C   0  0  2  0  0  0  0  0  0  0  0  0
    7.7965  -14.6308   17.9674 N   0  0  0  0  0  0  0  0  0  0  0  0
   10.0747  -14.7453   18.6418 C   0  0  0  0  0  0  0  0  0  0  0  0
    9.9545  -16.0079   18.7254 O   0  0  0  0  0  0  0  0  0  0  0  0
   11.3627  -14.2119   18.7691 N   0  0  0  0  0  0  0  0  0  0  0  0
   12.5881  -14.9315   18.9052 C   0  0  1  0  0  0  0  0  0  0  0  0
   13.6947  -14.1565   18.1819 C   0  0  0  0  0  0  0  0  0  0  0  0
   14.9696  -14.8925   18.1916 C   0  0  0  0  0  0  0  0  0  0  0  0
   14.9720  -16.1356   18.2909 O   0  0  0  0  0  0  0  0  0  0  0  0
   12.9652  -14.9721   20.3399 C   0  0  0  0  0  0  0  0  0  0  0  0
   13.2335  -13.8851   20.9170 O   0  0  0  0  0  0  0  0  0  0  0  0
   16.1581  -14.1856   18.0900 O   0  0  0  0  0  0  0  0  0  0  0  0
   13.0241  -16.1899   21.0432 N   0  0  0  0  0  0  0  0  0  0  0  0
   13.4151  -16.2200   22.4274 C   0  0  1  0  0  0  0  0  0  0  0  0
   12.6859  -17.3411   23.1178 C   0  0  0  0  0  0  0  0  0  0  0  0
   11.2441  -17.1345   23.2550 C   0  0  0  0  0  0  0  0  0  0  0  0
   10.8751  -16.0169   23.7400 O   0  0  0  0  0  0  0  0  0  0  0  0
   14.8950  -16.3979   22.5037 C   0  0  0  0  0  0  0  0  0  0  0  0
   15.4840  -16.4453   23.6137 O   0  0  0  0  0  0  0  0  0  0  0  0
   10.2436  -18.0181   22.9160 O   0  0  0  0  0  0  0  0  0  0  0  0
   15.6795  -16.5177   21.3668 O   0  0  0  0  0  0  0  0  0  0  0  0
  2  1  1  6
  3  2  1  0
  4  2  1  0
  4  6  1  0
  4  5  1  1
  6  7  2  0
  8  9  1  0
  8  6  1  0
  9 10  1  6
 10 11  1  0
 11 15  1  0
 12 11  2  0
 13  9  1  0
 14 13  2  0
 16 13  1  0
 17 21  1  0
 17 16  1  0
 17 18  1  1
 19 18  1  0
 20 19  2  0
 21 24  1  0
 22 21  2  0
 23 19  1  0
M  END
$$$$
