TDD.pdb
     RDKit          3D

 24 23  0  0  1  0  0  0  0  0999 V2000
    7.6817  -11.9807   19.3295 C   0  0  0  0  0  0  0  0  0  0  0  0
    8.8618  -12.8679   19.5701 C   0  0  1  0  0  0  0  0  0  0  0  0
    8.5449  -13.7309   20.6296 O   0  0  0  0  0  0  0  0  0  0  0  0
    9.1414  -13.7110   18.3484 C   0  0  2  0  0  0  0  0  0  0  0  0
    7.9876  -14.4916   18.0242 N   0  0  0  0  0  0  0  0  0  0  0  0
   10.2993  -14.6157   18.5713 C   0  0  0  0  0  0  0  0  0  0  0  0
   10.1552  -15.8620   18.7751 O   0  0  0  0  0  0  0  0  0  0  0  0
   11.6054  -14.1119   18.5635 N   0  0  0  0  0  0  0  0  0  0  0  0
   12.8162  -14.8426   18.7579 C   0  0  1  0  0  0  0  0  0  0  0  0
   13.9709  -14.0540   18.1308 C   0  0  0  0  0  0  0  0  0  0  0  0
   15.2478  -14.7781   18.2424 C   0  0  0  0  0  0  0  0  0  0  0  0
   16.2903  -14.1626   18.5416 O   0  0  0  0  0  0  0  0  0  0  0  0
   13.0990  -14.9267   20.2123 C   0  0  0  0  0  0  0  0  0  0  0  0
   13.2493  -13.8530   20.8536 O   0  0  0  0  0  0  0  0  0  0  0  0
   15.2713  -16.1449   18.0103 O   0  0  0  0  0  0  0  0  0  0  0  0
   13.1983  -16.1701   20.8641 N   0  0  0  0  0  0  0  0  0  0  0  0
   13.4840  -16.2400   22.2725 C   0  0  1  0  0  0  0  0  0  0  0  0
   12.6432  -17.3252   22.8894 C   0  0  0  0  0  0  0  0  0  0  0  0
   12.2685  -17.0850   24.2831 C   0  0  0  0  0  0  0  0  0  0  0  0
   12.8072  -16.0807   24.8501 O   0  0  0  0  0  0  0  0  0  0  0  0
   14.9417  -16.5046   22.4533 C   0  0  0  0  0  0  0  0  0  0  0  0
   15.6087  -17.0867   21.5602 O   0  0  0  0  0  0  0  0  0  0  0  0
   11.3961  -17.8278   25.0473 O   0  0  0  0  0  0  0  0  0  0  0  0
   15.6198  -16.1251   23.6016 O   0  0  0  0  0  0  0  0  0  0  0  0
  2  1  1  6
  3  2  1  0
  4  2  1  0
  4  6  1  0
  4  5  1  1
  6  7  2  0
  8  9  1  0
  8  6  1  0
  9 10  1  6
 10 11  1  0
 11 15  1  0
 12 11  2  0
 13  9  1  0
 14 13  2  0
 16 13  1  0
 17 21  1  0
 17 16  1  0
 17 18  1  6
 19 18  1  0
 20 19  2  0
 21 24  1  0
 22 21  2  0
 23 19  1  0
M  END
$$$$
