TDD.pdb
     RDKit          3D

 24 23  0  0  1  0  0  0  0  0999 V2000
    8.6997  -16.0703   18.3525 C   0  0  0  0  0  0  0  0  0  0  0  0
    8.6945  -14.5906   18.1335 C   0  0  1  0  0  0  0  0  0  0  0  0
    7.8996  -14.3228   17.0092 O   0  0  0  0  0  0  0  0  0  0  0  0
    8.0782  -13.8873   19.3197 C   0  0  2  0  0  0  0  0  0  0  0  0
    7.8317  -12.5163   18.9955 N   0  0  0  0  0  0  0  0  0  0  0  0
    8.9660  -13.9583   20.5094 C   0  0  0  0  0  0  0  0  0  0  0  0
   10.0036  -13.2331   20.6242 O   0  0  0  0  0  0  0  0  0  0  0  0
    8.6801  -14.8425   21.5565 N   0  0  0  0  0  0  0  0  0  0  0  0
    9.4365  -15.0437   22.7504 C   0  0  1  0  0  0  0  0  0  0  0  0
    8.6307  -15.9411   23.6959 C   0  0  0  0  0  0  0  0  0  0  0  0
    9.3147  -16.1241   24.9865 C   0  0  0  0  0  0  0  0  0  0  0  0
    8.7266  -15.8440   26.0499 O   0  0  0  0  0  0  0  0  0  0  0  0
   10.6772  -15.7853   22.4144 C   0  0  0  0  0  0  0  0  0  0  0  0
   10.5793  -16.8200   21.7026 O   0  0  0  0  0  0  0  0  0  0  0  0
   10.6138  -16.6087   24.9994 O   0  0  0  0  0  0  0  0  0  0  0  0
   11.9335  -15.3499   22.8760 N   0  0  0  0  0  0  0  0  0  0  0  0
   13.1388  -16.0199   22.4660 C   0  0  1  0  0  0  0  0  0  0  0  0
   14.1902  -14.9891   22.1540 C   0  0  0  0  0  0  0  0  0  0  0  0
   15.5002  -15.5423   21.8102 C   0  0  0  0  0  0  0  0  0  0  0  0
   15.6049  -16.0800   20.6612 O   0  0  0  0  0  0  0  0  0  0  0  0
   13.5748  -16.9351   23.5614 C   0  0  0  0  0  0  0  0  0  0  0  0
   13.0399  -16.8834   24.6983 O   0  0  0  0  0  0  0  0  0  0  0  0
   16.6319  -15.5437   22.5951 O   0  0  0  0  0  0  0  0  0  0  0  0
   14.5785  -17.8739   23.3778 O   0  0  0  0  0  0  0  0  0  0  0  0
  2  1  1  1
  3  2  1  0
  4  2  1  0
  4  6  1  0
  4  5  1  6
  6  7  2  0
  8  9  1  0
  8  6  1  0
  9 10  1  1
 10 11  1  0
 11 15  1  0
 12 11  2  0
 13  9  1  0
 14 13  2  0
 16 13  1  0
 17 21  1  0
 17 16  1  0
 17 18  1  1
 19 18  1  0
 20 19  2  0
 21 24  1  0
 22 21  2  0
 23 19  1  0
M  END
$$$$
