TDD.pdb
     RDKit          3D

 24 23  0  0  1  0  0  0  0  0999 V2000
    9.0073  -15.5587   17.2839 C   0  0  0  0  0  0  0  0  0  0  0  0
    8.8695  -14.0865   17.5101 C   0  0  1  0  0  0  0  0  0  0  0  0
    8.4686  -13.4991   16.3011 O   0  0  0  0  0  0  0  0  0  0  0  0
    7.7993  -13.8124   18.5402 C   0  0  2  0  0  0  0  0  0  0  0  0
    7.5533  -12.4057   18.6205 N   0  0  0  0  0  0  0  0  0  0  0  0
    8.1981  -14.3181   19.8795 C   0  0  0  0  0  0  0  0  0  0  0  0
    9.0049  -13.6844   20.6299 O   0  0  0  0  0  0  0  0  0  0  0  0
    7.6877  -15.5293   20.3616 N   0  0  0  0  0  0  0  0  0  0  0  0
    8.0449  -16.1991   21.5706 C   0  0  1  0  0  0  0  0  0  0  0  0
    7.2600  -17.5127   21.6537 C   0  0  0  0  0  0  0  0  0  0  0  0
    7.5756  -18.2580   22.8834 C   0  0  0  0  0  0  0  0  0  0  0  0
    8.4045  -17.8006   23.6951 O   0  0  0  0  0  0  0  0  0  0  0  0
    9.4818  -16.5652   21.5111 C   0  0  0  0  0  0  0  0  0  0  0  0
    9.8511  -17.3903   20.6340 O   0  0  0  0  0  0  0  0  0  0  0  0
    6.9411  -19.4676   23.1213 O   0  0  0  0  0  0  0  0  0  0  0  0
   10.4127  -16.0093   22.4086 N   0  0  0  0  0  0  0  0  0  0  0  0
   11.7870  -16.4346   22.3978 C   0  0  1  0  0  0  0  0  0  0  0  0
   12.6380  -15.3268   21.8373 C   0  0  0  0  0  0  0  0  0  0  0  0
   13.8064  -15.7807   21.0829 C   0  0  0  0  0  0  0  0  0  0  0  0
   13.9472  -17.0398   20.9589 O   0  0  0  0  0  0  0  0  0  0  0  0
   12.1909  -16.7864   23.7908 C   0  0  0  0  0  0  0  0  0  0  0  0
   13.3369  -17.2422   24.0361 O   0  0  0  0  0  0  0  0  0  0  0  0
   14.7698  -14.9931   20.4926 O   0  0  0  0  0  0  0  0  0  0  0  0
   11.3305  -16.6287   24.8666 O   0  0  0  0  0  0  0  0  0  0  0  0
  2  1  1  6
  3  2  1  0
  4  2  1  0
  4  6  1  0
  4  5  1  1
  6  7  2  0
  8  9  1  0
  8  6  1  0
  9 10  1  6
 10 11  1  0
 11 15  1  0
 12 11  2  0
 13  9  1  0
 14 13  2  0
 16 13  1  0
 17 21  1  0
 17 16  1  0
 17 18  1  1
 19 18  1  0
 20 19  2  0
 21 24  1  0
 22 21  2  0
 23 19  1  0
M  END
$$$$
