TDD.pdb
     RDKit          3D

 24 23  0  0  1  0  0  0  0  0999 V2000
    7.7229  -14.4363   16.8228 C   0  0  0  0  0  0  0  0  0  0  0  0
    8.7456  -14.5448   17.9091 C   0  0  1  0  0  0  0  0  0  0  0  0
    9.9450  -13.9979   17.4297 O   0  0  0  0  0  0  0  0  0  0  0  0
    8.3160  -13.7438   19.1154 C   0  0  2  0  0  0  0  0  0  0  0  0
    8.1163  -12.3773   18.7434 N   0  0  0  0  0  0  0  0  0  0  0  0
    9.3311  -13.8143   20.1986 C   0  0  0  0  0  0  0  0  0  0  0  0
   10.1808  -12.8889   20.3914 O   0  0  0  0  0  0  0  0  0  0  0  0
    9.3817  -14.9222   21.0528 N   0  0  0  0  0  0  0  0  0  0  0  0
   10.3768  -15.2141   22.0339 C   0  0  1  0  0  0  0  0  0  0  0  0
    9.8487  -16.3199   22.9541 C   0  0  0  0  0  0  0  0  0  0  0  0
   10.8131  -16.6505   24.0160 C   0  0  0  0  0  0  0  0  0  0  0  0
   11.7210  -15.8467   24.3071 O   0  0  0  0  0  0  0  0  0  0  0  0
   11.5761  -15.7632   21.3539 C   0  0  0  0  0  0  0  0  0  0  0  0
   11.5028  -16.9179   20.8557 O   0  0  0  0  0  0  0  0  0  0  0  0
   10.6961  -17.8615   24.6811 O   0  0  0  0  0  0  0  0  0  0  0  0
   12.7674  -15.0191   21.2649 N   0  0  0  0  0  0  0  0  0  0  0  0
   13.9771  -15.6256   20.7762 C   0  0  1  0  0  0  0  0  0  0  0  0
   14.7359  -14.6152   19.9586 C   0  0  0  0  0  0  0  0  0  0  0  0
   14.4852  -14.6869   18.5191 C   0  0  0  0  0  0  0  0  0  0  0  0
   15.1592  -13.8939   17.7860 O   0  0  0  0  0  0  0  0  0  0  0  0
   14.7784  -16.1030   21.9414 C   0  0  0  0  0  0  0  0  0  0  0  0
   15.6647  -16.9836   21.7990 O   0  0  0  0  0  0  0  0  0  0  0  0
   13.5996  -15.5195   17.8718 O   0  0  0  0  0  0  0  0  0  0  0  0
   14.5845  -15.6030   23.2199 O   0  0  0  0  0  0  0  0  0  0  0  0
  2  1  1  6
  3  2  1  0
  4  2  1  0
  4  6  1  0
  4  5  1  6
  6  7  2  0
  8  9  1  0
  8  6  1  0
  9 10  1  1
 10 11  1  0
 11 15  1  0
 12 11  2  0
 13  9  1  0
 14 13  2  0
 16 13  1  0
 17 21  1  0
 17 16  1  0
 17 18  1  1
 19 18  1  0
 20 19  2  0
 21 24  1  0
 22 21  2  0
 23 19  1  0
M  END
$$$$
