TDD.pdb
     RDKit          3D

 24 23  0  0  1  0  0  0  0  0999 V2000
    8.4857  -11.8022   18.8754 C   0  0  0  0  0  0  0  0  0  0  0  0
    8.2833  -12.8559   19.9177 C   0  0  1  0  0  0  0  0  0  0  0  0
    6.9026  -13.0341   20.0896 O   0  0  0  0  0  0  0  0  0  0  0  0
    8.8701  -14.1690   19.4564 C   0  0  2  0  0  0  0  0  0  0  0  0
    8.1134  -14.6772   18.3543 N   0  0  0  0  0  0  0  0  0  0  0  0
    8.8744  -15.1722   20.5529 C   0  0  0  0  0  0  0  0  0  0  0  0
    7.9217  -15.2653   21.3892 O   0  0  0  0  0  0  0  0  0  0  0  0
    9.9476  -16.0592   20.6991 N   0  0  0  0  0  0  0  0  0  0  0  0
   10.1408  -17.0207   21.7364 C   0  0  1  0  0  0  0  0  0  0  0  0
   10.4182  -18.3847   21.0952 C   0  0  0  0  0  0  0  0  0  0  0  0
    9.4665  -18.6799   20.0116 C   0  0  0  0  0  0  0  0  0  0  0  0
    8.3788  -18.0726   19.9534 O   0  0  0  0  0  0  0  0  0  0  0  0
   11.3556  -16.6584   22.5079 C   0  0  0  0  0  0  0  0  0  0  0  0
   11.6553  -15.4393   22.6105 O   0  0  0  0  0  0  0  0  0  0  0  0
    9.7972  -19.6374   19.0648 O   0  0  0  0  0  0  0  0  0  0  0  0
   12.1565  -17.6460   23.1112 N   0  0  0  0  0  0  0  0  0  0  0  0
   13.2372  -17.2803   23.9877 C   0  0  1  0  0  0  0  0  0  0  0  0
   13.3046  -18.2687   25.1208 C   0  0  0  0  0  0  0  0  0  0  0  0
   12.5700  -17.8680   26.3209 C   0  0  0  0  0  0  0  0  0  0  0  0
   11.4028  -17.3936   26.1393 O   0  0  0  0  0  0  0  0  0  0  0  0
   14.5057  -17.2587   23.2015 C   0  0  0  0  0  0  0  0  0  0  0  0
   14.6722  -18.0291   22.2217 O   0  0  0  0  0  0  0  0  0  0  0  0
   13.0047  -17.9488   27.6252 O   0  0  0  0  0  0  0  0  0  0  0  0
   15.5471  -16.3977   23.5119 O   0  0  0  0  0  0  0  0  0  0  0  0
  2  1  1  6
  3  2  1  0
  4  2  1  0
  4  6  1  0
  4  5  1  6
  6  7  2  0
  8  9  1  0
  8  6  1  0
  9 10  1  6
 10 11  1  0
 11 15  1  0
 12 11  2  0
 13  9  1  0
 14 13  2  0
 16 13  1  0
 17 21  1  0
 17 16  1  0
 17 18  1  1
 19 18  1  0
 20 19  2  0
 21 24  1  0
 22 21  2  0
 23 19  1  0
M  END
$$$$
