FSQ.pdb
     RDKit          3D

 27 27  0  0  1  0  0  0  0  0999 V2000
    6.7987  -16.5810   25.9802 N   0  0  0  0  0  0  0  0  0  0  0  0
    7.3893  -15.7822   24.9265 C   0  0  1  0  0  0  0  0  0  0  0  0
    8.0498  -14.5420   25.4872 C   0  0  0  0  0  0  0  0  0  0  0  0
    7.0647  -13.4700   25.7590 C   0  0  0  0  0  0  0  0  0  0  0  0
    6.7023  -13.1307   27.0513 C   0  0  0  0  0  0  0  0  0  0  0  0
    5.7790  -12.1260   27.3055 C   0  0  0  0  0  0  0  0  0  0  0  0
    5.1987  -11.4392   26.2666 C   0  0  0  0  0  0  0  0  0  0  0  0
    5.5412  -11.7569   24.9819 C   0  0  0  0  0  0  0  0  0  0  0  0
    6.4600  -12.7574   24.7444 C   0  0  0  0  0  0  0  0  0  0  0  0
    8.3229  -16.6172   24.1659 C   0  0  0  0  0  0  0  0  0  0  0  0
    9.0645  -17.4608   24.7403 O   0  0  0  0  0  0  0  0  0  0  0  0
    9.2396  -15.6344   20.1127 O   0  0  0  0  0  0  0  0  0  0  0  0
    9.5606  -16.9086   20.5718 C   0  0  0  0  0  0  0  0  0  0  0  0
    9.6624  -16.9675   22.0708 C   0  0  2  0  0  0  0  0  0  0  0  0
    8.4679  -16.5473   22.7418 N   0  0  0  0  0  0  0  0  0  0  0  0
   10.8612  -16.1985   22.5057 C   0  0  0  0  0  0  0  0  0  0  0  0
   10.7034  -14.9588   22.6130 O   0  0  0  0  0  0  0  0  0  0  0  0
   10.8817  -17.1300   27.6047 N   0  0  0  0  0  0  0  0  0  0  0  0
   11.7554  -16.0223   27.5395 C   0  0  0  0  0  0  0  0  0  0  0  0
   11.8905  -15.3027   28.5480 O   0  0  0  0  0  0  0  0  0  0  0  0
   12.4864  -15.7288   26.3075 C   0  0  0  0  0  0  0  0  0  0  0  0
   12.2103  -16.6677   25.1861 C   0  0  0  0  0  0  0  0  0  0  0  0
   12.9500  -16.4540   23.9236 C   0  0  2  0  0  0  0  0  0  0  0  0
   12.1011  -16.7976   22.7843 N   0  0  0  0  0  0  0  0  0  0  0  0
   14.1919  -17.2756   23.8535 C   0  0  0  0  0  0  0  0  0  0  0  0
   15.2812  -16.7249   24.1100 O   0  0  0  0  0  0  0  0  0  0  0  0
   14.2017  -18.6085   23.5190 O   0  0  0  0  0  0  0  0  0  0  0  0
  2  1  1  1
  3  2  1  0
  4  3  1  0
  4  9  2  0
  5  4  1  0
  6  5  2  0
  6  7  1  0
  7  8  2  0
  8  9  1  0
 10  2  1  0
 11 10  2  0
 12 13  1  0
 14 13  1  6
 14 16  1  0
 14 15  1  0
 15 10  1  0
 16 17  2  0
 18 19  1  0
 19 21  1  0
 20 19  2  0
 21 22  1  0
 23 22  1  1
 24 23  1  0
 24 16  1  0
 25 27  1  0
 25 23  1  0
 26 25  2  0
M  END
$$$$
