FSQ.pdb
     RDKit          3D

 27 27  0  0  1  0  0  0  0  0999 V2000
    6.5143  -16.2880   25.5330 N   0  0  0  0  0  0  0  0  0  0  0  0
    7.2086  -15.5565   24.4938 C   0  0  1  0  0  0  0  0  0  0  0  0
    8.0560  -14.4486   25.0797 C   0  0  0  0  0  0  0  0  0  0  0  0
    7.2245  -13.3659   25.6537 C   0  0  0  0  0  0  0  0  0  0  0  0
    7.1392  -13.1663   27.0210 C   0  0  0  0  0  0  0  0  0  0  0  0
    6.3597  -12.1514   27.5585 C   0  0  0  0  0  0  0  0  0  0  0  0
    5.6480  -11.3138   26.7342 C   0  0  0  0  0  0  0  0  0  0  0  0
    5.7168  -11.4918   25.3806 C   0  0  0  0  0  0  0  0  0  0  0  0
    6.4954  -12.5043   24.8606 C   0  0  0  0  0  0  0  0  0  0  0  0
    7.9962  -16.5002   23.6960 C   0  0  0  0  0  0  0  0  0  0  0  0
    8.3859  -17.5992   24.1774 O   0  0  0  0  0  0  0  0  0  0  0  0
   10.4220  -15.0550   20.3880 O   0  0  0  0  0  0  0  0  0  0  0  0
    9.8575  -16.3272   20.3752 C   0  0  0  0  0  0  0  0  0  0  0  0
    9.5591  -16.8343   21.7588 C   0  0  2  0  0  0  0  0  0  0  0  0
    8.3800  -16.2596   22.3362 N   0  0  0  0  0  0  0  0  0  0  0  0
   10.7631  -16.6453   22.6145 C   0  0  0  0  0  0  0  0  0  0  0  0
   10.7869  -15.5929   23.2963 O   0  0  0  0  0  0  0  0  0  0  0  0
   10.4298  -19.2365   27.1361 N   0  0  0  0  0  0  0  0  0  0  0  0
   11.8357  -19.2082   27.2669 C   0  0  0  0  0  0  0  0  0  0  0  0
   12.3507  -19.6360   28.3180 O   0  0  0  0  0  0  0  0  0  0  0  0
   12.6685  -18.6848   26.1848 C   0  0  0  0  0  0  0  0  0  0  0  0
   11.9115  -18.2279   24.9876 C   0  0  0  0  0  0  0  0  0  0  0  0
   12.6966  -17.7538   23.8276 C   0  0  2  0  0  0  0  0  0  0  0  0
   11.8190  -17.5704   22.6732 N   0  0  0  0  0  0  0  0  0  0  0  0
   13.7786  -18.7083   23.4529 C   0  0  0  0  0  0  0  0  0  0  0  0
   14.8553  -18.6586   24.0804 O   0  0  0  0  0  0  0  0  0  0  0  0
   13.6543  -19.6403   22.4505 O   0  0  0  0  0  0  0  0  0  0  0  0
  2  1  1  1
  3  2  1  0
  4  3  1  0
  4  9  2  0
  5  4  1  0
  6  5  2  0
  6  7  1  0
  7  8  2  0
  8  9  1  0
 10  2  1  0
 11 10  2  0
 12 13  1  0
 14 13  1  6
 14 16  1  0
 14 15  1  0
 15 10  1  0
 16 17  2  0
 18 19  1  0
 19 21  1  0
 20 19  2  0
 21 22  1  0
 23 22  1  1
 24 23  1  0
 24 16  1  0
 25 27  1  0
 25 23  1  0
 26 25  2  0
M  END
$$$$
