FSQ.pdb
     RDKit          3D

 27 27  0  0  1  0  0  0  0  0999 V2000
    3.4448  -23.7002   22.8247 N   0  0  0  0  0  0  0  0  0  0  0  0
    3.6621  -22.3951   23.4135 C   0  0  1  0  0  0  0  0  0  0  0  0
    2.8968  -22.2473   24.7101 C   0  0  0  0  0  0  0  0  0  0  0  0
    1.4328  -22.2474   24.4871 C   0  0  0  0  0  0  0  0  0  0  0  0
    0.7846  -21.1553   23.9360 C   0  0  0  0  0  0  0  0  0  0  0  0
   -0.5876  -21.1557   23.7271 C   0  0  0  0  0  0  0  0  0  0  0  0
   -1.3398  -22.2538   24.0674 C   0  0  0  0  0  0  0  0  0  0  0  0
   -0.7216  -23.3440   24.6131 C   0  0  0  0  0  0  0  0  0  0  0  0
    0.6425  -23.3294   24.8149 C   0  0  0  0  0  0  0  0  0  0  0  0
    5.1023  -22.1882   23.5878 C   0  0  0  0  0  0  0  0  0  0  0  0
    5.8792  -23.1540   23.8230 O   0  0  0  0  0  0  0  0  0  0  0  0
    6.9577  -18.3442   23.7150 O   0  0  0  0  0  0  0  0  0  0  0  0
    7.6354  -19.4007   23.1134 C   0  0  0  0  0  0  0  0  0  0  0  0
    7.1538  -20.7396   23.5994 C   0  0  2  0  0  0  0  0  0  0  0  0
    5.7330  -20.9037   23.5078 N   0  0  0  0  0  0  0  0  0  0  0  0
    7.6661  -20.9675   24.9789 C   0  0  0  0  0  0  0  0  0  0  0  0
    6.9289  -20.5596   25.9080 O   0  0  0  0  0  0  0  0  0  0  0  0
   12.2543  -25.0126   26.5044 N   0  0  0  0  0  0  0  0  0  0  0  0
   10.8953  -25.3224   26.2777 C   0  0  0  0  0  0  0  0  0  0  0  0
   10.5769  -26.5072   26.0585 O   0  0  0  0  0  0  0  0  0  0  0  0
    9.8828  -24.2675   26.3004 C   0  0  0  0  0  0  0  0  0  0  0  0
   10.4147  -22.9058   26.5797 C   0  0  0  0  0  0  0  0  0  0  0  0
    9.4473  -21.7875   26.5896 C   0  0  2  0  0  0  0  0  0  0  0  0
    8.8928  -21.5963   25.2507 N   0  0  0  0  0  0  0  0  0  0  0  0
   10.0715  -20.5078   27.0308 C   0  0  0  0  0  0  0  0  0  0  0  0
   10.6769  -19.8214   26.1833 O   0  0  0  0  0  0  0  0  0  0  0  0
   10.0178  -20.0435   28.3232 O   0  0  0  0  0  0  0  0  0  0  0  0
  2  1  1  1
  3  2  1  0
  4  3  1  0
  4  9  2  0
  5  4  1  0
  6  5  2  0
  6  7  1  0
  7  8  2  0
  8  9  1  0
 10  2  1  0
 11 10  2  0
 12 13  1  0
 14 13  1  1
 14 16  1  0
 14 15  1  0
 15 10  1  0
 16 17  2  0
 18 19  1  0
 19 21  1  0
 20 19  2  0
 21 22  1  0
 23 22  1  6
 24 23  1  0
 24 16  1  0
 25 27  1  0
 25 23  1  0
 26 25  2  0
M  END
$$$$
