FSQ.pdb
     RDKit          3D

 27 27  0  0  1  0  0  0  0  0999 V2000
    7.7215  -15.3243   26.4542 N   0  0  0  0  0  0  0  0  0  0  0  0
    7.0127  -15.9177   25.3395 C   0  0  1  0  0  0  0  0  0  0  0  0
    6.5079  -14.8564   24.3868 C   0  0  0  0  0  0  0  0  0  0  0  0
    6.4640  -13.5209   25.0254 C   0  0  0  0  0  0  0  0  0  0  0  0
    5.4404  -13.1637   25.8863 C   0  0  0  0  0  0  0  0  0  0  0  0
    5.3996  -11.9119   26.4846 C   0  0  0  0  0  0  0  0  0  0  0  0
    6.3866  -10.9904   26.2313 C   0  0  0  0  0  0  0  0  0  0  0  0
    7.4075  -11.3208   25.3844 C   0  0  0  0  0  0  0  0  0  0  0  0
    7.4351  -12.5682   24.7972 C   0  0  0  0  0  0  0  0  0  0  0  0
    7.8926  -16.8870   24.6810 C   0  0  0  0  0  0  0  0  0  0  0  0
    7.4263  -17.9012   24.0930 O   0  0  0  0  0  0  0  0  0  0  0  0
   12.0127  -16.6371   23.7182 O   0  0  0  0  0  0  0  0  0  0  0  0
   11.2805  -17.8155   23.6054 C   0  0  0  0  0  0  0  0  0  0  0  0
   10.1860  -17.9091   24.6321 C   0  0  2  0  0  0  0  0  0  0  0  0
    9.3204  -16.7671   24.6505 N   0  0  0  0  0  0  0  0  0  0  0  0
   10.7928  -18.1860   25.9635 C   0  0  0  0  0  0  0  0  0  0  0  0
   11.0939  -17.1771   26.6452 O   0  0  0  0  0  0  0  0  0  0  0  0
    9.6189  -22.2221   31.6520 N   0  0  0  0  0  0  0  0  0  0  0  0
    9.9333  -22.1065   30.2800 C   0  0  0  0  0  0  0  0  0  0  0  0
    9.5972  -23.0240   29.5065 O   0  0  0  0  0  0  0  0  0  0  0  0
   10.6414  -20.9285   29.7806 C   0  0  0  0  0  0  0  0  0  0  0  0
   10.9870  -20.9820   28.3339 C   0  0  0  0  0  0  0  0  0  0  0  0
   11.6300  -19.7879   27.7445 C   0  0  2  0  0  0  0  0  0  0  0  0
   11.0241  -19.4838   26.4495 N   0  0  0  0  0  0  0  0  0  0  0  0
   13.0956  -19.9772   27.5489 C   0  0  0  0  0  0  0  0  0  0  0  0
   13.5066  -20.2811   26.4112 O   0  0  0  0  0  0  0  0  0  0  0  0
   14.0197  -19.8367   28.5564 O   0  0  0  0  0  0  0  0  0  0  0  0
  2  1  1  1
  3  2  1  0
  4  3  1  0
  4  9  2  0
  5  4  1  0
  6  5  2  0
  6  7  1  0
  7  8  2  0
  8  9  1  0
 10  2  1  0
 11 10  2  0
 12 13  1  0
 14 13  1  6
 14 16  1  0
 14 15  1  0
 15 10  1  0
 16 17  2  0
 18 19  1  0
 19 21  1  0
 20 19  2  0
 21 22  1  0
 23 22  1  6
 24 23  1  0
 24 16  1  0
 25 27  1  0
 25 23  1  0
 26 25  2  0
M  END
$$$$
