FSQ.pdb
     RDKit          3D

 27 27  0  0  1  0  0  0  0  0999 V2000
    6.0958  -16.4214   24.9032 N   0  0  0  0  0  0  0  0  0  0  0  0
    7.3543  -15.7466   24.6628 C   0  0  1  0  0  0  0  0  0  0  0  0
    7.7793  -14.9386   25.8692 C   0  0  0  0  0  0  0  0  0  0  0  0
    7.1901  -13.5800   25.8558 C   0  0  0  0  0  0  0  0  0  0  0  0
    7.6233  -12.6120   24.9660 C   0  0  0  0  0  0  0  0  0  0  0  0
    7.0708  -11.3388   24.9538 C   0  0  0  0  0  0  0  0  0  0  0  0
    6.0701  -11.0092   25.8356 C   0  0  0  0  0  0  0  0  0  0  0  0
    5.6261  -11.9489   26.7236 C   0  0  0  0  0  0  0  0  0  0  0  0
    6.1843  -13.2098   26.7243 C   0  0  0  0  0  0  0  0  0  0  0  0
    8.3581  -16.7411   24.2744 C   0  0  0  0  0  0  0  0  0  0  0  0
    8.5101  -17.8087   24.9293 O   0  0  0  0  0  0  0  0  0  0  0  0
   11.5934  -15.8844   21.5375 O   0  0  0  0  0  0  0  0  0  0  0  0
   11.0796  -17.1738   21.6412 C   0  0  0  0  0  0  0  0  0  0  0  0
   10.3877  -17.4097   22.9551 C   0  0  2  0  0  0  0  0  0  0  0  0
    9.2292  -16.5881   23.1467 N   0  0  0  0  0  0  0  0  0  0  0  0
   11.3783  -17.2644   24.0575 C   0  0  0  0  0  0  0  0  0  0  0  0
   11.4431  -16.1283   24.5851 O   0  0  0  0  0  0  0  0  0  0  0  0
   11.7072  -18.9313   29.5137 N   0  0  0  0  0  0  0  0  0  0  0  0
   11.1582  -19.7085   28.4701 C   0  0  0  0  0  0  0  0  0  0  0  0
   10.3075  -20.5754   28.7493 O   0  0  0  0  0  0  0  0  0  0  0  0
   11.5839  -19.4960   27.0874 C   0  0  0  0  0  0  0  0  0  0  0  0
   12.4798  -18.3241   26.8894 C   0  0  0  0  0  0  0  0  0  0  0  0
   13.1696  -18.2089   25.5865 C   0  0  2  0  0  0  0  0  0  0  0  0
   12.1999  -18.3155   24.4980 N   0  0  0  0  0  0  0  0  0  0  0  0
   14.2053  -19.2652   25.4031 C   0  0  0  0  0  0  0  0  0  0  0  0
   14.0735  -20.0652   24.4554 O   0  0  0  0  0  0  0  0  0  0  0  0
   15.2982  -19.4067   26.2244 O   0  0  0  0  0  0  0  0  0  0  0  0
  2  1  1  1
  3  2  1  0
  4  3  1  0
  4  9  2  0
  5  4  1  0
  6  5  2  0
  6  7  1  0
  7  8  2  0
  8  9  1  0
 10  2  1  0
 11 10  2  0
 12 13  1  0
 14 13  1  6
 14 16  1  0
 14 15  1  0
 15 10  1  0
 16 17  2  0
 18 19  1  0
 19 21  1  0
 20 19  2  0
 21 22  1  0
 23 22  1  1
 24 23  1  0
 24 16  1  0
 25 27  1  0
 25 23  1  0
 26 25  2  0
M  END
$$$$
