FSQ.pdb
     RDKit          3D

 27 27  0  0  1  0  0  0  0  0999 V2000
    6.5623  -16.2781   25.6259 N   0  0  0  0  0  0  0  0  0  0  0  0
    7.0887  -15.3685   24.6296 C   0  0  1  0  0  0  0  0  0  0  0  0
    7.9649  -14.3113   25.2648 C   0  0  0  0  0  0  0  0  0  0  0  0
    7.1805  -13.3846   26.1129 C   0  0  0  0  0  0  0  0  0  0  0  0
    5.9629  -12.8756   25.6945 C   0  0  0  0  0  0  0  0  0  0  0  0
    5.2282  -12.0071   26.4896 C   0  0  0  0  0  0  0  0  0  0  0  0
    5.7002  -11.6302   27.7236 C   0  0  0  0  0  0  0  0  0  0  0  0
    6.9002  -12.1201   28.1579 C   0  0  0  0  0  0  0  0  0  0  0  0
    7.6194  -12.9822   27.3572 C   0  0  0  0  0  0  0  0  0  0  0  0
    7.7991  -16.1438   23.6090 C   0  0  0  0  0  0  0  0  0  0  0  0
    8.4776  -17.1626   23.9145 O   0  0  0  0  0  0  0  0  0  0  0  0
    8.4375  -14.7094   19.6085 O   0  0  0  0  0  0  0  0  0  0  0  0
    8.3675  -16.0798   19.8422 C   0  0  0  0  0  0  0  0  0  0  0  0
    8.6716  -16.4324   21.2718 C   0  0  2  0  0  0  0  0  0  0  0  0
    7.7831  -15.8178   22.2135 N   0  0  0  0  0  0  0  0  0  0  0  0
   10.1014  -16.1256   21.5531 C   0  0  0  0  0  0  0  0  0  0  0  0
   10.4121  -14.9106   21.5319 O   0  0  0  0  0  0  0  0  0  0  0  0
   12.0544  -15.0484   26.3056 N   0  0  0  0  0  0  0  0  0  0  0  0
   11.6982  -16.4103   26.1925 C   0  0  0  0  0  0  0  0  0  0  0  0
   11.3619  -17.0313   27.2194 O   0  0  0  0  0  0  0  0  0  0  0  0
   11.7252  -17.0759   24.8907 C   0  0  0  0  0  0  0  0  0  0  0  0
   12.1730  -16.2126   23.7640 C   0  0  0  0  0  0  0  0  0  0  0  0
   12.3606  -16.8580   22.4468 C   0  0  2  0  0  0  0  0  0  0  0  0
   11.0614  -17.1140   21.8277 N   0  0  0  0  0  0  0  0  0  0  0  0
   13.0972  -18.1495   22.5532 C   0  0  0  0  0  0  0  0  0  0  0  0
   14.3117  -18.1169   22.8353 O   0  0  0  0  0  0  0  0  0  0  0  0
   12.5100  -19.3762   22.3548 O   0  0  0  0  0  0  0  0  0  0  0  0
  2  1  1  1
  3  2  1  0
  4  3  1  0
  4  9  2  0
  5  4  1  0
  6  5  2  0
  6  7  1  0
  7  8  2  0
  8  9  1  0
 10  2  1  0
 11 10  2  0
 12 13  1  0
 14 13  1  6
 14 16  1  0
 14 15  1  0
 15 10  1  0
 16 17  2  0
 18 19  1  0
 19 21  1  0
 20 19  2  0
 21 22  1  0
 23 22  1  1
 24 23  1  0
 24 16  1  0
 25 27  1  0
 25 23  1  0
 26 25  2  0
M  END
$$$$
