FSQ.pdb
     RDKit          3D

 27 27  0  0  1  0  0  0  0  0999 V2000
    6.0590  -16.3915   22.1652 N   0  0  0  0  0  0  0  0  0  0  0  0
    7.4973  -16.3051   22.3103 C   0  0  1  0  0  0  0  0  0  0  0  0
    7.9386  -14.8745   22.5279 C   0  0  0  0  0  0  0  0  0  0  0  0
    7.9439  -14.1029   21.2638 C   0  0  0  0  0  0  0  0  0  0  0  0
    6.9310  -13.2108   20.9561 C   0  0  0  0  0  0  0  0  0  0  0  0
    6.9364  -12.4879   19.7713 C   0  0  0  0  0  0  0  0  0  0  0  0
    7.9599  -12.6450   18.8684 C   0  0  0  0  0  0  0  0  0  0  0  0
    8.9712  -13.5204   19.1507 C   0  0  0  0  0  0  0  0  0  0  0  0
    8.9527  -14.2319   20.3318 C   0  0  0  0  0  0  0  0  0  0  0  0
    7.9174  -17.1913   23.3991 C   0  0  0  0  0  0  0  0  0  0  0  0
    7.3767  -17.1323   24.5374 O   0  0  0  0  0  0  0  0  0  0  0  0
   11.4664  -19.5670   23.1126 O   0  0  0  0  0  0  0  0  0  0  0  0
   10.4932  -19.9218   24.0424 C   0  0  0  0  0  0  0  0  0  0  0  0
    9.5959  -18.7693   24.3990 C   0  0  2  0  0  0  0  0  0  0  0  0
    8.9517  -18.1744   23.2654 N   0  0  0  0  0  0  0  0  0  0  0  0
   10.3714  -17.7803   25.1979 C   0  0  0  0  0  0  0  0  0  0  0  0
   11.1245  -17.0212   24.5423 O   0  0  0  0  0  0  0  0  0  0  0  0
    7.3116  -13.6233   26.7347 N   0  0  0  0  0  0  0  0  0  0  0  0
    8.5501  -13.9364   27.3369 C   0  0  0  0  0  0  0  0  0  0  0  0
    9.2058  -13.0226   27.8739 O   0  0  0  0  0  0  0  0  0  0  0  0
    9.0503  -15.3104   27.3276 C   0  0  0  0  0  0  0  0  0  0  0  0
   10.5315  -15.4298   27.4104 C   0  0  0  0  0  0  0  0  0  0  0  0
   11.1038  -16.7933   27.4178 C   0  0  2  0  0  0  0  0  0  0  0  0
   10.2841  -17.6823   26.5967 N   0  0  0  0  0  0  0  0  0  0  0  0
   11.1859  -17.3612   28.7936 C   0  0  0  0  0  0  0  0  0  0  0  0
   11.9020  -16.7790   29.6326 O   0  0  0  0  0  0  0  0  0  0  0  0
   10.5156  -18.4944   29.1877 O   0  0  0  0  0  0  0  0  0  0  0  0
  2  1  1  1
  3  2  1  0
  4  3  1  0
  4  9  2  0
  5  4  1  0
  6  5  2  0
  6  7  1  0
  7  8  2  0
  8  9  1  0
 10  2  1  0
 11 10  2  0
 12 13  1  0
 14 13  1  6
 14 16  1  0
 14 15  1  0
 15 10  1  0
 16 17  2  0
 18 19  1  0
 19 21  1  0
 20 19  2  0
 21 22  1  0
 23 22  1  1
 24 23  1  0
 24 16  1  0
 25 27  1  0
 25 23  1  0
 26 25  2  0
M  END
$$$$
