FSQ.pdb
     RDKit          3D

 27 27  0  0  1  0  0  0  0  0999 V2000
    5.8742  -17.3281   25.2220 N   0  0  0  0  0  0  0  0  0  0  0  0
    6.7981  -16.2585   24.9064 C   0  0  1  0  0  0  0  0  0  0  0  0
    7.2544  -15.5443   26.1596 C   0  0  0  0  0  0  0  0  0  0  0  0
    6.9394  -14.0979   26.1131 C   0  0  0  0  0  0  0  0  0  0  0  0
    7.7575  -13.2000   25.4490 C   0  0  0  0  0  0  0  0  0  0  0  0
    7.4619  -11.8446   25.4057 C   0  0  0  0  0  0  0  0  0  0  0  0
    6.3374  -11.3604   26.0290 C   0  0  0  0  0  0  0  0  0  0  0  0
    5.5146  -12.2283   26.6911 C   0  0  0  0  0  0  0  0  0  0  0  0
    5.8208  -13.5725   26.7258 C   0  0  0  0  0  0  0  0  0  0  0  0
    7.9176  -16.8110   24.1390 C   0  0  0  0  0  0  0  0  0  0  0  0
    8.4967  -17.8730   24.4974 O   0  0  0  0  0  0  0  0  0  0  0  0
   10.9640  -16.5716   20.2972 O   0  0  0  0  0  0  0  0  0  0  0  0
    9.8635  -16.0315   20.9564 C   0  0  0  0  0  0  0  0  0  0  0  0
    9.5864  -16.7191   22.2645 C   0  0  2  0  0  0  0  0  0  0  0  0
    8.4353  -16.2064   22.9471 N   0  0  0  0  0  0  0  0  0  0  0  0
   10.8146  -16.6744   23.1054 C   0  0  0  0  0  0  0  0  0  0  0  0
   11.0371  -15.5855   23.6869 O   0  0  0  0  0  0  0  0  0  0  0  0
   13.9363  -20.3465   26.5834 N   0  0  0  0  0  0  0  0  0  0  0  0
   12.5744  -20.5131   26.2486 C   0  0  0  0  0  0  0  0  0  0  0  0
   12.0246  -21.6049   26.4914 O   0  0  0  0  0  0  0  0  0  0  0  0
   11.8267  -19.4205   25.6278 C   0  0  0  0  0  0  0  0  0  0  0  0
   12.6043  -18.1647   25.4449 C   0  0  0  0  0  0  0  0  0  0  0  0
   12.9066  -17.7488   24.0584 C   0  0  2  0  0  0  0  0  0  0  0  0
   11.6854  -17.7667   23.2552 N   0  0  0  0  0  0  0  0  0  0  0  0
   13.9122  -18.6385   23.4110 C   0  0  0  0  0  0  0  0  0  0  0  0
   13.5689  -19.2823   22.3994 O   0  0  0  0  0  0  0  0  0  0  0  0
   15.1987  -18.7895   23.8703 O   0  0  0  0  0  0  0  0  0  0  0  0
  2  1  1  1
  3  2  1  0
  4  3  1  0
  4  9  2  0
  5  4  1  0
  6  5  2  0
  6  7  1  0
  7  8  2  0
  8  9  1  0
 10  2  1  0
 11 10  2  0
 12 13  1  0
 14 13  1  6
 14 16  1  0
 14 15  1  0
 15 10  1  0
 16 17  2  0
 18 19  1  0
 19 21  1  0
 20 19  2  0
 21 22  1  0
 23 22  1  1
 24 23  1  0
 24 16  1  0
 25 27  1  0
 25 23  1  0
 26 25  2  0
M  END
$$$$
