FSQ.pdb
     RDKit          3D

 27 27  0  0  1  0  0  0  0  0999 V2000
    6.1150  -16.9449   25.6068 N   0  0  0  0  0  0  0  0  0  0  0  0
    6.7021  -15.7939   24.9528 C   0  0  1  0  0  0  0  0  0  0  0  0
    7.7050  -15.1074   25.8536 C   0  0  0  0  0  0  0  0  0  0  0  0
    7.1962  -13.8096   26.3537 C   0  0  0  0  0  0  0  0  0  0  0  0
    6.7202  -13.6682   27.6459 C   0  0  0  0  0  0  0  0  0  0  0  0
    6.2434  -12.4517   28.1142 C   0  0  0  0  0  0  0  0  0  0  0  0
    6.2341  -11.3493   27.2944 C   0  0  0  0  0  0  0  0  0  0  0  0
    6.6993  -11.4649   26.0142 C   0  0  0  0  0  0  0  0  0  0  0  0
    7.1701  -12.6798   25.5626 C   0  0  0  0  0  0  0  0  0  0  0  0
    7.2933  -16.2219   23.6821 C   0  0  0  0  0  0  0  0  0  0  0  0
    7.9618  -17.2884   23.5968 O   0  0  0  0  0  0  0  0  0  0  0  0
    8.5625  -15.0489   19.0842 O   0  0  0  0  0  0  0  0  0  0  0  0
    7.7896  -14.7476   20.2018 C   0  0  0  0  0  0  0  0  0  0  0  0
    8.0189  -15.7116   21.3326 C   0  0  2  0  0  0  0  0  0  0  0  0
    7.1649  -15.4832   22.4606 N   0  0  0  0  0  0  0  0  0  0  0  0
    9.4625  -15.6954   21.6980 C   0  0  0  0  0  0  0  0  0  0  0  0
    9.7734  -14.9479   22.6560 O   0  0  0  0  0  0  0  0  0  0  0  0
   12.4875  -17.8559   25.4259 N   0  0  0  0  0  0  0  0  0  0  0  0
   11.7588  -18.7086   24.5678 C   0  0  0  0  0  0  0  0  0  0  0  0
   11.3501  -19.8000   25.0095 O   0  0  0  0  0  0  0  0  0  0  0  0
   11.4914  -18.3135   23.1855 C   0  0  0  0  0  0  0  0  0  0  0  0
   11.9537  -16.9432   22.8337 C   0  0  0  0  0  0  0  0  0  0  0  0
   11.8420  -16.5312   21.4179 C   0  0  2  0  0  0  0  0  0  0  0  0
   10.4347  -16.4584   21.0296 N   0  0  0  0  0  0  0  0  0  0  0  0
   12.5380  -17.4776   20.5002 C   0  0  0  0  0  0  0  0  0  0  0  0
   11.8501  -18.1303   19.6899 O   0  0  0  0  0  0  0  0  0  0  0  0
   13.8985  -17.6716   20.5000 O   0  0  0  0  0  0  0  0  0  0  0  0
  2  1  1  1
  3  2  1  0
  4  3  1  0
  4  9  2  0
  5  4  1  0
  6  5  2  0
  6  7  1  0
  7  8  2  0
  8  9  1  0
 10  2  1  0
 11 10  2  0
 12 13  1  0
 14 13  1  6
 14 16  1  0
 14 15  1  0
 15 10  1  0
 16 17  2  0
 18 19  1  0
 19 21  1  0
 20 19  2  0
 21 22  1  0
 23 22  1  1
 24 23  1  0
 24 16  1  0
 25 27  1  0
 25 23  1  0
 26 25  2  0
M  END
$$$$
