NCN.pdb
     RDKit          3D

 23 22  0  0  1  0  0  0  0  0999 V2000
    9.8647  -17.3945   14.9309 N   0  0  0  0  0  0  0  0  0  0  0  0
    8.8229  -17.1476   15.8398 C   0  0  0  0  0  0  0  0  0  0  0  0
    7.6437  -17.6008   15.6654 O   0  0  0  0  0  0  0  0  0  0  0  0
    9.0895  -16.3339   17.0464 C   0  0  0  0  0  0  0  0  0  0  0  0
    9.2321  -17.2321   18.2606 C   0  0  2  0  0  0  0  0  0  0  0  0
    8.0327  -17.9811   18.4820 N   0  0  0  0  0  0  0  0  0  0  0  0
    9.6629  -16.4511   19.4305 C   0  0  0  0  0  0  0  0  0  0  0  0
   10.7531  -15.8379   19.3793 O   0  0  0  0  0  0  0  0  0  0  0  0
    8.9274  -16.3280   20.6474 N   0  0  0  0  0  0  0  0  0  0  0  0
    9.4794  -15.6931   21.8084 C   0  0  1  0  0  0  0  0  0  0  0  0
    8.4978  -15.4953   22.9288 C   0  0  0  0  0  0  0  0  0  0  0  0
    9.2229  -14.8344   24.4342 S   0  0  0  0  0  0  0  0  0  0  0  0
   10.6599  -16.4459   22.2986 C   0  0  0  0  0  0  0  0  0  0  0  0
   10.6161  -17.6642   22.6204 O   0  0  0  0  0  0  0  0  0  0  0  0
   14.1760  -14.4328   20.2776 N   0  0  0  0  0  0  0  0  0  0  0  0
   14.3336  -15.6522   20.9645 C   0  0  0  0  0  0  0  0  0  0  0  0
   14.5105  -16.7233   20.2975 O   0  0  0  0  0  0  0  0  0  0  0  0
   14.2998  -15.7287   22.4463 C   0  0  0  0  0  0  0  0  0  0  0  0
   13.0852  -16.5169   22.9511 C   0  0  2  0  0  0  0  0  0  0  0  0
   11.9346  -15.8057   22.4299 N   0  0  0  0  0  0  0  0  0  0  0  0
   13.1251  -16.4779   24.4317 C   0  0  0  0  0  0  0  0  0  0  0  0
   12.1641  -15.8625   25.2060 O   0  0  0  0  0  0  0  0  0  0  0  0
   14.0870  -17.0359   25.0088 O   0  0  0  0  0  0  0  0  0  0  0  0
  2  1  1  0
  2  4  1  0
  3  2  2  0
  5  4  1  0
  5  7  1  0
  5  6  1  1
  7  8  2  0
  7  9  1  0
  9 10  1  0
 10 13  1  0
 10 11  1  1
 11 12  1  0
 13 20  1  0
 13 14  2  0
 16 17  2  0
 16 15  1  0
 19 18  1  6
 18 16  1  0
 19 21  1  0
 20 19  1  0
 21 22  1  0
 23 21  2  0
M  END
$$$$
