NCN.pdb
     RDKit          3D

 23 22  0  0  1  0  0  0  0  0999 V2000
    8.7995  -16.7901   21.0228 N   0  0  0  0  0  0  0  0  0  0  0  0
    7.4297  -17.0971   21.0651 C   0  0  0  0  0  0  0  0  0  0  0  0
    6.9926  -18.2869   20.9249 O   0  0  0  0  0  0  0  0  0  0  0  0
    6.4484  -16.0106   21.2788 C   0  0  0  0  0  0  0  0  0  0  0  0
    7.1522  -14.6667   21.2910 C   0  0  2  0  0  0  0  0  0  0  0  0
    8.0156  -14.5352   20.1571 N   0  0  0  0  0  0  0  0  0  0  0  0
    7.8335  -14.4546   22.5776 C   0  0  0  0  0  0  0  0  0  0  0  0
    9.0643  -14.6712   22.6522 O   0  0  0  0  0  0  0  0  0  0  0  0
    7.1980  -14.0116   23.7762 N   0  0  0  0  0  0  0  0  0  0  0  0
    7.9354  -13.7623   24.9802 C   0  0  1  0  0  0  0  0  0  0  0  0
    7.2270  -12.8756   25.9651 C   0  0  0  0  0  0  0  0  0  0  0  0
    8.2022  -12.4619   27.4166 S   0  0  0  0  0  0  0  0  0  0  0  0
    8.3114  -15.0409   25.6316 C   0  0  0  0  0  0  0  0  0  0  0  0
    7.4792  -15.9497   25.8988 O   0  0  0  0  0  0  0  0  0  0  0  0
   11.9985  -16.8289   23.6269 N   0  0  0  0  0  0  0  0  0  0  0  0
   11.2700  -17.4047   24.6858 C   0  0  0  0  0  0  0  0  0  0  0  0
   10.4748  -18.3697   24.4411 O   0  0  0  0  0  0  0  0  0  0  0  0
   11.4001  -16.9207   26.0827 C   0  0  0  0  0  0  0  0  0  0  0  0
   10.0439  -16.5276   26.6809 C   0  0  2  0  0  0  0  0  0  0  0  0
    9.6716  -15.3068   25.9938 N   0  0  0  0  0  0  0  0  0  0  0  0
   10.2571  -16.2948   28.1285 C   0  0  0  0  0  0  0  0  0  0  0  0
   10.5689  -17.2948   29.0255 O   0  0  0  0  0  0  0  0  0  0  0  0
   10.1471  -15.1229   28.5579 O   0  0  0  0  0  0  0  0  0  0  0  0
  2  1  1  0
  2  4  1  0
  3  2  2  0
  5  4  1  0
  5  7  1  0
  5  6  1  6
  7  8  2  0
  7  9  1  0
  9 10  1  0
 10 13  1  0
 10 11  1  1
 11 12  1  0
 13 20  1  0
 13 14  2  0
 16 17  2  0
 16 15  1  0
 19 18  1  6
 18 16  1  0
 19 21  1  0
 20 19  1  0
 21 22  1  0
 23 21  2  0
M  END
$$$$
