NCN.pdb
     RDKit          3D

 23 22  0  0  1  0  0  0  0  0999 V2000
    8.9185  -16.3633   12.2972 N   0  0  0  0  0  0  0  0  0  0  0  0
    9.4055  -17.0726   13.4072 C   0  0  0  0  0  0  0  0  0  0  0  0
   10.3554  -17.9183   13.3132 O   0  0  0  0  0  0  0  0  0  0  0  0
    8.8034  -16.8400   14.7386 C   0  0  0  0  0  0  0  0  0  0  0  0
    8.4833  -15.3679   14.9166 C   0  0  2  0  0  0  0  0  0  0  0  0
    8.6554  -14.6582   13.6857 N   0  0  0  0  0  0  0  0  0  0  0  0
    9.2571  -14.8047   16.0340 C   0  0  0  0  0  0  0  0  0  0  0  0
   10.4731  -14.5605   15.8642 O   0  0  0  0  0  0  0  0  0  0  0  0
    8.7286  -14.5044   17.3253 N   0  0  0  0  0  0  0  0  0  0  0  0
    9.5198  -13.8779   18.3437 C   0  0  1  0  0  0  0  0  0  0  0  0
    8.7274  -13.0627   19.3263 C   0  0  0  0  0  0  0  0  0  0  0  0
    7.3410  -13.9389   20.0604 S   0  0  0  0  0  0  0  0  0  0  0  0
   10.3311  -14.8890   19.0647 C   0  0  0  0  0  0  0  0  0  0  0  0
   10.0326  -16.1135   19.1024 O   0  0  0  0  0  0  0  0  0  0  0  0
   14.6553  -13.4044   18.7290 N   0  0  0  0  0  0  0  0  0  0  0  0
   14.3944  -14.6717   19.2854 C   0  0  0  0  0  0  0  0  0  0  0  0
   14.7512  -15.7158   18.6485 O   0  0  0  0  0  0  0  0  0  0  0  0
   13.7142  -14.8291   20.5951 C   0  0  0  0  0  0  0  0  0  0  0  0
   12.3389  -15.4917   20.4497 C   0  0  2  0  0  0  0  0  0  0  0  0
   11.5205  -14.5093   19.7669 N   0  0  0  0  0  0  0  0  0  0  0  0
   11.8384  -15.7616   21.8178 C   0  0  0  0  0  0  0  0  0  0  0  0
   12.3983  -16.6936   22.6663 O   0  0  0  0  0  0  0  0  0  0  0  0
   10.8515  -15.1048   22.2230 O   0  0  0  0  0  0  0  0  0  0  0  0
  2  1  1  0
  2  4  1  0
  3  2  2  0
  5  4  1  0
  5  7  1  0
  5  6  1  6
  7  8  2  0
  7  9  1  0
  9 10  1  0
 10 13  1  0
 10 11  1  1
 11 12  1  0
 13 20  1  0
 13 14  2  0
 16 17  2  0
 16 15  1  0
 19 18  1  1
 18 16  1  0
 19 21  1  0
 20 19  1  0
 21 22  1  0
 23 21  2  0
M  END
$$$$
