NCN.pdb
     RDKit          3D

 23 22  0  0  1  0  0  0  0  0999 V2000
    6.7730  -13.2398   17.6051 N   0  0  0  0  0  0  0  0  0  0  0  0
    7.8231  -13.6887   18.4225 C   0  0  0  0  0  0  0  0  0  0  0  0
    8.7636  -14.4279   17.9803 O   0  0  0  0  0  0  0  0  0  0  0  0
    7.8510  -13.2975   19.8492 C   0  0  0  0  0  0  0  0  0  0  0  0
    7.8683  -14.5334   20.7288 C   0  0  2  0  0  0  0  0  0  0  0  0
    6.6794  -15.3076   20.5406 N   0  0  0  0  0  0  0  0  0  0  0  0
    8.1139  -14.1631   22.1313 C   0  0  0  0  0  0  0  0  0  0  0  0
    7.8022  -13.0133   22.5159 O   0  0  0  0  0  0  0  0  0  0  0  0
    8.6894  -15.0220   23.1151 N   0  0  0  0  0  0  0  0  0  0  0  0
    8.8393  -14.6184   24.4827 C   0  0  1  0  0  0  0  0  0  0  0  0
    7.5570  -14.2044   25.1478 C   0  0  0  0  0  0  0  0  0  0  0  0
    6.4405  -15.5663   25.5052 S   0  0  0  0  0  0  0  0  0  0  0  0
    9.4932  -15.6916   25.2708 C   0  0  0  0  0  0  0  0  0  0  0  0
    9.3627  -16.9178   25.0077 O   0  0  0  0  0  0  0  0  0  0  0  0
   11.0002  -14.0711   30.1907 N   0  0  0  0  0  0  0  0  0  0  0  0
   10.6263  -14.9244   29.1344 C   0  0  0  0  0  0  0  0  0  0  0  0
    9.3919  -15.0529   28.8462 O   0  0  0  0  0  0  0  0  0  0  0  0
   11.6288  -15.6812   28.3440 C   0  0  0  0  0  0  0  0  0  0  0  0
   10.9890  -16.4114   27.1570 C   0  0  2  0  0  0  0  0  0  0  0  0
   10.3242  -15.3739   26.3936 N   0  0  0  0  0  0  0  0  0  0  0  0
   10.0197  -17.3834   27.7145 C   0  0  0  0  0  0  0  0  0  0  0  0
   10.3876  -18.5552   28.3417 O   0  0  0  0  0  0  0  0  0  0  0  0
    8.7988  -17.1230   27.6082 O   0  0  0  0  0  0  0  0  0  0  0  0
  2  1  1  0
  2  4  1  0
  3  2  2  0
  5  4  1  0
  5  7  1  0
  5  6  1  1
  7  8  2  0
  7  9  1  0
  9 10  1  0
 10 13  1  0
 10 11  1  1
 11 12  1  0
 13 20  1  0
 13 14  2  0
 16 17  2  0
 16 15  1  0
 19 18  1  1
 18 16  1  0
 19 21  1  0
 20 19  1  0
 21 22  1  0
 23 21  2  0
M  END
$$$$
