NCN.pdb
     RDKit          3D

 23 22  0  0  1  0  0  0  0  0999 V2000
    7.6634  -12.5102   17.6921 N   0  0  0  0  0  0  0  0  0  0  0  0
    8.1379  -13.6468   18.3669 C   0  0  0  0  0  0  0  0  0  0  0  0
    8.1177  -14.8093   17.8427 O   0  0  0  0  0  0  0  0  0  0  0  0
    8.6828  -13.5044   19.7351 C   0  0  0  0  0  0  0  0  0  0  0  0
    8.0251  -14.5059   20.6656 C   0  0  2  0  0  0  0  0  0  0  0  0
    6.5991  -14.4111   20.5879 N   0  0  0  0  0  0  0  0  0  0  0  0
    8.5512  -14.3611   22.0319 C   0  0  0  0  0  0  0  0  0  0  0  0
    9.7908  -14.3733   22.2063 O   0  0  0  0  0  0  0  0  0  0  0  0
    7.7517  -14.2029   23.2034 N   0  0  0  0  0  0  0  0  0  0  0  0
    8.3099  -14.2852   24.5215 C   0  0  1  0  0  0  0  0  0  0  0  0
    7.5600  -13.4986   25.5593 C   0  0  0  0  0  0  0  0  0  0  0  0
    5.9064  -14.1154   25.8971 S   0  0  0  0  0  0  0  0  0  0  0  0
    8.4257  -15.7014   24.9476 C   0  0  0  0  0  0  0  0  0  0  0  0
    7.7547  -16.6346   24.4292 O   0  0  0  0  0  0  0  0  0  0  0  0
   12.7779  -19.0825   25.1678 N   0  0  0  0  0  0  0  0  0  0  0  0
   11.4050  -18.9486   24.8836 C   0  0  0  0  0  0  0  0  0  0  0  0
   10.7190  -19.9907   24.6252 O   0  0  0  0  0  0  0  0  0  0  0  0
   10.7301  -17.6269   24.8758 C   0  0  0  0  0  0  0  0  0  0  0  0
    9.8284  -17.4373   26.1016 C   0  0  2  0  0  0  0  0  0  0  0  0
    9.3289  -16.0809   25.9926 N   0  0  0  0  0  0  0  0  0  0  0  0
   10.6814  -17.6092   27.3007 C   0  0  0  0  0  0  0  0  0  0  0  0
   10.9085  -18.8258   27.9089 O   0  0  0  0  0  0  0  0  0  0  0  0
   11.2248  -16.5901   27.7865 O   0  0  0  0  0  0  0  0  0  0  0  0
  2  1  1  0
  2  4  1  0
  3  2  2  0
  5  4  1  0
  5  7  1  0
  5  6  1  1
  7  8  2  0
  7  9  1  0
  9 10  1  0
 10 13  1  0
 10 11  1  1
 11 12  1  0
 13 20  1  0
 13 14  2  0
 16 17  2  0
 16 15  1  0
 19 18  1  6
 18 16  1  0
 19 21  1  0
 20 19  1  0
 21 22  1  0
 23 21  2  0
M  END
$$$$
