NCN.pdb
     RDKit          3D

 23 22  0  0  1  0  0  0  0  0999 V2000
    9.7459  -25.9093   27.6006 N   0  0  0  0  0  0  0  0  0  0  0  0
    9.1471  -24.6486   27.7570 C   0  0  0  0  0  0  0  0  0  0  0  0
    8.7124  -23.9723   26.7671 O   0  0  0  0  0  0  0  0  0  0  0  0
    9.0099  -24.0732   29.1132 C   0  0  0  0  0  0  0  0  0  0  0  0
    9.6192  -25.0081   30.1409 C   0  0  2  0  0  0  0  0  0  0  0  0
    9.0264  -26.3083   30.0594 N   0  0  0  0  0  0  0  0  0  0  0  0
    9.5489  -24.4122   31.4841 C   0  0  0  0  0  0  0  0  0  0  0  0
    9.3125  -23.1874   31.5899 O   0  0  0  0  0  0  0  0  0  0  0  0
    9.7298  -25.1267   32.7062 N   0  0  0  0  0  0  0  0  0  0  0  0
    9.3719  -24.5646   33.9757 C   0  0  1  0  0  0  0  0  0  0  0  0
    7.9920  -23.9714   34.0208 C   0  0  0  0  0  0  0  0  0  0  0  0
    6.7701  -25.0117   34.8292 S   0  0  0  0  0  0  0  0  0  0  0  0
    9.5222  -25.5755   35.0508 C   0  0  0  0  0  0  0  0  0  0  0  0
    9.3509  -25.3140   36.2723 O   0  0  0  0  0  0  0  0  0  0  0  0
    7.9924  -28.9144   35.6136 N   0  0  0  0  0  0  0  0  0  0  0  0
    9.0704  -29.7067   35.1735 C   0  0  0  0  0  0  0  0  0  0  0  0
    8.8497  -30.9045   34.7995 O   0  0  0  0  0  0  0  0  0  0  0  0
   10.4603  -29.1881   35.1319 C   0  0  0  0  0  0  0  0  0  0  0  0
   10.5590  -27.7689   35.7043 C   0  0  2  0  0  0  0  0  0  0  0  0
    9.8765  -26.9284   34.7405 N   0  0  0  0  0  0  0  0  0  0  0  0
   11.9996  -27.4348   35.7950 C   0  0  0  0  0  0  0  0  0  0  0  0
   12.7069  -26.8212   34.7826 O   0  0  0  0  0  0  0  0  0  0  0  0
   12.6056  -27.7277   36.8518 O   0  0  0  0  0  0  0  0  0  0  0  0
  2  1  1  0
  2  4  1  0
  3  2  2  0
  5  4  1  0
  5  7  1  0
  5  6  1  1
  7  8  2  0
  7  9  1  0
  9 10  1  0
 10 13  1  0
 10 11  1  6
 11 12  1  0
 13 20  1  0
 13 14  2  0
 16 17  2  0
 16 15  1  0
 19 18  1  6
 18 16  1  0
 19 21  1  0
 20 19  1  0
 21 22  1  0
 23 21  2  0
M  END
$$$$
