NCN.pdb
     RDKit          3D

 23 22  0  0  1  0  0  0  0  0999 V2000
   10.9074  -19.3049   16.9917 N   0  0  0  0  0  0  0  0  0  0  0  0
    9.9483  -18.8955   17.9325 C   0  0  0  0  0  0  0  0  0  0  0  0
    8.6954  -18.9748   17.7082 O   0  0  0  0  0  0  0  0  0  0  0  0
   10.3942  -18.3508   19.2340 C   0  0  0  0  0  0  0  0  0  0  0  0
    9.8383  -16.9533   19.4327 C   0  0  2  0  0  0  0  0  0  0  0  0
   10.3393  -16.0604   18.4327 N   0  0  0  0  0  0  0  0  0  0  0  0
   10.0828  -16.4933   20.8086 C   0  0  0  0  0  0  0  0  0  0  0  0
   11.2551  -16.2252   21.1564 O   0  0  0  0  0  0  0  0  0  0  0  0
    9.0752  -16.3211   21.8045 N   0  0  0  0  0  0  0  0  0  0  0  0
    9.3869  -15.8828   23.1336 C   0  0  1  0  0  0  0  0  0  0  0  0
    8.2290  -15.2680   23.8679 C   0  0  0  0  0  0  0  0  0  0  0  0
    8.5954  -14.8080   25.5659 S   0  0  0  0  0  0  0  0  0  0  0  0
    9.9527  -17.0004   23.9282 C   0  0  0  0  0  0  0  0  0  0  0  0
    9.4321  -18.1479   23.9726 O   0  0  0  0  0  0  0  0  0  0  0  0
   14.4953  -16.6388   23.5925 N   0  0  0  0  0  0  0  0  0  0  0  0
   13.7305  -17.7037   24.1069 C   0  0  0  0  0  0  0  0  0  0  0  0
   13.4853  -18.7091   23.3636 O   0  0  0  0  0  0  0  0  0  0  0  0
   13.1992  -17.6912   25.4926 C   0  0  0  0  0  0  0  0  0  0  0  0
   11.6787  -17.8870   25.5244 C   0  0  2  0  0  0  0  0  0  0  0  0
   11.1467  -16.8207   24.6990 N   0  0  0  0  0  0  0  0  0  0  0  0
   11.2509  -17.7483   26.9361 C   0  0  0  0  0  0  0  0  0  0  0  0
   10.8491  -16.5552   27.4991 O   0  0  0  0  0  0  0  0  0  0  0  0
   11.2558  -18.7741   27.6554 O   0  0  0  0  0  0  0  0  0  0  0  0
  2  1  1  0
  2  4  1  0
  3  2  2  0
  5  4  1  0
  5  7  1  0
  5  6  1  6
  7  8  2  0
  7  9  1  0
  9 10  1  0
 10 13  1  0
 10 11  1  1
 11 12  1  0
 13 20  1  0
 13 14  2  0
 16 17  2  0
 16 15  1  0
 19 18  1  1
 18 16  1  0
 19 21  1  0
 20 19  1  0
 21 22  1  0
 23 21  2  0
M  END
$$$$
