NCN.pdb
     RDKit          3D

 23 22  0  0  1  0  0  0  0  0999 V2000
    6.1621  -13.8075   18.0759 N   0  0  0  0  0  0  0  0  0  0  0  0
    6.8864  -14.9615   18.4166 C   0  0  0  0  0  0  0  0  0  0  0  0
    6.8071  -16.0407   17.7418 O   0  0  0  0  0  0  0  0  0  0  0  0
    7.7763  -14.9377   19.5984 C   0  0  0  0  0  0  0  0  0  0  0  0
    7.6100  -13.6309   20.3507 C   0  0  2  0  0  0  0  0  0  0  0  0
    8.0483  -12.5263   19.5530 N   0  0  0  0  0  0  0  0  0  0  0  0
    8.2680  -13.7062   21.6644 C   0  0  0  0  0  0  0  0  0  0  0  0
    9.5114  -13.5744   21.7256 O   0  0  0  0  0  0  0  0  0  0  0  0
    7.5954  -13.9205   22.9047 N   0  0  0  0  0  0  0  0  0  0  0  0
    8.3028  -13.9995   24.1494 C   0  0  1  0  0  0  0  0  0  0  0  0
    7.5719  -13.3932   25.3139 C   0  0  0  0  0  0  0  0  0  0  0  0
    5.7978  -13.6780   25.2981 S   0  0  0  0  0  0  0  0  0  0  0  0
    8.6591  -15.4069   24.4543 C   0  0  0  0  0  0  0  0  0  0  0  0
    7.8836  -16.3772   24.2374 O   0  0  0  0  0  0  0  0  0  0  0  0
   11.6902  -17.8373   22.6991 N   0  0  0  0  0  0  0  0  0  0  0  0
   12.2294  -17.0137   23.7064 C   0  0  0  0  0  0  0  0  0  0  0  0
   13.0876  -16.1265   23.3909 O   0  0  0  0  0  0  0  0  0  0  0  0
   11.8277  -17.1478   25.1288 C   0  0  0  0  0  0  0  0  0  0  0  0
   10.3043  -17.1074   25.2995 C   0  0  2  0  0  0  0  0  0  0  0  0
    9.9329  -15.7340   25.0221 N   0  0  0  0  0  0  0  0  0  0  0  0
   10.0132  -17.4773   26.7043 C   0  0  0  0  0  0  0  0  0  0  0  0
   10.0149  -18.7758   27.1686 O   0  0  0  0  0  0  0  0  0  0  0  0
    9.7514  -16.5565   27.5126 O   0  0  0  0  0  0  0  0  0  0  0  0
  2  1  1  0
  2  4  1  0
  3  2  2  0
  5  4  1  0
  5  7  1  0
  5  6  1  6
  7  8  2  0
  7  9  1  0
  9 10  1  0
 10 13  1  0
 10 11  1  1
 11 12  1  0
 13 20  1  0
 13 14  2  0
 16 17  2  0
 16 15  1  0
 19 18  1  1
 18 16  1  0
 19 21  1  0
 20 19  1  0
 21 22  1  0
 23 21  2  0
M  END
$$$$
