NCN.pdb
     RDKit          3D

 23 22  0  0  1  0  0  0  0  0999 V2000
    6.6076  -13.5424   18.0789 N   0  0  0  0  0  0  0  0  0  0  0  0
    7.1096  -14.7687   18.5442 C   0  0  0  0  0  0  0  0  0  0  0  0
    7.0272  -15.8428   17.8615 O   0  0  0  0  0  0  0  0  0  0  0  0
    7.7593  -14.8305   19.8721 C   0  0  0  0  0  0  0  0  0  0  0  0
    7.6471  -13.4887   20.5709 C   0  0  2  0  0  0  0  0  0  0  0  0
    8.2384  -12.4530   19.7796 N   0  0  0  0  0  0  0  0  0  0  0  0
    8.1925  -13.5718   21.9347 C   0  0  0  0  0  0  0  0  0  0  0  0
    9.4348  -13.5705   22.0895 O   0  0  0  0  0  0  0  0  0  0  0  0
    7.4094  -13.6545   23.1250 N   0  0  0  0  0  0  0  0  0  0  0  0
    8.0028  -13.8731   24.4118 C   0  0  1  0  0  0  0  0  0  0  0  0
    7.1868  -13.3568   25.5631 C   0  0  0  0  0  0  0  0  0  0  0  0
    5.4132  -13.5591   25.3571 S   0  0  0  0  0  0  0  0  0  0  0  0
    8.2982  -15.3135   24.6080 C   0  0  0  0  0  0  0  0  0  0  0  0
    7.6421  -16.2344   24.0502 O   0  0  0  0  0  0  0  0  0  0  0  0
   12.5093  -19.2690   24.7268 N   0  0  0  0  0  0  0  0  0  0  0  0
   11.1492  -18.9034   24.7188 C   0  0  0  0  0  0  0  0  0  0  0  0
   10.2604  -19.8128   24.7980 O   0  0  0  0  0  0  0  0  0  0  0  0
   10.7176  -17.4869   24.6205 C   0  0  0  0  0  0  0  0  0  0  0  0
    9.6596  -17.1365   25.6738 C   0  0  2  0  0  0  0  0  0  0  0  0
    9.3703  -15.7322   25.4609 N   0  0  0  0  0  0  0  0  0  0  0  0
   10.2727  -17.3712   27.0020 C   0  0  0  0  0  0  0  0  0  0  0  0
   10.6153  -16.3601   27.8749 O   0  0  0  0  0  0  0  0  0  0  0  0
   10.4905  -18.5556   27.3479 O   0  0  0  0  0  0  0  0  0  0  0  0
  2  1  1  0
  2  4  1  0
  3  2  2  0
  5  4  1  0
  5  7  1  0
  5  6  1  6
  7  8  2  0
  7  9  1  0
  9 10  1  0
 10 13  1  0
 10 11  1  1
 11 12  1  0
 13 20  1  0
 13 14  2  0
 16 17  2  0
 16 15  1  0
 19 18  1  6
 18 16  1  0
 19 21  1  0
 20 19  1  0
 21 22  1  0
 23 21  2  0
M  END
$$$$
