NCN.pdb
     RDKit          3D

 23 22  0  0  1  0  0  0  0  0999 V2000
    8.9630  -14.9874   19.4291 N   0  0  0  0  0  0  0  0  0  0  0  0
    7.5783  -15.1395   19.2511 C   0  0  0  0  0  0  0  0  0  0  0  0
    7.0743  -16.1429   18.6463 O   0  0  0  0  0  0  0  0  0  0  0  0
    6.6605  -14.1059   19.7788 C   0  0  0  0  0  0  0  0  0  0  0  0
    7.4538  -12.9703   20.3973 C   0  0  2  0  0  0  0  0  0  0  0  0
    8.4586  -12.5010   19.4926 N   0  0  0  0  0  0  0  0  0  0  0  0
    7.9838  -13.3687   21.7106 C   0  0  0  0  0  0  0  0  0  0  0  0
    9.1952  -13.6690   21.8073 O   0  0  0  0  0  0  0  0  0  0  0  0
    7.2184  -13.4432   22.9129 N   0  0  0  0  0  0  0  0  0  0  0  0
    7.7915  -13.8774   24.1533 C   0  0  1  0  0  0  0  0  0  0  0  0
    6.8990  -13.6837   25.3466 C   0  0  0  0  0  0  0  0  0  0  0  0
    6.4906  -11.9677   25.6891 S   0  0  0  0  0  0  0  0  0  0  0  0
    8.2104  -15.2975   24.0614 C   0  0  0  0  0  0  0  0  0  0  0  0
    7.8552  -16.0621   23.1238 O   0  0  0  0  0  0  0  0  0  0  0  0
   11.4352  -19.2883   24.2442 N   0  0  0  0  0  0  0  0  0  0  0  0
   11.6044  -18.0924   23.5199 C   0  0  0  0  0  0  0  0  0  0  0  0
   12.5198  -18.0247   22.6363 O   0  0  0  0  0  0  0  0  0  0  0  0
   10.7465  -16.9043   23.7547 C   0  0  0  0  0  0  0  0  0  0  0  0
    9.7027  -17.1592   24.8487 C   0  0  2  0  0  0  0  0  0  0  0  0
    9.0598  -15.8771   25.0587 N   0  0  0  0  0  0  0  0  0  0  0  0
   10.4368  -17.6049   26.0560 C   0  0  0  0  0  0  0  0  0  0  0  0
   11.2740  -16.7879   26.7862 O   0  0  0  0  0  0  0  0  0  0  0  0
   10.2861  -18.7907   26.4313 O   0  0  0  0  0  0  0  0  0  0  0  0
  2  1  1  0
  2  4  1  0
  3  2  2  0
  5  4  1  0
  5  7  1  0
  5  6  1  6
  7  8  2  0
  7  9  1  0
  9 10  1  0
 10 13  1  0
 10 11  1  1
 11 12  1  0
 13 20  1  0
 13 14  2  0
 16 17  2  0
 16 15  1  0
 19 18  1  6
 18 16  1  0
 19 21  1  0
 20 19  1  0
 21 22  1  0
 23 21  2  0
M  END
$$$$
