NCN.pdb
     RDKit          3D

 23 22  0  0  1  0  0  0  0  0999 V2000
    8.3110  -16.8581   17.9975 N   0  0  0  0  0  0  0  0  0  0  0  0
    9.5366  -16.2321   18.2776 C   0  0  0  0  0  0  0  0  0  0  0  0
   10.4810  -16.1685   17.4230 O   0  0  0  0  0  0  0  0  0  0  0  0
    9.7527  -15.6212   19.6077 C   0  0  0  0  0  0  0  0  0  0  0  0
    8.5938  -15.9529   20.5288 C   0  0  2  0  0  0  0  0  0  0  0  0
    7.3713  -15.4058   20.0241 N   0  0  0  0  0  0  0  0  0  0  0  0
    8.8984  -15.5403   21.9077 C   0  0  0  0  0  0  0  0  0  0  0  0
   10.0676  -15.6751   22.3342 O   0  0  0  0  0  0  0  0  0  0  0  0
    7.9541  -14.9855   22.8228 N   0  0  0  0  0  0  0  0  0  0  0  0
    8.2577  -14.8049   24.2123 C   0  0  1  0  0  0  0  0  0  0  0  0
    7.2469  -13.9848   24.9632 C   0  0  0  0  0  0  0  0  0  0  0  0
    6.9997  -12.3335   24.2992 S   0  0  0  0  0  0  0  0  0  0  0  0
    8.4374  -16.1182   24.8783 C   0  0  0  0  0  0  0  0  0  0  0  0
    7.6375  -17.0816   24.7305 O   0  0  0  0  0  0  0  0  0  0  0  0
   11.1695  -20.6076   24.3953 N   0  0  0  0  0  0  0  0  0  0  0  0
   11.4935  -19.4626   25.1488 C   0  0  0  0  0  0  0  0  0  0  0  0
   12.3628  -19.5538   26.0758 O   0  0  0  0  0  0  0  0  0  0  0  0
   10.8514  -18.1487   24.8959 C   0  0  0  0  0  0  0  0  0  0  0  0
    9.9777  -17.7023   26.0744 C   0  0  2  0  0  0  0  0  0  0  0  0
    9.5570  -16.3562   25.7396 N   0  0  0  0  0  0  0  0  0  0  0  0
   10.8342  -17.7206   27.2832 C   0  0  0  0  0  0  0  0  0  0  0  0
   10.9906  -18.8265   28.0922 O   0  0  0  0  0  0  0  0  0  0  0  0
   11.4488  -16.6712   27.5842 O   0  0  0  0  0  0  0  0  0  0  0  0
  2  1  1  0
  2  4  1  0
  3  2  2  0
  5  4  1  0
  5  7  1  0
  5  6  1  6
  7  8  2  0
  7  9  1  0
  9 10  1  0
 10 13  1  0
 10 11  1  1
 11 12  1  0
 13 20  1  0
 13 14  2  0
 16 17  2  0
 16 15  1  0
 19 18  1  6
 18 16  1  0
 19 21  1  0
 20 19  1  0
 21 22  1  0
 23 21  2  0
M  END
$$$$
