GES.pdb
     RDKit          3D

 20 19  0  0  1  0  0  0  0  0999 V2000
    8.5386  -15.3892   16.5488 N   0  0  0  0  0  0  0  0  0  0  0  0
    9.3127  -14.3641   17.2043 C   0  0  0  0  0  0  0  0  0  0  0  0
   10.4638  -15.0300   17.9101 C   0  0  0  0  0  0  0  0  0  0  0  0
   10.2931  -16.2226   18.2243 O   0  0  0  0  0  0  0  0  0  0  0  0
   11.6400  -14.3220   18.1808 N   0  0  0  0  0  0  0  0  0  0  0  0
   12.7948  -14.8563   18.8167 C   0  0  1  0  0  0  0  0  0  0  0  0
   14.0951  -14.2940   18.3034 C   0  0  0  0  0  0  0  0  0  0  0  0
   15.3359  -14.9068   18.8301 C   0  0  0  0  0  0  0  0  0  0  0  0
   16.5781  -14.3655   18.2067 C   0  0  0  0  0  0  0  0  0  0  0  0
   17.0648  -13.2902   18.5566 O   0  0  0  0  0  0  0  0  0  0  0  0
   12.7524  -14.7165   20.2950 C   0  0  0  0  0  0  0  0  0  0  0  0
   12.6912  -13.5356   20.7902 O   0  0  0  0  0  0  0  0  0  0  0  0
   17.2328  -15.0754   17.1933 O   0  0  0  0  0  0  0  0  0  0  0  0
   11.2831  -17.4137   22.7598 O   0  0  0  0  0  0  0  0  0  0  0  0
   11.5652  -16.1540   23.3001 C   0  0  0  0  0  0  0  0  0  0  0  0
   12.7713  -15.5871   22.5947 C   0  0  2  0  0  0  0  0  0  0  0  0
   12.7758  -15.8184   21.1872 N   0  0  0  0  0  0  0  0  0  0  0  0
   13.9729  -16.2357   23.2037 C   0  0  0  0  0  0  0  0  0  0  0  0
   14.7187  -16.9358   22.4766 O   0  0  0  0  0  0  0  0  0  0  0  0
   14.2775  -16.0818   24.5406 O   0  0  0  0  0  0  0  0  0  0  0  0
  2  1  1  0
  3  5  1  0
  3  2  1  0
  4  3  2  0
  6 11  1  0
  6  5  1  0
  6  7  1  6
  8  7  1  0
  9  8  1  0
 10  9  2  0
 11 12  2  0
 13  9  1  0
 14 15  1  0
 16 15  1  1
 17 11  1  0
 17 16  1  0
 18 16  1  0
 18 20  1  0
 19 18  2  0
M  END
$$$$
