GES.pdb
     RDKit          3D

 20 19  0  0  1  0  0  0  0  0999 V2000
    7.4039  -13.2146   17.3905 N   0  0  0  0  0  0  0  0  0  0  0  0
    8.6475  -13.1670   18.1192 C   0  0  0  0  0  0  0  0  0  0  0  0
    8.6123  -14.2442   19.1705 C   0  0  0  0  0  0  0  0  0  0  0  0
    7.6023  -14.2616   19.8983 O   0  0  0  0  0  0  0  0  0  0  0  0
    9.6680  -15.1542   19.2945 N   0  0  0  0  0  0  0  0  0  0  0  0
    9.7487  -16.1949   20.2608 C   0  0  1  0  0  0  0  0  0  0  0  0
   10.6389  -17.3416   19.8567 C   0  0  0  0  0  0  0  0  0  0  0  0
   10.6731  -18.5073   20.7691 C   0  0  0  0  0  0  0  0  0  0  0  0
   11.5882  -19.5933   20.3132 C   0  0  0  0  0  0  0  0  0  0  0  0
   12.5729  -19.9311   20.9702 O   0  0  0  0  0  0  0  0  0  0  0  0
   10.1633  -15.7037   21.6000 C   0  0  0  0  0  0  0  0  0  0  0  0
   11.2372  -15.0084   21.6844 O   0  0  0  0  0  0  0  0  0  0  0  0
   11.3484  -20.2668   19.1097 O   0  0  0  0  0  0  0  0  0  0  0  0
    7.5839  -15.5625   24.7085 O   0  0  0  0  0  0  0  0  0  0  0  0
    8.6844  -14.6996   24.7600 C   0  0  0  0  0  0  0  0  0  0  0  0
    9.8276  -15.3324   24.0076 C   0  0  2  0  0  0  0  0  0  0  0  0
    9.4356  -15.9622   22.7893 N   0  0  0  0  0  0  0  0  0  0  0  0
   10.4313  -16.3540   24.9174 C   0  0  0  0  0  0  0  0  0  0  0  0
   10.4190  -17.5596   24.5692 O   0  0  0  0  0  0  0  0  0  0  0  0
   10.9983  -16.0012   26.1248 O   0  0  0  0  0  0  0  0  0  0  0  0
  2  1  1  0
  3  5  1  0
  3  2  1  0
  4  3  2  0
  6 11  1  0
  6  5  1  0
  6  7  1  6
  8  7  1  0
  9  8  1  0
 10  9  2  0
 11 12  2  0
 13  9  1  0
 14 15  1  0
 16 15  1  1
 17 11  1  0
 17 16  1  0
 18 16  1  0
 18 20  1  0
 19 18  2  0
M  END
$$$$
