GES.pdb
     RDKit          3D

 20 19  0  0  1  0  0  0  0  0999 V2000
    6.7362  -13.0688   18.4309 N   0  0  0  0  0  0  0  0  0  0  0  0
    8.0016  -12.5639   18.9038 C   0  0  0  0  0  0  0  0  0  0  0  0
    8.8946  -13.7416   19.1906 C   0  0  0  0  0  0  0  0  0  0  0  0
    8.3241  -14.8424   19.3041 O   0  0  0  0  0  0  0  0  0  0  0  0
   10.2780  -13.5735   19.3161 N   0  0  0  0  0  0  0  0  0  0  0  0
   11.2116  -14.6100   19.5942 C   0  0  1  0  0  0  0  0  0  0  0  0
   12.6439  -14.2414   19.3060 C   0  0  0  0  0  0  0  0  0  0  0  0
   13.6510  -15.3135   19.4756 C   0  0  0  0  0  0  0  0  0  0  0  0
   14.7902  -15.2169   18.5177 C   0  0  0  0  0  0  0  0  0  0  0  0
   14.6169  -15.2332   17.2990 O   0  0  0  0  0  0  0  0  0  0  0  0
   11.1087  -15.1164   20.9870 C   0  0  0  0  0  0  0  0  0  0  0  0
   11.2524  -14.2798   21.9478 O   0  0  0  0  0  0  0  0  0  0  0  0
   16.1048  -15.1035   18.9850 O   0  0  0  0  0  0  0  0  0  0  0  0
    9.6058  -18.7828   21.9083 O   0  0  0  0  0  0  0  0  0  0  0  0
    9.6312  -17.8410   22.9429 C   0  0  0  0  0  0  0  0  0  0  0  0
   10.7499  -16.8654   22.6780 C   0  0  2  0  0  0  0  0  0  0  0  0
   10.8603  -16.4745   21.3106 N   0  0  0  0  0  0  0  0  0  0  0  0
   12.0175  -17.5355   23.1019 C   0  0  0  0  0  0  0  0  0  0  0  0
   12.9366  -17.6835   22.2603 O   0  0  0  0  0  0  0  0  0  0  0  0
   12.1971  -17.9922   24.3915 O   0  0  0  0  0  0  0  0  0  0  0  0
  2  1  1  0
  3  5  1  0
  3  2  1  0
  4  3  2  0
  6 11  1  0
  6  5  1  0
  6  7  1  1
  8  7  1  0
  9  8  1  0
 10  9  2  0
 11 12  2  0
 13  9  1  0
 14 15  1  0
 16 15  1  6
 17 11  1  0
 17 16  1  0
 18 16  1  0
 18 20  1  0
 19 18  2  0
M  END
$$$$
