GES.pdb
     RDKit          3D

 20 19  0  0  1  0  0  0  0  0999 V2000
    7.2094  -13.2709   17.6575 N   0  0  0  0  0  0  0  0  0  0  0  0
    8.6096  -13.5148   17.9022 C   0  0  0  0  0  0  0  0  0  0  0  0
    8.7200  -14.4681   19.0623 C   0  0  0  0  0  0  0  0  0  0  0  0
    7.6922  -14.6091   19.7506 O   0  0  0  0  0  0  0  0  0  0  0  0
    9.9204  -15.1384   19.3225 N   0  0  0  0  0  0  0  0  0  0  0  0
   10.1174  -16.1073   20.3451 C   0  0  1  0  0  0  0  0  0  0  0  0
   11.3594  -16.9423   20.1701 C   0  0  0  0  0  0  0  0  0  0  0  0
   11.3547  -17.9103   19.0495 C   0  0  0  0  0  0  0  0  0  0  0  0
   12.6438  -18.6437   18.8911 C   0  0  0  0  0  0  0  0  0  0  0  0
   13.1366  -18.8585   17.7837 O   0  0  0  0  0  0  0  0  0  0  0  0
   10.1168  -15.5130   21.7065 C   0  0  0  0  0  0  0  0  0  0  0  0
   10.9869  -14.6100   21.9736 O   0  0  0  0  0  0  0  0  0  0  0  0
   13.3372  -19.1137   20.0126 O   0  0  0  0  0  0  0  0  0  0  0  0
    6.7901  -15.2736   23.9837 O   0  0  0  0  0  0  0  0  0  0  0  0
    7.8567  -14.3773   24.1158 C   0  0  0  0  0  0  0  0  0  0  0  0
    9.1474  -15.1355   23.9347 C   0  0  2  0  0  0  0  0  0  0  0  0
    9.2062  -15.8904   22.7258 N   0  0  0  0  0  0  0  0  0  0  0  0
    9.2710  -16.0634   25.1006 C   0  0  0  0  0  0  0  0  0  0  0  0
    9.3301  -17.2991   24.8892 O   0  0  0  0  0  0  0  0  0  0  0  0
    9.3214  -15.5927   26.3966 O   0  0  0  0  0  0  0  0  0  0  0  0
  2  1  1  0
  3  5  1  0
  3  2  1  0
  4  3  2  0
  6 11  1  0
  6  5  1  0
  6  7  1  6
  8  7  1  0
  9  8  1  0
 10  9  2  0
 11 12  2  0
 13  9  1  0
 14 15  1  0
 16 15  1  1
 17 11  1  0
 17 16  1  0
 18 16  1  0
 18 20  1  0
 19 18  2  0
M  END
$$$$
