GES.pdb
     RDKit          3D

 20 19  0  0  1  0  0  0  0  0999 V2000
   13.2967  -17.7821   15.5294 N   0  0  0  0  0  0  0  0  0  0  0  0
   14.3887  -18.0175   16.4414 C   0  0  0  0  0  0  0  0  0  0  0  0
   13.8062  -18.3255   17.7951 C   0  0  0  0  0  0  0  0  0  0  0  0
   12.5825  -18.1317   17.9180 O   0  0  0  0  0  0  0  0  0  0  0  0
   14.6197  -18.7994   18.8303 N   0  0  0  0  0  0  0  0  0  0  0  0
   14.1660  -19.1919   20.1200 C   0  0  1  0  0  0  0  0  0  0  0  0
   15.0796  -20.1611   20.8247 C   0  0  0  0  0  0  0  0  0  0  0  0
   14.5590  -20.7805   22.0648 C   0  0  0  0  0  0  0  0  0  0  0  0
   15.5146  -21.7327   22.7011 C   0  0  0  0  0  0  0  0  0  0  0  0
   16.2354  -21.3980   23.6413 O   0  0  0  0  0  0  0  0  0  0  0  0
   13.9011  -18.0341   21.0122 C   0  0  0  0  0  0  0  0  0  0  0  0
   14.7408  -17.0653   21.0126 O   0  0  0  0  0  0  0  0  0  0  0  0
   15.6189  -23.0502   22.2400 O   0  0  0  0  0  0  0  0  0  0  0  0
   10.7317  -15.9578   21.1976 O   0  0  0  0  0  0  0  0  0  0  0  0
   11.0576  -16.3040   22.5137 C   0  0  0  0  0  0  0  0  0  0  0  0
   12.5050  -16.7249   22.5561 C   0  0  2  0  0  0  0  0  0  0  0  0
   12.7702  -17.9429   21.8628 N   0  0  0  0  0  0  0  0  0  0  0  0
   12.8649  -16.8910   23.9978 C   0  0  0  0  0  0  0  0  0  0  0  0
   13.2569  -18.0133   24.4000 O   0  0  0  0  0  0  0  0  0  0  0  0
   12.7756  -15.8426   24.8903 O   0  0  0  0  0  0  0  0  0  0  0  0
  2  1  1  0
  3  5  1  0
  3  2  1  0
  4  3  2  0
  6 11  1  0
  6  5  1  0
  6  7  1  1
  8  7  1  0
  9  8  1  0
 10  9  2  0
 11 12  2  0
 13  9  1  0
 14 15  1  0
 16 15  1  1
 17 11  1  0
 17 16  1  0
 18 16  1  0
 18 20  1  0
 19 18  2  0
M  END
$$$$
