GES.pdb
     RDKit          3D

 20 19  0  0  1  0  0  0  0  0999 V2000
    6.7772  -13.2795   18.0928 N   0  0  0  0  0  0  0  0  0  0  0  0
    7.9527  -12.6831   18.6780 C   0  0  0  0  0  0  0  0  0  0  0  0
    8.8929  -13.7928   19.0669 C   0  0  0  0  0  0  0  0  0  0  0  0
    8.3905  -14.9291   19.1463 O   0  0  0  0  0  0  0  0  0  0  0  0
   10.2440  -13.5277   19.3167 N   0  0  0  0  0  0  0  0  0  0  0  0
   11.2200  -14.4972   19.6782 C   0  0  1  0  0  0  0  0  0  0  0  0
   12.5582  -14.3000   19.0141 C   0  0  0  0  0  0  0  0  0  0  0  0
   13.5715  -15.3560   19.2387 C   0  0  0  0  0  0  0  0  0  0  0  0
   14.8476  -15.1227   18.5026 C   0  0  0  0  0  0  0  0  0  0  0  0
   15.8252  -14.6075   19.0451 O   0  0  0  0  0  0  0  0  0  0  0  0
   11.4143  -14.5958   21.1477 C   0  0  0  0  0  0  0  0  0  0  0  0
   11.1959  -13.5516   21.8588 O   0  0  0  0  0  0  0  0  0  0  0  0
   14.9694  -15.4882   17.1569 O   0  0  0  0  0  0  0  0  0  0  0  0
    9.1228  -16.8823   23.9949 O   0  0  0  0  0  0  0  0  0  0  0  0
    9.6760  -16.4594   22.7811 C   0  0  0  0  0  0  0  0  0  0  0  0
   11.1487  -16.2084   22.9850 C   0  0  2  0  0  0  0  0  0  0  0  0
   11.8281  -15.7818   21.8056 N   0  0  0  0  0  0  0  0  0  0  0  0
   11.7453  -17.4952   23.4581 C   0  0  0  0  0  0  0  0  0  0  0  0
   12.1126  -18.3425   22.6084 O   0  0  0  0  0  0  0  0  0  0  0  0
   11.8995  -17.7693   24.8016 O   0  0  0  0  0  0  0  0  0  0  0  0
  2  1  1  0
  3  5  1  0
  3  2  1  0
  4  3  2  0
  6 11  1  0
  6  5  1  0
  6  7  1  6
  8  7  1  0
  9  8  1  0
 10  9  2  0
 11 12  2  0
 13  9  1  0
 14 15  1  0
 16 15  1  6
 17 11  1  0
 17 16  1  0
 18 16  1  0
 18 20  1  0
 19 18  2  0
M  END
$$$$
