GES.pdb
     RDKit          3D

 20 19  0  0  1  0  0  0  0  0999 V2000
    7.3574  -13.2737   18.1293 N   0  0  0  0  0  0  0  0  0  0  0  0
    8.2203  -13.0244   19.2576 C   0  0  0  0  0  0  0  0  0  0  0  0
    8.2822  -14.2821   20.0828 C   0  0  0  0  0  0  0  0  0  0  0  0
    7.1891  -14.8219   20.3351 O   0  0  0  0  0  0  0  0  0  0  0  0
    9.5110  -14.7862   20.5232 N   0  0  0  0  0  0  0  0  0  0  0  0
    9.6850  -15.9516   21.3200 C   0  0  1  0  0  0  0  0  0  0  0  0
   10.9333  -16.7334   21.0019 C   0  0  0  0  0  0  0  0  0  0  0  0
   11.0981  -17.1765   19.5987 C   0  0  0  0  0  0  0  0  0  0  0  0
   12.3705  -17.9151   19.3534 C   0  0  0  0  0  0  0  0  0  0  0  0
   13.2122  -17.5098   18.5516 O   0  0  0  0  0  0  0  0  0  0  0  0
    9.6486  -15.6617   22.7765 C   0  0  0  0  0  0  0  0  0  0  0  0
   10.3459  -14.6799   23.2162 O   0  0  0  0  0  0  0  0  0  0  0  0
   12.6455  -19.1049   20.0376 O   0  0  0  0  0  0  0  0  0  0  0  0
    6.7761  -14.9320   24.6484 O   0  0  0  0  0  0  0  0  0  0  0  0
    7.4421  -15.7378   25.5787 C   0  0  0  0  0  0  0  0  0  0  0  0
    8.8370  -16.0052   25.0722 C   0  0  2  0  0  0  0  0  0  0  0  0
    8.8845  -16.4120   23.7059 N   0  0  0  0  0  0  0  0  0  0  0  0
    9.4075  -17.0899   25.9286 C   0  0  0  0  0  0  0  0  0  0  0  0
    9.8031  -18.1488   25.3834 O   0  0  0  0  0  0  0  0  0  0  0  0
    9.5076  -16.9522   27.2978 O   0  0  0  0  0  0  0  0  0  0  0  0
  2  1  1  0
  3  5  1  0
  3  2  1  0
  4  3  2  0
  6 11  1  0
  6  5  1  0
  6  7  1  6
  8  7  1  0
  9  8  1  0
 10  9  2  0
 11 12  2  0
 13  9  1  0
 14 15  1  0
 16 15  1  1
 17 11  1  0
 17 16  1  0
 18 16  1  0
 18 20  1  0
 19 18  2  0
M  END
$$$$
