GES.pdb
     RDKit          3D

 20 19  0  0  1  0  0  0  0  0999 V2000
    6.8811  -13.0323   18.7014 N   0  0  0  0  0  0  0  0  0  0  0  0
    8.1699  -13.4698   19.1784 C   0  0  0  0  0  0  0  0  0  0  0  0
    7.9573  -14.2361   20.4568 C   0  0  0  0  0  0  0  0  0  0  0  0
    6.7887  -14.2664   20.8853 O   0  0  0  0  0  0  0  0  0  0  0  0
    9.0305  -14.8641   21.0985 N   0  0  0  0  0  0  0  0  0  0  0  0
    8.9288  -15.7037   22.2422 C   0  0  1  0  0  0  0  0  0  0  0  0
    9.7227  -16.9803   22.1406 C   0  0  0  0  0  0  0  0  0  0  0  0
    9.4854  -17.8146   20.9405 C   0  0  0  0  0  0  0  0  0  0  0  0
   10.6767  -18.6087   20.5225 C   0  0  0  0  0  0  0  0  0  0  0  0
   11.7697  -18.4786   21.0738 O   0  0  0  0  0  0  0  0  0  0  0  0
    9.2894  -15.0037   23.5019 C   0  0  0  0  0  0  0  0  0  0  0  0
   10.4487  -14.4623   23.5833 O   0  0  0  0  0  0  0  0  0  0  0  0
   10.5826  -19.5359   19.4780 O   0  0  0  0  0  0  0  0  0  0  0  0
    6.8404  -13.0134   25.3523 O   0  0  0  0  0  0  0  0  0  0  0  0
    7.7899  -13.2728   26.3471 C   0  0  0  0  0  0  0  0  0  0  0  0
    8.8439  -14.1892   25.7789 C   0  0  2  0  0  0  0  0  0  0  0  0
    8.4210  -14.9022   24.6182 N   0  0  0  0  0  0  0  0  0  0  0  0
    9.1940  -15.1657   26.8557 C   0  0  0  0  0  0  0  0  0  0  0  0
    9.0868  -16.3936   26.6198 O   0  0  0  0  0  0  0  0  0  0  0  0
    9.6300  -14.7477   28.0963 O   0  0  0  0  0  0  0  0  0  0  0  0
  2  1  1  0
  3  5  1  0
  3  2  1  0
  4  3  2  0
  6 11  1  0
  6  5  1  0
  6  7  1  6
  8  7  1  0
  9  8  1  0
 10  9  2  0
 11 12  2  0
 13  9  1  0
 14 15  1  0
 16 15  1  1
 17 11  1  0
 17 16  1  0
 18 16  1  0
 18 20  1  0
 19 18  2  0
M  END
$$$$
