GES.pdb
     RDKit          3D

 20 19  0  0  1  0  0  0  0  0999 V2000
    7.1539  -12.8828   18.5649 N   0  0  0  0  0  0  0  0  0  0  0  0
    8.5182  -13.3333   18.6893 C   0  0  0  0  0  0  0  0  0  0  0  0
    8.5577  -14.4141   19.7366 C   0  0  0  0  0  0  0  0  0  0  0  0
    7.5174  -14.5634   20.4042 O   0  0  0  0  0  0  0  0  0  0  0  0
    9.7103  -15.1856   19.9220 N   0  0  0  0  0  0  0  0  0  0  0  0
    9.8338  -16.2774   20.8253 C   0  0  1  0  0  0  0  0  0  0  0  0
   10.8409  -17.3151   20.4018 C   0  0  0  0  0  0  0  0  0  0  0  0
   10.9254  -18.5357   21.2358 C   0  0  0  0  0  0  0  0  0  0  0  0
    9.8774  -19.5480   20.9171 C   0  0  0  0  0  0  0  0  0  0  0  0
   10.0335  -20.3868   20.0297 O   0  0  0  0  0  0  0  0  0  0  0  0
   10.1353  -15.8425   22.2134 C   0  0  0  0  0  0  0  0  0  0  0  0
   11.2227  -15.1965   22.4229 O   0  0  0  0  0  0  0  0  0  0  0  0
    8.6719  -19.5717   21.6282 O   0  0  0  0  0  0  0  0  0  0  0  0
    7.3755  -15.8954   25.2335 O   0  0  0  0  0  0  0  0  0  0  0  0
    8.4708  -15.0364   25.3774 C   0  0  0  0  0  0  0  0  0  0  0  0
    9.6355  -15.6091   24.6097 C   0  0  2  0  0  0  0  0  0  0  0  0
    9.2857  -16.1034   23.3182 N   0  0  0  0  0  0  0  0  0  0  0  0
   10.1867  -16.7293   25.4325 C   0  0  0  0  0  0  0  0  0  0  0  0
   10.1319  -17.8986   24.9800 O   0  0  0  0  0  0  0  0  0  0  0  0
   10.7512  -16.5060   26.6715 O   0  0  0  0  0  0  0  0  0  0  0  0
  2  1  1  0
  3  5  1  0
  3  2  1  0
  4  3  2  0
  6 11  1  0
  6  5  1  0
  6  7  1  6
  8  7  1  0
  9  8  1  0
 10  9  2  0
 11 12  2  0
 13  9  1  0
 14 15  1  0
 16 15  1  1
 17 11  1  0
 17 16  1  0
 18 16  1  0
 18 20  1  0
 19 18  2  0
M  END
$$$$
