GES.pdb
     RDKit          3D

 20 19  0  0  1  0  0  0  0  0999 V2000
    6.8703  -13.1097   18.8946 N   0  0  0  0  0  0  0  0  0  0  0  0
    8.2672  -12.7603   18.8137 C   0  0  0  0  0  0  0  0  0  0  0  0
    9.0673  -13.9115   19.3626 C   0  0  0  0  0  0  0  0  0  0  0  0
    8.4111  -14.8238   19.8984 O   0  0  0  0  0  0  0  0  0  0  0  0
   10.4627  -13.9230   19.2598 N   0  0  0  0  0  0  0  0  0  0  0  0
   11.3033  -15.0226   19.5879 C   0  0  1  0  0  0  0  0  0  0  0  0
   12.6116  -15.0410   18.8404 C   0  0  0  0  0  0  0  0  0  0  0  0
   13.4431  -16.2571   18.9897 C   0  0  0  0  0  0  0  0  0  0  0  0
   14.7062  -16.2154   18.1976 C   0  0  0  0  0  0  0  0  0  0  0  0
   15.8119  -16.2085   18.7387 O   0  0  0  0  0  0  0  0  0  0  0  0
   11.5724  -15.1245   21.0452 C   0  0  0  0  0  0  0  0  0  0  0  0
   12.2049  -14.1646   21.6129 O   0  0  0  0  0  0  0  0  0  0  0  0
   14.6677  -16.1828   16.7987 O   0  0  0  0  0  0  0  0  0  0  0  0
    9.2700  -17.2225   23.4742 O   0  0  0  0  0  0  0  0  0  0  0  0
   10.1173  -16.2775   24.0636 C   0  0  0  0  0  0  0  0  0  0  0  0
   11.3848  -16.1949   23.2511 C   0  0  2  0  0  0  0  0  0  0  0  0
   11.1676  -16.2256   21.8417 N   0  0  0  0  0  0  0  0  0  0  0  0
   12.2277  -17.3656   23.6445 C   0  0  0  0  0  0  0  0  0  0  0  0
   12.5767  -18.1862   22.7615 O   0  0  0  0  0  0  0  0  0  0  0  0
   12.6275  -17.5618   24.9504 O   0  0  0  0  0  0  0  0  0  0  0  0
  2  1  1  0
  3  5  1  0
  3  2  1  0
  4  3  2  0
  6 11  1  0
  6  5  1  0
  6  7  1  6
  8  7  1  0
  9  8  1  0
 10  9  2  0
 11 12  2  0
 13  9  1  0
 14 15  1  0
 16 15  1  1
 17 11  1  0
 17 16  1  0
 18 16  1  0
 18 20  1  0
 19 18  2  0
M  END
$$$$
