GES.pdb
     RDKit          3D

 20 19  0  0  1  0  0  0  0  0999 V2000
   -0.5900  -25.8871   27.3291 N   0  0  0  0  0  0  0  0  0  0  0  0
   -0.9305  -25.7676   28.7255 C   0  0  0  0  0  0  0  0  0  0  0  0
   -2.4314  -25.7288   28.8368 C   0  0  0  0  0  0  0  0  0  0  0  0
   -3.0573  -25.7335   27.7606 O   0  0  0  0  0  0  0  0  0  0  0  0
   -3.0525  -25.6902   30.0901 N   0  0  0  0  0  0  0  0  0  0  0  0
   -4.4572  -25.6603   30.3122 C   0  0  1  0  0  0  0  0  0  0  0  0
   -4.8879  -26.2892   31.6120 C   0  0  0  0  0  0  0  0  0  0  0  0
   -6.3420  -26.3050   31.8908 C   0  0  0  0  0  0  0  0  0  0  0  0
   -6.6883  -26.9043   33.2120 C   0  0  0  0  0  0  0  0  0  0  0  0
   -6.5958  -26.2644   34.2595 O   0  0  0  0  0  0  0  0  0  0  0  0
   -5.0234  -24.2899   30.2220 C   0  0  0  0  0  0  0  0  0  0  0  0
   -4.3555  -23.3236   30.7357 O   0  0  0  0  0  0  0  0  0  0  0  0
   -7.1339  -28.2286   33.2973 O   0  0  0  0  0  0  0  0  0  0  0  0
   -6.4244  -22.5337   27.1182 O   0  0  0  0  0  0  0  0  0  0  0  0
   -7.3493  -22.3323   28.1489 C   0  0  0  0  0  0  0  0  0  0  0  0
   -6.6772  -22.6352   29.4643 C   0  0  2  0  0  0  0  0  0  0  0  0
   -6.2620  -23.9932   29.5986 N   0  0  0  0  0  0  0  0  0  0  0  0
   -7.6660  -22.3145   30.5391 C   0  0  0  0  0  0  0  0  0  0  0  0
   -8.2692  -23.2558   31.1092 O   0  0  0  0  0  0  0  0  0  0  0  0
   -7.9278  -21.0131   30.9151 O   0  0  0  0  0  0  0  0  0  0  0  0
  2  1  1  0
  3  5  1  0
  3  2  1  0
  4  3  2  0
  6 11  1  0
  6  5  1  0
  6  7  1  1
  8  7  1  0
  9  8  1  0
 10  9  2  0
 11 12  2  0
 13  9  1  0
 14 15  1  0
 16 15  1  6
 17 11  1  0
 17 16  1  0
 18 16  1  0
 18 20  1  0
 19 18  2  0
M  END
$$$$
