GES.pdb
     RDKit          3D

 20 19  0  0  1  0  0  0  0  0999 V2000
    6.3452  -18.5944   17.1742 N   0  0  0  0  0  0  0  0  0  0  0  0
    7.3822  -17.6078   17.3502 C   0  0  0  0  0  0  0  0  0  0  0  0
    8.3902  -18.1606   18.3223 C   0  0  0  0  0  0  0  0  0  0  0  0
    7.9426  -18.5113   19.4299 O   0  0  0  0  0  0  0  0  0  0  0  0
    9.7406  -18.2600   17.9697 N   0  0  0  0  0  0  0  0  0  0  0  0
   10.8023  -18.5828   18.8596 C   0  0  1  0  0  0  0  0  0  0  0  0
   12.1014  -18.9153   18.1723 C   0  0  0  0  0  0  0  0  0  0  0  0
   12.1267  -20.1589   17.3690 C   0  0  0  0  0  0  0  0  0  0  0  0
   12.9923  -20.0677   16.1578 C   0  0  0  0  0  0  0  0  0  0  0  0
   14.2180  -20.1592   16.2274 O   0  0  0  0  0  0  0  0  0  0  0  0
   11.0436  -17.5239   19.8731 C   0  0  0  0  0  0  0  0  0  0  0  0
   11.2470  -16.3268   19.4617 O   0  0  0  0  0  0  0  0  0  0  0  0
   12.4265  -19.8730   14.8923 O   0  0  0  0  0  0  0  0  0  0  0  0
    9.5758  -17.4229   23.5239 O   0  0  0  0  0  0  0  0  0  0  0  0
   10.2069  -16.2761   23.0292 C   0  0  0  0  0  0  0  0  0  0  0  0
   11.3691  -16.7003   22.1672 C   0  0  2  0  0  0  0  0  0  0  0  0
   11.0610  -17.7657   21.2702 N   0  0  0  0  0  0  0  0  0  0  0  0
   12.4581  -17.1370   23.0941 C   0  0  0  0  0  0  0  0  0  0  0  0
   12.8299  -18.3354   23.0716 O   0  0  0  0  0  0  0  0  0  0  0  0
   13.0594  -16.2553   23.9686 O   0  0  0  0  0  0  0  0  0  0  0  0
  2  1  1  0
  3  5  1  0
  3  2  1  0
  4  3  2  0
  6 11  1  0
  6  5  1  0
  6  7  1  6
  8  7  1  0
  9  8  1  0
 10  9  2  0
 11 12  2  0
 13  9  1  0
 14 15  1  0
 16 15  1  1
 17 11  1  0
 17 16  1  0
 18 16  1  0
 18 20  1  0
 19 18  2  0
M  END
$$$$
