GES.pdb
     RDKit          3D

 20 19  0  0  1  0  0  0  0  0999 V2000
    9.8024  -17.2308   18.1627 N   0  0  0  0  0  0  0  0  0  0  0  0
   10.5212  -17.6968   19.3229 C   0  0  0  0  0  0  0  0  0  0  0  0
    9.6455  -17.4846   20.5291 C   0  0  0  0  0  0  0  0  0  0  0  0
    9.4774  -16.3015   20.8783 O   0  0  0  0  0  0  0  0  0  0  0  0
    9.0712  -18.5739   21.1936 N   0  0  0  0  0  0  0  0  0  0  0  0
    8.2754  -18.4943   22.3699 C   0  0  1  0  0  0  0  0  0  0  0  0
    7.4391  -19.7204   22.6308 C   0  0  0  0  0  0  0  0  0  0  0  0
    6.4811  -19.6417   23.7571 C   0  0  0  0  0  0  0  0  0  0  0  0
    5.7240  -20.9066   23.9840 C   0  0  0  0  0  0  0  0  0  0  0  0
    4.8180  -21.2648   23.2314 O   0  0  0  0  0  0  0  0  0  0  0  0
    9.0737  -18.1809   23.5828 C   0  0  0  0  0  0  0  0  0  0  0  0
   10.2285  -18.7243   23.7049 O   0  0  0  0  0  0  0  0  0  0  0  0
    6.0275  -21.7315   25.0734 O   0  0  0  0  0  0  0  0  0  0  0  0
    7.8519  -15.4408   26.3348 O   0  0  0  0  0  0  0  0  0  0  0  0
    9.2271  -15.6984   26.3654 C   0  0  0  0  0  0  0  0  0  0  0  0
    9.4799  -17.0386   25.7222 C   0  0  2  0  0  0  0  0  0  0  0  0
    8.6275  -17.3136   24.6121 N   0  0  0  0  0  0  0  0  0  0  0  0
    9.2609  -18.0735   26.7789 C   0  0  0  0  0  0  0  0  0  0  0  0
    8.3639  -18.9345   26.6085 O   0  0  0  0  0  0  0  0  0  0  0  0
   10.0199  -18.1018   27.9308 O   0  0  0  0  0  0  0  0  0  0  0  0
  2  1  1  0
  3  5  1  0
  3  2  1  0
  4  3  2  0
  6 11  1  0
  6  5  1  0
  6  7  1  1
  8  7  1  0
  9  8  1  0
 10  9  2  0
 11 12  2  0
 13  9  1  0
 14 15  1  0
 16 15  1  1
 17 11  1  0
 17 16  1  0
 18 16  1  0
 18 20  1  0
 19 18  2  0
M  END
$$$$
