GES.pdb
     RDKit          3D

 20 19  0  0  1  0  0  0  0  0999 V2000
    6.7377  -12.9059   18.7301 N   0  0  0  0  0  0  0  0  0  0  0  0
    8.1469  -12.7557   18.4629 C   0  0  0  0  0  0  0  0  0  0  0  0
    8.8707  -13.8959   19.1280 C   0  0  0  0  0  0  0  0  0  0  0  0
    8.1842  -14.6110   19.8812 O   0  0  0  0  0  0  0  0  0  0  0  0
   10.2332  -14.1102   18.8918 N   0  0  0  0  0  0  0  0  0  0  0  0
   10.9875  -15.2173   19.3698 C   0  0  1  0  0  0  0  0  0  0  0  0
   12.2727  -15.4555   18.6201 C   0  0  0  0  0  0  0  0  0  0  0  0
   13.0627  -16.6425   19.0195 C   0  0  0  0  0  0  0  0  0  0  0  0
   14.2787  -16.8571   18.1829 C   0  0  0  0  0  0  0  0  0  0  0  0
   14.5068  -17.9349   17.6335 O   0  0  0  0  0  0  0  0  0  0  0  0
   11.2799  -15.1278   20.8235 C   0  0  0  0  0  0  0  0  0  0  0  0
   12.1192  -14.2430   21.2191 O   0  0  0  0  0  0  0  0  0  0  0  0
   15.2058  -15.8248   17.9976 O   0  0  0  0  0  0  0  0  0  0  0  0
    8.7174  -16.5839   23.6004 O   0  0  0  0  0  0  0  0  0  0  0  0
    9.5664  -15.5254   23.9421 C   0  0  0  0  0  0  0  0  0  0  0  0
   10.8595  -15.6812   23.1823 C   0  0  2  0  0  0  0  0  0  0  0  0
   10.6811  -15.9677   21.7964 N   0  0  0  0  0  0  0  0  0  0  0  0
   11.6059  -16.8060   23.8251 C   0  0  0  0  0  0  0  0  0  0  0  0
   11.8876  -16.7283   25.0456 O   0  0  0  0  0  0  0  0  0  0  0  0
   11.9896  -17.9211   23.1089 O   0  0  0  0  0  0  0  0  0  0  0  0
  2  1  1  0
  3  5  1  0
  3  2  1  0
  4  3  2  0
  6 11  1  0
  6  5  1  0
  6  7  1  6
  8  7  1  0
  9  8  1  0
 10  9  2  0
 11 12  2  0
 13  9  1  0
 14 15  1  0
 16 15  1  1
 17 11  1  0
 17 16  1  0
 18 16  1  0
 18 20  1  0
 19 18  2  0
M  END
$$$$
