NVT.pdb
     RDKit          3D

 23 22  0  0  1  0  0  0  0  0999 V2000
    6.5076  -17.8900   19.9952 N   0  0  0  0  0  0  0  0  0  0  0  0
    6.6472  -17.6240   21.3935 C   0  0  0  0  0  0  0  0  0  0  0  0
    5.6927  -17.8506   22.1393 O   0  0  0  0  0  0  0  0  0  0  0  0
    7.9207  -17.0962   21.8581 C   0  0  0  0  0  0  0  0  0  0  0  0
    7.9074  -15.5933   21.8986 C   0  0  2  0  0  0  0  0  0  0  0  0
    8.7813  -15.0752   20.8194 N   0  0  0  0  0  0  0  0  0  0  0  0
    8.4969  -15.0491   23.1452 C   0  0  0  0  0  0  0  0  0  0  0  0
    9.7254  -14.7495   23.2115 O   0  0  0  0  0  0  0  0  0  0  0  0
    6.8092  -12.1807   25.1120 C   0  0  0  0  0  0  0  0  0  0  0  0
    7.1269  -13.3012   26.0623 C   0  0  2  0  0  0  0  0  0  0  0  0
    7.4182  -12.8198   27.4499 C   0  0  0  0  0  0  0  0  0  0  0  0
    8.1864  -14.2382   25.5294 C   0  0  2  0  0  0  0  0  0  0  0  0
    7.6886  -14.8569   24.2815 N   0  0  0  0  0  0  0  0  0  0  0  0
    8.5327  -15.3541   26.4112 C   0  0  0  0  0  0  0  0  0  0  0  0
    7.6191  -16.1730   26.7969 O   0  0  0  0  0  0  0  0  0  0  0  0
   10.6553  -18.2344   25.8172 C   0  0  0  0  0  0  0  0  0  0  0  0
   11.1461  -17.6307   27.1167 C   0  0  1  0  0  0  0  0  0  0  0  0
   12.3306  -16.9215   26.9306 O   0  0  0  0  0  0  0  0  0  0  0  0
   10.0718  -16.8022   27.7883 C   0  0  2  0  0  0  0  0  0  0  0  0
    9.8181  -15.6659   26.9210 N   0  0  0  0  0  0  0  0  0  0  0  0
   10.4783  -16.3725   29.1468 C   0  0  0  0  0  0  0  0  0  0  0  0
   10.6593  -17.2820   30.1780 O   0  0  0  0  0  0  0  0  0  0  0  0
   10.6830  -15.1520   29.4418 O   0  0  0  0  0  0  0  0  0  0  0  0
  2  1  1  0
  3  2  2  0
  4  2  1  0
  4  5  1  0
  5  6  1  6
  7  8  2  0
  7  5  1  0
 10  9  1  6
 10 12  1  0
 11 10  1  0
 12 13  1  6
 13  7  1  0
 14 12  1  0
 15 14  2  0
 17 16  1  6
 17 19  1  0
 18 17  1  0
 19 21  1  0
 19 20  1  6
 20 14  1  0
 21 22  1  0
 23 21  2  0
M  END
$$$$
