NVT.pdb
     RDKit          3D

 23 22  0  0  1  0  0  0  0  0999 V2000
    5.4306  -17.5351   20.3409 N   0  0  0  0  0  0  0  0  0  0  0  0
    6.5911  -16.7550   20.0409 C   0  0  0  0  0  0  0  0  0  0  0  0
    6.8274  -16.4700   18.8654 O   0  0  0  0  0  0  0  0  0  0  0  0
    7.4331  -16.3394   21.1519 C   0  0  0  0  0  0  0  0  0  0  0  0
    7.2557  -14.8775   21.4552 C   0  0  2  0  0  0  0  0  0  0  0  0
    7.9162  -14.0821   20.3931 N   0  0  0  0  0  0  0  0  0  0  0  0
    7.9384  -14.4652   22.7048 C   0  0  0  0  0  0  0  0  0  0  0  0
    9.1989  -14.3566   22.7564 O   0  0  0  0  0  0  0  0  0  0  0  0
    6.3368  -11.7853   25.2556 C   0  0  0  0  0  0  0  0  0  0  0  0
    6.7987  -13.0289   25.9624 C   0  0  2  0  0  0  0  0  0  0  0  0
    7.2567  -12.7637   27.3630 C   0  0  0  0  0  0  0  0  0  0  0  0
    7.8001  -13.8233   25.1557 C   0  0  2  0  0  0  0  0  0  0  0  0
    7.1848  -14.1865   23.8605 N   0  0  0  0  0  0  0  0  0  0  0  0
    8.2239  -15.0879   25.7587 C   0  0  0  0  0  0  0  0  0  0  0  0
    7.3677  -16.0306   25.9383 O   0  0  0  0  0  0  0  0  0  0  0  0
   12.1006  -16.2229   25.7460 C   0  0  0  0  0  0  0  0  0  0  0  0
   11.0217  -17.2651   25.9553 C   0  0  1  0  0  0  0  0  0  0  0  0
   11.5465  -18.4363   26.4969 O   0  0  0  0  0  0  0  0  0  0  0  0
    9.8658  -16.7172   26.7648 C   0  0  2  0  0  0  0  0  0  0  0  0
    9.5306  -15.4259   26.1922 N   0  0  0  0  0  0  0  0  0  0  0  0
   10.2060  -16.6054   28.2026 C   0  0  0  0  0  0  0  0  0  0  0  0
   10.3882  -17.7253   29.0001 O   0  0  0  0  0  0  0  0  0  0  0  0
   10.3495  -15.4824   28.7828 O   0  0  0  0  0  0  0  0  0  0  0  0
  2  1  1  0
  3  2  2  0
  4  2  1  0
  4  5  1  0
  5  6  1  6
  7  8  2  0
  7  5  1  0
 10  9  1  6
 10 12  1  0
 11 10  1  0
 12 13  1  6
 13  7  1  0
 14 12  1  0
 15 14  2  0
 17 16  1  1
 17 19  1  0
 18 17  1  0
 19 21  1  0
 19 20  1  6
 20 14  1  0
 21 22  1  0
 23 21  2  0
M  END
$$$$
