NVT.pdb
     RDKit          3D

 23 22  0  0  1  0  0  0  0  0999 V2000
    9.4980  -16.4814   18.2754 N   0  0  0  0  0  0  0  0  0  0  0  0
    9.0945  -17.0684   19.5155 C   0  0  0  0  0  0  0  0  0  0  0  0
    8.3322  -18.0366   19.4940 O   0  0  0  0  0  0  0  0  0  0  0  0
    9.6127  -16.4825   20.7420 C   0  0  0  0  0  0  0  0  0  0  0  0
    8.5422  -16.3775   21.7924 C   0  0  2  0  0  0  0  0  0  0  0  0
    7.4258  -15.5596   21.2617 N   0  0  0  0  0  0  0  0  0  0  0  0
    8.9950  -15.6464   23.0000 C   0  0  0  0  0  0  0  0  0  0  0  0
   10.1925  -15.2513   23.1149 O   0  0  0  0  0  0  0  0  0  0  0  0
    7.2275  -12.6833   24.6886 C   0  0  0  0  0  0  0  0  0  0  0  0
    7.4404  -13.7501   25.7259 C   0  0  2  0  0  0  0  0  0  0  0  0
    7.6632  -13.1901   27.0965 C   0  0  0  0  0  0  0  0  0  0  0  0
    8.4931  -14.7571   25.3228 C   0  0  2  0  0  0  0  0  0  0  0  0
    8.0887  -15.3801   24.0436 N   0  0  0  0  0  0  0  0  0  0  0  0
    8.6851  -15.8668   26.2578 C   0  0  0  0  0  0  0  0  0  0  0  0
    7.6940  -16.6285   26.5599 O   0  0  0  0  0  0  0  0  0  0  0  0
   10.3836  -18.8848   25.8288 C   0  0  0  0  0  0  0  0  0  0  0  0
   10.9499  -18.3502   27.1278 C   0  0  1  0  0  0  0  0  0  0  0  0
   12.2227  -17.8148   26.9436 O   0  0  0  0  0  0  0  0  0  0  0  0
   10.0001  -17.3764   27.7921 C   0  0  2  0  0  0  0  0  0  0  0  0
    9.8915  -16.2305   26.9074 N   0  0  0  0  0  0  0  0  0  0  0  0
   10.4713  -16.9827   29.1406 C   0  0  0  0  0  0  0  0  0  0  0  0
   10.5874  -17.9023   30.1721 O   0  0  0  0  0  0  0  0  0  0  0  0
   10.7940  -15.7857   29.4262 O   0  0  0  0  0  0  0  0  0  0  0  0
  2  1  1  0
  3  2  2  0
  4  2  1  0
  4  5  1  0
  5  6  1  6
  7  8  2  0
  7  5  1  0
 10  9  1  6
 10 12  1  0
 11 10  1  0
 12 13  1  6
 13  7  1  0
 14 12  1  0
 15 14  2  0
 17 16  1  6
 17 19  1  0
 18 17  1  0
 19 21  1  0
 19 20  1  6
 20 14  1  0
 21 22  1  0
 23 21  2  0
M  END
$$$$
