NVT.pdb
     RDKit          3D

 23 22  0  0  1  0  0  0  0  0999 V2000
    7.7839  -20.8301   16.3644 N   0  0  0  0  0  0  0  0  0  0  0  0
    7.3984  -19.4579   16.4814 C   0  0  0  0  0  0  0  0  0  0  0  0
    6.4570  -19.0455   15.8013 O   0  0  0  0  0  0  0  0  0  0  0  0
    8.1475  -18.6208   17.4057 C   0  0  0  0  0  0  0  0  0  0  0  0
    8.1539  -17.1849   16.9603 C   0  0  2  0  0  0  0  0  0  0  0  0
    8.9926  -17.0619   15.7444 N   0  0  0  0  0  0  0  0  0  0  0  0
    8.7966  -16.2828   17.9457 C   0  0  0  0  0  0  0  0  0  0  0  0
   10.0533  -16.1295   17.9700 O   0  0  0  0  0  0  0  0  0  0  0  0
    7.3601  -12.7120   19.2340 C   0  0  0  0  0  0  0  0  0  0  0  0
    7.6008  -13.6900   20.3498 C   0  0  2  0  0  0  0  0  0  0  0  0
    7.9368  -13.0199   21.6459 C   0  0  0  0  0  0  0  0  0  0  0  0
    8.5844  -14.7749   19.9754 C   0  0  2  0  0  0  0  0  0  0  0  0
    8.0083  -15.5787   18.8753 N   0  0  0  0  0  0  0  0  0  0  0  0
    8.8944  -15.7302   21.0403 C   0  0  0  0  0  0  0  0  0  0  0  0
    7.9558  -16.4437   21.5539 O   0  0  0  0  0  0  0  0  0  0  0  0
   10.7240  -18.7658   20.9362 C   0  0  0  0  0  0  0  0  0  0  0  0
   11.3447  -17.9975   22.0843 C   0  0  1  0  0  0  0  0  0  0  0  0
   12.5698  -17.4433   21.7199 O   0  0  0  0  0  0  0  0  0  0  0  0
   10.3877  -16.9705   22.6509 C   0  0  2  0  0  0  0  0  0  0  0  0
   10.1682  -15.9847   21.6080 N   0  0  0  0  0  0  0  0  0  0  0  0
   10.9175  -16.3489   23.8872 C   0  0  0  0  0  0  0  0  0  0  0  0
   11.0036  -17.0513   25.0799 O   0  0  0  0  0  0  0  0  0  0  0  0
   11.3209  -15.1430   23.9238 O   0  0  0  0  0  0  0  0  0  0  0  0
  2  1  1  0
  3  2  2  0
  4  2  1  0
  4  5  1  0
  5  6  1  6
  7  8  2  0
  7  5  1  0
 10  9  1  6
 10 12  1  0
 11 10  1  0
 12 13  1  6
 13  7  1  0
 14 12  1  0
 15 14  2  0
 17 16  1  6
 17 19  1  0
 18 17  1  0
 19 21  1  0
 19 20  1  6
 20 14  1  0
 21 22  1  0
 23 21  2  0
M  END
$$$$
