NVT.pdb
     RDKit          3D

 23 22  0  0  1  0  0  0  0  0999 V2000
   12.2076  -19.4585   16.7144 N   0  0  0  0  0  0  0  0  0  0  0  0
   11.2532  -18.5156   16.2192 C   0  0  0  0  0  0  0  0  0  0  0  0
   10.6750  -18.7574   15.1581 O   0  0  0  0  0  0  0  0  0  0  0  0
   11.0183  -17.3142   17.0051 C   0  0  0  0  0  0  0  0  0  0  0  0
   10.0661  -17.5795   18.1380 C   0  0  2  0  0  0  0  0  0  0  0  0
    8.6765  -17.4499   17.6389 N   0  0  0  0  0  0  0  0  0  0  0  0
   10.1667  -16.5697   19.2186 C   0  0  0  0  0  0  0  0  0  0  0  0
   11.2836  -16.2772   19.7387 O   0  0  0  0  0  0  0  0  0  0  0  0
    7.8653  -13.2311   19.3148 C   0  0  0  0  0  0  0  0  0  0  0  0
    7.8394  -13.9978   20.6074 C   0  0  2  0  0  0  0  0  0  0  0  0
    7.6125  -13.1191   21.7983 C   0  0  0  0  0  0  0  0  0  0  0  0
    9.0313  -14.9130   20.7693 C   0  0  2  0  0  0  0  0  0  0  0  0
    9.0093  -15.9174   19.6836 N   0  0  0  0  0  0  0  0  0  0  0  0
    9.0634  -15.6807   22.0152 C   0  0  0  0  0  0  0  0  0  0  0  0
    8.0618  -16.4201   22.3378 O   0  0  0  0  0  0  0  0  0  0  0  0
   10.4902  -18.5916   22.9987 C   0  0  0  0  0  0  0  0  0  0  0  0
   10.9550  -17.6418   24.0829 C   0  0  1  0  0  0  0  0  0  0  0  0
   12.2847  -17.2709   23.8961 O   0  0  0  0  0  0  0  0  0  0  0  0
   10.0318  -16.4492   24.2138 C   0  0  2  0  0  0  0  0  0  0  0  0
   10.1167  -15.7167   22.9633 N   0  0  0  0  0  0  0  0  0  0  0  0
   10.3944  -15.5980   25.3711 C   0  0  0  0  0  0  0  0  0  0  0  0
   10.2272  -16.0307   26.6781 O   0  0  0  0  0  0  0  0  0  0  0  0
   10.8769  -14.4292   25.2316 O   0  0  0  0  0  0  0  0  0  0  0  0
  2  1  1  0
  3  2  2  0
  4  2  1  0
  4  5  1  0
  5  6  1  6
  7  8  2  0
  7  5  1  0
 10  9  1  6
 10 12  1  0
 11 10  1  0
 12 13  1  6
 13  7  1  0
 14 12  1  0
 15 14  2  0
 17 16  1  6
 17 19  1  0
 18 17  1  0
 19 21  1  0
 19 20  1  6
 20 14  1  0
 21 22  1  0
 23 21  2  0
M  END
$$$$
