NVT.pdb
     RDKit          3D

 23 22  0  0  1  0  0  0  0  0999 V2000
    9.1236  -15.9591   12.2465 N   0  0  0  0  0  0  0  0  0  0  0  0
    8.3333  -16.1577   13.4217 C   0  0  0  0  0  0  0  0  0  0  0  0
    7.4157  -16.9797   13.3885 O   0  0  0  0  0  0  0  0  0  0  0  0
    8.6622  -15.3699   14.5996 C   0  0  0  0  0  0  0  0  0  0  0  0
    8.9550  -16.2508   15.7822 C   0  0  2  0  0  0  0  0  0  0  0  0
    7.6858  -16.8436   16.2666 N   0  0  0  0  0  0  0  0  0  0  0  0
    9.4771  -15.4935   16.9447 C   0  0  0  0  0  0  0  0  0  0  0  0
   10.6147  -14.9387   16.9067 O   0  0  0  0  0  0  0  0  0  0  0  0
    7.3350  -12.9204   18.8868 C   0  0  0  0  0  0  0  0  0  0  0  0
    7.9539  -13.8746   19.8695 C   0  0  2  0  0  0  0  0  0  0  0  0
    8.2399  -13.2382   21.1943 C   0  0  0  0  0  0  0  0  0  0  0  0
    9.1451  -14.6106   19.3003 C   0  0  2  0  0  0  0  0  0  0  0  0
    8.7055  -15.3812   18.1166 N   0  0  0  0  0  0  0  0  0  0  0  0
    9.7623  -15.5873   20.1989 C   0  0  0  0  0  0  0  0  0  0  0  0
    9.1370  -16.6721   20.4926 O   0  0  0  0  0  0  0  0  0  0  0  0
   12.8746  -17.3494   19.6712 C   0  0  0  0  0  0  0  0  0  0  0  0
   12.9582  -16.8552   21.1004 C   0  0  1  0  0  0  0  0  0  0  0  0
   13.8501  -15.7916   21.2177 O   0  0  0  0  0  0  0  0  0  0  0  0
   11.5895  -16.5305   21.6598 C   0  0  2  0  0  0  0  0  0  0  0  0
   11.0327  -15.4856   20.8197 N   0  0  0  0  0  0  0  0  0  0  0  0
   11.6615  -16.1101   23.0788 C   0  0  0  0  0  0  0  0  0  0  0  0
   11.2944  -14.8354   23.4834 O   0  0  0  0  0  0  0  0  0  0  0  0
   12.0617  -16.8905   24.0004 O   0  0  0  0  0  0  0  0  0  0  0  0
  2  1  1  0
  3  2  2  0
  4  2  1  0
  4  5  1  0
  5  6  1  1
  7  8  2  0
  7  5  1  0
 10  9  1  6
 10 12  1  0
 11 10  1  0
 12 13  1  6
 13  7  1  0
 14 12  1  0
 15 14  2  0
 17 16  1  6
 17 19  1  0
 18 17  1  0
 19 21  1  0
 19 20  1  6
 20 14  1  0
 21 22  1  0
 23 21  2  0
M  END
$$$$
