NVT.pdb
     RDKit          3D

 23 22  0  0  1  0  0  0  0  0999 V2000
    6.3342  -15.6224   19.2707 N   0  0  0  0  0  0  0  0  0  0  0  0
    6.2245  -16.6333   20.2762 C   0  0  0  0  0  0  0  0  0  0  0  0
    5.8036  -17.7464   19.9558 O   0  0  0  0  0  0  0  0  0  0  0  0
    6.6200  -16.2850   21.6321 C   0  0  0  0  0  0  0  0  0  0  0  0
    7.0426  -14.8452   21.7255 C   0  0  2  0  0  0  0  0  0  0  0  0
    7.8485  -14.5018   20.5299 N   0  0  0  0  0  0  0  0  0  0  0  0
    7.9497  -14.5879   22.8695 C   0  0  0  0  0  0  0  0  0  0  0  0
    9.2051  -14.6975   22.7464 O   0  0  0  0  0  0  0  0  0  0  0  0
    6.2786  -13.4918   26.7763 C   0  0  0  0  0  0  0  0  0  0  0  0
    7.5711  -12.9784   26.2060 C   0  0  2  0  0  0  0  0  0  0  0  0
    7.4278  -11.6337   25.5632 C   0  0  0  0  0  0  0  0  0  0  0  0
    8.2595  -13.9868   25.3151 C   0  0  2  0  0  0  0  0  0  0  0  0
    7.4197  -14.2145   24.1189 N   0  0  0  0  0  0  0  0  0  0  0  0
    8.4633  -15.3085   25.9104 C   0  0  0  0  0  0  0  0  0  0  0  0
    7.4525  -16.0686   26.1436 O   0  0  0  0  0  0  0  0  0  0  0  0
   10.1080  -18.1574   24.4943 C   0  0  0  0  0  0  0  0  0  0  0  0
   10.7294  -17.9961   25.8661 C   0  0  1  0  0  0  0  0  0  0  0  0
   12.0001  -17.4313   25.7838 O   0  0  0  0  0  0  0  0  0  0  0  0
    9.8165  -17.2391   26.8070 C   0  0  2  0  0  0  0  0  0  0  0  0
    9.7014  -15.8907   26.2814 N   0  0  0  0  0  0  0  0  0  0  0  0
   10.3341  -17.2418   28.1954 C   0  0  0  0  0  0  0  0  0  0  0  0
   10.4404  -18.4108   28.9339 O   0  0  0  0  0  0  0  0  0  0  0  0
   10.7079  -16.1780   28.7845 O   0  0  0  0  0  0  0  0  0  0  0  0
  2  1  1  0
  3  2  2  0
  4  2  1  0
  4  5  1  0
  5  6  1  6
  7  8  2  0
  7  5  1  0
 10  9  1  6
 10 12  1  0
 11 10  1  0
 12 13  1  6
 13  7  1  0
 14 12  1  0
 15 14  2  0
 17 16  1  6
 17 19  1  0
 18 17  1  0
 19 21  1  0
 19 20  1  6
 20 14  1  0
 21 22  1  0
 23 21  2  0
M  END
$$$$
