NVT.pdb
     RDKit          3D

 23 22  0  0  1  0  0  0  0  0999 V2000
    5.3098  -16.9710   20.0199 N   0  0  0  0  0  0  0  0  0  0  0  0
    6.5863  -16.3822   19.7567 C   0  0  0  0  0  0  0  0  0  0  0  0
    6.8985  -16.1384   18.5897 O   0  0  0  0  0  0  0  0  0  0  0  0
    7.4501  -16.1028   20.8933 C   0  0  0  0  0  0  0  0  0  0  0  0
    7.3449  -14.6647   21.3192 C   0  0  2  0  0  0  0  0  0  0  0  0
    7.9779  -13.8097   20.2872 N   0  0  0  0  0  0  0  0  0  0  0  0
    8.1083  -14.3772   22.5571 C   0  0  0  0  0  0  0  0  0  0  0  0
    9.3671  -14.2425   22.5330 O   0  0  0  0  0  0  0  0  0  0  0  0
    5.9647  -13.4997   26.2137 C   0  0  0  0  0  0  0  0  0  0  0  0
    7.3538  -13.0280   25.8865 C   0  0  2  0  0  0  0  0  0  0  0  0
    7.3750  -11.6524   25.2956 C   0  0  0  0  0  0  0  0  0  0  0  0
    8.1360  -14.0316   25.0706 C   0  0  2  0  0  0  0  0  0  0  0  0
    7.4348  -14.2488   23.7864 N   0  0  0  0  0  0  0  0  0  0  0  0
    8.2700  -15.3579   25.6753 C   0  0  0  0  0  0  0  0  0  0  0  0
    7.2322  -16.1034   25.8206 O   0  0  0  0  0  0  0  0  0  0  0  0
    9.7170  -18.3061   24.3996 C   0  0  0  0  0  0  0  0  0  0  0  0
   10.3773  -18.1214   25.7501 C   0  0  1  0  0  0  0  0  0  0  0  0
   11.6627  -17.6007   25.6189 O   0  0  0  0  0  0  0  0  0  0  0  0
    9.5125  -17.3058   26.6874 C   0  0  2  0  0  0  0  0  0  0  0  0
    9.4643  -15.9598   26.1454 N   0  0  0  0  0  0  0  0  0  0  0  0
   10.0396  -17.3184   28.0721 C   0  0  0  0  0  0  0  0  0  0  0  0
   10.1214  -18.4880   28.8128 O   0  0  0  0  0  0  0  0  0  0  0  0
   10.4446  -16.2631   28.6559 O   0  0  0  0  0  0  0  0  0  0  0  0
  2  1  1  0
  3  2  2  0
  4  2  1  0
  4  5  1  0
  5  6  1  6
  7  8  2  0
  7  5  1  0
 10  9  1  6
 10 12  1  0
 11 10  1  0
 12 13  1  6
 13  7  1  0
 14 12  1  0
 15 14  2  0
 17 16  1  6
 17 19  1  0
 18 17  1  0
 19 21  1  0
 19 20  1  6
 20 14  1  0
 21 22  1  0
 23 21  2  0
M  END
$$$$
