NVT.pdb
     RDKit          3D

 23 22  0  0  1  0  0  0  0  0999 V2000
    5.9733  -20.1584   17.6972 N   0  0  0  0  0  0  0  0  0  0  0  0
    6.9529  -19.4447   16.9381 C   0  0  0  0  0  0  0  0  0  0  0  0
    6.8821  -19.4660   15.7079 O   0  0  0  0  0  0  0  0  0  0  0  0
    7.9860  -18.7281   17.6699 C   0  0  0  0  0  0  0  0  0  0  0  0
    8.0552  -17.2869   17.2474 C   0  0  2  0  0  0  0  0  0  0  0  0
    8.9255  -17.1769   16.0527 N   0  0  0  0  0  0  0  0  0  0  0  0
    8.7077  -16.4241   18.2611 C   0  0  0  0  0  0  0  0  0  0  0  0
    9.9685  -16.3833   18.3716 O   0  0  0  0  0  0  0  0  0  0  0  0
    7.3686  -12.7487   19.2397 C   0  0  0  0  0  0  0  0  0  0  0  0
    7.5643  -13.6253   20.4449 C   0  0  2  0  0  0  0  0  0  0  0  0
    7.9223  -12.8493   21.6744 C   0  0  0  0  0  0  0  0  0  0  0  0
    8.5038  -14.7799   20.1829 C   0  0  2  0  0  0  0  0  0  0  0  0
    7.9245  -15.6315   19.1212 N   0  0  0  0  0  0  0  0  0  0  0  0
    8.7302  -15.6706   21.3223 C   0  0  0  0  0  0  0  0  0  0  0  0
    7.7289  -16.2111   21.9216 O   0  0  0  0  0  0  0  0  0  0  0  0
   10.2715  -18.9154   21.4916 C   0  0  0  0  0  0  0  0  0  0  0  0
   10.9694  -18.0923   22.5543 C   0  0  1  0  0  0  0  0  0  0  0  0
   12.2349  -17.6895   22.1337 O   0  0  0  0  0  0  0  0  0  0  0  0
   10.1127  -16.9317   23.0136 C   0  0  2  0  0  0  0  0  0  0  0  0
    9.9818  -16.0353   21.8791 N   0  0  0  0  0  0  0  0  0  0  0  0
   10.7014  -16.2450   24.1872 C   0  0  0  0  0  0  0  0  0  0  0  0
   10.7264  -16.8340   25.4425 O   0  0  0  0  0  0  0  0  0  0  0  0
   11.2140  -15.0832   24.1096 O   0  0  0  0  0  0  0  0  0  0  0  0
  2  1  1  0
  3  2  2  0
  4  2  1  0
  4  5  1  0
  5  6  1  6
  7  8  2  0
  7  5  1  0
 10  9  1  6
 10 12  1  0
 11 10  1  0
 12 13  1  6
 13  7  1  0
 14 12  1  0
 15 14  2  0
 17 16  1  6
 17 19  1  0
 18 17  1  0
 19 21  1  0
 19 20  1  6
 20 14  1  0
 21 22  1  0
 23 21  2  0
M  END
$$$$
