NVT.pdb
     RDKit          3D

 23 22  0  0  1  0  0  0  0  0999 V2000
    7.7745  -20.9557   16.4840 N   0  0  0  0  0  0  0  0  0  0  0  0
    7.2349  -19.6819   16.8467 C   0  0  0  0  0  0  0  0  0  0  0  0
    6.1391  -19.3496   16.3909 O   0  0  0  0  0  0  0  0  0  0  0  0
    8.0189  -18.8446   17.7413 C   0  0  0  0  0  0  0  0  0  0  0  0
    7.9417  -17.3969   17.3429 C   0  0  2  0  0  0  0  0  0  0  0  0
    8.6664  -17.2106   16.0635 N   0  0  0  0  0  0  0  0  0  0  0  0
    8.6398  -16.5026   18.2971 C   0  0  0  0  0  0  0  0  0  0  0  0
    9.8900  -16.3154   18.2234 O   0  0  0  0  0  0  0  0  0  0  0  0
    7.3391  -12.9194   19.4487 C   0  0  0  0  0  0  0  0  0  0  0  0
    7.5849  -13.8266   20.6216 C   0  0  2  0  0  0  0  0  0  0  0  0
    7.9554  -13.0794   21.8651 C   0  0  0  0  0  0  0  0  0  0  0  0
    8.5440  -14.9503   20.3019 C   0  0  2  0  0  0  0  0  0  0  0  0
    7.9128  -15.8442   19.3067 N   0  0  0  0  0  0  0  0  0  0  0  0
    8.8983  -15.8087   21.4334 C   0  0  0  0  0  0  0  0  0  0  0  0
    7.9807  -16.4636   22.0524 O   0  0  0  0  0  0  0  0  0  0  0  0
   11.1503  -18.7518   21.6499 C   0  0  0  0  0  0  0  0  0  0  0  0
   11.5691  -17.7998   22.7509 C   0  0  1  0  0  0  0  0  0  0  0  0
   12.7466  -17.1316   22.4226 O   0  0  0  0  0  0  0  0  0  0  0  0
   10.4490  -16.8532   23.1265 C   0  0  2  0  0  0  0  0  0  0  0  0
   10.1958  -16.0237   21.9622 N   0  0  0  0  0  0  0  0  0  0  0  0
   10.7943  -16.0370   24.3140 C   0  0  0  0  0  0  0  0  0  0  0  0
   10.8926  -16.5936   25.5804 O   0  0  0  0  0  0  0  0  0  0  0  0
   11.0187  -14.7871   24.2389 O   0  0  0  0  0  0  0  0  0  0  0  0
  2  1  1  0
  3  2  2  0
  4  2  1  0
  4  5  1  0
  5  6  1  6
  7  8  2  0
  7  5  1  0
 10  9  1  6
 10 12  1  0
 11 10  1  0
 12 13  1  6
 13  7  1  0
 14 12  1  0
 15 14  2  0
 17 16  1  6
 17 19  1  0
 18 17  1  0
 19 21  1  0
 19 20  1  6
 20 14  1  0
 21 22  1  0
 23 21  2  0
M  END
$$$$
