NVT.pdb
     RDKit          3D

 23 22  0  0  1  0  0  0  0  0999 V2000
    7.2438  -19.1731   27.9293 N   0  0  0  0  0  0  0  0  0  0  0  0
    6.9255  -20.2743   27.0741 C   0  0  0  0  0  0  0  0  0  0  0  0
    6.6477  -21.3613   27.5842 O   0  0  0  0  0  0  0  0  0  0  0  0
    6.9485  -20.0447   25.6379 C   0  0  0  0  0  0  0  0  0  0  0  0
    5.8958  -19.0535   25.2258 C   0  0  2  0  0  0  0  0  0  0  0  0
    5.0515  -19.6596   24.1691 N   0  0  0  0  0  0  0  0  0  0  0  0
    6.4676  -17.8412   24.5926 C   0  0  0  0  0  0  0  0  0  0  0  0
    6.4998  -17.7142   23.3332 O   0  0  0  0  0  0  0  0  0  0  0  0
    6.0579  -14.1096   26.0707 C   0  0  0  0  0  0  0  0  0  0  0  0
    7.4948  -14.4666   25.8117 C   0  0  2  0  0  0  0  0  0  0  0  0
    8.3331  -13.2776   25.4576 C   0  0  0  0  0  0  0  0  0  0  0  0
    7.6473  -15.6076   24.8321 C   0  0  2  0  0  0  0  0  0  0  0  0
    6.9865  -16.8062   25.3931 N   0  0  0  0  0  0  0  0  0  0  0  0
    9.0267  -16.0117   24.5553 C   0  0  0  0  0  0  0  0  0  0  0  0
    9.7545  -16.4941   25.4996 O   0  0  0  0  0  0  0  0  0  0  0  0
   10.0424  -17.9359   21.2501 C   0  0  0  0  0  0  0  0  0  0  0  0
   11.0706  -16.8842   21.6113 C   0  0  1  0  0  0  0  0  0  0  0  0
   10.9689  -15.7698   20.7816 O   0  0  0  0  0  0  0  0  0  0  0  0
   11.0077  -16.5231   23.0801 C   0  0  2  0  0  0  0  0  0  0  0  0
    9.6995  -15.9370   23.3098 N   0  0  0  0  0  0  0  0  0  0  0  0
   12.0971  -15.5954   23.4650 C   0  0  0  0  0  0  0  0  0  0  0  0
   13.4298  -15.9775   23.4289 O   0  0  0  0  0  0  0  0  0  0  0  0
   11.8724  -14.4032   23.8479 O   0  0  0  0  0  0  0  0  0  0  0  0
  2  1  1  0
  3  2  2  0
  4  2  1  0
  4  5  1  0
  5  6  1  6
  7  8  2  0
  7  5  1  0
 10  9  1  6
 10 12  1  0
 11 10  1  0
 12 13  1  1
 13  7  1  0
 14 12  1  0
 15 14  2  0
 17 16  1  6
 17 19  1  0
 18 17  1  0
 19 21  1  0
 19 20  1  6
 20 14  1  0
 21 22  1  0
 23 21  2  0
M  END
$$$$
