NVT.pdb
     RDKit          3D

 23 22  0  0  1  0  0  0  0  0999 V2000
   10.2708  -18.6719   14.6333 N   0  0  0  0  0  0  0  0  0  0  0  0
    9.1236  -17.9040   15.0069 C   0  0  0  0  0  0  0  0  0  0  0  0
    8.0237  -18.2180   14.5481 O   0  0  0  0  0  0  0  0  0  0  0  0
    9.3242  -16.7860   15.9157 C   0  0  0  0  0  0  0  0  0  0  0  0
    9.0410  -17.1805   17.3385 C   0  0  2  0  0  0  0  0  0  0  0  0
    7.5752  -17.1686   17.5585 N   0  0  0  0  0  0  0  0  0  0  0  0
    9.5702  -16.2033   18.3197 C   0  0  0  0  0  0  0  0  0  0  0  0
   10.7934  -15.8758   18.3221 O   0  0  0  0  0  0  0  0  0  0  0  0
    6.8672  -14.0987   21.0712 C   0  0  0  0  0  0  0  0  0  0  0  0
    8.1914  -13.6194   20.5457 C   0  0  2  0  0  0  0  0  0  0  0  0
    8.0543  -12.7511   19.3336 C   0  0  0  0  0  0  0  0  0  0  0  0
    9.1873  -14.7407   20.3574 C   0  0  2  0  0  0  0  0  0  0  0  0
    8.7095  -15.6220   19.2697 N   0  0  0  0  0  0  0  0  0  0  0  0
    9.3714  -15.6128   21.5186 C   0  0  0  0  0  0  0  0  0  0  0  0
    8.3576  -16.2089   22.0390 O   0  0  0  0  0  0  0  0  0  0  0  0
   10.8058  -18.7579   21.6288 C   0  0  0  0  0  0  0  0  0  0  0  0
   11.5229  -18.0188   22.7394 C   0  0  1  0  0  0  0  0  0  0  0  0
   12.8019  -17.6307   22.3468 O   0  0  0  0  0  0  0  0  0  0  0  0
   10.6991  -16.8613   23.2623 C   0  0  2  0  0  0  0  0  0  0  0  0
   10.5925  -15.9018   22.1781 N   0  0  0  0  0  0  0  0  0  0  0  0
   11.3072  -16.2554   24.4700 C   0  0  0  0  0  0  0  0  0  0  0  0
   11.3023  -16.9047   25.6954 O   0  0  0  0  0  0  0  0  0  0  0  0
   11.8650  -15.1122   24.4507 O   0  0  0  0  0  0  0  0  0  0  0  0
  2  1  1  0
  3  2  2  0
  4  2  1  0
  4  5  1  0
  5  6  1  6
  7  8  2  0
  7  5  1  0
 10  9  1  6
 10 12  1  0
 11 10  1  0
 12 13  1  6
 13  7  1  0
 14 12  1  0
 15 14  2  0
 17 16  1  6
 17 19  1  0
 18 17  1  0
 19 21  1  0
 19 20  1  6
 20 14  1  0
 21 22  1  0
 23 21  2  0
M  END
$$$$
