NVT.pdb
     RDKit          3D

 23 22  0  0  1  0  0  0  0  0999 V2000
    8.2184  -17.6443   19.8877 N   0  0  0  0  0  0  0  0  0  0  0  0
    8.7326  -16.3376   19.6165 C   0  0  0  0  0  0  0  0  0  0  0  0
    8.9649  -16.0215   18.4481 O   0  0  0  0  0  0  0  0  0  0  0  0
    8.9537  -15.4492   20.7469 C   0  0  0  0  0  0  0  0  0  0  0  0
    8.6676  -16.1416   22.0504 C   0  0  2  0  0  0  0  0  0  0  0  0
    7.2039  -16.3340   22.1820 N   0  0  0  0  0  0  0  0  0  0  0  0
    9.0403  -15.3217   23.2279 C   0  0  0  0  0  0  0  0  0  0  0  0
   10.1867  -14.7917   23.3197 O   0  0  0  0  0  0  0  0  0  0  0  0
    6.8735  -12.5523   24.8143 C   0  0  0  0  0  0  0  0  0  0  0  0
    7.2585  -13.5270   25.8918 C   0  0  2  0  0  0  0  0  0  0  0  0
    7.4176  -12.8776   27.2315 C   0  0  0  0  0  0  0  0  0  0  0  0
    8.4423  -14.3854   25.5091 C   0  0  2  0  0  0  0  0  0  0  0  0
    8.1139  -15.1208   24.2684 N   0  0  0  0  0  0  0  0  0  0  0  0
    8.8123  -15.4094   26.4875 C   0  0  0  0  0  0  0  0  0  0  0  0
    7.9461  -16.2857   26.8561 O   0  0  0  0  0  0  0  0  0  0  0  0
   10.8944  -18.2049   26.2275 C   0  0  0  0  0  0  0  0  0  0  0  0
   11.4064  -17.5076   27.4707 C   0  0  1  0  0  0  0  0  0  0  0  0
   12.5987  -16.8328   27.2187 O   0  0  0  0  0  0  0  0  0  0  0  0
   10.3504  -16.6128   28.0839 C   0  0  2  0  0  0  0  0  0  0  0  0
   10.0739  -15.5686   27.1139 N   0  0  0  0  0  0  0  0  0  0  0  0
   10.7929  -16.0500   29.3811 C   0  0  0  0  0  0  0  0  0  0  0  0
   11.0110  -14.6911   29.5525 O   0  0  0  0  0  0  0  0  0  0  0  0
   10.9964  -16.7774   30.4048 O   0  0  0  0  0  0  0  0  0  0  0  0
  2  1  1  0
  3  2  2  0
  4  2  1  0
  4  5  1  0
  5  6  1  1
  7  8  2  0
  7  5  1  0
 10  9  1  6
 10 12  1  0
 11 10  1  0
 12 13  1  6
 13  7  1  0
 14 12  1  0
 15 14  2  0
 17 16  1  6
 17 19  1  0
 18 17  1  0
 19 21  1  0
 19 20  1  6
 20 14  1  0
 21 22  1  0
 23 21  2  0
M  END
$$$$
