NII.pdb
     RDKit          3D

 25 24  0  0  1  0  0  0  0  0999 V2000
   14.4572  -18.4899   19.7807 N   0  0  0  0  0  0  0  0  0  0  0  0
   14.0012  -17.2763   19.2246 C   0  0  0  0  0  0  0  0  0  0  0  0
   14.3424  -16.8812   18.0650 O   0  0  0  0  0  0  0  0  0  0  0  0
   13.0958  -16.4049   19.9803 C   0  0  0  0  0  0  0  0  0  0  0  0
   12.1688  -17.1690   20.8937 C   0  0  2  0  0  0  0  0  0  0  0  0
   11.1527  -17.8522   20.1048 N   0  0  0  0  0  0  0  0  0  0  0  0
   11.5740  -16.3260   21.9444 C   0  0  0  0  0  0  0  0  0  0  0  0
   12.2158  -15.5517   22.6961 O   0  0  0  0  0  0  0  0  0  0  0  0
    6.3054  -15.1209   21.0534 C   0  0  0  0  0  0  0  0  0  0  0  0
    7.7797  -14.9503   21.4172 C   0  0  0  0  0  0  0  0  0  0  0  0
    7.9763  -15.6987   22.7209 C   0  0  2  0  0  0  0  0  0  0  0  0
    7.2020  -14.9506   23.7884 C   0  0  0  0  0  0  0  0  0  0  0  0
    9.4561  -15.6485   23.1426 C   0  0  2  0  0  0  0  0  0  0  0  0
   10.1665  -16.3825   22.1331 N   0  0  0  0  0  0  0  0  0  0  0  0
    9.6026  -16.1843   24.4915 C   0  0  0  0  0  0  0  0  0  0  0  0
    9.8766  -17.4003   24.6396 O   0  0  0  0  0  0  0  0  0  0  0  0
   10.5910  -12.3286   28.2508 C   0  0  0  0  0  0  0  0  0  0  0  0
   10.8215  -13.5659   27.3966 C   0  0  0  0  0  0  0  0  0  0  0  0
   10.0546  -14.7394   27.9489 C   0  0  2  0  0  0  0  0  0  0  0  0
   10.7458  -15.1469   29.2514 C   0  0  0  0  0  0  0  0  0  0  0  0
    9.9913  -15.8801   26.9835 C   0  0  2  0  0  0  0  0  0  0  0  0
    9.4565  -15.4244   25.6816 N   0  0  0  0  0  0  0  0  0  0  0  0
    9.1221  -16.9983   27.3883 C   0  0  0  0  0  0  0  0  0  0  0  0
    7.7523  -16.9951   27.1729 O   0  0  0  0  0  0  0  0  0  0  0  0
    9.5760  -18.0218   27.9535 O   0  0  0  0  0  0  0  0  0  0  0  0
  1  2  1  0
  2  3  2  0
  4  5  1  0
  4  2  1  0
  5  6  1  6
  7  5  1  0
  7  8  2  0
 10 11  1  0
 10  9  1  0
 11 13  1  0
 11 12  1  1
 13 14  1  6
 14  7  1  0
 15 22  1  0
 15 13  1  0
 16 15  2  0
 17 18  1  0
 18 19  1  0
 19 21  1  0
 19 20  1  1
 21 22  1  6
 21 23  1  0
 23 24  1  0
 25 23  2  0
M  END
$$$$
