NII.pdb
     RDKit          3D

 25 24  0  0  1  0  0  0  0  0999 V2000
   12.1882  -19.4647   18.5768 N   0  0  0  0  0  0  0  0  0  0  0  0
   11.8176  -19.8592   19.8795 C   0  0  0  0  0  0  0  0  0  0  0  0
   11.6977  -21.0786   20.2198 O   0  0  0  0  0  0  0  0  0  0  0  0
   11.5507  -18.8546   20.9138 C   0  0  0  0  0  0  0  0  0  0  0  0
   11.5802  -17.4418   20.3843 C   0  0  2  0  0  0  0  0  0  0  0  0
   12.8933  -17.1530   19.8238 N   0  0  0  0  0  0  0  0  0  0  0  0
   11.1802  -16.4430   21.3898 C   0  0  0  0  0  0  0  0  0  0  0  0
   11.9722  -15.8033   22.1245 O   0  0  0  0  0  0  0  0  0  0  0  0
    6.8619  -13.4034   20.2352 C   0  0  0  0  0  0  0  0  0  0  0  0
    8.2240  -13.8622   20.7536 C   0  0  0  0  0  0  0  0  0  0  0  0
    7.9372  -14.7554   21.9446 C   0  0  2  0  0  0  0  0  0  0  0  0
    7.3009  -13.8877   23.0126 C   0  0  0  0  0  0  0  0  0  0  0  0
    9.2551  -15.2821   22.5413 C   0  0  2  0  0  0  0  0  0  0  0  0
    9.7945  -16.1719   21.5515 N   0  0  0  0  0  0  0  0  0  0  0  0
    8.9959  -15.9060   23.8343 C   0  0  0  0  0  0  0  0  0  0  0  0
    8.7180  -17.1293   23.8778 O   0  0  0  0  0  0  0  0  0  0  0  0
   10.1655  -12.8126   28.3041 C   0  0  0  0  0  0  0  0  0  0  0  0
   10.3204  -13.9621   27.3201 C   0  0  0  0  0  0  0  0  0  0  0  0
    9.2119  -14.9664   27.5023 C   0  0  2  0  0  0  0  0  0  0  0  0
    9.4697  -15.6738   28.8340 C   0  0  0  0  0  0  0  0  0  0  0  0
    9.1389  -15.9415   26.3705 C   0  0  2  0  0  0  0  0  0  0  0  0
    9.0324  -15.2261   25.0799 N   0  0  0  0  0  0  0  0  0  0  0  0
    7.9841  -16.8554   26.4021 C   0  0  0  0  0  0  0  0  0  0  0  0
    8.0501  -18.1232   26.9598 O   0  0  0  0  0  0  0  0  0  0  0  0
    6.8699  -16.5350   25.9235 O   0  0  0  0  0  0  0  0  0  0  0  0
  1  2  1  0
  2  3  2  0
  4  5  1  0
  4  2  1  0
  5  6  1  1
  7  5  1  0
  7  8  2  0
 10 11  1  0
 10  9  1  0
 11 13  1  0
 11 12  1  1
 13 14  1  6
 14  7  1  0
 15 22  1  0
 15 13  1  0
 16 15  2  0
 17 18  1  0
 18 19  1  0
 19 21  1  0
 19 20  1  1
 21 22  1  6
 21 23  1  0
 23 24  1  0
 25 23  2  0
M  END
$$$$
