NII.pdb
     RDKit          3D

 25 24  0  0  1  0  0  0  0  0999 V2000
   10.4275  -21.7577   21.5673 N   0  0  0  0  0  0  0  0  0  0  0  0
   10.2952  -20.5631   20.8287 C   0  0  0  0  0  0  0  0  0  0  0  0
    9.6779  -20.5070   19.7183 O   0  0  0  0  0  0  0  0  0  0  0  0
   10.8779  -19.3125   21.3253 C   0  0  0  0  0  0  0  0  0  0  0  0
   10.4562  -18.1064   20.5221 C   0  0  2  0  0  0  0  0  0  0  0  0
   11.2351  -18.0359   19.2933 N   0  0  0  0  0  0  0  0  0  0  0  0
   10.5264  -16.8518   21.2900 C   0  0  0  0  0  0  0  0  0  0  0  0
   11.5846  -16.2372   21.5706 O   0  0  0  0  0  0  0  0  0  0  0  0
    6.7202  -13.1233   20.4576 C   0  0  0  0  0  0  0  0  0  0  0  0
    8.0417  -13.8360   20.7417 C   0  0  0  0  0  0  0  0  0  0  0  0
    7.9148  -14.4069   22.1404 C   0  0  2  0  0  0  0  0  0  0  0  0
    7.7248  -13.2373   23.0863 C   0  0  0  0  0  0  0  0  0  0  0  0
    9.2303  -15.0910   22.5547 C   0  0  2  0  0  0  0  0  0  0  0  0
    9.3107  -16.2813   21.7551 N   0  0  0  0  0  0  0  0  0  0  0  0
    9.2288  -15.3315   23.9935 C   0  0  0  0  0  0  0  0  0  0  0  0
    8.2536  -15.9278   24.5124 O   0  0  0  0  0  0  0  0  0  0  0  0
    8.4099  -12.0214   27.2325 C   0  0  0  0  0  0  0  0  0  0  0  0
    9.4258  -12.9140   26.5361 C   0  0  0  0  0  0  0  0  0  0  0  0
    9.3279  -14.3268   27.0506 C   0  0  2  0  0  0  0  0  0  0  0  0
    9.6537  -14.2778   28.5444 C   0  0  0  0  0  0  0  0  0  0  0  0
   10.2421  -15.2599   26.3220 C   0  0  2  0  0  0  0  0  0  0  0  0
   10.2657  -14.9360   24.8787 N   0  0  0  0  0  0  0  0  0  0  0  0
    9.8726  -16.6840   26.3925 C   0  0  0  0  0  0  0  0  0  0  0  0
   10.5627  -17.5967   27.1758 O   0  0  0  0  0  0  0  0  0  0  0  0
    8.9069  -17.1528   25.7439 O   0  0  0  0  0  0  0  0  0  0  0  0
  1  2  1  0
  2  3  2  0
  4  5  1  0
  4  2  1  0
  5  6  1  6
  7  5  1  0
  7  8  2  0
 10 11  1  0
 10  9  1  0
 11 13  1  0
 11 12  1  1
 13 14  1  6
 14  7  1  0
 15 22  1  0
 15 13  1  0
 16 15  2  0
 17 18  1  0
 18 19  1  0
 19 21  1  0
 19 20  1  1
 21 22  1  6
 21 23  1  0
 23 24  1  0
 25 23  2  0
M  END
$$$$
