NII.pdb
     RDKit          3D

 25 24  0  0  1  0  0  0  0  0999 V2000
   12.3766  -19.8866   19.1497 N   0  0  0  0  0  0  0  0  0  0  0  0
   13.2129  -19.4953   20.2163 C   0  0  0  0  0  0  0  0  0  0  0  0
   14.3981  -19.9345   20.3564 O   0  0  0  0  0  0  0  0  0  0  0  0
   12.7359  -18.5455   21.2264 C   0  0  0  0  0  0  0  0  0  0  0  0
   12.0823  -17.3252   20.6254 C   0  0  2  0  0  0  0  0  0  0  0  0
   13.0081  -16.6702   19.7114 N   0  0  0  0  0  0  0  0  0  0  0  0
   11.5611  -16.3941   21.6403 C   0  0  0  0  0  0  0  0  0  0  0  0
   12.2458  -15.5367   22.2506 O   0  0  0  0  0  0  0  0  0  0  0  0
    6.6327  -14.5616   20.7111 C   0  0  0  0  0  0  0  0  0  0  0  0
    8.0922  -14.6348   21.1573 C   0  0  0  0  0  0  0  0  0  0  0  0
    8.0952  -15.4397   22.4421 C   0  0  2  0  0  0  0  0  0  0  0  0
    7.3822  -14.6104   23.4921 C   0  0  0  0  0  0  0  0  0  0  0  0
    9.5379  -15.6296   22.9449 C   0  0  2  0  0  0  0  0  0  0  0  0
   10.1787  -16.4597   21.9637 N   0  0  0  0  0  0  0  0  0  0  0  0
    9.5206  -16.1924   24.2907 C   0  0  0  0  0  0  0  0  0  0  0  0
    9.6487  -17.4327   24.4361 O   0  0  0  0  0  0  0  0  0  0  0  0
   10.0390  -12.4576   28.4086 C   0  0  0  0  0  0  0  0  0  0  0  0
   10.3872  -13.5784   27.4410 C   0  0  0  0  0  0  0  0  0  0  0  0
    9.6824  -14.8515   27.8318 C   0  0  2  0  0  0  0  0  0  0  0  0
   10.2687  -15.2877   29.1758 C   0  0  0  0  0  0  0  0  0  0  0  0
    9.8307  -15.9219   26.7976 C   0  0  2  0  0  0  0  0  0  0  0  0
    9.3662  -15.4337   25.4805 N   0  0  0  0  0  0  0  0  0  0  0  0
    9.0574  -17.1500   27.0491 C   0  0  0  0  0  0  0  0  0  0  0  0
    9.6013  -18.2591   27.6792 O   0  0  0  0  0  0  0  0  0  0  0  0
    7.8564  -17.2611   26.7053 O   0  0  0  0  0  0  0  0  0  0  0  0
  1  2  1  0
  2  3  2  0
  4  5  1  0
  4  2  1  0
  5  6  1  1
  7  5  1  0
  7  8  2  0
 10 11  1  0
 10  9  1  0
 11 13  1  0
 11 12  1  1
 13 14  1  6
 14  7  1  0
 15 22  1  0
 15 13  1  0
 16 15  2  0
 17 18  1  0
 18 19  1  0
 19 21  1  0
 19 20  1  1
 21 22  1  6
 21 23  1  0
 23 24  1  0
 25 23  2  0
M  END
$$$$
