NII.pdb
     RDKit          3D

 25 24  0  0  1  0  0  0  0  0999 V2000
    8.7280  -20.9640   20.4787 N   0  0  0  0  0  0  0  0  0  0  0  0
    9.5883  -20.2557   19.6136 C   0  0  0  0  0  0  0  0  0  0  0  0
   10.2306  -20.8188   18.6714 O   0  0  0  0  0  0  0  0  0  0  0  0
    9.7782  -18.8104   19.7719 C   0  0  0  0  0  0  0  0  0  0  0  0
    9.0428  -18.2466   20.9630 C   0  0  2  0  0  0  0  0  0  0  0  0
    7.6096  -18.2474   20.7027 N   0  0  0  0  0  0  0  0  0  0  0  0
    9.5284  -16.9143   21.3601 C   0  0  0  0  0  0  0  0  0  0  0  0
   10.7230  -16.6322   21.6240 O   0  0  0  0  0  0  0  0  0  0  0  0
    6.6888  -12.8157   19.2903 C   0  0  0  0  0  0  0  0  0  0  0  0
    7.9227  -13.5691   19.7849 C   0  0  0  0  0  0  0  0  0  0  0  0
    7.7973  -13.6285   21.2946 C   0  0  2  0  0  0  0  0  0  0  0  0
    8.0541  -12.2300   21.8210 C   0  0  0  0  0  0  0  0  0  0  0  0
    8.9028  -14.5237   21.8833 C   0  0  2  0  0  0  0  0  0  0  0  0
    8.5835  -15.8570   21.4555 N   0  0  0  0  0  0  0  0  0  0  0  0
    8.9565  -14.3528   23.3311 C   0  0  0  0  0  0  0  0  0  0  0  0
    9.2389  -13.2244   23.8031 O   0  0  0  0  0  0  0  0  0  0  0  0
    6.4254  -11.9531   25.9266 C   0  0  0  0  0  0  0  0  0  0  0  0
    7.6497  -12.8051   25.6284 C   0  0  0  0  0  0  0  0  0  0  0  0
    7.3909  -14.2455   25.9869 C   0  0  2  0  0  0  0  0  0  0  0  0
    6.9956  -14.2701   27.4646 C   0  0  0  0  0  0  0  0  0  0  0  0
    8.5777  -15.1171   25.7240 C   0  0  2  0  0  0  0  0  0  0  0  0
    8.7100  -15.3841   24.2749 N   0  0  0  0  0  0  0  0  0  0  0  0
    8.5348  -16.4453   26.3593 C   0  0  0  0  0  0  0  0  0  0  0  0
    9.1470  -16.7120   27.5746 O   0  0  0  0  0  0  0  0  0  0  0  0
    7.9379  -17.4147   25.8328 O   0  0  0  0  0  0  0  0  0  0  0  0
  1  2  1  0
  2  3  2  0
  4  5  1  0
  4  2  1  0
  5  6  1  6
  7  5  1  0
  7  8  2  0
 10 11  1  0
 10  9  1  0
 11 13  1  0
 11 12  1  1
 13 14  1  1
 14  7  1  0
 15 22  1  0
 15 13  1  0
 16 15  2  0
 17 18  1  0
 18 19  1  0
 19 21  1  0
 19 20  1  1
 21 22  1  6
 21 23  1  0
 23 24  1  0
 25 23  2  0
M  END
$$$$
