NII.pdb
     RDKit          3D

 25 24  0  0  1  0  0  0  0  0999 V2000
   12.6308  -19.4673   18.8207 N   0  0  0  0  0  0  0  0  0  0  0  0
   12.7122  -19.7210   20.2060 C   0  0  0  0  0  0  0  0  0  0  0  0
   13.0686  -20.8468   20.6782 O   0  0  0  0  0  0  0  0  0  0  0  0
   12.3815  -18.6720   21.1756 C   0  0  0  0  0  0  0  0  0  0  0  0
   11.7977  -17.4380   20.5322 C   0  0  2  0  0  0  0  0  0  0  0  0
   12.7537  -16.8754   19.5882 N   0  0  0  0  0  0  0  0  0  0  0  0
   11.3420  -16.4393   21.5138 C   0  0  0  0  0  0  0  0  0  0  0  0
   12.0501  -15.5143   21.9821 O   0  0  0  0  0  0  0  0  0  0  0  0
    6.4496  -14.5886   20.8368 C   0  0  0  0  0  0  0  0  0  0  0  0
    7.9302  -14.7298   21.1874 C   0  0  0  0  0  0  0  0  0  0  0  0
    7.9749  -15.4224   22.5353 C   0  0  2  0  0  0  0  0  0  0  0  0
    7.3694  -14.4708   23.5484 C   0  0  0  0  0  0  0  0  0  0  0  0
    9.4354  -15.6456   22.9680 C   0  0  2  0  0  0  0  0  0  0  0  0
    9.9999  -16.5160   21.9749 N   0  0  0  0  0  0  0  0  0  0  0  0
    9.4712  -16.1782   24.3256 C   0  0  0  0  0  0  0  0  0  0  0  0
    9.5802  -17.4175   24.4931 O   0  0  0  0  0  0  0  0  0  0  0  0
   10.3496  -12.3935   28.2713 C   0  0  0  0  0  0  0  0  0  0  0  0
   10.6670  -13.6109   27.4165 C   0  0  0  0  0  0  0  0  0  0  0  0
    9.8169  -14.7837   27.8313 C   0  0  2  0  0  0  0  0  0  0  0  0
   10.3438  -15.2549   29.1880 C   0  0  0  0  0  0  0  0  0  0  0  0
    9.8422  -15.8873   26.8220 C   0  0  2  0  0  0  0  0  0  0  0  0
    9.3902  -15.3905   25.5037 N   0  0  0  0  0  0  0  0  0  0  0  0
    8.9684  -17.0342   27.1229 C   0  0  0  0  0  0  0  0  0  0  0  0
    7.6157  -17.0427   26.8181 O   0  0  0  0  0  0  0  0  0  0  0  0
    9.4026  -18.0735   27.6748 O   0  0  0  0  0  0  0  0  0  0  0  0
  1  2  1  0
  2  3  2  0
  4  5  1  0
  4  2  1  0
  5  6  1  6
  7  5  1  0
  7  8  2  0
 10 11  1  0
 10  9  1  0
 11 13  1  0
 11 12  1  1
 13 14  1  6
 14  7  1  0
 15 22  1  0
 15 13  1  0
 16 15  2  0
 17 18  1  0
 18 19  1  0
 19 21  1  0
 19 20  1  1
 21 22  1  6
 21 23  1  0
 23 24  1  0
 25 23  2  0
M  END
$$$$
