NII.pdb
     RDKit          3D

 25 24  0  0  1  0  0  0  0  0999 V2000
    7.3891  -17.0990   18.7353 N   0  0  0  0  0  0  0  0  0  0  0  0
    7.5087  -17.8925   19.8956 C   0  0  0  0  0  0  0  0  0  0  0  0
    7.1674  -19.1171   19.9282 O   0  0  0  0  0  0  0  0  0  0  0  0
    8.0434  -17.3217   21.1359 C   0  0  0  0  0  0  0  0  0  0  0  0
    8.1373  -15.8160   21.0988 C   0  0  2  0  0  0  0  0  0  0  0  0
    8.8296  -15.3951   19.8884 N   0  0  0  0  0  0  0  0  0  0  0  0
    8.7539  -15.2489   22.3099 C   0  0  0  0  0  0  0  0  0  0  0  0
    9.9664  -14.9441   22.4258 O   0  0  0  0  0  0  0  0  0  0  0  0
    5.4597  -12.2486   25.4596 C   0  0  0  0  0  0  0  0  0  0  0  0
    6.6987  -12.7271   24.7041 C   0  0  0  0  0  0  0  0  0  0  0  0
    7.1721  -13.9729   25.4269 C   0  0  2  0  0  0  0  0  0  0  0  0
    7.6393  -13.5421   26.8034 C   0  0  0  0  0  0  0  0  0  0  0  0
    8.4033  -14.5626   24.7153 C   0  0  2  0  0  0  0  0  0  0  0  0
    7.9250  -15.0237   23.4421 N   0  0  0  0  0  0  0  0  0  0  0  0
    9.0016  -15.6021   25.5459 C   0  0  0  0  0  0  0  0  0  0  0  0
    8.6679  -16.7982   25.3625 O   0  0  0  0  0  0  0  0  0  0  0  0
   11.6826  -14.5051   30.4354 C   0  0  0  0  0  0  0  0  0  0  0  0
   10.7407  -15.0335   29.3645 C   0  0  0  0  0  0  0  0  0  0  0  0
   11.4846  -15.9150   28.3950 C   0  0  2  0  0  0  0  0  0  0  0  0
   12.6091  -15.0667   27.7982 C   0  0  0  0  0  0  0  0  0  0  0  0
   10.5911  -16.4660   27.3294 C   0  0  2  0  0  0  0  0  0  0  0  0
    9.9543  -15.3665   26.5715 N   0  0  0  0  0  0  0  0  0  0  0  0
    9.4763  -17.2984   27.8127 C   0  0  0  0  0  0  0  0  0  0  0  0
    9.6377  -18.6286   28.1698 O   0  0  0  0  0  0  0  0  0  0  0  0
    8.3119  -16.8471   27.9292 O   0  0  0  0  0  0  0  0  0  0  0  0
  1  2  1  0
  2  3  2  0
  4  5  1  0
  4  2  1  0
  5  6  1  6
  7  5  1  0
  7  8  2  0
 10 11  1  0
 10  9  1  0
 11 13  1  0
 11 12  1  1
 13 14  1  6
 14  7  1  0
 15 22  1  0
 15 13  1  0
 16 15  2  0
 17 18  1  0
 18 19  1  0
 19 21  1  0
 19 20  1  6
 21 22  1  1
 21 23  1  0
 23 24  1  0
 25 23  2  0
M  END
$$$$
