NII.pdb
     RDKit          3D

 25 24  0  0  1  0  0  0  0  0999 V2000
    9.1732  -20.8205   18.6322 N   0  0  0  0  0  0  0  0  0  0  0  0
   10.1519  -20.4048   19.5592 C   0  0  0  0  0  0  0  0  0  0  0  0
   10.8983  -21.2236   20.1835 O   0  0  0  0  0  0  0  0  0  0  0  0
   10.3499  -18.9801   19.8440 C   0  0  0  0  0  0  0  0  0  0  0  0
   10.0306  -18.6151   21.2731 C   0  0  2  0  0  0  0  0  0  0  0  0
    8.6724  -19.0305   21.5960 N   0  0  0  0  0  0  0  0  0  0  0  0
   10.2533  -17.1891   21.5652 C   0  0  0  0  0  0  0  0  0  0  0  0
   11.3519  -16.5927   21.4479 O   0  0  0  0  0  0  0  0  0  0  0  0
    6.2639  -14.1251   19.9957 C   0  0  0  0  0  0  0  0  0  0  0  0
    7.6814  -14.5944   20.3198 C   0  0  0  0  0  0  0  0  0  0  0  0
    7.8329  -14.4561   21.8219 C   0  0  2  0  0  0  0  0  0  0  0  0
    7.8424  -12.9731   22.1367 C   0  0  0  0  0  0  0  0  0  0  0  0
    9.2005  -15.0036   22.2691 C   0  0  2  0  0  0  0  0  0  0  0  0
    9.1487  -16.4161   22.0151 N   0  0  0  0  0  0  0  0  0  0  0  0
    9.4400  -14.6514   23.6643 C   0  0  0  0  0  0  0  0  0  0  0  0
   10.1369  -13.6413   23.9287 O   0  0  0  0  0  0  0  0  0  0  0  0
    6.3147  -12.3302   26.5418 C   0  0  0  0  0  0  0  0  0  0  0  0
    6.9979  -13.5810   26.0103 C   0  0  0  0  0  0  0  0  0  0  0  0
    8.4667  -13.5638   26.3463 C   0  0  2  0  0  0  0  0  0  0  0  0
    9.1153  -12.5132   25.4430 C   0  0  0  0  0  0  0  0  0  0  0  0
    9.1042  -14.9053   26.1697 C   0  0  2  0  0  0  0  0  0  0  0  0
    8.9375  -15.3757   24.7769 N   0  0  0  0  0  0  0  0  0  0  0  0
    8.5490  -15.9802   27.0097 C   0  0  0  0  0  0  0  0  0  0  0  0
    8.6954  -16.0017   28.3885 O   0  0  0  0  0  0  0  0  0  0  0  0
    7.9086  -16.9417   26.5212 O   0  0  0  0  0  0  0  0  0  0  0  0
  1  2  1  0
  2  3  2  0
  4  5  1  0
  4  2  1  0
  5  6  1  6
  7  5  1  0
  7  8  2  0
 10 11  1  0
 10  9  1  0
 11 13  1  0
 11 12  1  6
 13 14  1  1
 14  7  1  0
 15 22  1  0
 15 13  1  0
 16 15  2  0
 17 18  1  0
 18 19  1  0
 19 21  1  0
 19 20  1  6
 21 22  1  6
 21 23  1  0
 23 24  1  0
 25 23  2  0
M  END
$$$$
