NII.pdb
     RDKit          3D

 25 24  0  0  1  0  0  0  0  0999 V2000
   14.8265  -16.5625   18.2881 N   0  0  0  0  0  0  0  0  0  0  0  0
   13.8465  -17.0999   19.1488 C   0  0  0  0  0  0  0  0  0  0  0  0
   13.2683  -18.2098   18.9231 O   0  0  0  0  0  0  0  0  0  0  0  0
   13.4490  -16.3823   20.3642 C   0  0  0  0  0  0  0  0  0  0  0  0
   12.4111  -17.1221   21.1722 C   0  0  2  0  0  0  0  0  0  0  0  0
   11.4340  -17.7309   20.2800 N   0  0  0  0  0  0  0  0  0  0  0  0
   11.7705  -16.2781   22.1949 C   0  0  0  0  0  0  0  0  0  0  0  0
   12.3831  -15.5876   23.0460 O   0  0  0  0  0  0  0  0  0  0  0  0
    6.7464  -14.3619   20.9810 C   0  0  0  0  0  0  0  0  0  0  0  0
    8.1870  -14.4302   21.4857 C   0  0  0  0  0  0  0  0  0  0  0  0
    8.1740  -15.3972   22.6532 C   0  0  2  0  0  0  0  0  0  0  0  0
    7.3238  -14.7733   23.7425 C   0  0  0  0  0  0  0  0  0  0  0  0
    9.5910  -15.5414   23.2375 C   0  0  2  0  0  0  0  0  0  0  0  0
   10.3506  -16.2316   22.2330 N   0  0  0  0  0  0  0  0  0  0  0  0
    9.5267  -16.2296   24.5222 C   0  0  0  0  0  0  0  0  0  0  0  0
    9.6044  -17.4822   24.5490 O   0  0  0  0  0  0  0  0  0  0  0  0
   10.0761  -12.8358   28.8605 C   0  0  0  0  0  0  0  0  0  0  0  0
   10.4849  -13.9188   27.8739 C   0  0  0  0  0  0  0  0  0  0  0  0
    9.7478  -15.2010   28.1618 C   0  0  2  0  0  0  0  0  0  0  0  0
   10.3292  -15.7644   29.4598 C   0  0  0  0  0  0  0  0  0  0  0  0
    9.8612  -16.1841   27.0401 C   0  0  2  0  0  0  0  0  0  0  0  0
    9.3789  -15.5830   25.7772 N   0  0  0  0  0  0  0  0  0  0  0  0
    9.0755  -17.4190   27.2051 C   0  0  0  0  0  0  0  0  0  0  0  0
    7.7487  -17.5177   26.8143 O   0  0  0  0  0  0  0  0  0  0  0  0
    9.5665  -18.4563   27.7110 O   0  0  0  0  0  0  0  0  0  0  0  0
  1  2  1  0
  2  3  2  0
  4  5  1  0
  4  2  1  0
  5  6  1  6
  7  5  1  0
  7  8  2  0
 10 11  1  0
 10  9  1  0
 11 13  1  0
 11 12  1  1
 13 14  1  6
 14  7  1  0
 15 22  1  0
 15 13  1  0
 16 15  2  0
 17 18  1  0
 18 19  1  0
 19 21  1  0
 19 20  1  1
 21 22  1  6
 21 23  1  0
 23 24  1  0
 25 23  2  0
M  END
$$$$
