NII.pdb
     RDKit          3D

 25 24  0  0  1  0  0  0  0  0999 V2000
    6.5588  -20.1461   19.1021 N   0  0  0  0  0  0  0  0  0  0  0  0
    7.6872  -19.8250   19.8855 C   0  0  0  0  0  0  0  0  0  0  0  0
    8.5365  -20.6962   20.2558 O   0  0  0  0  0  0  0  0  0  0  0  0
    7.9286  -18.4430   20.3118 C   0  0  0  0  0  0  0  0  0  0  0  0
    8.1920  -18.3208   21.7927 C   0  0  2  0  0  0  0  0  0  0  0  0
    6.9340  -18.3864   22.5239 N   0  0  0  0  0  0  0  0  0  0  0  0
    8.9679  -17.1185   22.1409 C   0  0  0  0  0  0  0  0  0  0  0  0
   10.0806  -16.8113   21.6471 O   0  0  0  0  0  0  0  0  0  0  0  0
    6.0597  -13.2868   25.2011 C   0  0  0  0  0  0  0  0  0  0  0  0
    7.1539  -14.3376   25.0177 C   0  0  0  0  0  0  0  0  0  0  0  0
    7.8241  -14.0150   23.6966 C   0  0  2  0  0  0  0  0  0  0  0  0
    6.8180  -14.3071   22.6006 C   0  0  0  0  0  0  0  0  0  0  0  0
    9.0123  -14.9647   23.4596 C   0  0  2  0  0  0  0  0  0  0  0  0
    8.4277  -16.2286   23.1083 N   0  0  0  0  0  0  0  0  0  0  0  0
    9.8578  -15.0022   24.6478 C   0  0  0  0  0  0  0  0  0  0  0  0
   10.7672  -14.1467   24.7779 O   0  0  0  0  0  0  0  0  0  0  0  0
   10.3997  -12.6890   28.5254 C   0  0  0  0  0  0  0  0  0  0  0  0
   10.8165  -13.6783   27.4478 C   0  0  0  0  0  0  0  0  0  0  0  0
   10.4681  -15.0854   27.8594 C   0  0  2  0  0  0  0  0  0  0  0  0
   11.2838  -15.3941   29.1161 C   0  0  0  0  0  0  0  0  0  0  0  0
   10.7405  -16.0774   26.7736 C   0  0  2  0  0  0  0  0  0  0  0  0
    9.7344  -15.9513   25.6961 N   0  0  0  0  0  0  0  0  0  0  0  0
   10.6897  -17.4904   27.1863 C   0  0  0  0  0  0  0  0  0  0  0  0
    9.6992  -18.3594   26.7543 O   0  0  0  0  0  0  0  0  0  0  0  0
   11.5453  -17.9890   27.9560 O   0  0  0  0  0  0  0  0  0  0  0  0
  1  2  1  0
  2  3  2  0
  4  5  1  0
  4  2  1  0
  5  6  1  1
  7  5  1  0
  7  8  2  0
 10 11  1  0
 10  9  1  0
 11 13  1  0
 11 12  1  6
 13 14  1  1
 14  7  1  0
 15 22  1  0
 15 13  1  0
 16 15  2  0
 17 18  1  0
 18 19  1  0
 19 21  1  0
 19 20  1  1
 21 22  1  6
 21 23  1  0
 23 24  1  0
 25 23  2  0
M  END
$$$$
