NII.pdb
     RDKit          3D

 25 24  0  0  1  0  0  0  0  0999 V2000
    5.2931  -21.1667   23.4213 N   0  0  0  0  0  0  0  0  0  0  0  0
    5.1349  -19.8413   22.9650 C   0  0  0  0  0  0  0  0  0  0  0  0
    4.0274  -19.3922   22.5304 O   0  0  0  0  0  0  0  0  0  0  0  0
    6.2677  -18.9103   22.9753 C   0  0  0  0  0  0  0  0  0  0  0  0
    6.6553  -18.4388   21.5952 C   0  0  2  0  0  0  0  0  0  0  0  0
    6.9698  -19.5850   20.7532 N   0  0  0  0  0  0  0  0  0  0  0  0
    7.7484  -17.4522   21.6111 C   0  0  0  0  0  0  0  0  0  0  0  0
    8.9720  -17.7321   21.5798 O   0  0  0  0  0  0  0  0  0  0  0  0
    6.7138  -12.6595   19.2793 C   0  0  0  0  0  0  0  0  0  0  0  0
    7.5031  -13.8896   19.7250 C   0  0  0  0  0  0  0  0  0  0  0  0
    7.6632  -13.7601   21.2270 C   0  0  2  0  0  0  0  0  0  0  0  0
    8.5994  -12.5945   21.4791 C   0  0  0  0  0  0  0  0  0  0  0  0
    8.3620  -15.0089   21.7948 C   0  0  2  0  0  0  0  0  0  0  0  0
    7.4070  -16.0737   21.6655 N   0  0  0  0  0  0  0  0  0  0  0  0
    8.7949  -14.7516   23.1639 C   0  0  0  0  0  0  0  0  0  0  0  0
    9.8534  -14.1056   23.3590 O   0  0  0  0  0  0  0  0  0  0  0  0
    5.8078  -12.2465   26.3086 C   0  0  0  0  0  0  0  0  0  0  0  0
    7.0373  -12.8595   25.6558 C   0  0  0  0  0  0  0  0  0  0  0  0
    7.4853  -14.0810   26.4158 C   0  0  2  0  0  0  0  0  0  0  0  0
    7.9743  -13.5977   27.7824 C   0  0  0  0  0  0  0  0  0  0  0  0
    8.5509  -14.8403   25.6911 C   0  0  2  0  0  0  0  0  0  0  0  0
    8.1003  -15.1832   24.3242 N   0  0  0  0  0  0  0  0  0  0  0  0
    8.9358  -16.1230   26.3042 C   0  0  0  0  0  0  0  0  0  0  0  0
   10.0099  -16.2430   27.1730 O   0  0  0  0  0  0  0  0  0  0  0  0
    8.3089  -17.1845   26.0732 O   0  0  0  0  0  0  0  0  0  0  0  0
  1  2  1  0
  2  3  2  0
  4  5  1  0
  4  2  1  0
  5  6  1  6
  7  5  1  0
  7  8  2  0
 10 11  1  0
 10  9  1  0
 11 13  1  0
 11 12  1  6
 13 14  1  1
 14  7  1  0
 15 22  1  0
 15 13  1  0
 16 15  2  0
 17 18  1  0
 18 19  1  0
 19 21  1  0
 19 20  1  1
 21 22  1  6
 21 23  1  0
 23 24  1  0
 25 23  2  0
M  END
$$$$
