NII.pdb
     RDKit          3D

 25 24  0  0  1  0  0  0  0  0999 V2000
    6.3527  -16.6883   19.6199 N   0  0  0  0  0  0  0  0  0  0  0  0
    6.7474  -17.5849   20.6350 C   0  0  0  0  0  0  0  0  0  0  0  0
    6.4652  -18.8245   20.6041 O   0  0  0  0  0  0  0  0  0  0  0  0
    7.5156  -17.1101   21.7902 C   0  0  0  0  0  0  0  0  0  0  0  0
    7.6592  -15.6083   21.8251 C   0  0  2  0  0  0  0  0  0  0  0  0
    8.1917  -15.1346   20.5549 N   0  0  0  0  0  0  0  0  0  0  0  0
    8.4588  -15.1341   22.9673 C   0  0  0  0  0  0  0  0  0  0  0  0
    9.7122  -15.0647   22.9898 O   0  0  0  0  0  0  0  0  0  0  0  0
    5.6871  -11.8201   26.3008 C   0  0  0  0  0  0  0  0  0  0  0  0
    6.8463  -12.3625   25.4660 C   0  0  0  0  0  0  0  0  0  0  0  0
    7.3305  -13.6067   26.1843 C   0  0  2  0  0  0  0  0  0  0  0  0
    7.9967  -13.1523   27.4682 C   0  0  0  0  0  0  0  0  0  0  0  0
    8.4210  -14.3074   25.3537 C   0  0  2  0  0  0  0  0  0  0  0  0
    7.7722  -14.7197   24.1406 N   0  0  0  0  0  0  0  0  0  0  0  0
    9.0033  -15.3995   26.1260 C   0  0  0  0  0  0  0  0  0  0  0  0
    8.2942  -16.3974   26.4038 O   0  0  0  0  0  0  0  0  0  0  0  0
   13.8149  -16.8974   24.6573 C   0  0  0  0  0  0  0  0  0  0  0  0
   12.3782  -16.9205   25.1562 C   0  0  0  0  0  0  0  0  0  0  0  0
   12.3397  -16.8297   26.6598 C   0  0  2  0  0  0  0  0  0  0  0  0
   12.9722  -18.1146   27.1974 C   0  0  0  0  0  0  0  0  0  0  0  0
   10.9500  -16.6449   27.1811 C   0  0  2  0  0  0  0  0  0  0  0  0
   10.3402  -15.4274   26.6024 N   0  0  0  0  0  0  0  0  0  0  0  0
   10.8438  -16.4741   28.6402 C   0  0  0  0  0  0  0  0  0  0  0  0
   10.7370  -17.5472   29.5119 O   0  0  0  0  0  0  0  0  0  0  0  0
   10.8445  -15.3412   29.1784 O   0  0  0  0  0  0  0  0  0  0  0  0
  1  2  1  0
  2  3  2  0
  4  5  1  0
  4  2  1  0
  5  6  1  6
  7  5  1  0
  7  8  2  0
 10 11  1  0
 10  9  1  0
 11 13  1  0
 11 12  1  1
 13 14  1  6
 14  7  1  0
 15 22  1  0
 15 13  1  0
 16 15  2  0
 17 18  1  0
 18 19  1  0
 19 21  1  0
 19 20  1  1
 21 22  1  6
 21 23  1  0
 23 24  1  0
 25 23  2  0
M  END
$$$$
