NII.pdb
     RDKit          3D

 25 24  0  0  1  0  0  0  0  0999 V2000
    9.4868  -17.4143   17.3241 N   0  0  0  0  0  0  0  0  0  0  0  0
    8.0897  -17.2275   17.3797 C   0  0  0  0  0  0  0  0  0  0  0  0
    7.3762  -17.0683   16.3391 O   0  0  0  0  0  0  0  0  0  0  0  0
    7.3918  -17.2095   18.6692 C   0  0  0  0  0  0  0  0  0  0  0  0
    8.3278  -17.3259   19.8472 C   0  0  2  0  0  0  0  0  0  0  0  0
    8.8675  -18.6770   19.9160 N   0  0  0  0  0  0  0  0  0  0  0  0
    7.7055  -16.9174   21.1179 C   0  0  0  0  0  0  0  0  0  0  0  0
    7.0894  -15.8395   21.3045 O   0  0  0  0  0  0  0  0  0  0  0  0
    6.1659  -21.1505   24.1057 C   0  0  0  0  0  0  0  0  0  0  0  0
    6.1179  -19.7744   23.4433 C   0  0  0  0  0  0  0  0  0  0  0  0
    7.1093  -18.9127   24.2004 C   0  0  2  0  0  0  0  0  0  0  0  0
    6.5228  -18.6572   25.5749 C   0  0  0  0  0  0  0  0  0  0  0  0
    7.2416  -17.5369   23.5222 C   0  0  2  0  0  0  0  0  0  0  0  0
    7.8015  -17.8015   22.2264 N   0  0  0  0  0  0  0  0  0  0  0  0
    8.0469  -16.6517   24.3565 C   0  0  0  0  0  0  0  0  0  0  0  0
    9.2984  -16.7360   24.3065 O   0  0  0  0  0  0  0  0  0  0  0  0
    5.9376  -11.8306   25.9386 C   0  0  0  0  0  0  0  0  0  0  0  0
    6.9898  -12.7888   25.4018 C   0  0  0  0  0  0  0  0  0  0  0  0
    7.5887  -13.5978   26.5231 C   0  0  2  0  0  0  0  0  0  0  0  0
    8.4563  -12.6423   27.3444 C   0  0  0  0  0  0  0  0  0  0  0  0
    8.3823  -14.7620   26.0210 C   0  0  2  0  0  0  0  0  0  0  0  0
    7.5184  -15.6778   25.2438 N   0  0  0  0  0  0  0  0  0  0  0  0
    8.9952  -15.6016   27.0646 C   0  0  0  0  0  0  0  0  0  0  0  0
   10.3375  -15.5135   27.4011 O   0  0  0  0  0  0  0  0  0  0  0  0
    8.3323  -16.4477   27.7110 O   0  0  0  0  0  0  0  0  0  0  0  0
  1  2  1  0
  2  3  2  0
  4  5  1  0
  4  2  1  0
  5  6  1  1
  7  5  1  0
  7  8  2  0
 10 11  1  0
 10  9  1  0
 11 13  1  0
 11 12  1  1
 13 14  1  6
 14  7  1  0
 15 22  1  0
 15 13  1  0
 16 15  2  0
 17 18  1  0
 18 19  1  0
 19 21  1  0
 19 20  1  6
 21 22  1  1
 21 23  1  0
 23 24  1  0
 25 23  2  0
M  END
$$$$
