IPN.pdb
     RDKit          3D

 24 24  0  0  1  0  0  0  0  0999 V2000
    7.5109  -12.5934   27.4803 C   0  0  0  0  0  0  0  0  0  0  0  0
    6.6079  -13.4250   26.6196 C   0  0  0  0  0  0  0  0  0  0  0  0
    7.3487  -14.1593   25.5310 C   0  0  2  0  0  0  0  0  0  0  0  0
    8.0883  -13.1404   24.6873 C   0  0  0  0  0  0  0  0  0  0  0  0
    6.4557  -15.0366   24.6795 C   0  0  2  0  0  0  0  0  0  0  0  0
    5.8691  -16.0089   25.5399 N   0  0  0  0  0  0  0  0  0  0  0  0
    7.0894  -15.5403   23.4652 C   0  0  0  0  0  0  0  0  0  0  0  0
    7.3574  -16.7907   23.4633 O   0  0  0  0  0  0  0  0  0  0  0  0
    7.4311  -14.7850   22.3040 N   0  0  0  0  0  0  0  0  0  0  0  0
    7.5885  -13.3819   22.0759 C   0  0  0  0  0  0  0  0  0  0  0  0
    6.8941  -13.1581   20.7428 C   0  0  0  0  0  0  0  0  0  0  0  0
    7.2897  -14.4057   19.9775 C   0  0  0  0  0  0  0  0  0  0  0  0
    7.7039  -15.4162   21.0159 C   0  0  1  0  0  0  0  0  0  0  0  0
    9.1400  -15.7174   20.8138 C   0  0  0  0  0  0  0  0  0  0  0  0
    9.4312  -16.3678   19.7858 O   0  0  0  0  0  0  0  0  0  0  0  0
   11.5065  -12.8844   19.2993 N   0  0  0  0  0  0  0  0  0  0  0  0
   12.0075  -14.1806   19.6219 C   0  0  0  0  0  0  0  0  0  0  0  0
   12.1012  -15.0106   18.6827 O   0  0  0  0  0  0  0  0  0  0  0  0
   12.3850  -14.4739   21.0274 C   0  0  0  0  0  0  0  0  0  0  0  0
   11.5643  -15.5768   21.6027 C   0  0  2  0  0  0  0  0  0  0  0  0
   10.1576  -15.3201   21.6939 N   0  0  0  0  0  0  0  0  0  0  0  0
   12.1534  -16.0994   22.8563 C   0  0  0  0  0  0  0  0  0  0  0  0
   11.5259  -15.8558   23.9381 O   0  0  0  0  0  0  0  0  0  0  0  0
   13.3159  -16.8151   22.9247 O   0  0  0  0  0  0  0  0  0  0  0  0
  1  2  1  0
  2  3  1  0
  3  4  1  6
  3  5  1  0
  5  7  1  0
  5  6  1  1
  7  8  2  0
  7  9  1  0
  9 13  1  0
  9 10  1  0
 10 11  1  0
 12 11  1  0
 13 12  1  0
 13 14  1  1
 15 14  2  0
 16 17  1  0
 17 19  1  0
 17 18  2  0
 20 19  1  1
 20 22  1  0
 20 21  1  0
 21 14  1  0
 22 24  1  0
 23 22  2  0
M  END
$$$$
