IPN.pdb
     RDKit          3D

 24 24  0  0  1  0  0  0  0  0999 V2000
   13.1196  -58.9248   -6.5123 C   0  0  0  0  0  0  0  0  0  0  0  0
   14.0844  -58.2416   -5.5903 C   0  0  0  0  0  0  0  0  0  0  0  0
   15.5222  -58.5840   -5.8881 C   0  0  2  0  0  0  0  0  0  0  0  0
   16.4089  -57.7052   -5.0288 C   0  0  0  0  0  0  0  0  0  0  0  0
   15.8800  -58.4628   -7.3541 C   0  0  2  0  0  0  0  0  0  0  0  0
   17.3013  -58.4915   -7.4490 N   0  0  0  0  0  0  0  0  0  0  0  0
   15.2035  -57.3727   -8.0499 C   0  0  0  0  0  0  0  0  0  0  0  0
   15.8321  -56.2592   -8.0690 O   0  0  0  0  0  0  0  0  0  0  0  0
   13.9334  -57.4308   -8.6971 N   0  0  0  0  0  0  0  0  0  0  0  0
   12.7917  -58.2720   -8.5108 C   0  0  0  0  0  0  0  0  0  0  0  0
   12.3651  -58.6120   -9.9292 C   0  0  0  0  0  0  0  0  0  0  0  0
   12.6058  -57.2976  -10.6455 C   0  0  0  0  0  0  0  0  0  0  0  0
   13.5693  -56.5245   -9.7824 C   0  0  1  0  0  0  0  0  0  0  0  0
   12.8791  -55.3033   -9.3070 C   0  0  0  0  0  0  0  0  0  0  0  0
   11.6354  -55.2819   -9.4389 O   0  0  0  0  0  0  0  0  0  0  0  0
   16.0411  -50.0639   -8.2407 N   0  0  0  0  0  0  0  0  0  0  0  0
   15.4156  -50.9941   -9.1230 C   0  0  0  0  0  0  0  0  0  0  0  0
   15.8219  -51.0207  -10.3122 O   0  0  0  0  0  0  0  0  0  0  0  0
   14.3357  -51.8665   -8.5969 C   0  0  0  0  0  0  0  0  0  0  0  0
   14.1965  -53.1178   -9.3943 C   0  0  2  0  0  0  0  0  0  0  0  0
   13.5342  -54.2032   -8.7338 N   0  0  0  0  0  0  0  0  0  0  0  0
   15.4752  -53.5043  -10.0321 C   0  0  0  0  0  0  0  0  0  0  0  0
   15.6816  -54.7489  -10.2109 O   0  0  0  0  0  0  0  0  0  0  0  0
   16.4377  -52.6204  -10.4328 O   0  0  0  0  0  0  0  0  0  0  0  0
  1  2  1  0
  2  3  1  0
  3  4  1  1
  3  5  1  0
  5  7  1  0
  5  6  1  1
  7  8  2  0
  7  9  1  0
  9 13  1  0
  9 10  1  0
 10 11  1  0
 12 11  1  0
 13 12  1  0
 13 14  1  1
 15 14  2  0
 16 17  1  0
 17 19  1  0
 17 18  2  0
 20 19  1  1
 20 22  1  0
 20 21  1  0
 21 14  1  0
 22 24  1  0
 23 22  2  0
M  END
$$$$
