IPN.pdb
     RDKit          3D

 24 24  0  0  1  0  0  0  0  0999 V2000
    6.4296  -11.7535   27.5211 C   0  0  0  0  0  0  0  0  0  0  0  0
    5.9195  -12.9421   26.7627 C   0  0  0  0  0  0  0  0  0  0  0  0
    7.0203  -13.7309   26.1000 C   0  0  2  0  0  0  0  0  0  0  0  0
    7.7437  -12.8175   25.1309 C   0  0  0  0  0  0  0  0  0  0  0  0
    6.5318  -14.9883   25.4128 C   0  0  2  0  0  0  0  0  0  0  0  0
    6.0024  -15.8455   26.4202 N   0  0  0  0  0  0  0  0  0  0  0  0
    7.4957  -15.5837   24.4928 C   0  0  0  0  0  0  0  0  0  0  0  0
    8.0708  -16.6464   24.9114 O   0  0  0  0  0  0  0  0  0  0  0  0
    7.8497  -15.1019   23.1974 N   0  0  0  0  0  0  0  0  0  0  0  0
    7.4865  -13.9239   22.4722 C   0  0  0  0  0  0  0  0  0  0  0  0
    7.2231  -14.4382   21.0667 C   0  0  0  0  0  0  0  0  0  0  0  0
    8.3118  -15.4822   20.9130 C   0  0  0  0  0  0  0  0  0  0  0  0
    8.7483  -15.8362   22.3113 C   0  0  1  0  0  0  0  0  0  0  0  0
   10.1653  -15.4332   22.4639 C   0  0  0  0  0  0  0  0  0  0  0  0
   10.3725  -14.3354   23.0266 O   0  0  0  0  0  0  0  0  0  0  0  0
   14.1256  -18.2393   24.2424 N   0  0  0  0  0  0  0  0  0  0  0  0
   12.7776  -18.3903   24.6843 C   0  0  0  0  0  0  0  0  0  0  0  0
   12.5846  -19.0871   25.7124 O   0  0  0  0  0  0  0  0  0  0  0  0
   11.6933  -17.7266   23.9178 C   0  0  0  0  0  0  0  0  0  0  0  0
   12.2311  -16.8949   22.8043 C   0  0  2  0  0  0  0  0  0  0  0  0
   11.2527  -16.2008   22.0207 N   0  0  0  0  0  0  0  0  0  0  0  0
   13.2190  -17.6412   21.9927 C   0  0  0  0  0  0  0  0  0  0  0  0
   12.8103  -18.6964   21.4070 O   0  0  0  0  0  0  0  0  0  0  0  0
   14.5267  -17.2751   21.8375 O   0  0  0  0  0  0  0  0  0  0  0  0
  1  2  1  0
  2  3  1  0
  3  4  1  6
  3  5  1  0
  5  7  1  0
  5  6  1  1
  7  8  2  0
  7  9  1  0
  9 13  1  0
  9 10  1  0
 10 11  1  0
 12 11  1  0
 13 12  1  0
 13 14  1  6
 15 14  2  0
 16 17  1  0
 17 19  1  0
 17 18  2  0
 20 19  1  1
 20 22  1  0
 20 21  1  0
 21 14  1  0
 22 24  1  0
 23 22  2  0
M  END
$$$$
