IPN.pdb
     RDKit          3D

 24 24  0  0  1  0  0  0  0  0999 V2000
    8.6742  -16.1242   15.0158 C   0  0  0  0  0  0  0  0  0  0  0  0
    8.1920  -15.0431   15.9359 C   0  0  0  0  0  0  0  0  0  0  0  0
    8.9269  -15.0228   17.2522 C   0  0  2  0  0  0  0  0  0  0  0  0
    8.8054  -16.3937   17.8867 C   0  0  0  0  0  0  0  0  0  0  0  0
    8.4508  -13.9357   18.1922 C   0  0  2  0  0  0  0  0  0  0  0  0
    8.5251  -12.7003   17.4866 N   0  0  0  0  0  0  0  0  0  0  0  0
    9.0711  -13.9688   19.5129 C   0  0  0  0  0  0  0  0  0  0  0  0
   10.2227  -13.4186   19.5929 O   0  0  0  0  0  0  0  0  0  0  0  0
    8.5255  -14.5454   20.6984 N   0  0  0  0  0  0  0  0  0  0  0  0
    7.3184  -15.2688   20.9537 C   0  0  0  0  0  0  0  0  0  0  0  0
    6.8174  -14.6752   22.2599 C   0  0  0  0  0  0  0  0  0  0  0  0
    8.1125  -14.4745   23.0223 C   0  0  0  0  0  0  0  0  0  0  0  0
    9.2076  -14.4700   21.9871 C   0  0  1  0  0  0  0  0  0  0  0  0
   10.0850  -15.6352   22.2444 C   0  0  0  0  0  0  0  0  0  0  0  0
    9.6669  -16.7439   21.8435 O   0  0  0  0  0  0  0  0  0  0  0  0
   14.4125  -14.3492   21.5920 N   0  0  0  0  0  0  0  0  0  0  0  0
   13.8888  -15.6755   21.6357 C   0  0  0  0  0  0  0  0  0  0  0  0
   13.6334  -16.2289   20.5364 O   0  0  0  0  0  0  0  0  0  0  0  0
   13.6774  -16.3197   22.9563 C   0  0  0  0  0  0  0  0  0  0  0  0
   12.2382  -16.6170   23.2035 C   0  0  2  0  0  0  0  0  0  0  0  0
   11.3246  -15.5567   22.8966 N   0  0  0  0  0  0  0  0  0  0  0  0
   12.0254  -17.2131   24.5418 C   0  0  0  0  0  0  0  0  0  0  0  0
   12.7780  -18.1878   24.8692 O   0  0  0  0  0  0  0  0  0  0  0  0
   11.0813  -16.7905   25.4353 O   0  0  0  0  0  0  0  0  0  0  0  0
  1  2  1  0
  2  3  1  0
  3  4  1  1
  3  5  1  0
  5  7  1  0
  5  6  1  6
  7  8  2  0
  7  9  1  0
  9 13  1  0
  9 10  1  0
 10 11  1  0
 12 11  1  0
 13 12  1  0
 13 14  1  1
 15 14  2  0
 16 17  1  0
 17 19  1  0
 17 18  2  0
 20 19  1  1
 20 22  1  0
 20 21  1  0
 21 14  1  0
 22 24  1  0
 23 22  2  0
M  END
$$$$
