IPN.pdb
     RDKit          3D

 24 24  0  0  1  0  0  0  0  0999 V2000
    6.4790  -11.5930   27.4415 C   0  0  0  0  0  0  0  0  0  0  0  0
    5.8954  -12.8070   26.7831 C   0  0  0  0  0  0  0  0  0  0  0  0
    6.9250  -13.6270   26.0479 C   0  0  2  0  0  0  0  0  0  0  0  0
    7.6238  -12.7284   25.0475 C   0  0  0  0  0  0  0  0  0  0  0  0
    6.3503  -14.8567   25.3774 C   0  0  2  0  0  0  0  0  0  0  0  0
    5.6872  -15.6186   26.3822 N   0  0  0  0  0  0  0  0  0  0  0  0
    7.2965  -15.5783   24.5325 C   0  0  0  0  0  0  0  0  0  0  0  0
    7.7193  -16.6888   25.0052 O   0  0  0  0  0  0  0  0  0  0  0  0
    7.7844  -15.1702   23.2554 N   0  0  0  0  0  0  0  0  0  0  0  0
    7.6836  -13.9415   22.5303 C   0  0  0  0  0  0  0  0  0  0  0  0
    7.3770  -14.3902   21.1111 C   0  0  0  0  0  0  0  0  0  0  0  0
    8.2473  -15.6253   20.9850 C   0  0  0  0  0  0  0  0  0  0  0  0
    8.5553  -16.0621   22.3940 C   0  0  1  0  0  0  0  0  0  0  0  0
   10.0171  -15.9426   22.6007 C   0  0  0  0  0  0  0  0  0  0  0  0
   10.4430  -14.8076   22.9089 O   0  0  0  0  0  0  0  0  0  0  0  0
   15.3725  -16.3124   21.7316 N   0  0  0  0  0  0  0  0  0  0  0  0
   14.5071  -15.8983   22.7874 C   0  0  0  0  0  0  0  0  0  0  0  0
   15.0335  -15.6701   23.9057 O   0  0  0  0  0  0  0  0  0  0  0  0
   13.0548  -15.7615   22.5120 C   0  0  0  0  0  0  0  0  0  0  0  0
   12.3201  -17.0323   22.7692 C   0  0  2  0  0  0  0  0  0  0  0  0
   10.9188  -17.0094   22.4709 N   0  0  0  0  0  0  0  0  0  0  0  0
   12.6318  -17.5823   24.1077 C   0  0  0  0  0  0  0  0  0  0  0  0
   11.8855  -17.2165   25.0736 O   0  0  0  0  0  0  0  0  0  0  0  0
   13.6596  -18.4445   24.3693 O   0  0  0  0  0  0  0  0  0  0  0  0
  1  2  1  0
  2  3  1  0
  3  4  1  6
  3  5  1  0
  5  7  1  0
  5  6  1  1
  7  8  2  0
  7  9  1  0
  9 13  1  0
  9 10  1  0
 10 11  1  0
 12 11  1  0
 13 12  1  0
 13 14  1  1
 15 14  2  0
 16 17  1  0
 17 19  1  0
 17 18  2  0
 20 19  1  1
 20 22  1  0
 20 21  1  0
 21 14  1  0
 22 24  1  0
 23 22  2  0
M  END
$$$$
