IPN.pdb
     RDKit          3D

 24 24  0  0  1  0  0  0  0  0999 V2000
    7.4957  -11.5553   27.3321 C   0  0  0  0  0  0  0  0  0  0  0  0
    6.6615  -12.6462   26.7305 C   0  0  0  0  0  0  0  0  0  0  0  0
    7.4771  -13.6433   25.9471 C   0  0  2  0  0  0  0  0  0  0  0  0
    8.2298  -12.8968   24.8641 C   0  0  0  0  0  0  0  0  0  0  0  0
    6.6535  -14.7737   25.3675 C   0  0  2  0  0  0  0  0  0  0  0  0
    6.0432  -15.4581   26.4578 N   0  0  0  0  0  0  0  0  0  0  0  0
    7.3652  -15.5999   24.3974 C   0  0  0  0  0  0  0  0  0  0  0  0
    7.6556  -16.7817   24.7903 O   0  0  0  0  0  0  0  0  0  0  0  0
    7.7596  -15.2212   23.0796 N   0  0  0  0  0  0  0  0  0  0  0  0
    7.7489  -13.9679   22.3905 C   0  0  0  0  0  0  0  0  0  0  0  0
    7.2275  -14.3261   21.0088 C   0  0  0  0  0  0  0  0  0  0  0  0
    7.8999  -15.6627   20.7640 C   0  0  0  0  0  0  0  0  0  0  0  0
    8.2997  -16.1814   22.1213 C   0  0  1  0  0  0  0  0  0  0  0  0
    9.7778  -16.2669   22.1612 C   0  0  0  0  0  0  0  0  0  0  0  0
   10.3990  -15.4963   21.3964 O   0  0  0  0  0  0  0  0  0  0  0  0
   13.3881  -15.2535   21.4471 N   0  0  0  0  0  0  0  0  0  0  0  0
   13.4715  -15.4513   22.8575 C   0  0  0  0  0  0  0  0  0  0  0  0
   14.6198  -15.5758   23.3533 O   0  0  0  0  0  0  0  0  0  0  0  0
   12.2173  -15.4985   23.6502 C   0  0  0  0  0  0  0  0  0  0  0  0
   11.6778  -16.8840   23.7515 C   0  0  2  0  0  0  0  0  0  0  0  0
   10.4920  -17.1445   22.9905 N   0  0  0  0  0  0  0  0  0  0  0  0
   11.5892  -17.3343   25.1589 C   0  0  0  0  0  0  0  0  0  0  0  0
   12.2871  -18.3480   25.4889 O   0  0  0  0  0  0  0  0  0  0  0  0
   10.8121  -16.7399   26.1134 O   0  0  0  0  0  0  0  0  0  0  0  0
  1  2  1  0
  2  3  1  0
  3  4  1  6
  3  5  1  0
  5  7  1  0
  5  6  1  1
  7  8  2  0
  7  9  1  0
  9 13  1  0
  9 10  1  0
 10 11  1  0
 12 11  1  0
 13 12  1  0
 13 14  1  6
 15 14  2  0
 16 17  1  0
 17 19  1  0
 17 18  2  0
 20 19  1  1
 20 22  1  0
 20 21  1  0
 21 14  1  0
 22 24  1  0
 23 22  2  0
M  END
$$$$
