IPN.pdb
     RDKit          3D

 24 24  0  0  1  0  0  0  0  0999 V2000
    6.7497  -11.7313   27.4617 C   0  0  0  0  0  0  0  0  0  0  0  0
    6.1200  -12.9063   26.7757 C   0  0  0  0  0  0  0  0  0  0  0  0
    7.1170  -13.7468   26.0191 C   0  0  2  0  0  0  0  0  0  0  0  0
    7.8224  -12.8592   25.0135 C   0  0  0  0  0  0  0  0  0  0  0  0
    6.5012  -14.9572   25.3501 C   0  0  2  0  0  0  0  0  0  0  0  0
    5.8865  -15.7402   26.3694 N   0  0  0  0  0  0  0  0  0  0  0  0
    7.3982  -15.6624   24.4401 C   0  0  0  0  0  0  0  0  0  0  0  0
    7.7891  -16.8137   24.8364 O   0  0  0  0  0  0  0  0  0  0  0  0
    7.8705  -15.1982   23.1764 N   0  0  0  0  0  0  0  0  0  0  0  0
    7.7487  -13.9432   22.5012 C   0  0  0  0  0  0  0  0  0  0  0  0
    7.4358  -14.3393   21.0678 C   0  0  0  0  0  0  0  0  0  0  0  0
    8.3199  -15.5576   20.8861 C   0  0  0  0  0  0  0  0  0  0  0  0
    8.6449  -16.0458   22.2743 C   0  0  1  0  0  0  0  0  0  0  0  0
   10.1068  -15.9164   22.4741 C   0  0  0  0  0  0  0  0  0  0  0  0
   10.5143  -14.8088   22.8888 O   0  0  0  0  0  0  0  0  0  0  0  0
   15.2901  -16.7861   22.1096 N   0  0  0  0  0  0  0  0  0  0  0  0
   14.5684  -15.8669   22.9277 C   0  0  0  0  0  0  0  0  0  0  0  0
   15.2192  -15.2447   23.8047 O   0  0  0  0  0  0  0  0  0  0  0  0
   13.1108  -15.6979   22.7021 C   0  0  0  0  0  0  0  0  0  0  0  0
   12.4113  -17.0094   22.5947 C   0  0  2  0  0  0  0  0  0  0  0  0
   11.0277  -16.9456   22.2276 N   0  0  0  0  0  0  0  0  0  0  0  0
   12.6723  -17.8661   23.7735 C   0  0  0  0  0  0  0  0  0  0  0  0
   13.3474  -18.9293   23.5801 O   0  0  0  0  0  0  0  0  0  0  0  0
   12.2365  -17.5926   25.0398 O   0  0  0  0  0  0  0  0  0  0  0  0
  1  2  1  0
  2  3  1  0
  3  4  1  6
  3  5  1  0
  5  7  1  0
  5  6  1  1
  7  8  2  0
  7  9  1  0
  9 13  1  0
  9 10  1  0
 10 11  1  0
 12 11  1  0
 13 12  1  0
 13 14  1  1
 15 14  2  0
 16 17  1  0
 17 19  1  0
 17 18  2  0
 20 19  1  1
 20 22  1  0
 20 21  1  0
 21 14  1  0
 22 24  1  0
 23 22  2  0
M  END
$$$$
