IPN.pdb
     RDKit          3D

 24 24  0  0  1  0  0  0  0  0999 V2000
    8.6427  -12.7325   27.2278 C   0  0  0  0  0  0  0  0  0  0  0  0
    7.9591  -14.0308   26.9196 C   0  0  0  0  0  0  0  0  0  0  0  0
    6.8889  -13.8942   25.8664 C   0  0  2  0  0  0  0  0  0  0  0  0
    5.8020  -12.9868   26.4068 C   0  0  0  0  0  0  0  0  0  0  0  0
    6.3221  -15.2206   25.4066 C   0  0  2  0  0  0  0  0  0  0  0  0
    6.0845  -16.0080   26.5699 N   0  0  0  0  0  0  0  0  0  0  0  0
    7.0784  -15.8577   24.3332 C   0  0  0  0  0  0  0  0  0  0  0  0
    7.2189  -17.1245   24.4371 O   0  0  0  0  0  0  0  0  0  0  0  0
    7.6636  -15.2139   23.2025 N   0  0  0  0  0  0  0  0  0  0  0  0
    7.7312  -13.8435   22.7987 C   0  0  0  0  0  0  0  0  0  0  0  0
    7.4389  -13.8969   21.3084 C   0  0  0  0  0  0  0  0  0  0  0  0
    8.1716  -15.1589   20.8970 C   0  0  0  0  0  0  0  0  0  0  0  0
    8.3677  -15.9561   22.1607 C   0  0  1  0  0  0  0  0  0  0  0  0
    9.8233  -16.0636   22.4125 C   0  0  0  0  0  0  0  0  0  0  0  0
   10.3850  -15.0417   22.8651 O   0  0  0  0  0  0  0  0  0  0  0  0
   10.5456  -20.3494   23.7489 N   0  0  0  0  0  0  0  0  0  0  0  0
   11.4788  -19.2967   23.9855 C   0  0  0  0  0  0  0  0  0  0  0  0
   11.5259  -18.8210   25.1480 O   0  0  0  0  0  0  0  0  0  0  0  0
   12.3300  -18.8276   22.8634 C   0  0  0  0  0  0  0  0  0  0  0  0
   11.9696  -17.4467   22.4343 C   0  0  2  0  0  0  0  0  0  0  0  0
   10.5785  -17.2216   22.1745 N   0  0  0  0  0  0  0  0  0  0  0  0
   12.8598  -16.9595   21.3565 C   0  0  0  0  0  0  0  0  0  0  0  0
   14.1099  -16.9374   21.6020 O   0  0  0  0  0  0  0  0  0  0  0  0
   12.4290  -16.5340   20.1311 O   0  0  0  0  0  0  0  0  0  0  0  0
  1  2  1  0
  2  3  1  0
  3  4  1  1
  3  5  1  0
  5  7  1  0
  5  6  1  1
  7  8  2  0
  7  9  1  0
  9 13  1  0
  9 10  1  0
 10 11  1  0
 12 11  1  0
 13 12  1  0
 13 14  1  1
 15 14  2  0
 16 17  1  0
 17 19  1  0
 17 18  2  0
 20 19  1  6
 20 22  1  0
 20 21  1  0
 21 14  1  0
 22 24  1  0
 23 22  2  0
M  END
$$$$
