IPN.pdb
     RDKit          3D

 24 24  0  0  1  0  0  0  0  0999 V2000
    6.7397  -12.0028   27.6632 C   0  0  0  0  0  0  0  0  0  0  0  0
    6.0774  -13.1649   26.9860 C   0  0  0  0  0  0  0  0  0  0  0  0
    7.0287  -13.9671   26.1347 C   0  0  2  0  0  0  0  0  0  0  0  0
    7.6955  -13.0271   25.1506 C   0  0  0  0  0  0  0  0  0  0  0  0
    6.3690  -15.1308   25.4256 C   0  0  2  0  0  0  0  0  0  0  0  0
    5.7816  -15.9599   26.4242 N   0  0  0  0  0  0  0  0  0  0  0  0
    7.2195  -15.7971   24.4445 C   0  0  0  0  0  0  0  0  0  0  0  0
    7.6011  -16.9765   24.7590 O   0  0  0  0  0  0  0  0  0  0  0  0
    7.6566  -15.2680   23.1937 N   0  0  0  0  0  0  0  0  0  0  0  0
    7.5403  -13.9723   22.5993 C   0  0  0  0  0  0  0  0  0  0  0  0
    7.1662  -14.2745   21.1577 C   0  0  0  0  0  0  0  0  0  0  0  0
    8.0139  -15.4984   20.8709 C   0  0  0  0  0  0  0  0  0  0  0  0
    8.3773  -16.0762   22.2144 C   0  0  1  0  0  0  0  0  0  0  0  0
    9.8482  -15.9908   22.3663 C   0  0  0  0  0  0  0  0  0  0  0  0
   10.3041  -14.8878   22.7409 O   0  0  0  0  0  0  0  0  0  0  0  0
   14.4691  -17.4003   21.4854 N   0  0  0  0  0  0  0  0  0  0  0  0
   14.1667  -16.1970   22.1894 C   0  0  0  0  0  0  0  0  0  0  0  0
   15.0324  -15.2860   22.1685 O   0  0  0  0  0  0  0  0  0  0  0  0
   12.8664  -16.0880   22.8974 C   0  0  0  0  0  0  0  0  0  0  0  0
   12.0190  -17.2960   22.6884 C   0  0  2  0  0  0  0  0  0  0  0  0
   10.7270  -17.0555   22.1174 N   0  0  0  0  0  0  0  0  0  0  0  0
   11.9831  -18.1535   23.8945 C   0  0  0  0  0  0  0  0  0  0  0  0
   12.3910  -19.3537   23.7656 O   0  0  0  0  0  0  0  0  0  0  0  0
   11.5416  -17.7440   25.1216 O   0  0  0  0  0  0  0  0  0  0  0  0
  1  2  1  0
  2  3  1  0
  3  4  1  6
  3  5  1  0
  5  7  1  0
  5  6  1  1
  7  8  2  0
  7  9  1  0
  9 13  1  0
  9 10  1  0
 10 11  1  0
 12 11  1  0
 13 12  1  0
 13 14  1  1
 15 14  2  0
 16 17  1  0
 17 19  1  0
 17 18  2  0
 20 19  1  1
 20 22  1  0
 20 21  1  0
 21 14  1  0
 22 24  1  0
 23 22  2  0
M  END
$$$$
