IPN.pdb
     RDKit          3D

 24 24  0  0  1  0  0  0  0  0999 V2000
    6.9478  -17.3726   19.5678 C   0  0  0  0  0  0  0  0  0  0  0  0
    7.3582  -15.9913   19.9819 C   0  0  0  0  0  0  0  0  0  0  0  0
    7.6940  -15.8946   21.4485 C   0  0  2  0  0  0  0  0  0  0  0  0
    6.4542  -16.2477   22.2453 C   0  0  0  0  0  0  0  0  0  0  0  0
    8.2437  -14.5434   21.8536 C   0  0  2  0  0  0  0  0  0  0  0  0
    9.1922  -14.1557   20.8637 N   0  0  0  0  0  0  0  0  0  0  0  0
    8.6847  -14.4658   23.2427 C   0  0  0  0  0  0  0  0  0  0  0  0
    9.9186  -14.7355   23.4434 O   0  0  0  0  0  0  0  0  0  0  0  0
    7.8857  -14.1249   24.3745 N   0  0  0  0  0  0  0  0  0  0  0  0
    6.5436  -13.6471   24.5009 C   0  0  0  0  0  0  0  0  0  0  0  0
    6.6512  -12.5592   25.5565 C   0  0  0  0  0  0  0  0  0  0  0  0
    7.6545  -13.1639   26.5191 C   0  0  0  0  0  0  0  0  0  0  0  0
    8.3871  -14.2270   25.7420 C   0  0  1  0  0  0  0  0  0  0  0  0
    8.0921  -15.5365   26.3682 C   0  0  0  0  0  0  0  0  0  0  0  0
    7.1490  -16.1899   25.8700 O   0  0  0  0  0  0  0  0  0  0  0  0
   11.9493  -18.6371   24.8965 N   0  0  0  0  0  0  0  0  0  0  0  0
   10.7469  -18.0629   25.4063 C   0  0  0  0  0  0  0  0  0  0  0  0
    9.6610  -18.5384   24.9886 O   0  0  0  0  0  0  0  0  0  0  0  0
   10.8423  -16.9524   26.3869 C   0  0  0  0  0  0  0  0  0  0  0  0
    9.8156  -17.0716   27.4604 C   0  0  2  0  0  0  0  0  0  0  0  0
    8.7986  -16.0621   27.4602 N   0  0  0  0  0  0  0  0  0  0  0  0
   10.4351  -17.2880   28.7874 C   0  0  0  0  0  0  0  0  0  0  0  0
   10.9298  -16.2685   29.3700 O   0  0  0  0  0  0  0  0  0  0  0  0
   10.5115  -18.4988   29.4168 O   0  0  0  0  0  0  0  0  0  0  0  0
  1  2  1  0
  2  3  1  0
  3  4  1  1
  3  5  1  0
  5  7  1  0
  5  6  1  6
  7  8  2  0
  7  9  1  0
  9 13  1  0
  9 10  1  0
 10 11  1  0
 12 11  1  0
 13 12  1  0
 13 14  1  1
 15 14  2  0
 16 17  1  0
 17 19  1  0
 17 18  2  0
 20 19  1  6
 20 22  1  0
 20 21  1  0
 21 14  1  0
 22 24  1  0
 23 22  2  0
M  END
$$$$
