IPN.pdb
     RDKit          3D

 24 24  0  0  1  0  0  0  0  0999 V2000
    6.3453  -11.6823   27.3872 C   0  0  0  0  0  0  0  0  0  0  0  0
    5.7433  -12.8218   26.6210 C   0  0  0  0  0  0  0  0  0  0  0  0
    6.7768  -13.6718   25.9263 C   0  0  2  0  0  0  0  0  0  0  0  0
    7.5474  -12.7919   24.9625 C   0  0  0  0  0  0  0  0  0  0  0  0
    6.1922  -14.8789   25.2241 C   0  0  2  0  0  0  0  0  0  0  0  0
    5.4830  -15.6368   26.2001 N   0  0  0  0  0  0  0  0  0  0  0  0
    7.1445  -15.6127   24.3967 C   0  0  0  0  0  0  0  0  0  0  0  0
    7.4095  -16.8015   24.7867 O   0  0  0  0  0  0  0  0  0  0  0  0
    7.7945  -15.1388   23.2184 N   0  0  0  0  0  0  0  0  0  0  0  0
    7.8552  -13.8505   22.6003 C   0  0  0  0  0  0  0  0  0  0  0  0
    7.6755  -14.1560   21.1225 C   0  0  0  0  0  0  0  0  0  0  0  0
    8.4700  -15.4389   20.9756 C   0  0  0  0  0  0  0  0  0  0  0  0
    8.5932  -16.0126   22.3637 C   0  0  1  0  0  0  0  0  0  0  0  0
   10.0285  -16.0218   22.7291 C   0  0  0  0  0  0  0  0  0  0  0  0
   10.5276  -14.9194   23.0457 O   0  0  0  0  0  0  0  0  0  0  0  0
   11.8985  -18.2042   26.3783 N   0  0  0  0  0  0  0  0  0  0  0  0
   11.5305  -18.7909   25.1311 C   0  0  0  0  0  0  0  0  0  0  0  0
   10.4521  -19.4355   25.0952 O   0  0  0  0  0  0  0  0  0  0  0  0
   12.4274  -18.6111   23.9619 C   0  0  0  0  0  0  0  0  0  0  0  0
   12.1587  -17.3300   23.2495 C   0  0  2  0  0  0  0  0  0  0  0  0
   10.8301  -17.1731   22.7362 N   0  0  0  0  0  0  0  0  0  0  0  0
   13.2160  -17.0230   22.2599 C   0  0  0  0  0  0  0  0  0  0  0  0
   12.9855  -17.3394   21.0473 O   0  0  0  0  0  0  0  0  0  0  0  0
   14.4105  -16.4318   22.5629 O   0  0  0  0  0  0  0  0  0  0  0  0
  1  2  1  0
  2  3  1  0
  3  4  1  6
  3  5  1  0
  5  7  1  0
  5  6  1  1
  7  8  2  0
  7  9  1  0
  9 13  1  0
  9 10  1  0
 10 11  1  0
 12 11  1  0
 13 12  1  0
 13 14  1  1
 15 14  2  0
 16 17  1  0
 17 19  1  0
 17 18  2  0
 20 19  1  6
 20 22  1  0
 20 21  1  0
 21 14  1  0
 22 24  1  0
 23 22  2  0
M  END
$$$$
