IPN.pdb
     RDKit          3D

 24 24  0  0  1  0  0  0  0  0999 V2000
    6.6223  -11.5470   27.3136 C   0  0  0  0  0  0  0  0  0  0  0  0
    6.0259  -12.7605   26.6657 C   0  0  0  0  0  0  0  0  0  0  0  0
    7.0620  -13.6617   26.0434 C   0  0  2  0  0  0  0  0  0  0  0  0
    7.8485  -12.8546   25.0301 C   0  0  0  0  0  0  0  0  0  0  0  0
    6.4782  -14.9116   25.4198 C   0  0  2  0  0  0  0  0  0  0  0  0
    5.8639  -15.6611   26.4641 N   0  0  0  0  0  0  0  0  0  0  0  0
    7.4008  -15.6383   24.5534 C   0  0  0  0  0  0  0  0  0  0  0  0
    7.7293  -16.8063   24.9574 O   0  0  0  0  0  0  0  0  0  0  0  0
    7.9594  -15.1782   23.3238 N   0  0  0  0  0  0  0  0  0  0  0  0
    7.9347  -13.9080   22.6669 C   0  0  0  0  0  0  0  0  0  0  0  0
    7.6759  -14.2645   21.2125 C   0  0  0  0  0  0  0  0  0  0  0  0
    8.5065  -15.5228   21.0526 C   0  0  0  0  0  0  0  0  0  0  0  0
    8.7356  -16.0492   22.4459 C   0  0  1  0  0  0  0  0  0  0  0  0
   10.1901  -15.9972   22.7211 C   0  0  0  0  0  0  0  0  0  0  0  0
   10.6624  -14.8728   22.9989 O   0  0  0  0  0  0  0  0  0  0  0  0
   11.1796  -17.9162   25.4364 N   0  0  0  0  0  0  0  0  0  0  0  0
   12.1082  -18.8600   24.9052 C   0  0  0  0  0  0  0  0  0  0  0  0
   12.2684  -19.9305   25.5441 O   0  0  0  0  0  0  0  0  0  0  0  0
   12.8235  -18.5314   23.6466 C   0  0  0  0  0  0  0  0  0  0  0  0
   12.4051  -17.2094   23.1006 C   0  0  2  0  0  0  0  0  0  0  0  0
   11.0369  -17.1151   22.6856 N   0  0  0  0  0  0  0  0  0  0  0  0
   13.3656  -16.7056   22.0931 C   0  0  0  0  0  0  0  0  0  0  0  0
   14.5346  -16.4080   22.5036 O   0  0  0  0  0  0  0  0  0  0  0  0
   13.0788  -16.5385   20.7671 O   0  0  0  0  0  0  0  0  0  0  0  0
  1  2  1  0
  2  3  1  0
  3  4  1  6
  3  5  1  0
  5  7  1  0
  5  6  1  1
  7  8  2  0
  7  9  1  0
  9 13  1  0
  9 10  1  0
 10 11  1  0
 12 11  1  0
 13 12  1  0
 13 14  1  1
 15 14  2  0
 16 17  1  0
 17 19  1  0
 17 18  2  0
 20 19  1  6
 20 22  1  0
 20 21  1  0
 21 14  1  0
 22 24  1  0
 23 22  2  0
M  END
$$$$
