IPN.pdb
     RDKit          3D

 24 24  0  0  1  0  0  0  0  0999 V2000
    7.2145  -11.9543   27.4787 C   0  0  0  0  0  0  0  0  0  0  0  0
    6.3715  -12.9516   26.7421 C   0  0  0  0  0  0  0  0  0  0  0  0
    7.1906  -13.9808   26.0052 C   0  0  2  0  0  0  0  0  0  0  0  0
    8.1095  -13.2571   25.0415 C   0  0  0  0  0  0  0  0  0  0  0  0
    6.3529  -15.0212   25.2927 C   0  0  2  0  0  0  0  0  0  0  0  0
    5.6598  -15.7656   26.2903 N   0  0  0  0  0  0  0  0  0  0  0  0
    7.0795  -15.7950   24.2911 C   0  0  0  0  0  0  0  0  0  0  0  0
    7.2276  -17.0370   24.5575 O   0  0  0  0  0  0  0  0  0  0  0  0
    7.6290  -15.3068   23.0683 N   0  0  0  0  0  0  0  0  0  0  0  0
    7.8600  -13.9853   22.5725 C   0  0  0  0  0  0  0  0  0  0  0  0
    7.4020  -14.0630   21.1256 C   0  0  0  0  0  0  0  0  0  0  0  0
    7.8846  -15.4433   20.7247 C   0  0  0  0  0  0  0  0  0  0  0  0
    8.0938  -16.2001   22.0110 C   0  0  1  0  0  0  0  0  0  0  0  0
    9.5348  -16.5243   22.1218 C   0  0  0  0  0  0  0  0  0  0  0  0
   10.2053  -16.4387   21.0693 O   0  0  0  0  0  0  0  0  0  0  0  0
   12.7999  -17.2768   21.2924 N   0  0  0  0  0  0  0  0  0  0  0  0
   12.9640  -15.9671   21.8336 C   0  0  0  0  0  0  0  0  0  0  0  0
   13.7043  -15.1725   21.2009 O   0  0  0  0  0  0  0  0  0  0  0  0
   12.2624  -15.6195   23.0948 C   0  0  0  0  0  0  0  0  0  0  0  0
   11.5462  -16.7922   23.6717 C   0  0  2  0  0  0  0  0  0  0  0  0
   10.1636  -16.9111   23.3147 N   0  0  0  0  0  0  0  0  0  0  0  0
   11.7961  -16.9244   25.1248 C   0  0  0  0  0  0  0  0  0  0  0  0
   12.6510  -17.7959   25.4897 O   0  0  0  0  0  0  0  0  0  0  0  0
   11.1719  -16.1814   26.0874 O   0  0  0  0  0  0  0  0  0  0  0  0
  1  2  1  0
  2  3  1  0
  3  4  1  6
  3  5  1  0
  5  7  1  0
  5  6  1  1
  7  8  2  0
  7  9  1  0
  9 13  1  0
  9 10  1  0
 10 11  1  0
 12 11  1  0
 13 12  1  0
 13 14  1  1
 15 14  2  0
 16 17  1  0
 17 19  1  0
 17 18  2  0
 20 19  1  1
 20 22  1  0
 20 21  1  0
 21 14  1  0
 22 24  1  0
 23 22  2  0
M  END
$$$$
