IPN.pdb
     RDKit          3D

 24 24  0  0  1  0  0  0  0  0999 V2000
    7.3409  -11.7083   27.5151 C   0  0  0  0  0  0  0  0  0  0  0  0
    6.5861  -12.8662   26.9341 C   0  0  0  0  0  0  0  0  0  0  0  0
    7.4274  -13.7101   26.0105 C   0  0  2  0  0  0  0  0  0  0  0  0
    7.9438  -12.8245   24.8943 C   0  0  0  0  0  0  0  0  0  0  0  0
    6.6963  -14.9176   25.4631 C   0  0  2  0  0  0  0  0  0  0  0  0
    6.2733  -15.6996   26.5764 N   0  0  0  0  0  0  0  0  0  0  0  0
    7.4115  -15.6248   24.4056 C   0  0  0  0  0  0  0  0  0  0  0  0
    7.6165  -16.8691   24.6180 O   0  0  0  0  0  0  0  0  0  0  0  0
    7.8936  -15.0705   23.1825 N   0  0  0  0  0  0  0  0  0  0  0  0
    7.8555  -13.7477   22.6401 C   0  0  0  0  0  0  0  0  0  0  0  0
    7.4857  -13.9711   21.1831 C   0  0  0  0  0  0  0  0  0  0  0  0
    8.2701  -15.2268   20.8566 C   0  0  0  0  0  0  0  0  0  0  0  0
    8.5833  -15.8769   22.1796 C   0  0  1  0  0  0  0  0  0  0  0  0
   10.0544  -15.8776   22.3520 C   0  0  0  0  0  0  0  0  0  0  0  0
   10.6572  -14.8466   21.9801 O   0  0  0  0  0  0  0  0  0  0  0  0
   14.1769  -15.0911   22.0259 N   0  0  0  0  0  0  0  0  0  0  0  0
   13.9568  -15.5310   23.3650 C   0  0  0  0  0  0  0  0  0  0  0  0
   14.9663  -15.8757   24.0298 O   0  0  0  0  0  0  0  0  0  0  0  0
   12.5693  -15.5574   23.8920 C   0  0  0  0  0  0  0  0  0  0  0  0
   11.9422  -16.9000   23.7343 C   0  0  2  0  0  0  0  0  0  0  0  0
   10.7812  -16.9472   22.8957 N   0  0  0  0  0  0  0  0  0  0  0  0
   11.7577  -17.5737   25.0395 C   0  0  0  0  0  0  0  0  0  0  0  0
   10.7049  -17.2862   25.6972 O   0  0  0  0  0  0  0  0  0  0  0  0
   12.6372  -18.4708   25.5777 O   0  0  0  0  0  0  0  0  0  0  0  0
  1  2  1  0
  2  3  1  0
  3  4  1  6
  3  5  1  0
  5  7  1  0
  5  6  1  1
  7  8  2  0
  7  9  1  0
  9 13  1  0
  9 10  1  0
 10 11  1  0
 12 11  1  0
 13 12  1  0
 13 14  1  1
 15 14  2  0
 16 17  1  0
 17 19  1  0
 17 18  2  0
 20 19  1  1
 20 22  1  0
 20 21  1  0
 21 14  1  0
 22 24  1  0
 23 22  2  0
M  END
$$$$
