FAE.pdb
     RDKit          3D

 26 26  0  0  1  0  0  0  0  0999 V2000
    5.9363  -18.1366   24.5263 N   0  0  0  0  0  0  0  0  0  0  0  0
    6.2133  -16.7305   24.5428 C   0  0  1  0  0  0  0  0  0  0  0  0
    6.7161  -16.3140   25.9202 C   0  0  0  0  0  0  0  0  0  0  0  0
    6.7872  -14.8644   26.1023 C   0  0  0  0  0  0  0  0  0  0  0  0
    8.0001  -14.2426   26.3061 C   0  0  0  0  0  0  0  0  0  0  0  0
    8.0788  -12.8741   26.4770 C   0  0  0  0  0  0  0  0  0  0  0  0
    6.9408  -12.0805   26.4498 C   0  0  0  0  0  0  0  0  0  0  0  0
    5.7334  -12.7075   26.2462 C   0  0  0  0  0  0  0  0  0  0  0  0
    5.6471  -14.0831   26.0731 C   0  0  0  0  0  0  0  0  0  0  0  0
    7.3236  -16.3738   23.6015 C   0  0  0  0  0  0  0  0  0  0  0  0
    8.3108  -17.1313   23.4526 O   0  0  0  0  0  0  0  0  0  0  0  0
    8.1919  -13.5017   21.2779 C   0  0  0  0  0  0  0  0  0  0  0  0
    8.3110  -14.8954   21.8635 C   0  0  2  0  0  0  0  0  0  0  0  0
    7.3109  -15.1743   22.8412 N   0  0  0  0  0  0  0  0  0  0  0  0
    9.6809  -15.0822   22.4288 C   0  0  0  0  0  0  0  0  0  0  0  0
   10.6995  -14.8670   21.7093 O   0  0  0  0  0  0  0  0  0  0  0  0
    9.8947  -15.5000   23.7631 N   0  0  0  0  0  0  0  0  0  0  0  0
   11.3006  -15.5872   24.2735 C   0  0  1  0  0  0  0  0  0  0  0  0
   11.1285  -15.8282   25.7433 C   0  0  0  0  0  0  0  0  0  0  0  0
   12.2958  -16.1666   26.5687 C   0  0  0  0  0  0  0  0  0  0  0  0
   12.1352  -16.3881   27.9948 C   0  0  0  0  0  0  0  0  0  0  0  0
   11.5089  -17.3826   28.4918 O   0  0  0  0  0  0  0  0  0  0  0  0
   11.9742  -16.6873   23.5860 C   0  0  0  0  0  0  0  0  0  0  0  0
   13.3670  -16.5916   23.3949 O   0  0  0  0  0  0  0  0  0  0  0  0
   12.6978  -15.4659   28.8860 O   0  0  0  0  0  0  0  0  0  0  0  0
   11.4384  -17.7103   23.1488 O   0  0  0  0  0  0  0  0  0  0  0  0
  2  1  1  1
  3  2  1  0
  3  4  1  0
  4  9  2  0
  5  4  1  0
  5  6  2  0
  6  7  1  0
  7  8  2  0
  9  8  1  0
 10  2  1  0
 10 11  2  0
 13 12  1  1
 13 14  1  0
 13 15  1  0
 14 10  1  0
 15 17  1  0
 16 15  2  0
 17 18  1  0
 18 19  1  1
 19 20  1  0
 20 21  1  0
 21 22  2  0
 21 25  1  0
 23 24  1  0
 23 18  1  0
 26 23  2  0
M  END
$$$$
