FAE.pdb
     RDKit          3D

 26 26  0  0  1  0  0  0  0  0999 V2000
    5.7851  -18.0023   25.0272 N   0  0  0  0  0  0  0  0  0  0  0  0
    6.2237  -16.6500   24.8449 C   0  0  1  0  0  0  0  0  0  0  0  0
    7.0726  -16.2123   26.0329 C   0  0  0  0  0  0  0  0  0  0  0  0
    7.1647  -14.7601   26.1814 C   0  0  0  0  0  0  0  0  0  0  0  0
    6.0282  -14.0003   26.3560 C   0  0  0  0  0  0  0  0  0  0  0  0
    6.1040  -12.6285   26.4994 C   0  0  0  0  0  0  0  0  0  0  0  0
    7.3252  -11.9701   26.4722 C   0  0  0  0  0  0  0  0  0  0  0  0
    8.4555  -12.7344   26.2974 C   0  0  0  0  0  0  0  0  0  0  0  0
    8.3866  -14.1143   26.1530 C   0  0  0  0  0  0  0  0  0  0  0  0
    7.1249  -16.5159   23.6551 C   0  0  0  0  0  0  0  0  0  0  0  0
    7.8811  -17.4538   23.3102 O   0  0  0  0  0  0  0  0  0  0  0  0
    7.7496  -13.9628   20.9209 C   0  0  0  0  0  0  0  0  0  0  0  0
    8.0115  -15.2199   21.7274 C   0  0  2  0  0  0  0  0  0  0  0  0
    7.1651  -15.3333   22.8696 N   0  0  0  0  0  0  0  0  0  0  0  0
    9.4519  -15.2681   22.1201 C   0  0  0  0  0  0  0  0  0  0  0  0
   10.3540  -15.1915   21.2358 O   0  0  0  0  0  0  0  0  0  0  0  0
    9.8614  -15.4001   23.4675 N   0  0  0  0  0  0  0  0  0  0  0  0
   11.3273  -15.4543   23.7722 C   0  0  1  0  0  0  0  0  0  0  0  0
   11.3732  -15.5790   25.2657 C   0  0  0  0  0  0  0  0  0  0  0  0
   11.5673  -16.8985   25.8819 C   0  0  0  0  0  0  0  0  0  0  0  0
   11.6592  -17.0174   27.3262 C   0  0  0  0  0  0  0  0  0  0  0  0
   11.6075  -16.0230   28.1242 O   0  0  0  0  0  0  0  0  0  0  0  0
   11.9003  -16.6081   23.0815 C   0  0  0  0  0  0  0  0  0  0  0  0
   11.0368  -17.6677   22.7392 O   0  0  0  0  0  0  0  0  0  0  0  0
   11.8107  -18.2913   27.8877 O   0  0  0  0  0  0  0  0  0  0  0  0
   13.0840  -16.7513   22.7607 O   0  0  0  0  0  0  0  0  0  0  0  0
  2  1  1  1
  3  2  1  0
  3  4  1  0
  4  9  2  0
  5  4  1  0
  5  6  2  0
  6  7  1  0
  7  8  2  0
  9  8  1  0
 10  2  1  0
 10 11  2  0
 13 12  1  1
 13 14  1  0
 13 15  1  0
 14 10  1  0
 15 17  1  0
 16 15  2  0
 17 18  1  0
 18 19  1  1
 19 20  1  0
 20 21  1  0
 21 22  2  0
 21 25  1  0
 23 24  1  0
 23 18  1  0
 26 23  2  0
M  END
$$$$
