FAE.pdb
     RDKit          3D

 26 26  0  0  1  0  0  0  0  0999 V2000
    7.5905  -16.1426   25.5499 N   0  0  0  0  0  0  0  0  0  0  0  0
    7.0424  -16.3270   24.2385 C   0  0  1  0  0  0  0  0  0  0  0  0
    6.3118  -15.0644   23.7962 C   0  0  0  0  0  0  0  0  0  0  0  0
    6.5263  -13.9234   24.6860 C   0  0  0  0  0  0  0  0  0  0  0  0
    6.3331  -14.0487   26.0448 C   0  0  0  0  0  0  0  0  0  0  0  0
    6.5349  -12.9783   26.8942 C   0  0  0  0  0  0  0  0  0  0  0  0
    6.9380  -11.7423   26.4088 C   0  0  0  0  0  0  0  0  0  0  0  0
    7.1287  -11.6241   25.0516 C   0  0  0  0  0  0  0  0  0  0  0  0
    6.9281  -12.6966   24.1917 C   0  0  0  0  0  0  0  0  0  0  0  0
    8.1161  -16.5318   23.2134 C   0  0  0  0  0  0  0  0  0  0  0  0
    7.8336  -16.8945   22.0476 O   0  0  0  0  0  0  0  0  0  0  0  0
   11.5266  -15.9440   22.1971 C   0  0  0  0  0  0  0  0  0  0  0  0
   10.5227  -16.9415   22.7418 C   0  0  2  0  0  0  0  0  0  0  0  0
    9.4900  -16.3269   23.5097 N   0  0  0  0  0  0  0  0  0  0  0  0
   11.2379  -17.9820   23.5398 C   0  0  0  0  0  0  0  0  0  0  0  0
   12.1957  -18.6297   23.0253 O   0  0  0  0  0  0  0  0  0  0  0  0
   10.8828  -18.2832   24.8755 N   0  0  0  0  0  0  0  0  0  0  0  0
   11.6529  -19.3421   25.6037 C   0  0  1  0  0  0  0  0  0  0  0  0
   12.0901  -18.6572   26.8638 C   0  0  0  0  0  0  0  0  0  0  0  0
   11.0936  -18.2953   27.8808 C   0  0  0  0  0  0  0  0  0  0  0  0
   11.5238  -17.7377   29.1507 C   0  0  0  0  0  0  0  0  0  0  0  0
   12.6861  -17.9161   29.6461 O   0  0  0  0  0  0  0  0  0  0  0  0
   10.7633  -20.4764   25.8453 C   0  0  0  0  0  0  0  0  0  0  0  0
   11.3234  -21.6505   26.3871 O   0  0  0  0  0  0  0  0  0  0  0  0
   10.6213  -16.9551   29.8816 O   0  0  0  0  0  0  0  0  0  0  0  0
    9.5496  -20.5114   25.6203 O   0  0  0  0  0  0  0  0  0  0  0  0
  2  1  1  1
  3  2  1  0
  3  4  1  0
  4  9  2  0
  5  4  1  0
  5  6  2  0
  6  7  1  0
  7  8  2  0
  9  8  1  0
 10  2  1  0
 10 11  2  0
 13 12  1  1
 13 14  1  0
 13 15  1  0
 14 10  1  0
 15 17  1  0
 16 15  2  0
 17 18  1  0
 18 19  1  1
 19 20  1  0
 20 21  1  0
 21 22  2  0
 21 25  1  0
 23 24  1  0
 23 18  1  0
 26 23  2  0
M  END
$$$$
