FAE.pdb
     RDKit          3D

 26 26  0  0  1  0  0  0  0  0999 V2000
    6.8180  -16.9046   21.2897 N   0  0  0  0  0  0  0  0  0  0  0  0
    7.4612  -16.2527   22.3921 C   0  0  1  0  0  0  0  0  0  0  0  0
    6.9525  -14.8215   22.5209 C   0  0  0  0  0  0  0  0  0  0  0  0
    7.2184  -13.9988   21.3410 C   0  0  0  0  0  0  0  0  0  0  0  0
    8.3857  -13.2730   21.2417 C   0  0  0  0  0  0  0  0  0  0  0  0
    8.6477  -12.4946   20.1311 C   0  0  0  0  0  0  0  0  0  0  0  0
    7.7455  -12.4169   19.0795 C   0  0  0  0  0  0  0  0  0  0  0  0
    6.5824  -13.1436   19.1853 C   0  0  0  0  0  0  0  0  0  0  0  0
    6.3127  -13.9288   20.2991 C   0  0  0  0  0  0  0  0  0  0  0  0
    7.1179  -16.9041   23.6974 C   0  0  0  0  0  0  0  0  0  0  0  0
    5.9408  -16.9052   24.1274 O   0  0  0  0  0  0  0  0  0  0  0  0
    7.2491  -19.8416   24.3584 C   0  0  0  0  0  0  0  0  0  0  0  0
    7.8089  -18.7349   25.2311 C   0  0  2  0  0  0  0  0  0  0  0  0
    8.0984  -17.5446   24.5009 N   0  0  0  0  0  0  0  0  0  0  0  0
    9.0207  -19.2322   25.9490 C   0  0  0  0  0  0  0  0  0  0  0  0
    8.9427  -20.2504   26.6965 O   0  0  0  0  0  0  0  0  0  0  0  0
   10.2802  -18.5998   25.8284 N   0  0  0  0  0  0  0  0  0  0  0  0
   11.3746  -18.9891   26.7747 C   0  0  1  0  0  0  0  0  0  0  0  0
   12.5426  -18.1652   26.3221 C   0  0  0  0  0  0  0  0  0  0  0  0
   12.9513  -18.1923   24.9112 C   0  0  0  0  0  0  0  0  0  0  0  0
   13.2801  -16.9538   24.2280 C   0  0  0  0  0  0  0  0  0  0  0  0
   12.6422  -16.5119   23.2151 O   0  0  0  0  0  0  0  0  0  0  0  0
   10.9424  -18.6744   28.1351 C   0  0  0  0  0  0  0  0  0  0  0  0
   11.6917  -19.2041   29.2045 O   0  0  0  0  0  0  0  0  0  0  0  0
   14.3550  -16.1904   24.7001 O   0  0  0  0  0  0  0  0  0  0  0  0
    9.9715  -17.9789   28.4487 O   0  0  0  0  0  0  0  0  0  0  0  0
  2  1  1  6
  3  2  1  0
  3  4  1  0
  4  9  2  0
  5  4  1  0
  5  6  2  0
  6  7  1  0
  7  8  2  0
  9  8  1  0
 10  2  1  0
 10 11  2  0
 13 12  1  6
 13 14  1  0
 13 15  1  0
 14 10  1  0
 15 17  1  0
 16 15  2  0
 17 18  1  0
 18 19  1  6
 19 20  1  0
 20 21  1  0
 21 22  2  0
 21 25  1  0
 23 24  1  0
 23 18  1  0
 26 23  2  0
M  END
$$$$
