FAE.pdb
     RDKit          3D

 26 26  0  0  1  0  0  0  0  0999 V2000
    5.6634  -17.9284   25.1847 N   0  0  0  0  0  0  0  0  0  0  0  0
    6.0373  -16.5468   25.1102 C   0  0  1  0  0  0  0  0  0  0  0  0
    6.6548  -16.1016   26.4308 C   0  0  0  0  0  0  0  0  0  0  0  0
    6.8554  -14.6557   26.5237 C   0  0  0  0  0  0  0  0  0  0  0  0
    5.7823  -13.8097   26.7033 C   0  0  0  0  0  0  0  0  0  0  0  0
    5.9608  -12.4430   26.7945 C   0  0  0  0  0  0  0  0  0  0  0  0
    7.2246  -11.8764   26.7081 C   0  0  0  0  0  0  0  0  0  0  0  0
    8.2911  -12.7264   26.5285 C   0  0  0  0  0  0  0  0  0  0  0  0
    8.1189  -14.1018   26.4364 C   0  0  0  0  0  0  0  0  0  0  0  0
    7.1070  -16.3171   24.0861 C   0  0  0  0  0  0  0  0  0  0  0  0
    8.1090  -17.0670   24.0212 O   0  0  0  0  0  0  0  0  0  0  0  0
    7.8014  -13.8343   21.2988 C   0  0  0  0  0  0  0  0  0  0  0  0
    8.0214  -15.0826   22.1312 C   0  0  2  0  0  0  0  0  0  0  0  0
    7.0378  -15.2512   23.1500 N   0  0  0  0  0  0  0  0  0  0  0  0
    9.3971  -15.0571   22.7125 C   0  0  0  0  0  0  0  0  0  0  0  0
    9.7746  -14.0689   23.4071 O   0  0  0  0  0  0  0  0  0  0  0  0
   10.3180  -16.1124   22.5151 N   0  0  0  0  0  0  0  0  0  0  0  0
   11.6600  -16.0296   23.1762 C   0  0  1  0  0  0  0  0  0  0  0  0
   11.6287  -17.1431   24.1797 C   0  0  0  0  0  0  0  0  0  0  0  0
   12.7797  -17.3580   25.0670 C   0  0  0  0  0  0  0  0  0  0  0  0
   12.8029  -18.5034   25.9593 C   0  0  0  0  0  0  0  0  0  0  0  0
   13.3548  -19.6169   25.6696 O   0  0  0  0  0  0  0  0  0  0  0  0
   12.6899  -16.2062   22.1541 C   0  0  0  0  0  0  0  0  0  0  0  0
   13.9622  -15.6509   22.3967 O   0  0  0  0  0  0  0  0  0  0  0  0
   12.1904  -18.3911   27.2136 O   0  0  0  0  0  0  0  0  0  0  0  0
   12.5574  -16.8035   21.0815 O   0  0  0  0  0  0  0  0  0  0  0  0
  2  1  1  1
  3  2  1  0
  3  4  1  0
  4  9  2  0
  5  4  1  0
  5  6  2  0
  6  7  1  0
  7  8  2  0
  9  8  1  0
 10  2  1  0
 10 11  2  0
 13 12  1  1
 13 14  1  0
 13 15  1  0
 14 10  1  0
 15 17  1  0
 16 15  2  0
 17 18  1  0
 18 19  1  1
 19 20  1  0
 20 21  1  0
 21 22  2  0
 21 25  1  0
 23 24  1  0
 23 18  1  0
 26 23  2  0
M  END
$$$$
