FAE.pdb
     RDKit          3D

 26 26  0  0  1  0  0  0  0  0999 V2000
    6.4717  -16.5401   26.0319 N   0  0  0  0  0  0  0  0  0  0  0  0
    6.8702  -15.5421   25.0835 C   0  0  1  0  0  0  0  0  0  0  0  0
    7.7892  -14.5255   25.7511 C   0  0  0  0  0  0  0  0  0  0  0  0
    7.0846  -13.3535   26.2701 C   0  0  0  0  0  0  0  0  0  0  0  0
    7.6844  -12.5295   27.1978 C   0  0  0  0  0  0  0  0  0  0  0  0
    7.0288  -11.4190   27.6929 C   0  0  0  0  0  0  0  0  0  0  0  0
    5.7459  -11.0962   27.2738 C   0  0  0  0  0  0  0  0  0  0  0  0
    5.1531  -11.9230   26.3479 C   0  0  0  0  0  0  0  0  0  0  0  0
    5.8067  -13.0411   25.8455 C   0  0  0  0  0  0  0  0  0  0  0  0
    7.6855  -16.1291   23.9716 C   0  0  0  0  0  0  0  0  0  0  0  0
    8.3075  -17.2058   24.1273 O   0  0  0  0  0  0  0  0  0  0  0  0
    8.5694  -15.2181   20.3929 C   0  0  0  0  0  0  0  0  0  0  0  0
    8.6631  -15.9993   21.6892 C   0  0  2  0  0  0  0  0  0  0  0  0
    7.7913  -15.5012   22.7020 N   0  0  0  0  0  0  0  0  0  0  0  0
   10.0804  -16.0133   22.1605 C   0  0  0  0  0  0  0  0  0  0  0  0
   10.6886  -14.9247   22.3762 O   0  0  0  0  0  0  0  0  0  0  0  0
   10.7895  -17.2174   22.3799 N   0  0  0  0  0  0  0  0  0  0  0  0
   12.2019  -17.1411   22.8739 C   0  0  1  0  0  0  0  0  0  0  0  0
   12.2320  -18.1189   24.0100 C   0  0  0  0  0  0  0  0  0  0  0  0
   11.4853  -17.8293   25.2417 C   0  0  0  0  0  0  0  0  0  0  0  0
   11.4577  -18.8033   26.3184 C   0  0  0  0  0  0  0  0  0  0  0  0
   12.1138  -18.6772   27.4055 O   0  0  0  0  0  0  0  0  0  0  0  0
   13.0953  -17.5077   21.7766 C   0  0  0  0  0  0  0  0  0  0  0  0
   14.4355  -17.0779   21.8454 O   0  0  0  0  0  0  0  0  0  0  0  0
   10.6673  -19.9495   26.1681 O   0  0  0  0  0  0  0  0  0  0  0  0
   12.7908  -18.1680   20.7786 O   0  0  0  0  0  0  0  0  0  0  0  0
  2  1  1  1
  3  2  1  0
  3  4  1  0
  4  9  2  0
  5  4  1  0
  5  6  2  0
  6  7  1  0
  7  8  2  0
  9  8  1  0
 10  2  1  0
 10 11  2  0
 13 12  1  6
 13 14  1  0
 13 15  1  0
 14 10  1  0
 15 17  1  0
 16 15  2  0
 17 18  1  0
 18 19  1  1
 19 20  1  0
 20 21  1  0
 21 22  2  0
 21 25  1  0
 23 24  1  0
 23 18  1  0
 26 23  2  0
M  END
$$$$
