FAE.pdb
     RDKit          3D

 26 26  0  0  1  0  0  0  0  0999 V2000
    5.8066  -16.4637   25.3533 N   0  0  0  0  0  0  0  0  0  0  0  0
    6.9736  -16.0007   24.6620 C   0  0  1  0  0  0  0  0  0  0  0  0
    7.8644  -15.2104   25.6135 C   0  0  0  0  0  0  0  0  0  0  0  0
    7.3138  -13.9061   25.9813 C   0  0  0  0  0  0  0  0  0  0  0  0
    7.8951  -12.7450   25.5197 C   0  0  0  0  0  0  0  0  0  0  0  0
    7.3820  -11.5082   25.8592 C   0  0  0  0  0  0  0  0  0  0  0  0
    6.2657  -11.3934   26.6756 C   0  0  0  0  0  0  0  0  0  0  0  0
    5.6907  -12.5562   27.1330 C   0  0  0  0  0  0  0  0  0  0  0  0
    6.2012  -13.8032   26.7952 C   0  0  0  0  0  0  0  0  0  0  0  0
    7.8259  -17.1395   24.1902 C   0  0  0  0  0  0  0  0  0  0  0  0
    7.8554  -18.2250   24.8158 O   0  0  0  0  0  0  0  0  0  0  0  0
    9.6709  -18.0297   21.0324 C   0  0  0  0  0  0  0  0  0  0  0  0
    9.3322  -18.1730   22.5036 C   0  0  2  0  0  0  0  0  0  0  0  0
    8.6320  -17.0451   23.0246 N   0  0  0  0  0  0  0  0  0  0  0  0
   10.5821  -18.4337   23.2789 C   0  0  0  0  0  0  0  0  0  0  0  0
   11.2326  -19.5032   23.0937 O   0  0  0  0  0  0  0  0  0  0  0  0
   11.0811  -17.5173   24.2338 N   0  0  0  0  0  0  0  0  0  0  0  0
   12.2779  -17.9058   25.0472 C   0  0  1  0  0  0  0  0  0  0  0  0
   13.3360  -16.9418   24.6013 C   0  0  0  0  0  0  0  0  0  0  0  0
   13.7585  -16.9218   23.1943 C   0  0  0  0  0  0  0  0  0  0  0  0
   14.8484  -16.0576   22.7771 C   0  0  0  0  0  0  0  0  0  0  0  0
   15.4478  -15.2454   23.5576 O   0  0  0  0  0  0  0  0  0  0  0  0
   11.9378  -17.7713   26.4624 C   0  0  0  0  0  0  0  0  0  0  0  0
   12.8687  -18.2378   27.4119 O   0  0  0  0  0  0  0  0  0  0  0  0
   15.2770  -16.1114   21.4450 O   0  0  0  0  0  0  0  0  0  0  0  0
   10.9005  -17.2812   26.9192 O   0  0  0  0  0  0  0  0  0  0  0  0
  2  1  1  1
  3  2  1  0
  3  4  1  0
  4  9  2  0
  5  4  1  0
  5  6  2  0
  6  7  1  0
  7  8  2  0
  9  8  1  0
 10  2  1  0
 10 11  2  0
 13 12  1  6
 13 14  1  0
 13 15  1  0
 14 10  1  0
 15 17  1  0
 16 15  2  0
 17 18  1  0
 18 19  1  6
 19 20  1  0
 20 21  1  0
 21 22  2  0
 21 25  1  0
 23 24  1  0
 23 18  1  0
 26 23  2  0
M  END
$$$$
