FAE.pdb
     RDKit          3D

 26 26  0  0  1  0  0  0  0  0999 V2000
    5.8672  -17.3228   25.6347 N   0  0  0  0  0  0  0  0  0  0  0  0
    6.4358  -16.1234   25.0942 C   0  0  1  0  0  0  0  0  0  0  0  0
    7.5690  -15.6342   25.9887 C   0  0  0  0  0  0  0  0  0  0  0  0
    7.4790  -14.2125   26.3206 C   0  0  0  0  0  0  0  0  0  0  0  0
    8.6111  -13.4271   26.3505 C   0  0  0  0  0  0  0  0  0  0  0  0
    8.5370  -12.0830   26.6606 C   0  0  0  0  0  0  0  0  0  0  0  0
    7.3221  -11.4793   26.9526 C   0  0  0  0  0  0  0  0  0  0  0  0
    6.1963  -12.2690   26.9213 C   0  0  0  0  0  0  0  0  0  0  0  0
    6.2634  -13.6212   26.6097 C   0  0  0  0  0  0  0  0  0  0  0  0
    7.0732  -16.3653   23.7597 C   0  0  0  0  0  0  0  0  0  0  0  0
    7.4621  -17.5099   23.4290 O   0  0  0  0  0  0  0  0  0  0  0  0
    7.8682  -14.3281   20.6555 C   0  0  0  0  0  0  0  0  0  0  0  0
    7.8095  -15.5715   21.5215 C   0  0  2  0  0  0  0  0  0  0  0  0
    7.2650  -15.3216   22.8157 N   0  0  0  0  0  0  0  0  0  0  0  0
    9.1727  -16.1740   21.6201 C   0  0  0  0  0  0  0  0  0  0  0  0
    9.6685  -16.7881   20.6308 O   0  0  0  0  0  0  0  0  0  0  0  0
    9.9511  -16.0878   22.7979 N   0  0  0  0  0  0  0  0  0  0  0  0
   11.1877  -16.9266   22.9064 C   0  0  1  0  0  0  0  0  0  0  0  0
   12.2981  -15.9191   22.9173 C   0  0  0  0  0  0  0  0  0  0  0  0
   13.6620  -16.3404   23.2648 C   0  0  0  0  0  0  0  0  0  0  0  0
   14.8023  -15.6306   22.7130 C   0  0  0  0  0  0  0  0  0  0  0  0
   14.7056  -14.5648   22.0181 O   0  0  0  0  0  0  0  0  0  0  0  0
   11.1090  -17.7082   24.1391 C   0  0  0  0  0  0  0  0  0  0  0  0
   10.4221  -17.1463   25.2337 O   0  0  0  0  0  0  0  0  0  0  0  0
   16.0873  -16.1331   22.9527 O   0  0  0  0  0  0  0  0  0  0  0  0
   11.5902  -18.8305   24.3224 O   0  0  0  0  0  0  0  0  0  0  0  0
  2  1  1  1
  3  2  1  0
  3  4  1  0
  4  9  2  0
  5  4  1  0
  5  6  2  0
  6  7  1  0
  7  8  2  0
  9  8  1  0
 10  2  1  0
 10 11  2  0
 13 12  1  6
 13 14  1  0
 13 15  1  0
 14 10  1  0
 15 17  1  0
 16 15  2  0
 17 18  1  0
 18 19  1  1
 19 20  1  0
 20 21  1  0
 21 22  2  0
 21 25  1  0
 23 24  1  0
 23 18  1  0
 26 23  2  0
M  END
$$$$
