FAE.pdb
     RDKit          3D

 26 26  0  0  1  0  0  0  0  0999 V2000
    6.5222  -16.4199   25.9075 N   0  0  0  0  0  0  0  0  0  0  0  0
    6.8796  -15.5132   24.8566 C   0  0  1  0  0  0  0  0  0  0  0  0
    7.9324  -14.5288   25.3524 C   0  0  0  0  0  0  0  0  0  0  0  0
    7.3738  -13.4070   26.1068 C   0  0  0  0  0  0  0  0  0  0  0  0
    7.6150  -13.2821   27.4580 C   0  0  0  0  0  0  0  0  0  0  0  0
    7.0942  -12.2255   28.1794 C   0  0  0  0  0  0  0  0  0  0  0  0
    6.3113  -11.2559   27.5691 C   0  0  0  0  0  0  0  0  0  0  0  0
    6.0743  -11.3867   26.2204 C   0  0  0  0  0  0  0  0  0  0  0  0
    6.5953  -12.4464   25.4887 C   0  0  0  0  0  0  0  0  0  0  0  0
    7.5264  -16.2250   23.7073 C   0  0  0  0  0  0  0  0  0  0  0  0
    7.8398  -17.4354   23.7928 O   0  0  0  0  0  0  0  0  0  0  0  0
    8.2697  -15.4495   20.0728 C   0  0  0  0  0  0  0  0  0  0  0  0
    8.2726  -16.2877   21.3365 C   0  0  2  0  0  0  0  0  0  0  0  0
    7.8118  -15.5703   22.4797 N   0  0  0  0  0  0  0  0  0  0  0  0
    9.6420  -16.8388   21.5649 C   0  0  0  0  0  0  0  0  0  0  0  0
   10.1887  -17.5658   20.6851 O   0  0  0  0  0  0  0  0  0  0  0  0
   10.3707  -16.5791   22.7491 N   0  0  0  0  0  0  0  0  0  0  0  0
   11.7124  -17.2224   22.9242 C   0  0  1  0  0  0  0  0  0  0  0  0
   12.6750  -16.1496   22.5111 C   0  0  0  0  0  0  0  0  0  0  0  0
   14.1119  -16.3218   22.7645 C   0  0  0  0  0  0  0  0  0  0  0  0
   15.0552  -15.3224   22.2955 C   0  0  0  0  0  0  0  0  0  0  0  0
   15.8834  -14.7175   23.0547 O   0  0  0  0  0  0  0  0  0  0  0  0
   11.8568  -17.6156   24.3246 C   0  0  0  0  0  0  0  0  0  0  0  0
   10.8735  -17.1823   25.2363 O   0  0  0  0  0  0  0  0  0  0  0  0
   15.0685  -14.9973   20.9334 O   0  0  0  0  0  0  0  0  0  0  0  0
   12.7676  -18.3014   24.7987 O   0  0  0  0  0  0  0  0  0  0  0  0
  2  1  1  1
  3  2  1  0
  3  4  1  0
  4  9  2  0
  5  4  1  0
  5  6  2  0
  6  7  1  0
  7  8  2  0
  9  8  1  0
 10  2  1  0
 10 11  2  0
 13 12  1  6
 13 14  1  0
 13 15  1  0
 14 10  1  0
 15 17  1  0
 16 15  2  0
 17 18  1  0
 18 19  1  1
 19 20  1  0
 20 21  1  0
 21 22  2  0
 21 25  1  0
 23 24  1  0
 23 18  1  0
 26 23  2  0
M  END
$$$$
