DIR.pdb
     RDKit          3D

 28 27  0  0  1  0  0  0  0  0999 V2000
    8.1059  -15.0134   20.4641 N   0  0  0  0  0  0  0  0  0  0  0  0
    7.2913  -15.3858   21.5932 C   0  0  1  0  0  0  0  0  0  0  0  0
    7.0547  -16.8883   21.6336 C   0  0  0  0  0  0  0  0  0  0  0  0
    6.3333  -17.2884   20.4213 C   0  0  0  0  0  0  0  0  0  0  0  0
    6.5176  -16.6888   19.3538 O   0  0  0  0  0  0  0  0  0  0  0  0
    8.0467  -15.0544   22.8425 C   0  0  0  0  0  0  0  0  0  0  0  0
    9.3112  -15.0987   22.8420 O   0  0  0  0  0  0  0  0  0  0  0  0
    5.4384  -18.3574   20.5027 O   0  0  0  0  0  0  0  0  0  0  0  0
    5.5894  -11.6035   26.2541 C   0  0  0  0  0  0  0  0  0  0  0  0
    6.6757  -12.2857   25.4678 C   0  0  0  0  0  0  0  0  0  0  0  0
    7.1670  -13.5334   26.1047 C   0  0  2  0  0  0  0  0  0  0  0  0
    7.8670  -13.1845   27.4100 C   0  0  0  0  0  0  0  0  0  0  0  0
    8.1084  -14.3491   25.2173 C   0  0  2  0  0  0  0  0  0  0  0  0
    7.3537  -14.6965   24.0082 N   0  0  0  0  0  0  0  0  0  0  0  0
    8.5314  -15.6043   25.8976 C   0  0  0  0  0  0  0  0  0  0  0  0
    7.6543  -16.5431   25.9799 O   0  0  0  0  0  0  0  0  0  0  0  0
   10.6762  -18.1852   20.9591 N   0  0  0  0  0  0  0  0  0  0  0  0
   10.1370  -19.4081   21.4397 C   0  0  0  0  0  0  0  0  0  0  0  0
    9.2777  -20.0303   20.7057 N   0  0  0  0  0  0  0  0  0  0  0  0
   10.4861  -19.9932   22.6852 N   0  0  0  0  0  0  0  0  0  0  0  0
   11.2566  -19.2535   23.6892 C   0  0  0  0  0  0  0  0  0  0  0  0
   10.3297  -18.6954   24.7565 C   0  0  0  0  0  0  0  0  0  0  0  0
   11.0692  -17.8381   25.7370 C   0  0  0  0  0  0  0  0  0  0  0  0
   10.1576  -17.2658   26.8019 C   0  0  2  0  0  0  0  0  0  0  0  0
    9.7742  -15.8863   26.4561 N   0  0  0  0  0  0  0  0  0  0  0  0
   10.9248  -17.2750   28.0698 C   0  0  0  0  0  0  0  0  0  0  0  0
   11.2674  -18.3816   28.5473 O   0  0  0  0  0  0  0  0  0  0  0  0
   11.2863  -16.1322   28.7593 O   0  0  0  0  0  0  0  0  0  0  0  0
  2  1  1  6
  2  3  1  0
  4  3  1  0
  5  4  2  0
  6  2  1  0
  7  6  2  0
  8  4  1  0
  9 10  1  0
 10 11  1  0
 11 12  1  1
 13 11  1  0
 13 14  1  6
 14  6  1  0
 15 13  1  0
 16 15  2  0
 18 19  2  0
 18 17  1  0
 20 18  1  0
 21 20  1  0
 22 21  1  0
 22 23  1  0
 24 23  1  6
 24 25  1  0
 25 15  1  0
 26 24  1  0
 26 28  1  0
 27 26  2  0
M  END
$$$$
