DIR.pdb
     RDKit          3D

 28 27  0  0  1  0  0  0  0  0999 V2000
    6.1348  -15.0168   21.4087 N   0  0  0  0  0  0  0  0  0  0  0  0
    7.4729  -14.7792   20.9291 C   0  0  1  0  0  0  0  0  0  0  0  0
    7.5248  -13.5670   20.0110 C   0  0  0  0  0  0  0  0  0  0  0  0
    6.9795  -13.9390   18.7016 C   0  0  0  0  0  0  0  0  0  0  0  0
    6.4729  -15.0551   18.5260 O   0  0  0  0  0  0  0  0  0  0  0  0
    8.3364  -14.4422   22.1047 C   0  0  0  0  0  0  0  0  0  0  0  0
    9.5289  -14.0622   21.9194 O   0  0  0  0  0  0  0  0  0  0  0  0
    7.0465  -13.0063   17.6643 O   0  0  0  0  0  0  0  0  0  0  0  0
    6.3672  -11.8424   26.3157 C   0  0  0  0  0  0  0  0  0  0  0  0
    7.3315  -12.3847   25.2960 C   0  0  0  0  0  0  0  0  0  0  0  0
    7.8866  -13.7125   25.6601 C   0  0  2  0  0  0  0  0  0  0  0  0
    8.7295  -13.5721   26.9193 C   0  0  0  0  0  0  0  0  0  0  0  0
    8.7200  -14.3572   24.5515 C   0  0  2  0  0  0  0  0  0  0  0  0
    7.8236  -14.5480   23.4059 N   0  0  0  0  0  0  0  0  0  0  0  0
    9.2439  -15.6840   24.9787 C   0  0  0  0  0  0  0  0  0  0  0  0
    8.3758  -16.6142   25.1752 O   0  0  0  0  0  0  0  0  0  0  0  0
   14.3379  -15.0765   23.3634 N   0  0  0  0  0  0  0  0  0  0  0  0
   14.2966  -15.4986   22.0079 C   0  0  0  0  0  0  0  0  0  0  0  0
   14.9323  -14.8009   21.1285 N   0  0  0  0  0  0  0  0  0  0  0  0
   13.5952  -16.6474   21.5564 N   0  0  0  0  0  0  0  0  0  0  0  0
   13.2529  -17.7427   22.4683 C   0  0  0  0  0  0  0  0  0  0  0  0
   12.0126  -17.3890   23.2722 C   0  0  0  0  0  0  0  0  0  0  0  0
   12.1102  -17.8807   24.6835 C   0  0  0  0  0  0  0  0  0  0  0  0
   10.9426  -17.4247   25.5330 C   0  0  2  0  0  0  0  0  0  0  0  0
   10.5722  -16.0414   25.1885 N   0  0  0  0  0  0  0  0  0  0  0  0
   11.3899  -17.4924   26.9441 C   0  0  0  0  0  0  0  0  0  0  0  0
   11.5278  -16.4183   27.5745 O   0  0  0  0  0  0  0  0  0  0  0  0
   11.6651  -18.6734   27.6088 O   0  0  0  0  0  0  0  0  0  0  0  0
  2  1  1  1
  2  3  1  0
  4  3  1  0
  5  4  2  0
  6  2  1  0
  7  6  2  0
  8  4  1  0
  9 10  1  0
 10 11  1  0
 11 12  1  1
 13 11  1  0
 13 14  1  6
 14  6  1  0
 15 13  1  0
 16 15  2  0
 18 19  2  0
 18 17  1  0
 20 18  1  0
 21 20  1  0
 22 21  1  0
 22 23  1  0
 24 23  1  6
 24 25  1  0
 25 15  1  0
 26 24  1  0
 26 28  1  0
 27 26  2  0
M  END
$$$$
