DIR.pdb
     RDKit          3D

 28 27  0  0  1  0  0  0  0  0999 V2000
    8.8860  -17.7294   15.4442 N   0  0  0  0  0  0  0  0  0  0  0  0
    8.2396  -17.8826   16.7231 C   0  0  1  0  0  0  0  0  0  0  0  0
    8.3971  -19.2987   17.2569 C   0  0  0  0  0  0  0  0  0  0  0  0
    7.3488  -20.1444   16.6770 C   0  0  0  0  0  0  0  0  0  0  0  0
    6.5843  -19.6941   15.8134 O   0  0  0  0  0  0  0  0  0  0  0  0
    8.9345  -16.9927   17.7061 C   0  0  0  0  0  0  0  0  0  0  0  0
   10.1887  -16.8407   17.6381 O   0  0  0  0  0  0  0  0  0  0  0  0
    7.2366  -21.4633   17.1224 O   0  0  0  0  0  0  0  0  0  0  0  0
    7.4117  -12.0595   20.9634 C   0  0  0  0  0  0  0  0  0  0  0  0
    8.4043  -13.1611   20.7088 C   0  0  0  0  0  0  0  0  0  0  0  0
    7.8534  -14.2710   19.8912 C   0  0  2  0  0  0  0  0  0  0  0  0
    6.6550  -14.8728   20.6105 C   0  0  0  0  0  0  0  0  0  0  0  0
    8.8706  -15.3691   19.5773 C   0  0  2  0  0  0  0  0  0  0  0  0
    8.1962  -16.3307   18.6981 N   0  0  0  0  0  0  0  0  0  0  0  0
    9.3003  -16.0711   20.8182 C   0  0  0  0  0  0  0  0  0  0  0  0
    8.5647  -17.0504   21.2147 O   0  0  0  0  0  0  0  0  0  0  0  0
   16.5609  -18.7805   25.2049 N   0  0  0  0  0  0  0  0  0  0  0  0
   16.5715  -19.0622   23.8129 C   0  0  0  0  0  0  0  0  0  0  0  0
   17.7099  -19.2299   23.2296 N   0  0  0  0  0  0  0  0  0  0  0  0
   15.4009  -19.1717   23.0173 N   0  0  0  0  0  0  0  0  0  0  0  0
   14.7664  -17.9917   22.4226 C   0  0  0  0  0  0  0  0  0  0  0  0
   13.3052  -17.9173   22.8340 C   0  0  0  0  0  0  0  0  0  0  0  0
   12.5751  -16.8439   22.0871 C   0  0  0  0  0  0  0  0  0  0  0  0
   11.0879  -16.8561   22.3711 C   0  0  2  0  0  0  0  0  0  0  0  0
   10.4145  -15.7940   21.6042 N   0  0  0  0  0  0  0  0  0  0  0  0
   10.9292  -16.6097   23.8237 C   0  0  0  0  0  0  0  0  0  0  0  0
   11.3737  -17.4667   24.6225 O   0  0  0  0  0  0  0  0  0  0  0  0
   10.3181  -15.4874   24.3520 O   0  0  0  0  0  0  0  0  0  0  0  0
  2  1  1  6
  2  3  1  0
  4  3  1  0
  5  4  2  0
  6  2  1  0
  7  6  2  0
  8  4  1  0
  9 10  1  0
 10 11  1  0
 11 12  1  1
 13 11  1  0
 13 14  1  6
 14  6  1  0
 15 13  1  0
 16 15  2  0
 18 19  2  0
 18 17  1  0
 20 18  1  0
 21 20  1  0
 22 21  1  0
 22 23  1  0
 24 23  1  1
 24 25  1  0
 25 15  1  0
 26 24  1  0
 26 28  1  0
 27 26  2  0
M  END
$$$$
