DIR.pdb
     RDKit          3D

 28 27  0  0  1  0  0  0  0  0999 V2000
    8.7228  -15.3199   19.9075 N   0  0  0  0  0  0  0  0  0  0  0  0
    7.8174  -15.6940   20.9646 C   0  0  1  0  0  0  0  0  0  0  0  0
    7.6705  -17.2056   21.0585 C   0  0  0  0  0  0  0  0  0  0  0  0
    6.9791  -17.6912   19.8599 C   0  0  0  0  0  0  0  0  0  0  0  0
    7.6126  -17.9342   18.8242 O   0  0  0  0  0  0  0  0  0  0  0  0
    8.4143  -15.2570   22.2660 C   0  0  0  0  0  0  0  0  0  0  0  0
    9.6531  -15.4114   22.4719 O   0  0  0  0  0  0  0  0  0  0  0  0
    5.5954  -17.8709   19.9177 O   0  0  0  0  0  0  0  0  0  0  0  0
    6.7083  -11.6308   26.9832 C   0  0  0  0  0  0  0  0  0  0  0  0
    7.6865  -12.6078   26.3898 C   0  0  0  0  0  0  0  0  0  0  0  0
    7.2100  -13.2215   25.1248 C   0  0  2  0  0  0  0  0  0  0  0  0
    5.8959  -13.9434   25.3851 C   0  0  0  0  0  0  0  0  0  0  0  0
    8.2124  -14.1883   24.4928 C   0  0  2  0  0  0  0  0  0  0  0  0
    7.6017  -14.6787   23.2523 N   0  0  0  0  0  0  0  0  0  0  0  0
    8.4768  -15.3472   25.3897 C   0  0  0  0  0  0  0  0  0  0  0  0
    7.5316  -16.2127   25.5125 O   0  0  0  0  0  0  0  0  0  0  0  0
   13.1078  -22.7683   24.8687 N   0  0  0  0  0  0  0  0  0  0  0  0
   13.1304  -22.1900   26.1657 C   0  0  0  0  0  0  0  0  0  0  0  0
   14.0623  -22.5501   26.9818 N   0  0  0  0  0  0  0  0  0  0  0  0
   12.1860  -21.2342   26.6241 N   0  0  0  0  0  0  0  0  0  0  0  0
   12.0905  -19.9020   26.0202 C   0  0  0  0  0  0  0  0  0  0  0  0
   11.0634  -19.0617   26.7611 C   0  0  0  0  0  0  0  0  0  0  0  0
   10.8659  -17.7283   26.1081 C   0  0  0  0  0  0  0  0  0  0  0  0
    9.8208  -16.8914   26.8152 C   0  0  2  0  0  0  0  0  0  0  0  0
    9.6356  -15.6094   26.1138 N   0  0  0  0  0  0  0  0  0  0  0  0
   10.3253  -16.6493   28.1873 C   0  0  0  0  0  0  0  0  0  0  0  0
   10.8486  -15.5390   28.4393 O   0  0  0  0  0  0  0  0  0  0  0  0
   10.2528  -17.5780   29.2093 O   0  0  0  0  0  0  0  0  0  0  0  0
  2  1  1  6
  2  3  1  0
  4  3  1  0
  5  4  2  0
  6  2  1  0
  7  6  2  0
  8  4  1  0
  9 10  1  0
 10 11  1  0
 11 12  1  1
 13 11  1  0
 13 14  1  6
 14  6  1  0
 15 13  1  0
 16 15  2  0
 18 19  2  0
 18 17  1  0
 20 18  1  0
 21 20  1  0
 22 21  1  0
 22 23  1  0
 24 23  1  6
 24 25  1  0
 25 15  1  0
 26 24  1  0
 26 28  1  0
 27 26  2  0
M  END
$$$$
