DIR.pdb
     RDKit          3D

 28 27  0  0  1  0  0  0  0  0999 V2000
    6.5936  -16.3834   21.9657 N   0  0  0  0  0  0  0  0  0  0  0  0
    7.9619  -16.1012   21.6117 C   0  0  1  0  0  0  0  0  0  0  0  0
    8.0428  -15.2118   20.3797 C   0  0  0  0  0  0  0  0  0  0  0  0
    7.8494  -16.0380   19.1838 C   0  0  0  0  0  0  0  0  0  0  0  0
    7.5733  -17.2404   19.2887 O   0  0  0  0  0  0  0  0  0  0  0  0
    8.5795  -15.3164   22.7269 C   0  0  0  0  0  0  0  0  0  0  0  0
    9.7261  -14.8038   22.5740 O   0  0  0  0  0  0  0  0  0  0  0  0
    7.9842  -15.4358   17.9309 O   0  0  0  0  0  0  0  0  0  0  0  0
    5.7150  -12.0645   25.9465 C   0  0  0  0  0  0  0  0  0  0  0  0
    6.9076  -12.6317   25.2256 C   0  0  0  0  0  0  0  0  0  0  0  0
    7.4911  -13.8193   25.8987 C   0  0  2  0  0  0  0  0  0  0  0  0
    8.0666  -13.3977   27.2429 C   0  0  0  0  0  0  0  0  0  0  0  0
    8.5689  -14.5266   25.0759 C   0  0  2  0  0  0  0  0  0  0  0  0
    7.8882  -15.1511   23.9361 N   0  0  0  0  0  0  0  0  0  0  0  0
    9.2417  -15.5879   25.8749 C   0  0  0  0  0  0  0  0  0  0  0  0
    8.5194  -16.5935   26.2277 O   0  0  0  0  0  0  0  0  0  0  0  0
   17.2510  -16.6090   25.4824 N   0  0  0  0  0  0  0  0  0  0  0  0
   16.0647  -16.6179   24.7014 C   0  0  0  0  0  0  0  0  0  0  0  0
   15.9770  -15.7977   23.7096 N   0  0  0  0  0  0  0  0  0  0  0  0
   14.9618  -17.4780   24.9449 N   0  0  0  0  0  0  0  0  0  0  0  0
   14.8053  -18.1791   26.2226 C   0  0  0  0  0  0  0  0  0  0  0  0
   13.3452  -18.1827   26.6445 C   0  0  0  0  0  0  0  0  0  0  0  0
   12.6572  -16.9078   26.2645 C   0  0  0  0  0  0  0  0  0  0  0  0
   11.2063  -16.8867   26.6971 C   0  0  2  0  0  0  0  0  0  0  0  0
   10.5707  -15.6235   26.2851 N   0  0  0  0  0  0  0  0  0  0  0  0
   11.2004  -16.9979   28.1748 C   0  0  0  0  0  0  0  0  0  0  0  0
   10.8497  -15.9978   28.8432 O   0  0  0  0  0  0  0  0  0  0  0  0
   11.5596  -18.1428   28.8622 O   0  0  0  0  0  0  0  0  0  0  0  0
  2  1  1  1
  2  3  1  0
  4  3  1  0
  5  4  2  0
  6  2  1  0
  7  6  2  0
  8  4  1  0
  9 10  1  0
 10 11  1  0
 11 12  1  1
 13 11  1  0
 13 14  1  6
 14  6  1  0
 15 13  1  0
 16 15  2  0
 18 19  2  0
 18 17  1  0
 20 18  1  0
 21 20  1  0
 22 21  1  0
 22 23  1  0
 24 23  1  1
 24 25  1  0
 25 15  1  0
 26 24  1  0
 26 28  1  0
 27 26  2  0
M  END
$$$$
