DIR.pdb
     RDKit          3D

 28 27  0  0  1  0  0  0  0  0999 V2000
    6.2718  -16.0515   21.3560 N   0  0  0  0  0  0  0  0  0  0  0  0
    7.6870  -16.0325   21.0844 C   0  0  1  0  0  0  0  0  0  0  0  0
    7.9983  -15.2382   19.8245 C   0  0  0  0  0  0  0  0  0  0  0  0
    7.7101  -16.0725   18.6535 C   0  0  0  0  0  0  0  0  0  0  0  0
    6.5697  -16.5152   18.4627 O   0  0  0  0  0  0  0  0  0  0  0  0
    8.3671  -15.3095   22.2050 C   0  0  0  0  0  0  0  0  0  0  0  0
    9.5978  -15.0297   22.1164 O   0  0  0  0  0  0  0  0  0  0  0  0
    8.7503  -16.3527   17.7647 O   0  0  0  0  0  0  0  0  0  0  0  0
    6.9982  -11.4402   26.7009 C   0  0  0  0  0  0  0  0  0  0  0  0
    7.9598  -12.4504   26.1365 C   0  0  0  0  0  0  0  0  0  0  0  0
    7.3517  -13.3284   25.1054 C   0  0  2  0  0  0  0  0  0  0  0  0
    6.1910  -14.0937   25.7240 C   0  0  0  0  0  0  0  0  0  0  0  0
    8.3382  -14.3113   24.4731 C   0  0  2  0  0  0  0  0  0  0  0  0
    7.6410  -14.9445   23.3482 N   0  0  0  0  0  0  0  0  0  0  0  0
    8.7403  -15.3655   25.4448 C   0  0  0  0  0  0  0  0  0  0  0  0
    7.8774  -16.2896   25.6876 O   0  0  0  0  0  0  0  0  0  0  0  0
   13.0089  -21.3068   24.5549 N   0  0  0  0  0  0  0  0  0  0  0  0
   14.0435  -21.0569   25.4953 C   0  0  0  0  0  0  0  0  0  0  0  0
   14.6852  -22.0639   25.9835 N   0  0  0  0  0  0  0  0  0  0  0  0
   14.4188  -19.7603   25.9351 N   0  0  0  0  0  0  0  0  0  0  0  0
   13.7536  -18.5572   25.4265 C   0  0  0  0  0  0  0  0  0  0  0  0
   12.4483  -18.3247   26.1696 C   0  0  0  0  0  0  0  0  0  0  0  0
   11.8289  -17.0119   25.8006 C   0  0  0  0  0  0  0  0  0  0  0  0
   10.5010  -16.7882   26.4929 C   0  0  2  0  0  0  0  0  0  0  0  0
    9.9499  -15.4731   26.1240 N   0  0  0  0  0  0  0  0  0  0  0  0
   10.7668  -16.8349   27.9500 C   0  0  0  0  0  0  0  0  0  0  0  0
   10.7288  -15.7608   28.5943 O   0  0  0  0  0  0  0  0  0  0  0  0
   11.0549  -17.9961   28.6433 O   0  0  0  0  0  0  0  0  0  0  0  0
  2  1  1  1
  2  3  1  0
  4  3  1  0
  5  4  2  0
  6  2  1  0
  7  6  2  0
  8  4  1  0
  9 10  1  0
 10 11  1  0
 11 12  1  1
 13 11  1  0
 13 14  1  6
 14  6  1  0
 15 13  1  0
 16 15  2  0
 18 19  2  0
 18 17  1  0
 20 18  1  0
 21 20  1  0
 22 21  1  0
 22 23  1  0
 24 23  1  6
 24 25  1  0
 25 15  1  0
 26 24  1  0
 26 28  1  0
 27 26  2  0
M  END
$$$$
