DIR.pdb
     RDKit          3D

 28 27  0  0  1  0  0  0  0  0999 V2000
    6.6459  -15.8455   20.8910 N   0  0  0  0  0  0  0  0  0  0  0  0
    8.0823  -15.8945   20.7845 C   0  0  1  0  0  0  0  0  0  0  0  0
    8.5729  -15.1340   19.5614 C   0  0  0  0  0  0  0  0  0  0  0  0
    8.2149  -15.8898   18.3568 C   0  0  0  0  0  0  0  0  0  0  0  0
    7.5320  -16.9192   18.4408 O   0  0  0  0  0  0  0  0  0  0  0  0
    8.6619  -15.1862   21.9692 C   0  0  0  0  0  0  0  0  0  0  0  0
    9.9033  -14.9455   22.0113 O   0  0  0  0  0  0  0  0  0  0  0  0
    8.6623  -15.4202   17.1200 O   0  0  0  0  0  0  0  0  0  0  0  0
    6.9446  -11.5806   26.6203 C   0  0  0  0  0  0  0  0  0  0  0  0
    7.9284  -12.5714   26.0597 C   0  0  0  0  0  0  0  0  0  0  0  0
    7.4361  -13.2635   24.8421 C   0  0  2  0  0  0  0  0  0  0  0  0
    6.1259  -13.9673   25.1641 C   0  0  0  0  0  0  0  0  0  0  0  0
    8.4310  -14.2685   24.2595 C   0  0  2  0  0  0  0  0  0  0  0  0
    7.8303  -14.7917   23.0276 N   0  0  0  0  0  0  0  0  0  0  0  0
    8.6621  -15.3994   25.2002 C   0  0  0  0  0  0  0  0  0  0  0  0
    7.7507  -16.3074   25.2501 O   0  0  0  0  0  0  0  0  0  0  0  0
   14.5131  -20.6032   28.1352 N   0  0  0  0  0  0  0  0  0  0  0  0
   13.6168  -20.9402   27.0862 C   0  0  0  0  0  0  0  0  0  0  0  0
   12.6895  -21.8044   27.3256 N   0  0  0  0  0  0  0  0  0  0  0  0
   13.6773  -20.3823   25.7821 N   0  0  0  0  0  0  0  0  0  0  0  0
   13.3272  -18.9811   25.5320 C   0  0  0  0  0  0  0  0  0  0  0  0
   12.0101  -18.6396   26.2091 C   0  0  0  0  0  0  0  0  0  0  0  0
   11.5237  -17.2786   25.8164 C   0  0  0  0  0  0  0  0  0  0  0  0
   10.1803  -16.9487   26.4321 C   0  0  2  0  0  0  0  0  0  0  0  0
    9.7575  -15.5946   26.0357 N   0  0  0  0  0  0  0  0  0  0  0  0
   10.3576  -17.0135   27.9020 C   0  0  0  0  0  0  0  0  0  0  0  0
   10.4164  -15.9367   28.5401 O   0  0  0  0  0  0  0  0  0  0  0  0
   10.4623  -18.1945   28.6135 O   0  0  0  0  0  0  0  0  0  0  0  0
  2  1  1  1
  2  3  1  0
  4  3  1  0
  5  4  2  0
  6  2  1  0
  7  6  2  0
  8  4  1  0
  9 10  1  0
 10 11  1  0
 11 12  1  1
 13 11  1  0
 13 14  1  6
 14  6  1  0
 15 13  1  0
 16 15  2  0
 18 19  2  0
 18 17  1  0
 20 18  1  0
 21 20  1  0
 22 21  1  0
 22 23  1  0
 24 23  1  6
 24 25  1  0
 25 15  1  0
 26 24  1  0
 26 28  1  0
 27 26  2  0
M  END
$$$$
