DIR.pdb
     RDKit          3D

 28 27  0  0  1  0  0  0  0  0999 V2000
    7.9726  -14.7648   20.6450 N   0  0  0  0  0  0  0  0  0  0  0  0
    7.6127  -15.4658   21.8516 C   0  0  1  0  0  0  0  0  0  0  0  0
    8.0480  -16.9227   21.7962 C   0  0  0  0  0  0  0  0  0  0  0  0
    7.3813  -17.5751   20.6647 C   0  0  0  0  0  0  0  0  0  0  0  0
    7.9636  -18.4522   20.0130 O   0  0  0  0  0  0  0  0  0  0  0  0
    8.3686  -14.8536   22.9895 C   0  0  0  0  0  0  0  0  0  0  0  0
    9.6120  -14.6474   22.8786 O   0  0  0  0  0  0  0  0  0  0  0  0
    6.0799  -17.1829   20.3439 O   0  0  0  0  0  0  0  0  0  0  0  0
    5.4187  -12.5632   27.2549 C   0  0  0  0  0  0  0  0  0  0  0  0
    6.2117  -13.4709   26.3545 C   0  0  0  0  0  0  0  0  0  0  0  0
    7.5213  -12.9001   25.9506 C   0  0  2  0  0  0  0  0  0  0  0  0
    7.2849  -11.7218   25.0171 C   0  0  0  0  0  0  0  0  0  0  0  0
    8.4533  -13.9101   25.2795 C   0  0  2  0  0  0  0  0  0  0  0  0
    7.6993  -14.5104   24.1734 N   0  0  0  0  0  0  0  0  0  0  0  0
    8.8510  -14.9851   26.2300 C   0  0  0  0  0  0  0  0  0  0  0  0
    7.9773  -15.8999   26.4691 O   0  0  0  0  0  0  0  0  0  0  0  0
   14.2987  -16.5437   23.3805 N   0  0  0  0  0  0  0  0  0  0  0  0
   13.5308  -17.7146   23.1422 C   0  0  0  0  0  0  0  0  0  0  0  0
   13.4318  -18.1473   21.9309 N   0  0  0  0  0  0  0  0  0  0  0  0
   12.8609  -18.4438   24.1594 N   0  0  0  0  0  0  0  0  0  0  0  0
   12.9094  -18.0216   25.5623 C   0  0  0  0  0  0  0  0  0  0  0  0
   11.5782  -17.4154   25.9749 C   0  0  0  0  0  0  0  0  0  0  0  0
   11.5947  -16.9671   27.4039 C   0  0  0  0  0  0  0  0  0  0  0  0
   10.3173  -16.2559   27.7978 C   0  0  2  0  0  0  0  0  0  0  0  0
   10.0668  -15.1210   26.8928 N   0  0  0  0  0  0  0  0  0  0  0  0
   10.5120  -15.7655   29.1826 C   0  0  0  0  0  0  0  0  0  0  0  0
   10.6153  -14.5302   29.3650 O   0  0  0  0  0  0  0  0  0  0  0  0
   10.5866  -16.5920   30.2887 O   0  0  0  0  0  0  0  0  0  0  0  0
  2  1  1  6
  2  3  1  0
  4  3  1  0
  5  4  2  0
  6  2  1  0
  7  6  2  0
  8  4  1  0
  9 10  1  0
 10 11  1  0
 11 12  1  6
 13 11  1  0
 13 14  1  6
 14  6  1  0
 15 13  1  0
 16 15  2  0
 18 19  2  0
 18 17  1  0
 20 18  1  0
 21 20  1  0
 22 21  1  0
 22 23  1  0
 24 23  1  6
 24 25  1  0
 25 15  1  0
 26 24  1  0
 26 28  1  0
 27 26  2  0
M  END
$$$$
