DIR.pdb
     RDKit          3D

 28 27  0  0  1  0  0  0  0  0999 V2000
    8.0483  -14.7207   19.6773 N   0  0  0  0  0  0  0  0  0  0  0  0
    7.2606  -15.1804   20.7931 C   0  0  1  0  0  0  0  0  0  0  0  0
    7.1259  -16.6960   20.7885 C   0  0  0  0  0  0  0  0  0  0  0  0
    6.4105  -17.1058   19.5759 C   0  0  0  0  0  0  0  0  0  0  0  0
    6.2434  -18.3057   19.3202 O   0  0  0  0  0  0  0  0  0  0  0  0
    7.9918  -14.8361   22.0532 C   0  0  0  0  0  0  0  0  0  0  0  0
    9.2216  -15.1129   22.1611 O   0  0  0  0  0  0  0  0  0  0  0  0
    5.9256  -16.1124   18.7224 O   0  0  0  0  0  0  0  0  0  0  0  0
    7.0037  -11.2741   27.0204 C   0  0  0  0  0  0  0  0  0  0  0  0
    7.8445  -12.2931   26.3003 C   0  0  0  0  0  0  0  0  0  0  0  0
    7.2059  -12.8155   25.0662 C   0  0  2  0  0  0  0  0  0  0  0  0
    5.8511  -13.4114   25.4199 C   0  0  0  0  0  0  0  0  0  0  0  0
    8.0497  -13.8563   24.3287 C   0  0  2  0  0  0  0  0  0  0  0  0
    7.3143  -14.2089   23.1092 N   0  0  0  0  0  0  0  0  0  0  0  0
    8.2285  -15.0826   25.1542 C   0  0  0  0  0  0  0  0  0  0  0  0
    7.2268  -15.8887   25.2196 O   0  0  0  0  0  0  0  0  0  0  0  0
   14.0423  -21.0049   23.4162 N   0  0  0  0  0  0  0  0  0  0  0  0
   14.2334  -20.0120   24.4137 C   0  0  0  0  0  0  0  0  0  0  0  0
   15.4392  -19.7299   24.7753 N   0  0  0  0  0  0  0  0  0  0  0  0
   13.1745  -19.3057   25.0422 N   0  0  0  0  0  0  0  0  0  0  0  0
   11.7714  -19.6498   24.7940 C   0  0  0  0  0  0  0  0  0  0  0  0
   10.8719  -18.9412   25.7933 C   0  0  0  0  0  0  0  0  0  0  0  0
   10.5572  -17.5429   25.3585 C   0  0  0  0  0  0  0  0  0  0  0  0
    9.5636  -16.8650   26.2783 C   0  0  2  0  0  0  0  0  0  0  0  0
    9.3611  -15.4656   25.8660 N   0  0  0  0  0  0  0  0  0  0  0  0
   10.1434  -16.9122   27.6412 C   0  0  0  0  0  0  0  0  0  0  0  0
   10.3132  -18.0332   28.1748 O   0  0  0  0  0  0  0  0  0  0  0  0
   10.5095  -15.7900   28.3615 O   0  0  0  0  0  0  0  0  0  0  0  0
  2  1  1  6
  2  3  1  0
  4  3  1  0
  5  4  2  0
  6  2  1  0
  7  6  2  0
  8  4  1  0
  9 10  1  0
 10 11  1  0
 11 12  1  1
 13 11  1  0
 13 14  1  6
 14  6  1  0
 15 13  1  0
 16 15  2  0
 18 19  2  0
 18 17  1  0
 20 18  1  0
 21 20  1  0
 22 21  1  0
 22 23  1  0
 24 23  1  6
 24 25  1  0
 25 15  1  0
 26 24  1  0
 26 28  1  0
 27 26  2  0
M  END
$$$$
