DIR.pdb
     RDKit          3D

 28 27  0  0  1  0  0  0  0  0999 V2000
    9.3652  -16.0300   20.6117 N   0  0  0  0  0  0  0  0  0  0  0  0
    8.5798  -16.3673   21.7721 C   0  0  1  0  0  0  0  0  0  0  0  0
    8.8491  -17.7940   22.2271 C   0  0  0  0  0  0  0  0  0  0  0  0
    8.5858  -18.7067   21.1100 C   0  0  0  0  0  0  0  0  0  0  0  0
    7.4569  -19.1875   20.9440 O   0  0  0  0  0  0  0  0  0  0  0  0
    9.0148  -15.4862   22.9014 C   0  0  0  0  0  0  0  0  0  0  0  0
   10.2431  -15.2265   23.0580 O   0  0  0  0  0  0  0  0  0  0  0  0
    9.6363  -19.0173   20.2437 O   0  0  0  0  0  0  0  0  0  0  0  0
    6.4504  -11.5167   26.8802 C   0  0  0  0  0  0  0  0  0  0  0  0
    7.6404  -12.3249   26.4395 C   0  0  0  0  0  0  0  0  0  0  0  0
    7.3490  -13.2230   25.2938 C   0  0  2  0  0  0  0  0  0  0  0  0
    6.1132  -14.0520   25.6120 C   0  0  0  0  0  0  0  0  0  0  0  0
    8.5094  -14.1486   24.9255 C   0  0  2  0  0  0  0  0  0  0  0  0
    8.0627  -14.9514   23.7818 N   0  0  0  0  0  0  0  0  0  0  0  0
    8.8440  -15.0620   26.0530 C   0  0  0  0  0  0  0  0  0  0  0  0
    7.9738  -15.9644   26.3458 O   0  0  0  0  0  0  0  0  0  0  0  0
   15.7347  -15.5614   24.4377 N   0  0  0  0  0  0  0  0  0  0  0  0
   14.5840  -16.0524   23.7653 C   0  0  0  0  0  0  0  0  0  0  0  0
   14.5778  -16.0457   22.4753 N   0  0  0  0  0  0  0  0  0  0  0  0
   13.4325  -16.5534   24.4274 N   0  0  0  0  0  0  0  0  0  0  0  0
   13.1745  -16.2620   25.8405 C   0  0  0  0  0  0  0  0  0  0  0  0
   11.9384  -17.0089   26.3139 C   0  0  0  0  0  0  0  0  0  0  0  0
   11.6015  -16.6749   27.7345 C   0  0  0  0  0  0  0  0  0  0  0  0
   10.2169  -16.0774   27.8715 C   0  0  2  0  0  0  0  0  0  0  0  0
    9.9973  -15.0579   26.8314 N   0  0  0  0  0  0  0  0  0  0  0  0
   10.1529  -15.4529   29.2138 C   0  0  0  0  0  0  0  0  0  0  0  0
   10.3270  -16.1837   30.2167 O   0  0  0  0  0  0  0  0  0  0  0  0
    9.9120  -14.1080   29.4266 O   0  0  0  0  0  0  0  0  0  0  0  0
  2  1  1  6
  2  3  1  0
  4  3  1  0
  5  4  2  0
  6  2  1  0
  7  6  2  0
  8  4  1  0
  9 10  1  0
 10 11  1  0
 11 12  1  1
 13 11  1  0
 13 14  1  6
 14  6  1  0
 15 13  1  0
 16 15  2  0
 18 19  2  0
 18 17  1  0
 20 18  1  0
 21 20  1  0
 22 21  1  0
 22 23  1  0
 24 23  1  6
 24 25  1  0
 25 15  1  0
 26 24  1  0
 26 28  1  0
 27 26  2  0
M  END
$$$$
