DIR.pdb
     RDKit          3D

 28 27  0  0  1  0  0  0  0  0999 V2000
   10.3388  -16.5685   28.0102 N   0  0  0  0  0  0  0  0  0  0  0  0
    9.7713  -17.6165   27.1998 C   0  0  1  0  0  0  0  0  0  0  0  0
    9.4143  -18.8340   28.0397 C   0  0  0  0  0  0  0  0  0  0  0  0
   10.6494  -19.4391   28.5482 C   0  0  0  0  0  0  0  0  0  0  0  0
   11.7468  -18.9128   28.3210 O   0  0  0  0  0  0  0  0  0  0  0  0
    8.4803  -17.1172   26.6294 C   0  0  0  0  0  0  0  0  0  0  0  0
    7.4475  -17.8462   26.6810 O   0  0  0  0  0  0  0  0  0  0  0  0
   10.5551  -20.6179   29.2912 O   0  0  0  0  0  0  0  0  0  0  0  0
    7.4162  -11.6979   26.5440 C   0  0  0  0  0  0  0  0  0  0  0  0
    7.8313  -13.0226   25.9638 C   0  0  0  0  0  0  0  0  0  0  0  0
    6.7925  -14.0745   26.0984 C   0  0  2  0  0  0  0  0  0  0  0  0
    6.5115  -14.3115   27.5751 C   0  0  0  0  0  0  0  0  0  0  0  0
    7.1636  -15.3970   25.4259 C   0  0  2  0  0  0  0  0  0  0  0  0
    8.4180  -15.8458   26.0403 N   0  0  0  0  0  0  0  0  0  0  0  0
    7.3831  -15.2113   23.9648 C   0  0  0  0  0  0  0  0  0  0  0  0
    6.8236  -14.1877   23.4200 O   0  0  0  0  0  0  0  0  0  0  0  0
    9.4549  -12.3067   17.5839 N   0  0  0  0  0  0  0  0  0  0  0  0
    8.4214  -13.1350   17.0710 C   0  0  0  0  0  0  0  0  0  0  0  0
    8.4442  -13.4392   15.8175 N   0  0  0  0  0  0  0  0  0  0  0  0
    7.3577  -13.6528   17.8557 N   0  0  0  0  0  0  0  0  0  0  0  0
    7.3626  -13.5461   19.3176 C   0  0  0  0  0  0  0  0  0  0  0  0
    8.6578  -14.1073   19.8810 C   0  0  0  0  0  0  0  0  0  0  0  0
    8.5536  -14.3663   21.3525 C   0  0  0  0  0  0  0  0  0  0  0  0
    8.1347  -15.7890   21.6573 C   0  0  2  0  0  0  0  0  0  0  0  0
    8.1308  -16.0177   23.1124 N   0  0  0  0  0  0  0  0  0  0  0  0
    9.1298  -16.6748   21.0085 C   0  0  0  0  0  0  0  0  0  0  0  0
    9.9201  -17.3150   21.7403 O   0  0  0  0  0  0  0  0  0  0  0  0
    9.2387  -16.8377   19.6396 O   0  0  0  0  0  0  0  0  0  0  0  0
  2  1  1  1
  2  3  1  0
  4  3  1  0
  5  4  2  0
  6  2  1  0
  7  6  2  0
  8  4  1  0
  9 10  1  0
 10 11  1  0
 11 12  1  1
 13 11  1  0
 13 14  1  1
 14  6  1  0
 15 13  1  0
 16 15  2  0
 18 19  2  0
 18 17  1  0
 20 18  1  0
 21 20  1  0
 22 21  1  0
 22 23  1  0
 24 23  1  1
 24 25  1  0
 25 15  1  0
 26 24  1  0
 26 28  1  0
 27 26  2  0
M  END
$$$$
