DIR.pdb
     RDKit          3D

 28 27  0  0  1  0  0  0  0  0999 V2000
    7.7966  -14.8403   20.4848 N   0  0  0  0  0  0  0  0  0  0  0  0
    7.3328  -15.4667   21.6971 C   0  0  1  0  0  0  0  0  0  0  0  0
    7.5851  -16.9670   21.6764 C   0  0  0  0  0  0  0  0  0  0  0  0
    6.7281  -17.5789   20.6559 C   0  0  0  0  0  0  0  0  0  0  0  0
    6.1117  -16.8725   19.8471 O   0  0  0  0  0  0  0  0  0  0  0  0
    8.1400  -14.9293   22.8376 C   0  0  0  0  0  0  0  0  0  0  0  0
    9.3793  -14.7233   22.6876 O   0  0  0  0  0  0  0  0  0  0  0  0
    6.6266  -18.9714   20.6210 O   0  0  0  0  0  0  0  0  0  0  0  0
    5.7389  -11.4238   26.1441 C   0  0  0  0  0  0  0  0  0  0  0  0
    6.7833  -12.1426   25.3340 C   0  0  0  0  0  0  0  0  0  0  0  0
    7.3883  -13.2962   26.0461 C   0  0  2  0  0  0  0  0  0  0  0  0
    8.1376  -12.7892   27.2697 C   0  0  0  0  0  0  0  0  0  0  0  0
    8.3278  -14.1333   25.1769 C   0  0  2  0  0  0  0  0  0  0  0  0
    7.5230  -14.6559   24.0672 N   0  0  0  0  0  0  0  0  0  0  0  0
    8.8893  -15.2786   25.9452 C   0  0  0  0  0  0  0  0  0  0  0  0
    8.0622  -16.1988   26.3013 O   0  0  0  0  0  0  0  0  0  0  0  0
   16.3645  -17.9461   23.9633 N   0  0  0  0  0  0  0  0  0  0  0  0
   15.6952  -16.7042   24.1271 C   0  0  0  0  0  0  0  0  0  0  0  0
   16.3173  -15.6237   23.7961 N   0  0  0  0  0  0  0  0  0  0  0  0
   14.3759  -16.5758   24.6356 N   0  0  0  0  0  0  0  0  0  0  0  0
   13.4310  -17.6959   24.6039 C   0  0  0  0  0  0  0  0  0  0  0  0
   12.0589  -17.2392   25.0714 C   0  0  0  0  0  0  0  0  0  0  0  0
   11.9853  -17.1509   26.5648 C   0  0  0  0  0  0  0  0  0  0  0  0
   10.6258  -16.6906   27.0469 C   0  0  2  0  0  0  0  0  0  0  0  0
   10.2137  -15.4756   26.3234 N   0  0  0  0  0  0  0  0  0  0  0  0
   10.7632  -16.3965   28.4928 C   0  0  0  0  0  0  0  0  0  0  0  0
   10.7398  -15.1984   28.8590 O   0  0  0  0  0  0  0  0  0  0  0  0
   10.9162  -17.3680   29.4649 O   0  0  0  0  0  0  0  0  0  0  0  0
  2  1  1  6
  2  3  1  0
  4  3  1  0
  5  4  2  0
  6  2  1  0
  7  6  2  0
  8  4  1  0
  9 10  1  0
 10 11  1  0
 11 12  1  1
 13 11  1  0
 13 14  1  6
 14  6  1  0
 15 13  1  0
 16 15  2  0
 18 19  2  0
 18 17  1  0
 20 18  1  0
 21 20  1  0
 22 21  1  0
 22 23  1  0
 24 23  1  6
 24 25  1  0
 25 15  1  0
 26 24  1  0
 26 28  1  0
 27 26  2  0
M  END
$$$$
