DIR.pdb
     RDKit          3D

 28 27  0  0  1  0  0  0  0  0999 V2000
    6.6012  -15.5253   20.9256 N   0  0  0  0  0  0  0  0  0  0  0  0
    7.9380  -16.0179   21.1434 C   0  0  1  0  0  0  0  0  0  0  0  0
    8.8476  -15.6886   19.9690 C   0  0  0  0  0  0  0  0  0  0  0  0
    8.2458  -16.2150   18.7397 C   0  0  0  0  0  0  0  0  0  0  0  0
    7.7396  -17.3448   18.7219 O   0  0  0  0  0  0  0  0  0  0  0  0
    8.5132  -15.2985   22.3236 C   0  0  0  0  0  0  0  0  0  0  0  0
    9.7634  -15.1210   22.4025 O   0  0  0  0  0  0  0  0  0  0  0  0
    8.2589  -15.4126   17.5967 O   0  0  0  0  0  0  0  0  0  0  0  0
    6.7891  -11.5013   26.8260 C   0  0  0  0  0  0  0  0  0  0  0  0
    7.8160  -12.4233   26.2268 C   0  0  0  0  0  0  0  0  0  0  0  0
    7.3283  -13.1438   25.0240 C   0  0  2  0  0  0  0  0  0  0  0  0
    5.9404  -13.7009   25.3053 C   0  0  0  0  0  0  0  0  0  0  0  0
    8.2528  -14.2721   24.5641 C   0  0  2  0  0  0  0  0  0  0  0  0
    7.6677  -14.8239   23.3371 N   0  0  0  0  0  0  0  0  0  0  0  0
    8.3304  -15.3510   25.5875 C   0  0  0  0  0  0  0  0  0  0  0  0
    7.3244  -16.1506   25.6644 O   0  0  0  0  0  0  0  0  0  0  0  0
   12.2936  -20.5309   22.1217 N   0  0  0  0  0  0  0  0  0  0  0  0
   11.7890  -20.9454   23.3830 C   0  0  0  0  0  0  0  0  0  0  0  0
   10.7665  -21.7315   23.4064 N   0  0  0  0  0  0  0  0  0  0  0  0
   12.3425  -20.5467   24.6280 N   0  0  0  0  0  0  0  0  0  0  0  0
   12.4968  -19.1319   24.9791 C   0  0  0  0  0  0  0  0  0  0  0  0
   11.4602  -18.7319   26.0162 C   0  0  0  0  0  0  0  0  0  0  0  0
   10.8953  -17.3732   25.7369 C   0  0  0  0  0  0  0  0  0  0  0  0
    9.8326  -16.9755   26.7395 C   0  0  2  0  0  0  0  0  0  0  0  0
    9.3722  -15.6016   26.4751 N   0  0  0  0  0  0  0  0  0  0  0  0
   10.4615  -17.0495   28.0793 C   0  0  0  0  0  0  0  0  0  0  0  0
   10.6973  -15.9775   28.6836 O   0  0  0  0  0  0  0  0  0  0  0  0
   10.8046  -18.2343   28.7044 O   0  0  0  0  0  0  0  0  0  0  0  0
  2  1  1  6
  2  3  1  0
  4  3  1  0
  5  4  2  0
  6  2  1  0
  7  6  2  0
  8  4  1  0
  9 10  1  0
 10 11  1  0
 11 12  1  1
 13 11  1  0
 13 14  1  6
 14  6  1  0
 15 13  1  0
 16 15  2  0
 18 19  2  0
 18 17  1  0
 20 18  1  0
 21 20  1  0
 22 21  1  0
 22 23  1  0
 24 23  1  6
 24 25  1  0
 25 15  1  0
 26 24  1  0
 26 28  1  0
 27 26  2  0
M  END
$$$$
