GPQ.pdb
     RDKit          3D

 21 21  0  0  1  0  0  0  0  0999 V2000
    8.1988  -17.5954   18.0569 N   0  0  0  0  0  0  0  0  0  0  0  0
    7.5056  -16.5506   18.7278 C   0  0  0  0  0  0  0  0  0  0  0  0
    8.0567  -16.2046   20.0486 C   0  0  0  0  0  0  0  0  0  0  0  0
    8.3889  -17.1213   20.8169 O   0  0  0  0  0  0  0  0  0  0  0  0
    8.2067  -14.8645   20.4387 N   0  0  0  0  0  0  0  0  0  0  0  0
    8.6244  -13.8116   19.4754 C   0  0  0  0  0  0  0  0  0  0  0  0
    7.5465  -12.7774   19.7484 C   0  0  0  0  0  0  0  0  0  0  0  0
    7.1401  -12.9641   21.1798 C   0  0  0  0  0  0  0  0  0  0  0  0
    8.0697  -14.1091   21.6190 C   0  0  1  0  0  0  0  0  0  0  0  0
    7.4917  -14.6814   22.8069 C   0  0  0  0  0  0  0  0  0  0  0  0
    6.3147  -14.7897   23.1654 O   0  0  0  0  0  0  0  0  0  0  0  0
    6.9383  -19.6083   23.8814 N   0  0  0  0  0  0  0  0  0  0  0  0
    6.7910  -19.3961   25.2707 C   0  0  0  0  0  0  0  0  0  0  0  0
    6.3461  -20.3171   25.9938 O   0  0  0  0  0  0  0  0  0  0  0  0
    7.1838  -18.0495   25.8193 C   0  0  0  0  0  0  0  0  0  0  0  0
    7.5910  -17.2130   24.6578 C   0  0  0  0  0  0  0  0  0  0  0  0
    8.0345  -15.8108   25.0002 C   0  0  2  0  0  0  0  0  0  0  0  0
    8.4589  -15.2224   23.7403 N   0  0  0  0  0  0  0  0  0  0  0  0
    9.2331  -15.9012   25.8677 C   0  0  0  0  0  0  0  0  0  0  0  0
   10.4152  -15.8566   25.3787 O   0  0  0  0  0  0  0  0  0  0  0  0
    9.1895  -16.0370   27.2451 O   0  0  0  0  0  0  0  0  0  0  0  0
  1  2  1  0
  2  3  1  0
  3  4  2  0
  5  9  1  0
  5  3  1  0
  6  5  1  0
  7  6  1  0
  7  8  1  0
  8  9  1  0
  9 10  1  1
 10 18  1  0
 10 11  2  0
 12 13  1  0
 13 14  2  0
 15 16  1  0
 15 13  1  0
 17 16  1  6
 17 19  1  0
 18 17  1  0
 19 20  2  0
 19 21  1  0
M  END
$$$$
