GPQ.pdb
     RDKit          3D

 21 21  0  0  1  0  0  0  0  0999 V2000
    8.3443  -16.8555   16.6677 N   0  0  0  0  0  0  0  0  0  0  0  0
    7.7297  -16.2456   17.7959 C   0  0  0  0  0  0  0  0  0  0  0  0
    8.6442  -15.9833   18.9196 C   0  0  0  0  0  0  0  0  0  0  0  0
    9.4678  -16.8561   19.2367 O   0  0  0  0  0  0  0  0  0  0  0  0
    8.5913  -14.7702   19.6241 N   0  0  0  0  0  0  0  0  0  0  0  0
    8.3485  -13.4753   18.9345 C   0  0  0  0  0  0  0  0  0  0  0  0
    7.2284  -12.9322   19.8041 C   0  0  0  0  0  0  0  0  0  0  0  0
    7.4401  -13.5126   21.1706 C   0  0  0  0  0  0  0  0  0  0  0  0
    8.7183  -14.3432   20.9597 C   0  0  1  0  0  0  0  0  0  0  0  0
    8.7817  -15.2906   22.0419 C   0  0  0  0  0  0  0  0  0  0  0  0
    7.8885  -15.8143   22.7152 O   0  0  0  0  0  0  0  0  0  0  0  0
   10.6217  -21.0162   22.0196 N   0  0  0  0  0  0  0  0  0  0  0  0
   10.9107  -19.7525   21.4570 C   0  0  0  0  0  0  0  0  0  0  0  0
   11.8039  -19.6529   20.5846 O   0  0  0  0  0  0  0  0  0  0  0  0
   10.1152  -18.5701   21.9447 C   0  0  0  0  0  0  0  0  0  0  0  0
   10.9806  -17.8357   22.9070 C   0  0  0  0  0  0  0  0  0  0  0  0
   10.3604  -16.6008   23.5156 C   0  0  2  0  0  0  0  0  0  0  0  0
   10.1252  -15.6981   22.4006 N   0  0  0  0  0  0  0  0  0  0  0  0
   11.3677  -15.9595   24.3940 C   0  0  0  0  0  0  0  0  0  0  0  0
   12.1364  -15.0322   23.9609 O   0  0  0  0  0  0  0  0  0  0  0  0
   11.5657  -16.2909   25.7239 O   0  0  0  0  0  0  0  0  0  0  0  0
  1  2  1  0
  2  3  1  0
  3  4  2  0
  5  9  1  0
  5  3  1  0
  6  5  1  0
  7  6  1  0
  7  8  1  0
  8  9  1  0
  9 10  1  1
 10 18  1  0
 10 11  2  0
 12 13  1  0
 13 14  2  0
 15 16  1  0
 15 13  1  0
 17 16  1  6
 17 19  1  0
 18 17  1  0
 19 20  2  0
 19 21  1  0
M  END
$$$$
