GPQ.pdb
     RDKit          3D

 21 21  0  0  1  0  0  0  0  0999 V2000
   12.7406  -14.2696   19.3659 N   0  0  0  0  0  0  0  0  0  0  0  0
   11.3333  -14.4689   19.4119 C   0  0  0  0  0  0  0  0  0  0  0  0
   10.7454  -14.3505   20.7566 C   0  0  0  0  0  0  0  0  0  0  0  0
   11.4074  -14.7329   21.7346 O   0  0  0  0  0  0  0  0  0  0  0  0
    9.4600  -13.8159   20.9370 N   0  0  0  0  0  0  0  0  0  0  0  0
    8.9289  -12.7422   20.0560 C   0  0  0  0  0  0  0  0  0  0  0  0
    7.5878  -13.3544   19.6919 C   0  0  0  0  0  0  0  0  0  0  0  0
    7.1962  -14.2238   20.8494 C   0  0  0  0  0  0  0  0  0  0  0  0
    8.3749  -14.0043   21.8142 C   0  0  1  0  0  0  0  0  0  0  0  0
    8.3550  -15.0980   22.7503 C   0  0  0  0  0  0  0  0  0  0  0  0
    8.5487  -16.3072   22.5897 O   0  0  0  0  0  0  0  0  0  0  0  0
   10.3570  -13.1840   28.3086 N   0  0  0  0  0  0  0  0  0  0  0  0
    9.5024  -14.1725   27.7705 C   0  0  0  0  0  0  0  0  0  0  0  0
    9.5905  -15.3544   28.1759 O   0  0  0  0  0  0  0  0  0  0  0  0
    8.5124  -13.7455   26.7187 C   0  0  0  0  0  0  0  0  0  0  0  0
    7.6562  -14.9272   26.4275 C   0  0  0  0  0  0  0  0  0  0  0  0
    8.0259  -15.6970   25.1821 C   0  0  2  0  0  0  0  0  0  0  0  0
    8.0561  -14.7109   24.1143 N   0  0  0  0  0  0  0  0  0  0  0  0
    6.9253  -16.6415   24.8757 C   0  0  0  0  0  0  0  0  0  0  0  0
    5.9595  -16.3121   24.1029 O   0  0  0  0  0  0  0  0  0  0  0  0
    6.8405  -17.9288   25.3790 O   0  0  0  0  0  0  0  0  0  0  0  0
  1  2  1  0
  2  3  1  0
  3  4  2  0
  5  9  1  0
  5  3  1  0
  6  5  1  0
  7  6  1  0
  7  8  1  0
  8  9  1  0
  9 10  1  1
 10 18  1  0
 10 11  2  0
 12 13  1  0
 13 14  2  0
 15 16  1  0
 15 13  1  0
 17 16  1  1
 17 19  1  0
 18 17  1  0
 19 20  2  0
 19 21  1  0
M  END
$$$$
