GPQ.pdb
     RDKit          3D

 21 21  0  0  1  0  0  0  0  0999 V2000
    9.2435  -16.5652   16.2239 N   0  0  0  0  0  0  0  0  0  0  0  0
    8.4442  -15.9089   17.1999 C   0  0  0  0  0  0  0  0  0  0  0  0
    9.1670  -15.5340   18.4266 C   0  0  0  0  0  0  0  0  0  0  0  0
   10.0651  -16.2824   18.8441 O   0  0  0  0  0  0  0  0  0  0  0  0
    8.8516  -14.3531   19.1169 N   0  0  0  0  0  0  0  0  0  0  0  0
    8.5455  -13.0865   18.4005 C   0  0  0  0  0  0  0  0  0  0  0  0
    7.2476  -12.7115   19.0937 C   0  0  0  0  0  0  0  0  0  0  0  0
    7.3292  -13.2879   20.4758 C   0  0  0  0  0  0  0  0  0  0  0  0
    8.7225  -13.9411   20.4571 C   0  0  1  0  0  0  0  0  0  0  0  0
    8.7491  -14.8947   21.5354 C   0  0  0  0  0  0  0  0  0  0  0  0
    7.8348  -15.3994   22.1949 O   0  0  0  0  0  0  0  0  0  0  0  0
   10.5705  -20.1064   22.9152 N   0  0  0  0  0  0  0  0  0  0  0  0
   11.1793  -19.5586   21.7636 C   0  0  0  0  0  0  0  0  0  0  0  0
   11.9450  -20.2680   21.0712 O   0  0  0  0  0  0  0  0  0  0  0  0
   10.8700  -18.1244   21.4227 C   0  0  0  0  0  0  0  0  0  0  0  0
    9.9449  -17.6213   22.4741 C   0  0  0  0  0  0  0  0  0  0  0  0
   10.2762  -16.2529   23.0199 C   0  0  2  0  0  0  0  0  0  0  0  0
   10.0775  -15.3364   21.9090 N   0  0  0  0  0  0  0  0  0  0  0  0
   11.7189  -16.2245   23.3591 C   0  0  0  0  0  0  0  0  0  0  0  0
   12.1609  -16.7539   24.4375 O   0  0  0  0  0  0  0  0  0  0  0  0
   12.6944  -15.6427   22.5670 O   0  0  0  0  0  0  0  0  0  0  0  0
  1  2  1  0
  2  3  1  0
  3  4  2  0
  5  9  1  0
  5  3  1  0
  6  5  1  0
  7  6  1  0
  7  8  1  0
  8  9  1  0
  9 10  1  1
 10 18  1  0
 10 11  2  0
 12 13  1  0
 13 14  2  0
 15 16  1  0
 15 13  1  0
 17 16  1  6
 17 19  1  0
 18 17  1  0
 19 20  2  0
 19 21  1  0
M  END
$$$$
