GPQ.pdb
     RDKit          3D

 21 21  0  0  1  0  0  0  0  0999 V2000
    4.7160  -17.6565   20.3720 N   0  0  0  0  0  0  0  0  0  0  0  0
    5.2421  -16.4378   20.8823 C   0  0  0  0  0  0  0  0  0  0  0  0
    6.7127  -16.3811   20.9268 C   0  0  0  0  0  0  0  0  0  0  0  0
    7.3388  -17.3844   21.3038 O   0  0  0  0  0  0  0  0  0  0  0  0
    7.4009  -15.2167   20.5513 N   0  0  0  0  0  0  0  0  0  0  0  0
    7.0772  -14.4872   19.2966 C   0  0  0  0  0  0  0  0  0  0  0  0
    6.9346  -13.0809   19.8517 C   0  0  0  0  0  0  0  0  0  0  0  0
    7.8313  -13.0114   21.0517 C   0  0  0  0  0  0  0  0  0  0  0  0
    8.4456  -14.4224   21.0614 C   0  0  1  0  0  0  0  0  0  0  0  0
    8.9680  -14.6392   22.3854 C   0  0  0  0  0  0  0  0  0  0  0  0
    8.7860  -14.0233   23.4404 O   0  0  0  0  0  0  0  0  0  0  0  0
    7.7617  -15.9424   26.4073 N   0  0  0  0  0  0  0  0  0  0  0  0
    8.3793  -17.1434   25.9913 C   0  0  0  0  0  0  0  0  0  0  0  0
    8.7910  -17.9574   26.8498 O   0  0  0  0  0  0  0  0  0  0  0  0
    8.5126  -17.3864   24.5108 C   0  0  0  0  0  0  0  0  0  0  0  0
    9.9689  -17.3963   24.2050 C   0  0  0  0  0  0  0  0  0  0  0  0
   10.5381  -16.0748   23.7471 C   0  0  2  0  0  0  0  0  0  0  0  0
    9.8600  -15.7757   22.4965 N   0  0  0  0  0  0  0  0  0  0  0  0
   11.9731  -16.2712   23.4317 C   0  0  0  0  0  0  0  0  0  0  0  0
   12.8686  -16.2292   24.3454 O   0  0  0  0  0  0  0  0  0  0  0  0
   12.4656  -16.5121   22.1600 O   0  0  0  0  0  0  0  0  0  0  0  0
  1  2  1  0
  2  3  1  0
  3  4  2  0
  5  9  1  0
  5  3  1  0
  6  5  1  0
  7  6  1  0
  7  8  1  0
  8  9  1  0
  9 10  1  1
 10 18  1  0
 10 11  2  0
 12 13  1  0
 13 14  2  0
 15 16  1  0
 15 13  1  0
 17 16  1  6
 17 19  1  0
 18 17  1  0
 19 20  2  0
 19 21  1  0
M  END
$$$$
