GPQ.pdb
     RDKit          3D

 21 21  0  0  1  0  0  0  0  0999 V2000
    8.8917  -15.3822   15.5412 N   0  0  0  0  0  0  0  0  0  0  0  0
    8.1880  -15.1884   16.7617 C   0  0  0  0  0  0  0  0  0  0  0  0
    9.0516  -15.0365   17.9446 C   0  0  0  0  0  0  0  0  0  0  0  0
   10.1378  -15.6366   17.9732 O   0  0  0  0  0  0  0  0  0  0  0  0
    8.6599  -14.2292   19.0241 N   0  0  0  0  0  0  0  0  0  0  0  0
    7.9690  -12.9288   18.8180 C   0  0  0  0  0  0  0  0  0  0  0  0
    6.7950  -13.1138   19.7632 C   0  0  0  0  0  0  0  0  0  0  0  0
    7.2730  -14.0295   20.8504 C   0  0  0  0  0  0  0  0  0  0  0  0
    8.7329  -14.2743   20.4295 C   0  0  1  0  0  0  0  0  0  0  0  0
    9.1694  -15.4627   21.1151 C   0  0  0  0  0  0  0  0  0  0  0  0
    8.7590  -16.6265   21.0629 O   0  0  0  0  0  0  0  0  0  0  0  0
   15.7535  -17.1493   23.8834 N   0  0  0  0  0  0  0  0  0  0  0  0
   14.6972  -16.3685   23.3624 C   0  0  0  0  0  0  0  0  0  0  0  0
   14.9282  -15.2061   22.9569 O   0  0  0  0  0  0  0  0  0  0  0  0
   13.3239  -16.9861   23.3211 C   0  0  0  0  0  0  0  0  0  0  0  0
   12.4184  -15.9823   22.6993 C   0  0  0  0  0  0  0  0  0  0  0  0
   10.9631  -16.3806   22.6384 C   0  0  2  0  0  0  0  0  0  0  0  0
   10.2810  -15.2550   22.0210 N   0  0  0  0  0  0  0  0  0  0  0  0
   10.4540  -16.4944   24.0259 C   0  0  0  0  0  0  0  0  0  0  0  0
    9.7936  -15.5447   24.5740 O   0  0  0  0  0  0  0  0  0  0  0  0
   10.6374  -17.6034   24.8347 O   0  0  0  0  0  0  0  0  0  0  0  0
  1  2  1  0
  2  3  1  0
  3  4  2  0
  5  9  1  0
  5  3  1  0
  6  5  1  0
  7  6  1  0
  7  8  1  0
  8  9  1  0
  9 10  1  6
 10 18  1  0
 10 11  2  0
 12 13  1  0
 13 14  2  0
 15 16  1  0
 15 13  1  0
 17 16  1  1
 17 19  1  0
 18 17  1  0
 19 20  2  0
 19 21  1  0
M  END
$$$$
