GPQ.pdb
     RDKit          3D

 21 21  0  0  1  0  0  0  0  0999 V2000
    8.9121  -17.7755   18.4350 N   0  0  0  0  0  0  0  0  0  0  0  0
    8.0621  -16.7797   18.9902 C   0  0  0  0  0  0  0  0  0  0  0  0
    8.5593  -16.1837   20.2414 C   0  0  0  0  0  0  0  0  0  0  0  0
    9.1073  -16.9192   21.0778 O   0  0  0  0  0  0  0  0  0  0  0  0
    8.4195  -14.8094   20.4907 N   0  0  0  0  0  0  0  0  0  0  0  0
    8.6399  -13.7950   19.4259 C   0  0  0  0  0  0  0  0  0  0  0  0
    7.3652  -12.9846   19.5813 C   0  0  0  0  0  0  0  0  0  0  0  0
    6.9644  -13.1065   21.0213 C   0  0  0  0  0  0  0  0  0  0  0  0
    8.0962  -13.9839   21.5846 C   0  0  1  0  0  0  0  0  0  0  0  0
    7.6138  -14.5412   22.8213 C   0  0  0  0  0  0  0  0  0  0  0  0
    6.4696  -14.6370   23.2764 O   0  0  0  0  0  0  0  0  0  0  0  0
    6.4168  -19.1565   23.6202 N   0  0  0  0  0  0  0  0  0  0  0  0
    6.4392  -19.0607   25.0299 C   0  0  0  0  0  0  0  0  0  0  0  0
    5.8748  -19.9410   25.7193 O   0  0  0  0  0  0  0  0  0  0  0  0
    7.1536  -17.8836   25.6407 C   0  0  0  0  0  0  0  0  0  0  0  0
    7.5924  -17.0144   24.5154 C   0  0  0  0  0  0  0  0  0  0  0  0
    8.3177  -15.7541   24.9223 C   0  0  2  0  0  0  0  0  0  0  0  0
    8.6506  -15.0818   23.6770 N   0  0  0  0  0  0  0  0  0  0  0  0
    9.5952  -16.1406   25.5672 C   0  0  0  0  0  0  0  0  0  0  0  0
   10.6699  -16.2821   24.8863 O   0  0  0  0  0  0  0  0  0  0  0  0
    9.7433  -16.3766   26.9236 O   0  0  0  0  0  0  0  0  0  0  0  0
  1  2  1  0
  2  3  1  0
  3  4  2  0
  5  9  1  0
  5  3  1  0
  6  5  1  0
  7  6  1  0
  7  8  1  0
  8  9  1  0
  9 10  1  1
 10 18  1  0
 10 11  2  0
 12 13  1  0
 13 14  2  0
 15 16  1  0
 15 13  1  0
 17 16  1  6
 17 19  1  0
 18 17  1  0
 19 20  2  0
 19 21  1  0
M  END
$$$$
