GPQ.pdb
     RDKit          3D

 21 21  0  0  1  0  0  0  0  0999 V2000
    7.0647  -14.7977   21.3719 N   0  0  0  0  0  0  0  0  0  0  0  0
    6.5720  -14.2888   22.6051 C   0  0  0  0  0  0  0  0  0  0  0  0
    7.5801  -14.2042   23.6749 C   0  0  0  0  0  0  0  0  0  0  0  0
    8.5246  -15.0097   23.6718 O   0  0  0  0  0  0  0  0  0  0  0  0
    7.4814  -13.2328   24.6834 N   0  0  0  0  0  0  0  0  0  0  0  0
    7.0483  -11.8410   24.3890 C   0  0  0  0  0  0  0  0  0  0  0  0
    5.9731  -11.6814   25.4494 C   0  0  0  0  0  0  0  0  0  0  0  0
    6.3742  -12.5694   26.5894 C   0  0  0  0  0  0  0  0  0  0  0  0
    7.6989  -13.1578   26.0725 C   0  0  1  0  0  0  0  0  0  0  0  0
    7.9600  -14.3407   26.8505 C   0  0  0  0  0  0  0  0  0  0  0  0
    7.2017  -15.2233   27.2646 O   0  0  0  0  0  0  0  0  0  0  0  0
   12.9608  -19.4043   26.8711 N   0  0  0  0  0  0  0  0  0  0  0  0
   12.3715  -18.1436   26.6257 C   0  0  0  0  0  0  0  0  0  0  0  0
   12.6542  -17.5220   25.5756 O   0  0  0  0  0  0  0  0  0  0  0  0
   11.4171  -17.6035   27.6582 C   0  0  0  0  0  0  0  0  0  0  0  0
   10.7890  -16.3889   27.0711 C   0  0  0  0  0  0  0  0  0  0  0  0
    9.7837  -15.6934   27.9574 C   0  0  2  0  0  0  0  0  0  0  0  0
    9.3522  -14.5249   27.2077 N   0  0  0  0  0  0  0  0  0  0  0  0
   10.4895  -15.2032   29.1653 C   0  0  0  0  0  0  0  0  0  0  0  0
   10.8240  -15.9984   30.1109 O   0  0  0  0  0  0  0  0  0  0  0  0
   10.8438  -13.8816   29.3782 O   0  0  0  0  0  0  0  0  0  0  0  0
  1  2  1  0
  2  3  1  0
  3  4  2  0
  5  9  1  0
  5  3  1  0
  6  5  1  0
  7  6  1  0
  7  8  1  0
  8  9  1  0
  9 10  1  1
 10 18  1  0
 10 11  2  0
 12 13  1  0
 13 14  2  0
 15 16  1  0
 15 13  1  0
 17 16  1  6
 17 19  1  0
 18 17  1  0
 19 20  2  0
 19 21  1  0
M  END
$$$$
