GPQ.pdb
     RDKit          3D

 21 21  0  0  1  0  0  0  0  0999 V2000
   12.7728  -14.3767   18.8811 N   0  0  0  0  0  0  0  0  0  0  0  0
   11.3661  -14.5744   18.9483 C   0  0  0  0  0  0  0  0  0  0  0  0
   10.7771  -14.3114   20.2719 C   0  0  0  0  0  0  0  0  0  0  0  0
   11.4436  -14.5729   21.2859 O   0  0  0  0  0  0  0  0  0  0  0  0
    9.4856  -13.7747   20.3924 N   0  0  0  0  0  0  0  0  0  0  0  0
    8.9315  -12.8353   19.3816 C   0  0  0  0  0  0  0  0  0  0  0  0
    7.5966  -13.5086   19.1160 C   0  0  0  0  0  0  0  0  0  0  0  0
    7.2273  -14.2208   20.3831 C   0  0  0  0  0  0  0  0  0  0  0  0
    8.4106  -13.8588   21.2979 C   0  0  1  0  0  0  0  0  0  0  0  0
    8.4145  -14.8179   22.3717 C   0  0  0  0  0  0  0  0  0  0  0  0
    8.7684  -16.0009   22.4017 O   0  0  0  0  0  0  0  0  0  0  0  0
    6.5221  -10.8291   26.8764 N   0  0  0  0  0  0  0  0  0  0  0  0
    6.3244  -12.2141   26.6772 C   0  0  0  0  0  0  0  0  0  0  0  0
    5.5801  -12.8517   27.4572 O   0  0  0  0  0  0  0  0  0  0  0  0
    7.0318  -12.8629   25.5163 C   0  0  0  0  0  0  0  0  0  0  0  0
    7.2920  -14.2755   25.9051 C   0  0  0  0  0  0  0  0  0  0  0  0
    7.8936  -15.1392   24.8224 C   0  0  2  0  0  0  0  0  0  0  0  0
    7.9173  -14.3047   23.6322 N   0  0  0  0  0  0  0  0  0  0  0  0
    6.9633  -16.2614   24.5526 C   0  0  0  0  0  0  0  0  0  0  0  0
    6.1413  -16.2252   23.5721 O   0  0  0  0  0  0  0  0  0  0  0  0
    6.8979  -17.4187   25.3103 O   0  0  0  0  0  0  0  0  0  0  0  0
  1  2  1  0
  2  3  1  0
  3  4  2  0
  5  9  1  0
  5  3  1  0
  6  5  1  0
  7  6  1  0
  7  8  1  0
  8  9  1  0
  9 10  1  1
 10 18  1  0
 10 11  2  0
 12 13  1  0
 13 14  2  0
 15 16  1  0
 15 13  1  0
 17 16  1  1
 17 19  1  0
 18 17  1  0
 19 20  2  0
 19 21  1  0
M  END
$$$$
