GPQ.pdb
     RDKit          3D

 21 21  0  0  1  0  0  0  0  0999 V2000
    7.7540  -17.6779   17.8322 N   0  0  0  0  0  0  0  0  0  0  0  0
    7.1729  -16.6701   18.6501 C   0  0  0  0  0  0  0  0  0  0  0  0
    8.0563  -16.1658   19.7146 C   0  0  0  0  0  0  0  0  0  0  0  0
    8.6454  -16.9828   20.4401 O   0  0  0  0  0  0  0  0  0  0  0  0
    8.2338  -14.7873   19.9114 N   0  0  0  0  0  0  0  0  0  0  0  0
    8.4105  -13.8507   18.7700 C   0  0  0  0  0  0  0  0  0  0  0  0
    7.3736  -12.8045   19.1388 C   0  0  0  0  0  0  0  0  0  0  0  0
    7.2714  -12.8254   20.6349 C   0  0  0  0  0  0  0  0  0  0  0  0
    8.3109  -13.8993   21.0013 C   0  0  1  0  0  0  0  0  0  0  0  0
    8.0055  -14.3341   22.3395 C   0  0  0  0  0  0  0  0  0  0  0  0
    7.0082  -14.1502   23.0445 O   0  0  0  0  0  0  0  0  0  0  0  0
    6.2103  -19.3476   23.8267 N   0  0  0  0  0  0  0  0  0  0  0  0
    6.1031  -18.0528   24.3828 C   0  0  0  0  0  0  0  0  0  0  0  0
    5.0336  -17.4127   24.2594 O   0  0  0  0  0  0  0  0  0  0  0  0
    7.3023  -17.5004   25.1078 C   0  0  0  0  0  0  0  0  0  0  0  0
    8.2672  -17.0537   24.0668 C   0  0  0  0  0  0  0  0  0  0  0  0
    8.8671  -15.6863   24.2913 C   0  0  2  0  0  0  0  0  0  0  0  0
    9.0488  -15.1223   22.9638 N   0  0  0  0  0  0  0  0  0  0  0  0
   10.2155  -15.8614   24.8816 C   0  0  0  0  0  0  0  0  0  0  0  0
   10.3686  -16.1853   26.1105 O   0  0  0  0  0  0  0  0  0  0  0  0
   11.3995  -15.6979   24.1823 O   0  0  0  0  0  0  0  0  0  0  0  0
  1  2  1  0
  2  3  1  0
  3  4  2  0
  5  9  1  0
  5  3  1  0
  6  5  1  0
  7  6  1  0
  7  8  1  0
  8  9  1  0
  9 10  1  1
 10 18  1  0
 10 11  2  0
 12 13  1  0
 13 14  2  0
 15 16  1  0
 15 13  1  0
 17 16  1  6
 17 19  1  0
 18 17  1  0
 19 20  2  0
 19 21  1  0
M  END
$$$$
