GPQ.pdb
     RDKit          3D

 21 21  0  0  1  0  0  0  0  0999 V2000
    9.5624  -15.3913   15.6531 N   0  0  0  0  0  0  0  0  0  0  0  0
    8.7324  -15.1029   16.7713 C   0  0  0  0  0  0  0  0  0  0  0  0
    9.4560  -14.9604   18.0457 C   0  0  0  0  0  0  0  0  0  0  0  0
   10.5070  -15.5997   18.2115 O   0  0  0  0  0  0  0  0  0  0  0  0
    8.9718  -14.1187   19.0594 N   0  0  0  0  0  0  0  0  0  0  0  0
    8.3713  -12.7929   18.7548 C   0  0  0  0  0  0  0  0  0  0  0  0
    7.0828  -12.9105   19.5497 C   0  0  0  0  0  0  0  0  0  0  0  0
    7.3814  -13.8277   20.6980 C   0  0  0  0  0  0  0  0  0  0  0  0
    8.8693  -14.1433   20.4635 C   0  0  1  0  0  0  0  0  0  0  0  0
    9.1636  -15.3380   21.2111 C   0  0  0  0  0  0  0  0  0  0  0  0
    8.5690  -16.4182   21.2816 O   0  0  0  0  0  0  0  0  0  0  0  0
   15.3664  -14.6733   22.0821 N   0  0  0  0  0  0  0  0  0  0  0  0
   14.5874  -15.7560   22.5490 C   0  0  0  0  0  0  0  0  0  0  0  0
   15.0795  -16.9076   22.5732 O   0  0  0  0  0  0  0  0  0  0  0  0
   13.1808  -15.4632   23.0013 C   0  0  0  0  0  0  0  0  0  0  0  0
   12.3119  -16.5221   22.4198 C   0  0  0  0  0  0  0  0  0  0  0  0
   10.8455  -16.4092   22.7617 C   0  0  2  0  0  0  0  0  0  0  0  0
   10.3641  -15.2563   22.0185 N   0  0  0  0  0  0  0  0  0  0  0  0
   10.7281  -16.0822   24.2028 C   0  0  0  0  0  0  0  0  0  0  0  0
   11.0313  -16.9357   25.1072 O   0  0  0  0  0  0  0  0  0  0  0  0
   10.2944  -14.8614   24.6920 O   0  0  0  0  0  0  0  0  0  0  0  0
  1  2  1  0
  2  3  1  0
  3  4  2  0
  5  9  1  0
  5  3  1  0
  6  5  1  0
  7  6  1  0
  7  8  1  0
  8  9  1  0
  9 10  1  6
 10 18  1  0
 10 11  2  0
 12 13  1  0
 13 14  2  0
 15 16  1  0
 15 13  1  0
 17 16  1  6
 17 19  1  0
 18 17  1  0
 19 20  2  0
 19 21  1  0
M  END
$$$$
