GPQ.pdb
     RDKit          3D

 21 21  0  0  1  0  0  0  0  0999 V2000
    8.0687  -18.0410   18.4093 N   0  0  0  0  0  0  0  0  0  0  0  0
    7.5337  -16.8125   18.8856 C   0  0  0  0  0  0  0  0  0  0  0  0
    8.1735  -16.3041   20.1104 C   0  0  0  0  0  0  0  0  0  0  0  0
    8.6487  -17.1175   20.9187 O   0  0  0  0  0  0  0  0  0  0  0  0
    8.2482  -14.9259   20.3660 N   0  0  0  0  0  0  0  0  0  0  0  0
    8.5866  -13.9494   19.2969 C   0  0  0  0  0  0  0  0  0  0  0  0
    7.4525  -12.9585   19.4916 C   0  0  0  0  0  0  0  0  0  0  0  0
    7.0802  -13.0279   20.9427 C   0  0  0  0  0  0  0  0  0  0  0  0
    8.0841  -14.0681   21.4705 C   0  0  1  0  0  0  0  0  0  0  0  0
    7.5601  -14.5546   22.7202 C   0  0  0  0  0  0  0  0  0  0  0  0
    6.4013  -14.6254   23.1415 O   0  0  0  0  0  0  0  0  0  0  0  0
    5.9587  -18.9577   25.0213 N   0  0  0  0  0  0  0  0  0  0  0  0
    7.2560  -19.2006   24.5162 C   0  0  0  0  0  0  0  0  0  0  0  0
    7.6290  -20.3781   24.3084 O   0  0  0  0  0  0  0  0  0  0  0  0
    8.1381  -18.0092   24.2493 C   0  0  0  0  0  0  0  0  0  0  0  0
    7.3661  -16.8024   24.6517 C   0  0  0  0  0  0  0  0  0  0  0  0
    8.1971  -15.5753   24.9412 C   0  0  2  0  0  0  0  0  0  0  0  0
    8.5673  -15.0447   23.6393 N   0  0  0  0  0  0  0  0  0  0  0  0
    9.4472  -16.0078   25.6101 C   0  0  0  0  0  0  0  0  0  0  0  0
   10.5551  -16.0768   24.9728 O   0  0  0  0  0  0  0  0  0  0  0  0
    9.5331  -16.3655   26.9452 O   0  0  0  0  0  0  0  0  0  0  0  0
  1  2  1  0
  2  3  1  0
  3  4  2  0
  5  9  1  0
  5  3  1  0
  6  5  1  0
  7  6  1  0
  7  8  1  0
  8  9  1  0
  9 10  1  1
 10 18  1  0
 10 11  2  0
 12 13  1  0
 13 14  2  0
 15 16  1  0
 15 13  1  0
 17 16  1  6
 17 19  1  0
 18 17  1  0
 19 20  2  0
 19 21  1  0
M  END
$$$$
