GPQ.pdb
     RDKit          3D

 21 21  0  0  1  0  0  0  0  0999 V2000
    6.8732  -13.4302   20.9985 N   0  0  0  0  0  0  0  0  0  0  0  0
    6.3983  -13.6469   22.3213 C   0  0  0  0  0  0  0  0  0  0  0  0
    7.4377  -14.0509   23.2826 C   0  0  0  0  0  0  0  0  0  0  0  0
    8.2137  -14.9692   22.9737 O   0  0  0  0  0  0  0  0  0  0  0  0
    7.5549  -13.4137   24.5279 N   0  0  0  0  0  0  0  0  0  0  0  0
    7.1694  -11.9901   24.7173 C   0  0  0  0  0  0  0  0  0  0  0  0
    6.2810  -12.1296   25.9409 C   0  0  0  0  0  0  0  0  0  0  0  0
    6.7956  -13.3170   26.6988 C   0  0  0  0  0  0  0  0  0  0  0  0
    7.9865  -13.7495   25.8254 C   0  0  1  0  0  0  0  0  0  0  0  0
    8.2894  -15.1115   26.1805 C   0  0  0  0  0  0  0  0  0  0  0  0
    7.5500  -16.0745   26.4074 O   0  0  0  0  0  0  0  0  0  0  0  0
   11.2447  -20.4312   25.3716 N   0  0  0  0  0  0  0  0  0  0  0  0
   11.5688  -19.1368   24.9063 C   0  0  0  0  0  0  0  0  0  0  0  0
   11.3471  -18.8351   23.7110 O   0  0  0  0  0  0  0  0  0  0  0  0
   12.1750  -18.1703   25.8898 C   0  0  0  0  0  0  0  0  0  0  0  0
   11.4515  -16.8801   25.7279 C   0  0  0  0  0  0  0  0  0  0  0  0
   10.1773  -16.7533   26.5282 C   0  0  2  0  0  0  0  0  0  0  0  0
    9.7054  -15.3991   26.2896 N   0  0  0  0  0  0  0  0  0  0  0  0
   10.5205  -16.8510   27.9670 C   0  0  0  0  0  0  0  0  0  0  0  0
   10.7707  -15.8077   28.6651 O   0  0  0  0  0  0  0  0  0  0  0  0
   10.5993  -18.0413   28.6702 O   0  0  0  0  0  0  0  0  0  0  0  0
  1  2  1  0
  2  3  1  0
  3  4  2  0
  5  9  1  0
  5  3  1  0
  6  5  1  0
  7  6  1  0
  7  8  1  0
  8  9  1  0
  9 10  1  6
 10 18  1  0
 10 11  2  0
 12 13  1  0
 13 14  2  0
 15 16  1  0
 15 13  1  0
 17 16  1  6
 17 19  1  0
 18 17  1  0
 19 20  2  0
 19 21  1  0
M  END
$$$$
