GPQ.pdb
     RDKit          3D

 21 21  0  0  1  0  0  0  0  0999 V2000
    9.5887  -17.3521   18.2261 N   0  0  0  0  0  0  0  0  0  0  0  0
    8.6604  -16.9859   19.2392 C   0  0  0  0  0  0  0  0  0  0  0  0
    9.1672  -15.9897   20.1978 C   0  0  0  0  0  0  0  0  0  0  0  0
   10.0336  -16.3346   21.0170 O   0  0  0  0  0  0  0  0  0  0  0  0
    8.6837  -14.6718   20.1911 N   0  0  0  0  0  0  0  0  0  0  0  0
    8.2916  -13.9890   18.9296 C   0  0  0  0  0  0  0  0  0  0  0  0
    6.9189  -13.4807   19.3337 C   0  0  0  0  0  0  0  0  0  0  0  0
    6.9717  -13.2661   20.8170 C   0  0  0  0  0  0  0  0  0  0  0  0
    8.4249  -13.6600   21.1353 C   0  0  1  0  0  0  0  0  0  0  0  0
    8.4829  -13.9277   22.5488 C   0  0  0  0  0  0  0  0  0  0  0  0
    8.2798  -13.1952   23.5223 O   0  0  0  0  0  0  0  0  0  0  0  0
    6.7277  -19.2716   24.0477 N   0  0  0  0  0  0  0  0  0  0  0  0
    5.9302  -18.1556   23.7076 C   0  0  0  0  0  0  0  0  0  0  0  0
    4.7356  -18.3274   23.3727 O   0  0  0  0  0  0  0  0  0  0  0  0
    6.5702  -16.7933   23.7668 C   0  0  0  0  0  0  0  0  0  0  0  0
    7.9604  -16.9912   24.2590 C   0  0  0  0  0  0  0  0  0  0  0  0
    8.8231  -15.7519   24.2626 C   0  0  2  0  0  0  0  0  0  0  0  0
    8.8414  -15.2910   22.8839 N   0  0  0  0  0  0  0  0  0  0  0  0
   10.2079  -16.1505   24.6101 C   0  0  0  0  0  0  0  0  0  0  0  0
   10.5300  -16.4674   25.8077 O   0  0  0  0  0  0  0  0  0  0  0  0
   11.2508  -16.2171   23.7015 O   0  0  0  0  0  0  0  0  0  0  0  0
  1  2  1  0
  2  3  1  0
  3  4  2  0
  5  9  1  0
  5  3  1  0
  6  5  1  0
  7  6  1  0
  7  8  1  0
  8  9  1  0
  9 10  1  1
 10 18  1  0
 10 11  2  0
 12 13  1  0
 13 14  2  0
 15 16  1  0
 15 13  1  0
 17 16  1  6
 17 19  1  0
 18 17  1  0
 19 20  2  0
 19 21  1  0
M  END
$$$$
