SDT.pdb
     RDKit          3D

 22 21  0  0  1  0  0  0  0  0999 V2000
   27.5864  -20.7242   -8.3733 O   0  0  0  0  0  0  0  0  0  0  0  0
   27.2490  -20.7500   -9.7164 C   0  0  0  0  0  0  0  0  0  0  0  0
   25.9034  -20.0694   -9.9026 C   0  0  2  0  0  0  0  0  0  0  0  0
   24.9050  -20.8399   -9.1559 N   0  0  0  0  0  0  0  0  0  0  0  0
   25.5062  -20.0749  -11.3385 C   0  0  0  0  0  0  0  0  0  0  0  0
   26.2354  -19.5185  -12.2275 O   0  0  0  0  0  0  0  0  0  0  0  0
   24.3161  -20.6861  -11.8045 N   0  0  0  0  0  0  0  0  0  0  0  0
   23.9563  -20.6566  -13.2333 C   0  0  1  0  0  0  0  0  0  0  0  0
   24.6759  -21.7451  -13.9690 C   0  0  0  0  0  0  0  0  0  0  0  0
   24.4710  -21.7826  -15.4079 C   0  0  0  0  0  0  0  0  0  0  0  0
   23.6642  -21.0517  -16.0220 O   0  0  0  0  0  0  0  0  0  0  0  0
   22.4790  -20.7726  -13.3428 C   0  0  0  0  0  0  0  0  0  0  0  0
   21.8710  -21.5845  -12.6368 O   0  0  0  0  0  0  0  0  0  0  0  0
   25.2146  -22.6908  -16.2012 O   0  0  0  0  0  0  0  0  0  0  0  0
   19.9485  -18.1384  -12.5196 C   0  0  0  0  0  0  0  0  0  0  0  0
   19.7213  -18.6192  -13.9055 C   0  0  1  0  0  0  0  0  0  0  0  0
   20.2539  -17.6974  -14.8045 O   0  0  0  0  0  0  0  0  0  0  0  0
   20.2886  -19.9894  -14.1782 C   0  0  2  0  0  0  0  0  0  0  0  0
   21.7271  -19.9696  -14.2443 N   0  0  0  0  0  0  0  0  0  0  0  0
   19.7413  -20.6243  -15.3723 C   0  0  0  0  0  0  0  0  0  0  0  0
   20.4714  -20.7262  -16.3924 O   0  0  0  0  0  0  0  0  0  0  0  0
   18.4559  -21.1346  -15.4785 O   0  0  0  0  0  0  0  0  0  0  0  0
  1  2  1  0
  2  3  1  0
  3  4  1  1
  5  3  1  0
  5  7  1  0
  6  5  2  0
  8  7  1  0
  8 12  1  0
  8  9  1  6
 10  9  1  0
 10 14  1  0
 11 10  2  0
 12 13  2  0
 12 19  1  0
 16 15  1  1
 17 16  1  0
 18 16  1  0
 18 20  1  0
 18 19  1  6
 20 22  1  0
 21 20  2  0
M  END
$$$$
