SDT.pdb
     RDKit          3D

 22 21  0  0  1  0  0  0  0  0999 V2000
   24.0611  -12.8155  -18.1057 O   0  0  0  0  0  0  0  0  0  0  0  0
   23.3041  -11.6560  -18.0757 C   0  0  0  0  0  0  0  0  0  0  0  0
   21.9234  -11.9796  -17.5302 C   0  0  2  0  0  0  0  0  0  0  0  0
   21.1660  -12.6441  -18.5946 N   0  0  0  0  0  0  0  0  0  0  0  0
   21.1980  -10.7311  -17.1627 C   0  0  0  0  0  0  0  0  0  0  0  0
   20.7483   -9.9405  -18.0595 O   0  0  0  0  0  0  0  0  0  0  0  0
   20.9633  -10.3454  -15.8199 N   0  0  0  0  0  0  0  0  0  0  0  0
   20.2624   -9.0886  -15.5022 C   0  0  1  0  0  0  0  0  0  0  0  0
   19.1202   -9.3562  -14.5708 C   0  0  0  0  0  0  0  0  0  0  0  0
   18.0493  -10.1849  -15.1000 C   0  0  0  0  0  0  0  0  0  0  0  0
   17.9238  -11.4060  -14.8643 O   0  0  0  0  0  0  0  0  0  0  0  0
   21.2514   -8.1359  -14.9347 C   0  0  0  0  0  0  0  0  0  0  0  0
   22.0694   -8.5251  -14.0940 O   0  0  0  0  0  0  0  0  0  0  0  0
   17.0638   -9.6099  -15.9398 O   0  0  0  0  0  0  0  0  0  0  0  0
   23.7539   -6.0628  -16.8918 C   0  0  0  0  0  0  0  0  0  0  0  0
   23.0422   -5.1785  -15.9353 C   0  0  1  0  0  0  0  0  0  0  0  0
   22.1308   -4.3876  -16.6318 O   0  0  0  0  0  0  0  0  0  0  0  0
   22.3378   -5.9184  -14.8262 C   0  0  2  0  0  0  0  0  0  0  0  0
   21.2924   -6.7705  -15.3312 N   0  0  0  0  0  0  0  0  0  0  0  0
   21.8121   -5.0470  -13.7807 C   0  0  0  0  0  0  0  0  0  0  0  0
   20.5649   -4.9547  -13.6399 O   0  0  0  0  0  0  0  0  0  0  0  0
   22.5897   -4.2960  -12.9117 O   0  0  0  0  0  0  0  0  0  0  0  0
  1  2  1  0
  2  3  1  0
  3  4  1  6
  5  3  1  0
  5  7  1  0
  6  5  2  0
  8  7  1  0
  8 12  1  0
  8  9  1  1
 10  9  1  0
 10 14  1  0
 11 10  2  0
 12 13  2  0
 12 19  1  0
 16 15  1  6
 17 16  1  0
 18 16  1  0
 18 20  1  0
 18 19  1  6
 20 22  1  0
 21 20  2  0
M  END
$$$$
