SDT.pdb
     RDKit          3D

 22 21  0  0  1  0  0  0  0  0999 V2000
   25.1286  -13.6794  -17.6559 O   0  0  0  0  0  0  0  0  0  0  0  0
   24.1972  -12.6623  -17.7836 C   0  0  0  0  0  0  0  0  0  0  0  0
   24.6762  -11.4507  -17.0019 C   0  0  2  0  0  0  0  0  0  0  0  0
   24.9599  -11.8857  -15.6313 N   0  0  0  0  0  0  0  0  0  0  0  0
   23.6115  -10.4103  -16.9411 C   0  0  0  0  0  0  0  0  0  0  0  0
   23.3074   -9.7159  -17.9692 O   0  0  0  0  0  0  0  0  0  0  0  0
   22.8796  -10.1274  -15.7616 N   0  0  0  0  0  0  0  0  0  0  0  0
   21.7912   -9.1340  -15.7631 C   0  0  1  0  0  0  0  0  0  0  0  0
   20.6364   -9.6326  -14.9496 C   0  0  0  0  0  0  0  0  0  0  0  0
   19.9811  -10.8322  -15.4448 C   0  0  0  0  0  0  0  0  0  0  0  0
   19.8172  -11.8723  -14.7713 O   0  0  0  0  0  0  0  0  0  0  0  0
   22.3352   -7.8480  -15.2549 C   0  0  0  0  0  0  0  0  0  0  0  0
   23.1808   -7.8503  -14.3536 O   0  0  0  0  0  0  0  0  0  0  0  0
   19.4810  -10.8649  -16.7699 O   0  0  0  0  0  0  0  0  0  0  0  0
   23.5079   -4.8808  -17.6179 C   0  0  0  0  0  0  0  0  0  0  0  0
   22.7057   -4.3914  -16.4688 C   0  0  1  0  0  0  0  0  0  0  0  0
   21.4427   -4.0122  -16.9188 O   0  0  0  0  0  0  0  0  0  0  0  0
   22.5728   -5.3895  -15.3463 C   0  0  2  0  0  0  0  0  0  0  0  0
   21.9123   -6.5945  -15.7772 N   0  0  0  0  0  0  0  0  0  0  0  0
   21.9139   -4.8542  -14.1598 C   0  0  0  0  0  0  0  0  0  0  0  0
   22.4562   -3.8994  -13.5450 O   0  0  0  0  0  0  0  0  0  0  0  0
   20.7146   -5.3210  -13.6425 O   0  0  0  0  0  0  0  0  0  0  0  0
  1  2  1  0
  2  3  1  0
  3  4  1  1
  5  3  1  0
  5  7  1  0
  6  5  2  0
  8  7  1  0
  8 12  1  0
  8  9  1  1
 10  9  1  0
 10 14  1  0
 11 10  2  0
 12 13  2  0
 12 19  1  0
 16 15  1  6
 17 16  1  0
 18 16  1  0
 18 20  1  0
 18 19  1  6
 20 22  1  0
 21 20  2  0
M  END
$$$$
