SDT.pdb
     RDKit          3D

 22 21  0  0  1  0  0  0  0  0999 V2000
   16.7005  -13.1036  -17.0919 O   0  0  0  0  0  0  0  0  0  0  0  0
   17.1297  -11.8151  -17.3640 C   0  0  0  0  0  0  0  0  0  0  0  0
   18.0089  -11.3341  -16.2220 C   0  0  2  0  0  0  0  0  0  0  0  0
   17.2840  -11.5677  -14.9699 N   0  0  0  0  0  0  0  0  0  0  0  0
   18.2651   -9.8709  -16.3368 C   0  0  0  0  0  0  0  0  0  0  0  0
   19.2550   -9.4246  -17.0095 O   0  0  0  0  0  0  0  0  0  0  0  0
   17.4435   -8.8959  -15.7192 N   0  0  0  0  0  0  0  0  0  0  0  0
   17.7520   -7.4595  -15.8343 C   0  0  1  0  0  0  0  0  0  0  0  0
   16.4932   -6.6526  -15.7440 C   0  0  0  0  0  0  0  0  0  0  0  0
   16.6613   -5.2086  -15.7603 C   0  0  0  0  0  0  0  0  0  0  0  0
   17.7517   -4.6304  -15.9577 O   0  0  0  0  0  0  0  0  0  0  0  0
   18.7330   -7.1087  -14.7748 C   0  0  0  0  0  0  0  0  0  0  0  0
   18.4720   -7.3472  -13.5905 O   0  0  0  0  0  0  0  0  0  0  0  0
   15.5422   -4.3672  -15.5440 O   0  0  0  0  0  0  0  0  0  0  0  0
   22.6693   -7.6675  -15.3008 C   0  0  0  0  0  0  0  0  0  0  0  0
   21.9539   -7.4698  -14.0152 C   0  0  1  0  0  0  0  0  0  0  0  0
   22.8846   -7.2678  -12.9981 O   0  0  0  0  0  0  0  0  0  0  0  0
   20.9611   -6.3351  -14.0359 C   0  0  2  0  0  0  0  0  0  0  0  0
   19.9818   -6.4998  -15.0789 N   0  0  0  0  0  0  0  0  0  0  0  0
   21.5785   -5.0167  -14.1326 C   0  0  0  0  0  0  0  0  0  0  0  0
   22.4855   -4.7116  -13.3152 O   0  0  0  0  0  0  0  0  0  0  0  0
   21.2406   -4.0517  -15.0699 O   0  0  0  0  0  0  0  0  0  0  0  0
  1  2  1  0
  2  3  1  0
  3  4  1  1
  5  3  1  0
  5  7  1  0
  6  5  2  0
  8  7  1  0
  8 12  1  0
  8  9  1  1
 10  9  1  0
 10 14  1  0
 11 10  2  0
 12 13  2  0
 12 19  1  0
 16 15  1  6
 17 16  1  0
 18 16  1  0
 18 20  1  0
 18 19  1  6
 20 22  1  0
 21 20  2  0
M  END
$$$$
