SDT.pdb
     RDKit          3D

 22 21  0  0  1  0  0  0  0  0999 V2000
   28.3408  -17.6061  -17.0363 O   0  0  0  0  0  0  0  0  0  0  0  0
   27.3597  -18.5407  -16.7496 C   0  0  0  0  0  0  0  0  0  0  0  0
   28.0091  -19.7668  -16.1303 C   0  0  2  0  0  0  0  0  0  0  0  0
   28.3315  -20.6985  -17.2148 N   0  0  0  0  0  0  0  0  0  0  0  0
   27.0633  -20.4511  -15.2046 C   0  0  0  0  0  0  0  0  0  0  0  0
   26.3854  -21.4651  -15.5841 O   0  0  0  0  0  0  0  0  0  0  0  0
   26.8569  -20.0307  -13.8676 N   0  0  0  0  0  0  0  0  0  0  0  0
   25.8912  -20.7216  -12.9948 C   0  0  1  0  0  0  0  0  0  0  0  0
   26.3542  -20.6705  -11.5711 C   0  0  0  0  0  0  0  0  0  0  0  0
   25.5503  -21.4134  -10.6142 C   0  0  0  0  0  0  0  0  0  0  0  0
   25.7419  -21.4048   -9.3791 O   0  0  0  0  0  0  0  0  0  0  0  0
   24.5591  -20.0914  -13.1855 C   0  0  0  0  0  0  0  0  0  0  0  0
   24.3981  -18.8969  -12.9124 O   0  0  0  0  0  0  0  0  0  0  0  0
   24.4705  -22.2092  -11.0700 O   0  0  0  0  0  0  0  0  0  0  0  0
   22.6446  -19.2197  -16.0956 C   0  0  0  0  0  0  0  0  0  0  0  0
   21.7507  -20.0655  -15.2656 C   0  0  1  0  0  0  0  0  0  0  0  0
   21.6712  -21.3383  -15.8269 O   0  0  0  0  0  0  0  0  0  0  0  0
   22.1718  -20.1665  -13.8212 C   0  0  2  0  0  0  0  0  0  0  0  0
   23.4450  -20.8245  -13.6798 N   0  0  0  0  0  0  0  0  0  0  0  0
   21.1797  -20.8063  -12.9639 C   0  0  0  0  0  0  0  0  0  0  0  0
   21.4214  -21.9556  -12.5117 O   0  0  0  0  0  0  0  0  0  0  0  0
   19.9667  -20.2410  -12.5993 O   0  0  0  0  0  0  0  0  0  0  0  0
  1  2  1  0
  2  3  1  0
  3  4  1  6
  5  3  1  0
  5  7  1  0
  6  5  2  0
  8  7  1  0
  8 12  1  0
  8  9  1  1
 10  9  1  0
 10 14  1  0
 11 10  2  0
 12 13  2  0
 12 19  1  0
 16 15  1  6
 17 16  1  0
 18 16  1  0
 18 20  1  0
 18 19  1  6
 20 22  1  0
 21 20  2  0
M  END
$$$$
