SDT.pdb
     RDKit          3D

 22 21  0  0  1  0  0  0  0  0999 V2000
   25.6286  -12.5126  -15.8547 O   0  0  0  0  0  0  0  0  0  0  0  0
   25.0004  -11.3044  -16.1077 C   0  0  0  0  0  0  0  0  0  0  0  0
   23.5738  -11.5721  -16.5565 C   0  0  2  0  0  0  0  0  0  0  0  0
   23.6298  -12.1685  -17.8941 N   0  0  0  0  0  0  0  0  0  0  0  0
   22.8064  -10.2988  -16.6546 C   0  0  0  0  0  0  0  0  0  0  0  0
   22.9446   -9.5201  -17.6576 O   0  0  0  0  0  0  0  0  0  0  0  0
   21.8899   -9.8752  -15.6607 N   0  0  0  0  0  0  0  0  0  0  0  0
   21.0735   -8.6627  -15.8478 C   0  0  1  0  0  0  0  0  0  0  0  0
   19.7197   -8.8528  -15.2356 C   0  0  0  0  0  0  0  0  0  0  0  0
   18.8913   -9.8873  -15.8334 C   0  0  0  0  0  0  0  0  0  0  0  0
   18.5818   -9.9274  -17.0437 O   0  0  0  0  0  0  0  0  0  0  0  0
   21.8092   -7.5123  -15.2620 C   0  0  0  0  0  0  0  0  0  0  0  0
   22.4202   -7.6501  -14.1966 O   0  0  0  0  0  0  0  0  0  0  0  0
   18.3833  -10.9356  -15.0271 O   0  0  0  0  0  0  0  0  0  0  0  0
   23.7159   -2.9708  -15.7105 C   0  0  0  0  0  0  0  0  0  0  0  0
   22.8585   -4.0509  -16.2598 C   0  0  1  0  0  0  0  0  0  0  0  0
   23.4547   -4.5721  -17.4063 O   0  0  0  0  0  0  0  0  0  0  0  0
   22.5706   -5.1609  -15.2807 C   0  0  2  0  0  0  0  0  0  0  0  0
   21.8372   -6.2382  -15.8935 N   0  0  0  0  0  0  0  0  0  0  0  0
   21.8872   -4.7143  -14.0715 C   0  0  0  0  0  0  0  0  0  0  0  0
   20.6381   -4.5634  -14.1028 O   0  0  0  0  0  0  0  0  0  0  0  0
   22.5136   -4.4359  -12.8657 O   0  0  0  0  0  0  0  0  0  0  0  0
  1  2  1  0
  2  3  1  0
  3  4  1  6
  5  3  1  0
  5  7  1  0
  6  5  2  0
  8  7  1  0
  8 12  1  0
  8  9  1  1
 10  9  1  0
 10 14  1  0
 11 10  2  0
 12 13  2  0
 12 19  1  0
 16 15  1  1
 17 16  1  0
 18 16  1  0
 18 20  1  0
 18 19  1  6
 20 22  1  0
 21 20  2  0
M  END
$$$$
