SDT.pdb
     RDKit          3D

 22 21  0  0  1  0  0  0  0  0999 V2000
   13.3937  -12.6111  -13.0108 O   0  0  0  0  0  0  0  0  0  0  0  0
   14.0471  -11.6305  -12.2829 C   0  0  0  0  0  0  0  0  0  0  0  0
   15.5196  -11.6337  -12.6573 C   0  0  2  0  0  0  0  0  0  0  0  0
   16.1236  -12.8417  -12.0880 N   0  0  0  0  0  0  0  0  0  0  0  0
   16.2137  -10.4538  -12.0693 C   0  0  0  0  0  0  0  0  0  0  0  0
   16.7654  -10.5179  -10.9191 O   0  0  0  0  0  0  0  0  0  0  0  0
   16.3061   -9.2062  -12.7342 N   0  0  0  0  0  0  0  0  0  0  0  0
   17.0189   -8.0707  -12.1225 C   0  0  1  0  0  0  0  0  0  0  0  0
   17.7692   -7.3076  -13.1707 C   0  0  0  0  0  0  0  0  0  0  0  0
   19.0342   -7.8855  -13.5942 C   0  0  0  0  0  0  0  0  0  0  0  0
   19.8838   -8.3656  -12.8132 O   0  0  0  0  0  0  0  0  0  0  0  0
   16.0252   -7.2304  -11.4053 C   0  0  0  0  0  0  0  0  0  0  0  0
   14.9832   -6.8875  -11.9747 O   0  0  0  0  0  0  0  0  0  0  0  0
   19.3628   -7.9274  -14.9717 O   0  0  0  0  0  0  0  0  0  0  0  0
   14.1152   -8.0193   -8.2483 C   0  0  0  0  0  0  0  0  0  0  0  0
   14.8038   -6.7141   -8.0874 C   0  0  1  0  0  0  0  0  0  0  0  0
   15.9302   -6.8850   -7.2853 O   0  0  0  0  0  0  0  0  0  0  0  0
   15.1949   -6.0641   -9.3905 C   0  0  2  0  0  0  0  0  0  0  0  0
   16.2324   -6.8004  -10.0655 N   0  0  0  0  0  0  0  0  0  0  0  0
   15.5817   -4.6639   -9.2552 C   0  0  0  0  0  0  0  0  0  0  0  0
   14.7135   -3.8283   -8.8920 O   0  0  0  0  0  0  0  0  0  0  0  0
   16.8536   -4.1673   -9.4996 O   0  0  0  0  0  0  0  0  0  0  0  0
  1  2  1  0
  2  3  1  0
  3  4  1  1
  5  3  1  0
  5  7  1  0
  6  5  2  0
  8  7  1  0
  8 12  1  0
  8  9  1  6
 10  9  1  0
 10 14  1  0
 11 10  2  0
 12 13  2  0
 12 19  1  0
 16 15  1  6
 17 16  1  0
 18 16  1  0
 18 20  1  0
 18 19  1  1
 20 22  1  0
 21 20  2  0
M  END
$$$$
