SDT.pdb
     RDKit          3D

 22 21  0  0  1  0  0  0  0  0999 V2000
   18.4005  -13.1307  -14.6793 O   0  0  0  0  0  0  0  0  0  0  0  0
   18.9972  -11.9424  -15.0669 C   0  0  0  0  0  0  0  0  0  0  0  0
   18.0478  -11.1861  -15.9806 C   0  0  2  0  0  0  0  0  0  0  0  0
   17.9967  -11.8977  -17.2609 N   0  0  0  0  0  0  0  0  0  0  0  0
   18.5549   -9.8097  -16.2416 C   0  0  0  0  0  0  0  0  0  0  0  0
   19.3532   -9.5726  -17.2102 O   0  0  0  0  0  0  0  0  0  0  0  0
   18.1923   -8.6936  -15.4479 N   0  0  0  0  0  0  0  0  0  0  0  0
   18.5896   -7.3275  -15.8318 C   0  0  1  0  0  0  0  0  0  0  0  0
   17.5732   -6.3393  -15.3478 C   0  0  0  0  0  0  0  0  0  0  0  0
   16.3176   -6.3088  -16.0800 C   0  0  0  0  0  0  0  0  0  0  0  0
   15.2936   -5.7048  -15.6940 O   0  0  0  0  0  0  0  0  0  0  0  0
   19.9461   -7.0669  -15.2839 C   0  0  0  0  0  0  0  0  0  0  0  0
   20.2322   -7.4445  -14.1425 O   0  0  0  0  0  0  0  0  0  0  0  0
   16.2062   -6.9939  -17.3151 O   0  0  0  0  0  0  0  0  0  0  0  0
   24.6819   -5.8685  -15.9846 C   0  0  0  0  0  0  0  0  0  0  0  0
   23.3073   -6.0190  -16.5244 C   0  0  1  0  0  0  0  0  0  0  0  0
   23.2747   -7.1001  -17.4028 O   0  0  0  0  0  0  0  0  0  0  0  0
   22.2486   -6.1866  -15.4639 C   0  0  2  0  0  0  0  0  0  0  0  0
   20.9434   -6.3890  -16.0380 N   0  0  0  0  0  0  0  0  0  0  0  0
   22.2069   -5.0937  -14.4983 C   0  0  0  0  0  0  0  0  0  0  0  0
   21.6034   -4.0340  -14.8092 O   0  0  0  0  0  0  0  0  0  0  0  0
   22.7902   -5.1268  -13.2403 O   0  0  0  0  0  0  0  0  0  0  0  0
  1  2  1  0
  2  3  1  0
  3  4  1  6
  5  3  1  0
  5  7  1  0
  6  5  2  0
  8  7  1  0
  8 12  1  0
  8  9  1  1
 10  9  1  0
 10 14  1  0
 11 10  2  0
 12 13  2  0
 12 19  1  0
 16 15  1  1
 17 16  1  0
 18 16  1  0
 18 20  1  0
 18 19  1  6
 20 22  1  0
 21 20  2  0
M  END
$$$$
