SDT.pdb
     RDKit          3D

 22 21  0  0  1  0  0  0  0  0999 V2000
   24.7585  -11.0319  -16.0138 O   0  0  0  0  0  0  0  0  0  0  0  0
   24.2027  -11.3125  -14.7766 C   0  0  0  0  0  0  0  0  0  0  0  0
   22.7510  -11.7187  -14.9661 C   0  0  2  0  0  0  0  0  0  0  0  0
   22.7148  -12.8052  -15.9490 N   0  0  0  0  0  0  0  0  0  0  0  0
   21.9544  -10.5828  -15.5094 C   0  0  0  0  0  0  0  0  0  0  0  0
   21.6441  -10.5264  -16.7472 O   0  0  0  0  0  0  0  0  0  0  0  0
   21.4970   -9.5104  -14.7046 N   0  0  0  0  0  0  0  0  0  0  0  0
   20.6631   -8.4365  -15.2728 C   0  0  1  0  0  0  0  0  0  0  0  0
   19.2439   -8.5902  -14.8186 C   0  0  0  0  0  0  0  0  0  0  0  0
   18.3108   -7.5833  -15.2971 C   0  0  0  0  0  0  0  0  0  0  0  0
   18.4103   -6.9997  -16.3979 O   0  0  0  0  0  0  0  0  0  0  0  0
   21.2521   -7.1314  -14.8754 C   0  0  0  0  0  0  0  0  0  0  0  0
   21.8550   -7.0293  -13.8015 O   0  0  0  0  0  0  0  0  0  0  0  0
   17.2036   -7.2120  -14.4950 O   0  0  0  0  0  0  0  0  0  0  0  0
   20.9207   -3.3846  -17.1961 C   0  0  0  0  0  0  0  0  0  0  0  0
   22.1433   -3.9130  -16.5406 C   0  0  1  0  0  0  0  0  0  0  0  0
   22.9654   -2.8488  -16.1760 O   0  0  0  0  0  0  0  0  0  0  0  0
   21.8664   -4.7829  -15.3404 C   0  0  2  0  0  0  0  0  0  0  0  0
   21.1465   -5.9773  -15.6999 N   0  0  0  0  0  0  0  0  0  0  0  0
   21.1759   -4.0885  -14.2590 C   0  0  0  0  0  0  0  0  0  0  0  0
   19.9844   -4.4018  -14.0020 O   0  0  0  0  0  0  0  0  0  0  0  0
   21.7356   -3.0905  -13.4751 O   0  0  0  0  0  0  0  0  0  0  0  0
  1  2  1  0
  2  3  1  0
  3  4  1  6
  5  3  1  0
  5  7  1  0
  6  5  2  0
  8  7  1  0
  8 12  1  0
  8  9  1  1
 10  9  1  0
 10 14  1  0
 11 10  2  0
 12 13  2  0
 12 19  1  0
 16 15  1  1
 17 16  1  0
 18 16  1  0
 18 20  1  0
 18 19  1  6
 20 22  1  0
 21 20  2  0
M  END
$$$$
