SDT.pdb
     RDKit          3D

 22 21  0  0  1  0  0  0  0  0999 V2000
   25.8770  -11.4556  -19.6808 O   0  0  0  0  0  0  0  0  0  0  0  0
   24.8465  -10.5511  -19.4847 C   0  0  0  0  0  0  0  0  0  0  0  0
   23.6279  -11.2936  -18.9631 C   0  0  2  0  0  0  0  0  0  0  0  0
   23.0457  -12.0400  -20.0820 N   0  0  0  0  0  0  0  0  0  0  0  0
   22.6006  -10.3347  -18.4681 C   0  0  0  0  0  0  0  0  0  0  0  0
   21.9365   -9.6026  -19.2773 O   0  0  0  0  0  0  0  0  0  0  0  0
   22.2979  -10.1742  -17.0935 N   0  0  0  0  0  0  0  0  0  0  0  0
   21.3328   -9.1560  -16.6423 C   0  0  1  0  0  0  0  0  0  0  0  0
   20.2672   -9.7915  -15.8029 C   0  0  0  0  0  0  0  0  0  0  0  0
   19.3909  -10.7268  -16.4892 C   0  0  0  0  0  0  0  0  0  0  0  0
   19.0502  -10.6207  -17.6871 O   0  0  0  0  0  0  0  0  0  0  0  0
   22.0799   -8.0986  -15.9132 C   0  0  0  0  0  0  0  0  0  0  0  0
   22.9274   -8.4131  -15.0704 O   0  0  0  0  0  0  0  0  0  0  0  0
   18.8693  -11.8441  -15.7916 O   0  0  0  0  0  0  0  0  0  0  0  0
   23.7497   -4.9074  -17.6037 C   0  0  0  0  0  0  0  0  0  0  0  0
   22.9740   -4.5593  -16.3869 C   0  0  1  0  0  0  0  0  0  0  0  0
   21.7855   -3.9365  -16.7625 O   0  0  0  0  0  0  0  0  0  0  0  0
   22.6767   -5.7371  -15.4935 C   0  0  2  0  0  0  0  0  0  0  0  0
   21.8523   -6.7156  -16.1546 N   0  0  0  0  0  0  0  0  0  0  0  0
   22.0848   -5.3672  -14.2123 C   0  0  0  0  0  0  0  0  0  0  0  0
   20.9183   -5.7592  -13.9486 O   0  0  0  0  0  0  0  0  0  0  0  0
   22.7145   -4.6028  -13.2411 O   0  0  0  0  0  0  0  0  0  0  0  0
  1  2  1  0
  2  3  1  0
  3  4  1  6
  5  3  1  0
  5  7  1  0
  6  5  2  0
  8  7  1  0
  8 12  1  0
  8  9  1  1
 10  9  1  0
 10 14  1  0
 11 10  2  0
 12 13  2  0
 12 19  1  0
 16 15  1  6
 17 16  1  0
 18 16  1  0
 18 20  1  0
 18 19  1  6
 20 22  1  0
 21 20  2  0
M  END
$$$$
