SDT.pdb
     RDKit          3D

 22 21  0  0  1  0  0  0  0  0999 V2000
   15.7310  -13.6401  -15.0406 O   0  0  0  0  0  0  0  0  0  0  0  0
   14.8070  -13.8296  -14.0263 C   0  0  0  0  0  0  0  0  0  0  0  0
   14.2449  -12.4810  -13.6097 C   0  0  2  0  0  0  0  0  0  0  0  0
   13.7226  -11.8233  -14.8108 N   0  0  0  0  0  0  0  0  0  0  0  0
   15.3185  -11.6164  -13.0442 C   0  0  0  0  0  0  0  0  0  0  0  0
   15.9072  -11.9234  -11.9530 O   0  0  0  0  0  0  0  0  0  0  0  0
   15.7495  -10.4194  -13.6674 N   0  0  0  0  0  0  0  0  0  0  0  0
   16.7477   -9.5459  -13.0255 C   0  0  1  0  0  0  0  0  0  0  0  0
   17.6528   -8.9498  -14.0597 C   0  0  0  0  0  0  0  0  0  0  0  0
   18.5935   -7.9502  -13.5808 C   0  0  0  0  0  0  0  0  0  0  0  0
   18.6412   -6.7731  -13.9986 O   0  0  0  0  0  0  0  0  0  0  0  0
   16.0243   -8.5151  -12.2367 C   0  0  0  0  0  0  0  0  0  0  0  0
   15.0496   -7.9355  -12.7279 O   0  0  0  0  0  0  0  0  0  0  0  0
   19.5322   -8.2913  -12.5760 O   0  0  0  0  0  0  0  0  0  0  0  0
   15.0000   -6.3746   -7.9119 C   0  0  0  0  0  0  0  0  0  0  0  0
   15.8274   -7.3197   -8.7029 C   0  0  1  0  0  0  0  0  0  0  0  0
   15.5212   -8.6254   -8.3248 O   0  0  0  0  0  0  0  0  0  0  0  0
   15.6725   -7.1672  -10.1950 C   0  0  2  0  0  0  0  0  0  0  0  0
   16.4185   -8.1666  -10.9153 N   0  0  0  0  0  0  0  0  0  0  0  0
   16.0128   -5.8368  -10.6875 C   0  0  0  0  0  0  0  0  0  0  0  0
   17.1915   -5.6157  -11.0692 O   0  0  0  0  0  0  0  0  0  0  0  0
   15.1263   -4.7733  -10.7708 O   0  0  0  0  0  0  0  0  0  0  0  0
  1  2  1  0
  2  3  1  0
  3  4  1  6
  5  3  1  0
  5  7  1  0
  6  5  2  0
  8  7  1  0
  8 12  1  0
  8  9  1  6
 10  9  1  0
 10 14  1  0
 11 10  2  0
 12 13  2  0
 12 19  1  0
 16 15  1  1
 17 16  1  0
 18 16  1  0
 18 20  1  0
 18 19  1  6
 20 22  1  0
 21 20  2  0
M  END
$$$$
