DRY.pdb
     RDKit          3D

 32 32  0  0  1  0  0  0  0  0999 V2000
   16.9469  -12.3671  -13.4034 N   0  0  0  0  0  0  0  0  0  0  0  0
   17.3640  -11.2640  -14.2614 C   0  0  1  0  0  0  0  0  0  0  0  0
   16.7211  -11.4604  -15.6186 C   0  0  0  0  0  0  0  0  0  0  0  0
   17.2660  -12.7099  -16.2231 C   0  0  0  0  0  0  0  0  0  0  0  0
   18.2289  -13.3195  -15.6996 O   0  0  0  0  0  0  0  0  0  0  0  0
   16.8568  -10.0056  -13.6720 C   0  0  0  0  0  0  0  0  0  0  0  0
   16.6748   -8.9840  -14.3872 O   0  0  0  0  0  0  0  0  0  0  0  0
   16.7111  -13.2315  -17.3942 O   0  0  0  0  0  0  0  0  0  0  0  0
   12.3204   -6.6980   -8.2470 N   0  0  0  0  0  0  0  0  0  0  0  0
   13.3536   -6.3103   -7.3642 C   0  0  0  0  0  0  0  0  0  0  0  0
   13.2902   -5.2609   -6.6275 N   0  0  0  0  0  0  0  0  0  0  0  0
   14.5527   -7.1000   -7.2555 N   0  0  0  0  0  0  0  0  0  0  0  0
   14.7545   -8.3165   -8.0081 C   0  0  0  0  0  0  0  0  0  0  0  0
   15.3072   -7.9299   -9.3565 C   0  0  0  0  0  0  0  0  0  0  0  0
   15.6283   -9.0462  -10.2500 C   0  0  0  0  0  0  0  0  0  0  0  0
   16.1113   -8.7107  -11.6176 C   0  0  2  0  0  0  0  0  0  0  0  0
   16.5696   -9.9367  -12.2928 N   0  0  0  0  0  0  0  0  0  0  0  0
   17.2084   -7.7322  -11.6949 C   0  0  0  0  0  0  0  0  0  0  0  0
   18.3559   -8.0325  -11.1893 O   0  0  0  0  0  0  0  0  0  0  0  0
   14.0795   -5.0167   -6.0102 O   0  0  0  0  0  0  0  0  0  0  0  0
   23.2938   -2.3463  -14.9192 C   0  0  0  0  0  0  0  0  0  0  0  0
   22.2601   -3.2403  -14.5787 C   0  0  0  0  0  0  0  0  0  0  0  0
   20.9969   -3.1071  -15.1071 C   0  0  0  0  0  0  0  0  0  0  0  0
   19.9988   -4.0015  -14.7539 C   0  0  0  0  0  0  0  0  0  0  0  0
   20.2137   -5.0463  -13.8760 C   0  0  0  0  0  0  0  0  0  0  0  0
   19.1849   -5.9992  -13.4711 C   0  0  1  0  0  0  0  0  0  0  0  0
   18.3349   -5.5684  -12.3079 N   0  0  0  0  0  0  0  0  0  0  0  0
   17.1715   -6.4483  -12.2795 C   0  0  0  0  0  0  0  0  0  0  0  0
   17.8082   -4.2081  -12.5754 O   0  0  0  0  0  0  0  0  0  0  0  0
   18.4733   -3.0397  -12.2279 C   0  0  0  0  0  0  0  0  0  0  0  0
   21.4935   -5.1573  -13.3589 C   0  0  0  0  0  0  0  0  0  0  0  0
   22.4996   -4.2714  -13.7028 O   0  0  0  0  0  0  0  0  0  0  0  0
  2  1  1  1
  2  3  1  0
  4  3  1  0
  4  5  2  0
  6  7  2  0
  6  2  1  0
  8  4  1  0
 10  9  1  0
 10 12  1  0
 11 10  2  0
 12 13  1  0
 13 14  1  0
 14 15  1  0
 16 15  1  1
 16 17  1  0
 17  6  1  0
 18 16  1  0
 19 18  2  0
 21 31  2  0
 21 20  1  0
 22 21  1  0
 23 24  1  0
 23 22  2  0
 24 30  2  0
 26 25  1  1
 25 24  1  0
 26 28  1  0
 26 27  1  0
 27 18  1  0
 28 29  1  0
 30 31  1  0
 32 28  2  0
M  END
$$$$
