DRY.pdb
     RDKit          3D

 32 32  0  0  1  0  0  0  0  0999 V2000
   29.8269  -20.9451  -17.6133 N   0  0  0  0  0  0  0  0  0  0  0  0
   28.4848  -21.4545  -17.8704 C   0  0  1  0  0  0  0  0  0  0  0  0
   28.3077  -22.7271  -17.0686 C   0  0  0  0  0  0  0  0  0  0  0  0
   29.3843  -23.6834  -17.4563 C   0  0  0  0  0  0  0  0  0  0  0  0
   30.2136  -23.4003  -18.3535 O   0  0  0  0  0  0  0  0  0  0  0  0
   27.5114  -20.4497  -17.3896 C   0  0  0  0  0  0  0  0  0  0  0  0
   27.5706  -20.0038  -16.2123 O   0  0  0  0  0  0  0  0  0  0  0  0
   29.4924  -24.9240  -16.8234 O   0  0  0  0  0  0  0  0  0  0  0  0
   26.8866  -13.9967  -19.2467 N   0  0  0  0  0  0  0  0  0  0  0  0
   27.6323  -14.4693  -20.3502 C   0  0  0  0  0  0  0  0  0  0  0  0
   28.7315  -13.9307  -20.7368 N   0  0  0  0  0  0  0  0  0  0  0  0
   27.1730  -15.6056  -21.1061 N   0  0  0  0  0  0  0  0  0  0  0  0
   25.9842  -16.3465  -20.7527 C   0  0  0  0  0  0  0  0  0  0  0  0
   26.2882  -17.1197  -19.4946 C   0  0  0  0  0  0  0  0  0  0  0  0
   25.2566  -18.0724  -19.0751 C   0  0  0  0  0  0  0  0  0  0  0  0
   25.5479  -18.9153  -17.8832 C   0  0  2  0  0  0  0  0  0  0  0  0
   26.4997  -19.9772  -18.2514 N   0  0  0  0  0  0  0  0  0  0  0  0
   24.3885  -19.5665  -17.2516 C   0  0  0  0  0  0  0  0  0  0  0  0
   23.9076  -20.6415  -17.7768 O   0  0  0  0  0  0  0  0  0  0  0  0
   29.2053  -14.2788  -21.5841 O   0  0  0  0  0  0  0  0  0  0  0  0
   18.0027  -21.7550  -11.3692 C   0  0  0  0  0  0  0  0  0  0  0  0
   19.1024  -21.1875  -12.0418 C   0  0  0  0  0  0  0  0  0  0  0  0
   19.0340  -19.9258  -12.5858 C   0  0  0  0  0  0  0  0  0  0  0  0
   20.1318  -19.3926  -13.2427 C   0  0  0  0  0  0  0  0  0  0  0  0
   21.3212  -20.0813  -13.3821 C   0  0  0  0  0  0  0  0  0  0  0  0
   22.4928  -19.5579  -14.0776 C   0  0  1  0  0  0  0  0  0  0  0  0
   22.5773  -19.9022  -15.5388 N   0  0  0  0  0  0  0  0  0  0  0  0
   23.7014  -19.1534  -16.0903 C   0  0  0  0  0  0  0  0  0  0  0  0
   21.3691  -19.3843  -16.2253 O   0  0  0  0  0  0  0  0  0  0  0  0
   20.2220  -20.1359  -16.4432 C   0  0  0  0  0  0  0  0  0  0  0  0
   21.3630  -21.3487  -12.8256 C   0  0  0  0  0  0  0  0  0  0  0  0
   20.2744  -21.8934  -12.1671 O   0  0  0  0  0  0  0  0  0  0  0  0
  2  1  1  1
  2  3  1  0
  4  3  1  0
  4  5  2  0
  6  7  2  0
  6  2  1  0
  8  4  1  0
 10  9  1  0
 10 12  1  0
 11 10  2  0
 12 13  1  0
 13 14  1  0
 14 15  1  0
 16 15  1  6
 16 17  1  0
 17  6  1  0
 18 16  1  0
 19 18  2  0
 21 31  2  0
 21 20  1  0
 22 21  1  0
 23 24  1  0
 23 22  2  0
 24 30  2  0
 26 25  1  1
 25 24  1  0
 26 28  1  0
 26 27  1  0
 27 18  1  0
 28 29  1  0
 30 31  1  0
 32 28  2  0
M  END
$$$$
