DRY.pdb
     RDKit          3D

 32 32  0  0  1  0  0  0  0  0999 V2000
   24.8527  -18.1609  -19.9047 N   0  0  0  0  0  0  0  0  0  0  0  0
   24.9531  -18.2584  -18.4531 C   0  0  1  0  0  0  0  0  0  0  0  0
   25.1193  -16.8575  -17.9021 C   0  0  0  0  0  0  0  0  0  0  0  0
   26.4988  -16.3866  -18.2170 C   0  0  0  0  0  0  0  0  0  0  0  0
   26.7192  -15.1995  -18.5562 O   0  0  0  0  0  0  0  0  0  0  0  0
   23.6858  -18.8240  -17.9412 C   0  0  0  0  0  0  0  0  0  0  0  0
   22.6146  -18.1620  -17.9935 O   0  0  0  0  0  0  0  0  0  0  0  0
   27.5826  -17.2645  -18.1401 O   0  0  0  0  0  0  0  0  0  0  0  0
   21.3198  -27.0635  -18.7103 N   0  0  0  0  0  0  0  0  0  0  0  0
   20.7952  -25.8812  -19.2797 C   0  0  0  0  0  0  0  0  0  0  0  0
   20.1974  -25.8546  -20.4153 N   0  0  0  0  0  0  0  0  0  0  0  0
   20.9165  -24.6242  -18.5879 N   0  0  0  0  0  0  0  0  0  0  0  0
   21.4572  -24.5198  -17.2523 C   0  0  0  0  0  0  0  0  0  0  0  0
   21.3734  -23.0719  -16.8404 C   0  0  0  0  0  0  0  0  0  0  0  0
   22.4449  -22.2094  -17.3459 C   0  0  0  0  0  0  0  0  0  0  0  0
   22.4354  -20.7838  -16.9171 C   0  0  2  0  0  0  0  0  0  0  0  0
   23.6639  -20.1203  -17.3856 N   0  0  0  0  0  0  0  0  0  0  0  0
   22.3338  -20.5442  -15.4681 C   0  0  0  0  0  0  0  0  0  0  0  0
   23.3041  -20.9080  -14.7009 O   0  0  0  0  0  0  0  0  0  0  0  0
   19.8264  -24.9645  -20.7811 O   0  0  0  0  0  0  0  0  0  0  0  0
   14.8854  -19.7425  -14.0693 C   0  0  0  0  0  0  0  0  0  0  0  0
   16.2421  -19.4403  -13.8420 C   0  0  0  0  0  0  0  0  0  0  0  0
   17.0508  -18.9785  -14.8545 C   0  0  0  0  0  0  0  0  0  0  0  0
   18.3826  -18.6895  -14.6021 C   0  0  0  0  0  0  0  0  0  0  0  0
   18.9534  -18.8455  -13.3538 C   0  0  0  0  0  0  0  0  0  0  0  0
   20.3537  -18.5639  -13.0536 C   0  0  1  0  0  0  0  0  0  0  0  0
   21.3085  -19.6908  -13.3357 N   0  0  0  0  0  0  0  0  0  0  0  0
   21.2661  -19.9374  -14.7731 C   0  0  0  0  0  0  0  0  0  0  0  0
   20.7954  -20.9268  -12.6968 O   0  0  0  0  0  0  0  0  0  0  0  0
   20.8382  -21.1651  -11.3294 C   0  0  0  0  0  0  0  0  0  0  0  0
   18.1175  -19.3118  -12.3530 C   0  0  0  0  0  0  0  0  0  0  0  0
   16.7859  -19.6044  -12.5910 O   0  0  0  0  0  0  0  0  0  0  0  0
  2  1  1  6
  2  3  1  0
  4  3  1  0
  4  5  2  0
  6  7  2  0
  6  2  1  0
  8  4  1  0
 10  9  1  0
 10 12  1  0
 11 10  2  0
 12 13  1  0
 13 14  1  0
 14 15  1  0
 16 15  1  1
 16 17  1  0
 17  6  1  0
 18 16  1  0
 19 18  2  0
 21 31  2  0
 21 20  1  0
 22 21  1  0
 23 24  1  0
 23 22  2  0
 24 30  2  0
 26 25  1  6
 25 24  1  0
 26 28  1  0
 26 27  1  0
 27 18  1  0
 28 29  1  0
 30 31  1  0
 32 28  2  0
M  END
$$$$
