DRY.pdb
     RDKit          3D

 32 32  0  0  1  0  0  0  0  0999 V2000
   19.6132  -17.8948  -15.6599 N   0  0  0  0  0  0  0  0  0  0  0  0
   20.9991  -17.8322  -16.1097 C   0  0  1  0  0  0  0  0  0  0  0  0
   21.5851  -16.5196  -15.6327 C   0  0  0  0  0  0  0  0  0  0  0  0
   21.1500  -15.4411  -16.5661 C   0  0  0  0  0  0  0  0  0  0  0  0
   20.9201  -15.6811  -17.7754 O   0  0  0  0  0  0  0  0  0  0  0  0
   21.7399  -18.9434  -15.4736 C   0  0  0  0  0  0  0  0  0  0  0  0
   21.5055  -19.2778  -14.2812 O   0  0  0  0  0  0  0  0  0  0  0  0
   20.9883  -14.1308  -16.1095 O   0  0  0  0  0  0  0  0  0  0  0  0
   25.7575  -25.5120  -15.2723 N   0  0  0  0  0  0  0  0  0  0  0  0
   26.6313  -25.2065  -16.3402 C   0  0  0  0  0  0  0  0  0  0  0  0
   27.8327  -25.6526  -16.4135 N   0  0  0  0  0  0  0  0  0  0  0  0
   26.1947  -24.3568  -17.4176 N   0  0  0  0  0  0  0  0  0  0  0  0
   24.8318  -23.8936  -17.5403 C   0  0  0  0  0  0  0  0  0  0  0  0
   24.5748  -22.9331  -16.4070 C   0  0  0  0  0  0  0  0  0  0  0  0
   23.8114  -21.7326  -16.7586 C   0  0  0  0  0  0  0  0  0  0  0  0
   23.4770  -20.7877  -15.6579 C   0  0  2  0  0  0  0  0  0  0  0  0
   22.7234  -19.6450  -16.2014 N   0  0  0  0  0  0  0  0  0  0  0  0
   24.6177  -20.2412  -14.9047 C   0  0  0  0  0  0  0  0  0  0  0  0
   25.3123  -19.2853  -15.4208 O   0  0  0  0  0  0  0  0  0  0  0  0
   28.4363  -25.3788  -17.2036 O   0  0  0  0  0  0  0  0  0  0  0  0
   22.1424  -21.5192   -8.2687 C   0  0  0  0  0  0  0  0  0  0  0  0
   23.0850  -20.9569   -9.1512 C   0  0  0  0  0  0  0  0  0  0  0  0
   24.4215  -20.9022   -8.8295 C   0  0  0  0  0  0  0  0  0  0  0  0
   25.3269  -20.3427   -9.7173 C   0  0  0  0  0  0  0  0  0  0  0  0
   24.9457  -19.8242  -10.9397 C   0  0  0  0  0  0  0  0  0  0  0  0
   25.8678  -19.2163  -11.8939 C   0  0  1  0  0  0  0  0  0  0  0  0
   26.2905  -20.1045  -13.0311 N   0  0  0  0  0  0  0  0  0  0  0  0
   25.0730  -20.6408  -13.6301 C   0  0  0  0  0  0  0  0  0  0  0  0
   27.0212  -21.2726  -12.4827 O   0  0  0  0  0  0  0  0  0  0  0  0
   28.2868  -21.1961  -11.9164 C   0  0  0  0  0  0  0  0  0  0  0  0
   23.5951  -19.8918  -11.2383 C   0  0  0  0  0  0  0  0  0  0  0  0
   22.6801  -20.4476  -10.3613 O   0  0  0  0  0  0  0  0  0  0  0  0
  2  1  1  1
  2  3  1  0
  4  3  1  0
  4  5  2  0
  6  7  2  0
  6  2  1  0
  8  4  1  0
 10  9  1  0
 10 12  1  0
 11 10  2  0
 12 13  1  0
 13 14  1  0
 14 15  1  0
 16 15  1  6
 16 17  1  0
 17  6  1  0
 18 16  1  0
 19 18  2  0
 21 31  2  0
 21 20  1  0
 22 21  1  0
 23 24  1  0
 23 22  2  0
 24 30  2  0
 26 25  1  6
 25 24  1  0
 26 28  1  0
 26 27  1  0
 27 18  1  0
 28 29  1  0
 30 31  1  0
 32 28  2  0
M  END
$$$$
