DRY.pdb
     RDKit          3D

 32 32  0  0  1  0  0  0  0  0999 V2000
   18.4597  -13.9344  -17.4204 N   0  0  0  0  0  0  0  0  0  0  0  0
   19.7417  -14.1730  -16.7675 C   0  0  1  0  0  0  0  0  0  0  0  0
   19.6086  -13.7634  -15.3154 C   0  0  0  0  0  0  0  0  0  0  0  0
   19.5475  -12.2749  -15.2481 C   0  0  0  0  0  0  0  0  0  0  0  0
   18.7520  -11.6910  -14.4742 O   0  0  0  0  0  0  0  0  0  0  0  0
   20.0264  -15.6233  -16.8288 C   0  0  0  0  0  0  0  0  0  0  0  0
   19.0975  -16.4693  -16.7298 O   0  0  0  0  0  0  0  0  0  0  0  0
   20.3813  -11.4940  -16.0520 O   0  0  0  0  0  0  0  0  0  0  0  0
   25.8218  -21.6130  -19.7910 N   0  0  0  0  0  0  0  0  0  0  0  0
   24.9519  -20.7569  -20.5033 C   0  0  0  0  0  0  0  0  0  0  0  0
   24.4976  -21.0324  -21.6719 N   0  0  0  0  0  0  0  0  0  0  0  0
   24.5311  -19.5052  -19.9292 N   0  0  0  0  0  0  0  0  0  0  0  0
   24.9019  -19.0977  -18.5937 C   0  0  0  0  0  0  0  0  0  0  0  0
   23.6338  -18.9771  -17.7872 C   0  0  0  0  0  0  0  0  0  0  0  0
   23.0069  -17.6525  -17.7919 C   0  0  0  0  0  0  0  0  0  0  0  0
   21.7227  -17.5007  -17.0545 C   0  0  2  0  0  0  0  0  0  0  0  0
   21.3509  -16.0767  -17.0004 N   0  0  0  0  0  0  0  0  0  0  0  0
   21.7047  -18.0106  -15.6736 C   0  0  0  0  0  0  0  0  0  0  0  0
   22.3578  -17.3764  -14.7604 O   0  0  0  0  0  0  0  0  0  0  0  0
   23.9032  -20.3505  -22.1672 O   0  0  0  0  0  0  0  0  0  0  0  0
   19.7221  -19.8299   -7.4905 C   0  0  0  0  0  0  0  0  0  0  0  0
   19.8541  -19.5167   -8.8573 C   0  0  0  0  0  0  0  0  0  0  0  0
   18.8444  -19.7842   -9.7526 C   0  0  0  0  0  0  0  0  0  0  0  0
   19.0020  -19.4656  -11.0922 C   0  0  0  0  0  0  0  0  0  0  0  0
   20.1506  -18.8780  -11.5863 C   0  0  0  0  0  0  0  0  0  0  0  0
   20.3574  -18.5403  -12.9910 C   0  0  1  0  0  0  0  0  0  0  0  0
   21.1017  -19.5704  -13.7947 N   0  0  0  0  0  0  0  0  0  0  0  0
   21.0333  -19.1543  -15.1914 C   0  0  0  0  0  0  0  0  0  0  0  0
   20.3712  -20.8587  -13.7191 O   0  0  0  0  0  0  0  0  0  0  0  0
   19.6385  -21.3947  -14.7699 C   0  0  0  0  0  0  0  0  0  0  0  0
   21.1509  -18.6198  -10.6641 C   0  0  0  0  0  0  0  0  0  0  0  0
   21.0070  -18.9328   -9.3237 O   0  0  0  0  0  0  0  0  0  0  0  0
  2  1  1  6
  2  3  1  0
  4  3  1  0
  4  5  2  0
  6  7  2  0
  6  2  1  0
  8  4  1  0
 10  9  1  0
 10 12  1  0
 11 10  2  0
 12 13  1  0
 13 14  1  0
 14 15  1  0
 16 15  1  1
 16 17  1  0
 17  6  1  0
 18 16  1  0
 19 18  2  0
 21 31  2  0
 21 20  1  0
 22 21  1  0
 23 24  1  0
 23 22  2  0
 24 30  2  0
 26 25  1  1
 25 24  1  0
 26 28  1  0
 26 27  1  0
 27 18  1  0
 28 29  1  0
 30 31  1  0
 32 28  2  0
M  END
$$$$
