DRY.pdb
     RDKit          3D

 32 32  0  0  1  0  0  0  0  0999 V2000
   25.5064  -18.4111  -16.0248 N   0  0  0  0  0  0  0  0  0  0  0  0
   26.4335  -19.1438  -15.1702 C   0  0  1  0  0  0  0  0  0  0  0  0
   27.7334  -18.3683  -15.1199 C   0  0  0  0  0  0  0  0  0  0  0  0
   28.3692  -18.4240  -16.4677 C   0  0  0  0  0  0  0  0  0  0  0  0
   27.8101  -19.0070  -17.4270 O   0  0  0  0  0  0  0  0  0  0  0  0
   25.8586  -19.1982  -13.8083 C   0  0  0  0  0  0  0  0  0  0  0  0
   25.7467  -18.1540  -13.1115 O   0  0  0  0  0  0  0  0  0  0  0  0
   29.6104  -17.8234  -16.6915 O   0  0  0  0  0  0  0  0  0  0  0  0
   19.2459  -20.8279  -11.6880 N   0  0  0  0  0  0  0  0  0  0  0  0
   19.2511  -21.0451  -13.0844 C   0  0  0  0  0  0  0  0  0  0  0  0
   18.3378  -20.5976  -13.8676 N   0  0  0  0  0  0  0  0  0  0  0  0
   20.3114  -21.8005  -13.6996 N   0  0  0  0  0  0  0  0  0  0  0  0
   21.4249  -22.3328  -12.9487 C   0  0  0  0  0  0  0  0  0  0  0  0
   22.4311  -21.2227  -12.7802 C   0  0  0  0  0  0  0  0  0  0  0  0
   23.6679  -21.5926  -12.0867 C   0  0  0  0  0  0  0  0  0  0  0  0
   24.7297  -20.5545  -11.9810 C   0  0  2  0  0  0  0  0  0  0  0  0
   25.4266  -20.4293  -13.2723 N   0  0  0  0  0  0  0  0  0  0  0  0
   25.7559  -20.7805  -10.9499 C   0  0  0  0  0  0  0  0  0  0  0  0
   26.4374  -21.8748  -10.9700 O   0  0  0  0  0  0  0  0  0  0  0  0
   18.3585  -20.8346  -14.8711 O   0  0  0  0  0  0  0  0  0  0  0  0
   30.1063  -19.9966   -3.1188 C   0  0  0  0  0  0  0  0  0  0  0  0
   29.4886  -19.8197   -4.3721 C   0  0  0  0  0  0  0  0  0  0  0  0
   29.9098  -20.5162   -5.4812 C   0  0  0  0  0  0  0  0  0  0  0  0
   29.2835  -20.3217   -6.7022 C   0  0  0  0  0  0  0  0  0  0  0  0
   28.2311  -19.4418   -6.8659 C   0  0  0  0  0  0  0  0  0  0  0  0
   27.5561  -19.2014   -8.1375 C   0  0  1  0  0  0  0  0  0  0  0  0
   26.8215  -20.3837   -8.7063 N   0  0  0  0  0  0  0  0  0  0  0  0
   26.1129  -19.9164   -9.8929 C   0  0  0  0  0  0  0  0  0  0  0  0
   25.7722  -20.8047   -7.7468 O   0  0  0  0  0  0  0  0  0  0  0  0
   25.9883  -21.7028   -6.7099 C   0  0  0  0  0  0  0  0  0  0  0  0
   27.8274  -18.7537   -5.7340 C   0  0  0  0  0  0  0  0  0  0  0  0
   28.4437  -18.9381   -4.5086 O   0  0  0  0  0  0  0  0  0  0  0  0
  2  1  1  6
  2  3  1  0
  4  3  1  0
  4  5  2  0
  6  7  2  0
  6  2  1  0
  8  4  1  0
 10  9  1  0
 10 12  1  0
 11 10  2  0
 12 13  1  0
 13 14  1  0
 14 15  1  0
 16 15  1  6
 16 17  1  0
 17  6  1  0
 18 16  1  0
 19 18  2  0
 21 31  2  0
 21 20  1  0
 22 21  1  0
 23 24  1  0
 23 22  2  0
 24 30  2  0
 26 25  1  6
 25 24  1  0
 26 28  1  0
 26 27  1  0
 27 18  1  0
 28 29  1  0
 30 31  1  0
 32 28  2  0
M  END
$$$$
