DRY.pdb
     RDKit          3D

 32 32  0  0  1  0  0  0  0  0999 V2000
   28.9055  -26.9986  -17.2697 N   0  0  0  0  0  0  0  0  0  0  0  0
   27.5314  -26.5693  -17.5031 C   0  0  1  0  0  0  0  0  0  0  0  0
   26.6272  -27.3955  -16.6122 C   0  0  0  0  0  0  0  0  0  0  0  0
   25.8519  -28.3376  -17.4695 C   0  0  0  0  0  0  0  0  0  0  0  0
   26.4131  -29.0169  -18.3618 O   0  0  0  0  0  0  0  0  0  0  0  0
   27.4199  -25.1483  -17.1078 C   0  0  0  0  0  0  0  0  0  0  0  0
   28.2474  -24.6325  -16.3092 O   0  0  0  0  0  0  0  0  0  0  0  0
   24.4736  -28.4842  -17.2952 O   0  0  0  0  0  0  0  0  0  0  0  0
   22.4188  -20.8315  -19.7038 N   0  0  0  0  0  0  0  0  0  0  0  0
   22.2387  -21.8623  -20.6536 C   0  0  0  0  0  0  0  0  0  0  0  0
   21.0906  -22.1883  -21.1262 N   0  0  0  0  0  0  0  0  0  0  0  0
   23.3694  -22.6092  -21.1404 N   0  0  0  0  0  0  0  0  0  0  0  0
   24.7313  -22.2739  -20.7940 C   0  0  0  0  0  0  0  0  0  0  0  0
   25.0905  -23.0559  -19.5560 C   0  0  0  0  0  0  0  0  0  0  0  0
   25.4425  -22.2521  -18.3823 C   0  0  0  0  0  0  0  0  0  0  0  0
   26.2036  -22.9260  -17.2948 C   0  0  2  0  0  0  0  0  0  0  0  0
   26.3782  -24.3505  -17.6253 N   0  0  0  0  0  0  0  0  0  0  0  0
   25.6084  -22.8584  -15.9500 C   0  0  0  0  0  0  0  0  0  0  0  0
   24.7293  -23.7369  -15.6065 O   0  0  0  0  0  0  0  0  0  0  0  0
   21.0205  -22.9199  -21.8497 O   0  0  0  0  0  0  0  0  0  0  0  0
   23.6691  -20.2908   -7.5828 C   0  0  0  0  0  0  0  0  0  0  0  0
   24.2434  -20.4628   -8.8573 C   0  0  0  0  0  0  0  0  0  0  0  0
   25.4724  -21.0611   -9.0126 C   0  0  0  0  0  0  0  0  0  0  0  0
   26.0135  -21.2170  -10.2790 C   0  0  0  0  0  0  0  0  0  0  0  0
   25.3647  -20.7914  -11.4220 C   0  0  0  0  0  0  0  0  0  0  0  0
   25.9085  -20.9267  -12.7697 C   0  0  1  0  0  0  0  0  0  0  0  0
   25.2290  -21.9521  -13.6346 N   0  0  0  0  0  0  0  0  0  0  0  0
   25.8869  -21.9171  -14.9363 C   0  0  0  0  0  0  0  0  0  0  0  0
   23.8293  -21.5259  -13.8759 O   0  0  0  0  0  0  0  0  0  0  0  0
   22.7320  -22.0696  -13.2213 C   0  0  0  0  0  0  0  0  0  0  0  0
   24.1298  -20.1926  -11.2373 C   0  0  0  0  0  0  0  0  0  0  0  0
   23.5777  -20.0305   -9.9787 O   0  0  0  0  0  0  0  0  0  0  0  0
  2  1  1  1
  2  3  1  0
  4  3  1  0
  4  5  2  0
  6  7  2  0
  6  2  1  0
  8  4  1  0
 10  9  1  0
 10 12  1  0
 11 10  2  0
 12 13  1  0
 13 14  1  0
 14 15  1  0
 16 15  1  6
 16 17  1  0
 17  6  1  0
 18 16  1  0
 19 18  2  0
 21 31  2  0
 21 20  1  0
 22 21  1  0
 23 24  1  0
 23 22  2  0
 24 30  2  0
 26 25  1  1
 25 24  1  0
 26 28  1  0
 26 27  1  0
 27 18  1  0
 28 29  1  0
 30 31  1  0
 32 28  2  0
M  END
$$$$
