DRY.pdb
     RDKit          3D

 32 32  0  0  1  0  0  0  0  0999 V2000
   25.5245  -17.5281  -20.2647 N   0  0  0  0  0  0  0  0  0  0  0  0
   26.1901  -18.2432  -19.1820 C   0  0  1  0  0  0  0  0  0  0  0  0
   26.3620  -17.2816  -18.0246 C   0  0  0  0  0  0  0  0  0  0  0  0
   27.4437  -16.3150  -18.3702 C   0  0  0  0  0  0  0  0  0  0  0  0
   28.4482  -16.6718  -19.0308 O   0  0  0  0  0  0  0  0  0  0  0  0
   25.3096  -19.3517  -18.7532 C   0  0  0  0  0  0  0  0  0  0  0  0
   24.0574  -19.2103  -18.7286 O   0  0  0  0  0  0  0  0  0  0  0  0
   27.3601  -14.9816  -17.9620 O   0  0  0  0  0  0  0  0  0  0  0  0
   27.2212  -26.6220  -15.6164 N   0  0  0  0  0  0  0  0  0  0  0  0
   27.9912  -25.8025  -16.4723 C   0  0  0  0  0  0  0  0  0  0  0  0
   29.2286  -25.5343  -16.2609 N   0  0  0  0  0  0  0  0  0  0  0  0
   27.3991  -25.2186  -17.6479 N   0  0  0  0  0  0  0  0  0  0  0  0
   26.0436  -25.5021  -18.0594 C   0  0  0  0  0  0  0  0  0  0  0  0
   25.2213  -24.2661  -17.7964 C   0  0  0  0  0  0  0  0  0  0  0  0
   25.8291  -23.0021  -18.2213 C   0  0  0  0  0  0  0  0  0  0  0  0
   25.0620  -21.7529  -17.9618 C   0  0  2  0  0  0  0  0  0  0  0  0
   25.8674  -20.5876  -18.3648 N   0  0  0  0  0  0  0  0  0  0  0  0
   24.6373  -21.5311  -16.5699 C   0  0  0  0  0  0  0  0  0  0  0  0
   25.5173  -21.1944  -15.6898 O   0  0  0  0  0  0  0  0  0  0  0  0
   29.7328  -24.8960  -16.8950 O   0  0  0  0  0  0  0  0  0  0  0  0
   18.6191  -17.5390  -17.4431 C   0  0  0  0  0  0  0  0  0  0  0  0
   19.6990  -18.1058  -16.7387 C   0  0  0  0  0  0  0  0  0  0  0  0
   20.9510  -18.1963  -17.3019 C   0  0  0  0  0  0  0  0  0  0  0  0
   21.9953  -18.7592  -16.5854 C   0  0  0  0  0  0  0  0  0  0  0  0
   21.8389  -19.2462  -15.3021 C   0  0  0  0  0  0  0  0  0  0  0  0
   22.9111  -19.8567  -14.5225 C   0  0  1  0  0  0  0  0  0  0  0  0
   23.0240  -21.3508  -14.6485 N   0  0  0  0  0  0  0  0  0  0  0  0
   23.3319  -21.6401  -16.0450 C   0  0  0  0  0  0  0  0  0  0  0  0
   21.6949  -21.9566  -14.3923 O   0  0  0  0  0  0  0  0  0  0  0  0
   21.1272  -22.0693  -13.1300 C   0  0  0  0  0  0  0  0  0  0  0  0
   20.5690  -19.1430  -14.7594 C   0  0  0  0  0  0  0  0  0  0  0  0
   19.5172  -18.5832  -15.4633 O   0  0  0  0  0  0  0  0  0  0  0  0
  2  1  1  6
  2  3  1  0
  4  3  1  0
  4  5  2  0
  6  7  2  0
  6  2  1  0
  8  4  1  0
 10  9  1  0
 10 12  1  0
 11 10  2  0
 12 13  1  0
 13 14  1  0
 14 15  1  0
 16 15  1  1
 16 17  1  0
 17  6  1  0
 18 16  1  0
 19 18  2  0
 21 31  2  0
 21 20  1  0
 22 21  1  0
 23 24  1  0
 23 22  2  0
 24 30  2  0
 26 25  1  1
 25 24  1  0
 26 28  1  0
 26 27  1  0
 27 18  1  0
 28 29  1  0
 30 31  1  0
 32 28  2  0
M  END
$$$$
