DRY.pdb
     RDKit          3D

 32 32  0  0  1  0  0  0  0  0999 V2000
   21.5038  -19.2623  -13.8181 N   0  0  0  0  0  0  0  0  0  0  0  0
   21.0648  -19.8373  -12.5518 C   0  0  1  0  0  0  0  0  0  0  0  0
   19.8824  -20.7404  -12.8349 C   0  0  0  0  0  0  0  0  0  0  0  0
   18.7445  -19.8967  -13.3010 C   0  0  0  0  0  0  0  0  0  0  0  0
   18.2953  -18.9627  -12.5949 O   0  0  0  0  0  0  0  0  0  0  0  0
   22.1709  -20.6570  -12.0107 C   0  0  0  0  0  0  0  0  0  0  0  0
   21.9750  -21.4602  -11.0595 O   0  0  0  0  0  0  0  0  0  0  0  0
   18.1506  -20.1309  -14.5435 O   0  0  0  0  0  0  0  0  0  0  0  0
   29.8214  -22.7673  -15.7765 N   0  0  0  0  0  0  0  0  0  0  0  0
   28.5127  -22.7111  -16.3069 C   0  0  0  0  0  0  0  0  0  0  0  0
   28.1876  -23.2398  -17.4305 N   0  0  0  0  0  0  0  0  0  0  0  0
   27.4637  -22.0372  -15.5866 N   0  0  0  0  0  0  0  0  0  0  0  0
   27.6819  -21.4008  -14.3081 C   0  0  0  0  0  0  0  0  0  0  0  0
   26.3665  -20.8141  -13.8625 C   0  0  0  0  0  0  0  0  0  0  0  0
   25.3711  -21.7818  -13.3932 C   0  0  0  0  0  0  0  0  0  0  0  0
   24.5871  -21.4229  -12.1797 C   0  0  2  0  0  0  0  0  0  0  0  0
   23.4659  -20.5466  -12.5588 N   0  0  0  0  0  0  0  0  0  0  0  0
   25.3305  -20.7429  -11.1062 C   0  0  0  0  0  0  0  0  0  0  0  0
   25.4285  -19.4574  -11.1259 O   0  0  0  0  0  0  0  0  0  0  0  0
   27.2124  -23.1859  -17.7620 O   0  0  0  0  0  0  0  0  0  0  0  0
   28.9714  -18.2367   -3.4564 C   0  0  0  0  0  0  0  0  0  0  0  0
   28.3430  -18.9546   -4.4925 C   0  0  0  0  0  0  0  0  0  0  0  0
   28.5946  -20.2927   -4.6896 C   0  0  0  0  0  0  0  0  0  0  0  0
   27.9620  -20.9739   -5.7175 C   0  0  0  0  0  0  0  0  0  0  0  0
   27.0691  -20.3619   -6.5758 C   0  0  0  0  0  0  0  0  0  0  0  0
   26.3944  -21.0431   -7.6762 C   0  0  2  0  0  0  0  0  0  0  0  0
   26.7708  -20.5665   -9.0517 N   0  0  0  0  0  0  0  0  0  0  0  0
   25.9790  -21.3384  -10.0034 C   0  0  0  0  0  0  0  0  0  0  0  0
   28.1852  -20.9265   -9.3148 O   0  0  0  0  0  0  0  0  0  0  0  0
   29.2549  -20.0690   -9.0940 C   0  0  0  0  0  0  0  0  0  0  0  0
   26.8342  -19.0151   -6.3554 C   0  0  0  0  0  0  0  0  0  0  0  0
   27.4588  -18.3225   -5.3329 O   0  0  0  0  0  0  0  0  0  0  0  0
  2  1  1  6
  2  3  1  0
  4  3  1  0
  4  5  2  0
  6  7  2  0
  6  2  1  0
  8  4  1  0
 10  9  1  0
 10 12  1  0
 11 10  2  0
 12 13  1  0
 13 14  1  0
 14 15  1  0
 16 15  1  6
 16 17  1  0
 17  6  1  0
 18 16  1  0
 19 18  2  0
 21 31  2  0
 21 20  1  0
 22 21  1  0
 23 24  1  0
 23 22  2  0
 24 30  2  0
 26 25  1  1
 25 24  1  0
 26 28  1  0
 26 27  1  0
 27 18  1  0
 28 29  1  0
 30 31  1  0
 32 28  2  0
M  END
$$$$
