DRY.pdb
     RDKit          3D

 32 32  0  0  1  0  0  0  0  0999 V2000
   26.6082  -31.2905  -18.1743 N   0  0  0  0  0  0  0  0  0  0  0  0
   27.5440  -31.8391  -17.1996 C   0  0  1  0  0  0  0  0  0  0  0  0
   27.9615  -30.7175  -16.2715 C   0  0  0  0  0  0  0  0  0  0  0  0
   29.2464  -30.1467  -16.7684 C   0  0  0  0  0  0  0  0  0  0  0  0
   29.8320  -30.6331  -17.7649 O   0  0  0  0  0  0  0  0  0  0  0  0
   26.8350  -32.8705  -16.4111 C   0  0  0  0  0  0  0  0  0  0  0  0
   25.6109  -32.7473  -16.1377 O   0  0  0  0  0  0  0  0  0  0  0  0
   29.8292  -29.0498  -16.1291 O   0  0  0  0  0  0  0  0  0  0  0  0
   29.5061  -40.4802  -17.7134 N   0  0  0  0  0  0  0  0  0  0  0  0
   29.5387  -39.7047  -16.5325 C   0  0  0  0  0  0  0  0  0  0  0  0
   30.2086  -40.0409  -15.4904 N   0  0  0  0  0  0  0  0  0  0  0  0
   28.7985  -38.4723  -16.4503 N   0  0  0  0  0  0  0  0  0  0  0  0
   27.9090  -38.0272  -17.4980 C   0  0  0  0  0  0  0  0  0  0  0  0
   27.3356  -36.6991  -17.0732 C   0  0  0  0  0  0  0  0  0  0  0  0
   27.4166  -36.4070  -15.6394 C   0  0  0  0  0  0  0  0  0  0  0  0
   26.8946  -35.0911  -15.1788 C   0  0  2  0  0  0  0  0  0  0  0  0
   27.5279  -34.0111  -15.9544 N   0  0  0  0  0  0  0  0  0  0  0  0
   27.0910  -34.7795  -13.7534 C   0  0  0  0  0  0  0  0  0  0  0  0
   28.1680  -34.1741  -13.3846 O   0  0  0  0  0  0  0  0  0  0  0  0
   30.1906  -39.4418  -14.6512 O   0  0  0  0  0  0  0  0  0  0  0  0
   25.8938  -31.8943   -5.5202 C   0  0  0  0  0  0  0  0  0  0  0  0
   25.9598  -32.2643   -6.8776 C   0  0  0  0  0  0  0  0  0  0  0  0
   27.1613  -32.3216   -7.5452 C   0  0  0  0  0  0  0  0  0  0  0  0
   27.1962  -32.6885   -8.8813 C   0  0  0  0  0  0  0  0  0  0  0  0
   26.0570  -33.0078   -9.5944 C   0  0  0  0  0  0  0  0  0  0  0  0
   26.0534  -33.3857  -11.0041 C   0  0  1  0  0  0  0  0  0  0  0  0
   26.5524  -34.7737  -11.2965 N   0  0  0  0  0  0  0  0  0  0  0  0
   26.2144  -35.0660  -12.6853 C   0  0  0  0  0  0  0  0  0  0  0  0
   25.7832  -35.7431  -10.4792 O   0  0  0  0  0  0  0  0  0  0  0  0
   26.2611  -36.3181   -9.3090 C   0  0  0  0  0  0  0  0  0  0  0  0
   24.8614  -32.9419   -8.8987 C   0  0  0  0  0  0  0  0  0  0  0  0
   24.8118  -32.5770   -7.5646 O   0  0  0  0  0  0  0  0  0  0  0  0
  2  1  1  6
  2  3  1  0
  4  3  1  0
  4  5  2  0
  6  7  2  0
  6  2  1  0
  8  4  1  0
 10  9  1  0
 10 12  1  0
 11 10  2  0
 12 13  1  0
 13 14  1  0
 14 15  1  0
 16 15  1  6
 16 17  1  0
 17  6  1  0
 18 16  1  0
 19 18  2  0
 21 31  2  0
 21 20  1  0
 22 21  1  0
 23 24  1  0
 23 22  2  0
 24 30  2  0
 26 25  1  6
 25 24  1  0
 26 28  1  0
 26 27  1  0
 27 18  1  0
 28 29  1  0
 30 31  1  0
 32 28  2  0
M  END
$$$$
