DRY.pdb
     RDKit          3D

 32 32  0  0  1  0  0  0  0  0999 V2000
   24.6231  -19.4397  -19.4925 N   0  0  0  0  0  0  0  0  0  0  0  0
   24.3428  -18.5215  -18.3947 C   0  0  1  0  0  0  0  0  0  0  0  0
   23.9018  -17.2014  -18.9921 C   0  0  0  0  0  0  0  0  0  0  0  0
   25.0805  -16.5600  -19.6424 C   0  0  0  0  0  0  0  0  0  0  0  0
   26.2145  -16.5896  -19.1077 O   0  0  0  0  0  0  0  0  0  0  0  0
   23.2272  -19.0809  -17.6006 C   0  0  0  0  0  0  0  0  0  0  0  0
   22.0469  -19.0641  -18.0424 O   0  0  0  0  0  0  0  0  0  0  0  0
   24.9452  -15.9077  -20.8702 O   0  0  0  0  0  0  0  0  0  0  0  0
   23.0732  -24.3458  -13.5920 N   0  0  0  0  0  0  0  0  0  0  0  0
   24.2472  -24.5470  -14.3525 C   0  0  0  0  0  0  0  0  0  0  0  0
   24.4663  -25.6108  -15.0368 N   0  0  0  0  0  0  0  0  0  0  0  0
   25.2731  -23.5374  -14.3885 N   0  0  0  0  0  0  0  0  0  0  0  0
   25.1855  -22.3111  -13.6297 C   0  0  0  0  0  0  0  0  0  0  0  0
   24.5644  -21.2676  -14.5231 C   0  0  0  0  0  0  0  0  0  0  0  0
   23.1018  -21.3011  -14.6096 C   0  0  0  0  0  0  0  0  0  0  0  0
   22.4486  -20.3312  -15.5309 C   0  0  2  0  0  0  0  0  0  0  0  0
   23.4758  -19.6434  -16.3312 N   0  0  0  0  0  0  0  0  0  0  0  0
   21.6200  -19.2928  -14.8965 C   0  0  0  0  0  0  0  0  0  0  0  0
   22.1253  -18.5748  -13.9523 O   0  0  0  0  0  0  0  0  0  0  0  0
   25.3448  -25.7096  -15.5678 O   0  0  0  0  0  0  0  0  0  0  0  0
   15.5666  -12.8522  -13.7068 C   0  0  0  0  0  0  0  0  0  0  0  0
   16.4460  -13.8584  -14.1517 C   0  0  0  0  0  0  0  0  0  0  0  0
   17.8035  -13.7612  -13.9510 C   0  0  0  0  0  0  0  0  0  0  0  0
   18.6454  -14.7665  -14.4000 C   0  0  0  0  0  0  0  0  0  0  0  0
   18.1785  -15.8896  -15.0552 C   0  0  0  0  0  0  0  0  0  0  0  0
   19.0349  -16.9614  -15.5531 C   0  0  1  0  0  0  0  0  0  0  0  0
   19.5633  -17.8993  -14.5033 N   0  0  0  0  0  0  0  0  0  0  0  0
   20.2828  -18.9599  -15.2004 C   0  0  0  0  0  0  0  0  0  0  0  0
   18.4193  -18.5601  -13.8296 O   0  0  0  0  0  0  0  0  0  0  0  0
   17.8116  -18.0713  -12.6807 C   0  0  0  0  0  0  0  0  0  0  0  0
   16.8086  -15.9621  -15.2442 C   0  0  0  0  0  0  0  0  0  0  0  0
   15.9564  -14.9657  -14.8012 O   0  0  0  0  0  0  0  0  0  0  0  0
  2  1  1  6
  2  3  1  0
  4  3  1  0
  4  5  2  0
  6  7  2  0
  6  2  1  0
  8  4  1  0
 10  9  1  0
 10 12  1  0
 11 10  2  0
 12 13  1  0
 13 14  1  0
 14 15  1  0
 16 15  1  1
 16 17  1  0
 17  6  1  0
 18 16  1  0
 19 18  2  0
 21 31  2  0
 21 20  1  0
 22 21  1  0
 23 24  1  0
 23 22  2  0
 24 30  2  0
 26 25  1  1
 25 24  1  0
 26 28  1  0
 26 27  1  0
 27 18  1  0
 28 29  1  0
 30 31  1  0
 32 28  2  0
M  END
$$$$
