DRY.pdb
     RDKit          3D

 32 32  0  0  1  0  0  0  0  0999 V2000
   26.0904  -21.9465  -19.3015 N   0  0  0  0  0  0  0  0  0  0  0  0
   26.3867  -20.9694  -18.2603 C   0  0  1  0  0  0  0  0  0  0  0  0
   25.7435  -19.6567  -18.6563 C   0  0  0  0  0  0  0  0  0  0  0  0
   26.8058  -18.7475  -19.1747 C   0  0  0  0  0  0  0  0  0  0  0  0
   27.9891  -19.1404  -19.3098 O   0  0  0  0  0  0  0  0  0  0  0  0
   25.7718  -21.4396  -16.9997 C   0  0  0  0  0  0  0  0  0  0  0  0
   24.6922  -22.0897  -17.0101 O   0  0  0  0  0  0  0  0  0  0  0  0
   26.5028  -17.4292  -19.5233 O   0  0  0  0  0  0  0  0  0  0  0  0
   24.9445  -19.4590  -10.0432 N   0  0  0  0  0  0  0  0  0  0  0  0
   25.5294  -20.4328   -9.2025 C   0  0  0  0  0  0  0  0  0  0  0  0
   25.0929  -20.6963   -8.0245 N   0  0  0  0  0  0  0  0  0  0  0  0
   26.6720  -21.1874   -9.6479 N   0  0  0  0  0  0  0  0  0  0  0  0
   27.3000  -20.9651  -10.9298 C   0  0  0  0  0  0  0  0  0  0  0  0
   26.2647  -21.2267  -11.9942 C   0  0  0  0  0  0  0  0  0  0  0  0
   26.7597  -21.2086  -13.3734 C   0  0  0  0  0  0  0  0  0  0  0  0
   25.7674  -21.4367  -14.4594 C   0  0  2  0  0  0  0  0  0  0  0  0
   26.3932  -21.1628  -15.7641 N   0  0  0  0  0  0  0  0  0  0  0  0
   24.5344  -20.6355  -14.3887 C   0  0  0  0  0  0  0  0  0  0  0  0
   24.6087  -19.3543  -14.5135 O   0  0  0  0  0  0  0  0  0  0  0  0
   25.5636  -21.4109   -7.4489 O   0  0  0  0  0  0  0  0  0  0  0  0
   18.7740  -25.3237  -16.1945 C   0  0  0  0  0  0  0  0  0  0  0  0
   19.4134  -24.0850  -15.9930 C   0  0  0  0  0  0  0  0  0  0  0  0
   20.6684  -23.8377  -16.4995 C   0  0  0  0  0  0  0  0  0  0  0  0
   21.2737  -22.6095  -16.2853 C   0  0  0  0  0  0  0  0  0  0  0  0
   20.6653  -21.5954  -15.5712 C   0  0  0  0  0  0  0  0  0  0  0  0
   21.2763  -20.2950  -15.3146 C   0  0  1  0  0  0  0  0  0  0  0  0
   22.0800  -20.2038  -14.0471 N   0  0  0  0  0  0  0  0  0  0  0  0
   23.2176  -21.1051  -14.1963 C   0  0  0  0  0  0  0  0  0  0  0  0
   21.2750  -20.7487  -12.9272 O   0  0  0  0  0  0  0  0  0  0  0  0
   21.5448  -21.9566  -12.2975 C   0  0  0  0  0  0  0  0  0  0  0  0
   19.4030  -21.8707  -15.0726 C   0  0  0  0  0  0  0  0  0  0  0  0
   18.7868  -23.0926  -15.2788 O   0  0  0  0  0  0  0  0  0  0  0  0
  2  1  1  6
  2  3  1  0
  4  3  1  0
  4  5  2  0
  6  7  2  0
  6  2  1  0
  8  4  1  0
 10  9  1  0
 10 12  1  0
 11 10  2  0
 12 13  1  0
 13 14  1  0
 14 15  1  0
 16 15  1  1
 16 17  1  0
 17  6  1  0
 18 16  1  0
 19 18  2  0
 21 31  2  0
 21 20  1  0
 22 21  1  0
 23 24  1  0
 23 22  2  0
 24 30  2  0
 26 25  1  6
 25 24  1  0
 26 28  1  0
 26 27  1  0
 27 18  1  0
 28 29  1  0
 30 31  1  0
 32 28  2  0
M  END
$$$$
