DRY.pdb
     RDKit          3D

 32 32  0  0  1  0  0  0  0  0999 V2000
   22.7155  -12.8831  -20.6365 N   0  0  0  0  0  0  0  0  0  0  0  0
   23.2312  -12.2763  -19.4148 C   0  0  1  0  0  0  0  0  0  0  0  0
   24.7317  -12.1335  -19.5628 C   0  0  0  0  0  0  0  0  0  0  0  0
   25.3590  -13.4649  -19.3225 C   0  0  0  0  0  0  0  0  0  0  0  0
   24.6703  -14.4567  -18.9839 O   0  0  0  0  0  0  0  0  0  0  0  0
   22.6355  -10.9287  -19.2834 C   0  0  0  0  0  0  0  0  0  0  0  0
   22.4722  -10.1927  -20.2934 O   0  0  0  0  0  0  0  0  0  0  0  0
   26.7374  -13.6363  -19.4705 O   0  0  0  0  0  0  0  0  0  0  0  0
   16.9774   -8.9164  -13.5765 N   0  0  0  0  0  0  0  0  0  0  0  0
   16.6038   -9.5642  -14.7756 C   0  0  0  0  0  0  0  0  0  0  0  0
   15.3825   -9.7893  -15.1005 N   0  0  0  0  0  0  0  0  0  0  0  0
   17.6086  -10.0111  -15.7051 N   0  0  0  0  0  0  0  0  0  0  0  0
   19.0149  -10.0429  -15.3754 C   0  0  0  0  0  0  0  0  0  0  0  0
   19.7606  -10.4847  -16.6090 C   0  0  0  0  0  0  0  0  0  0  0  0
   20.1023   -9.4189  -17.5549 C   0  0  0  0  0  0  0  0  0  0  0  0
   21.5474   -9.1683  -17.8104 C   0  0  2  0  0  0  0  0  0  0  0  0
   22.2409  -10.4511  -18.0163 N   0  0  0  0  0  0  0  0  0  0  0  0
   22.2747   -8.4416  -16.7567 C   0  0  0  0  0  0  0  0  0  0  0  0
   22.7744   -9.1013  -15.7680 O   0  0  0  0  0  0  0  0  0  0  0  0
   15.1672  -10.3144  -15.9616 O   0  0  0  0  0  0  0  0  0  0  0  0
   20.8294   -1.0692  -18.1967 C   0  0  0  0  0  0  0  0  0  0  0  0
   21.6329   -2.1300  -17.7357 C   0  0  0  0  0  0  0  0  0  0  0  0
   21.9124   -3.2145  -18.5346 C   0  0  0  0  0  0  0  0  0  0  0  0
   22.7059   -4.2444  -18.0544 C   0  0  0  0  0  0  0  0  0  0  0  0
   23.2441   -4.2367  -16.7821 C   0  0  0  0  0  0  0  0  0  0  0  0
   24.0727   -5.3079  -16.2379 C   0  0  1  0  0  0  0  0  0  0  0  0
   23.3167   -6.4529  -15.6227 N   0  0  0  0  0  0  0  0  0  0  0  0
   22.5125   -7.0526  -16.6820 C   0  0  0  0  0  0  0  0  0  0  0  0
   22.3503   -5.9152  -14.6348 O   0  0  0  0  0  0  0  0  0  0  0  0
   22.7152   -5.4004  -13.3978 C   0  0  0  0  0  0  0  0  0  0  0  0
   22.9472   -3.1338  -15.9991 C   0  0  0  0  0  0  0  0  0  0  0  0
   22.1562   -2.0984  -16.4657 O   0  0  0  0  0  0  0  0  0  0  0  0
  2  1  1  6
  2  3  1  0
  4  3  1  0
  4  5  2  0
  6  7  2  0
  6  2  1  0
  8  4  1  0
 10  9  1  0
 10 12  1  0
 11 10  2  0
 12 13  1  0
 13 14  1  0
 14 15  1  0
 16 15  1  1
 16 17  1  0
 17  6  1  0
 18 16  1  0
 19 18  2  0
 21 31  2  0
 21 20  1  0
 22 21  1  0
 23 24  1  0
 23 22  2  0
 24 30  2  0
 26 25  1  6
 25 24  1  0
 26 28  1  0
 26 27  1  0
 27 18  1  0
 28 29  1  0
 30 31  1  0
 32 28  2  0
M  END
$$$$
