MWQ.pdb
     RDKit          3D

 32 33  0  0  1  0  0  0  0  0999 V2000
    7.6435  -11.5930   19.6342 C   0  0  0  0  0  0  0  0  0  0  0  0
    7.1244  -13.0230   18.6830 S   0  0  0  0  0  0  0  0  0  0  0  0
    7.2920  -14.5957   19.4951 C   0  0  0  0  0  0  0  0  0  0  0  0
    8.3872  -14.6957   20.5202 C   0  0  0  0  0  0  0  0  0  0  0  0
    8.4450  -16.0536   21.1061 C   0  0  2  0  0  0  0  0  0  0  0  0
    7.1430  -16.5649   21.4821 N   0  0  0  0  0  0  0  0  0  0  0  0
    9.2991  -16.0048   22.3567 C   0  0  0  0  0  0  0  0  0  0  0  0
   10.4273  -15.4688   22.3451 O   0  0  0  0  0  0  0  0  0  0  0  0
    8.8573  -16.5567   23.5708 N   0  0  0  0  0  0  0  0  0  0  0  0
    9.6599  -16.4912   24.7773 C   0  0  1  0  0  0  0  0  0  0  0  0
    8.8418  -16.4858   26.0094 C   0  0  0  0  0  0  0  0  0  0  0  0
    7.7193  -15.5488   25.9146 C   0  0  0  0  0  0  0  0  0  0  0  0
    6.4149  -15.8287   25.5648 C   0  0  0  0  0  0  0  0  0  0  0  0
    5.7000  -14.6914   25.5586 N   0  0  0  0  0  0  0  0  0  0  0  0
    6.4989  -13.6541   25.8985 C   0  0  0  0  0  0  0  0  0  0  0  0
    6.1922  -12.3149   26.0358 C   0  0  0  0  0  0  0  0  0  0  0  0
    7.2078  -11.4634   26.4198 C   0  0  0  0  0  0  0  0  0  0  0  0
    8.4771  -11.9491   26.6539 C   0  0  0  0  0  0  0  0  0  0  0  0
    8.7515  -13.2706   26.5107 C   0  0  0  0  0  0  0  0  0  0  0  0
    7.7590  -14.1794   26.1223 C   0  0  0  0  0  0  0  0  0  0  0  0
   10.8081  -17.4111   24.7205 C   0  0  0  0  0  0  0  0  0  0  0  0
   10.7014  -18.6244   24.4006 O   0  0  0  0  0  0  0  0  0  0  0  0
   12.8618  -18.4382   20.6834 N   0  0  0  0  0  0  0  0  0  0  0  0
   13.5899  -17.2997   21.0884 C   0  0  0  0  0  0  0  0  0  0  0  0
   13.9486  -16.4449   20.2650 O   0  0  0  0  0  0  0  0  0  0  0  0
   13.9628  -17.0722   22.5317 C   0  0  0  0  0  0  0  0  0  0  0  0
   13.4910  -18.1898   23.3928 C   0  0  0  0  0  0  0  0  0  0  0  0
   13.3052  -17.8568   24.8444 C   0  0  2  0  0  0  0  0  0  0  0  0
   12.1417  -16.9881   25.0273 N   0  0  0  0  0  0  0  0  0  0  0  0
   14.4976  -17.1500   25.3447 C   0  0  0  0  0  0  0  0  0  0  0  0
   14.5247  -15.9765   25.7861 O   0  0  0  0  0  0  0  0  0  0  0  0
   15.7234  -17.8477   25.3300 O   0  0  0  0  0  0  0  0  0  0  0  0
  1  2  1  0
  3  2  1  0
  4  3  1  0
  5  4  1  0
  5  6  1  1
  7  5  1  0
  7  8  2  0
  9  7  1  0
 10  9  1  0
 11 12  1  0
 10 11  1  1
 12 13  2  0
 13 14  1  0
 15 14  1  0
 16 15  2  0
 17 16  1  0
 18 19  1  0
 18 17  2  0
 19 20  2  0
 20 12  1  0
 20 15  1  0
 21 10  1  0
 22 21  2  0
 23 24  1  0
 24 26  1  0
 24 25  2  0
 26 27  1  0
 28 27  1  6
 28 29  1  0
 28 30  1  0
 29 21  1  0
 30 31  2  0
 30 32  1  0
M  END
$$$$
