MWQ.pdb
     RDKit          3D

 32 33  0  0  1  0  0  0  0  0999 V2000
   10.0428  -20.0195   21.3880 C   0  0  0  0  0  0  0  0  0  0  0  0
   10.5690  -20.0132   19.6727 S   0  0  0  0  0  0  0  0  0  0  0  0
   10.5521  -18.4304   18.8634 C   0  0  0  0  0  0  0  0  0  0  0  0
    9.1970  -17.8207   18.6345 C   0  0  0  0  0  0  0  0  0  0  0  0
    9.2557  -16.3445   18.7258 C   0  0  2  0  0  0  0  0  0  0  0  0
   10.4438  -15.7853   18.1144 N   0  0  0  0  0  0  0  0  0  0  0  0
    9.2618  -15.9504   20.1888 C   0  0  0  0  0  0  0  0  0  0  0  0
   10.3331  -15.7230   20.7897 O   0  0  0  0  0  0  0  0  0  0  0  0
    8.0697  -15.8256   20.9216 N   0  0  0  0  0  0  0  0  0  0  0  0
    8.0722  -15.5168   22.3389 C   0  0  1  0  0  0  0  0  0  0  0  0
    6.7216  -15.2171   22.8618 C   0  0  0  0  0  0  0  0  0  0  0  0
    6.7397  -14.9611   24.3044 C   0  0  0  0  0  0  0  0  0  0  0  0
    6.4691  -15.8518   25.3221 C   0  0  0  0  0  0  0  0  0  0  0  0
    6.5555  -15.2194   26.5041 N   0  0  0  0  0  0  0  0  0  0  0  0
    6.8797  -13.9222   26.2996 C   0  0  0  0  0  0  0  0  0  0  0  0
    7.0891  -12.9119   27.2171 C   0  0  0  0  0  0  0  0  0  0  0  0
    7.4354  -11.6684   26.7297 C   0  0  0  0  0  0  0  0  0  0  0  0
    7.5635  -11.4598   25.3725 C   0  0  0  0  0  0  0  0  0  0  0  0
    7.3513  -12.4708   24.4921 C   0  0  0  0  0  0  0  0  0  0  0  0
    6.9968  -13.7526   24.9316 C   0  0  0  0  0  0  0  0  0  0  0  0
    8.9100  -16.4571   23.1016 C   0  0  0  0  0  0  0  0  0  0  0  0
    8.9726  -17.6877   22.8420 O   0  0  0  0  0  0  0  0  0  0  0  0
   15.3106  -18.4331   23.8464 N   0  0  0  0  0  0  0  0  0  0  0  0
   14.4436  -17.3473   24.0909 C   0  0  0  0  0  0  0  0  0  0  0  0
   14.7192  -16.2073   23.6890 O   0  0  0  0  0  0  0  0  0  0  0  0
   13.1511  -17.5228   24.8473 C   0  0  0  0  0  0  0  0  0  0  0  0
   12.0318  -16.8106   24.1742 C   0  0  0  0  0  0  0  0  0  0  0  0
   10.6951  -16.9189   24.8479 C   0  0  2  0  0  0  0  0  0  0  0  0
    9.7220  -16.0357   24.2036 N   0  0  0  0  0  0  0  0  0  0  0  0
   10.8214  -16.5208   26.2612 C   0  0  0  0  0  0  0  0  0  0  0  0
   10.3005  -15.5095   26.7888 O   0  0  0  0  0  0  0  0  0  0  0  0
   11.5956  -17.3451   27.1043 O   0  0  0  0  0  0  0  0  0  0  0  0
  1  2  1  0
  3  2  1  0
  4  3  1  0
  5  4  1  0
  5  6  1  1
  7  5  1  0
  7  8  2  0
  9  7  1  0
 10  9  1  0
 11 12  1  0
 10 11  1  1
 12 13  2  0
 13 14  1  0
 15 14  1  0
 16 15  2  0
 17 16  1  0
 18 19  1  0
 18 17  2  0
 19 20  2  0
 20 12  1  0
 20 15  1  0
 21 10  1  0
 22 21  2  0
 23 24  1  0
 24 26  1  0
 24 25  2  0
 26 27  1  0
 28 27  1  6
 28 29  1  0
 28 30  1  0
 29 21  1  0
 30 31  2  0
 30 32  1  0
M  END
$$$$
