MWQ.pdb
     RDKit          3D

 32 33  0  0  1  0  0  0  0  0999 V2000
    6.9774  -11.7680   19.6683 C   0  0  0  0  0  0  0  0  0  0  0  0
    7.1640  -13.2237   18.6362 S   0  0  0  0  0  0  0  0  0  0  0  0
    7.5734  -14.7296   19.4880 C   0  0  0  0  0  0  0  0  0  0  0  0
    8.6830  -14.6356   20.4981 C   0  0  0  0  0  0  0  0  0  0  0  0
    8.9585  -15.9550   21.1098 C   0  0  2  0  0  0  0  0  0  0  0  0
    7.7797  -16.7906   21.2106 N   0  0  0  0  0  0  0  0  0  0  0  0
    9.4891  -15.7365   22.5121 C   0  0  0  0  0  0  0  0  0  0  0  0
   10.4608  -14.9801   22.7221 O   0  0  0  0  0  0  0  0  0  0  0  0
    8.9117  -16.3720   23.6241 N   0  0  0  0  0  0  0  0  0  0  0  0
    9.4621  -16.2277   24.9584 C   0  0  1  0  0  0  0  0  0  0  0  0
    8.4359  -16.3465   26.0168 C   0  0  0  0  0  0  0  0  0  0  0  0
    7.4005  -15.3176   25.8906 C   0  0  0  0  0  0  0  0  0  0  0  0
    6.1154  -15.4690   25.4132 C   0  0  0  0  0  0  0  0  0  0  0  0
    5.4919  -14.2792   25.4231 N   0  0  0  0  0  0  0  0  0  0  0  0
    6.3330  -13.3326   25.8987 C   0  0  0  0  0  0  0  0  0  0  0  0
    6.1171  -11.9838   26.0996 C   0  0  0  0  0  0  0  0  0  0  0  0
    7.1554  -11.2422   26.6250 C   0  0  0  0  0  0  0  0  0  0  0  0
    8.3582  -11.8426   26.9326 C   0  0  0  0  0  0  0  0  0  0  0  0
    8.5439  -13.1709   26.7244 C   0  0  0  0  0  0  0  0  0  0  0  0
    7.5246  -13.9710   26.1928 C   0  0  0  0  0  0  0  0  0  0  0  0
   10.7078  -16.9953   25.1216 C   0  0  0  0  0  0  0  0  0  0  0  0
   10.7476  -18.1354   25.6550 O   0  0  0  0  0  0  0  0  0  0  0  0
   11.8939  -20.9837   27.6647 N   0  0  0  0  0  0  0  0  0  0  0  0
   12.9491  -20.5262   26.8476 C   0  0  0  0  0  0  0  0  0  0  0  0
   13.7118  -21.3244   26.2833 O   0  0  0  0  0  0  0  0  0  0  0  0
   13.1959  -19.0554   26.6250 C   0  0  0  0  0  0  0  0  0  0  0  0
   12.9336  -18.6728   25.2115 C   0  0  0  0  0  0  0  0  0  0  0  0
   13.2221  -17.2420   24.8622 C   0  0  2  0  0  0  0  0  0  0  0  0
   11.9759  -16.4962   24.6809 N   0  0  0  0  0  0  0  0  0  0  0  0
   13.9859  -17.1862   23.6031 C   0  0  0  0  0  0  0  0  0  0  0  0
   13.5146  -17.3369   22.4508 O   0  0  0  0  0  0  0  0  0  0  0  0
   15.3722  -16.9415   23.6916 O   0  0  0  0  0  0  0  0  0  0  0  0
  1  2  1  0
  3  2  1  0
  4  3  1  0
  5  4  1  0
  5  6  1  1
  7  5  1  0
  7  8  2  0
  9  7  1  0
 10  9  1  0
 11 12  1  0
 10 11  1  1
 12 13  2  0
 13 14  1  0
 15 14  1  0
 16 15  2  0
 17 16  1  0
 18 19  1  0
 18 17  2  0
 19 20  2  0
 20 12  1  0
 20 15  1  0
 21 10  1  0
 22 21  2  0
 23 24  1  0
 24 26  1  0
 24 25  2  0
 26 27  1  0
 28 27  1  6
 28 29  1  0
 28 30  1  0
 29 21  1  0
 30 31  2  0
 30 32  1  0
M  END
$$$$
