MWQ.pdb
     RDKit          3D

 32 33  0  0  1  0  0  0  0  0999 V2000
    7.5828  -11.6578   19.5359 C   0  0  0  0  0  0  0  0  0  0  0  0
    6.8308  -13.0872   18.7546 S   0  0  0  0  0  0  0  0  0  0  0  0
    7.1209  -14.6486   19.5537 C   0  0  0  0  0  0  0  0  0  0  0  0
    8.0349  -14.6194   20.7471 C   0  0  0  0  0  0  0  0  0  0  0  0
    8.3009  -15.9869   21.2469 C   0  0  2  0  0  0  0  0  0  0  0  0
    7.0981  -16.6899   21.6431 N   0  0  0  0  0  0  0  0  0  0  0  0
    9.1998  -15.8910   22.4630 C   0  0  0  0  0  0  0  0  0  0  0  0
   10.2838  -15.2722   22.4149 O   0  0  0  0  0  0  0  0  0  0  0  0
    8.8504  -16.4903   23.6846 N   0  0  0  0  0  0  0  0  0  0  0  0
    9.6928  -16.3777   24.8601 C   0  0  1  0  0  0  0  0  0  0  0  0
    8.9162  -16.3207   26.1175 C   0  0  0  0  0  0  0  0  0  0  0  0
    7.7376  -15.4594   25.9922 C   0  0  0  0  0  0  0  0  0  0  0  0
    6.4468  -15.8363   25.6856 C   0  0  0  0  0  0  0  0  0  0  0  0
    5.6643  -14.7459   25.6288 N   0  0  0  0  0  0  0  0  0  0  0  0
    6.4045  -13.6448   25.8923 C   0  0  0  0  0  0  0  0  0  0  0  0
    6.0196  -12.3205   25.9590 C   0  0  0  0  0  0  0  0  0  0  0  0
    6.9880  -11.3891   26.2727 C   0  0  0  0  0  0  0  0  0  0  0  0
    8.2882  -11.7839   26.5082 C   0  0  0  0  0  0  0  0  0  0  0  0
    8.6397  -13.0928   26.4355 C   0  0  0  0  0  0  0  0  0  0  0  0
    7.6977  -14.0802   26.1202 C   0  0  0  0  0  0  0  0  0  0  0  0
   10.8378  -17.3013   24.8025 C   0  0  0  0  0  0  0  0  0  0  0  0
   10.7145  -18.5532   24.8608 O   0  0  0  0  0  0  0  0  0  0  0  0
   16.6596  -15.3259   23.2644 N   0  0  0  0  0  0  0  0  0  0  0  0
   15.5914  -15.5390   22.3678 C   0  0  0  0  0  0  0  0  0  0  0  0
   15.6662  -15.1703   21.1864 O   0  0  0  0  0  0  0  0  0  0  0  0
   14.3184  -16.2202   22.8028 C   0  0  0  0  0  0  0  0  0  0  0  0
   14.5314  -17.0232   24.0368 C   0  0  0  0  0  0  0  0  0  0  0  0
   13.3250  -17.7508   24.5541 C   0  0  2  0  0  0  0  0  0  0  0  0
   12.1871  -16.8382   24.6741 N   0  0  0  0  0  0  0  0  0  0  0  0
   13.6185  -18.3073   25.8868 C   0  0  0  0  0  0  0  0  0  0  0  0
   13.1527  -17.8928   26.9748 O   0  0  0  0  0  0  0  0  0  0  0  0
   14.5014  -19.4052   25.9551 O   0  0  0  0  0  0  0  0  0  0  0  0
  1  2  1  0
  3  2  1  0
  4  3  1  0
  5  4  1  0
  5  6  1  1
  7  5  1  0
  7  8  2  0
  9  7  1  0
 10  9  1  0
 11 12  1  0
 10 11  1  1
 12 13  2  0
 13 14  1  0
 15 14  1  0
 16 15  2  0
 17 16  1  0
 18 19  1  0
 18 17  2  0
 19 20  2  0
 20 12  1  0
 20 15  1  0
 21 10  1  0
 22 21  2  0
 23 24  1  0
 24 26  1  0
 24 25  2  0
 26 27  1  0
 28 27  1  1
 28 29  1  0
 28 30  1  0
 29 21  1  0
 30 31  2  0
 30 32  1  0
M  END
$$$$
