MWQ.pdb
     RDKit          3D

 32 33  0  0  1  0  0  0  0  0999 V2000
    8.3887  -11.6715   19.7048 C   0  0  0  0  0  0  0  0  0  0  0  0
    7.3152  -12.9621   19.0717 S   0  0  0  0  0  0  0  0  0  0  0  0
    7.6584  -14.6078   19.6500 C   0  0  0  0  0  0  0  0  0  0  0  0
    8.4814  -14.7083   20.9043 C   0  0  0  0  0  0  0  0  0  0  0  0
    8.7191  -16.1220   21.2727 C   0  0  2  0  0  0  0  0  0  0  0  0
    7.5428  -16.9533   21.1202 N   0  0  0  0  0  0  0  0  0  0  0  0
    9.1374  -16.1787   22.7279 C   0  0  0  0  0  0  0  0  0  0  0  0
   10.1746  -15.6051   23.1222 O   0  0  0  0  0  0  0  0  0  0  0  0
    8.3790  -16.8742   23.6843 N   0  0  0  0  0  0  0  0  0  0  0  0
    8.8334  -17.0321   25.0528 C   0  0  1  0  0  0  0  0  0  0  0  0
    7.7436  -16.8720   26.0399 C   0  0  0  0  0  0  0  0  0  0  0  0
    7.0476  -15.5924   25.8811 C   0  0  0  0  0  0  0  0  0  0  0  0
    5.8143  -15.3694   25.3055 C   0  0  0  0  0  0  0  0  0  0  0  0
    5.5461  -14.0532   25.3191 N   0  0  0  0  0  0  0  0  0  0  0  0
    6.5749  -13.3888   25.8935 C   0  0  0  0  0  0  0  0  0  0  0  0
    6.7256  -12.0375   26.1337 C   0  0  0  0  0  0  0  0  0  0  0  0
    7.8823  -11.6260   26.7635 C   0  0  0  0  0  0  0  0  0  0  0  0
    8.8425  -12.5444   27.1329 C   0  0  0  0  0  0  0  0  0  0  0  0
    8.6691  -13.8674   26.8841 C   0  0  0  0  0  0  0  0  0  0  0  0
    7.5149  -14.3403   26.2470 C   0  0  0  0  0  0  0  0  0  0  0  0
    9.7281  -18.1919   25.2012 C   0  0  0  0  0  0  0  0  0  0  0  0
    9.5074  -19.3045   24.6541 O   0  0  0  0  0  0  0  0  0  0  0  0
   13.4879  -18.6441   21.8561 N   0  0  0  0  0  0  0  0  0  0  0  0
   14.3430  -19.3010   22.7658 C   0  0  0  0  0  0  0  0  0  0  0  0
   15.3029  -19.9763   22.3660 O   0  0  0  0  0  0  0  0  0  0  0  0
   14.1297  -19.2126   24.2559 C   0  0  0  0  0  0  0  0  0  0  0  0
   12.8890  -18.4579   24.5788 C   0  0  0  0  0  0  0  0  0  0  0  0
   12.0795  -18.9980   25.7213 C   0  0  2  0  0  0  0  0  0  0  0  0
   10.9255  -18.1375   25.9853 N   0  0  0  0  0  0  0  0  0  0  0  0
   12.9123  -19.0463   26.9363 C   0  0  0  0  0  0  0  0  0  0  0  0
   12.7659  -18.3312   27.9560 O   0  0  0  0  0  0  0  0  0  0  0  0
   13.9715  -19.9773   26.9644 O   0  0  0  0  0  0  0  0  0  0  0  0
  1  2  1  0
  3  2  1  0
  4  3  1  0
  5  4  1  0
  5  6  1  1
  7  5  1  0
  7  8  2  0
  9  7  1  0
 10  9  1  0
 11 12  1  0
 10 11  1  1
 12 13  2  0
 13 14  1  0
 15 14  1  0
 16 15  2  0
 17 16  1  0
 18 19  1  0
 18 17  2  0
 19 20  2  0
 20 12  1  0
 20 15  1  0
 21 10  1  0
 22 21  2  0
 23 24  1  0
 24 26  1  0
 24 25  2  0
 26 27  1  0
 28 27  1  6
 28 29  1  0
 28 30  1  0
 29 21  1  0
 30 31  2  0
 30 32  1  0
M  END
$$$$
