MWQ.pdb
     RDKit          3D

 32 33  0  0  1  0  0  0  0  0999 V2000
    8.1773  -12.6839   18.7018 C   0  0  0  0  0  0  0  0  0  0  0  0
    6.9215  -13.6679   19.5227 S   0  0  0  0  0  0  0  0  0  0  0  0
    7.1772  -15.4271   19.4976 C   0  0  0  0  0  0  0  0  0  0  0  0
    7.8868  -16.0078   20.6891 C   0  0  0  0  0  0  0  0  0  0  0  0
    9.2218  -15.3931   20.8649 C   0  0  2  0  0  0  0  0  0  0  0  0
   10.1609  -15.7709   19.8290 N   0  0  0  0  0  0  0  0  0  0  0  0
    9.7928  -15.8485   22.1924 C   0  0  0  0  0  0  0  0  0  0  0  0
   10.5770  -16.8186   22.2569 O   0  0  0  0  0  0  0  0  0  0  0  0
    9.4647  -15.2005   23.3950 N   0  0  0  0  0  0  0  0  0  0  0  0
    9.8937  -15.7141   24.6820 C   0  0  1  0  0  0  0  0  0  0  0  0
    9.7104  -14.7379   25.7778 C   0  0  0  0  0  0  0  0  0  0  0  0
    8.3068  -14.3464   25.9304 C   0  0  0  0  0  0  0  0  0  0  0  0
    7.1910  -15.1498   25.8219 C   0  0  0  0  0  0  0  0  0  0  0  0
    6.0859  -14.4053   25.9922 N   0  0  0  0  0  0  0  0  0  0  0  0
    6.4384  -13.1182   26.2138 C   0  0  0  0  0  0  0  0  0  0  0  0
    5.6420  -12.0165   26.4556 C   0  0  0  0  0  0  0  0  0  0  0  0
    6.2722  -10.8084   26.6729 C   0  0  0  0  0  0  0  0  0  0  0  0
    7.6484  -10.7225   26.6460 C   0  0  0  0  0  0  0  0  0  0  0  0
    8.4076  -11.8215   26.4053 C   0  0  0  0  0  0  0  0  0  0  0  0
    7.8206  -13.0726   26.1772 C   0  0  0  0  0  0  0  0  0  0  0  0
    9.4240  -17.0915   24.9048 C   0  0  0  0  0  0  0  0  0  0  0  0
    8.5076  -17.6236   24.2244 O   0  0  0  0  0  0  0  0  0  0  0  0
   12.9492  -20.0964   21.8048 N   0  0  0  0  0  0  0  0  0  0  0  0
   13.3500  -20.1810   23.1549 C   0  0  0  0  0  0  0  0  0  0  0  0
   14.5443  -20.0844   23.4736 O   0  0  0  0  0  0  0  0  0  0  0  0
   12.3507  -20.3914   24.2643 C   0  0  0  0  0  0  0  0  0  0  0  0
   11.6010  -19.1407   24.5587 C   0  0  0  0  0  0  0  0  0  0  0  0
   10.5530  -19.2485   25.6276 C   0  0  2  0  0  0  0  0  0  0  0  0
    9.9810  -17.9336   25.9207 N   0  0  0  0  0  0  0  0  0  0  0  0
   11.1600  -19.7781   26.8617 C   0  0  0  0  0  0  0  0  0  0  0  0
   12.1527  -19.2963   27.4574 O   0  0  0  0  0  0  0  0  0  0  0  0
   10.5791  -20.9302   27.4318 O   0  0  0  0  0  0  0  0  0  0  0  0
  1  2  1  0
  3  2  1  0
  4  3  1  0
  5  4  1  0
  5  6  1  6
  7  5  1  0
  7  8  2  0
  9  7  1  0
 10  9  1  0
 11 12  1  0
 10 11  1  1
 12 13  2  0
 13 14  1  0
 15 14  1  0
 16 15  2  0
 17 16  1  0
 18 19  1  0
 18 17  2  0
 19 20  2  0
 20 12  1  0
 20 15  1  0
 21 10  1  0
 22 21  2  0
 23 24  1  0
 24 26  1  0
 24 25  2  0
 26 27  1  0
 28 27  1  6
 28 29  1  0
 28 30  1  0
 29 21  1  0
 30 31  2  0
 30 32  1  0
M  END
$$$$
