MWQ.pdb
     RDKit          3D

 32 33  0  0  1  0  0  0  0  0999 V2000
    6.5788  -13.4120   20.2078 C   0  0  0  0  0  0  0  0  0  0  0  0
    7.8931  -13.4602   18.9874 S   0  0  0  0  0  0  0  0  0  0  0  0
    8.7828  -14.9947   18.8677 C   0  0  0  0  0  0  0  0  0  0  0  0
    9.8440  -15.2250   19.9074 C   0  0  0  0  0  0  0  0  0  0  0  0
    9.4972  -16.3718   20.7765 C   0  0  2  0  0  0  0  0  0  0  0  0
    8.0692  -16.5867   20.8889 N   0  0  0  0  0  0  0  0  0  0  0  0
   10.0333  -16.1036   22.1680 C   0  0  0  0  0  0  0  0  0  0  0  0
   11.1255  -15.5210   22.3358 O   0  0  0  0  0  0  0  0  0  0  0  0
    9.3266  -16.4969   23.3167 N   0  0  0  0  0  0  0  0  0  0  0  0
    9.8359  -16.2451   24.6514 C   0  0  1  0  0  0  0  0  0  0  0  0
    9.6394  -14.8446   25.0843 C   0  0  0  0  0  0  0  0  0  0  0  0
    8.2368  -14.5634   25.4013 C   0  0  0  0  0  0  0  0  0  0  0  0
    7.1601  -15.4185   25.2921 C   0  0  0  0  0  0  0  0  0  0  0  0
    6.0373  -14.7703   25.6437 N   0  0  0  0  0  0  0  0  0  0  0  0
    6.3395  -13.4975   25.9877 C   0  0  0  0  0  0  0  0  0  0  0  0
    5.5112  -12.4839   26.4269 C   0  0  0  0  0  0  0  0  0  0  0  0
    6.0935  -11.2712   26.7336 C   0  0  0  0  0  0  0  0  0  0  0  0
    7.4548  -11.0952   26.6007 C   0  0  0  0  0  0  0  0  0  0  0  0
    8.2461  -12.1086   26.1660 C   0  0  0  0  0  0  0  0  0  0  0  0
    7.7081  -13.3600   25.8398 C   0  0  0  0  0  0  0  0  0  0  0  0
    9.4571  -17.3130   25.5914 C   0  0  0  0  0  0  0  0  0  0  0  0
    8.2981  -17.8028   25.6442 O   0  0  0  0  0  0  0  0  0  0  0  0
   12.0071  -21.2714   22.4330 N   0  0  0  0  0  0  0  0  0  0  0  0
   12.7607  -21.0220   23.5993 C   0  0  0  0  0  0  0  0  0  0  0  0
   13.9949  -20.9137   23.5509 O   0  0  0  0  0  0  0  0  0  0  0  0
   12.1039  -20.8771   24.9488 C   0  0  0  0  0  0  0  0  0  0  0  0
   11.5548  -19.5074   25.1366 C   0  0  0  0  0  0  0  0  0  0  0  0
   10.8440  -19.2656   26.4361 C   0  0  2  0  0  0  0  0  0  0  0  0
   10.3883  -17.8775   26.5219 N   0  0  0  0  0  0  0  0  0  0  0  0
   11.7649  -19.5238   27.5574 C   0  0  0  0  0  0  0  0  0  0  0  0
   11.8018  -20.5669   28.2524 O   0  0  0  0  0  0  0  0  0  0  0  0
   12.6919  -18.5127   27.8860 O   0  0  0  0  0  0  0  0  0  0  0  0
  1  2  1  0
  3  2  1  0
  4  3  1  0
  5  4  1  0
  5  6  1  1
  7  5  1  0
  7  8  2  0
  9  7  1  0
 10  9  1  0
 11 12  1  0
 10 11  1  1
 12 13  2  0
 13 14  1  0
 15 14  1  0
 16 15  2  0
 17 16  1  0
 18 19  1  0
 18 17  2  0
 19 20  2  0
 20 12  1  0
 20 15  1  0
 21 10  1  0
 22 21  2  0
 23 24  1  0
 24 26  1  0
 24 25  2  0
 26 27  1  0
 28 27  1  6
 28 29  1  0
 28 30  1  0
 29 21  1  0
 30 31  2  0
 30 32  1  0
M  END
$$$$
