MWQ.pdb
     RDKit          3D

 32 33  0  0  1  0  0  0  0  0999 V2000
    6.7422  -13.0744   17.7479 C   0  0  0  0  0  0  0  0  0  0  0  0
    7.3015  -13.1492   19.4510 S   0  0  0  0  0  0  0  0  0  0  0  0
    8.6720  -14.2360   19.7690 C   0  0  0  0  0  0  0  0  0  0  0  0
    9.1538  -14.2916   21.1922 C   0  0  0  0  0  0  0  0  0  0  0  0
    9.3200  -15.6915   21.6432 C   0  0  2  0  0  0  0  0  0  0  0  0
    8.1283  -16.4931   21.4553 N   0  0  0  0  0  0  0  0  0  0  0  0
    9.6435  -15.6875   23.1234 C   0  0  0  0  0  0  0  0  0  0  0  0
   10.5037  -14.9125   23.5922 O   0  0  0  0  0  0  0  0  0  0  0  0
    8.9918  -16.5499   24.0208 N   0  0  0  0  0  0  0  0  0  0  0  0
    9.3610  -16.6164   25.4220 C   0  0  1  0  0  0  0  0  0  0  0  0
    8.1893  -16.5955   26.3243 C   0  0  0  0  0  0  0  0  0  0  0  0
    7.2863  -15.4826   26.0199 C   0  0  0  0  0  0  0  0  0  0  0  0
    6.0717  -15.5364   25.3685 C   0  0  0  0  0  0  0  0  0  0  0  0
    5.5713  -14.2952   25.2528 N   0  0  0  0  0  0  0  0  0  0  0  0
    6.4256  -13.4097   25.8147 C   0  0  0  0  0  0  0  0  0  0  0  0
    6.3156  -12.0392   25.9414 C   0  0  0  0  0  0  0  0  0  0  0  0
    7.3375  -11.3736   26.5869 C   0  0  0  0  0  0  0  0  0  0  0  0
    8.4217  -12.0676   27.0816 C   0  0  0  0  0  0  0  0  0  0  0  0
    8.5049  -13.4151   26.9428 C   0  0  0  0  0  0  0  0  0  0  0  0
    7.4970  -14.1411   26.2955 C   0  0  0  0  0  0  0  0  0  0  0  0
   10.3969  -17.6337   25.6665 C   0  0  0  0  0  0  0  0  0  0  0  0
   10.8003  -17.9402   26.8194 O   0  0  0  0  0  0  0  0  0  0  0  0
   14.9841  -19.2522   21.8168 N   0  0  0  0  0  0  0  0  0  0  0  0
   15.3696  -19.8892   23.0151 C   0  0  0  0  0  0  0  0  0  0  0  0
   16.4597  -20.4728   23.1058 O   0  0  0  0  0  0  0  0  0  0  0  0
   14.4790  -19.8896   24.2319 C   0  0  0  0  0  0  0  0  0  0  0  0
   13.3136  -18.9836   24.0470 C   0  0  0  0  0  0  0  0  0  0  0  0
   12.0850  -19.3380   24.8327 C   0  0  2  0  0  0  0  0  0  0  0  0
   11.0257  -18.3551   24.6009 N   0  0  0  0  0  0  0  0  0  0  0  0
   12.4052  -19.3472   26.2712 C   0  0  0  0  0  0  0  0  0  0  0  0
   12.2584  -20.3189   27.0502 O   0  0  0  0  0  0  0  0  0  0  0  0
   12.9241  -18.1613   26.8315 O   0  0  0  0  0  0  0  0  0  0  0  0
  1  2  1  0
  3  2  1  0
  4  3  1  0
  5  4  1  0
  5  6  1  1
  7  5  1  0
  7  8  2  0
  9  7  1  0
 10  9  1  0
 11 12  1  0
 10 11  1  1
 12 13  2  0
 13 14  1  0
 15 14  1  0
 16 15  2  0
 17 16  1  0
 18 19  1  0
 18 17  2  0
 19 20  2  0
 20 12  1  0
 20 15  1  0
 21 10  1  0
 22 21  2  0
 23 24  1  0
 24 26  1  0
 24 25  2  0
 26 27  1  0
 28 27  1  6
 28 29  1  0
 28 30  1  0
 29 21  1  0
 30 31  2  0
 30 32  1  0
M  END
$$$$
