MWQ.pdb
     RDKit          3D

 32 33  0  0  1  0  0  0  0  0999 V2000
   14.2931  -17.3466   17.3837 C   0  0  0  0  0  0  0  0  0  0  0  0
   12.9383  -18.3889   17.9288 S   0  0  0  0  0  0  0  0  0  0  0  0
   11.4910  -17.5363   18.5110 C   0  0  0  0  0  0  0  0  0  0  0  0
   10.3807  -18.4035   19.0361 C   0  0  0  0  0  0  0  0  0  0  0  0
   10.5592  -18.6803   20.4791 C   0  0  2  0  0  0  0  0  0  0  0  0
    9.6306  -19.6696   20.9859 N   0  0  0  0  0  0  0  0  0  0  0  0
   10.3297  -17.3960   21.2498 C   0  0  0  0  0  0  0  0  0  0  0  0
   11.2074  -16.5085   21.2978 O   0  0  0  0  0  0  0  0  0  0  0  0
    9.1276  -17.1551   21.9358 N   0  0  0  0  0  0  0  0  0  0  0  0
    8.9295  -15.9610   22.7351 C   0  0  1  0  0  0  0  0  0  0  0  0
    7.5069  -15.5689   22.8356 C   0  0  0  0  0  0  0  0  0  0  0  0
    7.3509  -14.2169   23.3784 C   0  0  0  0  0  0  0  0  0  0  0  0
    7.5290  -13.0183   22.7196 C   0  0  0  0  0  0  0  0  0  0  0  0
    7.3276  -12.0034   23.5762 N   0  0  0  0  0  0  0  0  0  0  0  0
    7.0167  -12.4973   24.7965 C   0  0  0  0  0  0  0  0  0  0  0  0
    6.7156  -11.8286   25.9664 C   0  0  0  0  0  0  0  0  0  0  0  0
    6.4099  -12.5894   27.0762 C   0  0  0  0  0  0  0  0  0  0  0  0
    6.4097  -13.9665   27.0019 C   0  0  0  0  0  0  0  0  0  0  0  0
    6.7101  -14.5986   25.8390 C   0  0  0  0  0  0  0  0  0  0  0  0
    7.0287  -13.8760   24.6822 C   0  0  0  0  0  0  0  0  0  0  0  0
    9.7204  -15.9968   23.9764 C   0  0  0  0  0  0  0  0  0  0  0  0
    9.8303  -15.0091   24.7499 O   0  0  0  0  0  0  0  0  0  0  0  0
    9.8779  -18.1460   29.3969 N   0  0  0  0  0  0  0  0  0  0  0  0
    9.0664  -18.6798   28.3737 C   0  0  0  0  0  0  0  0  0  0  0  0
    8.2335  -19.5657   28.6160 O   0  0  0  0  0  0  0  0  0  0  0  0
    9.1747  -18.2005   26.9481 C   0  0  0  0  0  0  0  0  0  0  0  0
   10.1789  -17.1103   26.8209 C   0  0  0  0  0  0  0  0  0  0  0  0
   11.1389  -17.2427   25.6749 C   0  0  2  0  0  0  0  0  0  0  0  0
   10.4278  -17.1686   24.3979 N   0  0  0  0  0  0  0  0  0  0  0  0
   11.8228  -18.5459   25.7525 C   0  0  0  0  0  0  0  0  0  0  0  0
   11.6885  -19.4951   24.9442 O   0  0  0  0  0  0  0  0  0  0  0  0
   12.7102  -18.7536   26.8290 O   0  0  0  0  0  0  0  0  0  0  0  0
  1  2  1  0
  3  2  1  0
  4  3  1  0
  5  4  1  0
  5  6  1  1
  7  5  1  0
  7  8  2  0
  9  7  1  0
 10  9  1  0
 11 12  1  0
 10 11  1  1
 12 13  2  0
 13 14  1  0
 15 14  1  0
 16 15  2  0
 17 16  1  0
 18 19  1  0
 18 17  2  0
 19 20  2  0
 20 12  1  0
 20 15  1  0
 21 10  1  0
 22 21  2  0
 23 24  1  0
 24 26  1  0
 24 25  2  0
 26 27  1  0
 28 27  1  1
 28 29  1  0
 28 30  1  0
 29 21  1  0
 30 31  2  0
 30 32  1  0
M  END
$$$$
