TNG.pdb
     RDKit          3D

 20 19  0  0  1  0  0  0  0  0999 V2000
   23.9738   -8.8715  -17.2347 C   0  0  0  0  0  0  0  0  0  0  0  0
   23.1159   -9.9890  -17.7985 C   0  0  1  0  0  0  0  0  0  0  0  0
   23.8640  -11.0584  -18.2329 O   0  0  0  0  0  0  0  0  0  0  0  0
   22.1723  -10.4408  -16.7340 C   0  0  2  0  0  0  0  0  0  0  0  0
   21.4680  -11.6542  -17.0123 N   0  0  0  0  0  0  0  0  0  0  0  0
   21.2376   -9.3205  -16.4074 C   0  0  0  0  0  0  0  0  0  0  0  0
   20.3827   -8.9476  -17.2488 O   0  0  0  0  0  0  0  0  0  0  0  0
   18.3487   -9.5536  -14.8649 N   0  0  0  0  0  0  0  0  0  0  0  0
   18.7024   -8.9562  -13.6408 C   0  0  0  0  0  0  0  0  0  0  0  0
   18.0365   -9.2730  -12.6149 O   0  0  0  0  0  0  0  0  0  0  0  0
   19.7926   -7.9951  -13.4943 C   0  0  0  0  0  0  0  0  0  0  0  0
   20.4573   -7.5696  -14.7611 C   0  0  2  0  0  0  0  0  0  0  0  0
   21.3243   -8.6929  -15.1606 N   0  0  0  0  0  0  0  0  0  0  0  0
   21.2726   -6.3434  -14.6487 C   0  0  0  0  0  0  0  0  0  0  0  0
   22.2829   -6.3537  -13.9116 O   0  0  0  0  0  0  0  0  0  0  0  0
   20.9173   -5.1889  -15.3567 N   0  0  0  0  0  0  0  0  0  0  0  0
   21.6601   -3.9467  -15.3213 C   0  0  0  0  0  0  0  0  0  0  0  0
   21.1864   -3.0627  -14.2605 C   0  0  0  0  0  0  0  0  0  0  0  0
   20.2554   -3.3799  -13.4849 O   0  0  0  0  0  0  0  0  0  0  0  0
   21.7738   -1.8173  -14.0825 O   0  0  0  0  0  0  0  0  0  0  0  0
  2  1  1  1
  3  2  1  0
  4  5  1  6
  4  2  1  0
  6  4  1  0
  6  7  2  0
  8  9  1  0
  9 11  1  0
 10  9  2  0
 12 11  1  1
 12 13  1  0
 12 14  1  0
 13  6  1  0
 14 15  2  0
 14 16  1  0
 16 17  1  0
 18 17  1  0
 18 20  1  0
 19 18  2  0
M  END
$$$$
