TNG.pdb
     RDKit          3D

 20 19  0  0  1  0  0  0  0  0999 V2000
   24.7065  -21.3158   -8.2753 C   0  0  0  0  0  0  0  0  0  0  0  0
   24.6286  -20.6942   -9.6574 C   0  0  1  0  0  0  0  0  0  0  0  0
   24.1197  -19.4166   -9.6317 O   0  0  0  0  0  0  0  0  0  0  0  0
   26.0019  -20.6716  -10.2414 C   0  0  2  0  0  0  0  0  0  0  0  0
   26.9788  -19.9498   -9.4861 N   0  0  0  0  0  0  0  0  0  0  0  0
   25.9208  -20.1828  -11.6521 C   0  0  0  0  0  0  0  0  0  0  0  0
   26.3719  -19.0498  -11.9532 O   0  0  0  0  0  0  0  0  0  0  0  0
   28.0198  -20.5252  -14.2042 N   0  0  0  0  0  0  0  0  0  0  0  0
   27.2770  -21.4921  -14.9069 C   0  0  0  0  0  0  0  0  0  0  0  0
   27.9123  -22.3357  -15.6004 O   0  0  0  0  0  0  0  0  0  0  0  0
   25.8188  -21.5718  -14.8767 C   0  0  0  0  0  0  0  0  0  0  0  0
   25.1310  -20.5593  -14.0226 C   0  0  2  0  0  0  0  0  0  0  0  0
   25.3389  -20.9958  -12.6300 N   0  0  0  0  0  0  0  0  0  0  0  0
   23.6828  -20.4190  -14.2762 C   0  0  0  0  0  0  0  0  0  0  0  0
   22.8878  -21.1795  -13.6814 O   0  0  0  0  0  0  0  0  0  0  0  0
   23.2105  -19.4497  -15.1694 N   0  0  0  0  0  0  0  0  0  0  0  0
   21.8138  -19.1128  -15.3471 C   0  0  0  0  0  0  0  0  0  0  0  0
   21.0350  -20.2583  -15.8080 C   0  0  0  0  0  0  0  0  0  0  0  0
   21.3918  -20.9704  -16.7748 O   0  0  0  0  0  0  0  0  0  0  0  0
   19.8498  -20.5934  -15.1671 O   0  0  0  0  0  0  0  0  0  0  0  0
  2  1  1  1
  3  2  1  0
  4  5  1  1
  4  2  1  0
  6  4  1  0
  6  7  2  0
  8  9  1  0
  9 11  1  0
 10  9  2  0
 12 11  1  6
 12 13  1  0
 12 14  1  0
 13  6  1  0
 14 15  2  0
 14 16  1  0
 16 17  1  0
 18 17  1  0
 18 20  1  0
 19 18  2  0
M  END
$$$$
