TNG.pdb
     RDKit          3D

 20 19  0  0  1  0  0  0  0  0999 V2000
   19.2204  -12.9996  -19.1040 C   0  0  0  0  0  0  0  0  0  0  0  0
   19.2788  -12.4344  -17.6970 C   0  0  1  0  0  0  0  0  0  0  0  0
   19.5496  -13.3983  -16.7537 O   0  0  0  0  0  0  0  0  0  0  0  0
   20.3387  -11.3846  -17.6549 C   0  0  2  0  0  0  0  0  0  0  0  0
   21.5508  -11.7616  -16.9956 N   0  0  0  0  0  0  0  0  0  0  0  0
   19.7595  -10.1338  -17.0758 C   0  0  0  0  0  0  0  0  0  0  0  0
   18.7003   -9.6521  -17.5491 O   0  0  0  0  0  0  0  0  0  0  0  0
   17.5819   -9.5908  -14.3771 N   0  0  0  0  0  0  0  0  0  0  0  0
   18.6063   -9.1869  -13.5009 C   0  0  0  0  0  0  0  0  0  0  0  0
   18.4583   -9.4259  -12.2692 O   0  0  0  0  0  0  0  0  0  0  0  0
   19.8250   -8.5102  -13.9377 C   0  0  0  0  0  0  0  0  0  0  0  0
   19.9321   -8.2478  -15.4031 C   0  0  2  0  0  0  0  0  0  0  0  0
   20.4063   -9.5065  -16.0063 N   0  0  0  0  0  0  0  0  0  0  0  0
   20.8566   -7.1557  -15.7687 C   0  0  0  0  0  0  0  0  0  0  0  0
   22.0877   -7.3757  -15.7576 O   0  0  0  0  0  0  0  0  0  0  0  0
   20.3599   -5.8950  -16.1210 N   0  0  0  0  0  0  0  0  0  0  0  0
   21.1824   -4.7802  -16.5415 C   0  0  0  0  0  0  0  0  0  0  0  0
   21.7883   -4.0951  -15.4036 C   0  0  0  0  0  0  0  0  0  0  0  0
   21.5706   -4.4360  -14.2181 O   0  0  0  0  0  0  0  0  0  0  0  0
   22.6431   -3.0219  -15.6161 O   0  0  0  0  0  0  0  0  0  0  0  0
  2  1  1  6
  3  2  1  0
  4  5  1  1
  4  2  1  0
  6  4  1  0
  6  7  2  0
  8  9  1  0
  9 11  1  0
 10  9  2  0
 12 11  1  1
 12 13  1  0
 12 14  1  0
 13  6  1  0
 14 15  2  0
 14 16  1  0
 16 17  1  0
 18 17  1  0
 18 20  1  0
 19 18  2  0
M  END
$$$$
