TNG.pdb
     RDKit          3D

 20 19  0  0  1  0  0  0  0  0999 V2000
   21.7125  -11.1228  -17.5863 C   0  0  0  0  0  0  0  0  0  0  0  0
   20.2984  -10.7421  -17.9840 C   0  0  1  0  0  0  0  0  0  0  0  0
   19.5212  -11.8385  -18.2775 O   0  0  0  0  0  0  0  0  0  0  0  0
   19.6814   -9.9813  -16.8580 C   0  0  2  0  0  0  0  0  0  0  0  0
   18.2586   -9.8465  -16.9146 N   0  0  0  0  0  0  0  0  0  0  0  0
   20.3591   -8.6537  -16.7411 C   0  0  0  0  0  0  0  0  0  0  0  0
   20.0211   -7.7055  -17.4923 O   0  0  0  0  0  0  0  0  0  0  0  0
   23.4543   -4.7998  -14.7981 N   0  0  0  0  0  0  0  0  0  0  0  0
   22.4527   -5.3919  -14.0065 C   0  0  0  0  0  0  0  0  0  0  0  0
   22.1248   -4.8083  -12.9350 O   0  0  0  0  0  0  0  0  0  0  0  0
   21.7757   -6.6381  -14.3562 C   0  0  0  0  0  0  0  0  0  0  0  0
   22.1561   -7.2369  -15.6695 C   0  0  2  0  0  0  0  0  0  0  0  0
   21.3705   -8.4783  -15.7912 N   0  0  0  0  0  0  0  0  0  0  0  0
   23.5914   -7.5550  -15.8104 C   0  0  0  0  0  0  0  0  0  0  0  0
   24.4271   -6.6277  -15.7342 O   0  0  0  0  0  0  0  0  0  0  0  0
   24.0068   -8.8745  -16.0264 N   0  0  0  0  0  0  0  0  0  0  0  0
   25.3902   -9.2918  -16.1176 C   0  0  0  0  0  0  0  0  0  0  0  0
   25.9017   -9.1763  -17.4800 C   0  0  0  0  0  0  0  0  0  0  0  0
   25.2098   -8.7295  -18.4237 O   0  0  0  0  0  0  0  0  0  0  0  0
   27.2020   -9.5693  -17.7675 O   0  0  0  0  0  0  0  0  0  0  0  0
  2  1  1  1
  3  2  1  0
  4  5  1  6
  4  2  1  0
  6  4  1  0
  6  7  2  0
  8  9  1  0
  9 11  1  0
 10  9  2  0
 12 11  1  1
 12 13  1  0
 12 14  1  0
 13  6  1  0
 14 15  2  0
 14 16  1  0
 16 17  1  0
 18 17  1  0
 18 20  1  0
 19 18  2  0
M  END
$$$$
