TNG.pdb
     RDKit          3D

 20 19  0  0  1  0  0  0  0  0999 V2000
   16.8896  -11.2348  -14.5707 C   0  0  0  0  0  0  0  0  0  0  0  0
   17.7771  -11.3309  -15.7978 C   0  0  1  0  0  0  0  0  0  0  0  0
   17.4076  -12.3577  -16.6352 O   0  0  0  0  0  0  0  0  0  0  0  0
   17.7027  -10.0355  -16.5352 C   0  0  2  0  0  0  0  0  0  0  0  0
   18.1399  -10.0776  -17.8964 N   0  0  0  0  0  0  0  0  0  0  0  0
   18.4297   -8.9895  -15.7523 C   0  0  0  0  0  0  0  0  0  0  0  0
   18.1286   -8.7786  -14.5512 O   0  0  0  0  0  0  0  0  0  0  0  0
   21.2418   -8.9846  -13.7410 N   0  0  0  0  0  0  0  0  0  0  0  0
   22.0618   -8.4710  -14.7629 C   0  0  0  0  0  0  0  0  0  0  0  0
   23.2573   -8.8755  -14.8202 O   0  0  0  0  0  0  0  0  0  0  0  0
   21.6063   -7.5010  -15.7554 C   0  0  0  0  0  0  0  0  0  0  0  0
   20.1575   -7.1465  -15.6993 C   0  0  2  0  0  0  0  0  0  0  0  0
   19.4444   -8.2498  -16.3680 N   0  0  0  0  0  0  0  0  0  0  0  0
   19.8077   -5.8722  -16.3589 C   0  0  0  0  0  0  0  0  0  0  0  0
   19.8638   -5.8010  -17.6062 O   0  0  0  0  0  0  0  0  0  0  0  0
   19.4206   -4.7630  -15.5972 N   0  0  0  0  0  0  0  0  0  0  0  0
   19.1207   -3.4577  -16.1471 C   0  0  0  0  0  0  0  0  0  0  0  0
   20.2560   -2.9052  -16.8798 C   0  0  0  0  0  0  0  0  0  0  0  0
   21.4321   -2.9788  -16.4552 O   0  0  0  0  0  0  0  0  0  0  0  0
   20.0518   -2.2691  -18.0969 O   0  0  0  0  0  0  0  0  0  0  0  0
  2  1  1  1
  3  2  1  0
  4  5  1  6
  4  2  1  0
  6  4  1  0
  6  7  2  0
  8  9  1  0
  9 11  1  0
 10  9  2  0
 12 11  1  6
 12 13  1  0
 12 14  1  0
 13  6  1  0
 14 15  2  0
 14 16  1  0
 16 17  1  0
 18 17  1  0
 18 20  1  0
 19 18  2  0
M  END
$$$$
