TNG.pdb
     RDKit          3D

 20 19  0  0  1  0  0  0  0  0999 V2000
   18.2670   -6.0608  -18.1914 C   0  0  0  0  0  0  0  0  0  0  0  0
   17.5797   -7.3280  -17.7176 C   0  0  1  0  0  0  0  0  0  0  0  0
   16.9658   -8.0086  -18.7433 O   0  0  0  0  0  0  0  0  0  0  0  0
   18.6023   -8.2072  -17.0783 C   0  0  2  0  0  0  0  0  0  0  0  0
   18.1973   -9.5614  -16.8590 N   0  0  0  0  0  0  0  0  0  0  0  0
   19.0774   -7.5603  -15.8168 C   0  0  0  0  0  0  0  0  0  0  0  0
   18.3084   -7.4676  -14.8280 O   0  0  0  0  0  0  0  0  0  0  0  0
   20.3403   -8.5364  -12.6900 N   0  0  0  0  0  0  0  0  0  0  0  0
   21.6512   -8.3525  -13.1677 C   0  0  0  0  0  0  0  0  0  0  0  0
   22.5370   -9.1711  -12.7918 O   0  0  0  0  0  0  0  0  0  0  0  0
   22.0395   -7.2717  -14.0704 C   0  0  0  0  0  0  0  0  0  0  0  0
   20.9296   -6.3973  -14.5513 C   0  0  2  0  0  0  0  0  0  0  0  0
   20.3816   -7.0601  -15.7486 N   0  0  0  0  0  0  0  0  0  0  0  0
   21.3353   -5.0211  -14.9011 C   0  0  0  0  0  0  0  0  0  0  0  0
   21.7648   -4.2688  -13.9990 O   0  0  0  0  0  0  0  0  0  0  0  0
   21.2387   -4.5681  -16.2225 N   0  0  0  0  0  0  0  0  0  0  0  0
   21.6054   -3.2376  -16.6598 C   0  0  0  0  0  0  0  0  0  0  0  0
   20.5299   -2.2772  -16.4317 C   0  0  0  0  0  0  0  0  0  0  0  0
   19.4341   -2.6021  -15.9191 O   0  0  0  0  0  0  0  0  0  0  0  0
   20.7026   -0.9462  -16.7869 O   0  0  0  0  0  0  0  0  0  0  0  0
  2  1  1  6
  3  2  1  0
  4  5  1  1
  4  2  1  0
  6  4  1  0
  6  7  2  0
  8  9  1  0
  9 11  1  0
 10  9  2  0
 12 11  1  6
 12 13  1  0
 12 14  1  0
 13  6  1  0
 14 15  2  0
 14 16  1  0
 16 17  1  0
 18 17  1  0
 18 20  1  0
 19 18  2  0
M  END
$$$$
