TNG.pdb
     RDKit          3D

 20 19  0  0  1  0  0  0  0  0999 V2000
   17.7402  -10.2447  -14.2417 C   0  0  0  0  0  0  0  0  0  0  0  0
   16.2937  -10.6240  -13.9839 C   0  0  1  0  0  0  0  0  0  0  0  0
   15.9907  -11.8849  -14.4426 O   0  0  0  0  0  0  0  0  0  0  0  0
   16.0438  -10.5553  -12.5142 C   0  0  2  0  0  0  0  0  0  0  0  0
   14.7991  -11.1074  -12.0763 N   0  0  0  0  0  0  0  0  0  0  0  0
   16.2126   -9.1410  -12.0593 C   0  0  0  0  0  0  0  0  0  0  0  0
   15.3553   -8.2748  -12.3634 O   0  0  0  0  0  0  0  0  0  0  0  0
   15.1316   -6.3812   -8.7079 N   0  0  0  0  0  0  0  0  0  0  0  0
   15.9380   -7.5062   -8.9617 C   0  0  0  0  0  0  0  0  0  0  0  0
   15.4146   -8.6490   -8.8342 O   0  0  0  0  0  0  0  0  0  0  0  0
   17.3401   -7.4231   -9.3628 C   0  0  0  0  0  0  0  0  0  0  0  0
   17.5953   -7.4178  -10.8333 C   0  0  2  0  0  0  0  0  0  0  0  0
   17.3309   -8.7924  -11.2953 N   0  0  0  0  0  0  0  0  0  0  0  0
   18.9671   -7.0311  -11.2204 C   0  0  0  0  0  0  0  0  0  0  0  0
   19.9182   -7.7806  -10.9077 O   0  0  0  0  0  0  0  0  0  0  0  0
   19.1962   -5.8434  -11.9256 N   0  0  0  0  0  0  0  0  0  0  0  0
   20.4903   -5.4220  -12.4192 C   0  0  0  0  0  0  0  0  0  0  0  0
   20.7889   -6.0066  -13.7231 C   0  0  0  0  0  0  0  0  0  0  0  0
   21.8389   -5.7451  -14.3541 O   0  0  0  0  0  0  0  0  0  0  0  0
   19.8917   -6.8900  -14.3082 O   0  0  0  0  0  0  0  0  0  0  0  0
  2  1  1  1
  3  2  1  0
  4  5  1  6
  4  2  1  0
  6  4  1  0
  6  7  2  0
  8  9  1  0
  9 11  1  0
 10  9  2  0
 12 11  1  1
 12 13  1  0
 12 14  1  0
 13  6  1  0
 14 15  2  0
 14 16  1  0
 16 17  1  0
 18 17  1  0
 18 20  1  0
 19 18  2  0
M  END
$$$$
