TNG.pdb
     RDKit          3D

 20 19  0  0  1  0  0  0  0  0999 V2000
   19.4118  -12.5026  -16.5940 C   0  0  0  0  0  0  0  0  0  0  0  0
   18.4489  -11.3323  -16.5177 C   0  0  1  0  0  0  0  0  0  0  0  0
   17.4064  -11.5643  -15.6508 O   0  0  0  0  0  0  0  0  0  0  0  0
   19.2078  -10.1266  -16.0727 C   0  0  2  0  0  0  0  0  0  0  0  0
   19.7423  -10.1919  -14.7476 N   0  0  0  0  0  0  0  0  0  0  0  0
   18.3512   -8.9164  -16.2651 C   0  0  0  0  0  0  0  0  0  0  0  0
   17.8573   -8.6669  -17.3928 O   0  0  0  0  0  0  0  0  0  0  0  0
   14.1190   -6.9133  -16.0055 N   0  0  0  0  0  0  0  0  0  0  0  0
   15.0256   -7.5828  -15.1628 C   0  0  0  0  0  0  0  0  0  0  0  0
   14.8551   -8.8206  -14.9765 O   0  0  0  0  0  0  0  0  0  0  0  0
   16.1473   -6.9260  -14.4963 C   0  0  0  0  0  0  0  0  0  0  0  0
   17.3917   -6.7838  -15.3080 C   0  0  2  0  0  0  0  0  0  0  0  0
   18.1066   -8.0667  -15.1816 N   0  0  0  0  0  0  0  0  0  0  0  0
   18.2842   -5.6868  -14.8826 C   0  0  0  0  0  0  0  0  0  0  0  0
   17.8205   -4.5285  -14.7952 O   0  0  0  0  0  0  0  0  0  0  0  0
   19.6279   -5.9422  -14.5831 N   0  0  0  0  0  0  0  0  0  0  0  0
   20.5795   -4.9330  -14.1685 C   0  0  0  0  0  0  0  0  0  0  0  0
   21.9020   -5.5024  -13.9278 C   0  0  0  0  0  0  0  0  0  0  0  0
   22.1571   -6.7148  -14.1120 O   0  0  0  0  0  0  0  0  0  0  0  0
   22.9345   -4.6905  -13.4777 O   0  0  0  0  0  0  0  0  0  0  0  0
  2  1  1  1
  3  2  1  0
  4  5  1  1
  4  2  1  0
  6  4  1  0
  6  7  2  0
  8  9  1  0
  9 11  1  0
 10  9  2  0
 12 11  1  1
 12 13  1  0
 12 14  1  0
 13  6  1  0
 14 15  2  0
 14 16  1  0
 16 17  1  0
 18 17  1  0
 18 20  1  0
 19 18  2  0
M  END
$$$$
