TNG.pdb
     RDKit          3D

 20 19  0  0  1  0  0  0  0  0999 V2000
   24.0992  -10.8771  -15.1033 C   0  0  0  0  0  0  0  0  0  0  0  0
   23.6365  -11.6302  -16.3367 C   0  0  1  0  0  0  0  0  0  0  0  0
   24.2290  -12.8662  -16.4516 O   0  0  0  0  0  0  0  0  0  0  0  0
   22.1549  -11.7932  -16.2604 C   0  0  2  0  0  0  0  0  0  0  0  0
   21.5835  -12.6769  -17.2292 N   0  0  0  0  0  0  0  0  0  0  0  0
   21.5159  -10.4420  -16.2987 C   0  0  0  0  0  0  0  0  0  0  0  0
   21.4710   -9.7966  -17.3753 O   0  0  0  0  0  0  0  0  0  0  0  0
   18.3854   -6.4213  -15.0570 N   0  0  0  0  0  0  0  0  0  0  0  0
   18.0018   -7.7098  -14.6413 C   0  0  0  0  0  0  0  0  0  0  0  0
   16.8180   -7.8697  -14.2302 O   0  0  0  0  0  0  0  0  0  0  0  0
   18.8948   -8.8657  -14.6602 C   0  0  0  0  0  0  0  0  0  0  0  0
   20.3012   -8.5926  -15.0786 C   0  0  2  0  0  0  0  0  0  0  0  0
   20.9711   -9.9047  -15.1281 N   0  0  0  0  0  0  0  0  0  0  0  0
   21.0517   -7.6982  -14.1741 C   0  0  0  0  0  0  0  0  0  0  0  0
   21.5279   -8.1673  -13.1171 O   0  0  0  0  0  0  0  0  0  0  0  0
   21.2251   -6.3469  -14.4972 N   0  0  0  0  0  0  0  0  0  0  0  0
   21.9455   -5.3959  -13.6770 C   0  0  0  0  0  0  0  0  0  0  0  0
   22.0157   -4.0812  -14.3077 C   0  0  0  0  0  0  0  0  0  0  0  0
   22.5637   -3.0984  -13.7574 O   0  0  0  0  0  0  0  0  0  0  0  0
   21.4623   -3.8859  -15.5661 O   0  0  0  0  0  0  0  0  0  0  0  0
  2  1  1  1
  3  2  1  0
  4  5  1  6
  4  2  1  0
  6  4  1  0
  6  7  2  0
  8  9  1  0
  9 11  1  0
 10  9  2  0
 12 11  1  1
 12 13  1  0
 12 14  1  0
 13  6  1  0
 14 15  2  0
 14 16  1  0
 16 17  1  0
 18 17  1  0
 18 20  1  0
 19 18  2  0
M  END
$$$$
