TNG.pdb
     RDKit          3D

 20 19  0  0  1  0  0  0  0  0999 V2000
   20.1052  -19.3158  -15.7187 C   0  0  0  0  0  0  0  0  0  0  0  0
   20.8457  -20.2213  -14.7520 C   0  0  1  0  0  0  0  0  0  0  0  0
   20.5277  -21.5482  -14.9255 O   0  0  0  0  0  0  0  0  0  0  0  0
   22.3116  -20.0295  -14.9563 C   0  0  2  0  0  0  0  0  0  0  0  0
   23.1559  -20.9197  -14.2211 N   0  0  0  0  0  0  0  0  0  0  0  0
   22.6544  -18.5980  -14.6938 C   0  0  0  0  0  0  0  0  0  0  0  0
   22.4900  -18.1107  -13.5479 O   0  0  0  0  0  0  0  0  0  0  0  0
   26.8780  -14.8738  -15.1258 N   0  0  0  0  0  0  0  0  0  0  0  0
   25.6964  -15.0848  -15.8605 C   0  0  0  0  0  0  0  0  0  0  0  0
   25.1865  -14.0943  -16.4563 O   0  0  0  0  0  0  0  0  0  0  0  0
   25.0324  -16.3812  -15.9705 C   0  0  0  0  0  0  0  0  0  0  0  0
   23.6020  -16.4159  -15.5456 C   0  0  2  0  0  0  0  0  0  0  0  0
   23.1574  -17.8089  -15.7331 N   0  0  0  0  0  0  0  0  0  0  0  0
   22.7106  -15.5156  -16.3045 C   0  0  0  0  0  0  0  0  0  0  0  0
   22.4299  -15.7997  -17.4897 O   0  0  0  0  0  0  0  0  0  0  0  0
   22.1901  -14.3627  -15.7043 N   0  0  0  0  0  0  0  0  0  0  0  0
   21.3573  -13.3921  -16.3829 C   0  0  0  0  0  0  0  0  0  0  0  0
   20.9917  -12.2846  -15.5050 C   0  0  0  0  0  0  0  0  0  0  0  0
   20.2731  -11.3319  -15.8859 O   0  0  0  0  0  0  0  0  0  0  0  0
   21.4442  -12.2623  -14.1926 O   0  0  0  0  0  0  0  0  0  0  0  0
  2  1  1  6
  3  2  1  0
  4  5  1  1
  4  2  1  0
  6  4  1  0
  6  7  2  0
  8  9  1  0
  9 11  1  0
 10  9  2  0
 12 11  1  6
 12 13  1  0
 12 14  1  0
 13  6  1  0
 14 15  2  0
 14 16  1  0
 16 17  1  0
 18 17  1  0
 18 20  1  0
 19 18  2  0
M  END
$$$$
