TNG.pdb
     RDKit          3D

 20 19  0  0  1  0  0  0  0  0999 V2000
   23.0633  -10.3731  -14.4719 C   0  0  0  0  0  0  0  0  0  0  0  0
   23.1368  -11.4008  -15.5859 C   0  0  1  0  0  0  0  0  0  0  0  0
   23.3163  -12.6793  -15.1113 O   0  0  0  0  0  0  0  0  0  0  0  0
   21.8697  -11.3346  -16.3717 C   0  0  2  0  0  0  0  0  0  0  0  0
   21.6795  -12.3881  -17.3203 N   0  0  0  0  0  0  0  0  0  0  0  0
   21.7663   -9.9876  -17.0123 C   0  0  0  0  0  0  0  0  0  0  0  0
   22.6711   -9.5867  -17.7860 O   0  0  0  0  0  0  0  0  0  0  0  0
   19.9760   -9.2910  -19.8469 N   0  0  0  0  0  0  0  0  0  0  0  0
   18.9074   -8.6748  -19.1697 C   0  0  0  0  0  0  0  0  0  0  0  0
   17.7481   -8.8033  -19.6550 O   0  0  0  0  0  0  0  0  0  0  0  0
   19.0666   -7.8992  -17.9422 C   0  0  0  0  0  0  0  0  0  0  0  0
   20.4451   -7.8638  -17.3711 C   0  0  2  0  0  0  0  0  0  0  0  0
   20.6569   -9.1801  -16.7422 N   0  0  0  0  0  0  0  0  0  0  0  0
   20.6704   -6.8043  -16.3671 C   0  0  0  0  0  0  0  0  0  0  0  0
   19.8027   -6.6095  -15.4877 O   0  0  0  0  0  0  0  0  0  0  0  0
   21.8373   -6.0314  -16.4022 N   0  0  0  0  0  0  0  0  0  0  0  0
   22.1639   -4.9994  -15.4408 C   0  0  0  0  0  0  0  0  0  0  0  0
   22.3266   -5.5441  -14.0962 C   0  0  0  0  0  0  0  0  0  0  0  0
   22.0847   -6.7418  -13.8207 O   0  0  0  0  0  0  0  0  0  0  0  0
   22.7655   -4.7245  -13.0650 O   0  0  0  0  0  0  0  0  0  0  0  0
  2  1  1  1
  3  2  1  0
  4  5  1  6
  4  2  1  0
  6  4  1  0
  6  7  2  0
  8  9  1  0
  9 11  1  0
 10  9  2  0
 12 11  1  1
 12 13  1  0
 12 14  1  0
 13  6  1  0
 14 15  2  0
 14 16  1  0
 16 17  1  0
 18 17  1  0
 18 20  1  0
 19 18  2  0
M  END
$$$$
