LYP.pdb
     RDKit          3D

 28 29  0  0  1  0  0  0  0  0999 V2000
    6.2852  -18.8522   18.8192 C   0  0  0  0  0  0  0  0  0  0  0  0
    6.2113  -19.5267   20.1702 C   0  0  1  0  0  0  0  0  0  0  0  0
    7.5404  -20.1665   20.5119 C   0  0  0  0  0  0  0  0  0  0  0  0
    5.8651  -18.5554   21.2703 C   0  0  0  0  0  0  0  0  0  0  0  0
    5.9205  -19.3135   22.5795 C   0  0  2  0  0  0  0  0  0  0  0  0
    4.7556  -20.0964   22.8204 N   0  0  0  0  0  0  0  0  0  0  0  0
    6.1536  -18.3947   23.7190 C   0  0  0  0  0  0  0  0  0  0  0  0
    5.2338  -17.7078   24.2365 O   0  0  0  0  0  0  0  0  0  0  0  0
   10.5567  -13.7999   29.8885 O   0  0  0  0  0  0  0  0  0  0  0  0
   10.1360  -14.7567   28.9893 C   0  0  0  0  0  0  0  0  0  0  0  0
   10.8403  -14.9669   27.8267 C   0  0  0  0  0  0  0  0  0  0  0  0
   10.4248  -15.9228   26.9227 C   0  0  0  0  0  0  0  0  0  0  0  0
    9.3087  -16.7037   27.1250 C   0  0  0  0  0  0  0  0  0  0  0  0
    8.8613  -17.7254   26.1625 C   0  0  0  0  0  0  0  0  0  0  0  0
    7.7607  -17.2467   25.2257 C   0  0  2  0  0  0  0  0  0  0  0  0
    7.4683  -18.2725   24.2630 N   0  0  0  0  0  0  0  0  0  0  0  0
    8.0477  -15.9691   24.5804 C   0  0  0  0  0  0  0  0  0  0  0  0
    8.7540  -16.0198   23.4991 O   0  0  0  0  0  0  0  0  0  0  0  0
    8.6010  -16.4815   28.3095 C   0  0  0  0  0  0  0  0  0  0  0  0
    9.0168  -15.5271   29.2111 C   0  0  0  0  0  0  0  0  0  0  0  0
    7.6656  -14.6676   24.9646 N   0  0  0  0  0  0  0  0  0  0  0  0
    7.0044  -14.2643   26.1678 C   0  0  0  0  0  0  0  0  0  0  0  0
    7.0556  -12.7245   26.1607 C   0  0  0  0  0  0  0  0  0  0  0  0
    6.9278  -12.4829   24.6505 C   0  0  0  0  0  0  0  0  0  0  0  0
    7.9212  -13.4893   24.1405 C   0  0  1  0  0  0  0  0  0  0  0  0
    9.3101  -13.0002   24.3464 C   0  0  0  0  0  0  0  0  0  0  0  0
   10.0258  -13.5205   25.2368 O   0  0  0  0  0  0  0  0  0  0  0  0
    9.8129  -11.9831   23.5680 O   0  0  0  0  0  0  0  0  0  0  0  0
  2  1  1  6
  2  4  1  0
  3  2  1  0
  5  4  1  0
  5  6  1  1
  7  5  1  0
  7  8  2  0
  9 10  1  0
 10 11  2  0
 11 12  1  0
 13 12  2  0
 13 14  1  0
 15 14  1  6
 15 16  1  0
 16  7  1  0
 17 15  1  0
 18 17  2  0
 19 13  1  0
 20 10  1  0
 20 19  2  0
 21 17  1  0
 22 21  1  0
 22 23  1  0
 23 24  1  0
 25 21  1  0
 25 24  1  0
 25 26  1  1
 27 26  2  0
 28 26  1  0
M  END
$$$$
