LYP.pdb
     RDKit          3D

 28 29  0  0  1  0  0  0  0  0999 V2000
    7.4100  -13.0392   18.1158 C   0  0  0  0  0  0  0  0  0  0  0  0
    8.0500  -14.0209   19.0709 C   0  0  1  0  0  0  0  0  0  0  0  0
    9.3255  -13.4408   19.6447 C   0  0  0  0  0  0  0  0  0  0  0  0
    7.1384  -14.3698   20.2201 C   0  0  0  0  0  0  0  0  0  0  0  0
    7.4716  -15.7821   20.6516 C   0  0  2  0  0  0  0  0  0  0  0  0
    6.6671  -16.7660   20.0093 N   0  0  0  0  0  0  0  0  0  0  0  0
    7.3677  -15.9293   22.1229 C   0  0  0  0  0  0  0  0  0  0  0  0
    6.2653  -16.0707   22.7149 O   0  0  0  0  0  0  0  0  0  0  0  0
    9.6445  -16.8607   30.6040 O   0  0  0  0  0  0  0  0  0  0  0  0
    9.6030  -16.8637   29.2258 C   0  0  0  0  0  0  0  0  0  0  0  0
   10.4563  -16.0577   28.5089 C   0  0  0  0  0  0  0  0  0  0  0  0
   10.4199  -16.0559   27.1297 C   0  0  0  0  0  0  0  0  0  0  0  0
    9.5495  -16.8408   26.4067 C   0  0  0  0  0  0  0  0  0  0  0  0
    9.5071  -16.8421   24.9341 C   0  0  0  0  0  0  0  0  0  0  0  0
    8.4701  -15.8935   24.3486 C   0  0  2  0  0  0  0  0  0  0  0  0
    8.5561  -15.9124   22.9144 N   0  0  0  0  0  0  0  0  0  0  0  0
    8.5487  -14.5339   24.8746 C   0  0  0  0  0  0  0  0  0  0  0  0
    9.6461  -13.8922   24.6407 O   0  0  0  0  0  0  0  0  0  0  0  0
    8.6873  -17.6556   27.1456 C   0  0  0  0  0  0  0  0  0  0  0  0
    8.7245  -17.6566   28.5223 C   0  0  0  0  0  0  0  0  0  0  0  0
    7.5940  -13.8037   25.6114 N   0  0  0  0  0  0  0  0  0  0  0  0
    6.3073  -14.2405   26.0598 C   0  0  0  0  0  0  0  0  0  0  0  0
    5.8105  -13.1307   27.0059 C   0  0  0  0  0  0  0  0  0  0  0  0
    6.4212  -11.9141   26.2969 C   0  0  0  0  0  0  0  0  0  0  0  0
    7.8122  -12.4278   26.0494 C   0  0  1  0  0  0  0  0  0  0  0  0
    8.6083  -12.4002   27.3049 C   0  0  0  0  0  0  0  0  0  0  0  0
    8.9891  -11.3000   27.7743 O   0  0  0  0  0  0  0  0  0  0  0  0
    8.9285  -13.5712   27.9524 O   0  0  0  0  0  0  0  0  0  0  0  0
  2  1  1  6
  2  4  1  0
  3  2  1  0
  5  4  1  0
  5  6  1  6
  7  5  1  0
  7  8  2  0
  9 10  1  0
 10 11  2  0
 11 12  1  0
 13 12  2  0
 13 14  1  0
 15 14  1  1
 15 16  1  0
 16  7  1  0
 17 15  1  0
 18 17  2  0
 19 13  1  0
 20 10  1  0
 20 19  2  0
 21 17  1  0
 22 21  1  0
 22 23  1  0
 23 24  1  0
 25 21  1  0
 25 24  1  0
 25 26  1  1
 27 26  2  0
 28 26  1  0
M  END
$$$$
