LYP.pdb
     RDKit          3D

 28 29  0  0  1  0  0  0  0  0999 V2000
    8.0002  -12.4235   20.8541 C   0  0  0  0  0  0  0  0  0  0  0  0
    7.5116  -13.5108   19.9243 C   0  0  1  0  0  0  0  0  0  0  0  0
    7.0514  -12.9125   18.6117 C   0  0  0  0  0  0  0  0  0  0  0  0
    8.5868  -14.5241   19.6230 C   0  0  0  0  0  0  0  0  0  0  0  0
    8.3727  -15.7023   20.5493 C   0  0  2  0  0  0  0  0  0  0  0  0
    7.0011  -15.9249   20.8608 N   0  0  0  0  0  0  0  0  0  0  0  0
    9.1539  -15.5473   21.7994 C   0  0  0  0  0  0  0  0  0  0  0  0
   10.3898  -15.3058   21.8023 O   0  0  0  0  0  0  0  0  0  0  0  0
   10.8845  -14.4816   30.4139 O   0  0  0  0  0  0  0  0  0  0  0  0
   10.2581  -14.6294   29.1946 C   0  0  0  0  0  0  0  0  0  0  0  0
   10.2198  -13.5789   28.3076 C   0  0  0  0  0  0  0  0  0  0  0  0
    9.5946  -13.7201   27.0858 C   0  0  0  0  0  0  0  0  0  0  0  0
    8.9869  -14.8912   26.6913 C   0  0  0  0  0  0  0  0  0  0  0  0
    8.3181  -15.0465   25.3878 C   0  0  0  0  0  0  0  0  0  0  0  0
    9.2363  -15.5486   24.2821 C   0  0  2  0  0  0  0  0  0  0  0  0
    8.4929  -15.6737   23.0589 N   0  0  0  0  0  0  0  0  0  0  0  0
    9.9395  -16.7844   24.6132 C   0  0  0  0  0  0  0  0  0  0  0  0
    9.2262  -17.8622   24.6298 O   0  0  0  0  0  0  0  0  0  0  0  0
    9.0320  -15.9517   27.6004 C   0  0  0  0  0  0  0  0  0  0  0  0
    9.6564  -15.8095   28.8197 C   0  0  0  0  0  0  0  0  0  0  0  0
   11.3004  -16.9832   24.9233 N   0  0  0  0  0  0  0  0  0  0  0  0
   12.3104  -15.9900   25.1257 C   0  0  0  0  0  0  0  0  0  0  0  0
   13.5314  -16.7591   25.6655 C   0  0  0  0  0  0  0  0  0  0  0  0
   13.3578  -18.0703   24.8869 C   0  0  0  0  0  0  0  0  0  0  0  0
   11.8889  -18.3079   25.1007 C   0  0  1  0  0  0  0  0  0  0  0  0
   11.6378  -18.8099   26.4776 C   0  0  0  0  0  0  0  0  0  0  0  0
   11.0832  -18.0619   27.3195 O   0  0  0  0  0  0  0  0  0  0  0  0
   12.0095  -20.0864   26.8321 O   0  0  0  0  0  0  0  0  0  0  0  0
  2  1  1  1
  2  4  1  0
  3  2  1  0
  5  4  1  0
  5  6  1  1
  7  5  1  0
  7  8  2  0
  9 10  1  0
 10 11  2  0
 11 12  1  0
 13 12  2  0
 13 14  1  0
 15 14  1  1
 15 16  1  0
 16  7  1  0
 17 15  1  0
 18 17  2  0
 19 13  1  0
 20 10  1  0
 20 19  2  0
 21 17  1  0
 22 21  1  0
 22 23  1  0
 23 24  1  0
 25 21  1  0
 25 24  1  0
 25 26  1  1
 27 26  2  0
 28 26  1  0
M  END
$$$$
