LYP.pdb
     RDKit          3D

 28 29  0  0  1  0  0  0  0  0999 V2000
    5.6036  -19.2291   21.8053 C   0  0  0  0  0  0  0  0  0  0  0  0
    6.1416  -20.1111   22.9090 C   0  0  1  0  0  0  0  0  0  0  0  0
    7.6554  -20.1264   22.8790 C   0  0  0  0  0  0  0  0  0  0  0  0
    5.7073  -19.6396   24.2737 C   0  0  0  0  0  0  0  0  0  0  0  0
    6.8381  -18.8146   24.8503 C   0  0  2  0  0  0  0  0  0  0  0  0
    6.8261  -18.7694   26.2736 N   0  0  0  0  0  0  0  0  0  0  0  0
    6.8268  -17.4371   24.3030 C   0  0  0  0  0  0  0  0  0  0  0  0
    5.7876  -16.7265   24.2740 O   0  0  0  0  0  0  0  0  0  0  0  0
    5.8520  -11.7286   27.9430 O   0  0  0  0  0  0  0  0  0  0  0  0
    6.5852  -12.4313   27.0105 C   0  0  0  0  0  0  0  0  0  0  0  0
    7.4291  -13.4394   27.4147 C   0  0  0  0  0  0  0  0  0  0  0  0
    8.1656  -14.1464   26.4866 C   0  0  0  0  0  0  0  0  0  0  0  0
    8.1017  -13.8918   25.1348 C   0  0  0  0  0  0  0  0  0  0  0  0
    8.8863  -14.6440   24.1404 C   0  0  0  0  0  0  0  0  0  0  0  0
    8.0445  -15.5462   23.2485 C   0  0  2  0  0  0  0  0  0  0  0  0
    8.0348  -16.8792   23.7846 N   0  0  0  0  0  0  0  0  0  0  0  0
    8.4478  -15.5332   21.8455 C   0  0  0  0  0  0  0  0  0  0  0  0
    8.9992  -16.6133   21.3983 O   0  0  0  0  0  0  0  0  0  0  0  0
    7.2411  -12.8655   24.7357 C   0  0  0  0  0  0  0  0  0  0  0  0
    6.5064  -12.1604   25.6630 C   0  0  0  0  0  0  0  0  0  0  0  0
    8.3256  -14.5042   20.8895 N   0  0  0  0  0  0  0  0  0  0  0  0
    7.8104  -13.1831   21.0806 C   0  0  0  0  0  0  0  0  0  0  0  0
    8.1363  -12.4295   19.7770 C   0  0  0  0  0  0  0  0  0  0  0  0
    7.9761  -13.5855   18.7801 C   0  0  0  0  0  0  0  0  0  0  0  0
    8.7453  -14.6583   19.4993 C   0  0  1  0  0  0  0  0  0  0  0  0
   10.2082  -14.4271   19.3676 C   0  0  0  0  0  0  0  0  0  0  0  0
   10.8452  -13.9208   20.3235 O   0  0  0  0  0  0  0  0  0  0  0  0
   10.8649  -14.7644   18.2064 O   0  0  0  0  0  0  0  0  0  0  0  0
  2  1  1  6
  2  4  1  0
  3  2  1  0
  5  4  1  0
  5  6  1  1
  7  5  1  0
  7  8  2  0
  9 10  1  0
 10 11  2  0
 11 12  1  0
 13 12  2  0
 13 14  1  0
 15 14  1  1
 15 16  1  0
 16  7  1  0
 17 15  1  0
 18 17  2  0
 19 13  1  0
 20 10  1  0
 20 19  2  0
 21 17  1  0
 22 21  1  0
 22 23  1  0
 23 24  1  0
 25 21  1  0
 25 24  1  0
 25 26  1  1
 27 26  2  0
 28 26  1  0
M  END
$$$$
