LYP.pdb
     RDKit          3D

 28 29  0  0  1  0  0  0  0  0999 V2000
   12.5688  -20.2240   19.9371 C   0  0  0  0  0  0  0  0  0  0  0  0
   11.3182  -20.1838   20.7856 C   0  0  1  0  0  0  0  0  0  0  0  0
   11.1664  -21.4761   21.5598 C   0  0  0  0  0  0  0  0  0  0  0  0
   11.3417  -19.0471   21.7760 C   0  0  0  0  0  0  0  0  0  0  0  0
   10.8043  -17.8197   21.0714 C   0  0  2  0  0  0  0  0  0  0  0  0
   11.6691  -17.3418   20.0460 N   0  0  0  0  0  0  0  0  0  0  0  0
   10.5195  -16.7318   22.0370 C   0  0  0  0  0  0  0  0  0  0  0  0
   11.3623  -15.8416   22.3249 O   0  0  0  0  0  0  0  0  0  0  0  0
    6.0638  -11.3775   27.4758 O   0  0  0  0  0  0  0  0  0  0  0  0
    6.4171  -12.3197   26.5331 C   0  0  0  0  0  0  0  0  0  0  0  0
    7.0464  -11.9319   25.3733 C   0  0  0  0  0  0  0  0  0  0  0  0
    7.4026  -12.8696   24.4260 C   0  0  0  0  0  0  0  0  0  0  0  0
    7.1557  -14.2155   24.5809 C   0  0  0  0  0  0  0  0  0  0  0  0
    7.5341  -15.2202   23.5720 C   0  0  0  0  0  0  0  0  0  0  0  0
    8.9789  -15.6875   23.6823 C   0  0  2  0  0  0  0  0  0  0  0  0
    9.2428  -16.6771   22.6745 N   0  0  0  0  0  0  0  0  0  0  0  0
    9.3467  -16.1628   25.0127 C   0  0  0  0  0  0  0  0  0  0  0  0
    9.2697  -17.4384   25.2065 O   0  0  0  0  0  0  0  0  0  0  0  0
    6.5159  -14.5980   25.7631 C   0  0  0  0  0  0  0  0  0  0  0  0
    6.1608  -13.6610   26.7079 C   0  0  0  0  0  0  0  0  0  0  0  0
    9.7794  -15.4293   26.1362 N   0  0  0  0  0  0  0  0  0  0  0  0
    9.6710  -14.0204   26.3617 C   0  0  0  0  0  0  0  0  0  0  0  0
   10.0827  -13.8132   27.8317 C   0  0  0  0  0  0  0  0  0  0  0  0
   11.1512  -14.9095   27.9429 C   0  0  0  0  0  0  0  0  0  0  0  0
   10.4222  -16.0510   27.2907 C   0  0  1  0  0  0  0  0  0  0  0  0
    9.4025  -16.6134   28.2153 C   0  0  0  0  0  0  0  0  0  0  0  0
    8.1840  -16.4075   27.9948 O   0  0  0  0  0  0  0  0  0  0  0  0
    9.7872  -17.3561   29.3079 O   0  0  0  0  0  0  0  0  0  0  0  0
  2  1  1  1
  2  4  1  0
  3  2  1  0
  5  4  1  0
  5  6  1  6
  7  5  1  0
  7  8  2  0
  9 10  1  0
 10 11  2  0
 11 12  1  0
 13 12  2  0
 13 14  1  0
 15 14  1  1
 15 16  1  0
 16  7  1  0
 17 15  1  0
 18 17  2  0
 19 13  1  0
 20 10  1  0
 20 19  2  0
 21 17  1  0
 22 21  1  0
 22 23  1  0
 23 24  1  0
 25 21  1  0
 25 24  1  0
 25 26  1  1
 27 26  2  0
 28 26  1  0
M  END
$$$$
