LYP.pdb
     RDKit          3D

 28 29  0  0  1  0  0  0  0  0999 V2000
    7.4903  -14.4568   19.3695 C   0  0  0  0  0  0  0  0  0  0  0  0
    8.7701  -14.4944   18.5657 C   0  0  1  0  0  0  0  0  0  0  0  0
    8.7473  -13.4284   17.4907 C   0  0  0  0  0  0  0  0  0  0  0  0
    9.9866  -14.2626   19.4261 C   0  0  0  0  0  0  0  0  0  0  0  0
   10.0949  -15.4304   20.3833 C   0  0  2  0  0  0  0  0  0  0  0  0
    9.0927  -16.4197   20.1720 N   0  0  0  0  0  0  0  0  0  0  0  0
   10.0591  -14.9709   21.7921 C   0  0  0  0  0  0  0  0  0  0  0  0
   10.8488  -14.0994   22.2423 O   0  0  0  0  0  0  0  0  0  0  0  0
    5.9227  -11.3656   28.4802 O   0  0  0  0  0  0  0  0  0  0  0  0
    6.2672  -12.1646   27.4106 C   0  0  0  0  0  0  0  0  0  0  0  0
    6.0622  -13.5233   27.4711 C   0  0  0  0  0  0  0  0  0  0  0  0
    6.4047  -14.3284   26.4043 C   0  0  0  0  0  0  0  0  0  0  0  0
    6.9581  -13.8328   25.2448 C   0  0  0  0  0  0  0  0  0  0  0  0
    7.3254  -14.6887   24.1034 C   0  0  0  0  0  0  0  0  0  0  0  0
    8.8260  -14.8937   23.9471 C   0  0  2  0  0  0  0  0  0  0  0  0
    9.0962  -15.5288   22.6869 N   0  0  0  0  0  0  0  0  0  0  0  0
    9.4429  -15.6148   25.0564 C   0  0  0  0  0  0  0  0  0  0  0  0
    9.6677  -16.8734   24.8667 O   0  0  0  0  0  0  0  0  0  0  0  0
    7.1618  -12.4510   25.1946 C   0  0  0  0  0  0  0  0  0  0  0  0
    6.8196  -11.6483   26.2600 C   0  0  0  0  0  0  0  0  0  0  0  0
    9.8361  -15.1386   26.3239 N   0  0  0  0  0  0  0  0  0  0  0  0
    9.5252  -13.8779   26.9249 C   0  0  0  0  0  0  0  0  0  0  0  0
   10.0055  -13.9961   28.3840 C   0  0  0  0  0  0  0  0  0  0  0  0
   11.2376  -14.8845   28.1643 C   0  0  0  0  0  0  0  0  0  0  0  0
   10.6507  -15.9222   27.2485 C   0  0  1  0  0  0  0  0  0  0  0  0
    9.8018  -16.8724   28.0149 C   0  0  0  0  0  0  0  0  0  0  0  0
    8.5524  -16.8126   27.9092 O   0  0  0  0  0  0  0  0  0  0  0  0
   10.3776  -17.8139   28.8367 O   0  0  0  0  0  0  0  0  0  0  0  0
  2  1  1  1
  2  4  1  0
  3  2  1  0
  5  4  1  0
  5  6  1  1
  7  5  1  0
  7  8  2  0
  9 10  1  0
 10 11  2  0
 11 12  1  0
 13 12  2  0
 13 14  1  0
 15 14  1  1
 15 16  1  0
 16  7  1  0
 17 15  1  0
 18 17  2  0
 19 13  1  0
 20 10  1  0
 20 19  2  0
 21 17  1  0
 22 21  1  0
 22 23  1  0
 23 24  1  0
 25 21  1  0
 25 24  1  0
 25 26  1  1
 27 26  2  0
 28 26  1  0
M  END
$$$$
