LYP.pdb
     RDKit          3D

 28 29  0  0  1  0  0  0  0  0999 V2000
    7.5838  -12.4935   18.9896 C   0  0  0  0  0  0  0  0  0  0  0  0
    8.0241  -13.8412   19.5145 C   0  0  1  0  0  0  0  0  0  0  0  0
    8.7864  -13.6764   20.8123 C   0  0  0  0  0  0  0  0  0  0  0  0
    6.8552  -14.7577   19.7737 C   0  0  0  0  0  0  0  0  0  0  0  0
    7.4037  -16.0341   20.3753 C   0  0  2  0  0  0  0  0  0  0  0  0
    6.8358  -17.2087   19.8046 N   0  0  0  0  0  0  0  0  0  0  0  0
    7.2230  -16.0515   21.8464 C   0  0  0  0  0  0  0  0  0  0  0  0
    6.0883  -16.0950   22.3907 O   0  0  0  0  0  0  0  0  0  0  0  0
    8.6345  -17.8165   30.3059 O   0  0  0  0  0  0  0  0  0  0  0  0
    8.7210  -17.6834   28.9363 C   0  0  0  0  0  0  0  0  0  0  0  0
    7.7140  -18.1641   28.1322 C   0  0  0  0  0  0  0  0  0  0  0  0
    7.7943  -18.0342   26.7610 C   0  0  0  0  0  0  0  0  0  0  0  0
    8.8602  -17.4309   26.1313 C   0  0  0  0  0  0  0  0  0  0  0  0
    8.9502  -17.2901   24.6676 C   0  0  0  0  0  0  0  0  0  0  0  0
    8.2197  -16.0710   24.1217 C   0  0  2  0  0  0  0  0  0  0  0  0
    8.3719  -16.0182   22.6939 N   0  0  0  0  0  0  0  0  0  0  0  0
    8.6136  -14.8144   24.7517 C   0  0  0  0  0  0  0  0  0  0  0  0
    9.8171  -14.4073   24.5138 O   0  0  0  0  0  0  0  0  0  0  0  0
    9.8773  -16.9463   26.9582 C   0  0  0  0  0  0  0  0  0  0  0  0
    9.7960  -17.0765   28.3269 C   0  0  0  0  0  0  0  0  0  0  0  0
    7.8684  -13.9645   25.5943 N   0  0  0  0  0  0  0  0  0  0  0  0
    6.5482  -14.1707   26.1060 C   0  0  0  0  0  0  0  0  0  0  0  0
    6.3389  -13.0541   27.1467 C   0  0  0  0  0  0  0  0  0  0  0  0
    7.1393  -11.9343   26.4677 C   0  0  0  0  0  0  0  0  0  0  0  0
    8.3826  -12.6923   26.0942 C   0  0  1  0  0  0  0  0  0  0  0  0
    9.2387  -12.9097   27.2902 C   0  0  0  0  0  0  0  0  0  0  0  0
    9.2142  -14.0187   27.8779 O   0  0  0  0  0  0  0  0  0  0  0  0
   10.0552  -11.9040   27.7543 O   0  0  0  0  0  0  0  0  0  0  0  0
  2  1  1  1
  2  4  1  0
  3  2  1  0
  5  4  1  0
  5  6  1  6
  7  5  1  0
  7  8  2  0
  9 10  1  0
 10 11  2  0
 11 12  1  0
 13 12  2  0
 13 14  1  0
 15 14  1  1
 15 16  1  0
 16  7  1  0
 17 15  1  0
 18 17  2  0
 19 13  1  0
 20 10  1  0
 20 19  2  0
 21 17  1  0
 22 21  1  0
 22 23  1  0
 23 24  1  0
 25 21  1  0
 25 24  1  0
 25 26  1  1
 27 26  2  0
 28 26  1  0
M  END
$$$$
