LYP.pdb
     RDKit          3D

 28 29  0  0  1  0  0  0  0  0999 V2000
   12.0491  -17.3750   17.4880 C   0  0  0  0  0  0  0  0  0  0  0  0
   11.8587  -17.9031   18.8917 C   0  0  1  0  0  0  0  0  0  0  0  0
   13.1408  -18.5318   19.3953 C   0  0  0  0  0  0  0  0  0  0  0  0
   11.4625  -16.8151   19.8575 C   0  0  0  0  0  0  0  0  0  0  0  0
   11.2355  -17.4652   21.2057 C   0  0  2  0  0  0  0  0  0  0  0  0
   10.2709  -18.5120   21.1648 N   0  0  0  0  0  0  0  0  0  0  0  0
   10.8454  -16.4609   22.2237 C   0  0  0  0  0  0  0  0  0  0  0  0
   11.5843  -15.4912   22.5388 O   0  0  0  0  0  0  0  0  0  0  0  0
    5.7121  -11.6036   27.5135 O   0  0  0  0  0  0  0  0  0  0  0  0
    6.1923  -12.5127   26.5948 C   0  0  0  0  0  0  0  0  0  0  0  0
    6.8504  -12.0735   25.4697 C   0  0  0  0  0  0  0  0  0  0  0  0
    7.3334  -12.9779   24.5465 C   0  0  0  0  0  0  0  0  0  0  0  0
    7.1893  -14.3397   24.6923 C   0  0  0  0  0  0  0  0  0  0  0  0
    7.7033  -15.3090   23.7092 C   0  0  0  0  0  0  0  0  0  0  0  0
    9.1855  -15.6183   23.8685 C   0  0  2  0  0  0  0  0  0  0  0  0
    9.5842  -16.5840   22.8821 N   0  0  0  0  0  0  0  0  0  0  0  0
    9.5603  -16.0386   25.2154 C   0  0  0  0  0  0  0  0  0  0  0  0
    9.6244  -17.3131   25.4204 O   0  0  0  0  0  0  0  0  0  0  0  0
    6.5192  -14.7745   25.8391 C   0  0  0  0  0  0  0  0  0  0  0  0
    6.0375  -13.8707   26.7600 C   0  0  0  0  0  0  0  0  0  0  0  0
    9.8671  -15.2520   26.3445 N   0  0  0  0  0  0  0  0  0  0  0  0
    9.5986  -13.8612   26.5466 C   0  0  0  0  0  0  0  0  0  0  0  0
    9.9279  -13.5969   28.0283 C   0  0  0  0  0  0  0  0  0  0  0  0
   11.1033  -14.5697   28.1944 C   0  0  0  0  0  0  0  0  0  0  0  0
   10.5278  -15.7896   27.5307 C   0  0  1  0  0  0  0  0  0  0  0  0
    9.5396  -16.4506   28.4236 C   0  0  0  0  0  0  0  0  0  0  0  0
    8.3133  -16.3489   28.1752 O   0  0  0  0  0  0  0  0  0  0  0  0
    9.9617  -17.1709   29.5173 O   0  0  0  0  0  0  0  0  0  0  0  0
  2  1  1  6
  2  4  1  0
  3  2  1  0
  5  4  1  0
  5  6  1  6
  7  5  1  0
  7  8  2  0
  9 10  1  0
 10 11  2  0
 11 12  1  0
 13 12  2  0
 13 14  1  0
 15 14  1  1
 15 16  1  0
 16  7  1  0
 17 15  1  0
 18 17  2  0
 19 13  1  0
 20 10  1  0
 20 19  2  0
 21 17  1  0
 22 21  1  0
 22 23  1  0
 23 24  1  0
 25 21  1  0
 25 24  1  0
 25 26  1  1
 27 26  2  0
 28 26  1  0
M  END
$$$$
