LYP.pdb
     RDKit          3D

 28 29  0  0  1  0  0  0  0  0999 V2000
   10.8034  -20.2948   21.4973 C   0  0  0  0  0  0  0  0  0  0  0  0
   11.6154  -19.3329   22.3346 C   0  0  1  0  0  0  0  0  0  0  0  0
   12.6644  -20.0829   23.1282 C   0  0  0  0  0  0  0  0  0  0  0  0
   12.3193  -18.3012   21.4900 C   0  0  0  0  0  0  0  0  0  0  0  0
   11.2839  -17.2844   21.0585 C   0  0  2  0  0  0  0  0  0  0  0  0
   11.6863  -16.5265   19.9220 N   0  0  0  0  0  0  0  0  0  0  0  0
   10.9344  -16.3724   22.1735 C   0  0  0  0  0  0  0  0  0  0  0  0
   11.7238  -15.4894   22.6013 O   0  0  0  0  0  0  0  0  0  0  0  0
    5.7852  -11.6012   27.5276 O   0  0  0  0  0  0  0  0  0  0  0  0
    6.2800  -12.4536   26.5634 C   0  0  0  0  0  0  0  0  0  0  0  0
    6.1324  -13.8138   26.7045 C   0  0  0  0  0  0  0  0  0  0  0  0
    6.6252  -14.6721   25.7433 C   0  0  0  0  0  0  0  0  0  0  0  0
    7.2777  -14.2300   24.6141 C   0  0  0  0  0  0  0  0  0  0  0  0
    7.8056  -15.1429   23.5853 C   0  0  0  0  0  0  0  0  0  0  0  0
    9.2565  -15.5468   23.8085 C   0  0  2  0  0  0  0  0  0  0  0  0
    9.6552  -16.4869   22.7977 N   0  0  0  0  0  0  0  0  0  0  0  0
    9.5299  -16.0514   25.1508 C   0  0  0  0  0  0  0  0  0  0  0  0
    9.4328  -17.3302   25.3124 O   0  0  0  0  0  0  0  0  0  0  0  0
    7.4219  -12.8463   24.4813 C   0  0  0  0  0  0  0  0  0  0  0  0
    6.9295  -11.9904   25.4413 C   0  0  0  0  0  0  0  0  0  0  0  0
    9.8889  -15.3438   26.3161 N   0  0  0  0  0  0  0  0  0  0  0  0
    9.7414  -13.9444   26.5757 C   0  0  0  0  0  0  0  0  0  0  0  0
   10.0716  -13.7734   28.0708 C   0  0  0  0  0  0  0  0  0  0  0  0
   11.1540  -14.8531   28.2068 C   0  0  0  0  0  0  0  0  0  0  0  0
   10.4825  -15.9878   27.4847 C   0  0  1  0  0  0  0  0  0  0  0  0
    9.4271  -16.5955   28.3377 C   0  0  0  0  0  0  0  0  0  0  0  0
    9.7508  -17.2014   29.3884 O   0  0  0  0  0  0  0  0  0  0  0  0
    8.1016  -16.4972   27.9817 O   0  0  0  0  0  0  0  0  0  0  0  0
  2  1  1  6
  2  4  1  0
  3  2  1  0
  5  4  1  0
  5  6  1  6
  7  5  1  0
  7  8  2  0
  9 10  1  0
 10 11  2  0
 11 12  1  0
 13 12  2  0
 13 14  1  0
 15 14  1  1
 15 16  1  0
 16  7  1  0
 17 15  1  0
 18 17  2  0
 19 13  1  0
 20 10  1  0
 20 19  2  0
 21 17  1  0
 22 21  1  0
 22 23  1  0
 23 24  1  0
 25 21  1  0
 25 24  1  0
 25 26  1  1
 27 26  2  0
 28 26  1  0
M  END
$$$$
