LYP.pdb
     RDKit          3D

 28 29  0  0  1  0  0  0  0  0999 V2000
    7.4675  -13.0691   17.6888 C   0  0  0  0  0  0  0  0  0  0  0  0
    7.9350  -14.3449   18.3516 C   0  0  1  0  0  0  0  0  0  0  0  0
    8.5144  -15.2909   17.3211 C   0  0  0  0  0  0  0  0  0  0  0  0
    8.9930  -14.0869   19.3945 C   0  0  0  0  0  0  0  0  0  0  0  0
    9.0656  -15.3123   20.2806 C   0  0  2  0  0  0  0  0  0  0  0  0
    7.9311  -16.1630   20.1500 N   0  0  0  0  0  0  0  0  0  0  0  0
    9.2493  -14.9332   21.7017 C   0  0  0  0  0  0  0  0  0  0  0  0
   10.1818  -14.1804   22.0885 O   0  0  0  0  0  0  0  0  0  0  0  0
    7.2276  -12.8895   29.9991 O   0  0  0  0  0  0  0  0  0  0  0  0
    7.1981  -13.3201   28.6896 C   0  0  0  0  0  0  0  0  0  0  0  0
    7.2883  -12.4097   27.6625 C   0  0  0  0  0  0  0  0  0  0  0  0
    7.2593  -12.8340   26.3500 C   0  0  0  0  0  0  0  0  0  0  0  0
    7.1413  -14.1602   25.9985 C   0  0  0  0  0  0  0  0  0  0  0  0
    7.1099  -14.6177   24.5985 C   0  0  0  0  0  0  0  0  0  0  0  0
    8.4704  -15.0361   24.0582 C   0  0  2  0  0  0  0  0  0  0  0  0
    8.3408  -15.4331   22.6834 N   0  0  0  0  0  0  0  0  0  0  0  0
    9.1322  -16.0646   24.8553 C   0  0  0  0  0  0  0  0  0  0  0  0
    8.8035  -17.2880   24.5982 O   0  0  0  0  0  0  0  0  0  0  0  0
    7.0504  -15.0761   27.0502 C   0  0  0  0  0  0  0  0  0  0  0  0
    7.0795  -14.6515   28.3600 C   0  0  0  0  0  0  0  0  0  0  0  0
   10.0903  -15.9232   25.8798 N   0  0  0  0  0  0  0  0  0  0  0  0
   10.5053  -14.7212   26.5360 C   0  0  0  0  0  0  0  0  0  0  0  0
   11.3822  -15.1858   27.7144 C   0  0  0  0  0  0  0  0  0  0  0  0
   12.0312  -16.4161   27.0656 C   0  0  0  0  0  0  0  0  0  0  0  0
   10.8189  -17.0545   26.4471 C   0  0  1  0  0  0  0  0  0  0  0  0
   10.0007  -17.7334   27.4866 C   0  0  0  0  0  0  0  0  0  0  0  0
    8.8939  -17.2452   27.8220 O   0  0  0  0  0  0  0  0  0  0  0  0
   10.4497  -18.8904   28.0806 O   0  0  0  0  0  0  0  0  0  0  0  0
  2  1  1  6
  2  4  1  0
  3  2  1  0
  5  4  1  0
  5  6  1  1
  7  5  1  0
  7  8  2  0
  9 10  1  0
 10 11  2  0
 11 12  1  0
 13 12  2  0
 13 14  1  0
 15 14  1  1
 15 16  1  0
 16  7  1  0
 17 15  1  0
 18 17  2  0
 19 13  1  0
 20 10  1  0
 20 19  2  0
 21 17  1  0
 22 21  1  0
 22 23  1  0
 23 24  1  0
 25 21  1  0
 25 24  1  0
 25 26  1  1
 27 26  2  0
 28 26  1  0
M  END
$$$$
