LYP.pdb
     RDKit          3D

 28 29  0  0  1  0  0  0  0  0999 V2000
    5.9801  -22.0900   22.8404 C   0  0  0  0  0  0  0  0  0  0  0  0
    6.6543  -21.1507   23.8145 C   0  0  1  0  0  0  0  0  0  0  0  0
    8.1011  -20.9366   23.4227 C   0  0  0  0  0  0  0  0  0  0  0  0
    5.9798  -19.8029   23.8611 C   0  0  0  0  0  0  0  0  0  0  0  0
    6.8213  -18.9042   24.7420 C   0  0  2  0  0  0  0  0  0  0  0  0
    6.4608  -18.9756   26.1178 N   0  0  0  0  0  0  0  0  0  0  0  0
    6.7635  -17.4973   24.2791 C   0  0  0  0  0  0  0  0  0  0  0  0
    5.6988  -16.8249   24.2815 O   0  0  0  0  0  0  0  0  0  0  0  0
    5.8845  -11.7664   28.0126 O   0  0  0  0  0  0  0  0  0  0  0  0
    6.5841  -12.4606   27.0485 C   0  0  0  0  0  0  0  0  0  0  0  0
    6.6322  -11.9883   25.7576 C   0  0  0  0  0  0  0  0  0  0  0  0
    7.3306  -12.6782   24.7881 C   0  0  0  0  0  0  0  0  0  0  0  0
    8.0040  -13.8509   25.0480 C   0  0  0  0  0  0  0  0  0  0  0  0
    8.7508  -14.5909   24.0159 C   0  0  0  0  0  0  0  0  0  0  0  0
    7.8933  -15.5590   23.2126 C   0  0  2  0  0  0  0  0  0  0  0  0
    7.9544  -16.8648   23.8091 N   0  0  0  0  0  0  0  0  0  0  0  0
    8.2225  -15.6008   21.7910 C   0  0  0  0  0  0  0  0  0  0  0  0
    8.6710  -16.7260   21.3400 O   0  0  0  0  0  0  0  0  0  0  0  0
    7.9483  -14.3213   26.3628 C   0  0  0  0  0  0  0  0  0  0  0  0
    7.2509  -13.6318   27.3297 C   0  0  0  0  0  0  0  0  0  0  0  0
    8.1243  -14.5831   20.8202 N   0  0  0  0  0  0  0  0  0  0  0  0
    7.6267  -13.2521   20.9887 C   0  0  0  0  0  0  0  0  0  0  0  0
    7.9758  -12.5210   19.6783 C   0  0  0  0  0  0  0  0  0  0  0  0
    7.8080  -13.6879   18.6955 C   0  0  0  0  0  0  0  0  0  0  0  0
    8.5547  -14.7620   19.4363 C   0  0  1  0  0  0  0  0  0  0  0  0
   10.0220  -14.5539   19.3154 C   0  0  0  0  0  0  0  0  0  0  0  0
   10.6501  -14.0036   20.2527 O   0  0  0  0  0  0  0  0  0  0  0  0
   10.6922  -14.9603   18.1845 O   0  0  0  0  0  0  0  0  0  0  0  0
  2  1  1  6
  2  4  1  0
  3  2  1  0
  5  4  1  0
  5  6  1  1
  7  5  1  0
  7  8  2  0
  9 10  1  0
 10 11  2  0
 11 12  1  0
 13 12  2  0
 13 14  1  0
 15 14  1  1
 15 16  1  0
 16  7  1  0
 17 15  1  0
 18 17  2  0
 19 13  1  0
 20 10  1  0
 20 19  2  0
 21 17  1  0
 22 21  1  0
 22 23  1  0
 23 24  1  0
 25 21  1  0
 25 24  1  0
 25 26  1  1
 27 26  2  0
 28 26  1  0
M  END
$$$$
