LYP.pdb
     RDKit          3D

 28 29  0  0  1  0  0  0  0  0999 V2000
    7.8874  -22.9049   21.9745 C   0  0  0  0  0  0  0  0  0  0  0  0
    6.7553  -22.2499   22.7327 C   0  0  1  0  0  0  0  0  0  0  0  0
    6.9827  -22.3704   24.2248 C   0  0  0  0  0  0  0  0  0  0  0  0
    6.6220  -20.7856   22.3984 C   0  0  0  0  0  0  0  0  0  0  0  0
    5.4880  -20.2305   23.2337 C   0  0  2  0  0  0  0  0  0  0  0  0
    4.2021  -20.5672   22.7226 N   0  0  0  0  0  0  0  0  0  0  0  0
    5.6023  -18.7599   23.3791 C   0  0  0  0  0  0  0  0  0  0  0  0
    5.0616  -17.9542   22.5765 O   0  0  0  0  0  0  0  0  0  0  0  0
    7.4035  -10.7898   26.6808 O   0  0  0  0  0  0  0  0  0  0  0  0
    7.2441  -12.1490   26.5128 C   0  0  0  0  0  0  0  0  0  0  0  0
    5.9834  -12.6989   26.5016 C   0  0  0  0  0  0  0  0  0  0  0  0
    5.8170  -14.0582   26.3339 C   0  0  0  0  0  0  0  0  0  0  0  0
    6.8757  -14.9237   26.1718 C   0  0  0  0  0  0  0  0  0  0  0  0
    6.7027  -16.3757   25.9925 C   0  0  0  0  0  0  0  0  0  0  0  0
    6.6152  -16.8087   24.5355 C   0  0  2  0  0  0  0  0  0  0  0  0
    6.3520  -18.2196   24.4678 N   0  0  0  0  0  0  0  0  0  0  0  0
    7.7812  -16.4398   23.7381 C   0  0  0  0  0  0  0  0  0  0  0  0
    8.7912  -17.2444   23.7947 O   0  0  0  0  0  0  0  0  0  0  0  0
    8.1518  -14.3539   26.1848 C   0  0  0  0  0  0  0  0  0  0  0  0
    8.3168  -12.9969   26.3523 C   0  0  0  0  0  0  0  0  0  0  0  0
    7.9755  -15.3207   22.9030 N   0  0  0  0  0  0  0  0  0  0  0  0
    7.2000  -14.1195   22.8476 C   0  0  0  0  0  0  0  0  0  0  0  0
    7.9993  -13.1635   21.9417 C   0  0  0  0  0  0  0  0  0  0  0  0
    8.5886  -14.1893   20.9639 C   0  0  0  0  0  0  0  0  0  0  0  0
    9.0664  -15.2315   21.9363 C   0  0  1  0  0  0  0  0  0  0  0  0
   10.3188  -14.7863   22.6027 C   0  0  0  0  0  0  0  0  0  0  0  0
   11.3687  -14.6556   21.9272 O   0  0  0  0  0  0  0  0  0  0  0  0
   10.3321  -14.5180   23.9522 O   0  0  0  0  0  0  0  0  0  0  0  0
  2  1  1  6
  2  4  1  0
  3  2  1  0
  5  4  1  0
  5  6  1  6
  7  5  1  0
  7  8  2  0
  9 10  1  0
 10 11  2  0
 11 12  1  0
 13 12  2  0
 13 14  1  0
 15 14  1  1
 15 16  1  0
 16  7  1  0
 17 15  1  0
 18 17  2  0
 19 13  1  0
 20 10  1  0
 20 19  2  0
 21 17  1  0
 22 21  1  0
 22 23  1  0
 23 24  1  0
 25 21  1  0
 25 24  1  0
 25 26  1  1
 27 26  2  0
 28 26  1  0
M  END
$$$$
