LYP.pdb
     RDKit          3D

 28 29  0  0  1  0  0  0  0  0999 V2000
   13.9142  -20.1038   21.0631 C   0  0  0  0  0  0  0  0  0  0  0  0
   12.6991  -19.2938   20.6719 C   0  0  1  0  0  0  0  0  0  0  0  0
   11.4357  -20.0950   20.9054 C   0  0  0  0  0  0  0  0  0  0  0  0
   12.5925  -18.0144   21.4627 C   0  0  0  0  0  0  0  0  0  0  0  0
   11.3243  -17.3137   21.0238 C   0  0  2  0  0  0  0  0  0  0  0  0
   11.4449  -16.6878   19.7504 N   0  0  0  0  0  0  0  0  0  0  0  0
   10.8866  -16.3204   22.0332 C   0  0  0  0  0  0  0  0  0  0  0  0
   11.3727  -15.1607   22.0998 O   0  0  0  0  0  0  0  0  0  0  0  0
    5.6768  -11.5903   27.1853 O   0  0  0  0  0  0  0  0  0  0  0  0
    6.2258  -12.5161   26.3236 C   0  0  0  0  0  0  0  0  0  0  0  0
    6.1152  -13.8600   26.5943 C   0  0  0  0  0  0  0  0  0  0  0  0
    6.6623  -14.7916   25.7362 C   0  0  0  0  0  0  0  0  0  0  0  0
    7.3346  -14.4408   24.5867 C   0  0  0  0  0  0  0  0  0  0  0  0
    7.9205  -15.4320   23.6677 C   0  0  0  0  0  0  0  0  0  0  0  0
    9.3951  -15.7111   23.9239 C   0  0  2  0  0  0  0  0  0  0  0  0
    9.8739  -16.6775   22.9746 N   0  0  0  0  0  0  0  0  0  0  0  0
    9.6912  -16.1121   25.2960 C   0  0  0  0  0  0  0  0  0  0  0  0
    9.8204  -17.3808   25.5065 O   0  0  0  0  0  0  0  0  0  0  0  0
    7.4409  -13.0727   24.3218 C   0  0  0  0  0  0  0  0  0  0  0  0
    6.8944  -12.1437   25.1792 C   0  0  0  0  0  0  0  0  0  0  0  0
    9.8595  -15.3122   26.4447 N   0  0  0  0  0  0  0  0  0  0  0  0
    9.3779  -13.9837   26.6695 C   0  0  0  0  0  0  0  0  0  0  0  0
    9.6444  -13.7038   28.1609 C   0  0  0  0  0  0  0  0  0  0  0  0
   10.9533  -14.4881   28.3263 C   0  0  0  0  0  0  0  0  0  0  0  0
   10.5804  -15.7673   27.6304 C   0  0  1  0  0  0  0  0  0  0  0  0
    9.6946  -16.5912   28.4950 C   0  0  0  0  0  0  0  0  0  0  0  0
    8.4841  -16.7280   28.1919 O   0  0  0  0  0  0  0  0  0  0  0  0
   10.1940  -17.2022   29.6221 O   0  0  0  0  0  0  0  0  0  0  0  0
  2  1  1  1
  2  4  1  0
  3  2  1  0
  5  4  1  0
  5  6  1  6
  7  5  1  0
  7  8  2  0
  9 10  1  0
 10 11  2  0
 11 12  1  0
 13 12  2  0
 13 14  1  0
 15 14  1  1
 15 16  1  0
 16  7  1  0
 17 15  1  0
 18 17  2  0
 19 13  1  0
 20 10  1  0
 20 19  2  0
 21 17  1  0
 22 21  1  0
 22 23  1  0
 23 24  1  0
 25 21  1  0
 25 24  1  0
 25 26  1  1
 27 26  2  0
 28 26  1  0
M  END
$$$$
