CEI.pdb
     RDKit          3D

 24 23  0  0  1  0  0  0  0  0999 V2000
    7.2205  -15.5083   18.0100 N   0  0  0  0  0  0  0  0  0  0  0  0
    8.0556  -14.7387   18.8759 C   0  0  1  0  0  0  0  0  0  0  0  0
    7.6348  -13.2876   18.9130 C   0  0  0  0  0  0  0  0  0  0  0  0
    8.8003  -12.4211   20.0089 S   0  0  0  0  0  0  0  0  0  0  0  0
    8.1790  -15.3393   20.2033 C   0  0  0  0  0  0  0  0  0  0  0  0
    7.1115  -15.7314   20.7802 O   0  0  0  0  0  0  0  0  0  0  0  0
    9.3754  -15.5283   20.9130 N   0  0  0  0  0  0  0  0  0  0  0  0
    9.4364  -16.2169   22.1611 C   0  0  1  0  0  0  0  0  0  0  0  0
   10.6652  -17.1277   22.2410 C   0  0  0  0  0  0  0  0  0  0  0  0
   10.6552  -17.8683   23.5668 C   0  0  0  0  0  0  0  0  0  0  0  0
   11.7683  -18.8064   23.6845 C   0  0  0  0  0  0  0  0  0  0  0  0
   11.6621  -19.8633   24.3468 O   0  0  0  0  0  0  0  0  0  0  0  0
    9.5125  -15.3013   23.3299 C   0  0  0  0  0  0  0  0  0  0  0  0
   10.4264  -14.4362   23.3153 O   0  0  0  0  0  0  0  0  0  0  0  0
   12.9703  -18.5373   23.0583 O   0  0  0  0  0  0  0  0  0  0  0  0
    6.4607  -11.6817   26.9072 C   0  0  0  0  0  0  0  0  0  0  0  0
    7.5860  -12.6678   26.9147 C   0  0  0  0  0  0  0  0  0  0  0  0
    7.4758  -13.5845   25.6893 C   0  0  2  0  0  0  0  0  0  0  0  0
    6.3118  -14.5144   25.9541 C   0  0  0  0  0  0  0  0  0  0  0  0
    8.7174  -14.4391   25.5693 C   0  0  2  0  0  0  0  0  0  0  0  0
    8.6434  -15.3395   24.4322 N   0  0  0  0  0  0  0  0  0  0  0  0
    8.8218  -15.2711   26.7933 C   0  0  0  0  0  0  0  0  0  0  0  0
    9.3328  -14.7262   27.9590 O   0  0  0  0  0  0  0  0  0  0  0  0
    8.4563  -16.4806   26.8161 O   0  0  0  0  0  0  0  0  0  0  0  0
  2  3  1  0
  2  1  1  6
  4  3  1  0
  5  6  2  0
  5  2  1  0
  7  5  1  0
  8 13  1  0
  8  7  1  0
  8  9  1  6
 10  9  1  0
 10 11  1  0
 11 12  2  0
 13 21  1  0
 14 13  2  0
 15 11  1  0
 17 16  1  0
 18 17  1  0
 18 20  1  0
 18 19  1  1
 20 22  1  0
 20 21  1  6
 22 24  2  0
 22 23  1  0
M  END
$$$$
