CEI.pdb
     RDKit          3D

 24 23  0  0  1  0  0  0  0  0999 V2000
    8.0786  -15.2297   18.3667 N   0  0  0  0  0  0  0  0  0  0  0  0
    8.3896  -14.3840   19.4745 C   0  0  1  0  0  0  0  0  0  0  0  0
    7.4750  -13.1822   19.5338 C   0  0  0  0  0  0  0  0  0  0  0  0
    8.0905  -11.9816   18.3132 S   0  0  0  0  0  0  0  0  0  0  0  0
    8.4551  -15.1236   20.7341 C   0  0  0  0  0  0  0  0  0  0  0  0
    7.4609  -15.0358   21.5277 O   0  0  0  0  0  0  0  0  0  0  0  0
    9.5214  -15.9317   21.1593 N   0  0  0  0  0  0  0  0  0  0  0  0
    9.5375  -16.5925   22.4238 C   0  0  1  0  0  0  0  0  0  0  0  0
   10.7307  -17.5452   22.5448 C   0  0  0  0  0  0  0  0  0  0  0  0
   10.6408  -18.2969   23.8614 C   0  0  0  0  0  0  0  0  0  0  0  0
   11.7516  -19.2272   24.0438 C   0  0  0  0  0  0  0  0  0  0  0  0
   11.6735  -20.1856   24.8453 O   0  0  0  0  0  0  0  0  0  0  0  0
    9.6289  -15.6530   23.5724 C   0  0  0  0  0  0  0  0  0  0  0  0
   10.6224  -14.8809   23.5971 O   0  0  0  0  0  0  0  0  0  0  0  0
   12.9200  -19.0608   23.3250 O   0  0  0  0  0  0  0  0  0  0  0  0
    6.7780  -11.5380   26.6957 C   0  0  0  0  0  0  0  0  0  0  0  0
    7.7951  -12.6263   26.8355 C   0  0  0  0  0  0  0  0  0  0  0  0
    7.6556  -13.6146   25.6702 C   0  0  2  0  0  0  0  0  0  0  0  0
    6.3549  -14.3558   25.8913 C   0  0  0  0  0  0  0  0  0  0  0  0
    8.7703  -14.6350   25.7211 C   0  0  2  0  0  0  0  0  0  0  0  0
    8.6921  -15.5734   24.6154 N   0  0  0  0  0  0  0  0  0  0  0  0
    8.6255  -15.4105   26.9777 C   0  0  0  0  0  0  0  0  0  0  0  0
    9.0388  -14.8629   28.1802 O   0  0  0  0  0  0  0  0  0  0  0  0
    8.1308  -16.5732   26.9958 O   0  0  0  0  0  0  0  0  0  0  0  0
  2  3  1  0
  2  1  1  6
  4  3  1  0
  5  6  2  0
  5  2  1  0
  7  5  1  0
  8 13  1  0
  8  7  1  0
  8  9  1  6
 10  9  1  0
 10 11  1  0
 11 12  2  0
 13 21  1  0
 14 13  2  0
 15 11  1  0
 17 16  1  0
 18 17  1  0
 18 20  1  0
 18 19  1  1
 20 22  1  0
 20 21  1  6
 22 24  2  0
 22 23  1  0
M  END
$$$$
