CEI.pdb
     RDKit          3D

 24 23  0  0  1  0  0  0  0  0999 V2000
    6.3417  -15.8692   19.4697 N   0  0  0  0  0  0  0  0  0  0  0  0
    7.7091  -15.5242   19.6943 C   0  0  1  0  0  0  0  0  0  0  0  0
    7.9695  -14.0621   19.4137 C   0  0  0  0  0  0  0  0  0  0  0  0
    7.1331  -13.1102   20.7192 S   0  0  0  0  0  0  0  0  0  0  0  0
    8.1790  -15.9531   21.0108 C   0  0  0  0  0  0  0  0  0  0  0  0
    7.3161  -16.0637   21.9432 O   0  0  0  0  0  0  0  0  0  0  0  0
    9.5061  -16.2588   21.3515 N   0  0  0  0  0  0  0  0  0  0  0  0
    9.8788  -16.7837   22.6248 C   0  0  1  0  0  0  0  0  0  0  0  0
   11.2951  -17.3661   22.5999 C   0  0  0  0  0  0  0  0  0  0  0  0
   11.5735  -18.0645   23.9195 C   0  0  0  0  0  0  0  0  0  0  0  0
   12.9254  -18.6137   23.9799 C   0  0  0  0  0  0  0  0  0  0  0  0
   13.1916  -19.6127   24.6856 O   0  0  0  0  0  0  0  0  0  0  0  0
    9.8609  -15.7626   23.7052 C   0  0  0  0  0  0  0  0  0  0  0  0
   10.4437  -14.6730   23.4668 O   0  0  0  0  0  0  0  0  0  0  0  0
   13.9433  -18.0308   23.2494 O   0  0  0  0  0  0  0  0  0  0  0  0
    6.4800  -12.3210   26.8565 C   0  0  0  0  0  0  0  0  0  0  0  0
    7.7686  -13.0729   26.9697 C   0  0  0  0  0  0  0  0  0  0  0  0
    7.8364  -14.1464   25.8756 C   0  0  2  0  0  0  0  0  0  0  0  0
    6.7259  -15.1305   26.1724 C   0  0  0  0  0  0  0  0  0  0  0  0
    9.1439  -14.8999   25.9707 C   0  0  2  0  0  0  0  0  0  0  0  0
    9.2447  -15.9335   24.9554 N   0  0  0  0  0  0  0  0  0  0  0  0
    9.1940  -15.5667   27.2951 C   0  0  0  0  0  0  0  0  0  0  0  0
    9.5653  -14.8476   28.4184 O   0  0  0  0  0  0  0  0  0  0  0  0
    8.9059  -16.7883   27.4431 O   0  0  0  0  0  0  0  0  0  0  0  0
  2  3  1  0
  2  1  1  1
  4  3  1  0
  5  6  2  0
  5  2  1  0
  7  5  1  0
  8 13  1  0
  8  7  1  0
  8  9  1  6
 10  9  1  0
 10 11  1  0
 11 12  2  0
 13 21  1  0
 14 13  2  0
 15 11  1  0
 17 16  1  0
 18 17  1  0
 18 20  1  0
 18 19  1  1
 20 22  1  0
 20 21  1  6
 22 24  2  0
 22 23  1  0
M  END
$$$$
