CEI.pdb
     RDKit          3D

 24 23  0  0  1  0  0  0  0  0999 V2000
    9.3456  -14.2540   18.8403 N   0  0  0  0  0  0  0  0  0  0  0  0
    8.3062  -13.8108   19.7136 C   0  0  1  0  0  0  0  0  0  0  0  0
    6.9954  -13.6410   18.9805 C   0  0  0  0  0  0  0  0  0  0  0  0
    7.3494  -12.7005   17.4638 S   0  0  0  0  0  0  0  0  0  0  0  0
    8.1960  -14.6439   20.9101 C   0  0  0  0  0  0  0  0  0  0  0  0
    7.2928  -14.3474   21.7601 O   0  0  0  0  0  0  0  0  0  0  0  0
    8.9996  -15.7533   21.2173 N   0  0  0  0  0  0  0  0  0  0  0  0
    8.9050  -16.4613   22.4525 C   0  0  1  0  0  0  0  0  0  0  0  0
    9.8224  -17.6876   22.4689 C   0  0  0  0  0  0  0  0  0  0  0  0
    9.6579  -18.4194   23.7895 C   0  0  0  0  0  0  0  0  0  0  0  0
   10.4429  -19.6498   23.8413 C   0  0  0  0  0  0  0  0  0  0  0  0
   10.9368  -20.0625   24.9149 O   0  0  0  0  0  0  0  0  0  0  0  0
    9.2829  -15.6352   23.6293 C   0  0  0  0  0  0  0  0  0  0  0  0
   10.4061  -15.0690   23.5889 O   0  0  0  0  0  0  0  0  0  0  0  0
   10.6546  -20.3856   22.6909 O   0  0  0  0  0  0  0  0  0  0  0  0
    6.0672  -12.0201   25.6486 C   0  0  0  0  0  0  0  0  0  0  0  0
    7.2502  -12.8265   25.2142 C   0  0  0  0  0  0  0  0  0  0  0  0
    7.6880  -13.7545   26.3548 C   0  0  2  0  0  0  0  0  0  0  0  0
    8.2030  -12.8592   27.4609 C   0  0  0  0  0  0  0  0  0  0  0  0
    8.8415  -14.6213   25.9026 C   0  0  2  0  0  0  0  0  0  0  0  0
    8.4792  -15.4493   24.7657 N   0  0  0  0  0  0  0  0  0  0  0  0
    9.2000  -15.5281   27.0208 C   0  0  0  0  0  0  0  0  0  0  0  0
   10.1857  -15.1607   27.9209 O   0  0  0  0  0  0  0  0  0  0  0  0
    8.6315  -16.6442   27.1888 O   0  0  0  0  0  0  0  0  0  0  0  0
  2  3  1  0
  2  1  1  6
  4  3  1  0
  5  6  2  0
  5  2  1  0
  7  5  1  0
  8 13  1  0
  8  7  1  0
  8  9  1  6
 10  9  1  0
 10 11  1  0
 11 12  2  0
 13 21  1  0
 14 13  2  0
 15 11  1  0
 17 16  1  0
 18 17  1  0
 18 20  1  0
 18 19  1  1
 20 22  1  0
 20 21  1  6
 22 24  2  0
 22 23  1  0
M  END
$$$$
