CEI.pdb
     RDKit          3D

 24 23  0  0  1  0  0  0  0  0999 V2000
    6.9643  -14.9165   18.7550 N   0  0  0  0  0  0  0  0  0  0  0  0
    8.0368  -14.4498   19.5743 C   0  0  1  0  0  0  0  0  0  0  0  0
    8.0394  -12.9425   19.6857 C   0  0  0  0  0  0  0  0  0  0  0  0
    8.4361  -12.2856   18.0360 S   0  0  0  0  0  0  0  0  0  0  0  0
    8.0777  -15.1256   20.8703 C   0  0  0  0  0  0  0  0  0  0  0  0
    6.9731  -15.3083   21.4808 O   0  0  0  0  0  0  0  0  0  0  0  0
    9.2311  -15.5989   21.5155 N   0  0  0  0  0  0  0  0  0  0  0  0
    9.1925  -16.3011   22.7570 C   0  0  1  0  0  0  0  0  0  0  0  0
   10.2147  -17.4412   22.7897 C   0  0  0  0  0  0  0  0  0  0  0  0
   10.1251  -18.1570   24.1262 C   0  0  0  0  0  0  0  0  0  0  0  0
   11.0629  -19.2726   24.2198 C   0  0  0  0  0  0  0  0  0  0  0  0
   11.2867  -20.0193   23.2404 O   0  0  0  0  0  0  0  0  0  0  0  0
    9.4892  -15.4341   23.9277 C   0  0  0  0  0  0  0  0  0  0  0  0
   10.5824  -14.8109   23.9105 O   0  0  0  0  0  0  0  0  0  0  0  0
   11.7252  -19.5232   25.4064 O   0  0  0  0  0  0  0  0  0  0  0  0
    5.9221  -12.0269   25.7376 C   0  0  0  0  0  0  0  0  0  0  0  0
    7.2035  -12.7086   25.3742 C   0  0  0  0  0  0  0  0  0  0  0  0
    7.6646  -13.5937   26.5395 C   0  0  2  0  0  0  0  0  0  0  0  0
    8.0590  -12.6554   27.6593 C   0  0  0  0  0  0  0  0  0  0  0  0
    8.9017  -14.3676   26.1431 C   0  0  2  0  0  0  0  0  0  0  0  0
    8.6407  -15.2686   25.0342 N   0  0  0  0  0  0  0  0  0  0  0  0
    9.3174  -15.1939   27.3032 C   0  0  0  0  0  0  0  0  0  0  0  0
   10.1438  -14.6561   28.2751 O   0  0  0  0  0  0  0  0  0  0  0  0
    8.9408  -16.3920   27.4434 O   0  0  0  0  0  0  0  0  0  0  0  0
  2  3  1  0
  2  1  1  1
  4  3  1  0
  5  6  2  0
  5  2  1  0
  7  5  1  0
  8 13  1  0
  8  7  1  0
  8  9  1  6
 10  9  1  0
 10 11  1  0
 11 12  2  0
 13 21  1  0
 14 13  2  0
 15 11  1  0
 17 16  1  0
 18 17  1  0
 18 20  1  0
 18 19  1  1
 20 22  1  0
 20 21  1  6
 22 24  2  0
 22 23  1  0
M  END
$$$$
