CEI.pdb
     RDKit          3D

 24 23  0  0  1  0  0  0  0  0999 V2000
    7.3562  -14.9135   18.4690 N   0  0  0  0  0  0  0  0  0  0  0  0
    8.1995  -14.3254   19.4602 C   0  0  1  0  0  0  0  0  0  0  0  0
    7.9059  -12.8539   19.6415 C   0  0  0  0  0  0  0  0  0  0  0  0
    8.4411  -12.0109   18.1207 S   0  0  0  0  0  0  0  0  0  0  0  0
    8.1864  -15.0767   20.7144 C   0  0  0  0  0  0  0  0  0  0  0  0
    7.0561  -15.3069   21.2580 O   0  0  0  0  0  0  0  0  0  0  0  0
    9.3134  -15.5755   21.3867 N   0  0  0  0  0  0  0  0  0  0  0  0
    9.2277  -16.2968   22.6148 C   0  0  1  0  0  0  0  0  0  0  0  0
   10.2393  -17.4458   22.6634 C   0  0  0  0  0  0  0  0  0  0  0  0
    9.8074  -18.5355   21.6978 C   0  0  0  0  0  0  0  0  0  0  0  0
   10.7174  -19.6776   21.7101 C   0  0  0  0  0  0  0  0  0  0  0  0
   11.7627  -19.6849   21.0215 O   0  0  0  0  0  0  0  0  0  0  0  0
    9.4918  -15.4507   23.8084 C   0  0  0  0  0  0  0  0  0  0  0  0
   10.5624  -14.7891   23.8101 O   0  0  0  0  0  0  0  0  0  0  0  0
   10.4339  -20.7810   22.4922 O   0  0  0  0  0  0  0  0  0  0  0  0
    5.8022  -12.3083   25.9334 C   0  0  0  0  0  0  0  0  0  0  0  0
    7.0853  -12.9233   25.4707 C   0  0  0  0  0  0  0  0  0  0  0  0
    7.6514  -13.8259   26.5746 C   0  0  2  0  0  0  0  0  0  0  0  0
    8.0600  -12.9104   27.7081 C   0  0  0  0  0  0  0  0  0  0  0  0
    8.9012  -14.5214   26.0839 C   0  0  2  0  0  0  0  0  0  0  0  0
    8.6364  -15.3442   24.9168 N   0  0  0  0  0  0  0  0  0  0  0  0
    9.3817  -15.4177   27.1641 C   0  0  0  0  0  0  0  0  0  0  0  0
   10.2919  -14.9509   28.0971 O   0  0  0  0  0  0  0  0  0  0  0  0
    8.9867  -16.6135   27.2698 O   0  0  0  0  0  0  0  0  0  0  0  0
  2  3  1  0
  2  1  1  6
  4  3  1  0
  5  6  2  0
  5  2  1  0
  7  5  1  0
  8 13  1  0
  8  7  1  0
  8  9  1  6
 10  9  1  0
 10 11  1  0
 11 12  2  0
 13 21  1  0
 14 13  2  0
 15 11  1  0
 17 16  1  0
 18 17  1  0
 18 20  1  0
 18 19  1  1
 20 22  1  0
 20 21  1  6
 22 24  2  0
 22 23  1  0
M  END
$$$$
