CEI.pdb
     RDKit          3D

 24 23  0  0  1  0  0  0  0  0999 V2000
    6.6122  -17.3549   19.2572 N   0  0  0  0  0  0  0  0  0  0  0  0
    7.5420  -16.3863   19.7438 C   0  0  1  0  0  0  0  0  0  0  0  0
    6.9743  -14.9870   19.6822 C   0  0  0  0  0  0  0  0  0  0  0  0
    5.6620  -14.8870   20.9385 S   0  0  0  0  0  0  0  0  0  0  0  0
    8.0697  -16.7390   21.0610 C   0  0  0  0  0  0  0  0  0  0  0  0
    7.3277  -17.4313   21.8332 O   0  0  0  0  0  0  0  0  0  0  0  0
    9.3314  -16.3840   21.5640 N   0  0  0  0  0  0  0  0  0  0  0  0
    9.8065  -16.8122   22.8394 C   0  0  1  0  0  0  0  0  0  0  0  0
   11.2591  -17.2921   22.7659 C   0  0  0  0  0  0  0  0  0  0  0  0
   11.7284  -17.6856   24.1557 C   0  0  0  0  0  0  0  0  0  0  0  0
   13.1055  -18.1715   24.1573 C   0  0  0  0  0  0  0  0  0  0  0  0
   13.3652  -19.3930   24.0702 O   0  0  0  0  0  0  0  0  0  0  0  0
    9.7677  -15.7389   23.8674 C   0  0  0  0  0  0  0  0  0  0  0  0
   10.3119  -14.6447   23.5670 O   0  0  0  0  0  0  0  0  0  0  0  0
   14.1553  -17.2784   24.2562 O   0  0  0  0  0  0  0  0  0  0  0  0
    6.8735  -11.7711   26.6074 C   0  0  0  0  0  0  0  0  0  0  0  0
    7.9324  -12.7713   26.9496 C   0  0  0  0  0  0  0  0  0  0  0  0
    7.9162  -13.9107   25.9222 C   0  0  2  0  0  0  0  0  0  0  0  0
    6.6818  -14.7349   26.2169 C   0  0  0  0  0  0  0  0  0  0  0  0
    9.1164  -14.8076   26.1255 C   0  0  2  0  0  0  0  0  0  0  0  0
    9.1719  -15.8660   25.1325 N   0  0  0  0  0  0  0  0  0  0  0  0
    8.9895  -15.4491   27.4573 C   0  0  0  0  0  0  0  0  0  0  0  0
    8.7577  -16.8109   27.5501 O   0  0  0  0  0  0  0  0  0  0  0  0
    9.0860  -14.7907   28.5316 O   0  0  0  0  0  0  0  0  0  0  0  0
  2  3  1  0
  2  1  1  1
  4  3  1  0
  5  6  2  0
  5  2  1  0
  7  5  1  0
  8 13  1  0
  8  7  1  0
  8  9  1  6
 10  9  1  0
 10 11  1  0
 11 12  2  0
 13 21  1  0
 14 13  2  0
 15 11  1  0
 17 16  1  0
 18 17  1  0
 18 20  1  0
 18 19  1  1
 20 22  1  0
 20 21  1  6
 22 24  2  0
 22 23  1  0
M  END
$$$$
