CEI.pdb
     RDKit          3D

 24 23  0  0  1  0  0  0  0  0999 V2000
    7.7326  -15.5078   17.8653 N   0  0  0  0  0  0  0  0  0  0  0  0
    8.2139  -14.7242   18.9578 C   0  0  1  0  0  0  0  0  0  0  0  0
    7.5977  -13.3442   18.9695 C   0  0  0  0  0  0  0  0  0  0  0  0
    8.2907  -12.4617   20.4016 S   0  0  0  0  0  0  0  0  0  0  0  0
    8.0915  -15.4231   20.2362 C   0  0  0  0  0  0  0  0  0  0  0  0
    6.9587  -15.9290   20.5315 O   0  0  0  0  0  0  0  0  0  0  0  0
    9.1145  -15.5931   21.1824 N   0  0  0  0  0  0  0  0  0  0  0  0
    8.9079  -16.2302   22.4423 C   0  0  1  0  0  0  0  0  0  0  0  0
    9.7853  -17.4765   22.5924 C   0  0  0  0  0  0  0  0  0  0  0  0
    9.4489  -18.4629   21.4876 C   0  0  0  0  0  0  0  0  0  0  0  0
   10.2284  -19.6937   21.5891 C   0  0  0  0  0  0  0  0  0  0  0  0
   11.2623  -19.7537   22.2921 O   0  0  0  0  0  0  0  0  0  0  0  0
    9.2213  -15.3511   23.5995 C   0  0  0  0  0  0  0  0  0  0  0  0
   10.2913  -14.6914   23.5383 O   0  0  0  0  0  0  0  0  0  0  0  0
    9.8306  -20.8244   20.9015 O   0  0  0  0  0  0  0  0  0  0  0  0
    5.7180  -12.0534   25.7883 C   0  0  0  0  0  0  0  0  0  0  0  0
    6.9526  -12.7367   25.2907 C   0  0  0  0  0  0  0  0  0  0  0  0
    7.5262  -13.6332   26.3959 C   0  0  2  0  0  0  0  0  0  0  0  0
    7.9982  -12.7073   27.4958 C   0  0  0  0  0  0  0  0  0  0  0  0
    8.7381  -14.3770   25.8816 C   0  0  2  0  0  0  0  0  0  0  0  0
    8.4124  -15.2120   24.7388 N   0  0  0  0  0  0  0  0  0  0  0  0
    9.2227  -15.2685   26.9640 C   0  0  0  0  0  0  0  0  0  0  0  0
   10.2356  -14.8453   27.8076 O   0  0  0  0  0  0  0  0  0  0  0  0
    8.7396  -16.4212   27.1512 O   0  0  0  0  0  0  0  0  0  0  0  0
  2  3  1  0
  2  1  1  6
  4  3  1  0
  5  6  2  0
  5  2  1  0
  7  5  1  0
  8 13  1  0
  8  7  1  0
  8  9  1  6
 10  9  1  0
 10 11  1  0
 11 12  2  0
 13 21  1  0
 14 13  2  0
 15 11  1  0
 17 16  1  0
 18 17  1  0
 18 20  1  0
 18 19  1  1
 20 22  1  0
 20 21  1  6
 22 24  2  0
 22 23  1  0
M  END
$$$$
