CEI.pdb
     RDKit          3D

 24 23  0  0  1  0  0  0  0  0999 V2000
    7.1668  -14.8832   18.6636 N   0  0  0  0  0  0  0  0  0  0  0  0
    8.0505  -14.3188   19.6330 C   0  0  1  0  0  0  0  0  0  0  0  0
    7.7472  -12.8593   19.8823 C   0  0  0  0  0  0  0  0  0  0  0  0
    8.2812  -11.9425   18.4044 S   0  0  0  0  0  0  0  0  0  0  0  0
    8.1094  -15.1148   20.8580 C   0  0  0  0  0  0  0  0  0  0  0  0
    7.0068  -15.4311   21.4153 O   0  0  0  0  0  0  0  0  0  0  0  0
    9.2783  -15.5705   21.4879 N   0  0  0  0  0  0  0  0  0  0  0  0
    9.2651  -16.2942   22.7175 C   0  0  1  0  0  0  0  0  0  0  0  0
   10.2672  -17.4522   22.6988 C   0  0  0  0  0  0  0  0  0  0  0  0
   10.2094  -18.1872   24.0266 C   0  0  0  0  0  0  0  0  0  0  0  0
   11.1471  -19.3054   24.0808 C   0  0  0  0  0  0  0  0  0  0  0  0
   10.7799  -20.4463   24.4420 O   0  0  0  0  0  0  0  0  0  0  0  0
    9.6127  -15.4537   23.8935 C   0  0  0  0  0  0  0  0  0  0  0  0
   10.7307  -14.8763   23.8685 O   0  0  0  0  0  0  0  0  0  0  0  0
   12.4704  -19.1178   23.7297 O   0  0  0  0  0  0  0  0  0  0  0  0
    5.8400  -12.7438   26.8217 C   0  0  0  0  0  0  0  0  0  0  0  0
    6.7651  -13.8721   26.4905 C   0  0  0  0  0  0  0  0  0  0  0  0
    8.2097  -13.3574   26.4448 C   0  0  2  0  0  0  0  0  0  0  0  0
    8.2960  -12.4305   25.2519 C   0  0  0  0  0  0  0  0  0  0  0  0
    9.1603  -14.5061   26.1930 C   0  0  2  0  0  0  0  0  0  0  0  0
    8.7863  -15.2657   25.0130 N   0  0  0  0  0  0  0  0  0  0  0  0
    9.0901  -15.4235   27.3570 C   0  0  0  0  0  0  0  0  0  0  0  0
    9.5871  -15.0222   28.5853 O   0  0  0  0  0  0  0  0  0  0  0  0
    8.5854  -16.5789   27.2717 O   0  0  0  0  0  0  0  0  0  0  0  0
  2  3  1  0
  2  1  1  6
  4  3  1  0
  5  6  2  0
  5  2  1  0
  7  5  1  0
  8 13  1  0
  8  7  1  0
  8  9  1  6
 10  9  1  0
 10 11  1  0
 11 12  2  0
 13 21  1  0
 14 13  2  0
 15 11  1  0
 17 16  1  0
 18 17  1  0
 18 20  1  0
 18 19  1  6
 20 22  1  0
 20 21  1  6
 22 24  2  0
 22 23  1  0
M  END
$$$$
