CEI.pdb
     RDKit          3D

 24 23  0  0  1  0  0  0  0  0999 V2000
    7.0520  -15.5723   18.3350 N   0  0  0  0  0  0  0  0  0  0  0  0
    7.8698  -14.7953   19.2107 C   0  0  1  0  0  0  0  0  0  0  0  0
    7.4625  -13.3398   19.2104 C   0  0  0  0  0  0  0  0  0  0  0  0
    8.5312  -12.4857   20.4098 S   0  0  0  0  0  0  0  0  0  0  0  0
    7.9495  -15.3733   20.5514 C   0  0  0  0  0  0  0  0  0  0  0  0
    6.8797  -15.8457   21.0600 O   0  0  0  0  0  0  0  0  0  0  0  0
    9.1057  -15.4594   21.3430 N   0  0  0  0  0  0  0  0  0  0  0  0
    9.1446  -16.1596   22.5856 C   0  0  1  0  0  0  0  0  0  0  0  0
   10.2234  -17.2468   22.5845 C   0  0  0  0  0  0  0  0  0  0  0  0
   10.1599  -18.0178   23.8914 C   0  0  0  0  0  0  0  0  0  0  0  0
   11.1286  -19.1096   23.9368 C   0  0  0  0  0  0  0  0  0  0  0  0
   10.9090  -20.1995   23.3616 O   0  0  0  0  0  0  0  0  0  0  0  0
    9.4368  -15.2758   23.7448 C   0  0  0  0  0  0  0  0  0  0  0  0
   10.5212  -14.6379   23.7137 O   0  0  0  0  0  0  0  0  0  0  0  0
   12.3171  -18.9533   24.6243 O   0  0  0  0  0  0  0  0  0  0  0  0
    5.5390  -12.2900   25.8187 C   0  0  0  0  0  0  0  0  0  0  0  0
    6.8752  -12.7691   25.3457 C   0  0  0  0  0  0  0  0  0  0  0  0
    7.5605  -13.5684   26.4617 C   0  0  2  0  0  0  0  0  0  0  0  0
    7.9391  -12.5690   27.5330 C   0  0  0  0  0  0  0  0  0  0  0  0
    8.8419  -14.1833   25.9455 C   0  0  2  0  0  0  0  0  0  0  0  0
    8.5933  -15.1098   24.8551 N   0  0  0  0  0  0  0  0  0  0  0  0
    9.4611  -14.9514   27.0535 C   0  0  0  0  0  0  0  0  0  0  0  0
    9.1222  -16.2795   27.2487 O   0  0  0  0  0  0  0  0  0  0  0  0
   10.3017  -14.4331   27.8421 O   0  0  0  0  0  0  0  0  0  0  0  0
  2  3  1  0
  2  1  1  6
  4  3  1  0
  5  6  2  0
  5  2  1  0
  7  5  1  0
  8 13  1  0
  8  7  1  0
  8  9  1  6
 10  9  1  0
 10 11  1  0
 11 12  2  0
 13 21  1  0
 14 13  2  0
 15 11  1  0
 17 16  1  0
 18 17  1  0
 18 20  1  0
 18 19  1  1
 20 22  1  0
 20 21  1  6
 22 24  2  0
 22 23  1  0
M  END
$$$$
