CEI.pdb
     RDKit          3D

 24 23  0  0  1  0  0  0  0  0999 V2000
    7.1869  -13.5860   18.2466 N   0  0  0  0  0  0  0  0  0  0  0  0
    8.3524  -14.2177   18.7777 C   0  0  1  0  0  0  0  0  0  0  0  0
    9.5462  -13.2909   18.7620 C   0  0  0  0  0  0  0  0  0  0  0  0
    9.1198  -11.8528   19.7917 S   0  0  0  0  0  0  0  0  0  0  0  0
    8.1066  -14.8221   20.0862 C   0  0  0  0  0  0  0  0  0  0  0  0
    7.0883  -14.4248   20.7430 O   0  0  0  0  0  0  0  0  0  0  0  0
    8.8941  -15.8108   20.6970 N   0  0  0  0  0  0  0  0  0  0  0  0
    8.5653  -16.3963   21.9559 C   0  0  1  0  0  0  0  0  0  0  0  0
    9.3338  -17.7008   22.1868 C   0  0  0  0  0  0  0  0  0  0  0  0
    8.5292  -18.8624   21.6302 C   0  0  0  0  0  0  0  0  0  0  0  0
    8.9605  -19.2405   20.2872 C   0  0  0  0  0  0  0  0  0  0  0  0
    8.3450  -18.8473   19.2706 O   0  0  0  0  0  0  0  0  0  0  0  0
    8.8769  -15.5125   23.1100 C   0  0  0  0  0  0  0  0  0  0  0  0
    9.9242  -14.8194   23.0283 O   0  0  0  0  0  0  0  0  0  0  0  0
   10.0687  -20.0484   20.1172 O   0  0  0  0  0  0  0  0  0  0  0  0
    6.4281  -11.6736   27.0311 C   0  0  0  0  0  0  0  0  0  0  0  0
    7.5252  -12.6738   26.8452 C   0  0  0  0  0  0  0  0  0  0  0  0
    7.2233  -13.5482   25.6211 C   0  0  2  0  0  0  0  0  0  0  0  0
    6.0130  -14.3827   25.9796 C   0  0  0  0  0  0  0  0  0  0  0  0
    8.3701  -14.5014   25.3709 C   0  0  2  0  0  0  0  0  0  0  0  0
    8.0896  -15.4033   24.2676 N   0  0  0  0  0  0  0  0  0  0  0  0
    8.5541  -15.3278   26.5892 C   0  0  0  0  0  0  0  0  0  0  0  0
    9.2520  -14.8194   27.6714 O   0  0  0  0  0  0  0  0  0  0  0  0
    8.0908  -16.4999   26.6817 O   0  0  0  0  0  0  0  0  0  0  0  0
  2  3  1  0
  2  1  1  1
  4  3  1  0
  5  6  2  0
  5  2  1  0
  7  5  1  0
  8 13  1  0
  8  7  1  0
  8  9  1  1
 10  9  1  0
 10 11  1  0
 11 12  2  0
 13 21  1  0
 14 13  2  0
 15 11  1  0
 17 16  1  0
 18 17  1  0
 18 20  1  0
 18 19  1  1
 20 22  1  0
 20 21  1  6
 22 24  2  0
 22 23  1  0
M  END
$$$$
