CEI.pdb
     RDKit          3D

 24 23  0  0  1  0  0  0  0  0999 V2000
    7.4661  -14.9899   18.4537 N   0  0  0  0  0  0  0  0  0  0  0  0
    8.2541  -14.4158   19.4971 C   0  0  1  0  0  0  0  0  0  0  0  0
    7.8823  -12.9726   19.7482 C   0  0  0  0  0  0  0  0  0  0  0  0
    8.4994  -12.0081   18.3343 S   0  0  0  0  0  0  0  0  0  0  0  0
    8.2483  -15.2339   20.7090 C   0  0  0  0  0  0  0  0  0  0  0  0
    7.1215  -15.6394   21.1473 O   0  0  0  0  0  0  0  0  0  0  0  0
    9.3786  -15.6208   21.4461 N   0  0  0  0  0  0  0  0  0  0  0  0
    9.2959  -16.3772   22.6531 C   0  0  1  0  0  0  0  0  0  0  0  0
   10.2972  -17.5361   22.6598 C   0  0  0  0  0  0  0  0  0  0  0  0
    9.9492  -18.5062   21.5443 C   0  0  0  0  0  0  0  0  0  0  0  0
   10.8767  -19.6324   21.4816 C   0  0  0  0  0  0  0  0  0  0  0  0
   10.9926  -20.4345   22.4357 O   0  0  0  0  0  0  0  0  0  0  0  0
    9.5770  -15.5691   23.8689 C   0  0  0  0  0  0  0  0  0  0  0  0
   10.6968  -14.9975   23.9248 O   0  0  0  0  0  0  0  0  0  0  0  0
   11.6496  -19.8316   20.3536 O   0  0  0  0  0  0  0  0  0  0  0  0
    6.6224  -11.7376   25.7628 C   0  0  0  0  0  0  0  0  0  0  0  0
    7.7347  -12.6754   25.4133 C   0  0  0  0  0  0  0  0  0  0  0  0
    7.9104  -13.7070   26.5352 C   0  0  2  0  0  0  0  0  0  0  0  0
    8.3865  -12.9407   27.7502 C   0  0  0  0  0  0  0  0  0  0  0  0
    8.9985  -14.6906   26.1677 C   0  0  2  0  0  0  0  0  0  0  0  0
    8.6867  -15.4053   24.9424 N   0  0  0  0  0  0  0  0  0  0  0  0
    9.0986  -15.6924   27.2574 C   0  0  0  0  0  0  0  0  0  0  0  0
    9.8900  -15.4347   28.3638 O   0  0  0  0  0  0  0  0  0  0  0  0
    8.4792  -16.7932   27.2164 O   0  0  0  0  0  0  0  0  0  0  0  0
  2  3  1  0
  2  1  1  6
  4  3  1  0
  5  6  2  0
  5  2  1  0
  7  5  1  0
  8 13  1  0
  8  7  1  0
  8  9  1  6
 10  9  1  0
 10 11  1  0
 11 12  2  0
 13 21  1  0
 14 13  2  0
 15 11  1  0
 17 16  1  0
 18 17  1  0
 18 20  1  0
 18 19  1  1
 20 22  1  0
 20 21  1  6
 22 24  2  0
 22 23  1  0
M  END
$$$$
