CEI.pdb
     RDKit          3D

 24 23  0  0  1  0  0  0  0  0999 V2000
    7.0797  -16.5842   18.6368 N   0  0  0  0  0  0  0  0  0  0  0  0
    7.8558  -15.6188   19.3474 C   0  0  1  0  0  0  0  0  0  0  0  0
    7.2496  -14.2374   19.2549 C   0  0  0  0  0  0  0  0  0  0  0  0
    8.4109  -13.0895   20.0574 S   0  0  0  0  0  0  0  0  0  0  0  0
    8.1366  -16.0365   20.7201 C   0  0  0  0  0  0  0  0  0  0  0  0
    7.1518  -16.3983   21.4450 O   0  0  0  0  0  0  0  0  0  0  0  0
    9.4028  -16.0781   21.3250 N   0  0  0  0  0  0  0  0  0  0  0  0
    9.6099  -16.5359   22.6604 C   0  0  1  0  0  0  0  0  0  0  0  0
   10.9626  -17.2384   22.8102 C   0  0  0  0  0  0  0  0  0  0  0  0
   10.7833  -18.7279   22.5739 C   0  0  0  0  0  0  0  0  0  0  0  0
   11.7692  -19.5252   23.2985 C   0  0  0  0  0  0  0  0  0  0  0  0
   11.4298  -20.2964   24.2243 O   0  0  0  0  0  0  0  0  0  0  0  0
    9.5903  -15.4388   23.6634 C   0  0  0  0  0  0  0  0  0  0  0  0
   10.4137  -14.5018   23.4965 O   0  0  0  0  0  0  0  0  0  0  0  0
   13.1082  -19.4388   22.9682 O   0  0  0  0  0  0  0  0  0  0  0  0
    6.5046  -11.4431   26.7164 C   0  0  0  0  0  0  0  0  0  0  0  0
    7.6420  -12.4045   26.8604 C   0  0  0  0  0  0  0  0  0  0  0  0
    7.5268  -13.5021   25.7946 C   0  0  2  0  0  0  0  0  0  0  0  0
    6.3709  -14.3847   26.2127 C   0  0  0  0  0  0  0  0  0  0  0  0
    8.7726  -14.3591   25.7979 C   0  0  2  0  0  0  0  0  0  0  0  0
    8.7252  -15.3819   24.7680 N   0  0  0  0  0  0  0  0  0  0  0  0
    8.8524  -15.0477   27.1096 C   0  0  0  0  0  0  0  0  0  0  0  0
    8.7458  -16.4265   27.1749 O   0  0  0  0  0  0  0  0  0  0  0  0
    9.0168  -14.4151   28.1912 O   0  0  0  0  0  0  0  0  0  0  0  0
  2  3  1  0
  2  1  1  1
  4  3  1  0
  5  6  2  0
  5  2  1  0
  7  5  1  0
  8 13  1  0
  8  7  1  0
  8  9  1  6
 10  9  1  0
 10 11  1  0
 11 12  2  0
 13 21  1  0
 14 13  2  0
 15 11  1  0
 17 16  1  0
 18 17  1  0
 18 20  1  0
 18 19  1  1
 20 22  1  0
 20 21  1  6
 22 24  2  0
 22 23  1  0
M  END
$$$$
