CEI.pdb
     RDKit          3D

 24 23  0  0  1  0  0  0  0  0999 V2000
    6.9924  -14.6683   18.5839 N   0  0  0  0  0  0  0  0  0  0  0  0
    8.2295  -14.7580   19.2915 C   0  0  1  0  0  0  0  0  0  0  0  0
    8.9783  -13.4452   19.2760 C   0  0  0  0  0  0  0  0  0  0  0  0
    7.7329  -12.1206   19.2081 S   0  0  0  0  0  0  0  0  0  0  0  0
    8.0601  -15.3115   20.6342 C   0  0  0  0  0  0  0  0  0  0  0  0
    6.8866  -15.3127   21.1332 O   0  0  0  0  0  0  0  0  0  0  0  0
    9.0785  -15.8487   21.4373 N   0  0  0  0  0  0  0  0  0  0  0  0
    8.8292  -16.4498   22.7071 C   0  0  1  0  0  0  0  0  0  0  0  0
    9.5779  -17.7775   22.8570 C   0  0  0  0  0  0  0  0  0  0  0  0
    9.2632  -18.3803   24.2150 C   0  0  0  0  0  0  0  0  0  0  0  0
    9.9296  -19.6638   24.4180 C   0  0  0  0  0  0  0  0  0  0  0  0
   11.1629  -19.7324   24.6214 O   0  0  0  0  0  0  0  0  0  0  0  0
    9.2495  -15.5965   23.8496 C   0  0  0  0  0  0  0  0  0  0  0  0
   10.4486  -15.2148   23.8627 O   0  0  0  0  0  0  0  0  0  0  0  0
    9.1989  -20.8363   24.3881 O   0  0  0  0  0  0  0  0  0  0  0  0
    5.9743  -11.8288   25.9172 C   0  0  0  0  0  0  0  0  0  0  0  0
    7.1701  -12.5827   25.4269 C   0  0  0  0  0  0  0  0  0  0  0  0
    7.6807  -13.5148   26.5335 C   0  0  2  0  0  0  0  0  0  0  0  0
    8.2402  -12.6223   27.6200 C   0  0  0  0  0  0  0  0  0  0  0  0
    8.8212  -14.3600   26.0125 C   0  0  2  0  0  0  0  0  0  0  0  0
    8.4071  -15.1955   24.8991 N   0  0  0  0  0  0  0  0  0  0  0  0
    9.2632  -15.2591   27.1069 C   0  0  0  0  0  0  0  0  0  0  0  0
    8.7782  -16.5539   27.1772 O   0  0  0  0  0  0  0  0  0  0  0  0
   10.0803  -14.8842   27.9951 O   0  0  0  0  0  0  0  0  0  0  0  0
  2  3  1  0
  2  1  1  1
  4  3  1  0
  5  6  2  0
  5  2  1  0
  7  5  1  0
  8 13  1  0
  8  7  1  0
  8  9  1  6
 10  9  1  0
 10 11  1  0
 11 12  2  0
 13 21  1  0
 14 13  2  0
 15 11  1  0
 17 16  1  0
 18 17  1  0
 18 20  1  0
 18 19  1  1
 20 22  1  0
 20 21  1  6
 22 24  2  0
 22 23  1  0
M  END
$$$$
