CEI.pdb
     RDKit          3D

 24 23  0  0  1  0  0  0  0  0999 V2000
    7.1279  -15.0532   18.3221 N   0  0  0  0  0  0  0  0  0  0  0  0
    8.0358  -14.4340   19.2340 C   0  0  1  0  0  0  0  0  0  0  0  0
    7.6916  -12.9804   19.4641 C   0  0  0  0  0  0  0  0  0  0  0  0
    8.6891  -12.0039   18.2973 S   0  0  0  0  0  0  0  0  0  0  0  0
    8.1823  -15.1968   20.4727 C   0  0  0  0  0  0  0  0  0  0  0  0
    7.1197  -15.5501   21.0829 O   0  0  0  0  0  0  0  0  0  0  0  0
    9.3963  -15.5829   21.0627 N   0  0  0  0  0  0  0  0  0  0  0  0
    9.4662  -16.3142   22.2858 C   0  0  1  0  0  0  0  0  0  0  0  0
   10.6676  -17.2641   22.3047 C   0  0  0  0  0  0  0  0  0  0  0  0
   10.6637  -18.0521   23.6029 C   0  0  0  0  0  0  0  0  0  0  0  0
   11.8494  -18.8931   23.7428 C   0  0  0  0  0  0  0  0  0  0  0  0
   12.0169  -19.6208   24.7475 O   0  0  0  0  0  0  0  0  0  0  0  0
    9.5994  -15.4409   23.4815 C   0  0  0  0  0  0  0  0  0  0  0  0
   10.5048  -14.5673   23.4490 O   0  0  0  0  0  0  0  0  0  0  0  0
   12.8160  -18.8978   22.7552 O   0  0  0  0  0  0  0  0  0  0  0  0
    6.7158  -11.7151   26.9561 C   0  0  0  0  0  0  0  0  0  0  0  0
    7.7986  -12.7460   27.0143 C   0  0  0  0  0  0  0  0  0  0  0  0
    7.6722  -13.6942   25.8148 C   0  0  2  0  0  0  0  0  0  0  0  0
    6.4524  -14.5515   26.0740 C   0  0  0  0  0  0  0  0  0  0  0  0
    8.8682  -14.6176   25.7571 C   0  0  2  0  0  0  0  0  0  0  0  0
    8.7922  -15.5270   24.6272 N   0  0  0  0  0  0  0  0  0  0  0  0
    8.8743  -15.4384   26.9930 C   0  0  0  0  0  0  0  0  0  0  0  0
    8.6095  -16.7955   26.9237 O   0  0  0  0  0  0  0  0  0  0  0  0
    9.1161  -14.9399   28.1288 O   0  0  0  0  0  0  0  0  0  0  0  0
  2  3  1  0
  2  1  1  6
  4  3  1  0
  5  6  2  0
  5  2  1  0
  7  5  1  0
  8 13  1  0
  8  7  1  0
  8  9  1  6
 10  9  1  0
 10 11  1  0
 11 12  2  0
 13 21  1  0
 14 13  2  0
 15 11  1  0
 17 16  1  0
 18 17  1  0
 18 20  1  0
 18 19  1  1
 20 22  1  0
 20 21  1  6
 22 24  2  0
 22 23  1  0
M  END
$$$$
