CEI.pdb
     RDKit          3D

 24 23  0  0  1  0  0  0  0  0999 V2000
    8.1143  -14.4607   17.5883 N   0  0  0  0  0  0  0  0  0  0  0  0
    9.0348  -14.4337   18.6798 C   0  0  1  0  0  0  0  0  0  0  0  0
    9.6653  -13.0701   18.8451 C   0  0  0  0  0  0  0  0  0  0  0  0
    8.3547  -11.9400   19.4067 S   0  0  0  0  0  0  0  0  0  0  0  0
    8.4455  -14.9518   19.9135 C   0  0  0  0  0  0  0  0  0  0  0  0
    7.1751  -14.9269   20.0220 O   0  0  0  0  0  0  0  0  0  0  0  0
    9.1529  -15.4811   21.0045 N   0  0  0  0  0  0  0  0  0  0  0  0
    8.5095  -16.0263   22.1554 C   0  0  1  0  0  0  0  0  0  0  0  0
    8.8062  -17.5209   22.3100 C   0  0  0  0  0  0  0  0  0  0  0  0
   10.3096  -17.7325   22.3483 C   0  0  0  0  0  0  0  0  0  0  0  0
   10.6663  -19.1420   22.4856 C   0  0  0  0  0  0  0  0  0  0  0  0
    9.7925  -20.0383   22.4810 O   0  0  0  0  0  0  0  0  0  0  0  0
    8.9344  -15.3779   23.4239 C   0  0  0  0  0  0  0  0  0  0  0  0
   10.1417  -15.0329   23.5090 O   0  0  0  0  0  0  0  0  0  0  0  0
   11.9906  -19.5112   22.6245 O   0  0  0  0  0  0  0  0  0  0  0  0
    5.5285  -12.0033   25.9045 C   0  0  0  0  0  0  0  0  0  0  0  0
    6.7405  -12.6601   25.3227 C   0  0  0  0  0  0  0  0  0  0  0  0
    7.3140  -13.6665   26.3288 C   0  0  2  0  0  0  0  0  0  0  0  0
    7.8546  -12.8543   27.4854 C   0  0  0  0  0  0  0  0  0  0  0  0
    8.4804  -14.4060   25.7130 C   0  0  2  0  0  0  0  0  0  0  0  0
    8.0879  -15.1295   24.5164 N   0  0  0  0  0  0  0  0  0  0  0  0
    8.9648  -15.4022   26.7000 C   0  0  0  0  0  0  0  0  0  0  0  0
    9.9950  -15.0748   27.5650 O   0  0  0  0  0  0  0  0  0  0  0  0
    8.4659  -16.5602   26.7853 O   0  0  0  0  0  0  0  0  0  0  0  0
  2  3  1  0
  2  1  1  6
  4  3  1  0
  5  6  2  0
  5  2  1  0
  7  5  1  0
  8 13  1  0
  8  7  1  0
  8  9  1  1
 10  9  1  0
 10 11  1  0
 11 12  2  0
 13 21  1  0
 14 13  2  0
 15 11  1  0
 17 16  1  0
 18 17  1  0
 18 20  1  0
 18 19  1  1
 20 22  1  0
 20 21  1  6
 22 24  2  0
 22 23  1  0
M  END
$$$$
