CEI.pdb
     RDKit          3D

 24 23  0  0  1  0  0  0  0  0999 V2000
    7.0258  -15.1283   18.9867 N   0  0  0  0  0  0  0  0  0  0  0  0
    8.0469  -14.5529   19.8026 C   0  0  1  0  0  0  0  0  0  0  0  0
    7.8495  -13.0648   19.9778 C   0  0  0  0  0  0  0  0  0  0  0  0
    8.3307  -12.2738   18.4116 S   0  0  0  0  0  0  0  0  0  0  0  0
    8.2127  -15.2674   21.0674 C   0  0  0  0  0  0  0  0  0  0  0  0
    7.1656  -15.5166   21.7513 O   0  0  0  0  0  0  0  0  0  0  0  0
    9.4297  -15.7111   21.6085 N   0  0  0  0  0  0  0  0  0  0  0  0
    9.5165  -16.4219   22.8427 C   0  0  1  0  0  0  0  0  0  0  0  0
   10.6610  -17.4397   22.8257 C   0  0  0  0  0  0  0  0  0  0  0  0
   10.3316  -18.5485   21.8415 C   0  0  0  0  0  0  0  0  0  0  0  0
   11.5242  -19.2627   21.3939 C   0  0  0  0  0  0  0  0  0  0  0  0
   11.6372  -19.6667   20.2145 O   0  0  0  0  0  0  0  0  0  0  0  0
    9.7571  -15.5352   24.0114 C   0  0  0  0  0  0  0  0  0  0  0  0
   10.8753  -14.9605   24.0678 O   0  0  0  0  0  0  0  0  0  0  0  0
   12.5585  -19.5061   22.2774 O   0  0  0  0  0  0  0  0  0  0  0  0
    5.9708  -12.3164   25.9908 C   0  0  0  0  0  0  0  0  0  0  0  0
    7.2518  -12.9457   25.5416 C   0  0  0  0  0  0  0  0  0  0  0  0
    7.8512  -13.7695   26.6888 C   0  0  2  0  0  0  0  0  0  0  0  0
    8.2799  -12.7781   27.7487 C   0  0  0  0  0  0  0  0  0  0  0  0
    9.0941  -14.4885   26.2149 C   0  0  2  0  0  0  0  0  0  0  0  0
    8.8309  -15.3016   25.0406 N   0  0  0  0  0  0  0  0  0  0  0  0
    9.5393  -15.3984   27.2990 C   0  0  0  0  0  0  0  0  0  0  0  0
   10.4577  -14.9594   28.2373 O   0  0  0  0  0  0  0  0  0  0  0  0
    9.1062  -16.5811   27.4031 O   0  0  0  0  0  0  0  0  0  0  0  0
  2  3  1  0
  2  1  1  1
  4  3  1  0
  5  6  2  0
  5  2  1  0
  7  5  1  0
  8 13  1  0
  8  7  1  0
  8  9  1  6
 10  9  1  0
 10 11  1  0
 11 12  2  0
 13 21  1  0
 14 13  2  0
 15 11  1  0
 17 16  1  0
 18 17  1  0
 18 20  1  0
 18 19  1  1
 20 22  1  0
 20 21  1  6
 22 24  2  0
 22 23  1  0
M  END
$$$$
