NQG.pdb
     RDKit          3D

 22 21  0  0  1  0  0  0  0  0999 V2000
   26.3341  -13.0587  -16.2669 N   0  0  0  0  0  0  0  0  0  0  0  0
   26.8666  -11.9117  -15.6264 C   0  0  0  0  0  0  0  0  0  0  0  0
   27.9291  -11.9923  -14.9759 O   0  0  0  0  0  0  0  0  0  0  0  0
   26.1533  -10.6209  -15.7356 C   0  0  0  0  0  0  0  0  0  0  0  0
   24.8797  -10.8297  -16.4919 C   0  0  2  0  0  0  0  0  0  0  0  0
   25.1501  -11.2215  -17.8379 N   0  0  0  0  0  0  0  0  0  0  0  0
   23.9914   -9.6590  -16.5017 C   0  0  0  0  0  0  0  0  0  0  0  0
   24.2162   -8.7333  -17.3156 O   0  0  0  0  0  0  0  0  0  0  0  0
   18.0151  -10.0267  -15.5576 N   0  0  0  0  0  0  0  0  0  0  0  0
   18.1093   -8.6088  -15.7346 C   0  0  0  0  0  0  0  0  0  0  0  0
   17.0917   -7.8948  -15.8613 O   0  0  0  0  0  0  0  0  0  0  0  0
   19.4536   -7.9554  -15.7701 C   0  0  0  0  0  0  0  0  0  0  0  0
   20.5273   -8.9696  -15.5981 C   0  0  0  0  0  0  0  0  0  0  0  0
   21.9355   -8.4407  -15.6625 C   0  0  2  0  0  0  0  0  0  0  0  0
   22.8897   -9.5612  -15.6092 N   0  0  0  0  0  0  0  0  0  0  0  0
   22.2141   -7.4909  -14.5807 C   0  0  0  0  0  0  0  0  0  0  0  0
   22.6488   -7.8144  -13.4459 O   0  0  0  0  0  0  0  0  0  0  0  0
   21.9735   -6.0868  -14.8324 N   0  0  0  0  0  0  0  0  0  0  0  0
   22.2983   -5.1551  -13.7885 C   0  0  0  0  0  0  0  0  0  0  0  0
   21.9107   -3.7768  -14.1325 C   0  0  0  0  0  0  0  0  0  0  0  0
   21.3339   -3.5296  -15.2207 O   0  0  0  0  0  0  0  0  0  0  0  0
   22.1815   -2.7526  -13.2573 O   0  0  0  0  0  0  0  0  0  0  0  0
  1  2  1  0
  2  3  2  0
  2  4  1  0
  5  6  1  6
  5  7  1  0
  5  4  1  0
  7  8  2  0
  9 10  1  0
 10 12  1  0
 11 10  2  0
 12 13  1  0
 14 13  1  1
 14 16  1  0
 15  7  1  0
 15 14  1  0
 16 18  1  0
 16 17  2  0
 18 19  1  0
 20 19  1  0
 20 22  1  0
 21 20  2  0
M  END
$$$$
