NQG.pdb
     RDKit          3D

 22 21  0  0  1  0  0  0  0  0999 V2000
   15.8899  -13.9005  -13.8566 N   0  0  0  0  0  0  0  0  0  0  0  0
   17.0370  -13.3116  -14.4453 C   0  0  0  0  0  0  0  0  0  0  0  0
   17.8937  -14.0274  -15.0040 O   0  0  0  0  0  0  0  0  0  0  0  0
   17.2095  -11.8438  -14.3918 C   0  0  0  0  0  0  0  0  0  0  0  0
   16.1442  -11.2589  -13.5196 C   0  0  2  0  0  0  0  0  0  0  0  0
   14.8584  -11.4131  -14.1205 N   0  0  0  0  0  0  0  0  0  0  0  0
   16.3531   -9.8422  -13.1892 C   0  0  0  0  0  0  0  0  0  0  0  0
   15.9355   -8.9661  -13.9816 O   0  0  0  0  0  0  0  0  0  0  0  0
   15.0048   -7.2751   -8.0915 N   0  0  0  0  0  0  0  0  0  0  0  0
   15.8267   -6.1995   -8.5587 C   0  0  0  0  0  0  0  0  0  0  0  0
   15.8914   -5.1110   -7.9485 O   0  0  0  0  0  0  0  0  0  0  0  0
   16.6319   -6.3719   -9.8066 C   0  0  0  0  0  0  0  0  0  0  0  0
   16.5012   -7.7615  -10.3197 C   0  0  0  0  0  0  0  0  0  0  0  0
   17.1997   -8.0396  -11.6242 C   0  0  2  0  0  0  0  0  0  0  0  0
   17.0165   -9.4534  -11.9939 N   0  0  0  0  0  0  0  0  0  0  0  0
   18.6287   -7.7176  -11.5601 C   0  0  0  0  0  0  0  0  0  0  0  0
   19.4556   -8.3016  -10.8142 O   0  0  0  0  0  0  0  0  0  0  0  0
   19.1237   -6.6573  -12.4107 N   0  0  0  0  0  0  0  0  0  0  0  0
   20.5145   -6.3129  -12.3093 C   0  0  0  0  0  0  0  0  0  0  0  0
   20.8906   -5.2367  -13.2414 C   0  0  0  0  0  0  0  0  0  0  0  0
   20.0677   -4.8120  -14.0901 O   0  0  0  0  0  0  0  0  0  0  0  0
   22.1509   -4.6923  -13.1832 O   0  0  0  0  0  0  0  0  0  0  0  0
  1  2  1  0
  2  3  2  0
  2  4  1  0
  5  6  1  6
  5  7  1  0
  5  4  1  0
  7  8  2  0
  9 10  1  0
 10 12  1  0
 11 10  2  0
 12 13  1  0
 14 13  1  1
 14 16  1  0
 15  7  1  0
 15 14  1  0
 16 18  1  0
 16 17  2  0
 18 19  1  0
 20 19  1  0
 20 22  1  0
 21 20  2  0
M  END
$$$$
