NQG.pdb
     RDKit          3D

 22 21  0  0  1  0  0  0  0  0999 V2000
   25.6322  -13.3420  -17.0234 N   0  0  0  0  0  0  0  0  0  0  0  0
   26.0703  -12.4796  -15.9871 C   0  0  0  0  0  0  0  0  0  0  0  0
   26.9945  -12.8322  -15.2256 O   0  0  0  0  0  0  0  0  0  0  0  0
   25.4235  -11.1606  -15.8167 C   0  0  0  0  0  0  0  0  0  0  0  0
   24.3307  -11.0187  -16.8283 C   0  0  2  0  0  0  0  0  0  0  0  0
   24.8583  -11.0793  -18.1535 N   0  0  0  0  0  0  0  0  0  0  0  0
   23.5373   -9.7903  -16.6829 C   0  0  0  0  0  0  0  0  0  0  0  0
   23.8845   -8.7652  -17.3141 O   0  0  0  0  0  0  0  0  0  0  0  0
   19.3530  -11.5163  -14.8057 N   0  0  0  0  0  0  0  0  0  0  0  0
   19.1047  -11.1638  -16.1713 C   0  0  0  0  0  0  0  0  0  0  0  0
   18.5641  -11.9617  -16.9665 O   0  0  0  0  0  0  0  0  0  0  0  0
   19.4977   -9.8099  -16.6690 C   0  0  0  0  0  0  0  0  0  0  0  0
   20.0883   -9.0043  -15.5674 C   0  0  0  0  0  0  0  0  0  0  0  0
   21.5136   -8.5663  -15.7763 C   0  0  2  0  0  0  0  0  0  0  0  0
   22.3911   -9.7472  -15.8437 N   0  0  0  0  0  0  0  0  0  0  0  0
   21.9694   -7.6609  -14.7168 C   0  0  0  0  0  0  0  0  0  0  0  0
   22.4748   -8.0380  -13.6289 O   0  0  0  0  0  0  0  0  0  0  0  0
   21.8296   -6.2375  -14.9346 N   0  0  0  0  0  0  0  0  0  0  0  0
   22.3568   -5.3529  -13.9334 C   0  0  0  0  0  0  0  0  0  0  0  0
   22.0659   -3.9402  -14.2302 C   0  0  0  0  0  0  0  0  0  0  0  0
   22.4287   -3.0348  -13.4387 O   0  0  0  0  0  0  0  0  0  0  0  0
   21.3926   -3.6088  -15.3813 O   0  0  0  0  0  0  0  0  0  0  0  0
  1  2  1  0
  2  3  2  0
  2  4  1  0
  5  6  1  6
  5  7  1  0
  5  4  1  0
  7  8  2  0
  9 10  1  0
 10 12  1  0
 11 10  2  0
 12 13  1  0
 14 13  1  1
 14 16  1  0
 15  7  1  0
 15 14  1  0
 16 18  1  0
 16 17  2  0
 18 19  1  0
 20 19  1  0
 20 22  1  0
 21 20  2  0
M  END
$$$$
