NQG.pdb
     RDKit          3D

 22 21  0  0  1  0  0  0  0  0999 V2000
   28.6270  -11.1985  -16.5595 N   0  0  0  0  0  0  0  0  0  0  0  0
   27.2768  -11.3401  -16.1516 C   0  0  0  0  0  0  0  0  0  0  0  0
   26.9268  -12.3260  -15.4705 O   0  0  0  0  0  0  0  0  0  0  0  0
   26.2882  -10.3110  -16.5397 C   0  0  0  0  0  0  0  0  0  0  0  0
   25.0189  -10.9855  -16.9539 C   0  0  2  0  0  0  0  0  0  0  0  0
   25.2505  -11.8661  -18.0535 N   0  0  0  0  0  0  0  0  0  0  0  0
   23.9347  -10.0567  -17.3026 C   0  0  0  0  0  0  0  0  0  0  0  0
   23.9293   -9.5291  -18.4390 O   0  0  0  0  0  0  0  0  0  0  0  0
   18.9424  -11.0322  -14.4752 N   0  0  0  0  0  0  0  0  0  0  0  0
   19.3665  -11.7015  -15.6680 C   0  0  0  0  0  0  0  0  0  0  0  0
   19.0545  -12.8891  -15.8996 O   0  0  0  0  0  0  0  0  0  0  0  0
   20.2038  -10.9711  -16.6683 C   0  0  0  0  0  0  0  0  0  0  0  0
   20.4764   -9.5854  -16.2026 C   0  0  0  0  0  0  0  0  0  0  0  0
   21.7235   -8.9487  -16.7562 C   0  0  2  0  0  0  0  0  0  0  0  0
   22.8999   -9.7499  -16.3779 N   0  0  0  0  0  0  0  0  0  0  0  0
   21.8856   -7.5672  -16.2923 C   0  0  0  0  0  0  0  0  0  0  0  0
   21.0972   -6.6277  -16.5698 O   0  0  0  0  0  0  0  0  0  0  0  0
   23.0281   -7.2612  -15.4593 N   0  0  0  0  0  0  0  0  0  0  0  0
   23.3168   -5.8779  -15.2022 C   0  0  0  0  0  0  0  0  0  0  0  0
   22.4516   -5.3148  -14.1520 C   0  0  0  0  0  0  0  0  0  0  0  0
   21.5253   -6.0011  -13.6534 O   0  0  0  0  0  0  0  0  0  0  0  0
   22.6583   -4.0290  -13.7136 O   0  0  0  0  0  0  0  0  0  0  0  0
  1  2  1  0
  2  3  2  0
  2  4  1  0
  5  6  1  6
  5  7  1  0
  5  4  1  0
  7  8  2  0
  9 10  1  0
 10 12  1  0
 11 10  2  0
 12 13  1  0
 14 13  1  1
 14 16  1  0
 15  7  1  0
 15 14  1  0
 16 18  1  0
 16 17  2  0
 18 19  1  0
 20 19  1  0
 20 22  1  0
 21 20  2  0
M  END
$$$$
