NQG.pdb
     RDKit          3D

 22 21  0  0  1  0  0  0  0  0999 V2000
   24.5430  -24.6004  -17.9277 N   0  0  0  0  0  0  0  0  0  0  0  0
   24.1033  -24.8268  -16.5993 C   0  0  0  0  0  0  0  0  0  0  0  0
   23.1388  -25.5879  -16.3783 O   0  0  0  0  0  0  0  0  0  0  0  0
   24.7963  -24.1541  -15.4793 C   0  0  0  0  0  0  0  0  0  0  0  0
   25.8441  -23.2407  -16.0320 C   0  0  2  0  0  0  0  0  0  0  0  0
   26.9285  -23.9896  -16.5811 N   0  0  0  0  0  0  0  0  0  0  0  0
   26.3717  -22.2765  -15.0564 C   0  0  0  0  0  0  0  0  0  0  0  0
   27.4979  -22.4826  -14.5474 O   0  0  0  0  0  0  0  0  0  0  0  0
   26.3822  -19.3536  -16.7892 N   0  0  0  0  0  0  0  0  0  0  0  0
   27.5206  -18.7563  -16.1584 C   0  0  0  0  0  0  0  0  0  0  0  0
   28.5682  -18.5103  -16.7936 O   0  0  0  0  0  0  0  0  0  0  0  0
   27.4659  -18.4143  -14.7040 C   0  0  0  0  0  0  0  0  0  0  0  0
   26.1535  -18.8103  -14.1277 C   0  0  0  0  0  0  0  0  0  0  0  0
   26.0727  -20.2208  -13.6073 C   0  0  2  0  0  0  0  0  0  0  0  0
   25.6300  -21.1228  -14.6841 N   0  0  0  0  0  0  0  0  0  0  0  0
   25.1698  -20.3295  -12.4571 C   0  0  0  0  0  0  0  0  0  0  0  0
   23.9152  -20.3541  -12.5388 O   0  0  0  0  0  0  0  0  0  0  0  0
   25.7586  -20.4143  -11.1384 N   0  0  0  0  0  0  0  0  0  0  0  0
   24.8697  -20.4736  -10.0117 C   0  0  0  0  0  0  0  0  0  0  0  0
   25.5943  -20.4586   -8.7299 C   0  0  0  0  0  0  0  0  0  0  0  0
   26.8485  -20.3925   -8.7074 O   0  0  0  0  0  0  0  0  0  0  0  0
   24.8943  -20.5173   -7.5489 O   0  0  0  0  0  0  0  0  0  0  0  0
  1  2  1  0
  2  3  2  0
  2  4  1  0
  5  6  1  1
  5  7  1  0
  5  4  1  0
  7  8  2  0
  9 10  1  0
 10 12  1  0
 11 10  2  0
 12 13  1  0
 14 13  1  6
 14 16  1  0
 15  7  1  0
 15 14  1  0
 16 18  1  0
 16 17  2  0
 18 19  1  0
 20 19  1  0
 20 22  1  0
 21 20  2  0
M  END
$$$$
