NQG.pdb
     RDKit          3D

 22 21  0  0  1  0  0  0  0  0999 V2000
   12.7512  -11.7567  -10.1262 N   0  0  0  0  0  0  0  0  0  0  0  0
   13.9636  -11.7403   -9.3919 C   0  0  0  0  0  0  0  0  0  0  0  0
   14.2582  -12.6962   -8.6450 O   0  0  0  0  0  0  0  0  0  0  0  0
   14.8748  -10.5824   -9.5185 C   0  0  0  0  0  0  0  0  0  0  0  0
   14.2816   -9.5971  -10.4750 C   0  0  2  0  0  0  0  0  0  0  0  0
   13.9912  -10.2200  -11.7264 N   0  0  0  0  0  0  0  0  0  0  0  0
   15.1202   -8.4136  -10.7109 C   0  0  0  0  0  0  0  0  0  0  0  0
   15.5307   -8.1820  -11.8718 O   0  0  0  0  0  0  0  0  0  0  0  0
   14.1882   -3.2718  -10.0554 N   0  0  0  0  0  0  0  0  0  0  0  0
   15.5269   -2.8993   -9.7091 C   0  0  0  0  0  0  0  0  0  0  0  0
   15.9627   -1.7476   -9.9215 O   0  0  0  0  0  0  0  0  0  0  0  0
   16.4348   -3.9051   -9.0773 C   0  0  0  0  0  0  0  0  0  0  0  0
   15.7468   -5.2175   -8.9523 C   0  0  0  0  0  0  0  0  0  0  0  0
   16.2373   -6.2979   -9.8793 C   0  0  2  0  0  0  0  0  0  0  0  0
   15.4703   -7.5342   -9.6506 N   0  0  0  0  0  0  0  0  0  0  0  0
   17.6706   -6.5564   -9.7096 C   0  0  0  0  0  0  0  0  0  0  0  0
   18.2055   -6.9093   -8.6276 O   0  0  0  0  0  0  0  0  0  0  0  0
   18.5297   -6.3956  -10.8624 N   0  0  0  0  0  0  0  0  0  0  0  0
   19.9273   -6.6846  -10.7002 C   0  0  0  0  0  0  0  0  0  0  0  0
   20.6859   -6.4809  -11.9458 C   0  0  0  0  0  0  0  0  0  0  0  0
   20.0948   -6.1602  -13.0068 O   0  0  0  0  0  0  0  0  0  0  0  0
   22.0504   -6.6425  -11.9487 O   0  0  0  0  0  0  0  0  0  0  0  0
  1  2  1  0
  2  3  2  0
  2  4  1  0
  5  6  1  6
  5  7  1  0
  5  4  1  0
  7  8  2  0
  9 10  1  0
 10 12  1  0
 11 10  2  0
 12 13  1  0
 14 13  1  1
 14 16  1  0
 15  7  1  0
 15 14  1  0
 16 18  1  0
 16 17  2  0
 18 19  1  0
 20 19  1  0
 20 22  1  0
 21 20  2  0
M  END
$$$$
