NQG.pdb
     RDKit          3D

 22 21  0  0  1  0  0  0  0  0999 V2000
   27.5761  -17.6054  -18.6588 N   0  0  0  0  0  0  0  0  0  0  0  0
   26.4258  -17.2783  -17.8978 C   0  0  0  0  0  0  0  0  0  0  0  0
   25.7766  -16.2434  -18.1544 O   0  0  0  0  0  0  0  0  0  0  0  0
   26.0025  -18.1727  -16.7987 C   0  0  0  0  0  0  0  0  0  0  0  0
   26.9731  -19.3059  -16.6906 C   0  0  2  0  0  0  0  0  0  0  0  0
   26.9501  -20.1052  -17.8733 N   0  0  0  0  0  0  0  0  0  0  0  0
   26.7549  -20.1704  -15.5224 C   0  0  0  0  0  0  0  0  0  0  0  0
   26.1386  -21.2508  -15.6734 O   0  0  0  0  0  0  0  0  0  0  0  0
   30.5199  -20.9188  -10.7613 N   0  0  0  0  0  0  0  0  0  0  0  0
   29.3278  -21.3961  -10.1276 C   0  0  0  0  0  0  0  0  0  0  0  0
   29.3334  -21.8127   -8.9495 O   0  0  0  0  0  0  0  0  0  0  0  0
   28.0385  -21.4007  -10.8845 C   0  0  0  0  0  0  0  0  0  0  0  0
   28.1820  -20.6446  -12.1569 C   0  0  0  0  0  0  0  0  0  0  0  0
   26.9617  -20.6208  -13.0385 C   0  0  2  0  0  0  0  0  0  0  0  0
   27.2285  -19.8028  -14.2337 N   0  0  0  0  0  0  0  0  0  0  0  0
   25.7843  -20.1082  -12.3307 C   0  0  0  0  0  0  0  0  0  0  0  0
   25.7060  -18.9618  -11.8198 O   0  0  0  0  0  0  0  0  0  0  0  0
   24.6340  -20.9771  -12.2102 N   0  0  0  0  0  0  0  0  0  0  0  0
   23.4976  -20.4849  -11.4824 C   0  0  0  0  0  0  0  0  0  0  0  0
   22.2265  -20.9913  -12.0267 C   0  0  0  0  0  0  0  0  0  0  0  0
   22.2110  -21.6705  -13.0832 O   0  0  0  0  0  0  0  0  0  0  0  0
   21.0478  -20.7194  -11.3747 O   0  0  0  0  0  0  0  0  0  0  0  0
  1  2  1  0
  2  3  2  0
  2  4  1  0
  5  6  1  6
  5  7  1  0
  5  4  1  0
  7  8  2  0
  9 10  1  0
 10 12  1  0
 11 10  2  0
 12 13  1  0
 14 13  1  1
 14 16  1  0
 15  7  1  0
 15 14  1  0
 16 18  1  0
 16 17  2  0
 18 19  1  0
 20 19  1  0
 20 22  1  0
 21 20  2  0
M  END
$$$$
