NQG.pdb
     RDKit          3D

 22 21  0  0  1  0  0  0  0  0999 V2000
   21.6502  -23.6868  -16.0085 N   0  0  0  0  0  0  0  0  0  0  0  0
   21.0685  -22.3961  -15.9370 C   0  0  0  0  0  0  0  0  0  0  0  0
   19.8289  -22.2617  -15.9981 O   0  0  0  0  0  0  0  0  0  0  0  0
   21.9422  -21.2120  -15.7896 C   0  0  0  0  0  0  0  0  0  0  0  0
   22.4477  -21.1507  -14.3830 C   0  0  2  0  0  0  0  0  0  0  0  0
   21.4161  -20.7226  -13.4937 N   0  0  0  0  0  0  0  0  0  0  0  0
   23.6228  -20.2859  -14.2072 C   0  0  0  0  0  0  0  0  0  0  0  0
   23.4856  -19.0454  -14.3180 O   0  0  0  0  0  0  0  0  0  0  0  0
   26.0553  -22.3936  -10.6469 N   0  0  0  0  0  0  0  0  0  0  0  0
   25.5029  -21.1164  -10.3091 C   0  0  0  0  0  0  0  0  0  0  0  0
   24.7344  -20.9715   -9.3344 O   0  0  0  0  0  0  0  0  0  0  0  0
   25.8471  -19.9193  -11.1360 C   0  0  0  0  0  0  0  0  0  0  0  0
   26.6635  -20.3198  -12.3125 C   0  0  0  0  0  0  0  0  0  0  0  0
   26.0758  -19.9787  -13.6562 C   0  0  2  0  0  0  0  0  0  0  0  0
   24.9028  -20.8305  -13.9158 N   0  0  0  0  0  0  0  0  0  0  0  0
   27.0556  -20.1289  -14.7367 C   0  0  0  0  0  0  0  0  0  0  0  0
   27.7269  -21.1712  -14.9470 O   0  0  0  0  0  0  0  0  0  0  0  0
   27.2664  -19.0043  -15.6221 N   0  0  0  0  0  0  0  0  0  0  0  0
   28.2660  -19.1368  -16.6450 C   0  0  0  0  0  0  0  0  0  0  0  0
   28.3398  -17.9462  -17.5084 C   0  0  0  0  0  0  0  0  0  0  0  0
   29.2382  -17.8460  -18.3805 O   0  0  0  0  0  0  0  0  0  0  0  0
   27.4194  -16.9367  -17.3597 O   0  0  0  0  0  0  0  0  0  0  0  0
  1  2  1  0
  2  3  2  0
  2  4  1  0
  5  6  1  1
  5  7  1  0
  5  4  1  0
  7  8  2  0
  9 10  1  0
 10 12  1  0
 11 10  2  0
 12 13  1  0
 14 13  1  1
 14 16  1  0
 15  7  1  0
 15 14  1  0
 16 18  1  0
 16 17  2  0
 18 19  1  0
 20 19  1  0
 20 22  1  0
 21 20  2  0
M  END
$$$$
