NQG.pdb
     RDKit          3D

 22 21  0  0  1  0  0  0  0  0999 V2000
   20.8467  -13.7165  -17.5157 N   0  0  0  0  0  0  0  0  0  0  0  0
   21.2164  -12.5204  -18.1805 C   0  0  0  0  0  0  0  0  0  0  0  0
   22.0121  -12.5565  -19.1418 O   0  0  0  0  0  0  0  0  0  0  0  0
   20.6517  -11.2314  -17.7258 C   0  0  0  0  0  0  0  0  0  0  0  0
   19.7114  -11.4842  -16.5902 C   0  0  2  0  0  0  0  0  0  0  0  0
   18.5635  -12.2065  -17.0362 N   0  0  0  0  0  0  0  0  0  0  0  0
   19.2722  -10.2660  -15.8952 C   0  0  0  0  0  0  0  0  0  0  0  0
   18.5063   -9.4715  -16.4884 O   0  0  0  0  0  0  0  0  0  0  0  0
   17.1530   -9.3038  -10.3412 N   0  0  0  0  0  0  0  0  0  0  0  0
   16.4152   -9.4341  -11.5616 C   0  0  0  0  0  0  0  0  0  0  0  0
   15.1910   -9.6846  -11.5640 O   0  0  0  0  0  0  0  0  0  0  0  0
   17.1166   -9.2684  -12.8714 C   0  0  0  0  0  0  0  0  0  0  0  0
   18.5621   -8.9956  -12.6542 C   0  0  0  0  0  0  0  0  0  0  0  0
   19.3626   -8.7117  -13.8974 C   0  0  2  0  0  0  0  0  0  0  0  0
   19.6995   -9.9774  -14.5708 N   0  0  0  0  0  0  0  0  0  0  0  0
   20.5853   -7.9583  -13.6017 C   0  0  0  0  0  0  0  0  0  0  0  0
   21.5463   -8.4020  -12.9227 O   0  0  0  0  0  0  0  0  0  0  0  0
   20.6967   -6.6140  -14.1245 N   0  0  0  0  0  0  0  0  0  0  0  0
   21.8477   -5.8426  -13.7461 C   0  0  0  0  0  0  0  0  0  0  0  0
   21.8543   -4.5096  -14.3718 C   0  0  0  0  0  0  0  0  0  0  0  0
   20.9851   -4.2015  -15.2246 O   0  0  0  0  0  0  0  0  0  0  0  0
   22.8182   -3.5952  -14.0208 O   0  0  0  0  0  0  0  0  0  0  0  0
  1  2  1  0
  2  3  2  0
  2  4  1  0
  5  6  1  6
  5  7  1  0
  5  4  1  0
  7  8  2  0
  9 10  1  0
 10 12  1  0
 11 10  2  0
 12 13  1  0
 14 13  1  1
 14 16  1  0
 15  7  1  0
 15 14  1  0
 16 18  1  0
 16 17  2  0
 18 19  1  0
 20 19  1  0
 20 22  1  0
 21 20  2  0
M  END
$$$$
