NQG.pdb
     RDKit          3D

 22 21  0  0  1  0  0  0  0  0999 V2000
   12.0049   -8.7570  -13.0634 N   0  0  0  0  0  0  0  0  0  0  0  0
   12.9560   -8.8467  -14.1106 C   0  0  0  0  0  0  0  0  0  0  0  0
   12.5833   -9.0789  -15.2792 O   0  0  0  0  0  0  0  0  0  0  0  0
   14.3917   -8.6630  -13.8067 C   0  0  0  0  0  0  0  0  0  0  0  0
   15.1924   -9.6111  -14.6421 C   0  0  2  0  0  0  0  0  0  0  0  0
   15.0085  -10.9552  -14.1974 N   0  0  0  0  0  0  0  0  0  0  0  0
   16.6302   -9.3092  -14.6771 C   0  0  0  0  0  0  0  0  0  0  0  0
   17.3693   -9.7700  -13.7764 O   0  0  0  0  0  0  0  0  0  0  0  0
   20.0722   -9.6825  -19.3650 N   0  0  0  0  0  0  0  0  0  0  0  0
   21.0063   -8.8782  -18.6363 C   0  0  0  0  0  0  0  0  0  0  0  0
   22.2099   -8.8107  -18.9652 O   0  0  0  0  0  0  0  0  0  0  0  0
   20.5412   -8.0953  -17.4505 C   0  0  0  0  0  0  0  0  0  0  0  0
   19.0877   -8.3125  -17.2240 C   0  0  0  0  0  0  0  0  0  0  0  0
   18.6360   -8.2350  -15.7898 C   0  0  2  0  0  0  0  0  0  0  0  0
   17.1912   -8.5087  -15.7088 N   0  0  0  0  0  0  0  0  0  0  0  0
   18.9352   -6.9305  -15.1908 C   0  0  0  0  0  0  0  0  0  0  0  0
   18.2120   -5.9093  -15.3150 O   0  0  0  0  0  0  0  0  0  0  0  0
   20.1426   -6.8067  -14.4037 N   0  0  0  0  0  0  0  0  0  0  0  0
   20.4224   -5.5316  -13.8045 C   0  0  0  0  0  0  0  0  0  0  0  0
   21.7002   -5.5291  -13.0726 C   0  0  0  0  0  0  0  0  0  0  0  0
   22.3763   -6.5825  -12.9669 O   0  0  0  0  0  0  0  0  0  0  0  0
   22.1573   -4.3663  -12.5005 O   0  0  0  0  0  0  0  0  0  0  0  0
  1  2  1  0
  2  3  2  0
  2  4  1  0
  5  6  1  1
  5  7  1  0
  5  4  1  0
  7  8  2  0
  9 10  1  0
 10 12  1  0
 11 10  2  0
 12 13  1  0
 14 13  1  6
 14 16  1  0
 15  7  1  0
 15 14  1  0
 16 18  1  0
 16 17  2  0
 18 19  1  0
 20 19  1  0
 20 22  1  0
 21 20  2  0
M  END
$$$$
