PND.pdb
     RDKit          3D

 24 24  0  0  1  0  0  0  0  0999 V2000
   21.2139   -9.3189  -18.1831 N   0  0  0  0  0  0  0  0  0  0  0  0
   21.4149  -10.6988  -18.5407 C   0  0  0  0  0  0  0  0  0  0  0  0
   20.2808  -11.0488  -19.4813 C   0  0  0  0  0  0  0  0  0  0  0  0
   20.0570   -9.7486  -20.2051 C   0  0  0  0  0  0  0  0  0  0  0  0
   20.6524   -8.6478  -19.3537 C   0  0  1  0  0  0  0  0  0  0  0  0
   19.6664   -7.6565  -18.9014 C   0  0  0  0  0  0  0  0  0  0  0  0
   19.0241   -6.9508  -19.7278 O   0  0  0  0  0  0  0  0  0  0  0  0
   16.0710   -4.9869  -16.7235 N   0  0  0  0  0  0  0  0  0  0  0  0
   16.2243   -6.2175  -15.9862 C   0  0  0  0  0  0  0  0  0  0  0  0
   15.2550   -6.5851  -15.2433 O   0  0  0  0  0  0  0  0  0  0  0  0
   17.4778   -6.9944  -16.1157 C   0  0  0  0  0  0  0  0  0  0  0  0
   18.4573   -6.3732  -17.1052 C   0  0  2  0  0  0  0  0  0  0  0  0
   19.3638   -7.4196  -17.5219 N   0  0  0  0  0  0  0  0  0  0  0  0
   19.1493   -5.2646  -16.4223 C   0  0  0  0  0  0  0  0  0  0  0  0
   18.4488   -4.2927  -16.0223 O   0  0  0  0  0  0  0  0  0  0  0  0
   20.5352   -5.2207  -16.1883 N   0  0  0  0  0  0  0  0  0  0  0  0
   21.2050   -4.1838  -15.3878 C   0  0  1  0  0  0  0  0  0  0  0  0
   22.2393   -4.8319  -14.4939 C   0  0  0  0  0  0  0  0  0  0  0  0
   21.5817   -5.5138  -13.3761 C   0  0  0  0  0  0  0  0  0  0  0  0
   20.3601   -5.3764  -13.1623 O   0  0  0  0  0  0  0  0  0  0  0  0
   21.9212   -3.3474  -16.3807 C   0  0  0  0  0  0  0  0  0  0  0  0
   21.9685   -3.5815  -17.6064 O   0  0  0  0  0  0  0  0  0  0  0  0
   22.2686   -6.3520  -12.4875 O   0  0  0  0  0  0  0  0  0  0  0  0
   22.6106   -2.2016  -15.9708 O   0  0  0  0  0  0  0  0  0  0  0  0
  1  5  1  0
  1  2  1  0
  2  3  1  0
  4  3  1  0
  5  4  1  0
  6  7  2  0
  5  6  1  1
  8  9  1  0
  9 10  2  0
 11  9  1  0
 12 11  1  1
 12 13  1  0
 13  6  1  0
 14 15  2  0
 14 12  1  0
 16 14  1  0
 17 16  1  0
 17 18  1  1
 19 18  1  0
 20 19  2  0
 21 24  1  0
 21 17  1  0
 22 21  2  0
 23 19  1  0
M  END
$$$$
