PND.pdb
     RDKit          3D

 24 24  0  0  1  0  0  0  0  0999 V2000
   26.9231  -22.5300  -17.0427 N   0  0  0  0  0  0  0  0  0  0  0  0
   28.0867  -23.1268  -17.6447 C   0  0  0  0  0  0  0  0  0  0  0  0
   29.1958  -22.1065  -17.4947 C   0  0  0  0  0  0  0  0  0  0  0  0
   28.8506  -21.4541  -16.1834 C   0  0  0  0  0  0  0  0  0  0  0  0
   27.3864  -21.7266  -15.9134 C   0  0  1  0  0  0  0  0  0  0  0  0
   26.5673  -20.5091  -15.8331 C   0  0  0  0  0  0  0  0  0  0  0  0
   26.7515  -19.6576  -14.9196 O   0  0  0  0  0  0  0  0  0  0  0  0
   24.3524  -15.8173  -17.3195 N   0  0  0  0  0  0  0  0  0  0  0  0
   23.8523  -17.0541  -17.8688 C   0  0  0  0  0  0  0  0  0  0  0  0
   22.6587  -17.0605  -18.3178 O   0  0  0  0  0  0  0  0  0  0  0  0
   24.7262  -18.2489  -17.8907 C   0  0  0  0  0  0  0  0  0  0  0  0
   24.6635  -19.0495  -16.5947 C   0  0  2  0  0  0  0  0  0  0  0  0
   25.5225  -20.2003  -16.7623 N   0  0  0  0  0  0  0  0  0  0  0  0
   23.2565  -19.4235  -16.3607 C   0  0  0  0  0  0  0  0  0  0  0  0
   22.7897  -20.3945  -17.0201 O   0  0  0  0  0  0  0  0  0  0  0  0
   22.4040  -18.7706  -15.4529 N   0  0  0  0  0  0  0  0  0  0  0  0
   21.0245  -19.1934  -15.1654 C   0  0  1  0  0  0  0  0  0  0  0  0
   20.6716  -18.8166  -13.7432 C   0  0  0  0  0  0  0  0  0  0  0  0
   19.3016  -19.2359  -13.4369 C   0  0  0  0  0  0  0  0  0  0  0  0
   18.6011  -19.8278  -14.2830 O   0  0  0  0  0  0  0  0  0  0  0  0
   20.1845  -18.3771  -16.0744 C   0  0  0  0  0  0  0  0  0  0  0  0
   20.4995  -17.2522  -16.5160 O   0  0  0  0  0  0  0  0  0  0  0  0
   18.6961  -19.0047  -12.1943 O   0  0  0  0  0  0  0  0  0  0  0  0
   18.9399  -18.8519  -16.5004 O   0  0  0  0  0  0  0  0  0  0  0  0
  1  5  1  0
  1  2  1  0
  2  3  1  0
  4  3  1  0
  5  4  1  0
  6  7  2  0
  5  6  1  6
  8  9  1  0
  9 10  2  0
 11  9  1  0
 12 11  1  6
 12 13  1  0
 13  6  1  0
 14 15  2  0
 14 12  1  0
 16 14  1  0
 17 16  1  0
 17 18  1  1
 19 18  1  0
 20 19  2  0
 21 24  1  0
 21 17  1  0
 22 21  2  0
 23 19  1  0
M  END
$$$$
