PND.pdb
     RDKit          3D

 24 24  0  0  1  0  0  0  0  0999 V2000
   28.6046  -19.8724  -12.9072 N   0  0  0  0  0  0  0  0  0  0  0  0
   29.9884  -20.2691  -12.8931 C   0  0  0  0  0  0  0  0  0  0  0  0
   30.1138  -21.3595  -13.9367 C   0  0  0  0  0  0  0  0  0  0  0  0
   29.1058  -20.9285  -14.9675 C   0  0  0  0  0  0  0  0  0  0  0  0
   28.1388  -19.9828  -14.2879 C   0  0  1  0  0  0  0  0  0  0  0  0
   26.7512  -20.4668  -14.2804 C   0  0  0  0  0  0  0  0  0  0  0  0
   26.1058  -20.6149  -15.3551 O   0  0  0  0  0  0  0  0  0  0  0  0
   25.5915  -19.9785  -10.7994 N   0  0  0  0  0  0  0  0  0  0  0  0
   24.9098  -21.2368  -10.6163 C   0  0  0  0  0  0  0  0  0  0  0  0
   24.7789  -21.6690   -9.4236 O   0  0  0  0  0  0  0  0  0  0  0  0
   24.3968  -21.9674  -11.7973 C   0  0  0  0  0  0  0  0  0  0  0  0
   24.6604  -21.2316  -13.1064 C   0  0  2  0  0  0  0  0  0  0  0  0
   26.0403  -20.8008  -13.0831 N   0  0  0  0  0  0  0  0  0  0  0  0
   23.7168  -20.1016  -13.1890 C   0  0  0  0  0  0  0  0  0  0  0  0
   24.1974  -18.9335  -13.1810 O   0  0  0  0  0  0  0  0  0  0  0  0
   22.3202  -20.2408  -13.2762 N   0  0  0  0  0  0  0  0  0  0  0  0
   21.4424  -19.3155  -14.0095 C   0  0  1  0  0  0  0  0  0  0  0  0
   22.0073  -19.0804  -15.3932 C   0  0  0  0  0  0  0  0  0  0  0  0
   21.1209  -18.1968  -16.1550 C   0  0  0  0  0  0  0  0  0  0  0  0
   20.1420  -17.6410  -15.6166 O   0  0  0  0  0  0  0  0  0  0  0  0
   20.1633  -20.0505  -14.1588 C   0  0  0  0  0  0  0  0  0  0  0  0
   20.0483  -21.1803  -14.6781 O   0  0  0  0  0  0  0  0  0  0  0  0
   21.3096  -17.9209  -17.5160 O   0  0  0  0  0  0  0  0  0  0  0  0
   18.9682  -19.4852  -13.7026 O   0  0  0  0  0  0  0  0  0  0  0  0
  1  5  1  0
  1  2  1  0
  2  3  1  0
  4  3  1  0
  5  4  1  0
  6  7  2  0
  5  6  1  1
  8  9  1  0
  9 10  2  0
 11  9  1  0
 12 11  1  1
 12 13  1  0
 13  6  1  0
 14 15  2  0
 14 12  1  0
 16 14  1  0
 17 16  1  0
 17 18  1  6
 19 18  1  0
 20 19  2  0
 21 24  1  0
 21 17  1  0
 22 21  2  0
 23 19  1  0
M  END
$$$$
