PND.pdb
     RDKit          3D

 24 24  0  0  1  0  0  0  0  0999 V2000
   21.5073  -11.0855  -16.5950 N   0  0  0  0  0  0  0  0  0  0  0  0
   21.1420  -12.3728  -17.1260 C   0  0  0  0  0  0  0  0  0  0  0  0
   19.7057  -12.2349  -17.5861 C   0  0  0  0  0  0  0  0  0  0  0  0
   19.6571  -10.8032  -18.0471 C   0  0  0  0  0  0  0  0  0  0  0  0
   20.8136  -10.0774  -17.3939 C   0  0  1  0  0  0  0  0  0  0  0  0
   20.3947   -8.9810  -16.5095 C   0  0  0  0  0  0  0  0  0  0  0  0
   19.8539   -7.9388  -16.9731 O   0  0  0  0  0  0  0  0  0  0  0  0
   17.6027   -8.1032  -13.1666 N   0  0  0  0  0  0  0  0  0  0  0  0
   18.6913   -8.5430  -12.3280 C   0  0  0  0  0  0  0  0  0  0  0  0
   18.3982   -9.0196  -11.1820 O   0  0  0  0  0  0  0  0  0  0  0  0
   20.0832   -8.4272  -12.8188 C   0  0  0  0  0  0  0  0  0  0  0  0
   20.1631   -7.9014  -14.2477 C   0  0  2  0  0  0  0  0  0  0  0  0
   20.5624   -9.0084  -15.0877 N   0  0  0  0  0  0  0  0  0  0  0  0
   21.1375   -6.7949  -14.2696 C   0  0  0  0  0  0  0  0  0  0  0  0
   22.3175   -7.0442  -13.8944 O   0  0  0  0  0  0  0  0  0  0  0  0
   20.8379   -5.4840  -14.6807 N   0  0  0  0  0  0  0  0  0  0  0  0
   21.8407   -4.4195  -14.8412 C   0  0  1  0  0  0  0  0  0  0  0  0
   21.6967   -3.7990  -16.2135 C   0  0  0  0  0  0  0  0  0  0  0  0
   20.3350   -3.2894  -16.3948 C   0  0  0  0  0  0  0  0  0  0  0  0
   19.3405   -3.9700  -16.0712 O   0  0  0  0  0  0  0  0  0  0  0  0
   21.4650   -3.3955  -13.8368 C   0  0  0  0  0  0  0  0  0  0  0  0
   20.4233   -3.4223  -13.1487 O   0  0  0  0  0  0  0  0  0  0  0  0
   20.0625   -2.0249  -16.9341 O   0  0  0  0  0  0  0  0  0  0  0  0
   22.3006   -2.2988  -13.6020 O   0  0  0  0  0  0  0  0  0  0  0  0
  1  5  1  0
  1  2  1  0
  2  3  1  0
  4  3  1  0
  5  4  1  0
  6  7  2  0
  5  6  1  1
  8  9  1  0
  9 10  2  0
 11  9  1  0
 12 11  1  1
 12 13  1  0
 13  6  1  0
 14 15  2  0
 14 12  1  0
 16 14  1  0
 17 16  1  0
 17 18  1  6
 19 18  1  0
 20 19  2  0
 21 24  1  0
 21 17  1  0
 22 21  2  0
 23 19  1  0
M  END
$$$$
