PND.pdb
     RDKit          3D

 24 24  0  0  1  0  0  0  0  0999 V2000
   17.4441  -10.4311  -11.8381 N   0  0  0  0  0  0  0  0  0  0  0  0
   17.4387  -11.8102  -12.2511 C   0  0  0  0  0  0  0  0  0  0  0  0
   16.0262  -12.0936  -12.7183 C   0  0  0  0  0  0  0  0  0  0  0  0
   15.6154  -10.7703  -13.3052 C   0  0  0  0  0  0  0  0  0  0  0  0
   16.5283   -9.7131  -12.7221 C   0  0  1  0  0  0  0  0  0  0  0  0
   15.8193   -8.6921  -11.9382 C   0  0  0  0  0  0  0  0  0  0  0  0
   14.9295   -7.9671  -12.4638 O   0  0  0  0  0  0  0  0  0  0  0  0
   13.1680   -7.2499   -7.2447 N   0  0  0  0  0  0  0  0  0  0  0  0
   14.5656   -6.9754   -7.4746 C   0  0  0  0  0  0  0  0  0  0  0  0
   15.0663   -5.9484   -6.9080 O   0  0  0  0  0  0  0  0  0  0  0  0
   15.3532   -7.8786   -8.3438 C   0  0  0  0  0  0  0  0  0  0  0  0
   15.3507   -7.4420   -9.8046 C   0  0  2  0  0  0  0  0  0  0  0  0
   16.0754   -8.4460  -10.5510 N   0  0  0  0  0  0  0  0  0  0  0  0
   15.9851   -6.1131   -9.8814 C   0  0  0  0  0  0  0  0  0  0  0  0
   17.2234   -6.0389   -9.6439 O   0  0  0  0  0  0  0  0  0  0  0  0
   15.3015   -4.9267  -10.2016 N   0  0  0  0  0  0  0  0  0  0  0  0
   15.9529   -3.6183  -10.3702 C   0  0  1  0  0  0  0  0  0  0  0  0
   15.6021   -3.0562  -11.7304 C   0  0  0  0  0  0  0  0  0  0  0  0
   16.1043   -1.6852  -11.8529 C   0  0  0  0  0  0  0  0  0  0  0  0
   15.3263   -0.7098  -11.8695 O   0  0  0  0  0  0  0  0  0  0  0  0
   15.3254   -2.7516   -9.3438 C   0  0  0  0  0  0  0  0  0  0  0  0
   14.2477   -3.0008   -8.7644 O   0  0  0  0  0  0  0  0  0  0  0  0
   17.4686   -1.3823  -11.9574 O   0  0  0  0  0  0  0  0  0  0  0  0
   15.9413   -1.5566   -8.9581 O   0  0  0  0  0  0  0  0  0  0  0  0
  1  5  1  0
  1  2  1  0
  2  3  1  0
  4  3  1  0
  5  4  1  0
  6  7  2  0
  5  6  1  1
  8  9  1  0
  9 10  2  0
 11  9  1  0
 12 11  1  1
 12 13  1  0
 13  6  1  0
 14 15  2  0
 14 12  1  0
 16 14  1  0
 17 16  1  0
 17 18  1  6
 19 18  1  0
 20 19  2  0
 21 24  1  0
 21 17  1  0
 22 21  2  0
 23 19  1  0
M  END
$$$$
