PND.pdb
     RDKit          3D

 24 24  0  0  1  0  0  0  0  0999 V2000
   24.8369  -12.5822  -15.8537 N   0  0  0  0  0  0  0  0  0  0  0  0
   25.2138  -13.9571  -16.0541 C   0  0  0  0  0  0  0  0  0  0  0  0
   24.4667  -14.4118  -17.2905 C   0  0  0  0  0  0  0  0  0  0  0  0
   24.4240  -13.1538  -18.1152 C   0  0  0  0  0  0  0  0  0  0  0  0
   24.6529  -11.9887  -17.1764 C   0  0  1  0  0  0  0  0  0  0  0  0
   23.5239  -11.0498  -17.1193 C   0  0  0  0  0  0  0  0  0  0  0  0
   23.1693  -10.3927  -18.1371 O   0  0  0  0  0  0  0  0  0  0  0  0
   19.5785  -13.0239  -15.8960 N   0  0  0  0  0  0  0  0  0  0  0  0
   19.7992  -11.6477  -16.2686 C   0  0  0  0  0  0  0  0  0  0  0  0
   19.4164  -11.2817  -17.4288 O   0  0  0  0  0  0  0  0  0  0  0  0
   20.4500  -10.7272  -15.3090 C   0  0  0  0  0  0  0  0  0  0  0  0
   21.6006   -9.9437  -15.9308 C   0  0  2  0  0  0  0  0  0  0  0  0
   22.7559  -10.8130  -15.9341 N   0  0  0  0  0  0  0  0  0  0  0  0
   21.8100   -8.7283  -15.1226 C   0  0  0  0  0  0  0  0  0  0  0  0
   22.2230   -8.8748  -13.9380 O   0  0  0  0  0  0  0  0  0  0  0  0
   21.5805   -7.4204  -15.5853 N   0  0  0  0  0  0  0  0  0  0  0  0
   21.8300   -6.2077  -14.7906 C   0  0  1  0  0  0  0  0  0  0  0  0
   21.9946   -5.0252  -15.7200 C   0  0  0  0  0  0  0  0  0  0  0  0
   22.2110   -3.8016  -14.9437 C   0  0  0  0  0  0  0  0  0  0  0  0
   21.6735   -2.7239  -15.2706 O   0  0  0  0  0  0  0  0  0  0  0  0
   20.5838   -6.0056  -14.0130 C   0  0  0  0  0  0  0  0  0  0  0  0
   19.4575   -6.4247  -14.3523 O   0  0  0  0  0  0  0  0  0  0  0  0
   23.0218   -3.7599  -13.8014 O   0  0  0  0  0  0  0  0  0  0  0  0
   20.6134   -5.3021  -12.8046 O   0  0  0  0  0  0  0  0  0  0  0  0
  1  5  1  0
  1  2  1  0
  2  3  1  0
  4  3  1  0
  5  4  1  0
  6  7  2  0
  5  6  1  1
  8  9  1  0
  9 10  2  0
 11  9  1  0
 12 11  1  1
 12 13  1  0
 13  6  1  0
 14 15  2  0
 14 12  1  0
 16 14  1  0
 17 16  1  0
 17 18  1  6
 19 18  1  0
 20 19  2  0
 21 24  1  0
 21 17  1  0
 22 21  2  0
 23 19  1  0
M  END
$$$$
