PND.pdb
     RDKit          3D

 24 24  0  0  1  0  0  0  0  0999 V2000
   20.6826  -13.4002  -16.9244 N   0  0  0  0  0  0  0  0  0  0  0  0
   20.2779  -14.7286  -17.3038 C   0  0  0  0  0  0  0  0  0  0  0  0
   20.1681  -14.7090  -18.8142 C   0  0  0  0  0  0  0  0  0  0  0  0
   21.2542  -13.7407  -19.1979 C   0  0  0  0  0  0  0  0  0  0  0  0
   21.5651  -12.9015  -17.9771 C   0  0  1  0  0  0  0  0  0  0  0  0
   21.3074  -11.4675  -18.1688 C   0  0  0  0  0  0  0  0  0  0  0  0
   21.9809  -10.7877  -18.9921 O   0  0  0  0  0  0  0  0  0  0  0  0
   16.8842   -7.3812  -18.1480 N   0  0  0  0  0  0  0  0  0  0  0  0
   18.1902   -7.8620  -18.5284 C   0  0  0  0  0  0  0  0  0  0  0  0
   18.9576   -7.0560  -19.1514 O   0  0  0  0  0  0  0  0  0  0  0  0
   18.5851   -9.2477  -18.1886 C   0  0  0  0  0  0  0  0  0  0  0  0
   20.0287   -9.3489  -17.7088 C   0  0  2  0  0  0  0  0  0  0  0  0
   20.2967  -10.7468  -17.4549 N   0  0  0  0  0  0  0  0  0  0  0  0
   20.1630   -8.5186  -16.4977 C   0  0  0  0  0  0  0  0  0  0  0  0
   19.6558   -8.9559  -15.4268 O   0  0  0  0  0  0  0  0  0  0  0  0
   20.8181   -7.2749  -16.4590 N   0  0  0  0  0  0  0  0  0  0  0  0
   21.0095   -6.4803  -15.2356 C   0  0  1  0  0  0  0  0  0  0  0  0
   22.1838   -5.5453  -15.4248 C   0  0  0  0  0  0  0  0  0  0  0  0
   22.3390   -4.6879  -14.2469 C   0  0  0  0  0  0  0  0  0  0  0  0
   22.4706   -5.1739  -13.1051 O   0  0  0  0  0  0  0  0  0  0  0  0
   19.7827   -5.6546  -15.1287 C   0  0  0  0  0  0  0  0  0  0  0  0
   19.1654   -5.1683  -16.0992 O   0  0  0  0  0  0  0  0  0  0  0  0
   22.3501   -3.2885  -14.3218 O   0  0  0  0  0  0  0  0  0  0  0  0
   19.2330   -5.3681  -13.8750 O   0  0  0  0  0  0  0  0  0  0  0  0
  1  5  1  0
  1  2  1  0
  2  3  1  0
  4  3  1  0
  5  4  1  0
  6  7  2  0
  5  6  1  6
  8  9  1  0
  9 10  2  0
 11  9  1  0
 12 11  1  1
 12 13  1  0
 13  6  1  0
 14 15  2  0
 14 12  1  0
 16 14  1  0
 17 16  1  0
 17 18  1  6
 19 18  1  0
 20 19  2  0
 21 24  1  0
 21 17  1  0
 22 21  2  0
 23 19  1  0
M  END
$$$$
