PND.pdb
     RDKit          3D

 24 24  0  0  1  0  0  0  0  0999 V2000
   18.7217   -9.3129  -15.9884 N   0  0  0  0  0  0  0  0  0  0  0  0
   17.8756  -10.4369  -16.2935 C   0  0  0  0  0  0  0  0  0  0  0  0
   18.2770  -11.5286  -15.3236 C   0  0  0  0  0  0  0  0  0  0  0  0
   18.6562  -10.7403  -14.0991 C   0  0  0  0  0  0  0  0  0  0  0  0
   18.9484   -9.3236  -14.5448 C   0  0  1  0  0  0  0  0  0  0  0  0
   20.3300   -8.8979  -14.2811 C   0  0  0  0  0  0  0  0  0  0  0  0
   20.7624   -8.7792  -13.1010 O   0  0  0  0  0  0  0  0  0  0  0  0
   23.9678  -10.6068  -14.2573 N   0  0  0  0  0  0  0  0  0  0  0  0
   24.1587  -10.1826  -15.6230 C   0  0  0  0  0  0  0  0  0  0  0  0
   24.8986  -10.9066  -16.3679 O   0  0  0  0  0  0  0  0  0  0  0  0
   23.5015   -8.9454  -16.1014 C   0  0  0  0  0  0  0  0  0  0  0  0
   22.6518   -8.2755  -15.0273 C   0  0  2  0  0  0  0  0  0  0  0  0
   21.2712   -8.5928  -15.3163 N   0  0  0  0  0  0  0  0  0  0  0  0
   22.9207   -6.8265  -15.0751 C   0  0  0  0  0  0  0  0  0  0  0  0
   24.0977   -6.4393  -14.8297 O   0  0  0  0  0  0  0  0  0  0  0  0
   21.9535   -5.8511  -15.3759 N   0  0  0  0  0  0  0  0  0  0  0  0
   22.2344   -4.4097  -15.4652 C   0  0  1  0  0  0  0  0  0  0  0  0
   21.4064   -3.8064  -16.5785 C   0  0  0  0  0  0  0  0  0  0  0  0
   21.6154   -2.3572  -16.6322 C   0  0  0  0  0  0  0  0  0  0  0  0
   21.4930   -1.6472  -15.6135 O   0  0  0  0  0  0  0  0  0  0  0  0
   21.7462   -3.8519  -14.1811 C   0  0  0  0  0  0  0  0  0  0  0  0
   20.6978   -4.2078  -13.6035 O   0  0  0  0  0  0  0  0  0  0  0  0
   21.9612   -1.6826  -17.8110 O   0  0  0  0  0  0  0  0  0  0  0  0
   22.4726   -2.8529  -13.5251 O   0  0  0  0  0  0  0  0  0  0  0  0
  1  5  1  0
  1  2  1  0
  2  3  1  0
  4  3  1  0
  5  4  1  0
  6  7  2  0
  5  6  1  6
  8  9  1  0
  9 10  2  0
 11  9  1  0
 12 11  1  6
 12 13  1  0
 13  6  1  0
 14 15  2  0
 14 12  1  0
 16 14  1  0
 17 16  1  0
 17 18  1  6
 19 18  1  0
 20 19  2  0
 21 24  1  0
 21 17  1  0
 22 21  2  0
 23 19  1  0
M  END
$$$$
