PND.pdb
     RDKit          3D

 24 24  0  0  1  0  0  0  0  0999 V2000
   17.1884  -13.5564    4.1195 N   0  0  0  0  0  0  0  0  0  0  0  0
   18.1437  -12.5369    3.7724 C   0  0  0  0  0  0  0  0  0  0  0  0
   19.3906  -13.2751    3.3321 C   0  0  0  0  0  0  0  0  0  0  0  0
   18.8174  -14.5078    2.6868 C   0  0  0  0  0  0  0  0  0  0  0  0
   17.4078  -14.6797    3.2108 C   0  0  1  0  0  0  0  0  0  0  0  0
   17.2052  -15.9325    3.9518 C   0  0  0  0  0  0  0  0  0  0  0  0
   17.1424  -15.9422    5.2126 O   0  0  0  0  0  0  0  0  0  0  0  0
   16.5820  -20.9622    5.1843 N   0  0  0  0  0  0  0  0  0  0  0  0
   16.4103  -20.8542    3.7559 C   0  0  0  0  0  0  0  0  0  0  0  0
   16.0988  -21.9132    3.1172 O   0  0  0  0  0  0  0  0  0  0  0  0
   16.5985  -19.5427    3.0954 C   0  0  0  0  0  0  0  0  0  0  0  0
   16.9620  -18.4345    4.0773 C   0  0  2  0  0  0  0  0  0  0  0  0
   17.0658  -17.2087    3.3176 N   0  0  0  0  0  0  0  0  0  0  0  0
   18.2319  -18.8049    4.7288 C   0  0  0  0  0  0  0  0  0  0  0  0
   19.2768  -18.8082    4.0192 O   0  0  0  0  0  0  0  0  0  0  0  0
   18.3537  -19.1531    6.0857 N   0  0  0  0  0  0  0  0  0  0  0  0
   19.6375  -19.3739    6.7695 C   0  0  1  0  0  0  0  0  0  0  0  0
   19.9311  -18.1978    7.6749 C   0  0  0  0  0  0  0  0  0  0  0  0
   21.1644  -18.4386    8.4283 C   0  0  0  0  0  0  0  0  0  0  0  0
   21.9899  -19.2992    8.0611 O   0  0  0  0  0  0  0  0  0  0  0  0
   19.4069  -20.5617    7.6265 C   0  0  0  0  0  0  0  0  0  0  0  0
   20.3079  -21.2992    8.0778 O   0  0  0  0  0  0  0  0  0  0  0  0
   21.4944  -17.7306    9.5919 O   0  0  0  0  0  0  0  0  0  0  0  0
   18.1065  -20.9291    7.9868 O   0  0  0  0  0  0  0  0  0  0  0  0
  1  5  1  0
  1  2  1  0
  2  3  1  0
  4  3  1  0
  5  4  1  0
  6  7  2  0
  5  6  1  1
  8  9  1  0
  9 10  2  0
 11  9  1  0
 12 11  1  6
 12 13  1  0
 13  6  1  0
 14 15  2  0
 14 12  1  0
 16 14  1  0
 17 16  1  0
 17 18  1  1
 19 18  1  0
 20 19  2  0
 21 24  1  0
 21 17  1  0
 22 21  2  0
 23 19  1  0
M  END
$$$$
