PND.pdb
     RDKit          3D

 24 24  0  0  1  0  0  0  0  0999 V2000
   19.7471  -10.0257  -15.3349 N   0  0  0  0  0  0  0  0  0  0  0  0
   19.5573  -11.4328  -15.5725 C   0  0  0  0  0  0  0  0  0  0  0  0
   18.0640  -11.6673  -15.4800 C   0  0  0  0  0  0  0  0  0  0  0  0
   17.5069  -10.3779  -16.0199 C   0  0  0  0  0  0  0  0  0  0  0  0
   18.5961   -9.3326  -15.9099 C   0  0  1  0  0  0  0  0  0  0  0  0
   18.2413   -8.2040  -15.0382 C   0  0  0  0  0  0  0  0  0  0  0  0
   17.2731   -7.4433  -15.3169 O   0  0  0  0  0  0  0  0  0  0  0  0
   16.6449   -8.2304  -11.9929 N   0  0  0  0  0  0  0  0  0  0  0  0
   17.6742   -7.7852  -11.0853 C   0  0  0  0  0  0  0  0  0  0  0  0
   17.5395   -8.0772   -9.8511 O   0  0  0  0  0  0  0  0  0  0  0  0
   18.8279   -7.0197  -11.6092 C   0  0  0  0  0  0  0  0  0  0  0  0
   18.6856   -6.6763  -13.0878 C   0  0  2  0  0  0  0  0  0  0  0  0
   18.9480   -7.8867  -13.8339 N   0  0  0  0  0  0  0  0  0  0  0  0
   19.6464   -5.6017  -13.3980 C   0  0  0  0  0  0  0  0  0  0  0  0
   19.4454   -4.4670  -12.8807 O   0  0  0  0  0  0  0  0  0  0  0  0
   20.7689   -5.7590  -14.2302 N   0  0  0  0  0  0  0  0  0  0  0  0
   21.6525   -4.6570  -14.6418 C   0  0  1  0  0  0  0  0  0  0  0  0
   22.9575   -5.2263  -15.1536 C   0  0  0  0  0  0  0  0  0  0  0  0
   23.8178   -4.1477  -15.6468 C   0  0  0  0  0  0  0  0  0  0  0  0
   23.7298   -2.9895  -15.1908 O   0  0  0  0  0  0  0  0  0  0  0  0
   20.9533   -4.0222  -15.7848 C   0  0  0  0  0  0  0  0  0  0  0  0
   21.0390   -2.8142  -16.0894 O   0  0  0  0  0  0  0  0  0  0  0  0
   24.7810   -4.3408  -16.6462 O   0  0  0  0  0  0  0  0  0  0  0  0
   20.1251   -4.7839  -16.6155 O   0  0  0  0  0  0  0  0  0  0  0  0
  1  5  1  0
  1  2  1  0
  2  3  1  0
  4  3  1  0
  5  4  1  0
  6  7  2  0
  5  6  1  1
  8  9  1  0
  9 10  2  0
 11  9  1  0
 12 11  1  1
 12 13  1  0
 13  6  1  0
 14 15  2  0
 14 12  1  0
 16 14  1  0
 17 16  1  0
 17 18  1  6
 19 18  1  0
 20 19  2  0
 21 24  1  0
 21 17  1  0
 22 21  2  0
 23 19  1  0
M  END
$$$$
