PND.pdb
     RDKit          3D

 24 24  0  0  1  0  0  0  0  0999 V2000
   17.0649  -11.5819  -15.1117 N   0  0  0  0  0  0  0  0  0  0  0  0
   16.3682  -12.8407  -15.0610 C   0  0  0  0  0  0  0  0  0  0  0  0
   14.9939  -12.5275  -14.5070 C   0  0  0  0  0  0  0  0  0  0  0  0
   14.7361  -11.1516  -15.0591 C   0  0  0  0  0  0  0  0  0  0  0  0
   16.0761  -10.5548  -15.4325 C   0  0  1  0  0  0  0  0  0  0  0  0
   16.4045   -9.3337  -14.6838 C   0  0  0  0  0  0  0  0  0  0  0  0
   15.6953   -8.2944  -14.7868 O   0  0  0  0  0  0  0  0  0  0  0  0
   18.9713   -7.1474   -9.7034 N   0  0  0  0  0  0  0  0  0  0  0  0
   18.0757   -7.0415  -10.8295 C   0  0  0  0  0  0  0  0  0  0  0  0
   17.5792   -5.8945  -11.0830 O   0  0  0  0  0  0  0  0  0  0  0  0
   17.7708   -8.2456  -11.6350 C   0  0  0  0  0  0  0  0  0  0  0  0
   17.8657   -7.9913  -13.1353 C   0  0  2  0  0  0  0  0  0  0  0  0
   17.5264   -9.2296  -13.8001 N   0  0  0  0  0  0  0  0  0  0  0  0
   19.2399   -7.5478  -13.4336 C   0  0  0  0  0  0  0  0  0  0  0  0
   20.1744   -8.3821  -13.2720 O   0  0  0  0  0  0  0  0  0  0  0  0
   19.5756   -6.2593  -13.8857 N   0  0  0  0  0  0  0  0  0  0  0  0
   20.9355   -5.8454  -14.2649 C   0  0  1  0  0  0  0  0  0  0  0  0
   20.8827   -5.0954  -15.5778 C   0  0  0  0  0  0  0  0  0  0  0  0
   22.2247   -4.6427  -15.9529 C   0  0  0  0  0  0  0  0  0  0  0  0
   23.2407   -5.2907  -15.6289 O   0  0  0  0  0  0  0  0  0  0  0  0
   21.3444   -4.8877  -13.2095 C   0  0  0  0  0  0  0  0  0  0  0  0
   20.5810   -4.4188  -12.3396 O   0  0  0  0  0  0  0  0  0  0  0  0
   22.4538   -3.4720  -16.6885 O   0  0  0  0  0  0  0  0  0  0  0  0
   22.6685   -4.4433  -13.1356 O   0  0  0  0  0  0  0  0  0  0  0  0
  1  5  1  0
  1  2  1  0
  2  3  1  0
  4  3  1  0
  5  4  1  0
  6  7  2  0
  5  6  1  1
  8  9  1  0
  9 10  2  0
 11  9  1  0
 12 11  1  1
 12 13  1  0
 13  6  1  0
 14 15  2  0
 14 12  1  0
 16 14  1  0
 17 16  1  0
 17 18  1  6
 19 18  1  0
 20 19  2  0
 21 24  1  0
 21 17  1  0
 22 21  2  0
 23 19  1  0
M  END
$$$$
