PND.pdb
     RDKit          3D

 24 24  0  0  1  0  0  0  0  0999 V2000
   27.8833  -20.7475  -16.5423 N   0  0  0  0  0  0  0  0  0  0  0  0
   29.2003  -20.8759  -17.1094 C   0  0  0  0  0  0  0  0  0  0  0  0
   29.7581  -22.1735  -16.5630 C   0  0  0  0  0  0  0  0  0  0  0  0
   28.5234  -23.0264  -16.4505 C   0  0  0  0  0  0  0  0  0  0  0  0
   27.3302  -22.0953  -16.4280 C   0  0  1  0  0  0  0  0  0  0  0  0
   26.5432  -22.1788  -15.1897 C   0  0  0  0  0  0  0  0  0  0  0  0
   25.9323  -23.2376  -14.8748 O   0  0  0  0  0  0  0  0  0  0  0  0
   24.4418  -21.3381  -10.5442 N   0  0  0  0  0  0  0  0  0  0  0  0
   25.6672  -20.5838  -10.6491 C   0  0  0  0  0  0  0  0  0  0  0  0
   26.1349  -20.0662   -9.5814 O   0  0  0  0  0  0  0  0  0  0  0  0
   26.3250  -20.4401  -11.9675 C   0  0  0  0  0  0  0  0  0  0  0  0
   25.5977  -21.1945  -13.0750 C   0  0  2  0  0  0  0  0  0  0  0  0
   26.4114  -21.0928  -14.2658 N   0  0  0  0  0  0  0  0  0  0  0  0
   24.2683  -20.5795  -13.2446 C   0  0  0  0  0  0  0  0  0  0  0  0
   24.2221  -19.3486  -13.5244 O   0  0  0  0  0  0  0  0  0  0  0  0
   23.0523  -21.2738  -13.1156 N   0  0  0  0  0  0  0  0  0  0  0  0
   21.7420  -20.7215  -13.4934 C   0  0  1  0  0  0  0  0  0  0  0  0
   21.1688  -21.5301  -14.6365 C   0  0  0  0  0  0  0  0  0  0  0  0
   19.8381  -21.0289  -14.9895 C   0  0  0  0  0  0  0  0  0  0  0  0
   19.6087  -19.8053  -15.0748 O   0  0  0  0  0  0  0  0  0  0  0  0
   20.8845  -20.9428  -12.3042 C   0  0  0  0  0  0  0  0  0  0  0  0
   21.0161  -21.8872  -11.4978 O   0  0  0  0  0  0  0  0  0  0  0  0
   18.7522  -21.8752  -15.2510 O   0  0  0  0  0  0  0  0  0  0  0  0
   19.8375  -20.0613  -12.0164 O   0  0  0  0  0  0  0  0  0  0  0  0
  1  5  1  0
  1  2  1  0
  2  3  1  0
  4  3  1  0
  5  4  1  0
  6  7  2  0
  5  6  1  1
  8  9  1  0
  9 10  2  0
 11  9  1  0
 12 11  1  1
 12 13  1  0
 13  6  1  0
 14 15  2  0
 14 12  1  0
 16 14  1  0
 17 16  1  0
 17 18  1  6
 19 18  1  0
 20 19  2  0
 21 24  1  0
 21 17  1  0
 22 21  2  0
 23 19  1  0
M  END
$$$$
