CFC.pdb
     RDKit          3D

 24 24  0  0  1  0  0  0  0  0999 V2000
   10.6697  -17.3309   19.7908 N   0  0  0  0  0  0  0  0  0  0  0  0
   10.0117  -17.7380   20.9938 C   0  0  1  0  0  0  0  0  0  0  0  0
   10.7343  -18.9122   21.5866 C   0  0  0  0  0  0  0  0  0  0  0  0
   10.2394  -20.3961   20.6672 S   0  0  0  0  0  0  0  0  0  0  0  0
    9.9330  -16.5870   21.9308 C   0  0  0  0  0  0  0  0  0  0  0  0
   10.8854  -15.7690   22.0155 O   0  0  0  0  0  0  0  0  0  0  0  0
    8.8066  -16.3475   22.7655 N   0  0  0  0  0  0  0  0  0  0  0  0
    8.6847  -15.2130   23.6480 C   0  0  1  0  0  0  0  0  0  0  0  0
    7.2700  -14.9940   24.1130 C   0  0  0  0  0  0  0  0  0  0  0  0
    7.0985  -13.8404   24.9944 C   0  0  0  0  0  0  0  0  0  0  0  0
    6.3276  -13.9099   26.1354 C   0  0  0  0  0  0  0  0  0  0  0  0
    6.1657  -12.8077   26.9736 C   0  0  0  0  0  0  0  0  0  0  0  0
    6.7801  -11.6199   26.6713 C   0  0  0  0  0  0  0  0  0  0  0  0
    7.5517  -11.5251   25.5430 C   0  0  0  0  0  0  0  0  0  0  0  0
    7.7057  -12.6372   24.7114 C   0  0  0  0  0  0  0  0  0  0  0  0
    9.6841  -15.2269   24.7304 C   0  0  0  0  0  0  0  0  0  0  0  0
   10.6767  -14.4316   24.6763 O   0  0  0  0  0  0  0  0  0  0  0  0
    9.6154  -16.0833   25.8541 N   0  0  0  0  0  0  0  0  0  0  0  0
   10.4624  -15.8803   27.0373 C   0  0  1  0  0  0  0  0  0  0  0  0
    9.8886  -14.6401   27.7352 C   0  0  0  0  0  0  0  0  0  0  0  0
   10.7044  -14.3284   29.3022 S   0  0  0  0  0  0  0  0  0  0  0  0
   10.3503  -16.9853   27.9958 C   0  0  0  0  0  0  0  0  0  0  0  0
   11.3875  -17.1465   28.9058 O   0  0  0  0  0  0  0  0  0  0  0  0
    9.3738  -17.7585   28.0101 O   0  0  0  0  0  0  0  0  0  0  0  0
  2  5  1  0
  2  1  1  6
  3  2  1  0
  4  3  1  0
  5  7  1  0
  6  5  2  0
  7  8  1  0
  8  9  1  1
  9 10  1  0
 10 15  2  0
 11 10  1  0
 11 12  2  0
 12 13  1  0
 13 14  2  0
 15 14  1  0
 16 17  2  0
 16  8  1  0
 18 16  1  0
 19 18  1  0
 19 22  1  0
 19 20  1  1
 21 20  1  0
 22 23  1  0
 24 22  2  0
M  END
$$$$
