CFC.pdb
     RDKit          3D

 24 24  0  0  1  0  0  0  0  0999 V2000
   10.3442  -16.8093   18.9864 N   0  0  0  0  0  0  0  0  0  0  0  0
    9.1239  -16.8955   19.7274 C   0  0  1  0  0  0  0  0  0  0  0  0
    8.7552  -18.3377   19.9185 C   0  0  0  0  0  0  0  0  0  0  0  0
   10.0780  -19.1317   20.8736 S   0  0  0  0  0  0  0  0  0  0  0  0
    9.2735  -16.1715   21.0167 C   0  0  0  0  0  0  0  0  0  0  0  0
   10.4083  -16.0386   21.5441 O   0  0  0  0  0  0  0  0  0  0  0  0
    8.1726  -15.6007   21.7133 N   0  0  0  0  0  0  0  0  0  0  0  0
    8.2706  -15.0010   23.0215 C   0  0  1  0  0  0  0  0  0  0  0  0
    7.0876  -14.1286   23.3455 C   0  0  0  0  0  0  0  0  0  0  0  0
    7.1534  -13.4894   24.6586 C   0  0  0  0  0  0  0  0  0  0  0  0
    8.0601  -12.4870   24.9306 C   0  0  0  0  0  0  0  0  0  0  0  0
    8.1207  -11.8798   26.1842 C   0  0  0  0  0  0  0  0  0  0  0  0
    7.2663  -12.2765   27.1805 C   0  0  0  0  0  0  0  0  0  0  0  0
    6.3559  -13.2707   26.9352 C   0  0  0  0  0  0  0  0  0  0  0  0
    6.3057  -13.8710   25.6746 C   0  0  0  0  0  0  0  0  0  0  0  0
    8.6083  -15.9795   24.0698 C   0  0  0  0  0  0  0  0  0  0  0  0
    7.8332  -16.9680   24.2765 O   0  0  0  0  0  0  0  0  0  0  0  0
    9.7629  -15.8953   24.8826 N   0  0  0  0  0  0  0  0  0  0  0  0
   10.0633  -16.9013   25.9103 C   0  0  1  0  0  0  0  0  0  0  0  0
   11.5738  -17.1489   25.8021 C   0  0  0  0  0  0  0  0  0  0  0  0
   11.9905  -18.0387   24.3012 S   0  0  0  0  0  0  0  0  0  0  0  0
    9.8212  -16.3977   27.2668 C   0  0  0  0  0  0  0  0  0  0  0  0
    9.3310  -15.1035   27.3875 O   0  0  0  0  0  0  0  0  0  0  0  0
   10.0396  -17.0859   28.2819 O   0  0  0  0  0  0  0  0  0  0  0  0
  2  5  1  0
  2  1  1  1
  3  2  1  0
  4  3  1  0
  5  7  1  0
  6  5  2  0
  7  8  1  0
  8  9  1  1
  9 10  1  0
 10 15  2  0
 11 10  1  0
 11 12  2  0
 12 13  1  0
 13 14  2  0
 15 14  1  0
 16 17  2  0
 16  8  1  0
 18 16  1  0
 19 18  1  0
 19 22  1  0
 19 20  1  1
 21 20  1  0
 22 23  1  0
 24 22  2  0
M  END
$$$$
