CFC.pdb
     RDKit          3D

 24 24  0  0  1  0  0  0  0  0999 V2000
    9.2541  -15.2315   19.5213 N   0  0  0  0  0  0  0  0  0  0  0  0
    8.9725  -16.1895   20.5454 C   0  0  1  0  0  0  0  0  0  0  0  0
    9.7127  -17.4628   20.2569 C   0  0  0  0  0  0  0  0  0  0  0  0
    8.5107  -18.6873   19.6670 S   0  0  0  0  0  0  0  0  0  0  0  0
    9.3227  -15.6165   21.8713 C   0  0  0  0  0  0  0  0  0  0  0  0
   10.4131  -15.0100   22.0347 O   0  0  0  0  0  0  0  0  0  0  0  0
    8.4693  -15.7165   23.0047 N   0  0  0  0  0  0  0  0  0  0  0  0
    8.8601  -15.3452   24.3426 C   0  0  1  0  0  0  0  0  0  0  0  0
    7.6881  -15.2630   25.2835 C   0  0  0  0  0  0  0  0  0  0  0  0
    7.2636  -13.8999   25.5977 C   0  0  0  0  0  0  0  0  0  0  0  0
    5.9558  -13.6057   25.9202 C   0  0  0  0  0  0  0  0  0  0  0  0
    5.5541  -12.3044   26.2190 C   0  0  0  0  0  0  0  0  0  0  0  0
    6.4676  -11.2822   26.1962 C   0  0  0  0  0  0  0  0  0  0  0  0
    7.7736  -11.5488   25.8787 C   0  0  0  0  0  0  0  0  0  0  0  0
    8.1630  -12.8572   25.5813 C   0  0  0  0  0  0  0  0  0  0  0  0
    9.9882  -16.1475   24.8469 C   0  0  0  0  0  0  0  0  0  0  0  0
   11.0673  -16.2030   24.1738 O   0  0  0  0  0  0  0  0  0  0  0  0
    9.9550  -16.8783   26.0576 N   0  0  0  0  0  0  0  0  0  0  0  0
   10.8068  -16.5242   27.2011 C   0  0  1  0  0  0  0  0  0  0  0  0
   10.3112  -15.1467   27.6610 C   0  0  0  0  0  0  0  0  0  0  0  0
   11.2051  -14.5731   29.1067 S   0  0  0  0  0  0  0  0  0  0  0  0
   10.6174  -17.4339   28.3364 C   0  0  0  0  0  0  0  0  0  0  0  0
    9.3120  -17.7707   28.6716 O   0  0  0  0  0  0  0  0  0  0  0  0
   11.5740  -17.8964   28.9864 O   0  0  0  0  0  0  0  0  0  0  0  0
  2  5  1  0
  2  1  1  6
  3  2  1  0
  4  3  1  0
  5  7  1  0
  6  5  2  0
  7  8  1  0
  8  9  1  1
  9 10  1  0
 10 15  2  0
 11 10  1  0
 11 12  2  0
 12 13  1  0
 13 14  2  0
 15 14  1  0
 16 17  2  0
 16  8  1  0
 18 16  1  0
 19 18  1  0
 19 22  1  0
 19 20  1  1
 21 20  1  0
 22 23  1  0
 24 22  2  0
M  END
$$$$
