CFC.pdb
     RDKit          3D

 24 24  0  0  1  0  0  0  0  0999 V2000
    8.0445  -12.6632   19.8146 N   0  0  0  0  0  0  0  0  0  0  0  0
    7.4698  -13.8381   20.3934 C   0  0  1  0  0  0  0  0  0  0  0  0
    7.6071  -14.9860   19.4365 C   0  0  0  0  0  0  0  0  0  0  0  0
    6.8860  -16.4559   20.2186 S   0  0  0  0  0  0  0  0  0  0  0  0
    8.1134  -14.1114   21.7049 C   0  0  0  0  0  0  0  0  0  0  0  0
    9.2734  -13.6871   21.9453 O   0  0  0  0  0  0  0  0  0  0  0  0
    7.4740  -14.8492   22.7392 N   0  0  0  0  0  0  0  0  0  0  0  0
    8.0662  -15.1070   24.0290 C   0  0  1  0  0  0  0  0  0  0  0  0
    7.0662  -15.0174   25.1505 C   0  0  0  0  0  0  0  0  0  0  0  0
    6.9793  -13.6983   25.7746 C   0  0  0  0  0  0  0  0  0  0  0  0
    5.7765  -13.0370   25.9040 C   0  0  0  0  0  0  0  0  0  0  0  0
    5.6971  -11.7788   26.4994 C   0  0  0  0  0  0  0  0  0  0  0  0
    6.8314  -11.1709   26.9725 C   0  0  0  0  0  0  0  0  0  0  0  0
    8.0392  -11.8076   26.8558 C   0  0  0  0  0  0  0  0  0  0  0  0
    8.1049  -13.0682   26.2570 C   0  0  0  0  0  0  0  0  0  0  0  0
    8.8848  -16.3319   24.0423 C   0  0  0  0  0  0  0  0  0  0  0  0
    8.3461  -17.4414   24.3577 O   0  0  0  0  0  0  0  0  0  0  0  0
   10.2619  -16.3618   23.7204 N   0  0  0  0  0  0  0  0  0  0  0  0
   11.0391  -17.6081   23.7518 C   0  0  1  0  0  0  0  0  0  0  0  0
   12.3124  -17.3089   22.9496 C   0  0  0  0  0  0  0  0  0  0  0  0
   11.9289  -16.7033   21.3051 S   0  0  0  0  0  0  0  0  0  0  0  0
   11.4753  -17.9556   25.1088 C   0  0  0  0  0  0  0  0  0  0  0  0
   12.2287  -19.1131   25.2587 O   0  0  0  0  0  0  0  0  0  0  0  0
   11.1926  -17.2553   26.0994 O   0  0  0  0  0  0  0  0  0  0  0  0
  2  5  1  0
  2  1  1  6
  3  2  1  0
  4  3  1  0
  5  7  1  0
  6  5  2  0
  7  8  1  0
  8  9  1  1
  9 10  1  0
 10 15  2  0
 11 10  1  0
 11 12  2  0
 12 13  1  0
 13 14  2  0
 15 14  1  0
 16 17  2  0
 16  8  1  0
 18 16  1  0
 19 18  1  0
 19 22  1  0
 19 20  1  6
 21 20  1  0
 22 23  1  0
 24 22  2  0
M  END
$$$$
