CFC.pdb
     RDKit          3D

 24 24  0  0  1  0  0  0  0  0999 V2000
    8.8944  -19.2698   21.0890 N   0  0  0  0  0  0  0  0  0  0  0  0
    8.7204  -19.1721   22.5053 C   0  0  1  0  0  0  0  0  0  0  0  0
    9.7654  -19.9986   23.1961 C   0  0  0  0  0  0  0  0  0  0  0  0
    9.5661  -21.7190   22.6549 S   0  0  0  0  0  0  0  0  0  0  0  0
    8.7639  -17.7438   22.9138 C   0  0  0  0  0  0  0  0  0  0  0  0
    9.4998  -16.9284   22.2998 O   0  0  0  0  0  0  0  0  0  0  0  0
    7.9969  -17.2266   23.9942 N   0  0  0  0  0  0  0  0  0  0  0  0
    8.0617  -15.8581   24.4455 C   0  0  1  0  0  0  0  0  0  0  0  0
    6.7736  -15.3966   25.0728 C   0  0  0  0  0  0  0  0  0  0  0  0
    6.7737  -13.9937   25.4837 C   0  0  0  0  0  0  0  0  0  0  0  0
    7.3756  -13.0162   24.7201 C   0  0  0  0  0  0  0  0  0  0  0  0
    7.3743  -11.6791   25.1150 C   0  0  0  0  0  0  0  0  0  0  0  0
    6.7650  -11.3106   26.2867 C   0  0  0  0  0  0  0  0  0  0  0  0
    6.1597  -12.2634   27.0635 C   0  0  0  0  0  0  0  0  0  0  0  0
    6.1682  -13.5998   26.6562 C   0  0  0  0  0  0  0  0  0  0  0  0
    9.2627  -15.5840   25.2537 C   0  0  0  0  0  0  0  0  0  0  0  0
   10.2278  -14.9322   24.7396 O   0  0  0  0  0  0  0  0  0  0  0  0
    9.4217  -16.0046   26.5949 N   0  0  0  0  0  0  0  0  0  0  0  0
   10.6828  -15.8131   27.3237 C   0  0  1  0  0  0  0  0  0  0  0  0
   10.2925  -15.0947   28.6221 C   0  0  0  0  0  0  0  0  0  0  0  0
    9.5623  -13.4893   28.2938 S   0  0  0  0  0  0  0  0  0  0  0  0
   11.2926  -17.0869   27.7211 C   0  0  0  0  0  0  0  0  0  0  0  0
   12.4766  -17.0275   28.4454 O   0  0  0  0  0  0  0  0  0  0  0  0
   10.7860  -18.1873   27.4312 O   0  0  0  0  0  0  0  0  0  0  0  0
  2  5  1  0
  2  1  1  6
  3  2  1  0
  4  3  1  0
  5  7  1  0
  6  5  2  0
  7  8  1  0
  8  9  1  1
  9 10  1  0
 10 15  2  0
 11 10  1  0
 11 12  2  0
 12 13  1  0
 13 14  2  0
 15 14  1  0
 16 17  2  0
 16  8  1  0
 18 16  1  0
 19 18  1  0
 19 22  1  0
 19 20  1  1
 21 20  1  0
 22 23  1  0
 24 22  2  0
M  END
$$$$
