CFC.pdb
     RDKit          3D

 24 24  0  0  1  0  0  0  0  0999 V2000
    5.2497  -20.2382   21.9315 N   0  0  0  0  0  0  0  0  0  0  0  0
    5.3661  -19.9658   23.3308 C   0  0  1  0  0  0  0  0  0  0  0  0
    5.9911  -21.1436   24.0196 C   0  0  0  0  0  0  0  0  0  0  0  0
    7.7643  -21.1406   23.6350 S   0  0  0  0  0  0  0  0  0  0  0  0
    6.1412  -18.7136   23.5304 C   0  0  0  0  0  0  0  0  0  0  0  0
    6.8544  -18.2518   22.6021 O   0  0  0  0  0  0  0  0  0  0  0  0
    6.1240  -17.9816   24.7497 N   0  0  0  0  0  0  0  0  0  0  0  0
    6.8788  -16.7731   24.9745 C   0  0  1  0  0  0  0  0  0  0  0  0
    6.2811  -15.9131   26.0555 C   0  0  0  0  0  0  0  0  0  0  0  0
    6.9230  -14.6088   26.2101 C   0  0  0  0  0  0  0  0  0  0  0  0
    6.5348  -13.5182   25.4612 C   0  0  0  0  0  0  0  0  0  0  0  0
    7.1493  -12.2757   25.6106 C   0  0  0  0  0  0  0  0  0  0  0  0
    8.1645  -12.1173   26.5185 C   0  0  0  0  0  0  0  0  0  0  0  0
    8.5687  -13.1860   27.2749 C   0  0  0  0  0  0  0  0  0  0  0  0
    7.9445  -14.4257   27.1153 C   0  0  0  0  0  0  0  0  0  0  0  0
    8.3219  -17.0266   25.1290 C   0  0  0  0  0  0  0  0  0  0  0  0
    8.7214  -17.8540   26.0102 O   0  0  0  0  0  0  0  0  0  0  0  0
    9.3194  -16.3994   24.3464 N   0  0  0  0  0  0  0  0  0  0  0  0
   10.7296  -16.8054   24.4161 C   0  0  1  0  0  0  0  0  0  0  0  0
   11.2962  -16.5350   23.0160 C   0  0  0  0  0  0  0  0  0  0  0  0
   10.6899  -14.9847   22.3472 S   0  0  0  0  0  0  0  0  0  0  0  0
   11.5015  -15.9719   25.3445 C   0  0  0  0  0  0  0  0  0  0  0  0
   12.8390  -16.2978   25.5313 O   0  0  0  0  0  0  0  0  0  0  0  0
   10.9976  -15.0073   25.9504 O   0  0  0  0  0  0  0  0  0  0  0  0
  2  5  1  0
  2  1  1  6
  3  2  1  0
  4  3  1  0
  5  7  1  0
  6  5  2  0
  7  8  1  0
  8  9  1  1
  9 10  1  0
 10 15  2  0
 11 10  1  0
 11 12  2  0
 12 13  1  0
 13 14  2  0
 15 14  1  0
 16 17  2  0
 16  8  1  0
 18 16  1  0
 19 18  1  0
 19 22  1  0
 19 20  1  6
 21 20  1  0
 22 23  1  0
 24 22  2  0
M  END
$$$$
