CFC.pdb
     RDKit          3D

 24 24  0  0  1  0  0  0  0  0999 V2000
   10.6823  -16.6809   19.4788 N   0  0  0  0  0  0  0  0  0  0  0  0
    9.3811  -16.6661   20.0725 C   0  0  1  0  0  0  0  0  0  0  0  0
    8.8544  -18.0688   20.1589 C   0  0  0  0  0  0  0  0  0  0  0  0
    9.9447  -19.0088   21.2635 S   0  0  0  0  0  0  0  0  0  0  0  0
    9.4484  -16.0015   21.4001 C   0  0  0  0  0  0  0  0  0  0  0  0
   10.5507  -15.8767   21.9943 O   0  0  0  0  0  0  0  0  0  0  0  0
    8.3019  -15.4806   22.0612 N   0  0  0  0  0  0  0  0  0  0  0  0
    8.3272  -14.9023   23.3824 C   0  0  1  0  0  0  0  0  0  0  0  0
    7.1432  -14.0103   23.6437 C   0  0  0  0  0  0  0  0  0  0  0  0
    7.1181  -13.4207   24.9812 C   0  0  0  0  0  0  0  0  0  0  0  0
    6.2079  -13.8269   25.9338 C   0  0  0  0  0  0  0  0  0  0  0  0
    6.1863  -13.2622   27.2084 C   0  0  0  0  0  0  0  0  0  0  0  0
    7.0837  -12.2795   27.5386 C   0  0  0  0  0  0  0  0  0  0  0  0
    7.9984  -11.8583   26.6093 C   0  0  0  0  0  0  0  0  0  0  0  0
    8.0093  -12.4325   25.3356 C   0  0  0  0  0  0  0  0  0  0  0  0
    8.5771  -15.9029   24.4345 C   0  0  0  0  0  0  0  0  0  0  0  0
    7.7739  -16.8809   24.5718 O   0  0  0  0  0  0  0  0  0  0  0  0
    9.6753  -15.8515   25.3246 N   0  0  0  0  0  0  0  0  0  0  0  0
    9.8187  -16.8022   26.4355 C   0  0  1  0  0  0  0  0  0  0  0  0
   11.1971  -17.4469   26.2382 C   0  0  0  0  0  0  0  0  0  0  0  0
   11.3602  -18.1678   24.6036 S   0  0  0  0  0  0  0  0  0  0  0  0
    9.8573  -16.1302   27.7390 C   0  0  0  0  0  0  0  0  0  0  0  0
   10.0076  -16.9312   28.8641 O   0  0  0  0  0  0  0  0  0  0  0  0
    9.7611  -14.8937   27.8544 O   0  0  0  0  0  0  0  0  0  0  0  0
  2  5  1  0
  2  1  1  1
  3  2  1  0
  4  3  1  0
  5  7  1  0
  6  5  2  0
  7  8  1  0
  8  9  1  1
  9 10  1  0
 10 15  2  0
 11 10  1  0
 11 12  2  0
 12 13  1  0
 13 14  2  0
 15 14  1  0
 16 17  2  0
 16  8  1  0
 18 16  1  0
 19 18  1  0
 19 22  1  0
 19 20  1  6
 21 20  1  0
 22 23  1  0
 24 22  2  0
M  END
$$$$
