CFC.pdb
     RDKit          3D

 24 24  0  0  1  0  0  0  0  0999 V2000
   10.8047  -17.0924   19.9598 N   0  0  0  0  0  0  0  0  0  0  0  0
   10.0455  -17.5892   21.0654 C   0  0  1  0  0  0  0  0  0  0  0  0
   10.6681  -18.8581   21.5702 C   0  0  0  0  0  0  0  0  0  0  0  0
   10.4639  -20.1289   20.2913 S   0  0  0  0  0  0  0  0  0  0  0  0
    9.9560  -16.5427   22.1168 C   0  0  0  0  0  0  0  0  0  0  0  0
   10.9731  -15.8754   22.4389 O   0  0  0  0  0  0  0  0  0  0  0  0
    8.7477  -16.2405   22.8037 N   0  0  0  0  0  0  0  0  0  0  0  0
    8.6520  -15.2912   23.8855 C   0  0  1  0  0  0  0  0  0  0  0  0
    7.3433  -14.5474   23.8853 C   0  0  0  0  0  0  0  0  0  0  0  0
    7.1898  -13.6004   24.9884 C   0  0  0  0  0  0  0  0  0  0  0  0
    6.4075  -13.8893   26.0863 C   0  0  0  0  0  0  0  0  0  0  0  0
    6.2628  -12.9837   27.1364 C   0  0  0  0  0  0  0  0  0  0  0  0
    6.9061  -11.7737   27.0924 C   0  0  0  0  0  0  0  0  0  0  0  0
    7.6894  -11.4628   26.0120 C   0  0  0  0  0  0  0  0  0  0  0  0
    7.8260  -12.3793   24.9663 C   0  0  0  0  0  0  0  0  0  0  0  0
    9.0172  -15.8765   25.1873 C   0  0  0  0  0  0  0  0  0  0  0  0
    8.3870  -16.8971   25.6137 O   0  0  0  0  0  0  0  0  0  0  0  0
   10.0455  -15.3711   26.0168 N   0  0  0  0  0  0  0  0  0  0  0  0
   10.4298  -16.0366   27.2689 C   0  0  1  0  0  0  0  0  0  0  0  0
   11.9613  -16.1211   27.2265 C   0  0  0  0  0  0  0  0  0  0  0  0
   12.5280  -17.1433   25.8656 S   0  0  0  0  0  0  0  0  0  0  0  0
   10.0907  -15.2349   28.4498 C   0  0  0  0  0  0  0  0  0  0  0  0
   10.3133  -15.8095   29.6949 O   0  0  0  0  0  0  0  0  0  0  0  0
    9.6215  -14.0844   28.3618 O   0  0  0  0  0  0  0  0  0  0  0  0
  2  5  1  0
  2  1  1  6
  3  2  1  0
  4  3  1  0
  5  7  1  0
  6  5  2  0
  7  8  1  0
  8  9  1  1
  9 10  1  0
 10 15  2  0
 11 10  1  0
 11 12  2  0
 12 13  1  0
 13 14  2  0
 15 14  1  0
 16 17  2  0
 16  8  1  0
 18 16  1  0
 19 18  1  0
 19 22  1  0
 19 20  1  6
 21 20  1  0
 22 23  1  0
 24 22  2  0
M  END
$$$$
