CFC.pdb
     RDKit          3D

 24 24  0  0  1  0  0  0  0  0999 V2000
   10.0466  -16.9568   19.4229 N   0  0  0  0  0  0  0  0  0  0  0  0
    8.8271  -16.9615   20.1702 C   0  0  1  0  0  0  0  0  0  0  0  0
    8.3877  -18.3777   20.4022 C   0  0  0  0  0  0  0  0  0  0  0  0
    9.6367  -19.1882   21.4392 S   0  0  0  0  0  0  0  0  0  0  0  0
    9.0187  -16.2109   21.4385 C   0  0  0  0  0  0  0  0  0  0  0  0
   10.1765  -15.9965   21.8824 O   0  0  0  0  0  0  0  0  0  0  0  0
    7.9343  -15.7034   22.2061 N   0  0  0  0  0  0  0  0  0  0  0  0
    8.0907  -15.0098   23.4612 C   0  0  1  0  0  0  0  0  0  0  0  0
    6.9322  -14.0978   23.7639 C   0  0  0  0  0  0  0  0  0  0  0  0
    7.0307  -13.4065   25.0482 C   0  0  0  0  0  0  0  0  0  0  0  0
    7.9009  -12.3541   25.2384 C   0  0  0  0  0  0  0  0  0  0  0  0
    7.9928  -11.6971   26.4647 C   0  0  0  0  0  0  0  0  0  0  0  0
    7.2071  -12.0939   27.5160 C   0  0  0  0  0  0  0  0  0  0  0  0
    6.3342  -13.1374   27.3524 C   0  0  0  0  0  0  0  0  0  0  0  0
    6.2519  -13.7872   26.1183 C   0  0  0  0  0  0  0  0  0  0  0  0
    8.4569  -15.9130   24.5661 C   0  0  0  0  0  0  0  0  0  0  0  0
    7.6749  -16.8672   24.8801 O   0  0  0  0  0  0  0  0  0  0  0  0
    9.6470  -15.7909   25.3209 N   0  0  0  0  0  0  0  0  0  0  0  0
   10.0523  -16.8083   26.3003 C   0  0  1  0  0  0  0  0  0  0  0  0
   11.5187  -17.1202   25.9734 C   0  0  0  0  0  0  0  0  0  0  0  0
   12.4646  -15.6222   25.6910 S   0  0  0  0  0  0  0  0  0  0  0  0
   10.0335  -16.2941   27.6741 C   0  0  0  0  0  0  0  0  0  0  0  0
   10.3950  -17.1725   28.6878 O   0  0  0  0  0  0  0  0  0  0  0  0
    9.7098  -15.1215   27.9424 O   0  0  0  0  0  0  0  0  0  0  0  0
  2  5  1  0
  2  1  1  1
  3  2  1  0
  4  3  1  0
  5  7  1  0
  6  5  2  0
  7  8  1  0
  8  9  1  1
  9 10  1  0
 10 15  2  0
 11 10  1  0
 11 12  2  0
 12 13  1  0
 13 14  2  0
 15 14  1  0
 16 17  2  0
 16  8  1  0
 18 16  1  0
 19 18  1  0
 19 22  1  0
 19 20  1  6
 21 20  1  0
 22 23  1  0
 24 22  2  0
M  END
$$$$
