CFC.pdb
     RDKit          3D

 24 24  0  0  1  0  0  0  0  0999 V2000
    9.6793  -16.5576   18.7873 N   0  0  0  0  0  0  0  0  0  0  0  0
    8.4692  -16.5325   19.5494 C   0  0  1  0  0  0  0  0  0  0  0  0
    7.9184  -17.9242   19.6599 C   0  0  0  0  0  0  0  0  0  0  0  0
    8.9354  -18.8354   20.8548 S   0  0  0  0  0  0  0  0  0  0  0  0
    8.7310  -15.9179   20.8770 C   0  0  0  0  0  0  0  0  0  0  0  0
    9.8799  -15.9713   21.3877 O   0  0  0  0  0  0  0  0  0  0  0  0
    7.7258  -15.2504   21.6299 N   0  0  0  0  0  0  0  0  0  0  0  0
    7.9274  -14.7313   22.9605 C   0  0  1  0  0  0  0  0  0  0  0  0
    6.7681  -13.8968   23.4352 C   0  0  0  0  0  0  0  0  0  0  0  0
    6.9226  -13.3679   24.7893 C   0  0  0  0  0  0  0  0  0  0  0  0
    7.7916  -12.3342   25.0674 C   0  0  0  0  0  0  0  0  0  0  0  0
    7.9369  -11.8323   26.3600 C   0  0  0  0  0  0  0  0  0  0  0  0
    7.2066  -12.3673   27.3897 C   0  0  0  0  0  0  0  0  0  0  0  0
    6.3361  -13.3954   27.1392 C   0  0  0  0  0  0  0  0  0  0  0  0
    6.1999  -13.8891   25.8393 C   0  0  0  0  0  0  0  0  0  0  0  0
    8.3595  -15.7681   23.9140 C   0  0  0  0  0  0  0  0  0  0  0  0
    7.6968  -16.8513   24.0038 O   0  0  0  0  0  0  0  0  0  0  0  0
    9.4881  -15.6407   24.7572 N   0  0  0  0  0  0  0  0  0  0  0  0
    9.9484  -16.7453   25.6094 C   0  0  1  0  0  0  0  0  0  0  0  0
   11.4019  -16.9998   25.1886 C   0  0  0  0  0  0  0  0  0  0  0  0
   12.1822  -18.2372   26.2270 S   0  0  0  0  0  0  0  0  0  0  0  0
    9.9860  -16.3729   27.0279 C   0  0  0  0  0  0  0  0  0  0  0  0
   10.2736  -15.0480   27.3310 O   0  0  0  0  0  0  0  0  0  0  0  0
    9.7718  -17.1952   27.9387 O   0  0  0  0  0  0  0  0  0  0  0  0
  2  5  1  0
  2  1  1  6
  3  2  1  0
  4  3  1  0
  5  7  1  0
  6  5  2  0
  7  8  1  0
  8  9  1  1
  9 10  1  0
 10 15  2  0
 11 10  1  0
 11 12  2  0
 12 13  1  0
 13 14  2  0
 15 14  1  0
 16 17  2  0
 16  8  1  0
 18 16  1  0
 19 18  1  0
 19 22  1  0
 19 20  1  6
 21 20  1  0
 22 23  1  0
 24 22  2  0
M  END
$$$$
