CFC.pdb
     RDKit          3D

 24 24  0  0  1  0  0  0  0  0999 V2000
    5.9104  -19.8907   21.5631 N   0  0  0  0  0  0  0  0  0  0  0  0
    5.6656  -19.5496   22.9304 C   0  0  1  0  0  0  0  0  0  0  0  0
    6.1069  -20.6791   23.8147 C   0  0  0  0  0  0  0  0  0  0  0  0
    7.9144  -20.7986   23.7097 S   0  0  0  0  0  0  0  0  0  0  0  0
    6.3526  -18.2723   23.2545 C   0  0  0  0  0  0  0  0  0  0  0  0
    7.1764  -17.7699   22.4466 O   0  0  0  0  0  0  0  0  0  0  0  0
    6.1265  -17.5600   24.4646 N   0  0  0  0  0  0  0  0  0  0  0  0
    6.8567  -16.3779   24.8520 C   0  0  1  0  0  0  0  0  0  0  0  0
    6.0555  -15.4744   25.7506 C   0  0  0  0  0  0  0  0  0  0  0  0
    6.7007  -14.1969   26.0487 C   0  0  0  0  0  0  0  0  0  0  0  0
    7.0428  -13.8423   27.3364 C   0  0  0  0  0  0  0  0  0  0  0  0
    7.6577  -12.6230   27.6174 C   0  0  0  0  0  0  0  0  0  0  0  0
    7.9357  -11.7448   26.6018 C   0  0  0  0  0  0  0  0  0  0  0  0
    7.6055  -12.0739   25.3133 C   0  0  0  0  0  0  0  0  0  0  0  0
    6.9897  -13.2990   25.0453 C   0  0  0  0  0  0  0  0  0  0  0  0
    8.2091  -16.6845   25.3495 C   0  0  0  0  0  0  0  0  0  0  0  0
    8.3522  -17.5194   26.2998 O   0  0  0  0  0  0  0  0  0  0  0  0
    9.3893  -16.1017   24.8314 N   0  0  0  0  0  0  0  0  0  0  0  0
   10.7229  -16.5041   25.2983 C   0  0  1  0  0  0  0  0  0  0  0  0
   11.7095  -15.7577   24.3905 C   0  0  0  0  0  0  0  0  0  0  0  0
   11.5181  -16.2380   22.6727 S   0  0  0  0  0  0  0  0  0  0  0  0
   10.9920  -16.0489   26.6667 C   0  0  0  0  0  0  0  0  0  0  0  0
   12.2238  -16.3800   27.2172 O   0  0  0  0  0  0  0  0  0  0  0  0
   10.1639  -15.3917   27.3254 O   0  0  0  0  0  0  0  0  0  0  0  0
  2  5  1  0
  2  1  1  6
  3  2  1  0
  4  3  1  0
  5  7  1  0
  6  5  2  0
  7  8  1  0
  8  9  1  1
  9 10  1  0
 10 15  2  0
 11 10  1  0
 11 12  2  0
 12 13  1  0
 13 14  2  0
 15 14  1  0
 16 17  2  0
 16  8  1  0
 18 16  1  0
 19 18  1  0
 19 22  1  0
 19 20  1  6
 21 20  1  0
 22 23  1  0
 24 22  2  0
M  END
$$$$
