ADA.pdb
     RDKit          3D

 19 18  0  0  1  0  0  0  0  0999 V2000
   22.5313  -12.0227  -16.7247 C   0  0  0  0  0  0  0  0  0  0  0  0
   21.0250  -12.0612  -16.9167 C   0  0  2  0  0  0  0  0  0  0  0  0
   20.6788  -12.7452  -18.1495 N   0  0  0  0  0  0  0  0  0  0  0  0
   20.5503  -10.6466  -16.9175 C   0  0  0  0  0  0  0  0  0  0  0  0
   20.6323  -10.0339  -18.0054 O   0  0  0  0  0  0  0  0  0  0  0  0
   20.0484  -10.0915  -15.7233 N   0  0  0  0  0  0  0  0  0  0  0  0
   19.5353   -8.6765  -15.6711 C   0  0  1  0  0  0  0  0  0  0  0  0
   18.2229   -8.7411  -15.0008 C   0  0  0  0  0  0  0  0  0  0  0  0
   17.1077   -9.4367  -15.5577 C   0  0  0  0  0  0  0  0  0  0  0  0
   16.5249  -10.4033  -15.0831 O   0  0  0  0  0  0  0  0  0  0  0  0
   20.6125   -7.8963  -15.0391 C   0  0  0  0  0  0  0  0  0  0  0  0
   21.0255   -8.1918  -13.8470 O   0  0  0  0  0  0  0  0  0  0  0  0
   16.6038   -8.9743  -16.7950 O   0  0  0  0  0  0  0  0  0  0  0  0
   22.9683   -5.1168  -15.8922 C   0  0  0  0  0  0  0  0  0  0  0  0
   22.3957   -6.1181  -14.8791 C   0  0  2  0  0  0  0  0  0  0  0  0
   21.3164   -6.7980  -15.5825 N   0  0  0  0  0  0  0  0  0  0  0  0
   21.9223   -5.3513  -13.7274 C   0  0  0  0  0  0  0  0  0  0  0  0
   20.5673   -5.0788  -13.5800 O   0  0  0  0  0  0  0  0  0  0  0  0
   22.7260   -4.9364  -12.8696 O   0  0  0  0  0  0  0  0  0  0  0  0
  2  3  1  0
  2  1  1  6
  4  5  2  0
  4  2  1  0
  6  4  1  0
  7 11  1  0
  7  6  1  0
  7  8  1  1
  9  8  1  0
 10  9  2  0
 11 12  2  0
 13  9  1  0
 15 14  1  6
 16 15  1  0
 16 11  1  0
 17 18  1  0
 17 15  1  0
 19 17  2  0
M  END
$$$$
