ADA.pdb
     RDKit          3D

 19 18  0  0  1  0  0  0  0  0999 V2000
   17.0126  -13.2942  -14.1488 C   0  0  0  0  0  0  0  0  0  0  0  0
   16.0897  -12.5743  -15.1170 C   0  0  2  0  0  0  0  0  0  0  0  0
   15.7134  -13.4451  -16.2159 N   0  0  0  0  0  0  0  0  0  0  0  0
   16.8198  -11.3643  -15.5958 C   0  0  0  0  0  0  0  0  0  0  0  0
   17.7277  -11.5591  -16.4344 O   0  0  0  0  0  0  0  0  0  0  0  0
   16.4565  -10.1000  -15.0900 N   0  0  0  0  0  0  0  0  0  0  0  0
   17.0755   -8.8347  -15.6231 C   0  0  1  0  0  0  0  0  0  0  0  0
   16.0514   -7.7835  -15.4744 C   0  0  0  0  0  0  0  0  0  0  0  0
   16.2957   -6.4179  -15.8110 C   0  0  0  0  0  0  0  0  0  0  0  0
   15.6847   -5.4352  -15.4109 O   0  0  0  0  0  0  0  0  0  0  0  0
   18.3473   -8.6885  -14.8954 C   0  0  0  0  0  0  0  0  0  0  0  0
   18.3701   -8.7139  -13.6001 O   0  0  0  0  0  0  0  0  0  0  0  0
   17.3572   -6.1475  -16.7048 O   0  0  0  0  0  0  0  0  0  0  0  0
   21.9962   -8.8277  -15.4919 C   0  0  0  0  0  0  0  0  0  0  0  0
   20.8309   -8.3346  -14.6226 C   0  0  2  0  0  0  0  0  0  0  0  0
   19.6398   -8.5182  -15.4409 N   0  0  0  0  0  0  0  0  0  0  0  0
   21.0860   -6.9298  -14.3065 C   0  0  0  0  0  0  0  0  0  0  0  0
   20.2906   -5.9342  -14.8616 O   0  0  0  0  0  0  0  0  0  0  0  0
   22.0155   -6.6125  -13.5389 O   0  0  0  0  0  0  0  0  0  0  0  0
  2  3  1  0
  2  1  1  1
  4  5  2  0
  4  2  1  0
  6  4  1  0
  7 11  1  0
  7  6  1  0
  7  8  1  1
  9  8  1  0
 10  9  2  0
 11 12  2  0
 13  9  1  0
 15 14  1  6
 16 15  1  0
 16 11  1  0
 17 18  1  0
 17 15  1  0
 19 17  2  0
M  END
$$$$
