ADA.pdb
     RDKit          3D

 19 18  0  0  1  0  0  0  0  0999 V2000
   17.2196  -11.7494  -10.5008 C   0  0  0  0  0  0  0  0  0  0  0  0
   16.0674  -10.9514  -11.0865 C   0  0  2  0  0  0  0  0  0  0  0  0
   15.0737  -11.8329  -11.6720 N   0  0  0  0  0  0  0  0  0  0  0  0
   16.6508  -10.0252  -12.1005 C   0  0  0  0  0  0  0  0  0  0  0  0
   16.9437  -10.5279  -13.2083 O   0  0  0  0  0  0  0  0  0  0  0  0
   16.8357   -8.6692  -11.7640 N   0  0  0  0  0  0  0  0  0  0  0  0
   17.3365   -7.6716  -12.7750 C   0  0  1  0  0  0  0  0  0  0  0  0
   16.3625   -6.5637  -12.7745 C   0  0  0  0  0  0  0  0  0  0  0  0
   16.5510   -5.3728  -13.5386 C   0  0  0  0  0  0  0  0  0  0  0  0
   16.9791   -5.2860  -14.6824 O   0  0  0  0  0  0  0  0  0  0  0  0
   18.7276   -7.3879  -12.3840 C   0  0  0  0  0  0  0  0  0  0  0  0
   19.0113   -7.0451  -11.1671 O   0  0  0  0  0  0  0  0  0  0  0  0
   16.2118   -4.1451  -12.9251 O   0  0  0  0  0  0  0  0  0  0  0  0
   22.1956   -7.8176  -13.5957 C   0  0  0  0  0  0  0  0  0  0  0  0
   21.1991   -7.0235  -12.7394 C   0  0  2  0  0  0  0  0  0  0  0  0
   19.8819   -7.4444  -13.1973 N   0  0  0  0  0  0  0  0  0  0  0  0
   21.4517   -5.6033  -12.9798 C   0  0  0  0  0  0  0  0  0  0  0  0
   22.5581   -4.9851  -12.4093 O   0  0  0  0  0  0  0  0  0  0  0  0
   20.6803   -4.9357  -13.6963 O   0  0  0  0  0  0  0  0  0  0  0  0
  2  3  1  0
  2  1  1  6
  4  5  2  0
  4  2  1  0
  6  4  1  0
  7 11  1  0
  7  6  1  0
  7  8  1  1
  9  8  1  0
 10  9  2  0
 11 12  2  0
 13  9  1  0
 15 14  1  6
 16 15  1  0
 16 11  1  0
 17 18  1  0
 17 15  1  0
 19 17  2  0
M  END
$$$$
