ADA.pdb
     RDKit          3D

 19 18  0  0  1  0  0  0  0  0999 V2000
   17.4468  -11.8717  -15.1679 C   0  0  0  0  0  0  0  0  0  0  0  0
   16.8437  -11.0331  -16.2815 C   0  0  2  0  0  0  0  0  0  0  0  0
   16.5300  -11.8559  -17.4356 N   0  0  0  0  0  0  0  0  0  0  0  0
   17.8379   -9.9712  -16.6137 C   0  0  0  0  0  0  0  0  0  0  0  0
   18.9489  -10.3630  -17.0355 O   0  0  0  0  0  0  0  0  0  0  0  0
   17.4808   -8.6192  -16.4386 N   0  0  0  0  0  0  0  0  0  0  0  0
   18.4462   -7.5063  -16.7510 C   0  0  1  0  0  0  0  0  0  0  0  0
   17.6215   -6.3393  -17.1171 C   0  0  0  0  0  0  0  0  0  0  0  0
   18.1741   -5.0382  -17.3157 C   0  0  0  0  0  0  0  0  0  0  0  0
   19.3086   -4.7632  -17.6851 O   0  0  0  0  0  0  0  0  0  0  0  0
   19.3215   -7.4091  -15.5708 C   0  0  0  0  0  0  0  0  0  0  0  0
   18.8210   -7.4502  -14.3763 O   0  0  0  0  0  0  0  0  0  0  0  0
   17.3347   -3.9289  -17.0634 O   0  0  0  0  0  0  0  0  0  0  0  0
   22.8386   -7.8514  -14.6185 C   0  0  0  0  0  0  0  0  0  0  0  0
   21.4969   -7.1700  -14.3146 C   0  0  2  0  0  0  0  0  0  0  0  0
   20.7280   -7.2739  -15.5474 N   0  0  0  0  0  0  0  0  0  0  0  0
   21.7846   -5.7846  -13.9453 C   0  0  0  0  0  0  0  0  0  0  0  0
   22.2770   -5.4877  -12.6799 O   0  0  0  0  0  0  0  0  0  0  0  0
   21.5922   -4.8597  -14.7587 O   0  0  0  0  0  0  0  0  0  0  0  0
  2  3  1  0
  2  1  1  1
  4  5  2  0
  4  2  1  0
  6  4  1  0
  7 11  1  0
  7  6  1  0
  7  8  1  1
  9  8  1  0
 10  9  2  0
 11 12  2  0
 13  9  1  0
 15 14  1  6
 16 15  1  0
 16 11  1  0
 17 18  1  0
 17 15  1  0
 19 17  2  0
M  END
$$$$
