ADA.pdb
     RDKit          3D

 19 18  0  0  1  0  0  0  0  0999 V2000
   15.5774   -6.6823   -7.5084 C   0  0  0  0  0  0  0  0  0  0  0  0
   14.8271   -7.3945   -8.6206 C   0  0  2  0  0  0  0  0  0  0  0  0
   13.8775   -8.3474   -8.0750 N   0  0  0  0  0  0  0  0  0  0  0  0
   15.8501   -8.0625   -9.4771 C   0  0  0  0  0  0  0  0  0  0  0  0
   16.3732   -9.0993   -9.0113 O   0  0  0  0  0  0  0  0  0  0  0  0
   16.1638   -7.5035  -10.7322 N   0  0  0  0  0  0  0  0  0  0  0  0
   17.0041   -8.2493  -11.7351 C   0  0  1  0  0  0  0  0  0  0  0  0
   16.0870   -8.6554  -12.8167 C   0  0  0  0  0  0  0  0  0  0  0  0
   16.5382   -9.3048  -14.0051 C   0  0  0  0  0  0  0  0  0  0  0  0
   17.4272  -10.1412  -14.1009 O   0  0  0  0  0  0  0  0  0  0  0  0
   18.1184   -7.3426  -12.0584 C   0  0  0  0  0  0  0  0  0  0  0  0
   17.9166   -6.0678  -12.1721 O   0  0  0  0  0  0  0  0  0  0  0  0
   15.9008   -8.9582  -15.2185 O   0  0  0  0  0  0  0  0  0  0  0  0
   21.7676   -7.5336  -12.8777 C   0  0  0  0  0  0  0  0  0  0  0  0
   20.4647   -6.7306  -12.7567 C   0  0  2  0  0  0  0  0  0  0  0  0
   19.4735   -7.6817  -12.2723 N   0  0  0  0  0  0  0  0  0  0  0  0
   20.1458   -6.2131  -14.0868 C   0  0  0  0  0  0  0  0  0  0  0  0
   20.5631   -4.9406  -14.4589 O   0  0  0  0  0  0  0  0  0  0  0  0
   19.4993   -6.9056  -14.8971 O   0  0  0  0  0  0  0  0  0  0  0  0
  2  3  1  0
  2  1  1  1
  4  5  2  0
  4  2  1  0
  6  4  1  0
  7 11  1  0
  7  6  1  0
  7  8  1  6
  9  8  1  0
 10  9  2  0
 11 12  2  0
 13  9  1  0
 15 14  1  6
 16 15  1  0
 16 11  1  0
 17 18  1  0
 17 15  1  0
 19 17  2  0
M  END
$$$$
