ADA.pdb
     RDKit          3D

 19 18  0  0  1  0  0  0  0  0999 V2000
   14.4526  -10.1171  -16.2754 C   0  0  0  0  0  0  0  0  0  0  0  0
   15.8954  -10.5785  -16.3881 C   0  0  2  0  0  0  0  0  0  0  0  0
   16.0443  -11.9344  -15.8912 N   0  0  0  0  0  0  0  0  0  0  0  0
   16.7236   -9.6110  -15.6107 C   0  0  0  0  0  0  0  0  0  0  0  0
   16.4136   -9.4551  -14.4085 O   0  0  0  0  0  0  0  0  0  0  0  0
   17.7828   -8.9421  -16.2563 N   0  0  0  0  0  0  0  0  0  0  0  0
   18.7175   -8.0373  -15.4974 C   0  0  1  0  0  0  0  0  0  0  0  0
   20.0258   -8.7186  -15.4835 C   0  0  0  0  0  0  0  0  0  0  0  0
   21.1951   -8.1280  -14.9164 C   0  0  0  0  0  0  0  0  0  0  0  0
   22.3237   -8.1151  -15.3910 O   0  0  0  0  0  0  0  0  0  0  0  0
   18.6119   -6.7265  -16.1601 C   0  0  0  0  0  0  0  0  0  0  0  0
   18.8084   -6.6175  -17.4362 O   0  0  0  0  0  0  0  0  0  0  0  0
   21.0570   -7.4802  -13.6674 O   0  0  0  0  0  0  0  0  0  0  0  0
   17.0173   -3.5153  -15.9403 C   0  0  0  0  0  0  0  0  0  0  0  0
   18.3319   -4.2225  -16.2989 C   0  0  2  0  0  0  0  0  0  0  0  0
   18.2996   -5.4820  -15.5678 N   0  0  0  0  0  0  0  0  0  0  0  0
   19.4265   -3.3517  -15.8723 C   0  0  0  0  0  0  0  0  0  0  0  0
   20.2560   -3.7356  -14.8252 O   0  0  0  0  0  0  0  0  0  0  0  0
   19.6260   -2.2608  -16.4415 O   0  0  0  0  0  0  0  0  0  0  0  0
  2  3  1  0
  2  1  1  1
  4  5  2  0
  4  2  1  0
  6  4  1  0
  7 11  1  0
  7  6  1  0
  7  8  1  6
  9  8  1  0
 10  9  2  0
 11 12  2  0
 13  9  1  0
 15 14  1  1
 16 15  1  0
 16 11  1  0
 17 18  1  0
 17 15  1  0
 19 17  2  0
M  END
$$$$
