ADA.pdb
     RDKit          3D

 19 18  0  0  1  0  0  0  0  0999 V2000
   18.6298  -11.5336  -15.0485 C   0  0  0  0  0  0  0  0  0  0  0  0
   17.3817  -11.0002  -14.3667 C   0  0  2  0  0  0  0  0  0  0  0  0
   16.2138  -11.1862  -15.2087 N   0  0  0  0  0  0  0  0  0  0  0  0
   17.6283   -9.5579  -14.0745 C   0  0  0  0  0  0  0  0  0  0  0  0
   17.5626   -8.7748  -15.0483 O   0  0  0  0  0  0  0  0  0  0  0  0
   17.9147   -9.1659  -12.7515 N   0  0  0  0  0  0  0  0  0  0  0  0
   18.0111   -7.7128  -12.3674 C   0  0  1  0  0  0  0  0  0  0  0  0
   17.5591   -7.6287  -10.9658 C   0  0  0  0  0  0  0  0  0  0  0  0
   17.5794   -6.4102  -10.2225 C   0  0  0  0  0  0  0  0  0  0  0  0
   17.7890   -5.2831  -10.6523 O   0  0  0  0  0  0  0  0  0  0  0  0
   19.3930   -7.3178  -12.6879 C   0  0  0  0  0  0  0  0  0  0  0  0
   20.3948   -7.9971  -12.2255 O   0  0  0  0  0  0  0  0  0  0  0  0
   17.3320   -6.4911   -8.8328 O   0  0  0  0  0  0  0  0  0  0  0  0
   21.4220   -5.8520  -15.1999 C   0  0  0  0  0  0  0  0  0  0  0  0
   21.2194   -5.8858  -13.6785 C   0  0  2  0  0  0  0  0  0  0  0  0
   19.8176   -6.2327  -13.4875 N   0  0  0  0  0  0  0  0  0  0  0  0
   21.5455   -4.5559  -13.1651 C   0  0  0  0  0  0  0  0  0  0  0  0
   20.5295   -3.6796  -12.8022 O   0  0  0  0  0  0  0  0  0  0  0  0
   22.7334   -4.1964  -13.0479 O   0  0  0  0  0  0  0  0  0  0  0  0
  2  3  1  0
  2  1  1  6
  4  5  2  0
  4  2  1  0
  6  4  1  0
  7 11  1  0
  7  6  1  0
  7  8  1  1
  9  8  1  0
 10  9  2  0
 11 12  2  0
 13  9  1  0
 15 14  1  6
 16 15  1  0
 16 11  1  0
 17 18  1  0
 17 15  1  0
 19 17  2  0
M  END
$$$$
