ADA.pdb
     RDKit          3D

 19 18  0  0  1  0  0  0  0  0999 V2000
   15.6930   -7.3992  -17.0995 C   0  0  0  0  0  0  0  0  0  0  0  0
   16.5038   -8.6723  -16.9286 C   0  0  2  0  0  0  0  0  0  0  0  0
   15.6377   -9.8019  -16.6435 N   0  0  0  0  0  0  0  0  0  0  0  0
   17.4729   -8.4255  -15.8211 C   0  0  0  0  0  0  0  0  0  0  0  0
   17.0996   -8.7543  -14.6730 O   0  0  0  0  0  0  0  0  0  0  0  0
   18.7240   -7.8501  -16.1208 N   0  0  0  0  0  0  0  0  0  0  0  0
   19.8004   -7.7251  -15.0749 C   0  0  1  0  0  0  0  0  0  0  0  0
   20.7163   -8.8609  -15.2919 C   0  0  0  0  0  0  0  0  0  0  0  0
   21.9208   -9.0319  -14.5451 C   0  0  0  0  0  0  0  0  0  0  0  0
   22.9866   -9.4785  -14.9496 O   0  0  0  0  0  0  0  0  0  0  0  0
   20.3260   -6.3573  -15.2207 C   0  0  0  0  0  0  0  0  0  0  0  0
   20.4484   -5.8218  -16.3942 O   0  0  0  0  0  0  0  0  0  0  0  0
   21.9030   -8.6491  -13.1843 O   0  0  0  0  0  0  0  0  0  0  0  0
   22.7315   -4.6350  -15.1842 C   0  0  0  0  0  0  0  0  0  0  0  0
   21.4433   -4.2283  -14.4548 C   0  0  2  0  0  0  0  0  0  0  0  0
   20.7408   -5.4776  -14.1953 N   0  0  0  0  0  0  0  0  0  0  0  0
   20.6997   -3.3385  -15.3457 C   0  0  0  0  0  0  0  0  0  0  0  0
   19.3461   -3.5541  -15.5765 O   0  0  0  0  0  0  0  0  0  0  0  0
   21.2700   -2.3812  -15.9046 O   0  0  0  0  0  0  0  0  0  0  0  0
  2  3  1  0
  2  1  1  1
  4  5  2  0
  4  2  1  0
  6  4  1  0
  7 11  1  0
  7  6  1  0
  7  8  1  6
  9  8  1  0
 10  9  2  0
 11 12  2  0
 13  9  1  0
 15 14  1  6
 16 15  1  0
 16 11  1  0
 17 18  1  0
 17 15  1  0
 19 17  2  0
M  END
$$$$
