ADA.pdb
     RDKit          3D

 19 18  0  0  1  0  0  0  0  0999 V2000
   26.0258  -11.4787  -15.9569 C   0  0  0  0  0  0  0  0  0  0  0  0
   24.6672  -12.1475  -16.0765 C   0  0  2  0  0  0  0  0  0  0  0  0
   24.7245  -13.2733  -16.9912 N   0  0  0  0  0  0  0  0  0  0  0  0
   23.7084  -11.1041  -16.5438 C   0  0  0  0  0  0  0  0  0  0  0  0
   23.5776  -10.9847  -17.7825 O   0  0  0  0  0  0  0  0  0  0  0  0
   23.0198  -10.3293  -15.5889 N   0  0  0  0  0  0  0  0  0  0  0  0
   22.0009   -9.2998  -16.0015 C   0  0  1  0  0  0  0  0  0  0  0  0
   20.6815   -9.8815  -15.6902 C   0  0  0  0  0  0  0  0  0  0  0  0
   19.4702   -9.1311  -15.7749 C   0  0  0  0  0  0  0  0  0  0  0  0
   19.0799   -8.4578  -16.7201 O   0  0  0  0  0  0  0  0  0  0  0  0
   22.4039   -8.0594  -15.3179 C   0  0  0  0  0  0  0  0  0  0  0  0
   22.6998   -8.0705  -14.0565 O   0  0  0  0  0  0  0  0  0  0  0  0
   18.6102   -9.1541  -14.6529 O   0  0  0  0  0  0  0  0  0  0  0  0
   22.9094   -4.4308  -16.0949 C   0  0  0  0  0  0  0  0  0  0  0  0
   22.8889   -5.5933  -15.0924 C   0  0  2  0  0  0  0  0  0  0  0  0
   22.5303   -6.7674  -15.8765 N   0  0  0  0  0  0  0  0  0  0  0  0
   21.8922   -5.2718  -14.0717 C   0  0  0  0  0  0  0  0  0  0  0  0
   20.6230   -5.8348  -14.1341 O   0  0  0  0  0  0  0  0  0  0  0  0
   22.1701   -4.4930  -13.1388 O   0  0  0  0  0  0  0  0  0  0  0  0
  2  3  1  0
  2  1  1  6
  4  5  2  0
  4  2  1  0
  6  4  1  0
  7 11  1  0
  7  6  1  0
  7  8  1  1
  9  8  1  0
 10  9  2  0
 11 12  2  0
 13  9  1  0
 15 14  1  6
 16 15  1  0
 16 11  1  0
 17 18  1  0
 17 15  1  0
 19 17  2  0
M  END
$$$$
