ADA.pdb
     RDKit          3D

 19 18  0  0  1  0  0  0  0  0999 V2000
   17.0272  -11.1613  -17.4556 C   0  0  0  0  0  0  0  0  0  0  0  0
   17.7440   -9.8921  -17.8831 C   0  0  2  0  0  0  0  0  0  0  0  0
   19.1179  -10.1757  -18.2563 N   0  0  0  0  0  0  0  0  0  0  0  0
   17.6680   -8.9418  -16.7352 C   0  0  0  0  0  0  0  0  0  0  0  0
   16.6278   -8.9910  -16.0414 O   0  0  0  0  0  0  0  0  0  0  0  0
   18.7443   -8.0628  -16.5008 N   0  0  0  0  0  0  0  0  0  0  0  0
   18.7350   -7.1037  -15.3397 C   0  0  1  0  0  0  0  0  0  0  0  0
   19.9961   -7.3324  -14.6093 C   0  0  0  0  0  0  0  0  0  0  0  0
   20.1733   -8.4193  -13.7012 C   0  0  0  0  0  0  0  0  0  0  0  0
   19.5015   -8.6740  -12.7098 O   0  0  0  0  0  0  0  0  0  0  0  0
   18.4943   -5.7779  -15.9336 C   0  0  0  0  0  0  0  0  0  0  0  0
   19.1899   -5.3772  -16.9506 O   0  0  0  0  0  0  0  0  0  0  0  0
   21.2378   -9.3140  -13.9564 O   0  0  0  0  0  0  0  0  0  0  0  0
   16.0115   -3.0064  -15.7402 C   0  0  0  0  0  0  0  0  0  0  0  0
   17.3744   -3.5336  -16.2108 C   0  0  2  0  0  0  0  0  0  0  0  0
   17.5443   -4.8115  -15.5325 N   0  0  0  0  0  0  0  0  0  0  0  0
   18.3823   -2.5494  -15.8185 C   0  0  0  0  0  0  0  0  0  0  0  0
   19.3278   -2.8668  -14.8505 O   0  0  0  0  0  0  0  0  0  0  0  0
   18.4036   -1.4204  -16.3466 O   0  0  0  0  0  0  0  0  0  0  0  0
  2  3  1  0
  2  1  1  1
  4  5  2  0
  4  2  1  0
  6  4  1  0
  7 11  1  0
  7  6  1  0
  7  8  1  6
  9  8  1  0
 10  9  2  0
 11 12  2  0
 13  9  1  0
 15 14  1  1
 16 15  1  0
 16 11  1  0
 17 18  1  0
 17 15  1  0
 19 17  2  0
M  END
$$$$
