ADA.pdb
     RDKit          3D

 19 18  0  0  1  0  0  0  0  0999 V2000
   14.7636  -11.1962  -15.0285 C   0  0  0  0  0  0  0  0  0  0  0  0
   16.0763  -11.4028  -15.7643 C   0  0  2  0  0  0  0  0  0  0  0  0
   16.5228  -12.7792  -15.6474 N   0  0  0  0  0  0  0  0  0  0  0  0
   17.0610  -10.4503  -15.1730 C   0  0  0  0  0  0  0  0  0  0  0  0
   17.0309  -10.3215  -13.9287 O   0  0  0  0  0  0  0  0  0  0  0  0
   17.9487   -9.7647  -16.0263 N   0  0  0  0  0  0  0  0  0  0  0  0
   19.0286   -8.8691  -15.4787 C   0  0  1  0  0  0  0  0  0  0  0  0
   20.3101   -9.4925  -15.8596 C   0  0  0  0  0  0  0  0  0  0  0  0
   21.5741   -8.9349  -15.5003 C   0  0  0  0  0  0  0  0  0  0  0  0
   22.6811   -9.4188  -15.6989 O   0  0  0  0  0  0  0  0  0  0  0  0
   18.7169   -7.5255  -15.9944 C   0  0  0  0  0  0  0  0  0  0  0  0
   18.5547   -7.3306  -17.2651 O   0  0  0  0  0  0  0  0  0  0  0  0
   21.5702   -7.6845  -14.8405 O   0  0  0  0  0  0  0  0  0  0  0  0
   17.3282   -4.3139  -14.9750 C   0  0  0  0  0  0  0  0  0  0  0  0
   18.3419   -5.0329  -15.8763 C   0  0  2  0  0  0  0  0  0  0  0  0
   18.5511   -6.3332  -15.2540 N   0  0  0  0  0  0  0  0  0  0  0  0
   19.5567   -4.2192  -15.9027 C   0  0  0  0  0  0  0  0  0  0  0  0
   19.5665   -3.0017  -16.5731 O   0  0  0  0  0  0  0  0  0  0  0  0
   20.5914   -4.6078  -15.3263 O   0  0  0  0  0  0  0  0  0  0  0  0
  2  3  1  0
  2  1  1  1
  4  5  2  0
  4  2  1  0
  6  4  1  0
  7 11  1  0
  7  6  1  0
  7  8  1  6
  9  8  1  0
 10  9  2  0
 11 12  2  0
 13  9  1  0
 15 14  1  1
 16 15  1  0
 16 11  1  0
 17 18  1  0
 17 15  1  0
 19 17  2  0
M  END
$$$$
