ADA.pdb
     RDKit          3D

 19 18  0  0  1  0  0  0  0  0999 V2000
   18.8227  -12.2121  -16.3391 C   0  0  0  0  0  0  0  0  0  0  0  0
   18.3684  -10.9598  -17.0687 C   0  0  2  0  0  0  0  0  0  0  0  0
   19.0820  -10.8056  -18.3235 N   0  0  0  0  0  0  0  0  0  0  0  0
   18.6106   -9.8090  -16.1502 C   0  0  0  0  0  0  0  0  0  0  0  0
   17.9579   -9.8036  -15.0827 O   0  0  0  0  0  0  0  0  0  0  0  0
   19.5376   -8.8161  -16.5255 N   0  0  0  0  0  0  0  0  0  0  0  0
   19.9071   -7.6946  -15.5906 C   0  0  1  0  0  0  0  0  0  0  0  0
   21.3716   -7.7630  -15.4275 C   0  0  0  0  0  0  0  0  0  0  0  0
   22.0042   -8.6741  -14.5290 C   0  0  0  0  0  0  0  0  0  0  0  0
   21.7303   -8.8638  -13.3508 O   0  0  0  0  0  0  0  0  0  0  0  0
   19.3196   -6.4831  -16.1866 C   0  0  0  0  0  0  0  0  0  0  0  0
   19.5928   -6.1535  -17.4096 O   0  0  0  0  0  0  0  0  0  0  0  0
   23.0686   -9.4547  -15.0355 O   0  0  0  0  0  0  0  0  0  0  0  0
   16.4779   -4.2288  -15.7852 C   0  0  0  0  0  0  0  0  0  0  0  0
   17.9310   -4.3773  -16.2578 C   0  0  2  0  0  0  0  0  0  0  0  0
   18.4337   -5.5644  -15.5797 N   0  0  0  0  0  0  0  0  0  0  0  0
   18.6434   -3.1614  -15.8671 C   0  0  0  0  0  0  0  0  0  0  0  0
   19.6399   -3.2169  -14.8997 O   0  0  0  0  0  0  0  0  0  0  0  0
   18.3655   -2.0673  -16.3960 O   0  0  0  0  0  0  0  0  0  0  0  0
  2  3  1  0
  2  1  1  1
  4  5  2  0
  4  2  1  0
  6  4  1  0
  7 11  1  0
  7  6  1  0
  7  8  1  6
  9  8  1  0
 10  9  2  0
 11 12  2  0
 13  9  1  0
 15 14  1  1
 16 15  1  0
 16 11  1  0
 17 18  1  0
 17 15  1  0
 19 17  2  0
M  END
$$$$
