ADA.pdb
     RDKit          3D

 19 18  0  0  1  0  0  0  0  0999 V2000
   14.4613   -8.4984  -13.5089 C   0  0  0  0  0  0  0  0  0  0  0  0
   15.0249   -8.8847  -14.8656 C   0  0  2  0  0  0  0  0  0  0  0  0
   14.4341  -10.1243  -15.3364 N   0  0  0  0  0  0  0  0  0  0  0  0
   16.5036   -9.0033  -14.7046 C   0  0  0  0  0  0  0  0  0  0  0  0
   16.9161  -10.0113  -14.0886 O   0  0  0  0  0  0  0  0  0  0  0  0
   17.3341   -7.9991  -15.2413 N   0  0  0  0  0  0  0  0  0  0  0  0
   18.8343   -8.1303  -15.2246 C   0  0  1  0  0  0  0  0  0  0  0  0
   19.2312   -8.4712  -16.6038 C   0  0  0  0  0  0  0  0  0  0  0  0
   20.5960   -8.5524  -17.0141 C   0  0  0  0  0  0  0  0  0  0  0  0
   21.1205   -7.9807  -17.9613 O   0  0  0  0  0  0  0  0  0  0  0  0
   19.3273   -6.8721  -14.6393 C   0  0  0  0  0  0  0  0  0  0  0  0
   18.7776   -5.7416  -14.9531 O   0  0  0  0  0  0  0  0  0  0  0  0
   21.4556   -9.3800  -16.2560 O   0  0  0  0  0  0  0  0  0  0  0  0
   21.7843   -5.7001  -12.0785 C   0  0  0  0  0  0  0  0  0  0  0  0
   20.8252   -5.4011  -13.2394 C   0  0  2  0  0  0  0  0  0  0  0  0
   20.3833   -6.7050  -13.7151 N   0  0  0  0  0  0  0  0  0  0  0  0
   21.5797   -4.6593  -14.2489 C   0  0  0  0  0  0  0  0  0  0  0  0
   21.8450   -3.3071  -14.0677 O   0  0  0  0  0  0  0  0  0  0  0  0
   21.9910   -5.2303  -15.2779 O   0  0  0  0  0  0  0  0  0  0  0  0
  2  3  1  0
  2  1  1  1
  4  5  2  0
  4  2  1  0
  6  4  1  0
  7 11  1  0
  7  6  1  0
  7  8  1  6
  9  8  1  0
 10  9  2  0
 11 12  2  0
 13  9  1  0
 15 14  1  1
 16 15  1  0
 16 11  1  0
 17 18  1  0
 17 15  1  0
 19 17  2  0
M  END
$$$$
