ADA.pdb
     RDKit          3D

 19 18  0  0  1  0  0  0  0  0999 V2000
   20.9678  -12.0042  -19.3548 C   0  0  0  0  0  0  0  0  0  0  0  0
   21.8851  -11.0303  -18.6355 C   0  0  2  0  0  0  0  0  0  0  0  0
   22.3594  -11.5950  -17.3851 N   0  0  0  0  0  0  0  0  0  0  0  0
   21.1036   -9.7783  -18.4153 C   0  0  0  0  0  0  0  0  0  0  0  0
   20.7391   -9.1634  -19.4423 O   0  0  0  0  0  0  0  0  0  0  0  0
   20.8259   -9.3669  -17.0964 N   0  0  0  0  0  0  0  0  0  0  0  0
   20.0130   -8.1307  -16.8152 C   0  0  1  0  0  0  0  0  0  0  0  0
   18.8037   -8.5883  -16.1050 C   0  0  0  0  0  0  0  0  0  0  0  0
   17.8423   -7.6843  -15.5609 C   0  0  0  0  0  0  0  0  0  0  0  0
   17.0000   -7.9247  -14.7055 O   0  0  0  0  0  0  0  0  0  0  0  0
   20.9318   -7.2112  -16.1233 C   0  0  0  0  0  0  0  0  0  0  0  0
   21.6576   -7.6281  -15.1343 O   0  0  0  0  0  0  0  0  0  0  0  0
   17.8457   -6.3580  -16.0504 O   0  0  0  0  0  0  0  0  0  0  0  0
   22.1295   -3.6749  -16.3690 C   0  0  0  0  0  0  0  0  0  0  0  0
   22.0530   -5.0089  -15.6131 C   0  0  2  0  0  0  0  0  0  0  0  0
   21.1590   -5.8447  -16.4030 N   0  0  0  0  0  0  0  0  0  0  0  0
   21.5262   -4.7249  -14.2788 C   0  0  0  0  0  0  0  0  0  0  0  0
   22.3857   -4.3391  -13.2569 O   0  0  0  0  0  0  0  0  0  0  0  0
   20.3058   -4.8254  -14.0456 O   0  0  0  0  0  0  0  0  0  0  0  0
  2  3  1  0
  2  1  1  1
  4  5  2  0
  4  2  1  0
  6  4  1  0
  7 11  1  0
  7  6  1  0
  7  8  1  1
  9  8  1  0
 10  9  2  0
 11 12  2  0
 13  9  1  0
 15 14  1  6
 16 15  1  0
 16 11  1  0
 17 18  1  0
 17 15  1  0
 19 17  2  0
M  END
$$$$
