ADA.pdb
     RDKit          3D

 19 18  0  0  1  0  0  0  0  0999 V2000
   15.3661   -6.0326  -15.8070 C   0  0  0  0  0  0  0  0  0  0  0  0
   16.3059   -7.1685  -16.1725 C   0  0  2  0  0  0  0  0  0  0  0  0
   15.6466   -8.4531  -16.0217 N   0  0  0  0  0  0  0  0  0  0  0  0
   17.4975   -7.0510  -15.2821 C   0  0  0  0  0  0  0  0  0  0  0  0
   17.3146   -7.3125  -14.0722 O   0  0  0  0  0  0  0  0  0  0  0  0
   18.7325   -6.6615  -15.8380 N   0  0  0  0  0  0  0  0  0  0  0  0
   19.9716   -6.5427  -14.9901 C   0  0  1  0  0  0  0  0  0  0  0  0
   20.7970   -7.7246  -15.3030 C   0  0  0  0  0  0  0  0  0  0  0  0
   22.0807   -7.9434  -14.7185 C   0  0  0  0  0  0  0  0  0  0  0  0
   23.1262   -8.2016  -15.3011 O   0  0  0  0  0  0  0  0  0  0  0  0
   20.5148   -5.2056  -15.2821 C   0  0  0  0  0  0  0  0  0  0  0  0
   20.3470   -4.6685  -16.4492 O   0  0  0  0  0  0  0  0  0  0  0  0
   22.1785   -7.8570  -13.3107 O   0  0  0  0  0  0  0  0  0  0  0  0
   22.1875   -3.2367  -16.2814 C   0  0  0  0  0  0  0  0  0  0  0  0
   21.7593   -3.0600  -14.8178 C   0  0  2  0  0  0  0  0  0  0  0  0
   21.2390   -4.3589  -14.4127 N   0  0  0  0  0  0  0  0  0  0  0  0
   20.7416   -2.0104  -14.7845 C   0  0  0  0  0  0  0  0  0  0  0  0
   19.4072   -2.3387  -14.5756 O   0  0  0  0  0  0  0  0  0  0  0  0
   21.0594   -0.8154  -14.9422 O   0  0  0  0  0  0  0  0  0  0  0  0
  2  3  1  0
  2  1  1  1
  4  5  2  0
  4  2  1  0
  6  4  1  0
  7 11  1  0
  7  6  1  0
  7  8  1  6
  9  8  1  0
 10  9  2  0
 11 12  2  0
 13  9  1  0
 15 14  1  6
 16 15  1  0
 16 11  1  0
 17 18  1  0
 17 15  1  0
 19 17  2  0
M  END
$$$$
