ITK.pdb
     RDKit          3D

 25 24  0  0  1  0  0  0  0  0999 V2000
    7.1024  -11.3890   26.8658 C   0  0  0  0  0  0  0  0  0  0  0  0
    6.3623  -12.6386   26.4828 C   0  0  0  0  0  0  0  0  0  0  0  0
    7.0902  -13.4490   25.4341 C   0  0  2  0  0  0  0  0  0  0  0  0
    7.4744  -12.6518   24.2314 C   0  0  0  0  0  0  0  0  0  0  0  0
    6.2723  -14.6782   25.0783 C   0  0  2  0  0  0  0  0  0  0  0  0
    5.9028  -15.3310   26.2938 N   0  0  0  0  0  0  0  0  0  0  0  0
    6.9999  -15.5443   24.1359 C   0  0  0  0  0  0  0  0  0  0  0  0
    6.3371  -16.0184   23.1650 O   0  0  0  0  0  0  0  0  0  0  0  0
    7.4262  -15.7425   21.5992 C   0  0  0  0  0  0  0  0  0  0  0  0
    8.8524  -16.1433   21.8412 C   0  0  1  0  0  0  0  0  0  0  0  0
    9.6582  -15.0284   21.6757 O   0  0  0  0  0  0  0  0  0  0  0  0
    9.0674  -16.6857   23.2308 C   0  0  2  0  0  0  0  0  0  0  0  0
    8.3560  -15.8874   24.2205 N   0  0  0  0  0  0  0  0  0  0  0  0
   10.5172  -16.6223   23.5605 C   0  0  0  0  0  0  0  0  0  0  0  0
   11.0238  -15.5286   24.0013 O   0  0  0  0  0  0  0  0  0  0  0  0
   11.3692  -17.7348   23.4066 N   0  0  0  0  0  0  0  0  0  0  0  0
   12.5820  -17.8640   24.2550 C   0  0  1  0  0  0  0  0  0  0  0  0
   12.6078  -19.2375   24.8355 C   0  0  0  0  0  0  0  0  0  0  0  0
   11.8011  -19.4795   26.0454 C   0  0  0  0  0  0  0  0  0  0  0  0
   11.6202  -20.8454   26.5599 C   0  0  0  0  0  0  0  0  0  0  0  0
   10.7650  -21.0054   27.7757 C   0  0  0  0  0  0  0  0  0  0  0  0
   10.7242  -22.3546   28.2204 N   0  0  0  0  0  0  0  0  0  0  0  0
   13.7412  -17.3838   23.5413 C   0  0  0  0  0  0  0  0  0  0  0  0
   14.9835  -17.0618   24.0582 O   0  0  0  0  0  0  0  0  0  0  0  0
   13.6549  -17.2139   22.2698 O   0  0  0  0  0  0  0  0  0  0  0  0
  2  1  1  0
  2  3  1  0
  3  4  1  6
  5  3  1  0
  5  6  1  1
  7  5  1  0
  8  7  2  0
 10  9  1  1
 10 12  1  0
 11 10  1  0
 12 13  1  1
 13  7  1  0
 14 12  1  0
 14 15  2  0
 16 14  1  0
 17 16  1  0
 17 18  1  6
 17 23  1  0
 19 18  1  0
 19 20  1  0
 21 20  1  0
 21 22  1  0
 23 25  2  0
 23 24  1  0
M  END
$$$$
