ITK.pdb
     RDKit          3D

 25 24  0  0  1  0  0  0  0  0999 V2000
    8.0958  -16.6057   16.8875 C   0  0  0  0  0  0  0  0  0  0  0  0
    7.5490  -15.4682   17.7018 C   0  0  0  0  0  0  0  0  0  0  0  0
    8.1732  -15.3822   19.0763 C   0  0  2  0  0  0  0  0  0  0  0  0
    8.0742  -16.6542   19.8519 C   0  0  0  0  0  0  0  0  0  0  0  0
    7.5932  -14.1973   19.8287 C   0  0  2  0  0  0  0  0  0  0  0  0
    7.7245  -13.0404   19.0013 N   0  0  0  0  0  0  0  0  0  0  0  0
    8.2177  -14.0540   21.1542 C   0  0  0  0  0  0  0  0  0  0  0  0
    9.4086  -13.6206   21.1824 O   0  0  0  0  0  0  0  0  0  0  0  0
    6.9116  -12.4636   24.6469 C   0  0  0  0  0  0  0  0  0  0  0  0
    7.3393  -13.8975   24.7666 C   0  0  1  0  0  0  0  0  0  0  0  0
    6.2132  -14.7014   24.6940 O   0  0  0  0  0  0  0  0  0  0  0  0
    8.2888  -14.3058   23.6698 C   0  0  2  0  0  0  0  0  0  0  0  0
    7.6107  -14.3544   22.3811 N   0  0  0  0  0  0  0  0  0  0  0  0
    8.8073  -15.6710   23.9563 C   0  0  0  0  0  0  0  0  0  0  0  0
    8.2582  -16.6908   23.4034 O   0  0  0  0  0  0  0  0  0  0  0  0
    9.8963  -15.8913   24.8239 N   0  0  0  0  0  0  0  0  0  0  0  0
   10.4227  -17.2668   25.0201 C   0  0  1  0  0  0  0  0  0  0  0  0
   11.7116  -17.3888   24.2799 C   0  0  0  0  0  0  0  0  0  0  0  0
   12.2177  -18.7479   24.0155 C   0  0  0  0  0  0  0  0  0  0  0  0
   13.5089  -18.9442   23.3391 C   0  0  0  0  0  0  0  0  0  0  0  0
   13.9785  -20.3531   23.1677 C   0  0  0  0  0  0  0  0  0  0  0  0
   15.1036  -20.4347   22.3033 N   0  0  0  0  0  0  0  0  0  0  0  0
   10.3829  -17.6192   26.4194 C   0  0  0  0  0  0  0  0  0  0  0  0
   10.5051  -18.8773   26.9819 O   0  0  0  0  0  0  0  0  0  0  0  0
   10.2094  -16.6848   27.2851 O   0  0  0  0  0  0  0  0  0  0  0  0
  2  1  1  0
  2  3  1  0
  3  4  1  1
  5  3  1  0
  5  6  1  6
  7  5  1  0
  8  7  2  0
 10  9  1  6
 10 12  1  0
 11 10  1  0
 12 13  1  6
 13  7  1  0
 14 12  1  0
 14 15  2  0
 16 14  1  0
 17 16  1  0
 17 18  1  1
 17 23  1  0
 19 18  1  0
 19 20  1  0
 21 20  1  0
 21 22  1  0
 23 25  2  0
 23 24  1  0
M  END
$$$$
