ITK.pdb
     RDKit          3D

 25 24  0  0  1  0  0  0  0  0999 V2000
    7.4558  -12.5940   18.9335 C   0  0  0  0  0  0  0  0  0  0  0  0
    8.4558  -13.5590   19.5034 C   0  0  0  0  0  0  0  0  0  0  0  0
    8.0637  -14.0635   20.8738 C   0  0  2  0  0  0  0  0  0  0  0  0
    7.8753  -12.9717   21.8748 C   0  0  0  0  0  0  0  0  0  0  0  0
    9.0608  -15.1107   21.3383 C   0  0  2  0  0  0  0  0  0  0  0  0
    9.1268  -16.1317   20.3417 N   0  0  0  0  0  0  0  0  0  0  0  0
    8.7176  -15.6110   22.6798 C   0  0  0  0  0  0  0  0  0  0  0  0
    8.7332  -14.7683   23.6266 O   0  0  0  0  0  0  0  0  0  0  0  0
    5.7350  -17.6726   24.1448 C   0  0  0  0  0  0  0  0  0  0  0  0
    7.0308  -18.3670   24.4479 C   0  0  1  0  0  0  0  0  0  0  0  0
    7.2053  -19.3940   23.5344 O   0  0  0  0  0  0  0  0  0  0  0  0
    8.2142  -17.4386   24.3540 C   0  0  2  0  0  0  0  0  0  0  0  0
    8.3768  -16.9327   22.9973 N   0  0  0  0  0  0  0  0  0  0  0  0
    9.4512  -18.1876   24.7054 C   0  0  0  0  0  0  0  0  0  0  0  0
   10.2415  -18.5857   23.7757 O   0  0  0  0  0  0  0  0  0  0  0  0
    9.7952  -18.4804   26.0408 N   0  0  0  0  0  0  0  0  0  0  0  0
   11.0319  -19.2486   26.3375 C   0  0  1  0  0  0  0  0  0  0  0  0
   12.1983  -18.4916   25.7985 C   0  0  0  0  0  0  0  0  0  0  0  0
   13.5422  -19.0403   26.0553 C   0  0  0  0  0  0  0  0  0  0  0  0
   14.7412  -18.3170   25.6054 C   0  0  0  0  0  0  0  0  0  0  0  0
   16.0656  -18.9334   25.9238 C   0  0  0  0  0  0  0  0  0  0  0  0
   16.3153  -20.0886   25.1344 N   0  0  0  0  0  0  0  0  0  0  0  0
   11.0423  -19.6583   27.7216 C   0  0  0  0  0  0  0  0  0  0  0  0
   11.8275  -20.6319   28.3130 O   0  0  0  0  0  0  0  0  0  0  0  0
   10.2375  -19.0806   28.5410 O   0  0  0  0  0  0  0  0  0  0  0  0
  2  1  1  0
  2  3  1  0
  3  4  1  1
  5  3  1  0
  5  6  1  6
  7  5  1  0
  8  7  2  0
 10  9  1  6
 10 12  1  0
 11 10  1  0
 12 13  1  6
 13  7  1  0
 14 12  1  0
 14 15  2  0
 16 14  1  0
 17 16  1  0
 17 18  1  1
 17 23  1  0
 19 18  1  0
 19 20  1  0
 21 20  1  0
 21 22  1  0
 23 25  2  0
 23 24  1  0
M  END
$$$$
