ITK.pdb
     RDKit          3D

 25 24  0  0  1  0  0  0  0  0999 V2000
    8.8239  -11.6886   19.7410 C   0  0  0  0  0  0  0  0  0  0  0  0
    9.0608  -13.1330   20.0780 C   0  0  0  0  0  0  0  0  0  0  0  0
    8.1153  -14.0636   19.3525 C   0  0  2  0  0  0  0  0  0  0  0  0
    6.6768  -13.7946   19.6487 C   0  0  0  0  0  0  0  0  0  0  0  0
    8.5046  -15.5055   19.6280 C   0  0  2  0  0  0  0  0  0  0  0  0
    8.1310  -15.8158   20.9712 N   0  0  0  0  0  0  0  0  0  0  0  0
    9.9303  -15.7338   19.3399 C   0  0  0  0  0  0  0  0  0  0  0  0
   10.2693  -15.7695   18.1190 O   0  0  0  0  0  0  0  0  0  0  0  0
   12.0931  -14.9764   17.8306 C   0  0  0  0  0  0  0  0  0  0  0  0
   12.9226  -15.1932   19.0628 C   0  0  1  0  0  0  0  0  0  0  0  0
   13.0098  -13.9946   19.7525 O   0  0  0  0  0  0  0  0  0  0  0  0
   12.3263  -16.2295   19.9802 C   0  0  2  0  0  0  0  0  0  0  0  0
   10.9393  -15.9139   20.2956 N   0  0  0  0  0  0  0  0  0  0  0  0
   13.0859  -16.2435   21.2598 C   0  0  0  0  0  0  0  0  0  0  0  0
   12.6681  -15.5523   22.2572 O   0  0  0  0  0  0  0  0  0  0  0  0
   14.2645  -16.9998   21.4224 N   0  0  0  0  0  0  0  0  0  0  0  0
   14.9381  -17.0493   22.7458 C   0  0  1  0  0  0  0  0  0  0  0  0
   15.1837  -18.4777   23.0971 C   0  0  0  0  0  0  0  0  0  0  0  0
   15.8670  -18.7561   24.3734 C   0  0  0  0  0  0  0  0  0  0  0  0
   16.2614  -20.1290   24.7238 C   0  0  0  0  0  0  0  0  0  0  0  0
   16.7773  -20.3548   26.1087 C   0  0  0  0  0  0  0  0  0  0  0  0
   17.0287  -21.7304   26.3623 N   0  0  0  0  0  0  0  0  0  0  0  0
   16.0430  -16.1209   22.7761 C   0  0  0  0  0  0  0  0  0  0  0  0
   16.5888  -15.4158   21.7182 O   0  0  0  0  0  0  0  0  0  0  0  0
   16.6260  -15.8939   23.8992 O   0  0  0  0  0  0  0  0  0  0  0  0
  2  1  1  0
  2  3  1  0
  3  4  1  1
  5  3  1  0
  5  6  1  1
  7  5  1  0
  8  7  2  0
 10  9  1  6
 10 12  1  0
 11 10  1  0
 12 13  1  1
 13  7  1  0
 14 12  1  0
 14 15  2  0
 16 14  1  0
 17 16  1  0
 17 18  1  6
 17 23  1  0
 19 18  1  0
 19 20  1  0
 21 20  1  0
 21 22  1  0
 23 25  2  0
 23 24  1  0
M  END
$$$$
