ITK.pdb
     RDKit          3D

 25 24  0  0  1  0  0  0  0  0999 V2000
    7.1732  -16.3802   17.4952 C   0  0  0  0  0  0  0  0  0  0  0  0
    7.0067  -15.1172   18.2909 C   0  0  0  0  0  0  0  0  0  0  0  0
    7.6781  -15.1877   19.6439 C   0  0  2  0  0  0  0  0  0  0  0  0
    7.3621  -16.4377   20.3970 C   0  0  0  0  0  0  0  0  0  0  0  0
    7.3585  -13.9343   20.4398 C   0  0  2  0  0  0  0  0  0  0  0  0
    7.6935  -12.8022   19.6360 N   0  0  0  0  0  0  0  0  0  0  0  0
    8.0301  -13.9528   21.7498 C   0  0  0  0  0  0  0  0  0  0  0  0
    9.2725  -13.7017   21.7601 O   0  0  0  0  0  0  0  0  0  0  0  0
    6.7193  -12.2863   25.1537 C   0  0  0  0  0  0  0  0  0  0  0  0
    7.1625  -13.7063   25.3554 C   0  0  1  0  0  0  0  0  0  0  0  0
    6.0427  -14.5223   25.3555 O   0  0  0  0  0  0  0  0  0  0  0  0
    8.0950  -14.1755   24.2683 C   0  0  2  0  0  0  0  0  0  0  0  0
    7.4159  -14.2230   22.9801 N   0  0  0  0  0  0  0  0  0  0  0  0
    8.5573  -15.5545   24.5836 C   0  0  0  0  0  0  0  0  0  0  0  0
    7.8963  -16.5642   24.1467 O   0  0  0  0  0  0  0  0  0  0  0  0
    9.7121  -15.7990   25.3542 N   0  0  0  0  0  0  0  0  0  0  0  0
   10.1141  -17.1947   25.6669 C   0  0  1  0  0  0  0  0  0  0  0  0
   11.3966  -17.4853   24.9634 C   0  0  0  0  0  0  0  0  0  0  0  0
   11.3222  -18.2351   23.6963 C   0  0  0  0  0  0  0  0  0  0  0  0
   12.5430  -18.5259   22.9294 C   0  0  0  0  0  0  0  0  0  0  0  0
   12.3713  -19.2230   21.6180 C   0  0  0  0  0  0  0  0  0  0  0  0
   13.6178  -19.4641   20.9794 N   0  0  0  0  0  0  0  0  0  0  0  0
   10.0264  -17.4305   27.0884 C   0  0  0  0  0  0  0  0  0  0  0  0
   10.1050  -18.6403   27.7548 O   0  0  0  0  0  0  0  0  0  0  0  0
    9.8482  -16.4250   27.8696 O   0  0  0  0  0  0  0  0  0  0  0  0
  2  1  1  0
  2  3  1  0
  3  4  1  1
  5  3  1  0
  5  6  1  6
  7  5  1  0
  8  7  2  0
 10  9  1  6
 10 12  1  0
 11 10  1  0
 12 13  1  6
 13  7  1  0
 14 12  1  0
 14 15  2  0
 16 14  1  0
 17 16  1  0
 17 18  1  1
 17 23  1  0
 19 18  1  0
 19 20  1  0
 21 20  1  0
 21 22  1  0
 23 25  2  0
 23 24  1  0
M  END
$$$$
