ITK.pdb
     RDKit          3D

 25 24  0  0  1  0  0  0  0  0999 V2000
    7.6017  -11.2778   19.3949 C   0  0  0  0  0  0  0  0  0  0  0  0
    8.1085  -12.4940   18.6737 C   0  0  0  0  0  0  0  0  0  0  0  0
    8.2008  -13.7077   19.5708 C   0  0  2  0  0  0  0  0  0  0  0  0
    9.0184  -13.4753   20.7984 C   0  0  0  0  0  0  0  0  0  0  0  0
    8.6862  -14.9019   18.7678 C   0  0  2  0  0  0  0  0  0  0  0  0
    7.7668  -15.1180   17.6964 N   0  0  0  0  0  0  0  0  0  0  0  0
    8.8791  -16.0783   19.6318 C   0  0  0  0  0  0  0  0  0  0  0  0
    7.8366  -16.7081   19.9831 O   0  0  0  0  0  0  0  0  0  0  0  0
   10.2534  -19.2854   18.8687 C   0  0  0  0  0  0  0  0  0  0  0  0
   11.0254  -18.8249   20.0709 C   0  0  1  0  0  0  0  0  0  0  0  0
   12.2230  -18.2754   19.6424 O   0  0  0  0  0  0  0  0  0  0  0  0
   10.2802  -17.7840   20.8663 C   0  0  2  0  0  0  0  0  0  0  0  0
   10.1109  -16.5586   20.0965 N   0  0  0  0  0  0  0  0  0  0  0  0
   11.0663  -17.4449   22.0836 C   0  0  0  0  0  0  0  0  0  0  0  0
   11.7513  -16.3601   22.1187 O   0  0  0  0  0  0  0  0  0  0  0  0
   11.0870  -18.2811   23.2183 N   0  0  0  0  0  0  0  0  0  0  0  0
   11.8465  -17.8722   24.4280 C   0  0  1  0  0  0  0  0  0  0  0  0
   11.4029  -18.7193   25.5725 C   0  0  0  0  0  0  0  0  0  0  0  0
   12.1286  -18.5739   26.8473 C   0  0  0  0  0  0  0  0  0  0  0  0
   11.8479  -19.4786   27.9723 C   0  0  0  0  0  0  0  0  0  0  0  0
   12.5702  -19.2130   29.2541 C   0  0  0  0  0  0  0  0  0  0  0  0
   12.1052  -20.0472   30.3065 N   0  0  0  0  0  0  0  0  0  0  0  0
   13.2553  -17.7867   24.1250 C   0  0  0  0  0  0  0  0  0  0  0  0
   13.9700  -18.5215   23.1959 O   0  0  0  0  0  0  0  0  0  0  0  0
   13.9752  -16.9435   24.7759 O   0  0  0  0  0  0  0  0  0  0  0  0
  2  1  1  0
  2  3  1  0
  3  4  1  1
  5  3  1  0
  5  6  1  6
  7  5  1  0
  8  7  2  0
 10  9  1  6
 10 12  1  0
 11 10  1  0
 12 13  1  6
 13  7  1  0
 14 12  1  0
 14 15  2  0
 16 14  1  0
 17 16  1  0
 17 18  1  1
 17 23  1  0
 19 18  1  0
 19 20  1  0
 21 20  1  0
 21 22  1  0
 23 25  2  0
 23 24  1  0
M  END
$$$$
