ITK.pdb
     RDKit          3D

 25 24  0  0  1  0  0  0  0  0999 V2000
    7.1562  -12.0067   19.3677 C   0  0  0  0  0  0  0  0  0  0  0  0
    7.5809  -13.3364   19.9222 C   0  0  0  0  0  0  0  0  0  0  0  0
    8.5312  -14.0736   19.0058 C   0  0  2  0  0  0  0  0  0  0  0  0
    8.0125  -14.2258   17.6140 C   0  0  0  0  0  0  0  0  0  0  0  0
    8.9160  -15.4035   19.6302 C   0  0  2  0  0  0  0  0  0  0  0  0
    7.8031  -16.2899   19.5046 N   0  0  0  0  0  0  0  0  0  0  0  0
    9.3793  -15.2238   21.0161 C   0  0  0  0  0  0  0  0  0  0  0  0
   10.4698  -14.5986   21.1790 O   0  0  0  0  0  0  0  0  0  0  0  0
    7.4840  -13.9381   24.3217 C   0  0  0  0  0  0  0  0  0  0  0  0
    8.1097  -15.2911   24.4985 C   0  0  1  0  0  0  0  0  0  0  0  0
    7.1361  -16.2568   24.3004 O   0  0  0  0  0  0  0  0  0  0  0  0
    9.2308  -15.5361   23.5215 C   0  0  2  0  0  0  0  0  0  0  0  0
    8.7205  -15.6829   22.1647 N   0  0  0  0  0  0  0  0  0  0  0  0
    9.9227  -16.8037   23.8807 C   0  0  0  0  0  0  0  0  0  0  0  0
    9.6471  -17.8834   23.2439 O   0  0  0  0  0  0  0  0  0  0  0  0
   10.8857  -16.8656   24.9085 N   0  0  0  0  0  0  0  0  0  0  0  0
   11.3665  -18.1839   25.3968 C   0  0  1  0  0  0  0  0  0  0  0  0
   12.6942  -18.4611   24.7768 C   0  0  0  0  0  0  0  0  0  0  0  0
   13.3802  -19.7061   25.1674 C   0  0  0  0  0  0  0  0  0  0  0  0
   14.7258  -20.0078   24.6559 C   0  0  0  0  0  0  0  0  0  0  0  0
   15.3680  -21.2693   25.1368 C   0  0  0  0  0  0  0  0  0  0  0  0
   16.6771  -21.4319   24.6080 N   0  0  0  0  0  0  0  0  0  0  0  0
   11.2344  -18.2604   26.8323 C   0  0  0  0  0  0  0  0  0  0  0  0
   11.3053  -19.3867   27.6326 O   0  0  0  0  0  0  0  0  0  0  0  0
   11.0185  -17.1768   27.4895 O   0  0  0  0  0  0  0  0  0  0  0  0
  2  1  1  0
  2  3  1  0
  3  4  1  6
  5  3  1  0
  5  6  1  1
  7  5  1  0
  8  7  2  0
 10  9  1  6
 10 12  1  0
 11 10  1  0
 12 13  1  6
 13  7  1  0
 14 12  1  0
 14 15  2  0
 16 14  1  0
 17 16  1  0
 17 18  1  1
 17 23  1  0
 19 18  1  0
 19 20  1  0
 21 20  1  0
 21 22  1  0
 23 25  2  0
 23 24  1  0
M  END
$$$$
