ITK.pdb
     RDKit          3D

 25 24  0  0  1  0  0  0  0  0999 V2000
    7.6198  -11.7522   19.8901 C   0  0  0  0  0  0  0  0  0  0  0  0
    8.1541  -13.0122   19.2711 C   0  0  0  0  0  0  0  0  0  0  0  0
    8.2365  -14.1563   20.2562 C   0  0  2  0  0  0  0  0  0  0  0  0
    8.9495  -13.7999   21.5188 C   0  0  0  0  0  0  0  0  0  0  0  0
    8.8350  -15.3752   19.5761 C   0  0  2  0  0  0  0  0  0  0  0  0
    8.0392  -15.6775   18.4293 N   0  0  0  0  0  0  0  0  0  0  0  0
    8.9675  -16.4972   20.5202 C   0  0  0  0  0  0  0  0  0  0  0  0
    7.8929  -17.0197   20.9432 O   0  0  0  0  0  0  0  0  0  0  0  0
   10.2310  -19.9016   20.0842 C   0  0  0  0  0  0  0  0  0  0  0  0
   11.0009  -19.3207   21.2346 C   0  0  1  0  0  0  0  0  0  0  0  0
   12.2176  -18.8563   20.7617 O   0  0  0  0  0  0  0  0  0  0  0  0
   10.2744  -18.1743   21.8898 C   0  0  2  0  0  0  0  0  0  0  0  0
   10.1744  -17.0339   20.9884 N   0  0  0  0  0  0  0  0  0  0  0  0
   11.0383  -17.7338   23.0885 C   0  0  0  0  0  0  0  0  0  0  0  0
   11.7472  -16.6652   23.0359 O   0  0  0  0  0  0  0  0  0  0  0  0
   11.0120  -18.4550   24.2996 N   0  0  0  0  0  0  0  0  0  0  0  0
   11.8723  -18.0316   25.4345 C   0  0  1  0  0  0  0  0  0  0  0  0
   11.2335  -18.4822   26.7046 C   0  0  0  0  0  0  0  0  0  0  0  0
   12.0183  -18.3477   27.9452 C   0  0  0  0  0  0  0  0  0  0  0  0
   11.5061  -18.8883   29.2135 C   0  0  0  0  0  0  0  0  0  0  0  0
   12.3002  -18.5964   30.4461 C   0  0  0  0  0  0  0  0  0  0  0  0
   11.7310  -19.2028   31.5986 N   0  0  0  0  0  0  0  0  0  0  0  0
   13.2468  -18.3895   25.1767 C   0  0  0  0  0  0  0  0  0  0  0  0
   14.3872  -17.6944   25.5378 O   0  0  0  0  0  0  0  0  0  0  0  0
   13.4900  -19.4748   24.5318 O   0  0  0  0  0  0  0  0  0  0  0  0
  2  1  1  0
  2  3  1  0
  3  4  1  1
  5  3  1  0
  5  6  1  6
  7  5  1  0
  8  7  2  0
 10  9  1  6
 10 12  1  0
 11 10  1  0
 12 13  1  6
 13  7  1  0
 14 12  1  0
 14 15  2  0
 16 14  1  0
 17 16  1  0
 17 18  1  1
 17 23  1  0
 19 18  1  0
 19 20  1  0
 21 20  1  0
 21 22  1  0
 23 25  2  0
 23 24  1  0
M  END
$$$$
