ITK.pdb
     RDKit          3D

 25 24  0  0  1  0  0  0  0  0999 V2000
    9.0651  -12.2921   27.4726 C   0  0  0  0  0  0  0  0  0  0  0  0
    8.0032  -13.2658   27.0482 C   0  0  0  0  0  0  0  0  0  0  0  0
    7.1907  -12.7675   25.8743 C   0  0  2  0  0  0  0  0  0  0  0  0
    6.4502  -11.5031   26.1613 C   0  0  0  0  0  0  0  0  0  0  0  0
    6.2776  -13.8745   25.3771 C   0  0  2  0  0  0  0  0  0  0  0  0
    5.3678  -14.2032   26.4280 N   0  0  0  0  0  0  0  0  0  0  0  0
    7.0564  -15.0227   24.8845 C   0  0  0  0  0  0  0  0  0  0  0  0
    7.0920  -16.0508   25.6251 O   0  0  0  0  0  0  0  0  0  0  0  0
    7.1731  -16.1887   21.0847 C   0  0  0  0  0  0  0  0  0  0  0  0
    8.5417  -16.2785   21.6948 C   0  0  1  0  0  0  0  0  0  0  0  0
    9.2964  -15.2069   21.2455 O   0  0  0  0  0  0  0  0  0  0  0  0
    8.5018  -16.2361   23.2008 C   0  0  2  0  0  0  0  0  0  0  0  0
    7.7582  -15.0754   23.6726 N   0  0  0  0  0  0  0  0  0  0  0  0
    9.8908  -16.1223   23.7227 C   0  0  0  0  0  0  0  0  0  0  0  0
   10.3935  -14.9636   23.9509 O   0  0  0  0  0  0  0  0  0  0  0  0
   10.6883  -17.2556   23.9820 N   0  0  0  0  0  0  0  0  0  0  0  0
   12.0554  -17.0894   24.5396 C   0  0  1  0  0  0  0  0  0  0  0  0
   12.3263  -18.2227   25.4705 C   0  0  0  0  0  0  0  0  0  0  0  0
   11.4899  -18.3235   26.6802 C   0  0  0  0  0  0  0  0  0  0  0  0
   11.5943  -19.4952   27.5631 C   0  0  0  0  0  0  0  0  0  0  0  0
   10.7773  -19.4771   28.8150 C   0  0  0  0  0  0  0  0  0  0  0  0
   10.9783  -20.6478   29.5953 N   0  0  0  0  0  0  0  0  0  0  0  0
   12.9949  -16.8152   23.4785 C   0  0  0  0  0  0  0  0  0  0  0  0
   12.8504  -17.0772   22.1277 O   0  0  0  0  0  0  0  0  0  0  0  0
   14.1184  -16.2663   23.7774 O   0  0  0  0  0  0  0  0  0  0  0  0
  2  1  1  0
  2  3  1  0
  3  4  1  1
  5  3  1  0
  5  6  1  1
  7  5  1  0
  8  7  2  0
 10  9  1  6
 10 12  1  0
 11 10  1  0
 12 13  1  6
 13  7  1  0
 14 12  1  0
 14 15  2  0
 16 14  1  0
 17 16  1  0
 17 18  1  6
 17 23  1  0
 19 18  1  0
 19 20  1  0
 21 20  1  0
 21 22  1  0
 23 25  2  0
 23 24  1  0
M  END
$$$$
