ITK.pdb
     RDKit          3D

 25 24  0  0  1  0  0  0  0  0999 V2000
    8.0259  -11.3897   26.1839 C   0  0  0  0  0  0  0  0  0  0  0  0
    7.8384  -12.8699   26.3572 C   0  0  0  0  0  0  0  0  0  0  0  0
    6.4287  -13.3193   26.0455 C   0  0  2  0  0  0  0  0  0  0  0  0
    5.3916  -12.6269   26.8667 C   0  0  0  0  0  0  0  0  0  0  0  0
    6.3384  -14.8316   26.1519 C   0  0  2  0  0  0  0  0  0  0  0  0
    7.1206  -15.2439   27.2736 N   0  0  0  0  0  0  0  0  0  0  0  0
    6.7280  -15.4760   24.8867 C   0  0  0  0  0  0  0  0  0  0  0  0
    5.9573  -16.3792   24.4428 O   0  0  0  0  0  0  0  0  0  0  0  0
    7.2158  -14.2569   21.4519 C   0  0  0  0  0  0  0  0  0  0  0  0
    8.4720  -15.0140   21.7715 C   0  0  1  0  0  0  0  0  0  0  0  0
    9.4770  -14.1026   22.0530 O   0  0  0  0  0  0  0  0  0  0  0  0
    8.3058  -15.9238   22.9614 C   0  0  2  0  0  0  0  0  0  0  0  0
    7.8726  -15.1772   24.1352 N   0  0  0  0  0  0  0  0  0  0  0  0
    9.6173  -16.5484   23.2851 C   0  0  0  0  0  0  0  0  0  0  0  0
   10.2580  -16.1790   24.3340 O   0  0  0  0  0  0  0  0  0  0  0  0
   10.1916  -17.5470   22.4726 N   0  0  0  0  0  0  0  0  0  0  0  0
   11.4007  -18.2760   22.9354 C   0  0  1  0  0  0  0  0  0  0  0  0
   11.1806  -19.7360   22.7254 C   0  0  0  0  0  0  0  0  0  0  0  0
   12.2777  -20.6489   23.0944 C   0  0  0  0  0  0  0  0  0  0  0  0
   12.1228  -22.1029   22.9360 C   0  0  0  0  0  0  0  0  0  0  0  0
   13.2473  -22.9622   23.4180 C   0  0  0  0  0  0  0  0  0  0  0  0
   13.3773  -22.9197   24.8326 N   0  0  0  0  0  0  0  0  0  0  0  0
   12.5892  -17.6621   22.3930 C   0  0  0  0  0  0  0  0  0  0  0  0
   13.8826  -17.7412   22.8777 O   0  0  0  0  0  0  0  0  0  0  0  0
   12.4813  -16.9403   21.3345 O   0  0  0  0  0  0  0  0  0  0  0  0
  2  1  1  0
  2  3  1  0
  3  4  1  1
  5  3  1  0
  5  6  1  1
  7  5  1  0
  8  7  2  0
 10  9  1  1
 10 12  1  0
 11 10  1  0
 12 13  1  1
 13  7  1  0
 14 12  1  0
 14 15  2  0
 16 14  1  0
 17 16  1  0
 17 18  1  6
 17 23  1  0
 19 18  1  0
 19 20  1  0
 21 20  1  0
 21 22  1  0
 23 25  2  0
 23 24  1  0
M  END
$$$$
