ITK.pdb
     RDKit          3D

 25 24  0  0  1  0  0  0  0  0999 V2000
    7.0273  -11.8524   19.5687 C   0  0  0  0  0  0  0  0  0  0  0  0
    8.0489  -12.8058   19.0178 C   0  0  0  0  0  0  0  0  0  0  0  0
    8.1702  -14.0693   19.8395 C   0  0  2  0  0  0  0  0  0  0  0  0
    8.4433  -13.8115   21.2846 C   0  0  0  0  0  0  0  0  0  0  0  0
    9.1991  -14.9923   19.2102 C   0  0  2  0  0  0  0  0  0  0  0  0
    8.8364  -15.1929   17.8434 N   0  0  0  0  0  0  0  0  0  0  0  0
    9.3318  -16.2407   19.9793 C   0  0  0  0  0  0  0  0  0  0  0  0
    8.4258  -17.1122   19.8174 O   0  0  0  0  0  0  0  0  0  0  0  0
   12.5244  -18.4044   20.1273 C   0  0  0  0  0  0  0  0  0  0  0  0
   11.9808  -18.2648   21.5196 C   0  0  1  0  0  0  0  0  0  0  0  0
   12.7283  -17.3112   22.1916 O   0  0  0  0  0  0  0  0  0  0  0  0
   10.5366  -17.8340   21.5305 C   0  0  2  0  0  0  0  0  0  0  0  0
   10.3693  -16.5458   20.8706 N   0  0  0  0  0  0  0  0  0  0  0  0
   10.0842  -17.6790   22.9397 C   0  0  0  0  0  0  0  0  0  0  0  0
    9.9613  -16.5055   23.4446 O   0  0  0  0  0  0  0  0  0  0  0  0
    9.7790  -18.7884   23.7543 N   0  0  0  0  0  0  0  0  0  0  0  0
    9.2079  -18.5793   25.1098 C   0  0  1  0  0  0  0  0  0  0  0  0
    8.2478  -19.6848   25.3931 C   0  0  0  0  0  0  0  0  0  0  0  0
    7.6627  -19.7474   26.7447 C   0  0  0  0  0  0  0  0  0  0  0  0
    6.7471  -20.8386   27.1108 C   0  0  0  0  0  0  0  0  0  0  0  0
    6.0537  -20.7293   28.4308 C   0  0  0  0  0  0  0  0  0  0  0  0
    5.1472  -21.8030   28.6432 N   0  0  0  0  0  0  0  0  0  0  0  0
   10.2629  -18.3083   26.0572 C   0  0  0  0  0  0  0  0  0  0  0  0
   10.1777  -17.6019   27.2437 O   0  0  0  0  0  0  0  0  0  0  0  0
   11.4433  -18.7526   25.8081 O   0  0  0  0  0  0  0  0  0  0  0  0
  2  1  1  0
  2  3  1  0
  3  4  1  1
  5  3  1  0
  5  6  1  6
  7  5  1  0
  8  7  2  0
 10  9  1  6
 10 12  1  0
 11 10  1  0
 12 13  1  6
 13  7  1  0
 14 12  1  0
 14 15  2  0
 16 14  1  0
 17 16  1  0
 17 18  1  1
 17 23  1  0
 19 18  1  0
 19 20  1  0
 21 20  1  0
 21 22  1  0
 23 25  2  0
 23 24  1  0
M  END
$$$$
