ITK.pdb
     RDKit          3D

 25 24  0  0  1  0  0  0  0  0999 V2000
    6.3989  -11.8411   27.3561 C   0  0  0  0  0  0  0  0  0  0  0  0
    6.4912  -12.3199   25.9354 C   0  0  0  0  0  0  0  0  0  0  0  0
    7.2463  -13.6236   25.8075 C   0  0  2  0  0  0  0  0  0  0  0  0
    8.5770  -13.6057   26.4845 C   0  0  0  0  0  0  0  0  0  0  0  0
    7.3454  -14.0161   24.3437 C   0  0  2  0  0  0  0  0  0  0  0  0
    6.0450  -13.8979   23.7648 N   0  0  0  0  0  0  0  0  0  0  0  0
    7.9437  -15.3529   24.1929 C   0  0  0  0  0  0  0  0  0  0  0  0
    7.2410  -16.3402   24.5644 O   0  0  0  0  0  0  0  0  0  0  0  0
    9.6429  -16.9548   21.0649 C   0  0  0  0  0  0  0  0  0  0  0  0
   10.5376  -17.1164   22.2594 C   0  0  1  0  0  0  0  0  0  0  0  0
   11.5287  -16.1499   22.2023 O   0  0  0  0  0  0  0  0  0  0  0  0
    9.7918  -16.9591   23.5596 C   0  0  2  0  0  0  0  0  0  0  0  0
    9.2176  -15.6251   23.6760 N   0  0  0  0  0  0  0  0  0  0  0  0
   10.7408  -17.1401   24.6915 C   0  0  0  0  0  0  0  0  0  0  0  0
   11.2844  -16.1140   25.2382 O   0  0  0  0  0  0  0  0  0  0  0  0
   11.0701  -18.4147   25.1958 N   0  0  0  0  0  0  0  0  0  0  0  0
   11.9538  -18.5373   26.3839 C   0  0  1  0  0  0  0  0  0  0  0  0
   11.3092  -19.4648   27.3577 C   0  0  0  0  0  0  0  0  0  0  0  0
   12.0835  -19.8388   28.5551 C   0  0  0  0  0  0  0  0  0  0  0  0
   11.5018  -20.7294   29.5708 C   0  0  0  0  0  0  0  0  0  0  0  0
   12.2673  -20.8991   30.8437 C   0  0  0  0  0  0  0  0  0  0  0  0
   11.6199  -21.7968   31.7352 N   0  0  0  0  0  0  0  0  0  0  0  0
   13.3126  -18.7923   25.9684 C   0  0  0  0  0  0  0  0  0  0  0  0
   14.4763  -18.5535   26.6775 O   0  0  0  0  0  0  0  0  0  0  0  0
   13.5159  -19.2970   24.8036 O   0  0  0  0  0  0  0  0  0  0  0  0
  2  1  1  0
  2  3  1  0
  3  4  1  6
  5  3  1  0
  5  6  1  1
  7  5  1  0
  8  7  2  0
 10  9  1  6
 10 12  1  0
 11 10  1  0
 12 13  1  6
 13  7  1  0
 14 12  1  0
 14 15  2  0
 16 14  1  0
 17 16  1  0
 17 18  1  1
 17 23  1  0
 19 18  1  0
 19 20  1  0
 21 20  1  0
 21 22  1  0
 23 25  2  0
 23 24  1  0
M  END
$$$$
