PHP.pdb
     RDKit          3D

 25 27  0  0  1  0  0  0  0  0999 V2000
   28.0875  -21.0726  -14.9673 N   0  0  0  0  0  0  0  0  0  0  0  0
   28.6663  -21.2171  -16.3105 C   0  0  0  0  0  0  0  0  0  0  0  0
   27.9696  -20.1134  -17.1133 C   0  0  0  0  0  0  0  0  0  0  0  0
   27.3819  -19.1755  -16.0492 C   0  0  0  0  0  0  0  0  0  0  0  0
   28.1138  -19.6165  -14.8336 C   0  0  1  0  0  0  0  0  0  0  0  0
   27.5453  -19.1858  -13.5506 C   0  0  0  0  0  0  0  0  0  0  0  0
   27.3036  -17.9453  -13.3400 O   0  0  0  0  0  0  0  0  0  0  0  0
   27.2715  -20.1649  -12.5630 N   0  0  0  0  0  0  0  0  0  0  0  0
   26.1540  -19.9797  -11.6199 C   0  0  1  0  0  0  0  0  0  0  0  0
   24.9434  -20.6951  -12.1893 C   0  0  0  0  0  0  0  0  0  0  0  0
   23.7445  -20.4116  -11.3736 C   0  0  0  0  0  0  0  0  0  0  0  0
   22.6220  -19.7033  -11.7039 C   0  0  0  0  0  0  0  0  0  0  0  0
   21.7173  -19.7850  -10.6819 N   0  0  0  0  0  0  0  0  0  0  0  0
   22.2668  -20.5366   -9.7247 C   0  0  0  0  0  0  0  0  0  0  0  0
   23.4758  -20.9112  -10.1362 N   0  0  0  0  0  0  0  0  0  0  0  0
   26.4919  -20.6752  -10.3682 C   0  0  0  0  0  0  0  0  0  0  0  0
   26.5130  -21.9524  -10.3586 O   0  0  0  0  0  0  0  0  0  0  0  0
   26.7980  -20.0569   -9.1624 N   0  0  0  0  0  0  0  0  0  0  0  0
   26.8119  -18.6505   -8.8653 C   0  0  0  0  0  0  0  0  0  0  0  0
   26.3244  -18.6798   -7.3872 C   0  0  0  0  0  0  0  0  0  0  0  0
   27.3442  -19.6950   -6.8816 C   0  0  0  0  0  0  0  0  0  0  0  0
   27.1377  -20.7892   -7.8998 C   0  0  1  0  0  0  0  0  0  0  0  0
   25.9975  -21.6253   -7.4943 C   0  0  0  0  0  0  0  0  0  0  0  0
   26.1264  -22.6333   -6.5568 O   0  0  0  0  0  0  0  0  0  0  0  0
   24.8721  -21.4286   -8.0056 O   0  0  0  0  0  0  0  0  0  0  0  0
  1  2  1  0
  3  2  1  0
  4  5  1  0
  4  3  1  0
  5  1  1  0
  5  6  1  1
  6  7  2  0
  8  6  1  0
  8  9  1  0
  9 16  1  0
  9 10  1  6
 10 11  1  0
 11 12  2  0
 11 15  1  0
 12 13  1  0
 13 14  1  0
 15 14  2  0
 16 17  2  0
 18 16  1  0
 18 22  1  0
 19 18  1  0
 20 19  1  0
 20 21  1  0
 21 22  1  0
 22 23  1  1
 23 25  2  0
 23 24  1  0
M  END
$$$$
