PHP.pdb
     RDKit          3D

 25 27  0  0  1  0  0  0  0  0999 V2000
   25.9925  -23.6068  -16.4039 N   0  0  0  0  0  0  0  0  0  0  0  0
   26.5589  -24.4080  -17.4981 C   0  0  0  0  0  0  0  0  0  0  0  0
   26.9240  -23.3558  -18.5505 C   0  0  0  0  0  0  0  0  0  0  0  0
   26.9255  -22.0266  -17.7822 C   0  0  0  0  0  0  0  0  0  0  0  0
   26.9502  -22.5019  -16.3747 C   0  0  1  0  0  0  0  0  0  0  0  0
   26.5912  -21.5084  -15.3553 C   0  0  0  0  0  0  0  0  0  0  0  0
   27.3661  -20.5136  -15.1280 O   0  0  0  0  0  0  0  0  0  0  0  0
   25.3795  -21.6738  -14.6388 N   0  0  0  0  0  0  0  0  0  0  0  0
   24.9057  -20.6203  -13.7233 C   0  0  1  0  0  0  0  0  0  0  0  0
   23.5183  -20.2039  -14.1740 C   0  0  0  0  0  0  0  0  0  0  0  0
   23.5919  -19.4468  -15.4408 C   0  0  0  0  0  0  0  0  0  0  0  0
   24.5677  -18.5974  -15.8847 C   0  0  0  0  0  0  0  0  0  0  0  0
   24.2777  -18.2014  -17.1610 N   0  0  0  0  0  0  0  0  0  0  0  0
   23.1353  -18.7971  -17.5114 C   0  0  0  0  0  0  0  0  0  0  0  0
   22.7254  -19.5405  -16.4864 N   0  0  0  0  0  0  0  0  0  0  0  0
   24.7431  -21.2147  -12.3872 C   0  0  0  0  0  0  0  0  0  0  0  0
   24.1174  -22.3229  -12.2772 O   0  0  0  0  0  0  0  0  0  0  0  0
   25.2184  -20.6690  -11.2014 N   0  0  0  0  0  0  0  0  0  0  0  0
   26.0314  -19.4962  -11.0280 C   0  0  0  0  0  0  0  0  0  0  0  0
   25.4592  -18.9652   -9.6811 C   0  0  0  0  0  0  0  0  0  0  0  0
   25.6116  -20.2642   -8.8964 C   0  0  0  0  0  0  0  0  0  0  0  0
   24.9118  -21.2123   -9.8388 C   0  0  1  0  0  0  0  0  0  0  0  0
   23.4613  -21.1552   -9.6016 C   0  0  0  0  0  0  0  0  0  0  0  0
   22.8580  -21.8689   -8.5827 O   0  0  0  0  0  0  0  0  0  0  0  0
   22.7408  -20.4433  -10.3370 O   0  0  0  0  0  0  0  0  0  0  0  0
  1  2  1  0
  3  2  1  0
  4  5  1  0
  4  3  1  0
  5  1  1  0
  5  6  1  1
  6  7  2  0
  8  6  1  0
  8  9  1  0
  9 16  1  0
  9 10  1  6
 10 11  1  0
 11 12  2  0
 11 15  1  0
 12 13  1  0
 13 14  1  0
 15 14  2  0
 16 17  2  0
 18 16  1  0
 18 22  1  0
 19 18  1  0
 20 19  1  0
 20 21  1  0
 21 22  1  0
 22 23  1  1
 23 25  2  0
 23 24  1  0
M  END
$$$$
