PHP.pdb
     RDKit          3D

 25 27  0  0  1  0  0  0  0  0999 V2000
   28.4993  -21.3384  -18.8732 N   0  0  0  0  0  0  0  0  0  0  0  0
   29.5410  -21.5646  -19.8850 C   0  0  0  0  0  0  0  0  0  0  0  0
   29.8262  -20.1558  -20.4158 C   0  0  0  0  0  0  0  0  0  0  0  0
   29.2293  -19.2171  -19.3576 C   0  0  0  0  0  0  0  0  0  0  0  0
   29.0369  -20.1479  -18.2155 C   0  0  1  0  0  0  0  0  0  0  0  0
   28.1466  -19.6777  -17.1472 C   0  0  0  0  0  0  0  0  0  0  0  0
   28.5283  -18.7423  -16.3592 O   0  0  0  0  0  0  0  0  0  0  0  0
   26.8686  -20.2755  -17.0121 N   0  0  0  0  0  0  0  0  0  0  0  0
   25.8838  -19.7224  -16.0651 C   0  0  1  0  0  0  0  0  0  0  0  0
   24.5847  -19.5092  -16.8190 C   0  0  0  0  0  0  0  0  0  0  0  0
   23.5641  -18.9133  -15.9321 C   0  0  0  0  0  0  0  0  0  0  0  0
   23.1349  -17.6169  -15.8569 C   0  0  0  0  0  0  0  0  0  0  0  0
   22.0985  -17.5332  -14.9688 N   0  0  0  0  0  0  0  0  0  0  0  0
   21.8814  -18.7628  -14.4955 C   0  0  0  0  0  0  0  0  0  0  0  0
   22.7547  -19.5869  -15.0695 N   0  0  0  0  0  0  0  0  0  0  0  0
   25.6047  -20.7460  -15.0457 C   0  0  0  0  0  0  0  0  0  0  0  0
   25.1505  -21.8801  -15.4187 O   0  0  0  0  0  0  0  0  0  0  0  0
   25.7932  -20.5908  -13.6782 N   0  0  0  0  0  0  0  0  0  0  0  0
   26.2758  -19.4335  -12.9751 C   0  0  0  0  0  0  0  0  0  0  0  0
   25.4393  -19.5417  -11.6666 C   0  0  0  0  0  0  0  0  0  0  0  0
   25.8051  -20.9855  -11.3382 C   0  0  0  0  0  0  0  0  0  0  0  0
   25.4681  -21.6377  -12.6564 C   0  0  1  0  0  0  0  0  0  0  0  0
   24.0285  -21.9368  -12.6997 C   0  0  0  0  0  0  0  0  0  0  0  0
   23.4841  -23.0123  -12.0226 O   0  0  0  0  0  0  0  0  0  0  0  0
   23.2632  -21.2037  -13.3657 O   0  0  0  0  0  0  0  0  0  0  0  0
  1  2  1  0
  3  2  1  0
  4  5  1  0
  4  3  1  0
  5  1  1  0
  5  6  1  1
  6  7  2  0
  8  6  1  0
  8  9  1  0
  9 16  1  0
  9 10  1  6
 10 11  1  0
 11 12  2  0
 11 15  1  0
 12 13  1  0
 13 14  1  0
 15 14  2  0
 16 17  2  0
 18 16  1  0
 18 22  1  0
 19 18  1  0
 20 19  1  0
 20 21  1  0
 21 22  1  0
 22 23  1  1
 23 25  2  0
 23 24  1  0
M  END
$$$$
