PHP.pdb
     RDKit          3D

 25 27  0  0  1  0  0  0  0  0999 V2000
   27.1559  -21.4485  -16.0469 N   0  0  0  0  0  0  0  0  0  0  0  0
   28.0842  -21.6212  -17.1731 C   0  0  0  0  0  0  0  0  0  0  0  0
   28.0554  -20.2540  -17.8643 C   0  0  0  0  0  0  0  0  0  0  0  0
   27.4460  -19.3073  -16.8205 C   0  0  0  0  0  0  0  0  0  0  0  0
   27.5614  -20.1220  -15.5833 C   0  0  1  0  0  0  0  0  0  0  0  0
   26.7465  -19.6798  -14.4451 C   0  0  0  0  0  0  0  0  0  0  0  0
   26.8334  -18.4728  -14.0243 O   0  0  0  0  0  0  0  0  0  0  0  0
   25.8698  -20.6097  -13.8320 N   0  0  0  0  0  0  0  0  0  0  0  0
   24.9688  -20.1805  -12.7473 C   0  0  1  0  0  0  0  0  0  0  0  0
   23.5753  -20.6816  -13.0766 C   0  0  0  0  0  0  0  0  0  0  0  0
   22.9869  -19.8881  -14.1754 C   0  0  0  0  0  0  0  0  0  0  0  0
   22.1238  -18.8291  -14.1108 C   0  0  0  0  0  0  0  0  0  0  0  0
   21.9238  -18.3299  -15.3681 N   0  0  0  0  0  0  0  0  0  0  0  0
   22.6542  -19.0670  -16.2084 C   0  0  0  0  0  0  0  0  0  0  0  0
   23.2889  -19.9966  -15.4982 N   0  0  0  0  0  0  0  0  0  0  0  0
   25.3747  -20.8736  -11.5146 C   0  0  0  0  0  0  0  0  0  0  0  0
   25.4067  -22.1506  -11.5070 O   0  0  0  0  0  0  0  0  0  0  0  0
   25.7357  -20.2532  -10.3253 N   0  0  0  0  0  0  0  0  0  0  0  0
   25.9735  -18.8549  -10.0909 C   0  0  0  0  0  0  0  0  0  0  0  0
   25.4346  -18.7274   -8.6361 C   0  0  0  0  0  0  0  0  0  0  0  0
   26.2514  -19.8696   -8.0409 C   0  0  0  0  0  0  0  0  0  0  0  0
   25.9022  -20.9656   -9.0173 C   0  0  1  0  0  0  0  0  0  0  0  0
   24.6244  -21.5801   -8.6259 C   0  0  0  0  0  0  0  0  0  0  0  0
   24.5562  -22.5884   -7.6825 O   0  0  0  0  0  0  0  0  0  0  0  0
   23.5603  -21.1874   -9.1552 O   0  0  0  0  0  0  0  0  0  0  0  0
  1  2  1  0
  3  2  1  0
  4  5  1  0
  4  3  1  0
  5  1  1  0
  5  6  1  1
  6  7  2  0
  8  6  1  0
  8  9  1  0
  9 16  1  0
  9 10  1  6
 10 11  1  0
 11 12  2  0
 11 15  1  0
 12 13  1  0
 13 14  1  0
 15 14  2  0
 16 17  2  0
 18 16  1  0
 18 22  1  0
 19 18  1  0
 20 19  1  0
 20 21  1  0
 21 22  1  0
 22 23  1  1
 23 25  2  0
 23 24  1  0
M  END
$$$$
