PHP.pdb
     RDKit          3D

 25 27  0  0  1  0  0  0  0  0999 V2000
   26.8093  -20.9817  -12.0380 N   0  0  0  0  0  0  0  0  0  0  0  0
   27.8193  -21.0082  -10.9707 C   0  0  0  0  0  0  0  0  0  0  0  0
   29.1287  -20.7408  -11.7202 C   0  0  0  0  0  0  0  0  0  0  0  0
   28.6876  -20.1645  -13.0731 C   0  0  0  0  0  0  0  0  0  0  0  0
   27.2694  -19.8186  -12.7957 C   0  0  1  0  0  0  0  0  0  0  0  0
   26.4256  -19.5775  -13.9725 C   0  0  0  0  0  0  0  0  0  0  0  0
   26.5582  -18.4959  -14.6464 O   0  0  0  0  0  0  0  0  0  0  0  0
   25.4733  -20.5603  -14.3416 N   0  0  0  0  0  0  0  0  0  0  0  0
   24.6497  -20.3824  -15.5510 C   0  0  1  0  0  0  0  0  0  0  0  0
   24.2910  -21.7603  -16.0746 C   0  0  0  0  0  0  0  0  0  0  0  0
   23.4783  -21.6508  -17.3037 C   0  0  0  0  0  0  0  0  0  0  0  0
   22.2279  -22.1425  -17.5598 C   0  0  0  0  0  0  0  0  0  0  0  0
   21.8151  -21.7126  -18.7905 N   0  0  0  0  0  0  0  0  0  0  0  0
   22.7949  -20.9601  -19.2971 C   0  0  0  0  0  0  0  0  0  0  0  0
   23.7873  -20.9222  -18.4112 N   0  0  0  0  0  0  0  0  0  0  0  0
   23.3820  -19.7510  -15.1520 C   0  0  0  0  0  0  0  0  0  0  0  0
   22.7821  -20.1778  -14.1081 O   0  0  0  0  0  0  0  0  0  0  0  0
   22.7584  -18.7062  -15.8224 N   0  0  0  0  0  0  0  0  0  0  0  0
   23.2070  -18.0150  -17.0003 C   0  0  0  0  0  0  0  0  0  0  0  0
   21.8385  -17.7241  -17.6828 C   0  0  0  0  0  0  0  0  0  0  0  0
   21.1728  -17.0669  -16.4782 C   0  0  0  0  0  0  0  0  0  0  0  0
   21.4306  -18.1280  -15.4369 C   0  0  1  0  0  0  0  0  0  0  0  0
   20.3950  -19.1682  -15.5323 C   0  0  0  0  0  0  0  0  0  0  0  0
   19.1425  -19.0073  -14.9692 O   0  0  0  0  0  0  0  0  0  0  0  0
   20.6423  -20.2351  -16.1383 O   0  0  0  0  0  0  0  0  0  0  0  0
  1  2  1  0
  3  2  1  0
  4  5  1  0
  4  3  1  0
  5  1  1  0
  5  6  1  6
  6  7  2  0
  8  6  1  0
  8  9  1  0
  9 16  1  0
  9 10  1  1
 10 11  1  0
 11 12  2  0
 11 15  1  0
 12 13  1  0
 13 14  1  0
 15 14  2  0
 16 17  2  0
 18 16  1  0
 18 22  1  0
 19 18  1  0
 20 19  1  0
 20 21  1  0
 21 22  1  0
 22 23  1  6
 23 25  2  0
 23 24  1  0
M  END
$$$$
