PHP.pdb
     RDKit          3D

 25 27  0  0  1  0  0  0  0  0999 V2000
   25.4759  -18.9642  -18.2636 N   0  0  0  0  0  0  0  0  0  0  0  0
   26.4581  -18.8211  -19.3474 C   0  0  0  0  0  0  0  0  0  0  0  0
   27.2259  -17.5529  -18.9598 C   0  0  0  0  0  0  0  0  0  0  0  0
   26.8919  -17.3384  -17.4767 C   0  0  0  0  0  0  0  0  0  0  0  0
   26.3227  -18.6611  -17.1104 C   0  0  1  0  0  0  0  0  0  0  0  0
   25.5586  -18.7064  -15.8578 C   0  0  0  0  0  0  0  0  0  0  0  0
   24.7427  -17.7616  -15.5694 O   0  0  0  0  0  0  0  0  0  0  0  0
   25.7419  -19.8094  -14.9867 N   0  0  0  0  0  0  0  0  0  0  0  0
   24.9962  -19.8885  -13.7177 C   0  0  1  0  0  0  0  0  0  0  0  0
   23.8298  -20.8363  -13.9237 C   0  0  0  0  0  0  0  0  0  0  0  0
   22.7725  -20.1880  -14.7268 C   0  0  0  0  0  0  0  0  0  0  0  0
   22.3982  -20.4301  -16.0198 C   0  0  0  0  0  0  0  0  0  0  0  0
   21.3017  -19.6718  -16.3240 N   0  0  0  0  0  0  0  0  0  0  0  0
   20.9933  -18.9651  -15.2338 C   0  0  0  0  0  0  0  0  0  0  0  0
   21.8695  -19.2723  -14.2804 N   0  0  0  0  0  0  0  0  0  0  0  0
   25.8673  -20.5200  -12.7141 C   0  0  0  0  0  0  0  0  0  0  0  0
   26.6411  -21.4687  -13.0785 O   0  0  0  0  0  0  0  0  0  0  0  0
   25.9287  -20.1726  -11.3704 N   0  0  0  0  0  0  0  0  0  0  0  0
   25.1494  -19.1865  -10.6727 C   0  0  0  0  0  0  0  0  0  0  0  0
   25.0125  -19.8794   -9.2855 C   0  0  0  0  0  0  0  0  0  0  0  0
   26.4993  -20.1401   -9.0672 C   0  0  0  0  0  0  0  0  0  0  0  0
   26.8287  -20.8295  -10.3682 C   0  0  1  0  0  0  0  0  0  0  0  0
   26.4899  -22.2571  -10.2644 C   0  0  0  0  0  0  0  0  0  0  0  0
   27.3988  -23.1933   -9.8071 O   0  0  0  0  0  0  0  0  0  0  0  0
   25.3485  -22.6488  -10.5966 O   0  0  0  0  0  0  0  0  0  0  0  0
  1  2  1  0
  3  2  1  0
  4  5  1  0
  4  3  1  0
  5  1  1  0
  5  6  1  1
  6  7  2  0
  8  6  1  0
  8  9  1  0
  9 16  1  0
  9 10  1  6
 10 11  1  0
 11 12  2  0
 11 15  1  0
 12 13  1  0
 13 14  1  0
 15 14  2  0
 16 17  2  0
 18 16  1  0
 18 22  1  0
 19 18  1  0
 20 19  1  0
 20 21  1  0
 21 22  1  0
 22 23  1  1
 23 25  2  0
 23 24  1  0
M  END
$$$$
