PHP.pdb
     RDKit          3D

 25 27  0  0  1  0  0  0  0  0999 V2000
   44.9184  -28.1996   -9.1955 N   0  0  0  0  0  0  0  0  0  0  0  0
   45.1326  -28.3792  -10.6384 C   0  0  0  0  0  0  0  0  0  0  0  0
   46.3146  -29.3524  -10.6990 C   0  0  0  0  0  0  0  0  0  0  0  0
   46.3824  -29.9645   -9.2926 C   0  0  0  0  0  0  0  0  0  0  0  0
   45.0554  -29.5836   -8.7432 C   0  0  1  0  0  0  0  0  0  0  0  0
   44.9100  -29.6881   -7.2862 C   0  0  0  0  0  0  0  0  0  0  0  0
   44.5873  -28.6566   -6.5980 O   0  0  0  0  0  0  0  0  0  0  0  0
   45.1304  -30.9440   -6.6672 N   0  0  0  0  0  0  0  0  0  0  0  0
   45.0770  -31.0708   -5.1996 C   0  0  1  0  0  0  0  0  0  0  0  0
   44.1623  -32.2347   -4.8678 C   0  0  0  0  0  0  0  0  0  0  0  0
   43.0587  -31.7912   -3.9911 C   0  0  0  0  0  0  0  0  0  0  0  0
   42.7622  -30.5330   -3.5440 C   0  0  0  0  0  0  0  0  0  0  0  0
   41.5890  -30.5660   -2.8425 N   0  0  0  0  0  0  0  0  0  0  0  0
   41.1564  -31.8292   -2.8521 C   0  0  0  0  0  0  0  0  0  0  0  0
   42.0319  -32.5609   -3.5371 N   0  0  0  0  0  0  0  0  0  0  0  0
   46.4165  -31.4517   -4.7246 C   0  0  0  0  0  0  0  0  0  0  0  0
   47.0745  -32.3320   -5.3756 O   0  0  0  0  0  0  0  0  0  0  0  0
   47.0501  -30.9305   -3.6036 N   0  0  0  0  0  0  0  0  0  0  0  0
   46.5465  -29.9585   -2.6718 C   0  0  0  0  0  0  0  0  0  0  0  0
   47.1974  -30.4791   -1.3571 C   0  0  0  0  0  0  0  0  0  0  0  0
   48.6301  -30.5384   -1.8769 C   0  0  0  0  0  0  0  0  0  0  0  0
   48.4103  -31.3466   -3.1319 C   0  0  1  0  0  0  0  0  0  0  0  0
   48.3972  -32.7784   -2.7951 C   0  0  0  0  0  0  0  0  0  0  0  0
   49.5639  -33.5006   -2.6250 O   0  0  0  0  0  0  0  0  0  0  0  0
   47.3042  -33.3721   -2.6557 O   0  0  0  0  0  0  0  0  0  0  0  0
  1  2  1  0
  3  2  1  0
  4  5  1  0
  4  3  1  0
  5  1  1  0
  5  6  1  1
  6  7  2  0
  8  6  1  0
  8  9  1  0
  9 16  1  0
  9 10  1  6
 10 11  1  0
 11 12  2  0
 11 15  1  0
 12 13  1  0
 13 14  1  0
 15 14  2  0
 16 17  2  0
 18 16  1  0
 18 22  1  0
 19 18  1  0
 20 19  1  0
 20 21  1  0
 21 22  1  0
 22 23  1  1
 23 25  2  0
 23 24  1  0
M  END
$$$$
