PHP.pdb
     RDKit          3D

 25 27  0  0  1  0  0  0  0  0999 V2000
   25.7659  -18.1593  -16.2921 N   0  0  0  0  0  0  0  0  0  0  0  0
   25.5710  -17.3151  -17.4793 C   0  0  0  0  0  0  0  0  0  0  0  0
   24.5249  -18.0869  -18.2905 C   0  0  0  0  0  0  0  0  0  0  0  0
   23.9120  -19.0750  -17.2880 C   0  0  0  0  0  0  0  0  0  0  0  0
   24.3767  -18.5074  -15.9959 C   0  0  1  0  0  0  0  0  0  0  0  0
   24.2839  -19.3984  -14.8329 C   0  0  0  0  0  0  0  0  0  0  0  0
   23.1365  -19.7417  -14.3777 O   0  0  0  0  0  0  0  0  0  0  0  0
   25.4808  -19.8658  -14.2346 N   0  0  0  0  0  0  0  0  0  0  0  0
   25.4303  -20.8398  -13.1295 C   0  0  1  0  0  0  0  0  0  0  0  0
   26.3359  -22.0012  -13.4933 C   0  0  0  0  0  0  0  0  0  0  0  0
   25.6820  -22.8742  -14.4901 C   0  0  0  0  0  0  0  0  0  0  0  0
   24.8780  -23.9625  -14.2907 C   0  0  0  0  0  0  0  0  0  0  0  0
   24.4054  -24.4038  -15.4956 N   0  0  0  0  0  0  0  0  0  0  0  0
   24.9066  -23.6002  -16.4368 C   0  0  0  0  0  0  0  0  0  0  0  0
   25.6680  -22.6872  -15.8383 N   0  0  0  0  0  0  0  0  0  0  0  0
   26.0245  -20.2118  -11.9390 C   0  0  0  0  0  0  0  0  0  0  0  0
   27.1061  -19.5448  -12.0685 O   0  0  0  0  0  0  0  0  0  0  0  0
   25.5062  -20.2784  -10.6519 N   0  0  0  0  0  0  0  0  0  0  0  0
   24.3249  -20.9655  -10.2058 C   0  0  0  0  0  0  0  0  0  0  0  0
   24.7881  -21.4103   -8.7877 C   0  0  0  0  0  0  0  0  0  0  0  0
   25.2395  -20.0353   -8.3064 C   0  0  0  0  0  0  0  0  0  0  0  0
   26.1462  -19.6523   -9.4500 C   0  0  1  0  0  0  0  0  0  0  0  0
   27.4766  -20.2426   -9.2378 C   0  0  0  0  0  0  0  0  0  0  0  0
   27.8585  -21.4236   -9.8469 O   0  0  0  0  0  0  0  0  0  0  0  0
   28.2963  -19.6687   -8.4859 O   0  0  0  0  0  0  0  0  0  0  0  0
  1  2  1  0
  3  2  1  0
  4  5  1  0
  4  3  1  0
  5  1  1  0
  5  6  1  1
  6  7  2  0
  8  6  1  0
  8  9  1  0
  9 16  1  0
  9 10  1  6
 10 11  1  0
 11 12  2  0
 11 15  1  0
 12 13  1  0
 13 14  1  0
 15 14  2  0
 16 17  2  0
 18 16  1  0
 18 22  1  0
 19 18  1  0
 20 19  1  0
 20 21  1  0
 21 22  1  0
 22 23  1  1
 23 25  2  0
 23 24  1  0
M  END
$$$$
