PHP.pdb
     RDKit          3D

 25 27  0  0  1  0  0  0  0  0999 V2000
   27.4588  -21.9994  -16.5857 N   0  0  0  0  0  0  0  0  0  0  0  0
   28.5110  -22.3487  -17.5506 C   0  0  0  0  0  0  0  0  0  0  0  0
   28.5909  -21.1084  -18.4467 C   0  0  0  0  0  0  0  0  0  0  0  0
   27.8801  -20.0080  -17.6460 C   0  0  0  0  0  0  0  0  0  0  0  0
   27.8319  -20.6164  -16.2912 C   0  0  1  0  0  0  0  0  0  0  0  0
   26.8962  -19.9991  -15.3434 C   0  0  0  0  0  0  0  0  0  0  0  0
   27.0655  -18.7840  -14.9738 O   0  0  0  0  0  0  0  0  0  0  0  0
   25.8123  -20.7708  -14.8548 N   0  0  0  0  0  0  0  0  0  0  0  0
   24.8060  -20.1628  -13.9657 C   0  0  1  0  0  0  0  0  0  0  0  0
   23.4522  -20.2986  -14.6365 C   0  0  0  0  0  0  0  0  0  0  0  0
   23.3965  -19.4725  -15.8604 C   0  0  0  0  0  0  0  0  0  0  0  0
   23.2763  -19.8667  -17.1645 C   0  0  0  0  0  0  0  0  0  0  0  0
   23.1567  -18.7627  -17.9626 N   0  0  0  0  0  0  0  0  0  0  0  0
   23.2002  -17.6914  -17.1668 C   0  0  0  0  0  0  0  0  0  0  0  0
   23.3428  -18.1134  -15.9127 N   0  0  0  0  0  0  0  0  0  0  0  0
   24.7380  -20.9665  -12.7352 C   0  0  0  0  0  0  0  0  0  0  0  0
   24.3157  -22.1699  -12.8070 O   0  0  0  0  0  0  0  0  0  0  0  0
   25.0989  -20.5276  -11.4675 N   0  0  0  0  0  0  0  0  0  0  0  0
   25.7736  -19.3098  -11.1093 C   0  0  0  0  0  0  0  0  0  0  0  0
   25.0884  -19.0107   -9.7439 C   0  0  0  0  0  0  0  0  0  0  0  0
   25.3433  -20.3752   -9.1120 C   0  0  0  0  0  0  0  0  0  0  0  0
   24.7915  -21.2642  -10.1991 C   0  0  1  0  0  0  0  0  0  0  0  0
   23.3340  -21.3830  -10.0404 C   0  0  0  0  0  0  0  0  0  0  0  0
   22.7659  -22.2560   -9.1312 O   0  0  0  0  0  0  0  0  0  0  0  0
   22.5747  -20.6786  -10.7433 O   0  0  0  0  0  0  0  0  0  0  0  0
  1  2  1  0
  3  2  1  0
  4  5  1  0
  4  3  1  0
  5  1  1  0
  5  6  1  1
  6  7  2  0
  8  6  1  0
  8  9  1  0
  9 16  1  0
  9 10  1  6
 10 11  1  0
 11 12  2  0
 11 15  1  0
 12 13  1  0
 13 14  1  0
 15 14  2  0
 16 17  2  0
 18 16  1  0
 18 22  1  0
 19 18  1  0
 20 19  1  0
 20 21  1  0
 21 22  1  0
 22 23  1  1
 23 25  2  0
 23 24  1  0
M  END
$$$$
