PHP.pdb
     RDKit          3D

 25 27  0  0  1  0  0  0  0  0999 V2000
   27.2131  -19.9897  -17.5925 N   0  0  0  0  0  0  0  0  0  0  0  0
   28.3276  -19.9810  -18.5506 C   0  0  0  0  0  0  0  0  0  0  0  0
   28.5475  -18.4885  -18.8191 C   0  0  0  0  0  0  0  0  0  0  0  0
   27.8244  -17.7788  -17.6656 C   0  0  0  0  0  0  0  0  0  0  0  0
   27.6269  -18.8993  -16.7101 C   0  0  1  0  0  0  0  0  0  0  0  0
   26.6430  -18.6690  -15.6452 C   0  0  0  0  0  0  0  0  0  0  0  0
   26.8308  -17.7340  -14.7895 O   0  0  0  0  0  0  0  0  0  0  0  0
   25.4928  -19.4954  -15.5891 N   0  0  0  0  0  0  0  0  0  0  0  0
   24.4517  -19.2550  -14.5738 C   0  0  1  0  0  0  0  0  0  0  0  0
   23.1154  -19.1823  -15.2882 C   0  0  0  0  0  0  0  0  0  0  0  0
   23.0463  -17.9724  -16.1335 C   0  0  0  0  0  0  0  0  0  0  0  0
   22.8608  -16.6688  -15.7634 C   0  0  0  0  0  0  0  0  0  0  0  0
   22.9726  -15.8648  -16.8638 N   0  0  0  0  0  0  0  0  0  0  0  0
   23.2264  -16.6560  -17.9091 C   0  0  0  0  0  0  0  0  0  0  0  0
   23.2709  -17.9132  -17.4747 N   0  0  0  0  0  0  0  0  0  0  0  0
   24.3862  -20.4353  -13.6977 C   0  0  0  0  0  0  0  0  0  0  0  0
   24.1522  -21.5779  -14.2187 O   0  0  0  0  0  0  0  0  0  0  0  0
   24.5590  -20.4238  -12.3194 N   0  0  0  0  0  0  0  0  0  0  0  0
   24.8699  -19.3037  -11.4738 C   0  0  0  0  0  0  0  0  0  0  0  0
   24.0676  -19.6946  -10.1983 C   0  0  0  0  0  0  0  0  0  0  0  0
   24.6450  -21.0979  -10.0457 C   0  0  0  0  0  0  0  0  0  0  0  0
   24.3992  -21.6252  -11.4378 C   0  0  1  0  0  0  0  0  0  0  0  0
   23.0194  -22.1258  -11.5343 C   0  0  0  0  0  0  0  0  0  0  0  0
   22.6694  -23.3930  -11.1062 O   0  0  0  0  0  0  0  0  0  0  0  0
   22.1266  -21.3927  -12.0162 O   0  0  0  0  0  0  0  0  0  0  0  0
  1  2  1  0
  3  2  1  0
  4  5  1  0
  4  3  1  0
  5  1  1  0
  5  6  1  1
  6  7  2  0
  8  6  1  0
  8  9  1  0
  9 16  1  0
  9 10  1  6
 10 11  1  0
 11 12  2  0
 11 15  1  0
 12 13  1  0
 13 14  1  0
 15 14  2  0
 16 17  2  0
 18 16  1  0
 18 22  1  0
 19 18  1  0
 20 19  1  0
 20 21  1  0
 21 22  1  0
 22 23  1  1
 23 25  2  0
 23 24  1  0
M  END
$$$$
