PHP.pdb
     RDKit          3D

 25 27  0  0  1  0  0  0  0  0999 V2000
   40.8247  -29.8638    4.6343 N   0  0  0  0  0  0  0  0  0  0  0  0
   42.1008  -30.5875    4.5464 C   0  0  0  0  0  0  0  0  0  0  0  0
   42.4692  -30.4702    3.0637 C   0  0  0  0  0  0  0  0  0  0  0  0
   41.5872  -29.3294    2.5366 C   0  0  0  0  0  0  0  0  0  0  0  0
   41.1338  -28.7002    3.8040 C   0  0  1  0  0  0  0  0  0  0  0  0
   39.9812  -27.7976    3.6961 C   0  0  0  0  0  0  0  0  0  0  0  0
   40.0456  -26.7617    2.9447 O   0  0  0  0  0  0  0  0  0  0  0  0
   38.8084  -28.0980    4.4331 N   0  0  0  0  0  0  0  0  0  0  0  0
   37.6092  -27.2508    4.3030 C   0  0  1  0  0  0  0  0  0  0  0  0
   36.3994  -28.1644    4.2516 C   0  0  0  0  0  0  0  0  0  0  0  0
   36.4426  -29.0119    3.0420 C   0  0  0  0  0  0  0  0  0  0  0  0
   37.3712  -29.0388    2.0382 C   0  0  0  0  0  0  0  0  0  0  0  0
   37.0731  -30.0541    1.1721 N   0  0  0  0  0  0  0  0  0  0  0  0
   35.9723  -30.6556    1.6296 C   0  0  0  0  0  0  0  0  0  0  0  0
   35.5954  -30.0351    2.7450 N   0  0  0  0  0  0  0  0  0  0  0  0
   37.4740  -26.4576    5.5349 C   0  0  0  0  0  0  0  0  0  0  0  0
   37.8508  -26.9699    6.6427 O   0  0  0  0  0  0  0  0  0  0  0  0
   36.9603  -25.1690    5.6088 N   0  0  0  0  0  0  0  0  0  0  0  0
   36.3806  -24.3834    4.5537 C   0  0  0  0  0  0  0  0  0  0  0  0
   35.2943  -23.6093    5.3562 C   0  0  0  0  0  0  0  0  0  0  0  0
   36.2208  -23.0741    6.4431 C   0  0  0  0  0  0  0  0  0  0  0  0
   36.8809  -24.3622    6.8693 C   0  0  1  0  0  0  0  0  0  0  0  0
   36.0211  -25.0535    7.8422 C   0  0  0  0  0  0  0  0  0  0  0  0
   36.0686  -24.7666    9.1939 O   0  0  0  0  0  0  0  0  0  0  0  0
   35.2186  -25.9292    7.4476 O   0  0  0  0  0  0  0  0  0  0  0  0
  1  2  1  0
  3  2  1  0
  4  5  1  0
  4  3  1  0
  5  1  1  0
  5  6  1  6
  6  7  2  0
  8  6  1  0
  8  9  1  0
  9 16  1  0
  9 10  1  1
 10 11  1  0
 11 12  2  0
 11 15  1  0
 12 13  1  0
 13 14  1  0
 15 14  2  0
 16 17  2  0
 18 16  1  0
 18 22  1  0
 19 18  1  0
 20 19  1  0
 20 21  1  0
 21 22  1  0
 22 23  1  1
 23 25  2  0
 23 24  1  0
M  END
$$$$
