WLL.pdb
     RDKit          3D

 31 32  0  0  1  0  0  0  0  0999 V2000
   21.9908  -20.8406  -15.2837 N   0  0  0  0  0  0  0  0  0  0  0  0
   22.8880  -19.8976  -14.6426 C   0  0  1  0  0  0  0  0  0  0  0  0
   22.5590  -19.9162  -13.1654 C   0  0  0  0  0  0  0  0  0  0  0  0
   21.1230  -20.0816  -12.8956 C   0  0  0  0  0  0  0  0  0  0  0  0
   20.4204  -21.2664  -12.8339 C   0  0  0  0  0  0  0  0  0  0  0  0
   19.1400  -20.9748  -12.5659 N   0  0  0  0  0  0  0  0  0  0  0  0
   18.9494  -19.6511  -12.4448 C   0  0  0  0  0  0  0  0  0  0  0  0
   17.8344  -18.8849  -12.1788 C   0  0  0  0  0  0  0  0  0  0  0  0
   17.9514  -17.5279  -12.1153 C   0  0  0  0  0  0  0  0  0  0  0  0
   19.1750  -16.9474  -12.3168 C   0  0  0  0  0  0  0  0  0  0  0  0
   20.2730  -17.7056  -12.5790 C   0  0  0  0  0  0  0  0  0  0  0  0
   20.2068  -19.0826  -12.6537 C   0  0  0  0  0  0  0  0  0  0  0  0
   24.3012  -20.3293  -14.7746 C   0  0  0  0  0  0  0  0  0  0  0  0
   24.6367  -21.5271  -14.8986 O   0  0  0  0  0  0  0  0  0  0  0  0
   28.0526  -16.2309  -15.7055 C   0  0  0  0  0  0  0  0  0  0  0  0
   27.0016  -17.3702  -15.7763 C   0  0  1  0  0  0  0  0  0  0  0  0
   26.9232  -17.7496  -17.2147 C   0  0  0  0  0  0  0  0  0  0  0  0
   27.5045  -18.3866  -14.8321 C   0  0  0  0  0  0  0  0  0  0  0  0
   26.6943  -19.5687  -14.5022 C   0  0  2  0  0  0  0  0  0  0  0  0
   25.3071  -19.3375  -14.7589 N   0  0  0  0  0  0  0  0  0  0  0  0
   26.9686  -20.1929  -13.1996 C   0  0  0  0  0  0  0  0  0  0  0  0
   28.0855  -20.6987  -12.8844 O   0  0  0  0  0  0  0  0  0  0  0  0
   27.1675  -19.1782   -7.5255 C   0  0  0  0  0  0  0  0  0  0  0  0
   26.7544  -20.2474   -8.4745 C   0  0  1  0  0  0  0  0  0  0  0  0
   25.5495  -21.0173   -7.9002 C   0  0  0  0  0  0  0  0  0  0  0  0
   26.5402  -19.9152   -9.8867 C   0  0  0  0  0  0  0  0  0  0  0  0
   26.2227  -20.9402  -10.8956 C   0  0  2  0  0  0  0  0  0  0  0  0
   25.9670  -20.2606  -12.2052 N   0  0  0  0  0  0  0  0  0  0  0  0
   25.0714  -21.7962  -10.6475 C   0  0  0  0  0  0  0  0  0  0  0  0
   23.8714  -21.5731  -10.9209 O   0  0  0  0  0  0  0  0  0  0  0  0
   25.2682  -23.0581  -10.0187 O   0  0  0  0  0  0  0  0  0  0  0  0
  2  1  1  6
  2 13  1  0
  2  3  1  0
  3  4  1  0
  4  5  2  0
  6  5  1  0
  7  6  1  0
  8  7  2  0
  9  8  1  0
 10  9  2  0
 10 11  1  0
 11 12  2  0
 12  7  1  0
 12  4  1  0
 13 14  2  0
 16 15  1  6
 17 16  1  0
 18 16  1  0
 19 18  1  1
 20 19  1  0
 20 13  1  0
 21 19  1  0
 22 21  2  0
 24 23  1  1
 24 26  1  0
 24 25  1  0
 27 26  1  1
 27 29  1  0
 27 28  1  0
 28 21  1  0
 29 31  1  0
 30 29  2  0
M  END
$$$$
