WLL.pdb
     RDKit          3D

 31 32  0  0  1  0  0  0  0  0999 V2000
   23.7883  -19.8628  -16.4043 N   0  0  0  0  0  0  0  0  0  0  0  0
   24.4016  -19.3539  -15.1918 C   0  0  1  0  0  0  0  0  0  0  0  0
   23.2733  -18.9513  -14.2669 C   0  0  0  0  0  0  0  0  0  0  0  0
   22.4834  -17.8209  -14.7775 C   0  0  0  0  0  0  0  0  0  0  0  0
   21.1183  -17.7801  -14.9675 C   0  0  0  0  0  0  0  0  0  0  0  0
   20.8033  -16.5688  -15.4470 N   0  0  0  0  0  0  0  0  0  0  0  0
   21.8914  -15.7946  -15.5878 C   0  0  0  0  0  0  0  0  0  0  0  0
   22.0711  -14.5022  -16.0330 C   0  0  0  0  0  0  0  0  0  0  0  0
   23.3266  -13.9709  -16.0642 C   0  0  0  0  0  0  0  0  0  0  0  0
   24.3893  -14.7299  -15.6526 C   0  0  0  0  0  0  0  0  0  0  0  0
   24.2089  -16.0044  -15.2140 C   0  0  0  0  0  0  0  0  0  0  0  0
   22.9586  -16.5877  -15.1634 C   0  0  0  0  0  0  0  0  0  0  0  0
   25.1716  -20.4140  -14.4960 C   0  0  0  0  0  0  0  0  0  0  0  0
   24.8603  -21.6236  -14.5467 O   0  0  0  0  0  0  0  0  0  0  0  0
   29.4399  -21.7080  -14.7758 C   0  0  0  0  0  0  0  0  0  0  0  0
   29.6102  -21.4185  -13.2609 C   0  0  1  0  0  0  0  0  0  0  0  0
   31.0086  -20.9295  -13.1046 C   0  0  0  0  0  0  0  0  0  0  0  0
   28.5210  -20.4733  -12.9476 C   0  0  0  0  0  0  0  0  0  0  0  0
   27.1182  -20.9141  -12.9663 C   0  0  2  0  0  0  0  0  0  0  0  0
   26.3056  -20.0325  -13.7449 N   0  0  0  0  0  0  0  0  0  0  0  0
   26.5393  -21.2713  -11.6629 C   0  0  0  0  0  0  0  0  0  0  0  0
   26.8059  -22.3443  -11.0462 O   0  0  0  0  0  0  0  0  0  0  0  0
   26.3238  -20.9320   -6.4294 C   0  0  0  0  0  0  0  0  0  0  0  0
   25.9657  -19.7595   -7.2729 C   0  0  1  0  0  0  0  0  0  0  0  0
   26.6251  -18.4879   -6.7050 C   0  0  0  0  0  0  0  0  0  0  0  0
   26.1402  -19.8368   -8.7269 C   0  0  0  0  0  0  0  0  0  0  0  0
   25.2394  -20.6245   -9.5856 C   0  0  2  0  0  0  0  0  0  0  0  0
   25.6283  -20.4069  -11.0152 N   0  0  0  0  0  0  0  0  0  0  0  0
   23.8131  -20.3441   -9.5027 C   0  0  0  0  0  0  0  0  0  0  0  0
   23.0816  -19.8066  -10.3633 O   0  0  0  0  0  0  0  0  0  0  0  0
   23.1035  -20.7018   -8.3215 O   0  0  0  0  0  0  0  0  0  0  0  0
  2  1  1  6
  2 13  1  0
  2  3  1  0
  3  4  1  0
  4  5  2  0
  6  5  1  0
  7  6  1  0
  8  7  2  0
  9  8  1  0
 10  9  2  0
 10 11  1  0
 11 12  2  0
 12  7  1  0
 12  4  1  0
 13 14  2  0
 16 15  1  6
 17 16  1  0
 18 16  1  0
 19 18  1  1
 20 19  1  0
 20 13  1  0
 21 19  1  0
 22 21  2  0
 24 23  1  1
 24 26  1  0
 24 25  1  0
 27 26  1  1
 27 29  1  0
 27 28  1  0
 28 21  1  0
 29 31  1  0
 30 29  2  0
M  END
$$$$
