WLL.pdb
     RDKit          3D

 31 32  0  0  1  0  0  0  0  0999 V2000
   22.9881  -21.4635  -14.5080 N   0  0  0  0  0  0  0  0  0  0  0  0
   23.9216  -20.5545  -13.8696 C   0  0  1  0  0  0  0  0  0  0  0  0
   23.1359  -19.7747  -12.8374 C   0  0  0  0  0  0  0  0  0  0  0  0
   22.2383  -18.7725  -13.4310 C   0  0  0  0  0  0  0  0  0  0  0  0
   20.8696  -18.6927  -13.2843 C   0  0  0  0  0  0  0  0  0  0  0  0
   20.4389  -17.6363  -13.9877 N   0  0  0  0  0  0  0  0  0  0  0  0
   21.4528  -17.0032  -14.5996 C   0  0  0  0  0  0  0  0  0  0  0  0
   21.5091  -15.8928  -15.4149 C   0  0  0  0  0  0  0  0  0  0  0  0
   22.7135  -15.4750  -15.8986 C   0  0  0  0  0  0  0  0  0  0  0  0
   23.8486  -16.1651  -15.5667 C   0  0  0  0  0  0  0  0  0  0  0  0
   23.7900  -17.2600  -14.7623 C   0  0  0  0  0  0  0  0  0  0  0  0
   22.5956  -17.7229  -14.2474 C   0  0  0  0  0  0  0  0  0  0  0  0
   24.9760  -21.2978  -13.1371 C   0  0  0  0  0  0  0  0  0  0  0  0
   24.8078  -22.4541  -12.6930 O   0  0  0  0  0  0  0  0  0  0  0  0
   30.2054  -19.4892  -14.0705 C   0  0  0  0  0  0  0  0  0  0  0  0
   28.8135  -20.1748  -14.0825 C   0  0  1  0  0  0  0  0  0  0  0  0
   28.9073  -21.2466  -15.1128 C   0  0  0  0  0  0  0  0  0  0  0  0
   28.6039  -20.5941  -12.6832 C   0  0  0  0  0  0  0  0  0  0  0  0
   27.3501  -21.2459  -12.2763 C   0  0  2  0  0  0  0  0  0  0  0  0
   26.2229  -20.6647  -12.9362 N   0  0  0  0  0  0  0  0  0  0  0  0
   27.1660  -21.4397  -10.8306 C   0  0  0  0  0  0  0  0  0  0  0  0
   27.8859  -22.2081  -10.1277 O   0  0  0  0  0  0  0  0  0  0  0  0
   28.1476  -18.6248   -6.4694 C   0  0  0  0  0  0  0  0  0  0  0  0
   27.6932  -19.8438   -7.1920 C   0  0  1  0  0  0  0  0  0  0  0  0
   27.7549  -21.0616   -6.2500 C   0  0  0  0  0  0  0  0  0  0  0  0
   26.4262  -19.8146   -7.9299 C   0  0  0  0  0  0  0  0  0  0  0  0
   25.9213  -20.9832   -8.6706 C   0  0  2  0  0  0  0  0  0  0  0  0
   26.1443  -20.7561  -10.1339 N   0  0  0  0  0  0  0  0  0  0  0  0
   24.5130  -21.3202   -8.5192 C   0  0  0  0  0  0  0  0  0  0  0  0
   23.5734  -21.0804   -9.3093 O   0  0  0  0  0  0  0  0  0  0  0  0
   24.0867  -22.0089   -7.3485 O   0  0  0  0  0  0  0  0  0  0  0  0
  2  1  1  1
  2 13  1  0
  2  3  1  0
  3  4  1  0
  4  5  2  0
  6  5  1  0
  7  6  1  0
  8  7  2  0
  9  8  1  0
 10  9  2  0
 10 11  1  0
 11 12  2  0
 12  7  1  0
 12  4  1  0
 13 14  2  0
 16 15  1  1
 17 16  1  0
 18 16  1  0
 19 18  1  1
 20 19  1  0
 20 13  1  0
 21 19  1  0
 22 21  2  0
 24 23  1  1
 24 26  1  0
 24 25  1  0
 27 26  1  1
 27 29  1  0
 27 28  1  0
 28 21  1  0
 29 31  1  0
 30 29  2  0
M  END
$$$$
