WLL.pdb
     RDKit          3D

 31 32  0  0  1  0  0  0  0  0999 V2000
   23.4063  -20.8669   -9.1203 N   0  0  0  0  0  0  0  0  0  0  0  0
   24.7340  -20.9259   -9.7024 C   0  0  1  0  0  0  0  0  0  0  0  0
   24.6308  -20.3261  -11.0882 C   0  0  0  0  0  0  0  0  0  0  0  0
   23.7424  -21.0849  -11.9812 C   0  0  0  0  0  0  0  0  0  0  0  0
   22.4436  -20.7722  -12.3226 C   0  0  0  0  0  0  0  0  0  0  0  0
   21.9950  -21.7208  -13.1563 N   0  0  0  0  0  0  0  0  0  0  0  0
   22.9304  -22.6553  -13.3909 C   0  0  0  0  0  0  0  0  0  0  0  0
   22.9407  -23.7987  -14.1612 C   0  0  0  0  0  0  0  0  0  0  0  0
   24.0649  -24.5693  -14.2046 C   0  0  0  0  0  0  0  0  0  0  0  0
   25.1661  -24.1950  -13.4821 C   0  0  0  0  0  0  0  0  0  0  0  0
   25.1529  -23.0667  -12.7232 C   0  0  0  0  0  0  0  0  0  0  0  0
   24.0400  -22.2533  -12.6459 C   0  0  0  0  0  0  0  0  0  0  0  0
   25.6904  -20.0865   -8.9399 C   0  0  0  0  0  0  0  0  0  0  0  0
   25.6811  -18.8372   -8.9824 O   0  0  0  0  0  0  0  0  0  0  0  0
   27.7860  -20.8032   -3.8869 C   0  0  0  0  0  0  0  0  0  0  0  0
   27.2502  -20.0638   -5.1414 C   0  0  1  0  0  0  0  0  0  0  0  0
   27.3147  -18.6139   -4.8058 C   0  0  0  0  0  0  0  0  0  0  0  0
   28.1091  -20.5456   -6.2405 C   0  0  0  0  0  0  0  0  0  0  0  0
   27.8487  -20.1368   -7.6289 C   0  0  2  0  0  0  0  0  0  0  0  0
   26.6513  -20.7342   -8.1320 N   0  0  0  0  0  0  0  0  0  0  0  0
   28.9932  -20.2182   -8.5484 C   0  0  0  0  0  0  0  0  0  0  0  0
   30.0993  -19.6366   -8.3462 O   0  0  0  0  0  0  0  0  0  0  0  0
   32.2663  -23.6792   -9.2000 C   0  0  0  0  0  0  0  0  0  0  0  0
   31.4592  -22.4343   -9.3156 C   0  0  1  0  0  0  0  0  0  0  0  0
   32.2373  -21.2505   -8.7093 C   0  0  0  0  0  0  0  0  0  0  0  0
   30.8758  -22.0707  -10.6109 C   0  0  0  0  0  0  0  0  0  0  0  0
   29.9912  -20.9045  -10.7746 C   0  0  2  0  0  0  0  0  0  0  0  0
   28.9110  -20.9733   -9.7398 N   0  0  0  0  0  0  0  0  0  0  0  0
   29.3198  -20.7424  -12.0563 C   0  0  0  0  0  0  0  0  0  0  0  0
   28.0903  -20.7094  -12.2841 O   0  0  0  0  0  0  0  0  0  0  0  0
   30.1031  -20.5982  -13.2362 O   0  0  0  0  0  0  0  0  0  0  0  0
  2  1  1  1
  2 13  1  0
  2  3  1  0
  3  4  1  0
  4  5  2  0
  6  5  1  0
  7  6  1  0
  8  7  2  0
  9  8  1  0
 10  9  2  0
 10 11  1  0
 11 12  2  0
 12  7  1  0
 12  4  1  0
 13 14  2  0
 16 15  1  1
 17 16  1  0
 18 16  1  0
 19 18  1  1
 20 19  1  0
 20 13  1  0
 21 19  1  0
 22 21  2  0
 24 23  1  6
 24 26  1  0
 24 25  1  0
 27 26  1  6
 27 29  1  0
 27 28  1  0
 28 21  1  0
 29 31  1  0
 30 29  2  0
M  END
$$$$
