WLL.pdb
     RDKit          3D

 31 32  0  0  1  0  0  0  0  0999 V2000
   29.3017  -36.4097   -7.6840 N   0  0  0  0  0  0  0  0  0  0  0  0
   29.3640  -35.3972   -6.6467 C   0  0  1  0  0  0  0  0  0  0  0  0
   27.9357  -35.0184   -6.3191 C   0  0  0  0  0  0  0  0  0  0  0  0
   27.3624  -34.0523   -7.2679 C   0  0  0  0  0  0  0  0  0  0  0  0
   27.6074  -33.9728   -8.6225 C   0  0  0  0  0  0  0  0  0  0  0  0
   26.8877  -32.9548   -9.1142 N   0  0  0  0  0  0  0  0  0  0  0  0
   26.1713  -32.3471   -8.1547 C   0  0  0  0  0  0  0  0  0  0  0  0
   25.3007  -31.2781   -8.1699 C   0  0  0  0  0  0  0  0  0  0  0  0
   24.7078  -30.8782   -7.0089 C   0  0  0  0  0  0  0  0  0  0  0  0
   24.9867  -31.5450   -5.8459 C   0  0  0  0  0  0  0  0  0  0  0  0
   25.8459  -32.5990   -5.8341 C   0  0  0  0  0  0  0  0  0  0  0  0
   26.4713  -33.0423   -6.9823 C   0  0  0  0  0  0  0  0  0  0  0  0
   29.9613  -35.9418   -5.4026 C   0  0  0  0  0  0  0  0  0  0  0  0
   29.6252  -37.0418   -4.9130 O   0  0  0  0  0  0  0  0  0  0  0  0
   34.2009  -36.3842   -4.7005 C   0  0  0  0  0  0  0  0  0  0  0  0
   34.0819  -35.7684   -3.2813 C   0  0  1  0  0  0  0  0  0  0  0  0
   35.3902  -35.1036   -3.0256 C   0  0  0  0  0  0  0  0  0  0  0  0
   32.8860  -34.9071   -3.3590 C   0  0  0  0  0  0  0  0  0  0  0  0
   31.5450  -35.4970   -3.4860 C   0  0  2  0  0  0  0  0  0  0  0  0
   30.9532  -35.1783   -4.7477 N   0  0  0  0  0  0  0  0  0  0  0  0
   30.6480  -35.3078   -2.3365 C   0  0  0  0  0  0  0  0  0  0  0  0
   30.9725  -35.5715   -1.1416 O   0  0  0  0  0  0  0  0  0  0  0  0
   26.7673  -32.3103    0.4465 C   0  0  0  0  0  0  0  0  0  0  0  0
   26.4136  -33.0953   -0.7672 C   0  0  1  0  0  0  0  0  0  0  0  0
   25.2719  -32.3935   -1.5275 C   0  0  0  0  0  0  0  0  0  0  0  0
   27.4744  -33.5185   -1.6870 C   0  0  0  0  0  0  0  0  0  0  0  0
   28.4285  -34.5879   -1.3472 C   0  0  2  0  0  0  0  0  0  0  0  0
   29.3390  -34.8069   -2.5158 N   0  0  0  0  0  0  0  0  0  0  0  0
   27.8832  -35.8935   -1.0036 C   0  0  0  0  0  0  0  0  0  0  0  0
   27.5157  -36.8040   -1.7785 O   0  0  0  0  0  0  0  0  0  0  0  0
   27.7233  -36.2390    0.3682 O   0  0  0  0  0  0  0  0  0  0  0  0
  2  1  1  6
  2 13  1  0
  2  3  1  0
  3  4  1  0
  4  5  2  0
  6  5  1  0
  7  6  1  0
  8  7  2  0
  9  8  1  0
 10  9  2  0
 10 11  1  0
 11 12  2  0
 12  7  1  0
 12  4  1  0
 13 14  2  0
 16 15  1  6
 17 16  1  0
 18 16  1  0
 19 18  1  1
 20 19  1  0
 20 13  1  0
 21 19  1  0
 22 21  2  0
 24 23  1  1
 24 26  1  0
 24 25  1  0
 27 26  1  6
 27 29  1  0
 27 28  1  0
 28 21  1  0
 29 31  1  0
 30 29  2  0
M  END
$$$$
