WLL.pdb
     RDKit          3D

 31 32  0  0  1  0  0  0  0  0999 V2000
   24.5048  -20.9395  -16.9769 N   0  0  0  0  0  0  0  0  0  0  0  0
   25.4560  -20.2804  -16.1017 C   0  0  1  0  0  0  0  0  0  0  0  0
   24.6928  -19.2072  -15.3557 C   0  0  0  0  0  0  0  0  0  0  0  0
   25.4357  -17.9432  -15.2425 C   0  0  0  0  0  0  0  0  0  0  0  0
   25.2531  -16.9540  -14.2995 C   0  0  0  0  0  0  0  0  0  0  0  0
   26.1322  -15.9743  -14.5519 N   0  0  0  0  0  0  0  0  0  0  0  0
   26.8961  -16.2585  -15.6191 C   0  0  0  0  0  0  0  0  0  0  0  0
   27.9150  -15.5774  -16.2508 C   0  0  0  0  0  0  0  0  0  0  0  0
   28.5189  -16.1317  -17.3404 C   0  0  0  0  0  0  0  0  0  0  0  0
   28.1037  -17.3565  -17.7901 C   0  0  0  0  0  0  0  0  0  0  0  0
   27.0985  -18.0259  -17.1651 C   0  0  0  0  0  0  0  0  0  0  0  0
   26.4555  -17.5077  -16.0587 C   0  0  0  0  0  0  0  0  0  0  0  0
   25.9854  -21.2198  -15.0826 C   0  0  0  0  0  0  0  0  0  0  0  0
   25.3742  -22.2505  -14.7267 O   0  0  0  0  0  0  0  0  0  0  0  0
   29.7730  -21.9287  -11.0165 C   0  0  0  0  0  0  0  0  0  0  0  0
   29.6748  -20.7019  -11.9613 C   0  0  1  0  0  0  0  0  0  0  0  0
   31.0103  -20.0447  -11.8993 C   0  0  0  0  0  0  0  0  0  0  0  0
   29.2588  -21.2741  -13.2565 C   0  0  0  0  0  0  0  0  0  0  0  0
   27.8699  -21.7063  -13.4729 C   0  0  2  0  0  0  0  0  0  0  0  0
   27.2359  -20.9304  -14.4926 N   0  0  0  0  0  0  0  0  0  0  0  0
   27.0565  -21.8862  -12.2615 C   0  0  0  0  0  0  0  0  0  0  0  0
   27.1915  -22.8592  -11.4630 O   0  0  0  0  0  0  0  0  0  0  0  0
   26.5561  -19.4861   -7.2177 C   0  0  0  0  0  0  0  0  0  0  0  0
   25.6818  -20.1786   -8.2029 C   0  0  1  0  0  0  0  0  0  0  0  0
   24.2532  -19.6064   -8.1247 C   0  0  0  0  0  0  0  0  0  0  0  0
   26.1221  -20.3023   -9.5962 C   0  0  0  0  0  0  0  0  0  0  0  0
   25.3375  -21.0328  -10.6062 C   0  0  2  0  0  0  0  0  0  0  0  0
   26.0530  -20.9522  -11.9192 N   0  0  0  0  0  0  0  0  0  0  0  0
   23.9748  -20.5842  -10.8549 C   0  0  0  0  0  0  0  0  0  0  0  0
   22.9295  -20.9265  -10.2594 O   0  0  0  0  0  0  0  0  0  0  0  0
   23.7344  -19.6382  -11.8912 O   0  0  0  0  0  0  0  0  0  0  0  0
  2  1  1  6
  2 13  1  0
  2  3  1  0
  3  4  1  0
  4  5  2  0
  6  5  1  0
  7  6  1  0
  8  7  2  0
  9  8  1  0
 10  9  2  0
 10 11  1  0
 11 12  2  0
 12  7  1  0
 12  4  1  0
 13 14  2  0
 16 15  1  1
 17 16  1  0
 18 16  1  0
 19 18  1  1
 20 19  1  0
 20 13  1  0
 21 19  1  0
 22 21  2  0
 24 23  1  1
 24 26  1  0
 24 25  1  0
 27 26  1  1
 27 29  1  0
 27 28  1  0
 28 21  1  0
 29 31  1  0
 30 29  2  0
M  END
$$$$
