WLL.pdb
     RDKit          3D

 31 32  0  0  1  0  0  0  0  0999 V2000
   23.3512  -19.9988  -15.8688 N   0  0  0  0  0  0  0  0  0  0  0  0
   23.5317  -19.9182  -14.4313 C   0  0  1  0  0  0  0  0  0  0  0  0
   22.2500  -20.4187  -13.8010 C   0  0  0  0  0  0  0  0  0  0  0  0
   21.0998  -19.5382  -14.0541 C   0  0  0  0  0  0  0  0  0  0  0  0
   20.2778  -19.5429  -15.1612 C   0  0  0  0  0  0  0  0  0  0  0  0
   19.3557  -18.5844  -14.9960 N   0  0  0  0  0  0  0  0  0  0  0  0
   19.5193  -17.9365  -13.8313 C   0  0  0  0  0  0  0  0  0  0  0  0
   18.8366  -16.8998  -13.2313 C   0  0  0  0  0  0  0  0  0  0  0  0
   19.2458  -16.4415  -12.0140 C   0  0  0  0  0  0  0  0  0  0  0  0
   20.3289  -17.0185  -11.4066 C   0  0  0  0  0  0  0  0  0  0  0  0
   21.0003  -18.0409  -12.0008 C   0  0  0  0  0  0  0  0  0  0  0  0
   20.6257  -18.5406  -13.2321 C   0  0  0  0  0  0  0  0  0  0  0  0
   24.6168  -20.8221  -13.9769 C   0  0  0  0  0  0  0  0  0  0  0  0
   24.6871  -22.0231  -14.3166 O   0  0  0  0  0  0  0  0  0  0  0  0
   29.7776  -19.4718  -14.2486 C   0  0  0  0  0  0  0  0  0  0  0  0
   28.3848  -20.1498  -14.3382 C   0  0  1  0  0  0  0  0  0  0  0  0
   28.5834  -21.3543  -15.1918 C   0  0  0  0  0  0  0  0  0  0  0  0
   27.9979  -20.3705  -12.9313 C   0  0  0  0  0  0  0  0  0  0  0  0
   26.7237  -21.0248  -12.5987 C   0  0  2  0  0  0  0  0  0  0  0  0
   25.6113  -20.2957  -13.1228 N   0  0  0  0  0  0  0  0  0  0  0  0
   26.5621  -21.4431  -11.1984 C   0  0  0  0  0  0  0  0  0  0  0  0
   27.0432  -22.5143  -10.7254 O   0  0  0  0  0  0  0  0  0  0  0  0
   27.7025  -18.6252   -6.9117 C   0  0  0  0  0  0  0  0  0  0  0  0
   27.3440  -19.8201   -7.7228 C   0  0  1  0  0  0  0  0  0  0  0  0
   28.1405  -21.0433   -7.2293 C   0  0  0  0  0  0  0  0  0  0  0  0
   25.9313  -20.1592   -7.9221 C   0  0  0  0  0  0  0  0  0  0  0  0
   25.4946  -21.1523   -8.9183 C   0  0  2  0  0  0  0  0  0  0  0  0
   25.8390  -20.6444  -10.2842 N   0  0  0  0  0  0  0  0  0  0  0  0
   24.0797  -21.4940   -8.9539 C   0  0  0  0  0  0  0  0  0  0  0  0
   23.2800  -21.3689   -9.9075 O   0  0  0  0  0  0  0  0  0  0  0  0
   23.4696  -22.0436   -7.7911 O   0  0  0  0  0  0  0  0  0  0  0  0
  2  1  1  6
  2 13  1  0
  2  3  1  0
  3  4  1  0
  4  5  2  0
  6  5  1  0
  7  6  1  0
  8  7  2  0
  9  8  1  0
 10  9  2  0
 10 11  1  0
 11 12  2  0
 12  7  1  0
 12  4  1  0
 13 14  2  0
 16 15  1  1
 17 16  1  0
 18 16  1  0
 19 18  1  1
 20 19  1  0
 20 13  1  0
 21 19  1  0
 22 21  2  0
 24 23  1  1
 24 26  1  0
 24 25  1  0
 27 26  1  1
 27 29  1  0
 27 28  1  0
 28 21  1  0
 29 31  1  0
 30 29  2  0
M  END
$$$$
