WLL.pdb
     RDKit          3D

 31 32  0  0  1  0  0  0  0  0999 V2000
   27.6492  -21.1078  -14.9535 N   0  0  0  0  0  0  0  0  0  0  0  0
   26.8112  -20.2514  -14.1353 C   0  0  1  0  0  0  0  0  0  0  0  0
   25.7283  -19.7053  -15.0408 C   0  0  0  0  0  0  0  0  0  0  0  0
   26.2472  -18.8143  -16.0892 C   0  0  0  0  0  0  0  0  0  0  0  0
   26.2448  -19.0422  -17.4491 C   0  0  0  0  0  0  0  0  0  0  0  0
   26.8097  -17.9840  -18.0470 N   0  0  0  0  0  0  0  0  0  0  0  0
   27.1912  -17.0568  -17.1537 C   0  0  0  0  0  0  0  0  0  0  0  0
   27.8020  -15.8274  -17.2815 C   0  0  0  0  0  0  0  0  0  0  0  0
   28.0716  -15.0921  -16.1652 C   0  0  0  0  0  0  0  0  0  0  0  0
   27.7313  -15.5868  -14.9346 C   0  0  0  0  0  0  0  0  0  0  0  0
   27.1289  -16.7997  -14.8118 C   0  0  0  0  0  0  0  0  0  0  0  0
   26.8349  -17.5821  -15.9107 C   0  0  0  0  0  0  0  0  0  0  0  0
   26.1308  -21.0283  -13.0702 C   0  0  0  0  0  0  0  0  0  0  0  0
   25.7793  -22.2188  -13.2173 O   0  0  0  0  0  0  0  0  0  0  0  0
   27.0955  -19.6903   -7.7586 C   0  0  0  0  0  0  0  0  0  0  0  0
   27.0352  -20.3150   -9.1776 C   0  0  1  0  0  0  0  0  0  0  0  0
   27.8251  -21.5750   -9.0910 C   0  0  0  0  0  0  0  0  0  0  0  0
   25.5917  -20.4363   -9.4593 C   0  0  0  0  0  0  0  0  0  0  0  0
   25.1217  -20.9458  -10.7562 C   0  0  2  0  0  0  0  0  0  0  0  0
   25.8719  -20.3881  -11.8378 N   0  0  0  0  0  0  0  0  0  0  0  0
   23.6662  -20.9306  -10.9637 C   0  0  0  0  0  0  0  0  0  0  0  0
   22.8263  -21.2488  -10.0715 O   0  0  0  0  0  0  0  0  0  0  0  0
   19.0883  -18.3066  -12.7391 C   0  0  0  0  0  0  0  0  0  0  0  0
   19.9900  -18.9715  -13.7185 C   0  0  1  0  0  0  0  0  0  0  0  0
   19.9942  -18.1827  -15.0422 C   0  0  0  0  0  0  0  0  0  0  0  0
   21.3541  -19.3286  -13.3160 C   0  0  0  0  0  0  0  0  0  0  0  0
   21.6358  -20.4485  -12.4016 C   0  0  2  0  0  0  0  0  0  0  0  0
   23.1173  -20.5483  -12.2082 N   0  0  0  0  0  0  0  0  0  0  0  0
   21.1853  -21.7742  -12.8009 C   0  0  0  0  0  0  0  0  0  0  0  0
   21.7563  -22.5858  -13.5624 O   0  0  0  0  0  0  0  0  0  0  0  0
   19.9490  -22.2676  -12.2964 O   0  0  0  0  0  0  0  0  0  0  0  0
  2  1  1  6
  2 13  1  0
  2  3  1  0
  3  4  1  0
  4  5  2  0
  6  5  1  0
  7  6  1  0
  8  7  2  0
  9  8  1  0
 10  9  2  0
 10 11  1  0
 11 12  2  0
 12  7  1  0
 12  4  1  0
 13 14  2  0
 16 15  1  1
 17 16  1  0
 18 16  1  0
 19 18  1  1
 20 19  1  0
 20 13  1  0
 21 19  1  0
 22 21  2  0
 24 23  1  1
 24 26  1  0
 24 25  1  0
 27 26  1  6
 27 29  1  0
 27 28  1  0
 28 21  1  0
 29 31  1  0
 30 29  2  0
M  END
$$$$
