WLL.pdb
     RDKit          3D

 31 32  0  0  1  0  0  0  0  0999 V2000
   22.5650  -21.6559  -15.7519 N   0  0  0  0  0  0  0  0  0  0  0  0
   23.3799  -20.7880  -14.9225 C   0  0  1  0  0  0  0  0  0  0  0  0
   22.4677  -20.2182  -13.8576 C   0  0  0  0  0  0  0  0  0  0  0  0
   21.3274  -19.4735  -14.4121 C   0  0  0  0  0  0  0  0  0  0  0  0
   19.9974  -19.8342  -14.3646 C   0  0  0  0  0  0  0  0  0  0  0  0
   19.2879  -18.8821  -14.9861 N   0  0  0  0  0  0  0  0  0  0  0  0
   20.0778  -17.8995  -15.4486 C   0  0  0  0  0  0  0  0  0  0  0  0
   19.8182  -16.7340  -16.1377 C   0  0  0  0  0  0  0  0  0  0  0  0
   20.8508  -15.9121  -16.4806 C   0  0  0  0  0  0  0  0  0  0  0  0
   22.1298  -16.2577  -16.1349 C   0  0  0  0  0  0  0  0  0  0  0  0
   22.3828  -17.4081  -15.4551 C   0  0  0  0  0  0  0  0  0  0  0  0
   21.3725  -18.2732  -15.0852 C   0  0  0  0  0  0  0  0  0  0  0  0
   24.4356  -21.5570  -14.2189 C   0  0  0  0  0  0  0  0  0  0  0  0
   24.3289  -22.7749  -13.9582 O   0  0  0  0  0  0  0  0  0  0  0  0
   29.1158  -19.9411  -12.0101 C   0  0  0  0  0  0  0  0  0  0  0  0
   28.5967  -19.7262  -13.4564 C   0  0  1  0  0  0  0  0  0  0  0  0
   29.7783  -19.2669  -14.2386 C   0  0  0  0  0  0  0  0  0  0  0  0
   28.0015  -21.0255  -13.8248 C   0  0  0  0  0  0  0  0  0  0  0  0
   26.7473  -21.4777  -13.2044 C   0  0  2  0  0  0  0  0  0  0  0  0
   25.6107  -20.8766  -13.8294 N   0  0  0  0  0  0  0  0  0  0  0  0
   26.7102  -21.4492  -11.7349 C   0  0  0  0  0  0  0  0  0  0  0  0
   27.5216  -22.0843  -10.9994 O   0  0  0  0  0  0  0  0  0  0  0  0
   27.6148  -19.0115   -7.2684 C   0  0  0  0  0  0  0  0  0  0  0  0
   27.1388  -20.1158   -8.1450 C   0  0  1  0  0  0  0  0  0  0  0  0
   27.3714  -21.4708   -7.4493 C   0  0  0  0  0  0  0  0  0  0  0  0
   25.7936  -20.0476   -8.7249 C   0  0  0  0  0  0  0  0  0  0  0  0
   25.2931  -21.0603   -9.6700 C   0  0  2  0  0  0  0  0  0  0  0  0
   25.7361  -20.6876  -11.0510 N   0  0  0  0  0  0  0  0  0  0  0  0
   23.8528  -21.2608   -9.7428 C   0  0  0  0  0  0  0  0  0  0  0  0
   23.0686  -20.8983  -10.6473 O   0  0  0  0  0  0  0  0  0  0  0  0
   23.1939  -21.9482   -8.6846 O   0  0  0  0  0  0  0  0  0  0  0  0
  2  1  1  6
  2 13  1  0
  2  3  1  0
  3  4  1  0
  4  5  2  0
  6  5  1  0
  7  6  1  0
  8  7  2  0
  9  8  1  0
 10  9  2  0
 10 11  1  0
 11 12  2  0
 12  7  1  0
 12  4  1  0
 13 14  2  0
 16 15  1  1
 17 16  1  0
 18 16  1  0
 19 18  1  6
 20 19  1  0
 20 13  1  0
 21 19  1  0
 22 21  2  0
 24 23  1  1
 24 26  1  0
 24 25  1  0
 27 26  1  1
 27 29  1  0
 27 28  1  0
 28 21  1  0
 29 31  1  0
 30 29  2  0
M  END
$$$$
