WLL.pdb
     RDKit          3D

 31 32  0  0  1  0  0  0  0  0999 V2000
   22.7987  -21.1809  -15.6906 N   0  0  0  0  0  0  0  0  0  0  0  0
   23.6048  -20.3307  -14.8347 C   0  0  1  0  0  0  0  0  0  0  0  0
   22.7774  -20.0425  -13.6006 C   0  0  0  0  0  0  0  0  0  0  0  0
   21.4773  -19.4279  -13.9074 C   0  0  0  0  0  0  0  0  0  0  0  0
   20.2316  -19.8938  -13.5435 C   0  0  0  0  0  0  0  0  0  0  0  0
   19.3149  -19.0412  -14.0220 N   0  0  0  0  0  0  0  0  0  0  0  0
   19.8854  -18.0254  -14.6896 C   0  0  0  0  0  0  0  0  0  0  0  0
   19.3699  -16.9272  -15.3447 C   0  0  0  0  0  0  0  0  0  0  0  0
   20.2177  -16.0442  -15.9454 C   0  0  0  0  0  0  0  0  0  0  0  0
   21.5683  -16.2624  -15.8884 C   0  0  0  0  0  0  0  0  0  0  0  0
   22.0738  -17.3465  -15.2415 C   0  0  0  0  0  0  0  0  0  0  0  0
   21.2577  -18.2691  -14.6179 C   0  0  0  0  0  0  0  0  0  0  0  0
   24.8276  -21.0361  -14.3785 C   0  0  0  0  0  0  0  0  0  0  0  0
   24.8477  -22.2574  -14.1127 O   0  0  0  0  0  0  0  0  0  0  0  0
   29.5777  -18.2879  -15.4255 C   0  0  0  0  0  0  0  0  0  0  0  0
   28.1832  -18.9508  -15.2722 C   0  0  1  0  0  0  0  0  0  0  0  0
   27.7831  -19.3574  -16.6483 C   0  0  0  0  0  0  0  0  0  0  0  0
   28.3987  -20.0240  -14.2824 C   0  0  0  0  0  0  0  0  0  0  0  0
   27.2635  -20.7960  -13.7555 C   0  0  2  0  0  0  0  0  0  0  0  0
   26.0183  -20.2885  -14.2408 N   0  0  0  0  0  0  0  0  0  0  0  0
   27.2820  -21.0605  -12.3093 C   0  0  0  0  0  0  0  0  0  0  0  0
   28.2185  -21.6753  -11.7197 O   0  0  0  0  0  0  0  0  0  0  0  0
   28.2214  -20.4290   -7.2781 C   0  0  0  0  0  0  0  0  0  0  0  0
   27.0927  -19.6781   -7.8918 C   0  0  1  0  0  0  0  0  0  0  0  0
   27.1028  -18.2208   -7.3914 C   0  0  0  0  0  0  0  0  0  0  0  0
   26.8946  -19.7331   -9.3438 C   0  0  0  0  0  0  0  0  0  0  0  0
   26.2428  -20.8764  -10.0051 C   0  0  2  0  0  0  0  0  0  0  0  0
   26.2217  -20.6277  -11.4816 N   0  0  0  0  0  0  0  0  0  0  0  0
   24.8721  -21.1843   -9.6227 C   0  0  0  0  0  0  0  0  0  0  0  0
   24.4615  -21.6593   -8.5409 O   0  0  0  0  0  0  0  0  0  0  0  0
   23.8211  -20.9369  -10.5505 O   0  0  0  0  0  0  0  0  0  0  0  0
  2  1  1  6
  2 13  1  0
  2  3  1  0
  3  4  1  0
  4  5  2  0
  6  5  1  0
  7  6  1  0
  8  7  2  0
  9  8  1  0
 10  9  2  0
 10 11  1  0
 11 12  2  0
 12  7  1  0
 12  4  1  0
 13 14  2  0
 16 15  1  6
 17 16  1  0
 18 16  1  0
 19 18  1  1
 20 19  1  0
 20 13  1  0
 21 19  1  0
 22 21  2  0
 24 23  1  6
 24 26  1  0
 24 25  1  0
 27 26  1  1
 27 29  1  0
 27 28  1  0
 28 21  1  0
 29 31  1  0
 30 29  2  0
M  END
$$$$
