WLL.pdb
     RDKit          3D

 31 32  0  0  1  0  0  0  0  0999 V2000
   25.6630  -21.1572  -14.6862 N   0  0  0  0  0  0  0  0  0  0  0  0
   26.4137  -20.5358  -13.6112 C   0  0  1  0  0  0  0  0  0  0  0  0
   25.4369  -19.6801  -12.8337 C   0  0  0  0  0  0  0  0  0  0  0  0
   24.8139  -18.6277  -13.6503 C   0  0  0  0  0  0  0  0  0  0  0  0
   23.4675  -18.4473  -13.8864 C   0  0  0  0  0  0  0  0  0  0  0  0
   23.3264  -17.3763  -14.6798 N   0  0  0  0  0  0  0  0  0  0  0  0
   24.5135  -16.8292  -14.9874 C   0  0  0  0  0  0  0  0  0  0  0  0
   24.8739  -15.7415  -15.7541 C   0  0  0  0  0  0  0  0  0  0  0  0
   26.1925  -15.4202  -15.8864 C   0  0  0  0  0  0  0  0  0  0  0  0
   27.1381  -16.1835  -15.2554 C   0  0  0  0  0  0  0  0  0  0  0  0
   26.7795  -17.2558  -14.4999 C   0  0  0  0  0  0  0  0  0  0  0  0
   25.4587  -17.6222  -14.3349 C   0  0  0  0  0  0  0  0  0  0  0  0
   26.9402  -21.5531  -12.6685 C   0  0  0  0  0  0  0  0  0  0  0  0
   26.3216  -22.6021  -12.3864 O   0  0  0  0  0  0  0  0  0  0  0  0
   31.2213  -22.9595   -9.2880 C   0  0  0  0  0  0  0  0  0  0  0  0
   31.1824  -21.7093  -10.2061 C   0  0  1  0  0  0  0  0  0  0  0  0
   32.6071  -21.3842  -10.4953 C   0  0  0  0  0  0  0  0  0  0  0  0
   30.3352  -22.1202  -11.3425 C   0  0  0  0  0  0  0  0  0  0  0  0
   28.8761  -22.2223  -11.1907 C   0  0  2  0  0  0  0  0  0  0  0  0
   28.1969  -21.3197  -12.0669 N   0  0  0  0  0  0  0  0  0  0  0  0
   28.3714  -22.2135   -9.8098 C   0  0  0  0  0  0  0  0  0  0  0  0
   28.5660  -23.1540   -8.9849 O   0  0  0  0  0  0  0  0  0  0  0  0
   28.9683  -19.1731   -4.9743 C   0  0  0  0  0  0  0  0  0  0  0  0
   27.9039  -19.8977   -5.7202 C   0  0  1  0  0  0  0  0  0  0  0  0
   26.5443  -19.2113   -5.4870 C   0  0  0  0  0  0  0  0  0  0  0  0
   28.1001  -20.2048   -7.1407 C   0  0  0  0  0  0  0  0  0  0  0  0
   27.1730  -21.0670   -7.8934 C   0  0  2  0  0  0  0  0  0  0  0  0
   27.6208  -21.1206   -9.3214 N   0  0  0  0  0  0  0  0  0  0  0  0
   25.7682  -20.6851   -7.9195 C   0  0  0  0  0  0  0  0  0  0  0  0
   25.1848  -19.9477   -8.7444 O   0  0  0  0  0  0  0  0  0  0  0  0
   24.8964  -21.1791   -6.9084 O   0  0  0  0  0  0  0  0  0  0  0  0
  2  1  1  6
  2 13  1  0
  2  3  1  0
  3  4  1  0
  4  5  2  0
  6  5  1  0
  7  6  1  0
  8  7  2  0
  9  8  1  0
 10  9  2  0
 10 11  1  0
 11 12  2  0
 12  7  1  0
 12  4  1  0
 13 14  2  0
 16 15  1  1
 17 16  1  0
 18 16  1  0
 19 18  1  1
 20 19  1  0
 20 13  1  0
 21 19  1  0
 22 21  2  0
 24 23  1  6
 24 26  1  0
 24 25  1  0
 27 26  1  1
 27 29  1  0
 27 28  1  0
 28 21  1  0
 29 31  1  0
 30 29  2  0
M  END
$$$$
