WLL.pdb
     RDKit          3D

 31 32  0  0  1  0  0  0  0  0999 V2000
   22.1645  -20.4697  -16.8218 N   0  0  0  0  0  0  0  0  0  0  0  0
   23.0459  -19.7390  -15.9305 C   0  0  1  0  0  0  0  0  0  0  0  0
   22.2302  -19.3786  -14.7076 C   0  0  0  0  0  0  0  0  0  0  0  0
   20.9915  -18.6555  -15.0323 C   0  0  0  0  0  0  0  0  0  0  0  0
   19.7131  -18.9733  -14.6251 C   0  0  0  0  0  0  0  0  0  0  0  0
   18.8762  -18.0619  -15.1400 N   0  0  0  0  0  0  0  0  0  0  0  0
   19.5315  -17.1475  -15.8733 C   0  0  0  0  0  0  0  0  0  0  0  0
   19.1147  -16.0423  -16.5843 C   0  0  0  0  0  0  0  0  0  0  0  0
   20.0341  -15.2839  -17.2469 C   0  0  0  0  0  0  0  0  0  0  0  0
   21.3573  -15.6323  -17.1954 C   0  0  0  0  0  0  0  0  0  0  0  0
   21.7653  -16.7231  -16.4933 C   0  0  0  0  0  0  0  0  0  0  0  0
   20.8741  -17.5227  -15.8061 C   0  0  0  0  0  0  0  0  0  0  0  0
   24.1650  -20.5945  -15.4649 C   0  0  0  0  0  0  0  0  0  0  0  0
   24.0476  -21.8252  -15.2801 O   0  0  0  0  0  0  0  0  0  0  0  0
   29.4733  -18.2492  -15.0262 C   0  0  0  0  0  0  0  0  0  0  0  0
   27.9418  -18.4982  -15.0234 C   0  0  1  0  0  0  0  0  0  0  0  0
   27.3940  -17.6169  -16.0921 C   0  0  0  0  0  0  0  0  0  0  0  0
   27.8111  -19.9560  -15.2117 C   0  0  0  0  0  0  0  0  0  0  0  0
   26.5952  -20.6612  -14.7798 C   0  0  2  0  0  0  0  0  0  0  0  0
   25.4159  -19.9847  -15.2218 N   0  0  0  0  0  0  0  0  0  0  0  0
   26.5582  -21.0738  -13.3690 C   0  0  0  0  0  0  0  0  0  0  0  0
   27.4130  -21.8429  -12.8396 O   0  0  0  0  0  0  0  0  0  0  0  0
   27.6094  -19.6786   -8.1150 C   0  0  0  0  0  0  0  0  0  0  0  0
   26.5196  -20.3884   -8.8381 C   0  0  1  0  0  0  0  0  0  0  0  0
   25.1568  -20.0149   -8.2236 C   0  0  0  0  0  0  0  0  0  0  0  0
   26.4685  -20.3304  -10.3025 C   0  0  0  0  0  0  0  0  0  0  0  0
   25.4629  -21.0707  -11.0836 C   0  0  2  0  0  0  0  0  0  0  0  0
   25.5343  -20.6173  -12.5090 N   0  0  0  0  0  0  0  0  0  0  0  0
   24.0692  -20.9413  -10.6827 C   0  0  0  0  0  0  0  0  0  0  0  0
   23.1751  -20.2469  -11.2146 O   0  0  0  0  0  0  0  0  0  0  0  0
   23.6022  -21.6700   -9.5525 O   0  0  0  0  0  0  0  0  0  0  0  0
  2  1  1  6
  2 13  1  0
  2  3  1  0
  3  4  1  0
  4  5  2  0
  6  5  1  0
  7  6  1  0
  8  7  2  0
  9  8  1  0
 10  9  2  0
 10 11  1  0
 11 12  2  0
 12  7  1  0
 12  4  1  0
 13 14  2  0
 16 15  1  6
 17 16  1  0
 18 16  1  0
 19 18  1  1
 20 19  1  0
 20 13  1  0
 21 19  1  0
 22 21  2  0
 24 23  1  1
 24 26  1  0
 24 25  1  0
 27 26  1  1
 27 29  1  0
 27 28  1  0
 28 21  1  0
 29 31  1  0
 30 29  2  0
M  END
$$$$
