WLL.pdb
     RDKit          3D

 31 32  0  0  1  0  0  0  0  0999 V2000
   23.6641  -19.4781  -18.8282 N   0  0  0  0  0  0  0  0  0  0  0  0
   23.4014  -19.1563  -17.4380 C   0  0  1  0  0  0  0  0  0  0  0  0
   21.8983  -19.1746  -17.2615 C   0  0  0  0  0  0  0  0  0  0  0  0
   21.2519  -17.9235  -17.6852 C   0  0  0  0  0  0  0  0  0  0  0  0
   20.8201  -17.5999  -18.9541 C   0  0  0  0  0  0  0  0  0  0  0  0
   20.2903  -16.3697  -18.9097 N   0  0  0  0  0  0  0  0  0  0  0  0
   20.3456  -15.8520  -17.6720 C   0  0  0  0  0  0  0  0  0  0  0  0
   19.9377  -14.6468  -17.1408 C   0  0  0  0  0  0  0  0  0  0  0  0
   20.1311  -14.3976  -15.8142 C   0  0  0  0  0  0  0  0  0  0  0  0
   20.7275  -15.3488  -15.0303 C   0  0  0  0  0  0  0  0  0  0  0  0
   21.1288  -16.5365  -15.5571 C   0  0  0  0  0  0  0  0  0  0  0  0
   20.9556  -16.8367  -16.8935 C   0  0  0  0  0  0  0  0  0  0  0  0
   23.9537  -20.1956  -16.5347 C   0  0  0  0  0  0  0  0  0  0  0  0
   23.9930  -21.4076  -16.8380 O   0  0  0  0  0  0  0  0  0  0  0  0
   28.2850  -19.0186  -13.5158 C   0  0  0  0  0  0  0  0  0  0  0  0
   27.2564  -19.6011  -14.5210 C   0  0  1  0  0  0  0  0  0  0  0  0
   28.0250  -20.5558  -15.3676 C   0  0  0  0  0  0  0  0  0  0  0  0
   26.1896  -20.1577  -13.6665 C   0  0  0  0  0  0  0  0  0  0  0  0
   24.9439  -20.6667  -14.2594 C   0  0  2  0  0  0  0  0  0  0  0  0
   24.4558  -19.7903  -15.2780 N   0  0  0  0  0  0  0  0  0  0  0  0
   23.9157  -21.1148  -13.3088 C   0  0  0  0  0  0  0  0  0  0  0  0
   24.1284  -21.9609  -12.3914 O   0  0  0  0  0  0  0  0  0  0  0  0
   19.2698  -19.2222  -10.1039 C   0  0  0  0  0  0  0  0  0  0  0  0
   20.1694  -20.3569  -10.4470 C   0  0  1  0  0  0  0  0  0  0  0  0
   19.3300  -21.6053  -10.7805 C   0  0  0  0  0  0  0  0  0  0  0  0
   21.2335  -20.1600  -11.4367 C   0  0  0  0  0  0  0  0  0  0  0  0
   21.5166  -21.1469  -12.4928 C   0  0  2  0  0  0  0  0  0  0  0  0
   22.5989  -20.6069  -13.3756 N   0  0  0  0  0  0  0  0  0  0  0  0
   20.4206  -21.5243  -13.3738 C   0  0  0  0  0  0  0  0  0  0  0  0
   19.9581  -20.8872  -14.3458 O   0  0  0  0  0  0  0  0  0  0  0  0
   19.7498  -22.7609  -13.1557 O   0  0  0  0  0  0  0  0  0  0  0  0
  2  1  1  6
  2 13  1  0
  2  3  1  0
  3  4  1  0
  4  5  2  0
  6  5  1  0
  7  6  1  0
  8  7  2  0
  9  8  1  0
 10  9  2  0
 10 11  1  0
 11 12  2  0
 12  7  1  0
 12  4  1  0
 13 14  2  0
 16 15  1  1
 17 16  1  0
 18 16  1  0
 19 18  1  1
 20 19  1  0
 20 13  1  0
 21 19  1  0
 22 21  2  0
 24 23  1  6
 24 26  1  0
 24 25  1  0
 27 26  1  1
 27 29  1  0
 27 28  1  0
 28 21  1  0
 29 31  1  0
 30 29  2  0
M  END
$$$$
