WLL.pdb
     RDKit          3D

 31 32  0  0  1  0  0  0  0  0999 V2000
   26.6844  -21.7349  -15.9156 N   0  0  0  0  0  0  0  0  0  0  0  0
   26.1756  -20.7405  -14.9895 C   0  0  1  0  0  0  0  0  0  0  0  0
   25.1949  -19.8848  -15.7621 C   0  0  0  0  0  0  0  0  0  0  0  0
   25.8252  -19.1251  -16.8520 C   0  0  0  0  0  0  0  0  0  0  0  0
   25.4793  -19.1450  -18.1866 C   0  0  0  0  0  0  0  0  0  0  0  0
   26.3017  -18.3124  -18.8398 N   0  0  0  0  0  0  0  0  0  0  0  0
   27.1831  -17.7346  -18.0076 C   0  0  0  0  0  0  0  0  0  0  0  0
   28.2029  -16.8278  -18.2045 C   0  0  0  0  0  0  0  0  0  0  0  0
   28.9479  -16.4132  -17.1404 C   0  0  0  0  0  0  0  0  0  0  0  0
   28.6713  -16.9043  -15.8926 C   0  0  0  0  0  0  0  0  0  0  0  0
   27.6648  -17.7986  -15.7014 C   0  0  0  0  0  0  0  0  0  0  0  0
   26.8822  -18.2492  -16.7457 C   0  0  0  0  0  0  0  0  0  0  0  0
   25.4155  -21.3768  -13.8857 C   0  0  0  0  0  0  0  0  0  0  0  0
   24.9207  -22.5214  -13.9735 O   0  0  0  0  0  0  0  0  0  0  0  0
   26.8065  -20.0566   -8.7005 C   0  0  0  0  0  0  0  0  0  0  0  0
   26.5848  -20.6323  -10.1242 C   0  0  1  0  0  0  0  0  0  0  0  0
   27.2703  -21.9548  -10.1291 C   0  0  0  0  0  0  0  0  0  0  0  0
   25.1187  -20.6265  -10.2933 C   0  0  0  0  0  0  0  0  0  0  0  0
   24.5073  -21.0957  -11.5457 C   0  0  2  0  0  0  0  0  0  0  0  0
   25.2475  -20.6514  -12.6851 N   0  0  0  0  0  0  0  0  0  0  0  0
   23.0539  -20.9062  -11.6619 C   0  0  0  0  0  0  0  0  0  0  0  0
   22.2358  -21.1602  -10.7299 O   0  0  0  0  0  0  0  0  0  0  0  0
   18.6232  -18.0643  -13.6728 C   0  0  0  0  0  0  0  0  0  0  0  0
   19.4074  -18.9513  -14.5744 C   0  0  1  0  0  0  0  0  0  0  0  0
   19.4034  -18.3763  -16.0040 C   0  0  0  0  0  0  0  0  0  0  0  0
   20.7568  -19.3689  -14.1803 C   0  0  0  0  0  0  0  0  0  0  0  0
   21.0116  -20.1527  -12.9596 C   0  0  2  0  0  0  0  0  0  0  0  0
   22.4822  -20.4161  -12.8575 N   0  0  0  0  0  0  0  0  0  0  0  0
   20.3552  -21.4469  -12.8404 C   0  0  0  0  0  0  0  0  0  0  0  0
   19.2958  -21.7213  -12.2346 O   0  0  0  0  0  0  0  0  0  0  0  0
   20.9408  -22.5820  -13.4689 O   0  0  0  0  0  0  0  0  0  0  0  0
  2  1  1  6
  2 13  1  0
  2  3  1  0
  3  4  1  0
  4  5  2  0
  6  5  1  0
  7  6  1  0
  8  7  2  0
  9  8  1  0
 10  9  2  0
 10 11  1  0
 11 12  2  0
 12  7  1  0
 12  4  1  0
 13 14  2  0
 16 15  1  1
 17 16  1  0
 18 16  1  0
 19 18  1  1
 20 19  1  0
 20 13  1  0
 21 19  1  0
 22 21  2  0
 24 23  1  1
 24 26  1  0
 24 25  1  0
 27 26  1  6
 27 29  1  0
 27 28  1  0
 28 21  1  0
 29 31  1  0
 30 29  2  0
M  END
$$$$
