WLL.pdb
     RDKit          3D

 31 32  0  0  1  0  0  0  0  0999 V2000
   23.6828  -20.3734  -16.6204 N   0  0  0  0  0  0  0  0  0  0  0  0
   24.3988  -19.6957  -15.5558 C   0  0  1  0  0  0  0  0  0  0  0  0
   23.3541  -19.1079  -14.6316 C   0  0  0  0  0  0  0  0  0  0  0  0
   22.4771  -18.1331  -15.2972 C   0  0  0  0  0  0  0  0  0  0  0  0
   21.1066  -18.0347  -15.1823 C   0  0  0  0  0  0  0  0  0  0  0  0
   20.6990  -17.0154  -15.9513 N   0  0  0  0  0  0  0  0  0  0  0  0
   21.7302  -16.4250  -16.5768 C   0  0  0  0  0  0  0  0  0  0  0  0
   21.8121  -15.3618  -17.4507 C   0  0  0  0  0  0  0  0  0  0  0  0
   23.0294  -14.9806  -17.9327 C   0  0  0  0  0  0  0  0  0  0  0  0
   24.1516  -15.6603  -17.5408 C   0  0  0  0  0  0  0  0  0  0  0  0
   24.0677  -16.7086  -16.6786 C   0  0  0  0  0  0  0  0  0  0  0  0
   22.8595  -17.1330  -16.1628 C   0  0  0  0  0  0  0  0  0  0  0  0
   25.1948  -20.6550  -14.7513 C   0  0  0  0  0  0  0  0  0  0  0  0
   24.8515  -21.8443  -14.5775 O   0  0  0  0  0  0  0  0  0  0  0  0
   30.0092  -22.1199  -12.9216 C   0  0  0  0  0  0  0  0  0  0  0  0
   29.4851  -20.9086  -12.1056 C   0  0  1  0  0  0  0  0  0  0  0  0
   30.6931  -20.1062  -11.7653 C   0  0  0  0  0  0  0  0  0  0  0  0
   28.4811  -20.2838  -12.9886 C   0  0  0  0  0  0  0  0  0  0  0  0
   27.1728  -20.9200  -13.2032 C   0  0  2  0  0  0  0  0  0  0  0  0
   26.3926  -20.1973  -14.1585 N   0  0  0  0  0  0  0  0  0  0  0  0
   26.4357  -21.2996  -11.9890 C   0  0  0  0  0  0  0  0  0  0  0  0
   26.4800  -22.4548  -11.4728 O   0  0  0  0  0  0  0  0  0  0  0  0
   27.0383  -18.7359   -7.3106 C   0  0  0  0  0  0  0  0  0  0  0  0
   26.6060  -19.8468   -8.2014 C   0  0  1  0  0  0  0  0  0  0  0  0
   26.5743  -21.1681   -7.4092 C   0  0  0  0  0  0  0  0  0  0  0  0
   25.3937  -19.6914   -9.0117 C   0  0  0  0  0  0  0  0  0  0  0  0
   24.9785  -20.6965  -10.0051 C   0  0  2  0  0  0  0  0  0  0  0  0
   25.6163  -20.3640  -11.3186 N   0  0  0  0  0  0  0  0  0  0  0  0
   23.5531  -20.8368  -10.2667 C   0  0  0  0  0  0  0  0  0  0  0  0
   22.9031  -20.4098  -11.2464 O   0  0  0  0  0  0  0  0  0  0  0  0
   22.7417  -21.5369   -9.3296 O   0  0  0  0  0  0  0  0  0  0  0  0
  2  1  1  6
  2 13  1  0
  2  3  1  0
  3  4  1  0
  4  5  2  0
  6  5  1  0
  7  6  1  0
  8  7  2  0
  9  8  1  0
 10  9  2  0
 10 11  1  0
 11 12  2  0
 12  7  1  0
 12  4  1  0
 13 14  2  0
 16 15  1  6
 17 16  1  0
 18 16  1  0
 19 18  1  1
 20 19  1  0
 20 13  1  0
 21 19  1  0
 22 21  2  0
 24 23  1  1
 24 26  1  0
 24 25  1  0
 27 26  1  1
 27 29  1  0
 27 28  1  0
 28 21  1  0
 29 31  1  0
 30 29  2  0
M  END
$$$$
