WLL.pdb
     RDKit          3D

 31 32  0  0  1  0  0  0  0  0999 V2000
   26.5329  -21.4678  -16.1825 N   0  0  0  0  0  0  0  0  0  0  0  0
   25.6320  -20.6337  -15.4093 C   0  0  1  0  0  0  0  0  0  0  0  0
   24.4272  -20.3631  -16.2845 C   0  0  0  0  0  0  0  0  0  0  0  0
   24.7002  -19.3990  -17.3608 C   0  0  0  0  0  0  0  0  0  0  0  0
   25.3344  -19.6496  -18.5593 C   0  0  0  0  0  0  0  0  0  0  0  0
   25.3792  -18.5028  -19.2515 N   0  0  0  0  0  0  0  0  0  0  0  0
   24.8055  -17.4945  -18.5752 C   0  0  0  0  0  0  0  0  0  0  0  0
   24.6121  -16.1608  -18.8663 C   0  0  0  0  0  0  0  0  0  0  0  0
   23.9807  -15.3603  -17.9608 C   0  0  0  0  0  0  0  0  0  0  0  0
   23.5484  -15.8941  -16.7763 C   0  0  0  0  0  0  0  0  0  0  0  0
   23.7405  -17.2100  -16.4920 C   0  0  0  0  0  0  0  0  0  0  0  0
   24.3740  -18.0615  -17.3750 C   0  0  0  0  0  0  0  0  0  0  0  0
   25.1390  -21.3499  -14.2072 C   0  0  0  0  0  0  0  0  0  0  0  0
   25.0535  -22.5955  -14.1464 O   0  0  0  0  0  0  0  0  0  0  0  0
   26.5596  -19.7246   -9.2609 C   0  0  0  0  0  0  0  0  0  0  0  0
   26.2935  -20.5431  -10.5519 C   0  0  1  0  0  0  0  0  0  0  0  0
   26.9517  -21.8608  -10.3297 C   0  0  0  0  0  0  0  0  0  0  0  0
   24.8244  -20.5325  -10.6916 C   0  0  0  0  0  0  0  0  0  0  0  0
   24.1811  -21.1065  -11.8828 C   0  0  2  0  0  0  0  0  0  0  0  0
   24.7509  -20.5841  -13.0854 N   0  0  0  0  0  0  0  0  0  0  0  0
   22.7109  -21.1255  -11.8733 C   0  0  0  0  0  0  0  0  0  0  0  0
   22.0201  -21.5267  -10.8912 O   0  0  0  0  0  0  0  0  0  0  0  0
   19.3396  -17.7275  -15.1194 C   0  0  0  0  0  0  0  0  0  0  0  0
   19.9554  -18.5357  -14.0322 C   0  0  1  0  0  0  0  0  0  0  0  0
   19.4019  -18.0816  -12.6677 C   0  0  0  0  0  0  0  0  0  0  0  0
   19.9613  -19.9985  -14.1357 C   0  0  0  0  0  0  0  0  0  0  0  0
   20.4895  -20.8599  -13.0640 C   0  0  2  0  0  0  0  0  0  0  0  0
   21.9749  -20.6830  -12.9953 N   0  0  0  0  0  0  0  0  0  0  0  0
   20.2529  -22.2924  -13.1725 C   0  0  0  0  0  0  0  0  0  0  0  0
   20.9165  -23.1372  -13.8133 O   0  0  0  0  0  0  0  0  0  0  0  0
   19.1447  -22.8661  -12.4874 O   0  0  0  0  0  0  0  0  0  0  0  0
  2  1  1  6
  2 13  1  0
  2  3  1  0
  3  4  1  0
  4  5  2  0
  6  5  1  0
  7  6  1  0
  8  7  2  0
  9  8  1  0
 10  9  2  0
 10 11  1  0
 11 12  2  0
 12  7  1  0
 12  4  1  0
 13 14  2  0
 16 15  1  1
 17 16  1  0
 18 16  1  0
 19 18  1  1
 20 19  1  0
 20 13  1  0
 21 19  1  0
 22 21  2  0
 24 23  1  6
 24 26  1  0
 24 25  1  0
 27 26  1  6
 27 29  1  0
 27 28  1  0
 28 21  1  0
 29 31  1  0
 30 29  2  0
M  END
$$$$
