WLL.pdb
     RDKit          3D

 31 32  0  0  1  0  0  0  0  0999 V2000
   23.0347  -22.2408  -15.5059 N   0  0  0  0  0  0  0  0  0  0  0  0
   23.5473  -21.1761  -14.6640 C   0  0  1  0  0  0  0  0  0  0  0  0
   22.5815  -21.0296  -13.5079 C   0  0  0  0  0  0  0  0  0  0  0  0
   21.2295  -20.6356  -13.9312 C   0  0  0  0  0  0  0  0  0  0  0  0
   20.1161  -21.4447  -14.0138 C   0  0  0  0  0  0  0  0  0  0  0  0
   19.0906  -20.6951  -14.4412 N   0  0  0  0  0  0  0  0  0  0  0  0
   19.4622  -19.4216  -14.6495 C   0  0  0  0  0  0  0  0  0  0  0  0
   18.7789  -18.3040  -15.0794 C   0  0  0  0  0  0  0  0  0  0  0  0
   19.4392  -17.1167  -15.1965 C   0  0  0  0  0  0  0  0  0  0  0  0
   20.7710  -17.0533  -14.8851 C   0  0  0  0  0  0  0  0  0  0  0  0
   21.4424  -18.1574  -14.4613 C   0  0  0  0  0  0  0  0  0  0  0  0
   20.8194  -19.3820  -14.3263 C   0  0  0  0  0  0  0  0  0  0  0  0
   24.8629  -21.5400  -14.0827 C   0  0  0  0  0  0  0  0  0  0  0  0
   25.1887  -22.7190  -13.8251 O   0  0  0  0  0  0  0  0  0  0  0  0
   29.1356  -18.0940  -15.1087 C   0  0  0  0  0  0  0  0  0  0  0  0
   28.0942  -19.2440  -15.0855 C   0  0  1  0  0  0  0  0  0  0  0  0
   28.6094  -20.2659  -16.0392 C   0  0  0  0  0  0  0  0  0  0  0  0
   28.0071  -19.6256  -13.6626 C   0  0  0  0  0  0  0  0  0  0  0  0
   27.0753  -20.6754  -13.2242 C   0  0  2  0  0  0  0  0  0  0  0  0
   25.7832  -20.5032  -13.8111 N   0  0  0  0  0  0  0  0  0  0  0  0
   27.0478  -20.9483  -11.7798 C   0  0  0  0  0  0  0  0  0  0  0  0
   28.0311  -21.4170  -11.1347 O   0  0  0  0  0  0  0  0  0  0  0  0
   27.9035  -18.4151   -7.4335 C   0  0  0  0  0  0  0  0  0  0  0  0
   27.5623  -19.6600   -8.1739 C   0  0  1  0  0  0  0  0  0  0  0  0
   27.8649  -20.8889   -7.2949 C   0  0  0  0  0  0  0  0  0  0  0  0
   26.2479  -19.7822   -8.8124 C   0  0  0  0  0  0  0  0  0  0  0  0
   25.8423  -20.9903   -9.5509 C   0  0  2  0  0  0  0  0  0  0  0  0
   25.8857  -20.6925  -11.0178 N   0  0  0  0  0  0  0  0  0  0  0  0
   24.5174  -21.5312   -9.2825 C   0  0  0  0  0  0  0  0  0  0  0  0
   23.5579  -21.6504  -10.0761 O   0  0  0  0  0  0  0  0  0  0  0  0
   24.2120  -22.0005   -7.9737 O   0  0  0  0  0  0  0  0  0  0  0  0
  2  1  1  6
  2 13  1  0
  2  3  1  0
  3  4  1  0
  4  5  2  0
  6  5  1  0
  7  6  1  0
  8  7  2  0
  9  8  1  0
 10  9  2  0
 10 11  1  0
 11 12  2  0
 12  7  1  0
 12  4  1  0
 13 14  2  0
 16 15  1  1
 17 16  1  0
 18 16  1  0
 19 18  1  1
 20 19  1  0
 20 13  1  0
 21 19  1  0
 22 21  2  0
 24 23  1  1
 24 26  1  0
 24 25  1  0
 27 26  1  1
 27 29  1  0
 27 28  1  0
 28 21  1  0
 29 31  1  0
 30 29  2  0
M  END
$$$$
