GFG.pdb
     RDKit          3D

 20 20  0  0  1  0  0  0  0  0999 V2000
   25.1984  -25.5233  -15.4699 N   0  0  0  0  0  0  0  0  0  0  0  0
   25.3901  -24.1329  -15.6302 C   0  0  0  0  0  0  0  0  0  0  0  0
   24.9257  -23.3371  -14.4750 C   0  0  0  0  0  0  0  0  0  0  0  0
   23.8751  -23.6972  -13.8989 O   0  0  0  0  0  0  0  0  0  0  0  0
   25.6136  -22.1974  -13.9997 N   0  0  0  0  0  0  0  0  0  0  0  0
   25.1408  -21.3126  -12.9634 C   0  0  1  0  0  0  0  0  0  0  0  0
   26.2113  -20.5049  -12.3289 C   0  0  0  0  0  0  0  0  0  0  0  0
   26.1342  -20.4918  -10.8456 C   0  0  0  0  0  0  0  0  0  0  0  0
   24.9607  -20.0240  -10.2936 C   0  0  0  0  0  0  0  0  0  0  0  0
   24.7755  -19.9656   -8.9352 C   0  0  0  0  0  0  0  0  0  0  0  0
   25.7893  -20.3858   -8.0988 C   0  0  0  0  0  0  0  0  0  0  0  0
   26.9625  -20.8533   -8.6696 C   0  0  0  0  0  0  0  0  0  0  0  0
   27.1524  -20.9134  -10.0347 C   0  0  0  0  0  0  0  0  0  0  0  0
   24.0570  -20.4114  -13.4972 C   0  0  0  0  0  0  0  0  0  0  0  0
   24.2952  -19.4643  -14.2746 O   0  0  0  0  0  0  0  0  0  0  0  0
   22.7083  -20.6358  -13.1104 N   0  0  0  0  0  0  0  0  0  0  0  0
   21.6295  -19.7454  -13.5441 C   0  0  0  0  0  0  0  0  0  0  0  0
   20.3517  -20.2251  -12.9848 C   0  0  0  0  0  0  0  0  0  0  0  0
   19.5839  -21.1592  -13.6913 O   0  0  0  0  0  0  0  0  0  0  0  0
   19.9032  -19.8318  -11.8817 O   0  0  0  0  0  0  0  0  0  0  0  0
  2  1  1  0
  3  2  1  0
  4  3  2  0
  5  3  1  0
  6  5  1  0
  6  7  1  6
  8  7  1  0
  9  8  2  0
 10  9  1  0
 11 12  1  0
 11 10  2  0
 12 13  2  0
 13  8  1  0
 14 15  2  0
 14  6  1  0
 16 14  1  0
 17 18  1  0
 17 16  1  0
 18 19  1  0
 20 18  2  0
M  END
$$$$
