GFG.pdb
     RDKit          3D

 20 20  0  0  1  0  0  0  0  0999 V2000
   28.1226  -18.6093  -14.8474 N   0  0  0  0  0  0  0  0  0  0  0  0
   27.7043  -18.5750  -13.4984 C   0  0  0  0  0  0  0  0  0  0  0  0
   27.1698  -19.8648  -13.0145 C   0  0  0  0  0  0  0  0  0  0  0  0
   27.5772  -20.9121  -13.5644 O   0  0  0  0  0  0  0  0  0  0  0  0
   26.2264  -19.9616  -11.9661 N   0  0  0  0  0  0  0  0  0  0  0  0
   25.7015  -21.1938  -11.4309 C   0  0  1  0  0  0  0  0  0  0  0  0
   25.4016  -21.1381   -9.9790 C   0  0  0  0  0  0  0  0  0  0  0  0
   26.5577  -20.6945   -9.1585 C   0  0  0  0  0  0  0  0  0  0  0  0
   27.7508  -21.3525   -9.3682 C   0  0  0  0  0  0  0  0  0  0  0  0
   28.8858  -21.0287   -8.6684 C   0  0  0  0  0  0  0  0  0  0  0  0
   28.8330  -20.0185   -7.7301 C   0  0  0  0  0  0  0  0  0  0  0  0
   27.6260  -19.3670   -7.5313 C   0  0  0  0  0  0  0  0  0  0  0  0
   26.4828  -19.6897   -8.2329 C   0  0  0  0  0  0  0  0  0  0  0  0
   24.4764  -21.6195  -12.1987 C   0  0  0  0  0  0  0  0  0  0  0  0
   23.9109  -22.7153  -12.0047 O   0  0  0  0  0  0  0  0  0  0  0  0
   23.9325  -20.7516  -13.1836 N   0  0  0  0  0  0  0  0  0  0  0  0
   22.6929  -21.0787  -13.8914 C   0  0  0  0  0  0  0  0  0  0  0  0
   21.5422  -20.7561  -13.0268 C   0  0  0  0  0  0  0  0  0  0  0  0
   21.1668  -19.4217  -12.8285 O   0  0  0  0  0  0  0  0  0  0  0  0
   20.8636  -21.6350  -12.4441 O   0  0  0  0  0  0  0  0  0  0  0  0
  2  1  1  0
  3  2  1  0
  4  3  2  0
  5  3  1  0
  6  5  1  0
  6  7  1  1
  8  7  1  0
  9  8  2  0
 10  9  1  0
 11 12  1  0
 11 10  2  0
 12 13  2  0
 13  8  1  0
 14 15  2  0
 14  6  1  0
 16 14  1  0
 17 18  1  0
 17 16  1  0
 18 19  1  0
 20 18  2  0
M  END
$$$$
