GFG.pdb
     RDKit          3D

 20 20  0  0  1  0  0  0  0  0999 V2000
   21.8997  -21.0282   -7.8163 N   0  0  0  0  0  0  0  0  0  0  0  0
   23.1824  -21.4313   -7.3827 C   0  0  0  0  0  0  0  0  0  0  0  0
   24.2807  -20.6447   -7.9814 C   0  0  0  0  0  0  0  0  0  0  0  0
   24.0307  -19.4766   -8.3534 O   0  0  0  0  0  0  0  0  0  0  0  0
   25.5888  -21.1538   -8.1489 N   0  0  0  0  0  0  0  0  0  0  0  0
   26.7322  -20.3850   -8.5752 C   0  0  1  0  0  0  0  0  0  0  0  0
   27.9797  -20.7060   -7.8393 C   0  0  0  0  0  0  0  0  0  0  0  0
   28.0604  -20.0504   -6.5088 C   0  0  0  0  0  0  0  0  0  0  0  0
   28.3786  -20.8614   -5.4404 C   0  0  0  0  0  0  0  0  0  0  0  0
   28.4813  -20.3666   -4.1647 C   0  0  0  0  0  0  0  0  0  0  0  0
   28.2606  -19.0226   -3.9440 C   0  0  0  0  0  0  0  0  0  0  0  0
   27.9417  -18.2209   -5.0287 C   0  0  0  0  0  0  0  0  0  0  0  0
   27.8376  -18.7148   -6.3127 C   0  0  0  0  0  0  0  0  0  0  0  0
   26.9481  -20.5442  -10.0584 C   0  0  0  0  0  0  0  0  0  0  0  0
   28.0504  -20.3274  -10.6024 O   0  0  0  0  0  0  0  0  0  0  0  0
   25.8658  -20.9564  -10.8816 N   0  0  0  0  0  0  0  0  0  0  0  0
   26.0285  -21.1375  -12.3258 C   0  0  0  0  0  0  0  0  0  0  0  0
   24.8062  -21.7518  -12.8773 C   0  0  0  0  0  0  0  0  0  0  0  0
   24.8857  -22.9566  -13.5866 O   0  0  0  0  0  0  0  0  0  0  0  0
   23.6691  -21.2404  -12.7421 O   0  0  0  0  0  0  0  0  0  0  0  0
  2  1  1  0
  3  2  1  0
  4  3  2  0
  5  3  1  0
  6  5  1  0
  6  7  1  1
  8  7  1  0
  9  8  2  0
 10  9  1  0
 11 12  1  0
 11 10  2  0
 12 13  2  0
 13  8  1  0
 14 15  2  0
 14  6  1  0
 16 14  1  0
 17 18  1  0
 17 16  1  0
 18 19  1  0
 20 18  2  0
M  END
$$$$
