GFG.pdb
     RDKit          3D

 20 20  0  0  1  0  0  0  0  0999 V2000
   29.0255  -21.4815  -16.6390 N   0  0  0  0  0  0  0  0  0  0  0  0
   28.3374  -20.5078  -15.8813 C   0  0  0  0  0  0  0  0  0  0  0  0
   27.5902  -21.0712  -14.7376 C   0  0  0  0  0  0  0  0  0  0  0  0
   27.0496  -22.1899  -14.8839 O   0  0  0  0  0  0  0  0  0  0  0  0
   27.4632  -20.4036  -13.4981 N   0  0  0  0  0  0  0  0  0  0  0  0
   26.6745  -20.8649  -12.3821 C   0  0  1  0  0  0  0  0  0  0  0  0
   27.2739  -20.5650  -11.0586 C   0  0  0  0  0  0  0  0  0  0  0  0
   28.6458  -21.1116  -10.8993 C   0  0  0  0  0  0  0  0  0  0  0  0
   29.5028  -20.9462  -11.9665 C   0  0  0  0  0  0  0  0  0  0  0  0
   30.7939  -21.4099  -11.9333 C   0  0  0  0  0  0  0  0  0  0  0  0
   31.2475  -22.0586  -10.8032 C   0  0  0  0  0  0  0  0  0  0  0  0
   30.3736  -22.2167   -9.7393 C   0  0  0  0  0  0  0  0  0  0  0  0
   29.0749  -21.7519   -9.7689 C   0  0  0  0  0  0  0  0  0  0  0  0
   25.2777  -20.3037  -12.4593 C   0  0  0  0  0  0  0  0  0  0  0  0
   25.0378  -19.0843  -12.3426 O   0  0  0  0  0  0  0  0  0  0  0  0
   24.1823  -21.1831  -12.6728 N   0  0  0  0  0  0  0  0  0  0  0  0
   22.8157  -20.6798  -12.8279 C   0  0  0  0  0  0  0  0  0  0  0  0
   21.9084  -21.8140  -13.0847 C   0  0  0  0  0  0  0  0  0  0  0  0
   22.4306  -23.0974  -13.2878 O   0  0  0  0  0  0  0  0  0  0  0  0
   20.6615  -21.6885  -13.1323 O   0  0  0  0  0  0  0  0  0  0  0  0
  2  1  1  0
  3  2  1  0
  4  3  2  0
  5  3  1  0
  6  5  1  0
  6  7  1  1
  8  7  1  0
  9  8  2  0
 10  9  1  0
 11 12  1  0
 11 10  2  0
 12 13  2  0
 13  8  1  0
 14 15  2  0
 14  6  1  0
 16 14  1  0
 17 18  1  0
 17 16  1  0
 18 19  1  0
 20 18  2  0
M  END
$$$$
