GFG.pdb
     RDKit          3D

 20 20  0  0  1  0  0  0  0  0999 V2000
   26.8662  -23.5479  -16.0039 N   0  0  0  0  0  0  0  0  0  0  0  0
   26.7781  -22.2401  -15.4768 C   0  0  0  0  0  0  0  0  0  0  0  0
   26.0820  -22.1754  -14.1749 C   0  0  0  0  0  0  0  0  0  0  0  0
   25.4102  -23.1689  -13.8188 O   0  0  0  0  0  0  0  0  0  0  0  0
   26.1442  -21.0477  -13.3247 N   0  0  0  0  0  0  0  0  0  0  0  0
   25.3939  -20.8842  -12.1039 C   0  0  1  0  0  0  0  0  0  0  0  0
   26.0366  -19.9776  -11.1210 C   0  0  0  0  0  0  0  0  0  0  0  0
   27.2637  -20.5505  -10.5107 C   0  0  0  0  0  0  0  0  0  0  0  0
   28.2771  -20.9009  -11.3772 C   0  0  0  0  0  0  0  0  0  0  0  0
   29.4566  -21.4391  -10.9277 C   0  0  0  0  0  0  0  0  0  0  0  0
   29.6343  -21.6353   -9.5736 C   0  0  0  0  0  0  0  0  0  0  0  0
   28.6060  -21.2778   -8.7160 C   0  0  0  0  0  0  0  0  0  0  0  0
   27.4188  -20.7364   -9.1641 C   0  0  0  0  0  0  0  0  0  0  0  0
   23.9944  -20.4138  -12.4072 C   0  0  0  0  0  0  0  0  0  0  0  0
   23.7448  -19.5940  -13.3148 O   0  0  0  0  0  0  0  0  0  0  0  0
   22.9078  -20.9134  -11.6401 N   0  0  0  0  0  0  0  0  0  0  0  0
   21.5364  -20.4507  -11.8637 C   0  0  0  0  0  0  0  0  0  0  0  0
   20.8998  -21.3004  -12.8876 C   0  0  0  0  0  0  0  0  0  0  0  0
   19.5037  -21.3714  -12.9705 O   0  0  0  0  0  0  0  0  0  0  0  0
   21.5581  -21.9811  -13.7098 O   0  0  0  0  0  0  0  0  0  0  0  0
  2  1  1  0
  3  2  1  0
  4  3  2  0
  5  3  1  0
  6  5  1  0
  6  7  1  1
  8  7  1  0
  9  8  2  0
 10  9  1  0
 11 12  1  0
 11 10  2  0
 12 13  2  0
 13  8  1  0
 14 15  2  0
 14  6  1  0
 16 14  1  0
 17 18  1  0
 17 16  1  0
 18 19  1  0
 20 18  2  0
M  END
$$$$
