GFG.pdb
     RDKit          3D

 20 20  0  0  1  0  0  0  0  0999 V2000
   31.2795  -22.0019   -9.9168 N   0  0  0  0  0  0  0  0  0  0  0  0
   30.4357  -20.8692   -9.8865 C   0  0  0  0  0  0  0  0  0  0  0  0
   29.1220  -21.1298   -9.2621 C   0  0  0  0  0  0  0  0  0  0  0  0
   28.8205  -22.3162   -9.0033 O   0  0  0  0  0  0  0  0  0  0  0  0
   28.2020  -20.1033   -8.9490 N   0  0  0  0  0  0  0  0  0  0  0  0
   26.9162  -20.3004   -8.3261 C   0  0  1  0  0  0  0  0  0  0  0  0
   26.6591  -19.3941   -7.1800 C   0  0  0  0  0  0  0  0  0  0  0  0
   27.6311  -19.5634   -6.0696 C   0  0  0  0  0  0  0  0  0  0  0  0
   27.4309  -20.6417   -5.2343 C   0  0  0  0  0  0  0  0  0  0  0  0
   28.2648  -20.8983   -4.1753 C   0  0  0  0  0  0  0  0  0  0  0  0
   29.3318  -20.0561   -3.9390 C   0  0  0  0  0  0  0  0  0  0  0  0
   29.5191  -18.9767   -4.7879 C   0  0  0  0  0  0  0  0  0  0  0  0
   28.6829  -18.7154   -5.8537 C   0  0  0  0  0  0  0  0  0  0  0  0
   25.8140  -20.1736   -9.3464 C   0  0  0  0  0  0  0  0  0  0  0  0
   25.7154  -19.1895  -10.1079 O   0  0  0  0  0  0  0  0  0  0  0  0
   24.8433  -21.2052   -9.4580 N   0  0  0  0  0  0  0  0  0  0  0  0
   23.7595  -21.1332  -10.4403 C   0  0  0  0  0  0  0  0  0  0  0  0
   24.2863  -21.4954  -11.7696 C   0  0  0  0  0  0  0  0  0  0  0  0
   24.1191  -20.6224  -12.8516 O   0  0  0  0  0  0  0  0  0  0  0  0
   24.8918  -22.5713  -11.9896 O   0  0  0  0  0  0  0  0  0  0  0  0
  2  1  1  0
  3  2  1  0
  4  3  2  0
  5  3  1  0
  6  5  1  0
  6  7  1  1
  8  7  1  0
  9  8  2  0
 10  9  1  0
 11 12  1  0
 11 10  2  0
 12 13  2  0
 13  8  1  0
 14 15  2  0
 14  6  1  0
 16 14  1  0
 17 18  1  0
 17 16  1  0
 18 19  1  0
 20 18  2  0
M  END
$$$$
