GFG.pdb
     RDKit          3D

 20 20  0  0  1  0  0  0  0  0999 V2000
   29.6758  -21.7594  -12.0184 N   0  0  0  0  0  0  0  0  0  0  0  0
   29.5442  -20.9615  -10.8601 C   0  0  0  0  0  0  0  0  0  0  0  0
   28.2470  -21.1303  -10.1728 C   0  0  0  0  0  0  0  0  0  0  0  0
   27.5515  -22.1273  -10.4688 O   0  0  0  0  0  0  0  0  0  0  0  0
   27.7655  -20.2200   -9.2044 N   0  0  0  0  0  0  0  0  0  0  0  0
   26.4715  -20.2869   -8.5709 C   0  0  1  0  0  0  0  0  0  0  0  0
   26.3501  -19.4355   -7.3621 C   0  0  0  0  0  0  0  0  0  0  0  0
   27.4193  -19.6833   -6.3611 C   0  0  0  0  0  0  0  0  0  0  0  0
   27.2858  -20.8141   -5.5840 C   0  0  0  0  0  0  0  0  0  0  0  0
   28.2118  -21.1450   -4.6269 C   0  0  0  0  0  0  0  0  0  0  0  0
   29.3053  -20.3256   -4.4362 C   0  0  0  0  0  0  0  0  0  0  0  0
   29.4247  -19.1927   -5.2256 C   0  0  0  0  0  0  0  0  0  0  0  0
   28.4959  -18.8567   -6.1888 C   0  0  0  0  0  0  0  0  0  0  0  0
   25.3855  -19.9449   -9.5587 C   0  0  0  0  0  0  0  0  0  0  0  0
   25.5563  -19.1270  -10.4860 O   0  0  0  0  0  0  0  0  0  0  0  0
   24.1143  -20.5689   -9.4432 N   0  0  0  0  0  0  0  0  0  0  0  0
   23.0208  -20.2546  -10.3653 C   0  0  0  0  0  0  0  0  0  0  0  0
   23.0541  -21.2010  -11.4961 C   0  0  0  0  0  0  0  0  0  0  0  0
   24.0723  -21.1138  -12.4535 O   0  0  0  0  0  0  0  0  0  0  0  0
   22.1975  -22.1037  -11.6512 O   0  0  0  0  0  0  0  0  0  0  0  0
  2  1  1  0
  3  2  1  0
  4  3  2  0
  5  3  1  0
  6  5  1  0
  6  7  1  1
  8  7  1  0
  9  8  2  0
 10  9  1  0
 11 12  1  0
 11 10  2  0
 12 13  2  0
 13  8  1  0
 14 15  2  0
 14  6  1  0
 16 14  1  0
 17 18  1  0
 17 16  1  0
 18 19  1  0
 20 18  2  0
M  END
$$$$
