GFG.pdb
     RDKit          3D

 20 20  0  0  1  0  0  0  0  0999 V2000
   28.6851  -22.0492  -17.0263 N   0  0  0  0  0  0  0  0  0  0  0  0
   27.7055  -21.1010  -16.6560 C   0  0  0  0  0  0  0  0  0  0  0  0
   26.8923  -21.5171  -15.4945 C   0  0  0  0  0  0  0  0  0  0  0  0
   26.7638  -22.7425  -15.2770 O   0  0  0  0  0  0  0  0  0  0  0  0
   26.2604  -20.5958  -14.6284 N   0  0  0  0  0  0  0  0  0  0  0  0
   25.4912  -20.9460  -13.4597 C   0  0  1  0  0  0  0  0  0  0  0  0
   25.9638  -20.2957  -12.2128 C   0  0  0  0  0  0  0  0  0  0  0  0
   27.3634  -20.6488  -11.8621 C   0  0  0  0  0  0  0  0  0  0  0  0
   28.3542  -20.0823  -12.6354 C   0  0  0  0  0  0  0  0  0  0  0  0
   29.6829  -20.3358  -12.4047 C   0  0  0  0  0  0  0  0  0  0  0  0
   30.0380  -21.1793  -11.3722 C   0  0  0  0  0  0  0  0  0  0  0  0
   29.0300  -21.7406  -10.6043 C   0  0  0  0  0  0  0  0  0  0  0  0
   27.6931  -21.4882  -10.8332 C   0  0  0  0  0  0  0  0  0  0  0  0
   24.0314  -20.6436  -13.6824 C   0  0  0  0  0  0  0  0  0  0  0  0
   23.6261  -19.5155  -14.0305 O   0  0  0  0  0  0  0  0  0  0  0  0
   23.0684  -21.6711  -13.4934 N   0  0  0  0  0  0  0  0  0  0  0  0
   21.6499  -21.4536  -13.7854 C   0  0  0  0  0  0  0  0  0  0  0  0
   20.9282  -21.2064  -12.5230 C   0  0  0  0  0  0  0  0  0  0  0  0
   20.3207  -22.2693  -11.8431 O   0  0  0  0  0  0  0  0  0  0  0  0
   20.8261  -20.0659  -12.0116 O   0  0  0  0  0  0  0  0  0  0  0  0
  2  1  1  0
  3  2  1  0
  4  3  2  0
  5  3  1  0
  6  5  1  0
  6  7  1  1
  8  7  1  0
  9  8  2  0
 10  9  1  0
 11 12  1  0
 11 10  2  0
 12 13  2  0
 13  8  1  0
 14 15  2  0
 14  6  1  0
 16 14  1  0
 17 18  1  0
 17 16  1  0
 18 19  1  0
 20 18  2  0
M  END
$$$$
