GFG.pdb
     RDKit          3D

 20 20  0  0  1  0  0  0  0  0999 V2000
   28.3375  -17.3463  -17.0125 N   0  0  0  0  0  0  0  0  0  0  0  0
   28.1279  -18.6712  -16.5693 C   0  0  0  0  0  0  0  0  0  0  0  0
   27.2155  -18.7675  -15.4109 C   0  0  0  0  0  0  0  0  0  0  0  0
   26.9090  -17.7104  -14.8161 O   0  0  0  0  0  0  0  0  0  0  0  0
   26.6807  -19.9932  -14.9529 N   0  0  0  0  0  0  0  0  0  0  0  0
   25.6375  -20.1285  -13.9663 C   0  0  1  0  0  0  0  0  0  0  0  0
   24.4176  -20.8052  -14.4712 C   0  0  0  0  0  0  0  0  0  0  0  0
   23.6477  -19.9807  -15.4375 C   0  0  0  0  0  0  0  0  0  0  0  0
   22.7446  -19.0868  -14.9027 C   0  0  0  0  0  0  0  0  0  0  0  0
   21.9779  -18.2730  -15.6981 C   0  0  0  0  0  0  0  0  0  0  0  0
   22.1132  -18.3502  -17.0690 C   0  0  0  0  0  0  0  0  0  0  0  0
   23.0253  -19.2539  -17.5907 C   0  0  0  0  0  0  0  0  0  0  0  0
   23.7979  -20.0737  -16.7943 C   0  0  0  0  0  0  0  0  0  0  0  0
   26.1595  -20.8414  -12.7451 C   0  0  0  0  0  0  0  0  0  0  0  0
   27.1809  -21.5584  -12.7730 O   0  0  0  0  0  0  0  0  0  0  0  0
   25.4744  -20.7015  -11.5082 N   0  0  0  0  0  0  0  0  0  0  0  0
   26.0265  -21.2383  -10.2625 C   0  0  0  0  0  0  0  0  0  0  0  0
   25.0912  -20.9564   -9.1574 C   0  0  0  0  0  0  0  0  0  0  0  0
   23.9066  -20.2515   -9.4042 O   0  0  0  0  0  0  0  0  0  0  0  0
   25.3044  -21.3232   -7.9773 O   0  0  0  0  0  0  0  0  0  0  0  0
  2  1  1  0
  3  2  1  0
  4  3  2  0
  5  3  1  0
  6  5  1  0
  6  7  1  6
  8  7  1  0
  9  8  2  0
 10  9  1  0
 11 12  1  0
 11 10  2  0
 12 13  2  0
 13  8  1  0
 14 15  2  0
 14  6  1  0
 16 14  1  0
 17 18  1  0
 17 16  1  0
 18 19  1  0
 20 18  2  0
M  END
$$$$
