GFG.pdb
     RDKit          3D

 20 20  0  0  1  0  0  0  0  0999 V2000
   23.2245    3.4770    1.4415 N   0  0  0  0  0  0  0  0  0  0  0  0
   23.3219    4.1134    0.1841 C   0  0  0  0  0  0  0  0  0  0  0  0
   24.2896    3.4697   -0.7285 C   0  0  0  0  0  0  0  0  0  0  0  0
   25.5088    3.6158   -0.4887 O   0  0  0  0  0  0  0  0  0  0  0  0
   23.8970    2.7034   -1.8497 N   0  0  0  0  0  0  0  0  0  0  0  0
   24.7958    2.0067   -2.7368 C   0  0  1  0  0  0  0  0  0  0  0  0
   24.5030    0.5587   -2.8723 C   0  0  0  0  0  0  0  0  0  0  0  0
   24.7082   -0.2011   -1.6125 C   0  0  0  0  0  0  0  0  0  0  0  0
   26.0042   -0.2904   -1.1509 C   0  0  0  0  0  0  0  0  0  0  0  0
   26.3141   -0.9668    0.0021 C   0  0  0  0  0  0  0  0  0  0  0  0
   25.3036   -1.5737    0.7190 C   0  0  0  0  0  0  0  0  0  0  0  0
   24.0063   -1.4746    0.2415 C   0  0  0  0  0  0  0  0  0  0  0  0
   23.6907   -0.7955   -0.9172 C   0  0  0  0  0  0  0  0  0  0  0  0
   24.8082    2.6636   -4.0933 C   0  0  0  0  0  0  0  0  0  0  0  0
   23.7652    3.0470   -4.6619 O   0  0  0  0  0  0  0  0  0  0  0  0
   26.0459    2.8614   -4.7625 N   0  0  0  0  0  0  0  0  0  0  0  0
   26.1179    3.5590   -6.0482 C   0  0  0  0  0  0  0  0  0  0  0  0
   26.1647    5.0135   -5.8076 C   0  0  0  0  0  0  0  0  0  0  0  0
   27.3953    5.6525   -5.6121 O   0  0  0  0  0  0  0  0  0  0  0  0
   25.1351    5.7284   -5.7677 O   0  0  0  0  0  0  0  0  0  0  0  0
  2  1  1  0
  3  2  1  0
  4  3  2  0
  5  3  1  0
  6  5  1  0
  6  7  1  6
  8  7  1  0
  9  8  2  0
 10  9  1  0
 11 12  1  0
 11 10  2  0
 12 13  2  0
 13  8  1  0
 14 15  2  0
 14  6  1  0
 16 14  1  0
 17 18  1  0
 17 16  1  0
 18 19  1  0
 20 18  2  0
M  END
$$$$
