GFG.pdb
     RDKit          3D

 20 20  0  0  1  0  0  0  0  0999 V2000
   28.4829  -20.8923  -14.7509 N   0  0  0  0  0  0  0  0  0  0  0  0
   27.8641  -20.0416  -13.8080 C   0  0  0  0  0  0  0  0  0  0  0  0
   26.8849  -20.7332  -12.9440 C   0  0  0  0  0  0  0  0  0  0  0  0
   26.5259  -21.8863  -13.2706 O   0  0  0  0  0  0  0  0  0  0  0  0
   26.3435  -20.1503  -11.7756 N   0  0  0  0  0  0  0  0  0  0  0  0
   25.3277  -20.7461  -10.9429 C   0  0  1  0  0  0  0  0  0  0  0  0
   25.4124  -20.3494   -9.5158 C   0  0  0  0  0  0  0  0  0  0  0  0
   26.7908  -20.4251   -8.9674 C   0  0  0  0  0  0  0  0  0  0  0  0
   27.0656  -19.6256   -7.8785 C   0  0  0  0  0  0  0  0  0  0  0  0
   28.3041  -19.6121   -7.2878 C   0  0  0  0  0  0  0  0  0  0  0  0
   29.3011  -20.4192   -7.7958 C   0  0  0  0  0  0  0  0  0  0  0  0
   29.0086  -21.2170   -8.8907 C   0  0  0  0  0  0  0  0  0  0  0  0
   27.7648  -21.2333   -9.4873 C   0  0  0  0  0  0  0  0  0  0  0  0
   23.9562  -20.4388  -11.4873 C   0  0  0  0  0  0  0  0  0  0  0  0
   23.6798  -19.3505  -12.0324 O   0  0  0  0  0  0  0  0  0  0  0  0
   22.9287  -21.4148  -11.3839 N   0  0  0  0  0  0  0  0  0  0  0  0
   21.5723  -21.1524  -11.8696 C   0  0  0  0  0  0  0  0  0  0  0  0
   21.4394  -21.6776  -13.2415 C   0  0  0  0  0  0  0  0  0  0  0  0
   20.3242  -22.4487  -13.5920 O   0  0  0  0  0  0  0  0  0  0  0  0
   22.2933  -21.4656  -14.1352 O   0  0  0  0  0  0  0  0  0  0  0  0
  2  1  1  0
  3  2  1  0
  4  3  2  0
  5  3  1  0
  6  5  1  0
  6  7  1  1
  8  7  1  0
  9  8  2  0
 10  9  1  0
 11 12  1  0
 11 10  2  0
 12 13  2  0
 13  8  1  0
 14 15  2  0
 14  6  1  0
 16 14  1  0
 17 18  1  0
 17 16  1  0
 18 19  1  0
 20 18  2  0
M  END
$$$$
