GFG.pdb
     RDKit          3D

 20 20  0  0  1  0  0  0  0  0999 V2000
   31.3618  -22.1200  -10.2725 N   0  0  0  0  0  0  0  0  0  0  0  0
   30.5377  -20.9864  -10.0950 C   0  0  0  0  0  0  0  0  0  0  0  0
   29.1986  -21.3095   -9.5602 C   0  0  0  0  0  0  0  0  0  0  0  0
   28.8895  -22.5160   -9.4421 O   0  0  0  0  0  0  0  0  0  0  0  0
   28.2627  -20.3203   -9.1808 N   0  0  0  0  0  0  0  0  0  0  0  0
   26.9333  -20.5796   -8.6852 C   0  0  1  0  0  0  0  0  0  0  0  0
   26.5385  -19.7163   -7.5452 C   0  0  0  0  0  0  0  0  0  0  0  0
   27.4932  -19.7737   -6.4086 C   0  0  0  0  0  0  0  0  0  0  0  0
   27.3808  -20.8571   -5.5634 C   0  0  0  0  0  0  0  0  0  0  0  0
   28.2083  -21.0159   -4.4804 C   0  0  0  0  0  0  0  0  0  0  0  0
   29.1785  -20.0676   -4.2296 C   0  0  0  0  0  0  0  0  0  0  0  0
   29.2784  -18.9846   -5.0887 C   0  0  0  0  0  0  0  0  0  0  0  0
   28.4483  -18.8215   -6.1785 C   0  0  0  0  0  0  0  0  0  0  0  0
   25.9256  -20.4616   -9.7999 C   0  0  0  0  0  0  0  0  0  0  0  0
   25.9232  -19.5059  -10.6029 O   0  0  0  0  0  0  0  0  0  0  0  0
   24.9351  -21.4683   -9.9557 N   0  0  0  0  0  0  0  0  0  0  0  0
   24.1335  -21.5707  -11.1771 C   0  0  0  0  0  0  0  0  0  0  0  0
   22.8567  -20.8592  -10.9791 C   0  0  0  0  0  0  0  0  0  0  0  0
   22.5506  -19.7380  -11.7603 O   0  0  0  0  0  0  0  0  0  0  0  0
   22.0076  -21.2128  -10.1267 O   0  0  0  0  0  0  0  0  0  0  0  0
  2  1  1  0
  3  2  1  0
  4  3  2  0
  5  3  1  0
  6  5  1  0
  6  7  1  1
  8  7  1  0
  9  8  2  0
 10  9  1  0
 11 12  1  0
 11 10  2  0
 12 13  2  0
 13  8  1  0
 14 15  2  0
 14  6  1  0
 16 14  1  0
 17 18  1  0
 17 16  1  0
 18 19  1  0
 20 18  2  0
M  END
$$$$
