QSC.pdb
     RDKit          3D

 22 21  0  0  1  0  0  0  0  0999 V2000
   23.3591  -13.7984  -16.4476 N   0  0  0  0  0  0  0  0  0  0  0  0
   23.6121  -13.9062  -17.8298 C   0  0  0  0  0  0  0  0  0  0  0  0
   23.9749  -14.9914  -18.3349 O   0  0  0  0  0  0  0  0  0  0  0  0
   23.4528  -12.7407  -18.7012 C   0  0  0  0  0  0  0  0  0  0  0  0
   22.9966  -11.5068  -17.9452 C   0  0  0  0  0  0  0  0  0  0  0  0
   21.4907  -11.6049  -17.7248 C   0  0  2  0  0  0  0  0  0  0  0  0
   20.8608  -11.9320  -18.9717 N   0  0  0  0  0  0  0  0  0  0  0  0
   21.0086  -10.2745  -17.2397 C   0  0  0  0  0  0  0  0  0  0  0  0
   21.1031   -9.2556  -17.9694 O   0  0  0  0  0  0  0  0  0  0  0  0
   17.9626  -10.0674  -14.6026 O   0  0  0  0  0  0  0  0  0  0  0  0
   18.9557   -9.1685  -14.2869 C   0  0  0  0  0  0  0  0  0  0  0  0
   19.8995   -8.9303  -15.4590 C   0  0  2  0  0  0  0  0  0  0  0  0
   20.4435  -10.1695  -15.9495 N   0  0  0  0  0  0  0  0  0  0  0  0
   21.0058   -8.0472  -15.0153 C   0  0  0  0  0  0  0  0  0  0  0  0
   22.0061   -8.5447  -14.4118 O   0  0  0  0  0  0  0  0  0  0  0  0
   20.9334   -6.6641  -15.2691 N   0  0  0  0  0  0  0  0  0  0  0  0
   22.0721   -5.8123  -14.9985 C   0  0  1  0  0  0  0  0  0  0  0  0
   22.0328   -4.6979  -16.0332 C   0  0  0  0  0  0  0  0  0  0  0  0
   22.0310   -5.3698  -17.7057 S   0  0  0  0  0  0  0  0  0  0  0  0
   21.9689   -5.2868  -13.6255 C   0  0  0  0  0  0  0  0  0  0  0  0
   20.8754   -5.3400  -13.0047 O   0  0  0  0  0  0  0  0  0  0  0  0
   23.0390   -4.7166  -12.9499 O   0  0  0  0  0  0  0  0  0  0  0  0
  2  1  1  0
  2  3  2  0
  4  5  1  0
  4  2  1  0
  6  8  1  0
  6  5  1  0
  6  7  1  6
  8 13  1  0
  9  8  2  0
 10 11  1  0
 12 11  1  1
 12 14  1  0
 13 12  1  0
 14 15  2  0
 14 16  1  0
 16 17  1  0
 17 18  1  6
 17 20  1  0
 19 18  1  0
 20 22  1  0
 21 20  2  0
M  END
$$$$
