QSC.pdb
     RDKit          3D

 22 21  0  0  1  0  0  0  0  0999 V2000
   27.0225  -23.8260  -16.3502 N   0  0  0  0  0  0  0  0  0  0  0  0
   28.2434  -23.1593  -16.5761 C   0  0  0  0  0  0  0  0  0  0  0  0
   29.3153  -23.6037  -16.1091 O   0  0  0  0  0  0  0  0  0  0  0  0
   28.2753  -21.9276  -17.3666 C   0  0  0  0  0  0  0  0  0  0  0  0
   26.9158  -21.5656  -17.9351 C   0  0  0  0  0  0  0  0  0  0  0  0
   26.3966  -20.3352  -17.1986 C   0  0  2  0  0  0  0  0  0  0  0  0
   27.3987  -19.8934  -16.2717 N   0  0  0  0  0  0  0  0  0  0  0  0
   25.1549  -20.7286  -16.4630 C   0  0  0  0  0  0  0  0  0  0  0  0
   24.1553  -21.1676  -17.0856 O   0  0  0  0  0  0  0  0  0  0  0  0
   23.2076  -21.5451  -12.0765 O   0  0  0  0  0  0  0  0  0  0  0  0
   24.2939  -21.1335  -12.8143 C   0  0  0  0  0  0  0  0  0  0  0  0
   23.9587  -21.0043  -14.2949 C   0  0  2  0  0  0  0  0  0  0  0  0
   25.1122  -20.6032  -15.0568 N   0  0  0  0  0  0  0  0  0  0  0  0
   22.8836  -19.9955  -14.4594 C   0  0  0  0  0  0  0  0  0  0  0  0
   23.1513  -18.7614  -14.3260 O   0  0  0  0  0  0  0  0  0  0  0  0
   21.5754  -20.4192  -14.7622 N   0  0  0  0  0  0  0  0  0  0  0  0
   20.4996  -19.4551  -14.8555 C   0  0  1  0  0  0  0  0  0  0  0  0
   20.6239  -18.8009  -16.2232 C   0  0  0  0  0  0  0  0  0  0  0  0
   19.4541  -17.4408  -16.3967 S   0  0  0  0  0  0  0  0  0  0  0  0
   19.2101  -20.1511  -14.6981 C   0  0  0  0  0  0  0  0  0  0  0  0
   19.1433  -21.4019  -14.8208 O   0  0  0  0  0  0  0  0  0  0  0  0
   18.0227  -19.4912  -14.4131 O   0  0  0  0  0  0  0  0  0  0  0  0
  2  1  1  0
  2  3  2  0
  4  5  1  0
  4  2  1  0
  6  8  1  0
  6  5  1  0
  6  7  1  1
  8 13  1  0
  9  8  2  0
 10 11  1  0
 12 11  1  1
 12 14  1  0
 13 12  1  0
 14 15  2  0
 14 16  1  0
 16 17  1  0
 17 18  1  6
 17 20  1  0
 19 18  1  0
 20 22  1  0
 21 20  2  0
M  END
$$$$
