QSC.pdb
     RDKit          3D

 22 21  0  0  1  0  0  0  0  0999 V2000
   27.2472  -20.0232  -18.2917 N   0  0  0  0  0  0  0  0  0  0  0  0
   28.4962  -19.5532  -17.8385 C   0  0  0  0  0  0  0  0  0  0  0  0
   29.1776  -18.7660  -18.5316 O   0  0  0  0  0  0  0  0  0  0  0  0
   29.0182  -19.9828  -16.5401 C   0  0  0  0  0  0  0  0  0  0  0  0
   28.0401  -20.8598  -15.7808 C   0  0  0  0  0  0  0  0  0  0  0  0
   27.1446  -19.9624  -14.9331 C   0  0  2  0  0  0  0  0  0  0  0  0
   27.9613  -19.2462  -13.9957 N   0  0  0  0  0  0  0  0  0  0  0  0
   26.1736  -20.8367  -14.2048 C   0  0  0  0  0  0  0  0  0  0  0  0
   25.4774  -21.6766  -14.8288 O   0  0  0  0  0  0  0  0  0  0  0  0
   25.3769  -19.9726  -10.1461 O   0  0  0  0  0  0  0  0  0  0  0  0
   25.1865  -21.2642  -10.5810 C   0  0  0  0  0  0  0  0  0  0  0  0
   24.9583  -21.3286  -12.0861 C   0  0  2  0  0  0  0  0  0  0  0  0
   26.0430  -20.7120  -12.8039 N   0  0  0  0  0  0  0  0  0  0  0  0
   23.6909  -20.6299  -12.4118 C   0  0  0  0  0  0  0  0  0  0  0  0
   23.7085  -19.3929  -12.6978 O   0  0  0  0  0  0  0  0  0  0  0  0
   22.4800  -21.3485  -12.3999 N   0  0  0  0  0  0  0  0  0  0  0  0
   21.2434  -20.7004  -12.7822 C   0  0  1  0  0  0  0  0  0  0  0  0
   21.0540  -20.9739  -14.2666 C   0  0  0  0  0  0  0  0  0  0  0  0
   19.3977  -20.5069  -14.8026 S   0  0  0  0  0  0  0  0  0  0  0  0
   20.1381  -21.2534  -11.9795 C   0  0  0  0  0  0  0  0  0  0  0  0
   20.1199  -22.4753  -11.6786 O   0  0  0  0  0  0  0  0  0  0  0  0
   19.0783  -20.4848  -11.5180 O   0  0  0  0  0  0  0  0  0  0  0  0
  2  1  1  0
  2  3  2  0
  4  5  1  0
  4  2  1  0
  6  8  1  0
  6  5  1  0
  6  7  1  1
  8 13  1  0
  9  8  2  0
 10 11  1  0
 12 11  1  1
 12 14  1  0
 13 12  1  0
 14 15  2  0
 14 16  1  0
 16 17  1  0
 17 18  1  6
 17 20  1  0
 19 18  1  0
 20 22  1  0
 21 20  2  0
M  END
$$$$
