QSC.pdb
     RDKit          3D

 22 21  0  0  1  0  0  0  0  0999 V2000
   20.4166   -8.2566  -19.7586 N   0  0  0  0  0  0  0  0  0  0  0  0
   19.4232   -8.3317  -18.7618 C   0  0  0  0  0  0  0  0  0  0  0  0
   18.6306   -7.3831  -18.5705 O   0  0  0  0  0  0  0  0  0  0  0  0
   19.3035   -9.5299  -17.9294 C   0  0  0  0  0  0  0  0  0  0  0  0
   19.3490   -9.2149  -16.4459 C   0  0  0  0  0  0  0  0  0  0  0  0
   20.8069   -9.0394  -16.0340 C   0  0  2  0  0  0  0  0  0  0  0  0
   21.3886  -10.3346  -15.8276 N   0  0  0  0  0  0  0  0  0  0  0  0
   20.8345   -8.2555  -14.7603 C   0  0  0  0  0  0  0  0  0  0  0  0
   20.5968   -8.8150  -13.6603 O   0  0  0  0  0  0  0  0  0  0  0  0
   21.7497   -3.9169  -12.7364 O   0  0  0  0  0  0  0  0  0  0  0  0
   21.7708   -4.7106  -13.8604 C   0  0  0  0  0  0  0  0  0  0  0  0
   21.1043   -6.0587  -13.6160 C   0  0  2  0  0  0  0  0  0  0  0  0
   21.1309   -6.8751  -14.8013 N   0  0  0  0  0  0  0  0  0  0  0  0
   19.6972   -5.8331  -13.2038 C   0  0  0  0  0  0  0  0  0  0  0  0
   18.8064   -5.6317  -14.0861 O   0  0  0  0  0  0  0  0  0  0  0  0
   19.3650   -5.8448  -11.8355 N   0  0  0  0  0  0  0  0  0  0  0  0
   18.0170   -5.5340  -11.4095 C   0  0  1  0  0  0  0  0  0  0  0  0
   17.9130   -5.9687   -9.9555 C   0  0  0  0  0  0  0  0  0  0  0  0
   16.2320   -5.7617   -9.3387 S   0  0  0  0  0  0  0  0  0  0  0  0
   17.7809   -4.0876  -11.5654 C   0  0  0  0  0  0  0  0  0  0  0  0
   16.6207   -3.6156  -11.4416 O   0  0  0  0  0  0  0  0  0  0  0  0
   18.7926   -3.1810  -11.8502 O   0  0  0  0  0  0  0  0  0  0  0  0
  2  1  1  0
  2  3  2  0
  4  5  1  0
  4  2  1  0
  6  8  1  0
  6  5  1  0
  6  7  1  1
  8 13  1  0
  9  8  2  0
 10 11  1  0
 12 11  1  6
 12 14  1  0
 13 12  1  0
 14 15  2  0
 14 16  1  0
 16 17  1  0
 17 18  1  1
 17 20  1  0
 19 18  1  0
 20 22  1  0
 21 20  2  0
M  END
$$$$
