QSC.pdb
     RDKit          3D

 22 21  0  0  1  0  0  0  0  0999 V2000
   28.1238  -11.6405  -15.0375 N   0  0  0  0  0  0  0  0  0  0  0  0
   27.8915  -10.7998  -16.1445 C   0  0  0  0  0  0  0  0  0  0  0  0
   28.7851  -10.5941  -16.9952 O   0  0  0  0  0  0  0  0  0  0  0  0
   26.5910  -10.1500  -16.3162 C   0  0  0  0  0  0  0  0  0  0  0  0
   25.6712  -10.3659  -15.1289 C   0  0  0  0  0  0  0  0  0  0  0  0
   24.4800  -11.2011  -15.5865 C   0  0  2  0  0  0  0  0  0  0  0  0
   24.9555  -12.2680  -16.4197 N   0  0  0  0  0  0  0  0  0  0  0  0
   23.5650  -10.3102  -16.3656 C   0  0  0  0  0  0  0  0  0  0  0  0
   23.7515  -10.1197  -17.5938 O   0  0  0  0  0  0  0  0  0  0  0  0
   19.8809   -9.6326  -14.7627 O   0  0  0  0  0  0  0  0  0  0  0  0
   20.0803   -9.4969  -16.1176 C   0  0  0  0  0  0  0  0  0  0  0  0
   21.4709   -8.9621  -16.4360 C   0  0  2  0  0  0  0  0  0  0  0  0
   22.4843   -9.6809  -15.7091 N   0  0  0  0  0  0  0  0  0  0  0  0
   21.5294   -7.5249  -16.0731 C   0  0  0  0  0  0  0  0  0  0  0  0
   22.0134   -7.1770  -14.9519 O   0  0  0  0  0  0  0  0  0  0  0  0
   21.0461   -6.5608  -16.9784 N   0  0  0  0  0  0  0  0  0  0  0  0
   21.0946   -5.1540  -16.6407 C   0  0  1  0  0  0  0  0  0  0  0  0
   20.9304   -4.3910  -17.9464 C   0  0  0  0  0  0  0  0  0  0  0  0
   21.0465   -2.6130  -17.6738 S   0  0  0  0  0  0  0  0  0  0  0  0
   20.0124   -4.8466  -15.6887 C   0  0  0  0  0  0  0  0  0  0  0  0
   18.9422   -5.5088  -15.7067 O   0  0  0  0  0  0  0  0  0  0  0  0
   20.1018   -3.8374  -14.7399 O   0  0  0  0  0  0  0  0  0  0  0  0
  2  1  1  0
  2  3  2  0
  4  5  1  0
  4  2  1  0
  6  8  1  0
  6  5  1  0
  6  7  1  6
  8 13  1  0
  9  8  2  0
 10 11  1  0
 12 11  1  1
 12 14  1  0
 13 12  1  0
 14 15  2  0
 14 16  1  0
 16 17  1  0
 17 18  1  6
 17 20  1  0
 19 18  1  0
 20 22  1  0
 21 20  2  0
M  END
$$$$
