QSC.pdb
     RDKit          3D

 22 21  0  0  1  0  0  0  0  0999 V2000
   18.4004  -14.4722  -14.7931 N   0  0  0  0  0  0  0  0  0  0  0  0
   18.0412  -14.5571  -16.1533 C   0  0  0  0  0  0  0  0  0  0  0  0
   17.6985  -15.6475  -16.6615 O   0  0  0  0  0  0  0  0  0  0  0  0
   18.0640  -13.3615  -16.9975 C   0  0  0  0  0  0  0  0  0  0  0  0
   18.3766  -12.1009  -16.2129 C   0  0  0  0  0  0  0  0  0  0  0  0
   19.3002  -11.2255  -17.0536 C   0  0  2  0  0  0  0  0  0  0  0  0
   20.1908  -12.0711  -17.7954 N   0  0  0  0  0  0  0  0  0  0  0  0
   20.0789  -10.3509  -16.1229 C   0  0  0  0  0  0  0  0  0  0  0  0
   19.7625  -10.2676  -14.9094 O   0  0  0  0  0  0  0  0  0  0  0  0
   23.5704   -8.4620  -17.5336 O   0  0  0  0  0  0  0  0  0  0  0  0
   23.4338   -8.7697  -16.1992 C   0  0  0  0  0  0  0  0  0  0  0  0
   21.9737   -8.7733  -15.7640 C   0  0  2  0  0  0  0  0  0  0  0  0
   21.1778   -9.6150  -16.6186 N   0  0  0  0  0  0  0  0  0  0  0  0
   21.4522   -7.3855  -15.8143 C   0  0  0  0  0  0  0  0  0  0  0  0
   20.9829   -6.9274  -16.9016 O   0  0  0  0  0  0  0  0  0  0  0  0
   21.4840   -6.5902  -14.6528 N   0  0  0  0  0  0  0  0  0  0  0  0
   21.0685   -5.2046  -14.7059 C   0  0  1  0  0  0  0  0  0  0  0  0
   19.6886   -5.1432  -14.0686 C   0  0  0  0  0  0  0  0  0  0  0  0
   19.2015   -3.4379  -13.7470 S   0  0  0  0  0  0  0  0  0  0  0  0
   22.0450   -4.3774  -13.9749 C   0  0  0  0  0  0  0  0  0  0  0  0
   22.6385   -4.8375  -12.9649 O   0  0  0  0  0  0  0  0  0  0  0  0
   22.3628   -3.0773  -14.3428 O   0  0  0  0  0  0  0  0  0  0  0  0
  2  1  1  0
  2  3  2  0
  4  5  1  0
  4  2  1  0
  6  8  1  0
  6  5  1  0
  6  7  1  1
  8 13  1  0
  9  8  2  0
 10 11  1  0
 12 11  1  6
 12 14  1  0
 13 12  1  0
 14 15  2  0
 14 16  1  0
 16 17  1  0
 17 18  1  1
 17 20  1  0
 19 18  1  0
 20 22  1  0
 21 20  2  0
M  END
$$$$
