QSC.pdb
     RDKit          3D

 22 21  0  0  1  0  0  0  0  0999 V2000
   13.7025   -7.2291   -8.2300 N   0  0  0  0  0  0  0  0  0  0  0  0
   12.9309   -8.2600   -8.8027 C   0  0  0  0  0  0  0  0  0  0  0  0
   11.7541   -8.4650   -8.4318 O   0  0  0  0  0  0  0  0  0  0  0  0
   13.4997   -9.1124   -9.8481 C   0  0  0  0  0  0  0  0  0  0  0  0
   14.9729   -8.8375  -10.0857 C   0  0  0  0  0  0  0  0  0  0  0  0
   15.4741   -9.7911  -11.1652 C   0  0  2  0  0  0  0  0  0  0  0  0
   15.5549  -11.1132  -10.6138 N   0  0  0  0  0  0  0  0  0  0  0  0
   16.8311   -9.3298  -11.5934 C   0  0  0  0  0  0  0  0  0  0  0  0
   17.8148   -9.4315  -10.8179 O   0  0  0  0  0  0  0  0  0  0  0  0
   18.1104   -9.6875  -15.4900 O   0  0  0  0  0  0  0  0  0  0  0  0
   18.2794   -8.4380  -14.9387 C   0  0  0  0  0  0  0  0  0  0  0  0
   18.3064   -8.4880  -13.4162 C   0  0  2  0  0  0  0  0  0  0  0  0
   17.0013   -8.7760  -12.8816 N   0  0  0  0  0  0  0  0  0  0  0  0
   18.7734   -7.1784  -12.8991 C   0  0  0  0  0  0  0  0  0  0  0  0
   17.9847   -6.1832  -12.8989 O   0  0  0  0  0  0  0  0  0  0  0  0
   20.0891   -7.0538  -12.4132 N   0  0  0  0  0  0  0  0  0  0  0  0
   20.5540   -5.7900  -11.8822 C   0  0  1  0  0  0  0  0  0  0  0  0
   21.0272   -6.0662  -10.4631 C   0  0  0  0  0  0  0  0  0  0  0  0
   19.8207   -5.4863   -9.2561 S   0  0  0  0  0  0  0  0  0  0  0  0
   21.6444   -5.2791  -12.7319 C   0  0  0  0  0  0  0  0  0  0  0  0
   22.2809   -6.0590  -13.4873 O   0  0  0  0  0  0  0  0  0  0  0  0
   22.0274   -3.9450  -12.7525 O   0  0  0  0  0  0  0  0  0  0  0  0
  2  1  1  0
  2  3  2  0
  4  5  1  0
  4  2  1  0
  6  8  1  0
  6  5  1  0
  6  7  1  1
  8 13  1  0
  9  8  2  0
 10 11  1  0
 12 11  1  6
 12 14  1  0
 13 12  1  0
 14 15  2  0
 14 16  1  0
 16 17  1  0
 17 18  1  1
 17 20  1  0
 19 18  1  0
 20 22  1  0
 21 20  2  0
M  END
$$$$
