QSC.pdb
     RDKit          3D

 22 21  0  0  1  0  0  0  0  0999 V2000
   27.6176  -19.2457  -18.2193 N   0  0  0  0  0  0  0  0  0  0  0  0
   28.6876  -18.5144  -17.6656 C   0  0  0  0  0  0  0  0  0  0  0  0
   29.2163  -17.5714  -18.2947 O   0  0  0  0  0  0  0  0  0  0  0  0
   29.1996  -18.8502  -16.3359 C   0  0  0  0  0  0  0  0  0  0  0  0
   28.4394  -19.9943  -15.6914 C   0  0  0  0  0  0  0  0  0  0  0  0
   27.2291  -19.4199  -14.9625 C   0  0  2  0  0  0  0  0  0  0  0  0
   27.6756  -18.4037  -14.0534 N   0  0  0  0  0  0  0  0  0  0  0  0
   26.5754  -20.5332  -14.2070 C   0  0  0  0  0  0  0  0  0  0  0  0
   26.2380  -21.5921  -14.7940 O   0  0  0  0  0  0  0  0  0  0  0  0
   25.4381  -19.7487  -10.2364 O   0  0  0  0  0  0  0  0  0  0  0  0
   25.5610  -21.0685  -10.6063 C   0  0  0  0  0  0  0  0  0  0  0  0
   25.4307  -21.2503  -12.1134 C   0  0  2  0  0  0  0  0  0  0  0  0
   26.3382  -20.3867  -12.8223 N   0  0  0  0  0  0  0  0  0  0  0  0
   24.0374  -20.9403  -12.5176 C   0  0  0  0  0  0  0  0  0  0  0  0
   23.7026  -19.7388  -12.7557 O   0  0  0  0  0  0  0  0  0  0  0  0
   23.1000  -21.9847  -12.6328 N   0  0  0  0  0  0  0  0  0  0  0  0
   21.7594  -21.7127  -13.1060 C   0  0  1  0  0  0  0  0  0  0  0  0
   21.4055  -22.8360  -14.0688 C   0  0  0  0  0  0  0  0  0  0  0  0
   22.5176  -22.8447  -15.4872 S   0  0  0  0  0  0  0  0  0  0  0  0
   20.8390  -21.6688  -11.9558 C   0  0  0  0  0  0  0  0  0  0  0  0
   19.6285  -21.3665  -12.1211 O   0  0  0  0  0  0  0  0  0  0  0  0
   21.2367  -21.9496  -10.6560 O   0  0  0  0  0  0  0  0  0  0  0  0
  2  1  1  0
  2  3  2  0
  4  5  1  0
  4  2  1  0
  6  8  1  0
  6  5  1  0
  6  7  1  1
  8 13  1  0
  9  8  2  0
 10 11  1  0
 12 11  1  1
 12 14  1  0
 13 12  1  0
 14 15  2  0
 14 16  1  0
 16 17  1  0
 17 18  1  6
 17 20  1  0
 19 18  1  0
 20 22  1  0
 21 20  2  0
M  END
$$$$
