QSC.pdb
     RDKit          3D

 22 21  0  0  1  0  0  0  0  0999 V2000
   18.9385  -12.9339  -19.5105 N   0  0  0  0  0  0  0  0  0  0  0  0
   17.6200  -12.6607  -19.0946 C   0  0  0  0  0  0  0  0  0  0  0  0
   16.6504  -13.2870  -19.5766 O   0  0  0  0  0  0  0  0  0  0  0  0
   17.3639  -11.6323  -18.0849 C   0  0  0  0  0  0  0  0  0  0  0  0
   18.6194  -10.8755  -17.6934 C   0  0  0  0  0  0  0  0  0  0  0  0
   19.3207  -11.6467  -16.5801 C   0  0  2  0  0  0  0  0  0  0  0  0
   18.3309  -12.3187  -15.7881 N   0  0  0  0  0  0  0  0  0  0  0  0
   20.0694  -10.6621  -15.7389 C   0  0  0  0  0  0  0  0  0  0  0  0
   19.5194  -10.1204  -14.7471 O   0  0  0  0  0  0  0  0  0  0  0  0
   24.2464  -10.5089  -15.0909 O   0  0  0  0  0  0  0  0  0  0  0  0
   23.6355   -9.4210  -15.6716 C   0  0  0  0  0  0  0  0  0  0  0  0
   22.1515   -9.3553  -15.3328 C   0  0  2  0  0  0  0  0  0  0  0  0
   21.4055  -10.3432  -16.0675 N   0  0  0  0  0  0  0  0  0  0  0  0
   21.6405   -8.0030  -15.6656 C   0  0  0  0  0  0  0  0  0  0  0  0
   21.2788   -7.7407  -16.8541 O   0  0  0  0  0  0  0  0  0  0  0  0
   21.5624   -7.0236  -14.6570 N   0  0  0  0  0  0  0  0  0  0  0  0
   21.1546   -5.6732  -14.9817 C   0  0  1  0  0  0  0  0  0  0  0  0
   19.7771   -5.4788  -14.3663 C   0  0  0  0  0  0  0  0  0  0  0  0
   19.2479   -3.7608  -14.4982 S   0  0  0  0  0  0  0  0  0  0  0  0
   22.1380   -4.7241  -14.4302 C   0  0  0  0  0  0  0  0  0  0  0  0
   22.7771   -5.0069  -13.3835 O   0  0  0  0  0  0  0  0  0  0  0  0
   22.4138   -3.4947  -15.0126 O   0  0  0  0  0  0  0  0  0  0  0  0
  2  1  1  0
  2  3  2  0
  4  5  1  0
  4  2  1  0
  6  8  1  0
  6  5  1  0
  6  7  1  1
  8 13  1  0
  9  8  2  0
 10 11  1  0
 12 11  1  6
 12 14  1  0
 13 12  1  0
 14 15  2  0
 14 16  1  0
 16 17  1  0
 17 18  1  1
 17 20  1  0
 19 18  1  0
 20 22  1  0
 21 20  2  0
M  END
$$$$
