QSC.pdb
     RDKit          3D

 22 21  0  0  1  0  0  0  0  0999 V2000
   27.7561  -15.9751  -19.9491 N   0  0  0  0  0  0  0  0  0  0  0  0
   26.4165  -15.5415  -20.0097 C   0  0  0  0  0  0  0  0  0  0  0  0
   26.0299  -14.7709  -20.9160 O   0  0  0  0  0  0  0  0  0  0  0  0
   25.4506  -15.9900  -19.0053 C   0  0  0  0  0  0  0  0  0  0  0  0
   24.5940  -14.8557  -18.4743 C   0  0  0  0  0  0  0  0  0  0  0  0
   25.3938  -14.1002  -17.4181 C   0  0  2  0  0  0  0  0  0  0  0  0
   26.0850  -15.0497  -16.5940 N   0  0  0  0  0  0  0  0  0  0  0  0
   24.4315  -13.3077  -16.5914 C   0  0  0  0  0  0  0  0  0  0  0  0
   23.5758  -13.8869  -15.8759 O   0  0  0  0  0  0  0  0  0  0  0  0
   23.5262   -9.8162  -13.7674 O   0  0  0  0  0  0  0  0  0  0  0  0
   24.3226  -10.6418  -14.5276 C   0  0  0  0  0  0  0  0  0  0  0  0
   23.6231  -11.0855  -15.8063 C   0  0  2  0  0  0  0  0  0  0  0  0
   24.4905  -11.8968  -16.6197 N   0  0  0  0  0  0  0  0  0  0  0  0
   23.2104   -9.8838  -16.5719 C   0  0  0  0  0  0  0  0  0  0  0  0
   24.0738   -9.2339  -17.2386 O   0  0  0  0  0  0  0  0  0  0  0  0
   21.8626   -9.4766  -16.5501 N   0  0  0  0  0  0  0  0  0  0  0  0
   21.4476   -8.2897  -17.2671 C   0  0  1  0  0  0  0  0  0  0  0  0
   19.9445   -8.4105  -17.4681 C   0  0  0  0  0  0  0  0  0  0  0  0
   19.2861   -6.9553  -18.3034 S   0  0  0  0  0  0  0  0  0  0  0  0
   21.7986   -7.0974  -16.4751 C   0  0  0  0  0  0  0  0  0  0  0  0
   21.7854   -7.1429  -15.2174 O   0  0  0  0  0  0  0  0  0  0  0  0
   22.1556   -5.8848  -17.0486 O   0  0  0  0  0  0  0  0  0  0  0  0
  2  1  1  0
  2  3  2  0
  4  5  1  0
  4  2  1  0
  6  8  1  0
  6  5  1  0
  6  7  1  1
  8 13  1  0
  9  8  2  0
 10 11  1  0
 12 11  1  1
 12 14  1  0
 13 12  1  0
 14 15  2  0
 14 16  1  0
 16 17  1  0
 17 18  1  1
 17 20  1  0
 19 18  1  0
 20 22  1  0
 21 20  2  0
M  END
$$$$
