QSC.pdb
     RDKit          3D

 22 21  0  0  1  0  0  0  0  0999 V2000
   13.8198  -10.8154  -12.9843 N   0  0  0  0  0  0  0  0  0  0  0  0
   14.8638  -11.2301  -13.8353 C   0  0  0  0  0  0  0  0  0  0  0  0
   14.6309  -11.9298  -14.8456 O   0  0  0  0  0  0  0  0  0  0  0  0
   16.2464  -10.8452  -13.5471 C   0  0  0  0  0  0  0  0  0  0  0  0
   16.7199   -9.6884  -14.4072 C   0  0  0  0  0  0  0  0  0  0  0  0
   18.1324   -9.3106  -13.9733 C   0  0  2  0  0  0  0  0  0  0  0  0
   18.9807  -10.4599  -14.1074 N   0  0  0  0  0  0  0  0  0  0  0  0
   18.0747   -8.8793  -12.5421 C   0  0  0  0  0  0  0  0  0  0  0  0
   18.2667   -9.7079  -11.6168 O   0  0  0  0  0  0  0  0  0  0  0  0
   18.4576   -4.8660  -11.6562 O   0  0  0  0  0  0  0  0  0  0  0  0
   18.7246   -5.8419  -10.7234 C   0  0  0  0  0  0  0  0  0  0  0  0
   17.8016   -7.0440  -10.8793 C   0  0  2  0  0  0  0  0  0  0  0  0
   17.8016   -7.5280  -12.2350 N   0  0  0  0  0  0  0  0  0  0  0  0
   16.4243   -6.6471  -10.4972 C   0  0  0  0  0  0  0  0  0  0  0  0
   15.5737   -6.3740  -11.3996 O   0  0  0  0  0  0  0  0  0  0  0  0
   16.0754   -6.5774   -9.1348 N   0  0  0  0  0  0  0  0  0  0  0  0
   14.7659   -6.1029   -8.7406 C   0  0  1  0  0  0  0  0  0  0  0  0
   14.3839   -6.8800   -7.4899 C   0  0  0  0  0  0  0  0  0  0  0  0
   14.1244   -8.6232   -7.8674 S   0  0  0  0  0  0  0  0  0  0  0  0
   14.8329   -4.6532   -8.4837 C   0  0  0  0  0  0  0  0  0  0  0  0
   15.8742   -4.1410   -7.9966 O   0  0  0  0  0  0  0  0  0  0  0  0
   13.7832   -3.7863   -8.7546 O   0  0  0  0  0  0  0  0  0  0  0  0
  2  1  1  0
  2  3  2  0
  4  5  1  0
  4  2  1  0
  6  8  1  0
  6  5  1  0
  6  7  1  1
  8 13  1  0
  9  8  2  0
 10 11  1  0
 12 11  1  6
 12 14  1  0
 13 12  1  0
 14 15  2  0
 14 16  1  0
 16 17  1  0
 17 18  1  1
 17 20  1  0
 19 18  1  0
 20 22  1  0
 21 20  2  0
M  END
$$$$
