QSC.pdb
     RDKit          3D

 22 21  0  0  1  0  0  0  0  0999 V2000
   33.4174  -36.5038   -4.0433 N   0  0  0  0  0  0  0  0  0  0  0  0
   33.5699  -35.9186   -5.3163 C   0  0  0  0  0  0  0  0  0  0  0  0
   34.3723  -36.3926   -6.1506 O   0  0  0  0  0  0  0  0  0  0  0  0
   32.7855  -34.7385   -5.6836 C   0  0  0  0  0  0  0  0  0  0  0  0
   31.8021  -34.3334   -4.6014 C   0  0  0  0  0  0  0  0  0  0  0  0
   30.4184  -34.8428   -4.9911 C   0  0  2  0  0  0  0  0  0  0  0  0
   29.7600  -33.8389   -5.7768 N   0  0  0  0  0  0  0  0  0  0  0  0
   29.6497  -35.0960   -3.7331 C   0  0  0  0  0  0  0  0  0  0  0  0
   29.1502  -34.1412   -3.0863 O   0  0  0  0  0  0  0  0  0  0  0  0
   29.3237  -39.0433   -2.3069 O   0  0  0  0  0  0  0  0  0  0  0  0
   28.2687  -38.1850   -2.0970 C   0  0  0  0  0  0  0  0  0  0  0  0
   28.7132  -36.7277   -2.0997 C   0  0  2  0  0  0  0  0  0  0  0  0
   29.4876  -36.4218   -3.2739 N   0  0  0  0  0  0  0  0  0  0  0  0
   29.5308  -36.4709   -0.8888 C   0  0  0  0  0  0  0  0  0  0  0  0
   30.7943  -36.3912   -0.9866 O   0  0  0  0  0  0  0  0  0  0  0  0
   28.8946  -36.3182    0.3581 N   0  0  0  0  0  0  0  0  0  0  0  0
   29.6805  -36.1627    1.5637 C   0  0  1  0  0  0  0  0  0  0  0  0
   29.9997  -34.6801    1.6824 C   0  0  0  0  0  0  0  0  0  0  0  0
   30.8971  -34.3331    3.2065 S   0  0  0  0  0  0  0  0  0  0  0  0
   28.9006  -36.6474    2.7165 C   0  0  0  0  0  0  0  0  0  0  0  0
   29.4579  -36.8296    3.8301 O   0  0  0  0  0  0  0  0  0  0  0  0
   27.5423  -36.9256    2.6493 O   0  0  0  0  0  0  0  0  0  0  0  0
  2  1  1  0
  2  3  2  0
  4  5  1  0
  4  2  1  0
  6  8  1  0
  6  5  1  0
  6  7  1  6
  8 13  1  0
  9  8  2  0
 10 11  1  0
 12 11  1  6
 12 14  1  0
 13 12  1  0
 14 15  2  0
 14 16  1  0
 16 17  1  0
 17 18  1  1
 17 20  1  0
 19 18  1  0
 20 22  1  0
 21 20  2  0
M  END
$$$$
