QSC.pdb
     RDKit          3D

 22 21  0  0  1  0  0  0  0  0999 V2000
   17.0819  -11.5853  -15.6481 N   0  0  0  0  0  0  0  0  0  0  0  0
   16.0627  -11.9767  -14.7569 C   0  0  0  0  0  0  0  0  0  0  0  0
   15.6564  -13.1592  -14.7232 O   0  0  0  0  0  0  0  0  0  0  0  0
   15.4601  -10.9976  -13.8507 C   0  0  0  0  0  0  0  0  0  0  0  0
   16.0633   -9.6139  -14.0045 C   0  0  0  0  0  0  0  0  0  0  0  0
   17.1659   -9.4494  -12.9637 C   0  0  2  0  0  0  0  0  0  0  0  0
   16.5648   -9.3465  -11.6650 N   0  0  0  0  0  0  0  0  0  0  0  0
   17.9169   -8.1957  -13.2825 C   0  0  0  0  0  0  0  0  0  0  0  0
   17.3879   -7.0702  -13.1010 O   0  0  0  0  0  0  0  0  0  0  0  0
   21.7741   -8.6053  -14.7445 O   0  0  0  0  0  0  0  0  0  0  0  0
   21.4879   -7.4063  -14.1327 C   0  0  0  0  0  0  0  0  0  0  0  0
   19.9931   -7.1116  -14.1323 C   0  0  2  0  0  0  0  0  0  0  0  0
   19.2314   -8.2846  -13.7917 N   0  0  0  0  0  0  0  0  0  0  0  0
   19.5946   -6.6389  -15.4807 C   0  0  0  0  0  0  0  0  0  0  0  0
   19.3302   -7.4828  -16.3919 O   0  0  0  0  0  0  0  0  0  0  0  0
   19.5141   -5.2564  -15.7352 N   0  0  0  0  0  0  0  0  0  0  0  0
   19.1299   -4.7771  -17.0460 C   0  0  1  0  0  0  0  0  0  0  0  0
   18.2342   -3.5689  -16.8182 C   0  0  0  0  0  0  0  0  0  0  0  0
   16.6953   -4.0492  -16.0121 S   0  0  0  0  0  0  0  0  0  0  0  0
   20.3415   -4.4232  -17.8069 C   0  0  0  0  0  0  0  0  0  0  0  0
   21.4735   -4.4719  -17.2589 O   0  0  0  0  0  0  0  0  0  0  0  0
   20.3121   -4.0255  -19.1364 O   0  0  0  0  0  0  0  0  0  0  0  0
  2  1  1  0
  2  3  2  0
  4  5  1  0
  4  2  1  0
  6  8  1  0
  6  5  1  0
  6  7  1  1
  8 13  1  0
  9  8  2  0
 10 11  1  0
 12 11  1  6
 12 14  1  0
 13 12  1  0
 14 15  2  0
 14 16  1  0
 16 17  1  0
 17 18  1  1
 17 20  1  0
 19 18  1  0
 20 22  1  0
 21 20  2  0
M  END
$$$$
