QSC.pdb
     RDKit          3D

 22 21  0  0  1  0  0  0  0  0999 V2000
   24.8866  -21.3758  -11.0898 N   0  0  0  0  0  0  0  0  0  0  0  0
   26.2298  -21.2544  -10.6809 C   0  0  0  0  0  0  0  0  0  0  0  0
   26.5543  -21.4096   -9.4829 O   0  0  0  0  0  0  0  0  0  0  0  0
   27.2727  -20.9423  -11.6596 C   0  0  0  0  0  0  0  0  0  0  0  0
   26.7468  -20.1389  -12.8344 C   0  0  0  0  0  0  0  0  0  0  0  0
   26.0574  -21.0943  -13.8029 C   0  0  2  0  0  0  0  0  0  0  0  0
   27.0584  -21.8594  -14.4893 N   0  0  0  0  0  0  0  0  0  0  0  0
   25.2771  -20.2748  -14.7812 C   0  0  0  0  0  0  0  0  0  0  0  0
   25.8070  -19.8801  -15.8503 O   0  0  0  0  0  0  0  0  0  0  0  0
   20.9287  -18.5323  -16.0340 O   0  0  0  0  0  0  0  0  0  0  0  0
   21.6775  -19.3774  -15.2472 C   0  0  0  0  0  0  0  0  0  0  0  0
   23.1676  -19.0772  -15.3500 C   0  0  2  0  0  0  0  0  0  0  0  0
   23.9338  -19.9453  -14.4948 N   0  0  0  0  0  0  0  0  0  0  0  0
   23.4032  -17.6658  -14.9587 C   0  0  0  0  0  0  0  0  0  0  0  0
   23.3014  -17.3241  -13.7400 O   0  0  0  0  0  0  0  0  0  0  0  0
   23.7376  -16.7190  -15.9458 N   0  0  0  0  0  0  0  0  0  0  0  0
   23.8723  -15.3201  -15.5989 C   0  0  1  0  0  0  0  0  0  0  0  0
   25.3645  -15.0278  -15.5564 C   0  0  0  0  0  0  0  0  0  0  0  0
   25.6708  -13.2676  -15.3181 S   0  0  0  0  0  0  0  0  0  0  0  0
   23.1839  -14.5010  -16.6125 C   0  0  0  0  0  0  0  0  0  0  0  0
   23.1291  -14.8845  -17.8099 O   0  0  0  0  0  0  0  0  0  0  0  0
   22.5706  -13.2907  -16.3197 O   0  0  0  0  0  0  0  0  0  0  0  0
  2  1  1  0
  2  3  2  0
  4  5  1  0
  4  2  1  0
  6  8  1  0
  6  5  1  0
  6  7  1  6
  8 13  1  0
  9  8  2  0
 10 11  1  0
 12 11  1  1
 12 14  1  0
 13 12  1  0
 14 15  2  0
 14 16  1  0
 16 17  1  0
 17 18  1  6
 17 20  1  0
 19 18  1  0
 20 22  1  0
 21 20  2  0
M  END
$$$$
