YPA.pdb
     RDKit          3D

 25 26  0  0  1  0  0  0  0  0999 V2000
    6.1912  -10.5681   27.2925 O   0  0  0  0  0  0  0  0  0  0  0  0
    6.5111  -11.8870   26.9932 C   0  0  0  0  0  0  0  0  0  0  0  0
    5.5614  -12.8797   27.0672 C   0  0  0  0  0  0  0  0  0  0  0  0
    5.8679  -14.2118   26.7691 C   0  0  0  0  0  0  0  0  0  0  0  0
    7.1343  -14.5907   26.3876 C   0  0  0  0  0  0  0  0  0  0  0  0
    7.4952  -15.9919   26.0557 C   0  0  0  0  0  0  0  0  0  0  0  0
    6.6435  -16.6032   24.9792 C   0  0  2  0  0  0  0  0  0  0  0  0
    5.8774  -17.7468   25.4057 N   0  0  0  0  0  0  0  0  0  0  0  0
    7.4830  -16.8743   23.7988 C   0  0  0  0  0  0  0  0  0  0  0  0
    7.8972  -18.0359   23.5622 O   0  0  0  0  0  0  0  0  0  0  0  0
    8.0879  -13.5722   26.3171 C   0  0  0  0  0  0  0  0  0  0  0  0
    7.7862  -12.2592   26.6108 C   0  0  0  0  0  0  0  0  0  0  0  0
    7.8809  -15.8421   22.8525 N   0  0  0  0  0  0  0  0  0  0  0  0
    7.6185  -14.4381   22.9881 C   0  0  0  0  0  0  0  0  0  0  0  0
    8.1062  -13.8036   21.7197 C   0  0  0  0  0  0  0  0  0  0  0  0
    8.2119  -14.9748   20.7255 C   0  0  0  0  0  0  0  0  0  0  0  0
    8.6144  -16.0767   21.6381 C   0  0  1  0  0  0  0  0  0  0  0  0
   10.0773  -16.1473   21.8668 C   0  0  0  0  0  0  0  0  0  0  0  0
   10.5861  -15.2806   22.6145 O   0  0  0  0  0  0  0  0  0  0  0  0
   12.6314  -18.8720   21.3297 C   0  0  0  0  0  0  0  0  0  0  0  0
   12.2180  -17.4825   21.7619 C   0  0  2  0  0  0  0  0  0  0  0  0
   10.9166  -17.1188   21.2992 N   0  0  0  0  0  0  0  0  0  0  0  0
   13.2083  -16.5414   21.2022 C   0  0  0  0  0  0  0  0  0  0  0  0
   12.8322  -15.6978   20.1761 O   0  0  0  0  0  0  0  0  0  0  0  0
   14.3826  -16.4818   21.6276 O   0  0  0  0  0  0  0  0  0  0  0  0
  1  2  1  0
  2  3  2  0
  2 12  1  0
  3  4  1  0
  4  5  2  0
  5  6  1  0
  6  7  1  0
  7  9  1  0
  7  8  1  1
  9 13  1  0
 10  9  2  0
 11  5  1  0
 12 11  2  0
 13 14  1  0
 13 17  1  0
 14 15  1  0
 15 16  1  0
 17 16  1  0
 18 22  1  0
 17 18  1  1
 19 18  2  0
 21 20  1  6
 21 22  1  0
 21 23  1  0
 23 24  1  0
 25 23  2  0
M  END
$$$$
