YPA.pdb
     RDKit          3D

 25 26  0  0  1  0  0  0  0  0999 V2000
    5.4775  -10.5977   28.0501 O   0  0  0  0  0  0  0  0  0  0  0  0
    6.0661  -11.6266   27.3248 C   0  0  0  0  0  0  0  0  0  0  0  0
    6.9311  -12.5115   27.9262 C   0  0  0  0  0  0  0  0  0  0  0  0
    7.5314  -13.5523   27.2096 C   0  0  0  0  0  0  0  0  0  0  0  0
    7.2841  -13.7392   25.8691 C   0  0  0  0  0  0  0  0  0  0  0  0
    7.8955  -14.8362   25.0777 C   0  0  0  0  0  0  0  0  0  0  0  0
    6.9009  -15.8158   24.5217 C   0  0  2  0  0  0  0  0  0  0  0  0
    6.5010  -16.8460   25.4465 N   0  0  0  0  0  0  0  0  0  0  0  0
    7.4125  -16.3475   23.2460 C   0  0  0  0  0  0  0  0  0  0  0  0
    7.4585  -17.5858   23.0423 O   0  0  0  0  0  0  0  0  0  0  0  0
    6.4041  -12.8332   25.2721 C   0  0  0  0  0  0  0  0  0  0  0  0
    5.8121  -11.8073   25.9781 C   0  0  0  0  0  0  0  0  0  0  0  0
    7.8885  -15.4975   22.1644 N   0  0  0  0  0  0  0  0  0  0  0  0
    8.0690  -14.0760   22.2363 C   0  0  0  0  0  0  0  0  0  0  0  0
    8.4515  -13.6389   20.8536 C   0  0  0  0  0  0  0  0  0  0  0  0
    8.0175  -14.8092   19.9518 C   0  0  0  0  0  0  0  0  0  0  0  0
    8.2652  -15.9620   20.8566 C   0  0  1  0  0  0  0  0  0  0  0  0
    9.6624  -16.4552   20.8133 C   0  0  0  0  0  0  0  0  0  0  0  0
   10.5153  -15.8297   21.4844 O   0  0  0  0  0  0  0  0  0  0  0  0
   11.2138  -19.6971   19.6131 C   0  0  0  0  0  0  0  0  0  0  0  0
   11.2456  -18.3590   20.3182 C   0  0  2  0  0  0  0  0  0  0  0  0
   10.0805  -17.5706   20.0708 N   0  0  0  0  0  0  0  0  0  0  0  0
   12.4317  -17.6345   19.8204 C   0  0  0  0  0  0  0  0  0  0  0  0
   12.2583  -16.5596   18.9715 O   0  0  0  0  0  0  0  0  0  0  0  0
   13.5944  -17.9625   20.1428 O   0  0  0  0  0  0  0  0  0  0  0  0
  1  2  1  0
  2  3  2  0
  2 12  1  0
  3  4  1  0
  4  5  2  0
  5  6  1  0
  6  7  1  0
  7  9  1  0
  7  8  1  1
  9 13  1  0
 10  9  2  0
 11  5  1  0
 12 11  2  0
 13 14  1  0
 13 17  1  0
 14 15  1  0
 15 16  1  0
 17 16  1  0
 18 22  1  0
 17 18  1  1
 19 18  2  0
 21 20  1  6
 21 22  1  0
 21 23  1  0
 23 24  1  0
 25 23  2  0
M  END
$$$$
