YPA.pdb
     RDKit          3D

 25 26  0  0  1  0  0  0  0  0999 V2000
    6.1072  -10.5356   27.2576 O   0  0  0  0  0  0  0  0  0  0  0  0
    6.4204  -11.7931   26.7556 C   0  0  0  0  0  0  0  0  0  0  0  0
    7.6938  -12.0861   26.3251 C   0  0  0  0  0  0  0  0  0  0  0  0
    8.0246  -13.3471   25.8174 C   0  0  0  0  0  0  0  0  0  0  0  0
    7.0908  -14.3533   25.7254 C   0  0  0  0  0  0  0  0  0  0  0  0
    7.4060  -15.7055   25.2002 C   0  0  0  0  0  0  0  0  0  0  0  0
    6.4309  -16.2034   24.1710 C   0  0  2  0  0  0  0  0  0  0  0  0
    5.5955  -17.2883   24.6200 N   0  0  0  0  0  0  0  0  0  0  0  0
    7.1598  -16.5084   22.9271 C   0  0  0  0  0  0  0  0  0  0  0  0
    7.3326  -17.6977   22.5628 O   0  0  0  0  0  0  0  0  0  0  0  0
    5.8024  -14.0412   26.1660 C   0  0  0  0  0  0  0  0  0  0  0  0
    5.4760  -12.7985   26.6665 C   0  0  0  0  0  0  0  0  0  0  0  0
    7.7164  -15.4805   22.0595 N   0  0  0  0  0  0  0  0  0  0  0  0
    7.7943  -14.0809   22.3656 C   0  0  0  0  0  0  0  0  0  0  0  0
    8.3238  -13.4177   21.1290 C   0  0  0  0  0  0  0  0  0  0  0  0
    8.0864  -14.4514   20.0125 C   0  0  0  0  0  0  0  0  0  0  0  0
    8.2883  -15.7190   20.7618 C   0  0  1  0  0  0  0  0  0  0  0  0
    9.7081  -16.1379   20.8389 C   0  0  0  0  0  0  0  0  0  0  0  0
   10.4093  -15.6334   21.7460 O   0  0  0  0  0  0  0  0  0  0  0  0
   11.3932  -19.1981   19.4631 C   0  0  0  0  0  0  0  0  0  0  0  0
   11.4075  -17.9150   20.2643 C   0  0  2  0  0  0  0  0  0  0  0  0
   10.3061  -17.0571   19.9626 N   0  0  0  0  0  0  0  0  0  0  0  0
   12.6660  -17.2148   19.9396 C   0  0  0  0  0  0  0  0  0  0  0  0
   13.8684  -17.7786   20.3174 O   0  0  0  0  0  0  0  0  0  0  0  0
   12.6809  -16.1227   19.3310 O   0  0  0  0  0  0  0  0  0  0  0  0
  1  2  1  0
  2  3  2  0
  2 12  1  0
  3  4  1  0
  4  5  2  0
  5  6  1  0
  6  7  1  0
  7  9  1  0
  7  8  1  1
  9 13  1  0
 10  9  2  0
 11  5  1  0
 12 11  2  0
 13 14  1  0
 13 17  1  0
 14 15  1  0
 15 16  1  0
 17 16  1  0
 18 22  1  0
 17 18  1  1
 19 18  2  0
 21 20  1  6
 21 22  1  0
 21 23  1  0
 23 24  1  0
 25 23  2  0
M  END
$$$$
