YPA.pdb
     RDKit          3D

 25 26  0  0  1  0  0  0  0  0999 V2000
    6.0516  -10.5871   27.1307 O   0  0  0  0  0  0  0  0  0  0  0  0
    6.3997  -11.9058   26.8643 C   0  0  0  0  0  0  0  0  0  0  0  0
    7.7064  -12.2560   26.6140 C   0  0  0  0  0  0  0  0  0  0  0  0
    8.0726  -13.5790   26.3442 C   0  0  0  0  0  0  0  0  0  0  0  0
    7.1418  -14.5919   26.3169 C   0  0  0  0  0  0  0  0  0  0  0  0
    7.4932  -16.0078   26.0425 C   0  0  0  0  0  0  0  0  0  0  0  0
    6.6693  -16.6423   24.9577 C   0  0  2  0  0  0  0  0  0  0  0  0
    5.9030  -17.7853   25.3853 N   0  0  0  0  0  0  0  0  0  0  0  0
    7.5358  -16.9245   23.7997 C   0  0  0  0  0  0  0  0  0  0  0  0
    7.9306  -18.0936   23.5667 O   0  0  0  0  0  0  0  0  0  0  0  0
    5.8193  -14.2214   26.5726 C   0  0  0  0  0  0  0  0  0  0  0  0
    5.4581  -12.9175   26.8386 C   0  0  0  0  0  0  0  0  0  0  0  0
    7.9834  -15.8954   22.8723 N   0  0  0  0  0  0  0  0  0  0  0  0
    7.8285  -14.4809   23.0555 C   0  0  0  0  0  0  0  0  0  0  0  0
    8.3280  -13.8450   21.7924 C   0  0  0  0  0  0  0  0  0  0  0  0
    8.3211  -14.9897   20.7625 C   0  0  0  0  0  0  0  0  0  0  0  0
    8.6655  -16.1453   21.6313 C   0  0  1  0  0  0  0  0  0  0  0  0
   10.1248  -16.3290   21.8161 C   0  0  0  0  0  0  0  0  0  0  0  0
   10.6982  -15.5874   22.6469 O   0  0  0  0  0  0  0  0  0  0  0  0
   12.4584  -19.1530   20.9179 C   0  0  0  0  0  0  0  0  0  0  0  0
   12.1541  -17.8048   21.5330 C   0  0  2  0  0  0  0  0  0  0  0  0
   10.8931  -17.2757   21.1206 N   0  0  0  0  0  0  0  0  0  0  0  0
   13.2255  -16.8822   21.1078 C   0  0  0  0  0  0  0  0  0  0  0  0
   12.9457  -15.9119   20.1663 O   0  0  0  0  0  0  0  0  0  0  0  0
   14.3840  -16.9497   21.5733 O   0  0  0  0  0  0  0  0  0  0  0  0
  1  2  1  0
  2  3  2  0
  2 12  1  0
  3  4  1  0
  4  5  2  0
  5  6  1  0
  6  7  1  0
  7  9  1  0
  7  8  1  1
  9 13  1  0
 10  9  2  0
 11  5  1  0
 12 11  2  0
 13 14  1  0
 13 17  1  0
 14 15  1  0
 15 16  1  0
 17 16  1  0
 18 22  1  0
 17 18  1  1
 19 18  2  0
 21 20  1  6
 21 22  1  0
 21 23  1  0
 23 24  1  0
 25 23  2  0
M  END
$$$$
