YPA.pdb
     RDKit          3D

 25 26  0  0  1  0  0  0  0  0999 V2000
    9.8789  -13.9119   30.5867 O   0  0  0  0  0  0  0  0  0  0  0  0
    9.6736  -14.3234   29.2753 C   0  0  0  0  0  0  0  0  0  0  0  0
   10.1415  -15.5396   28.8339 C   0  0  0  0  0  0  0  0  0  0  0  0
    9.9428  -15.9680   27.5169 C   0  0  0  0  0  0  0  0  0  0  0  0
    9.2695  -15.1920   26.6018 C   0  0  0  0  0  0  0  0  0  0  0  0
    9.0322  -15.6159   25.1991 C   0  0  0  0  0  0  0  0  0  0  0  0
    7.5967  -15.9384   24.8932 C   0  0  2  0  0  0  0  0  0  0  0  0
    7.0138  -16.9324   25.7584 N   0  0  0  0  0  0  0  0  0  0  0  0
    7.4735  -16.2698   23.4626 C   0  0  0  0  0  0  0  0  0  0  0  0
    7.1027  -17.4139   23.1012 O   0  0  0  0  0  0  0  0  0  0  0  0
    8.8005  -13.9600   27.0641 C   0  0  0  0  0  0  0  0  0  0  0  0
    8.9961  -13.5375   28.3621 C   0  0  0  0  0  0  0  0  0  0  0  0
    7.7668  -15.3205   22.3986 N   0  0  0  0  0  0  0  0  0  0  0  0
    8.1957  -13.9640   22.5838 C   0  0  0  0  0  0  0  0  0  0  0  0
    8.2479  -13.3577   21.2131 C   0  0  0  0  0  0  0  0  0  0  0  0
    7.3916  -14.3009   20.3479 C   0  0  0  0  0  0  0  0  0  0  0  0
    7.6833  -15.6081   20.9921 C   0  0  1  0  0  0  0  0  0  0  0  0
    8.9107  -16.2587   20.4749 C   0  0  0  0  0  0  0  0  0  0  0  0
   10.0089  -15.8566   20.9238 O   0  0  0  0  0  0  0  0  0  0  0  0
    9.5135  -19.4339   18.4955 C   0  0  0  0  0  0  0  0  0  0  0  0
    9.9582  -18.2389   19.3097 C   0  0  2  0  0  0  0  0  0  0  0  0
    8.9134  -17.2881   19.5207 N   0  0  0  0  0  0  0  0  0  0  0  0
   11.0558  -17.5907   18.5649 C   0  0  0  0  0  0  0  0  0  0  0  0
   10.8107  -16.4079   17.8962 O   0  0  0  0  0  0  0  0  0  0  0  0
   12.2061  -18.0786   18.5183 O   0  0  0  0  0  0  0  0  0  0  0  0
  1  2  1  0
  2  3  2  0
  2 12  1  0
  3  4  1  0
  4  5  2  0
  5  6  1  0
  6  7  1  0
  7  9  1  0
  7  8  1  1
  9 13  1  0
 10  9  2  0
 11  5  1  0
 12 11  2  0
 13 14  1  0
 13 17  1  0
 14 15  1  0
 15 16  1  0
 17 16  1  0
 18 22  1  0
 17 18  1  6
 19 18  2  0
 21 20  1  6
 21 22  1  0
 21 23  1  0
 23 24  1  0
 25 23  2  0
M  END
$$$$
