YPA.pdb
     RDKit          3D

 25 26  0  0  1  0  0  0  0  0999 V2000
   10.2670  -13.7081   30.3943 O   0  0  0  0  0  0  0  0  0  0  0  0
    9.9699  -14.1628   29.1151 C   0  0  0  0  0  0  0  0  0  0  0  0
   10.3320  -15.4274   28.7118 C   0  0  0  0  0  0  0  0  0  0  0  0
   10.0401  -15.8996   27.4277 C   0  0  0  0  0  0  0  0  0  0  0  0
    9.3767  -15.1204   26.5081 C   0  0  0  0  0  0  0  0  0  0  0  0
    9.0424  -15.5893   25.1399 C   0  0  0  0  0  0  0  0  0  0  0  0
    7.5797  -15.8599   24.9275 C   0  0  2  0  0  0  0  0  0  0  0  0
    7.0158  -16.8247   25.8374 N   0  0  0  0  0  0  0  0  0  0  0  0
    7.3546  -16.1974   23.5108 C   0  0  0  0  0  0  0  0  0  0  0  0
    6.8733  -17.3114   23.1878 O   0  0  0  0  0  0  0  0  0  0  0  0
    9.0157  -13.8390   26.9315 C   0  0  0  0  0  0  0  0  0  0  0  0
    9.3031  -13.3733   28.1971 C   0  0  0  0  0  0  0  0  0  0  0  0
    7.6679  -15.2885   22.4177 N   0  0  0  0  0  0  0  0  0  0  0  0
    8.1340  -13.9391   22.5604 C   0  0  0  0  0  0  0  0  0  0  0  0
    8.1955  -13.3755   21.1720 C   0  0  0  0  0  0  0  0  0  0  0  0
    7.3098  -14.3205   20.3391 C   0  0  0  0  0  0  0  0  0  0  0  0
    7.5695  -15.6154   21.0208 C   0  0  1  0  0  0  0  0  0  0  0  0
    8.7763  -16.3140   20.5180 C   0  0  0  0  0  0  0  0  0  0  0  0
    9.8831  -15.9628   20.9879 O   0  0  0  0  0  0  0  0  0  0  0  0
    9.3156  -19.4408   18.4317 C   0  0  0  0  0  0  0  0  0  0  0  0
    9.7628  -18.3209   19.3451 C   0  0  2  0  0  0  0  0  0  0  0  0
    8.7507  -17.3351   19.5552 N   0  0  0  0  0  0  0  0  0  0  0  0
   10.9318  -17.6824   18.7085 C   0  0  0  0  0  0  0  0  0  0  0  0
   10.7924  -16.4302   18.1440 O   0  0  0  0  0  0  0  0  0  0  0  0
   12.0502  -18.2397   18.6624 O   0  0  0  0  0  0  0  0  0  0  0  0
  1  2  1  0
  2  3  2  0
  2 12  1  0
  3  4  1  0
  4  5  2  0
  5  6  1  0
  6  7  1  0
  7  9  1  0
  7  8  1  1
  9 13  1  0
 10  9  2  0
 11  5  1  0
 12 11  2  0
 13 14  1  0
 13 17  1  0
 14 15  1  0
 15 16  1  0
 17 16  1  0
 18 22  1  0
 17 18  1  6
 19 18  2  0
 21 20  1  6
 21 22  1  0
 21 23  1  0
 23 24  1  0
 25 23  2  0
M  END
$$$$
