YPA.pdb
     RDKit          3D

 25 26  0  0  1  0  0  0  0  0999 V2000
   10.4259  -14.0188   30.5390 O   0  0  0  0  0  0  0  0  0  0  0  0
   10.0813  -14.3777   29.2415 C   0  0  0  0  0  0  0  0  0  0  0  0
    9.4561  -13.4843   28.4025 C   0  0  0  0  0  0  0  0  0  0  0  0
    9.1030  -13.8305   27.0938 C   0  0  0  0  0  0  0  0  0  0  0  0
    9.3651  -15.0816   26.5850 C   0  0  0  0  0  0  0  0  0  0  0  0
    9.0129  -15.4829   25.1998 C   0  0  0  0  0  0  0  0  0  0  0  0
    7.5852  -15.9217   25.0355 C   0  0  2  0  0  0  0  0  0  0  0  0
    7.1664  -16.9410   25.9640 N   0  0  0  0  0  0  0  0  0  0  0  0
    7.3550  -16.2894   23.6271 C   0  0  0  0  0  0  0  0  0  0  0  0
    6.9153  -17.4268   23.3272 O   0  0  0  0  0  0  0  0  0  0  0  0
    9.9999  -15.9780   27.4482 C   0  0  0  0  0  0  0  0  0  0  0  0
   10.3482  -15.6371   28.7380 C   0  0  0  0  0  0  0  0  0  0  0  0
    7.6162  -15.3851   22.5167 N   0  0  0  0  0  0  0  0  0  0  0  0
    8.0104  -14.0105   22.6333 C   0  0  0  0  0  0  0  0  0  0  0  0
    8.0376  -13.4697   21.2348 C   0  0  0  0  0  0  0  0  0  0  0  0
    7.2006  -14.4752   20.4225 C   0  0  0  0  0  0  0  0  0  0  0  0
    7.5309  -15.7420   21.1262 C   0  0  1  0  0  0  0  0  0  0  0  0
    8.7716  -16.3846   20.6312 C   0  0  0  0  0  0  0  0  0  0  0  0
    9.8619  -15.9295   21.0474 O   0  0  0  0  0  0  0  0  0  0  0  0
    9.5110  -19.5436   18.6504 C   0  0  0  0  0  0  0  0  0  0  0  0
    9.8775  -18.3727   19.5353 C   0  0  2  0  0  0  0  0  0  0  0  0
    8.7949  -17.4619   19.7316 N   0  0  0  0  0  0  0  0  0  0  0  0
   10.9908  -17.6620   18.8756 C   0  0  0  0  0  0  0  0  0  0  0  0
   10.7111  -16.6045   18.0333 O   0  0  0  0  0  0  0  0  0  0  0  0
   12.1850  -17.9867   19.0543 O   0  0  0  0  0  0  0  0  0  0  0  0
  1  2  1  0
  2  3  2  0
  2 12  1  0
  3  4  1  0
  4  5  2  0
  5  6  1  0
  6  7  1  0
  7  9  1  0
  7  8  1  1
  9 13  1  0
 10  9  2  0
 11  5  1  0
 12 11  2  0
 13 14  1  0
 13 17  1  0
 14 15  1  0
 15 16  1  0
 17 16  1  0
 18 22  1  0
 17 18  1  6
 19 18  2  0
 21 20  1  6
 21 22  1  0
 21 23  1  0
 23 24  1  0
 25 23  2  0
M  END
$$$$
