YPA.pdb
     RDKit          3D

 25 26  0  0  1  0  0  0  0  0999 V2000
    5.3752  -10.6328   28.2445 O   0  0  0  0  0  0  0  0  0  0  0  0
    6.0125  -11.6172   27.4987 C   0  0  0  0  0  0  0  0  0  0  0  0
    5.3601  -12.2614   26.4729 C   0  0  0  0  0  0  0  0  0  0  0  0
    5.9880  -13.2542   25.7132 C   0  0  0  0  0  0  0  0  0  0  0  0
    7.2882  -13.6324   25.9570 C   0  0  0  0  0  0  0  0  0  0  0  0
    7.9902  -14.6753   25.1675 C   0  0  0  0  0  0  0  0  0  0  0  0
    7.1066  -15.8105   24.7332 C   0  0  2  0  0  0  0  0  0  0  0  0
    6.7744  -16.7399   25.7832 N   0  0  0  0  0  0  0  0  0  0  0  0
    7.7032  -16.4583   23.5517 C   0  0  0  0  0  0  0  0  0  0  0  0
    8.0074  -17.6764   23.5761 O   0  0  0  0  0  0  0  0  0  0  0  0
    7.9377  -12.9699   27.0015 C   0  0  0  0  0  0  0  0  0  0  0  0
    7.3192  -11.9913   27.7504 C   0  0  0  0  0  0  0  0  0  0  0  0
    7.9754  -15.7500   22.3094 N   0  0  0  0  0  0  0  0  0  0  0  0
    7.8187  -14.3393   22.1002 C   0  0  0  0  0  0  0  0  0  0  0  0
    8.0984  -14.1050   20.6455 C   0  0  0  0  0  0  0  0  0  0  0  0
    7.9561  -15.4970   20.0026 C   0  0  0  0  0  0  0  0  0  0  0  0
    8.4595  -16.3619   21.1014 C   0  0  1  0  0  0  0  0  0  0  0  0
    9.9334  -16.5188   21.0994 C   0  0  0  0  0  0  0  0  0  0  0  0
   10.6057  -15.6549   21.7083 O   0  0  0  0  0  0  0  0  0  0  0  0
   11.6312  -19.3777   21.7655 C   0  0  0  0  0  0  0  0  0  0  0  0
   11.8385  -18.1627   20.8882 C   0  0  2  0  0  0  0  0  0  0  0  0
   10.6123  -17.5682   20.4604 N   0  0  0  0  0  0  0  0  0  0  0  0
   12.5970  -18.6081   19.7025 C   0  0  0  0  0  0  0  0  0  0  0  0
   11.9648  -18.6552   18.4760 O   0  0  0  0  0  0  0  0  0  0  0  0
   13.7988  -18.9461   19.7709 O   0  0  0  0  0  0  0  0  0  0  0  0
  1  2  1  0
  2  3  2  0
  2 12  1  0
  3  4  1  0
  4  5  2  0
  5  6  1  0
  6  7  1  0
  7  9  1  0
  7  8  1  1
  9 13  1  0
 10  9  2  0
 11  5  1  0
 12 11  2  0
 13 14  1  0
 13 17  1  0
 14 15  1  0
 15 16  1  0
 17 16  1  0
 18 22  1  0
 17 18  1  1
 19 18  2  0
 21 20  1  1
 21 22  1  0
 21 23  1  0
 23 24  1  0
 25 23  2  0
M  END
$$$$
