YPA.pdb
     RDKit          3D

 25 26  0  0  1  0  0  0  0  0999 V2000
    5.5696  -10.7477   28.4975 O   0  0  0  0  0  0  0  0  0  0  0  0
    6.1380  -11.7142   27.6764 C   0  0  0  0  0  0  0  0  0  0  0  0
    5.4186  -12.2837   26.6512 C   0  0  0  0  0  0  0  0  0  0  0  0
    5.9767  -13.2577   25.8162 C   0  0  0  0  0  0  0  0  0  0  0  0
    7.2719  -13.6912   25.9819 C   0  0  0  0  0  0  0  0  0  0  0  0
    7.9008  -14.7161   25.1115 C   0  0  0  0  0  0  0  0  0  0  0  0
    6.9368  -15.7363   24.5749 C   0  0  2  0  0  0  0  0  0  0  0  0
    6.5243  -16.7273   25.5363 N   0  0  0  0  0  0  0  0  0  0  0  0
    7.4930  -16.3202   23.3415 C   0  0  0  0  0  0  0  0  0  0  0  0
    7.5956  -17.5652   23.2136 O   0  0  0  0  0  0  0  0  0  0  0  0
    7.9898  -13.1044   27.0269 C   0  0  0  0  0  0  0  0  0  0  0  0
    7.4401  -12.1443   27.8500 C   0  0  0  0  0  0  0  0  0  0  0  0
    7.9512  -15.5162   22.2178 N   0  0  0  0  0  0  0  0  0  0  0  0
    8.0306  -14.0838   22.1925 C   0  0  0  0  0  0  0  0  0  0  0  0
    8.4355  -13.7184   20.7954 C   0  0  0  0  0  0  0  0  0  0  0  0
    8.1184  -14.9770   19.9667 C   0  0  0  0  0  0  0  0  0  0  0  0
    8.4094  -16.0430   20.9606 C   0  0  1  0  0  0  0  0  0  0  0  0
    9.8378  -16.4371   21.0006 C   0  0  0  0  0  0  0  0  0  0  0  0
   10.6311  -15.6691   21.5921 O   0  0  0  0  0  0  0  0  0  0  0  0
   11.6667  -19.6741   20.3243 C   0  0  0  0  0  0  0  0  0  0  0  0
   11.6102  -18.2114   20.7061 C   0  0  2  0  0  0  0  0  0  0  0  0
   10.3475  -17.6086   20.4191 N   0  0  0  0  0  0  0  0  0  0  0  0
   12.6606  -17.5202   19.9324 C   0  0  0  0  0  0  0  0  0  0  0  0
   12.2939  -16.6457   18.9289 O   0  0  0  0  0  0  0  0  0  0  0  0
   13.8776  -17.7003   20.1557 O   0  0  0  0  0  0  0  0  0  0  0  0
  1  2  1  0
  2  3  2  0
  2 12  1  0
  3  4  1  0
  4  5  2  0
  5  6  1  0
  6  7  1  0
  7  9  1  0
  7  8  1  1
  9 13  1  0
 10  9  2  0
 11  5  1  0
 12 11  2  0
 13 14  1  0
 13 17  1  0
 14 15  1  0
 15 16  1  0
 17 16  1  0
 18 22  1  0
 17 18  1  1
 19 18  2  0
 21 20  1  6
 21 22  1  0
 21 23  1  0
 23 24  1  0
 25 23  2  0
M  END
$$$$
