YPA.pdb
     RDKit          3D

 25 26  0  0  1  0  0  0  0  0999 V2000
   11.1480  -14.7597   29.7369 O   0  0  0  0  0  0  0  0  0  0  0  0
   10.1684  -14.7997   28.7520 C   0  0  0  0  0  0  0  0  0  0  0  0
    9.3959  -13.6950   28.4770 C   0  0  0  0  0  0  0  0  0  0  0  0
    8.4060  -13.7197   27.4886 C   0  0  0  0  0  0  0  0  0  0  0  0
    8.1594  -14.8509   26.7454 C   0  0  0  0  0  0  0  0  0  0  0  0
    7.1239  -14.9128   25.6835 C   0  0  0  0  0  0  0  0  0  0  0  0
    6.7709  -16.3092   25.2554 C   0  0  2  0  0  0  0  0  0  0  0  0
    6.8375  -17.2887   26.3103 N   0  0  0  0  0  0  0  0  0  0  0  0
    7.5797  -16.6690   24.0773 C   0  0  0  0  0  0  0  0  0  0  0  0
    8.1503  -17.7857   24.0106 O   0  0  0  0  0  0  0  0  0  0  0  0
    8.9512  -15.9646   27.0359 C   0  0  0  0  0  0  0  0  0  0  0  0
    9.9270  -15.9406   28.0098 C   0  0  0  0  0  0  0  0  0  0  0  0
    7.7694  -15.7786   22.9414 N   0  0  0  0  0  0  0  0  0  0  0  0
    7.3587  -14.4054   22.8783 C   0  0  0  0  0  0  0  0  0  0  0  0
    7.6550  -13.9506   21.4803 C   0  0  0  0  0  0  0  0  0  0  0  0
    7.8076  -15.2575   20.6802 C   0  0  0  0  0  0  0  0  0  0  0  0
    8.4148  -16.1420   21.7087 C   0  0  1  0  0  0  0  0  0  0  0  0
    9.8904  -16.0261   21.7884 C   0  0  0  0  0  0  0  0  0  0  0  0
   10.3601  -15.1931   22.5975 O   0  0  0  0  0  0  0  0  0  0  0  0
   12.0272  -18.5516   22.1807 C   0  0  0  0  0  0  0  0  0  0  0  0
   12.0736  -17.2419   21.4251 C   0  0  2  0  0  0  0  0  0  0  0  0
   10.7824  -16.7875   21.0171 N   0  0  0  0  0  0  0  0  0  0  0  0
   12.9074  -17.4617   20.2267 C   0  0  0  0  0  0  0  0  0  0  0  0
   12.3157  -17.4368   18.9795 O   0  0  0  0  0  0  0  0  0  0  0  0
   14.1378  -17.6709   20.3025 O   0  0  0  0  0  0  0  0  0  0  0  0
  1  2  1  0
  2  3  2  0
  2 12  1  0
  3  4  1  0
  4  5  2  0
  5  6  1  0
  6  7  1  0
  7  9  1  0
  7  8  1  1
  9 13  1  0
 10  9  2  0
 11  5  1  0
 12 11  2  0
 13 14  1  0
 13 17  1  0
 14 15  1  0
 15 16  1  0
 17 16  1  0
 18 22  1  0
 17 18  1  1
 19 18  2  0
 21 20  1  6
 21 22  1  0
 21 23  1  0
 23 24  1  0
 25 23  2  0
M  END
$$$$
