YPA.pdb
     RDKit          3D

 25 26  0  0  1  0  0  0  0  0999 V2000
    6.0949  -10.3822   27.3040 O   0  0  0  0  0  0  0  0  0  0  0  0
    6.4838  -11.6469   26.8789 C   0  0  0  0  0  0  0  0  0  0  0  0
    7.7667  -11.8829   26.4415 C   0  0  0  0  0  0  0  0  0  0  0  0
    8.1734  -13.1502   26.0105 C   0  0  0  0  0  0  0  0  0  0  0  0
    7.3082  -14.2200   26.0043 C   0  0  0  0  0  0  0  0  0  0  0  0
    7.7052  -15.5803   25.5622 C   0  0  0  0  0  0  0  0  0  0  0  0
    6.7208  -16.2316   24.6321 C   0  0  2  0  0  0  0  0  0  0  0  0
    6.0438  -17.3750   25.1896 N   0  0  0  0  0  0  0  0  0  0  0  0
    7.3895  -16.5205   23.3511 C   0  0  0  0  0  0  0  0  0  0  0  0
    7.6048  -17.7054   22.9954 O   0  0  0  0  0  0  0  0  0  0  0  0
    6.0092  -13.9653   26.4508 C   0  0  0  0  0  0  0  0  0  0  0  0
    5.6081  -12.7164   26.8757 C   0  0  0  0  0  0  0  0  0  0  0  0
    7.8361  -15.4806   22.4354 N   0  0  0  0  0  0  0  0  0  0  0  0
    7.7915  -14.0690   22.6881 C   0  0  0  0  0  0  0  0  0  0  0  0
    8.2383  -13.4089   21.4177 C   0  0  0  0  0  0  0  0  0  0  0  0
    8.0776  -14.5019   20.3450 C   0  0  0  0  0  0  0  0  0  0  0  0
    8.4061  -15.7163   21.1363 C   0  0  1  0  0  0  0  0  0  0  0  0
    9.8591  -16.0022   21.2008 C   0  0  0  0  0  0  0  0  0  0  0  0
   10.4813  -16.0720   20.1159 O   0  0  0  0  0  0  0  0  0  0  0  0
   12.5169  -15.9745   23.8704 C   0  0  0  0  0  0  0  0  0  0  0  0
   11.9820  -16.3804   22.5148 C   0  0  2  0  0  0  0  0  0  0  0  0
   10.5705  -16.1979   22.3950 N   0  0  0  0  0  0  0  0  0  0  0  0
   12.2995  -17.8108   22.3337 C   0  0  0  0  0  0  0  0  0  0  0  0
   13.6075  -18.1874   22.1023 O   0  0  0  0  0  0  0  0  0  0  0  0
   11.4198  -18.6981   22.3827 O   0  0  0  0  0  0  0  0  0  0  0  0
  1  2  1  0
  2  3  2  0
  2 12  1  0
  3  4  1  0
  4  5  2  0
  5  6  1  0
  6  7  1  0
  7  9  1  0
  7  8  1  1
  9 13  1  0
 10  9  2  0
 11  5  1  0
 12 11  2  0
 13 14  1  0
 13 17  1  0
 14 15  1  0
 15 16  1  0
 17 16  1  0
 18 22  1  0
 17 18  1  1
 19 18  2  0
 21 20  1  1
 21 22  1  0
 21 23  1  0
 23 24  1  0
 25 23  2  0
M  END
$$$$
