YPA.pdb
     RDKit          3D

 25 26  0  0  1  0  0  0  0  0999 V2000
    5.7269  -10.5070   27.9674 O   0  0  0  0  0  0  0  0  0  0  0  0
    6.2583  -11.6585   27.3992 C   0  0  0  0  0  0  0  0  0  0  0  0
    5.4968  -12.4596   26.5800 C   0  0  0  0  0  0  0  0  0  0  0  0
    6.0173  -13.6218   26.0006 C   0  0  0  0  0  0  0  0  0  0  0  0
    7.3161  -14.0174   26.2235 C   0  0  0  0  0  0  0  0  0  0  0  0
    7.9058  -15.2388   25.6202 C   0  0  0  0  0  0  0  0  0  0  0  0
    6.9092  -16.1123   24.9119 C   0  0  2  0  0  0  0  0  0  0  0  0
    6.3135  -17.1281   25.7425 N   0  0  0  0  0  0  0  0  0  0  0  0
    7.5281  -16.6521   23.6883 C   0  0  0  0  0  0  0  0  0  0  0  0
    7.7374  -17.8845   23.5682 O   0  0  0  0  0  0  0  0  0  0  0  0
    8.0770  -13.1944   27.0574 C   0  0  0  0  0  0  0  0  0  0  0  0
    7.5643  -12.0488   27.6285 C   0  0  0  0  0  0  0  0  0  0  0  0
    7.9304  -15.8168   22.5660 N   0  0  0  0  0  0  0  0  0  0  0  0
    7.7995  -14.3897   22.4973 C   0  0  0  0  0  0  0  0  0  0  0  0
    8.2305  -14.0027   21.1139 C   0  0  0  0  0  0  0  0  0  0  0  0
    8.1532  -15.3146   20.3112 C   0  0  0  0  0  0  0  0  0  0  0  0
    8.5369  -16.3005   21.3551 C   0  0  1  0  0  0  0  0  0  0  0  0
   10.0027  -16.4762   21.4890 C   0  0  0  0  0  0  0  0  0  0  0  0
   10.6291  -15.6123   22.1449 O   0  0  0  0  0  0  0  0  0  0  0  0
   12.3636  -19.3619   20.8157 C   0  0  0  0  0  0  0  0  0  0  0  0
   12.0291  -17.9724   21.3116 C   0  0  2  0  0  0  0  0  0  0  0  0
   10.7218  -17.5434   20.9282 N   0  0  0  0  0  0  0  0  0  0  0  0
   13.0271  -17.0525   20.7309 C   0  0  0  0  0  0  0  0  0  0  0  0
   14.3174  -17.0598   21.2221 O   0  0  0  0  0  0  0  0  0  0  0  0
   12.7427  -16.2624   19.8044 O   0  0  0  0  0  0  0  0  0  0  0  0
  1  2  1  0
  2  3  2  0
  2 12  1  0
  3  4  1  0
  4  5  2  0
  5  6  1  0
  6  7  1  0
  7  9  1  0
  7  8  1  1
  9 13  1  0
 10  9  2  0
 11  5  1  0
 12 11  2  0
 13 14  1  0
 13 17  1  0
 14 15  1  0
 15 16  1  0
 17 16  1  0
 18 22  1  0
 17 18  1  1
 19 18  2  0
 21 20  1  6
 21 22  1  0
 21 23  1  0
 23 24  1  0
 25 23  2  0
M  END
$$$$
