KWK.pdb
     RDKit          3D

 33 34  0  0  1  0  0  0  0  0999 V2000
   28.0056  -21.0707  -15.5585 N   0  0  0  0  0  0  0  0  0  0  0  0
   26.5737  -20.9005  -15.7011 C   0  0  1  0  0  0  0  0  0  0  0  0
   26.0951  -21.8356  -16.7738 C   0  0  0  0  0  0  0  0  0  0  0  0
   26.6403  -21.6070  -18.1318 C   0  0  0  0  0  0  0  0  0  0  0  0
   27.8581  -22.3704  -18.5134 C   0  0  0  0  0  0  0  0  0  0  0  0
   27.4518  -23.2318  -19.7284 C   0  0  0  0  0  0  0  0  0  0  0  0
   28.6655  -23.9634  -20.1093 N   0  0  0  0  0  0  0  0  0  0  0  0
   25.9104  -21.3270  -14.4268 C   0  0  0  0  0  0  0  0  0  0  0  0
   25.6942  -22.5623  -14.2221 O   0  0  0  0  0  0  0  0  0  0  0  0
   25.5026  -20.4330  -13.4221 N   0  0  0  0  0  0  0  0  0  0  0  0
   25.2831  -20.8728  -12.0329 C   0  0  1  0  0  0  0  0  0  0  0  0
   26.0110  -19.8814  -11.1769 C   0  0  0  0  0  0  0  0  0  0  0  0
   27.0869  -20.4250  -10.3566 C   0  0  0  0  0  0  0  0  0  0  0  0
   28.0484  -21.3083  -10.7914 C   0  0  0  0  0  0  0  0  0  0  0  0
   28.8598  -21.5800   -9.7706 N   0  0  0  0  0  0  0  0  0  0  0  0
   28.4688  -20.9056   -8.6717 C   0  0  0  0  0  0  0  0  0  0  0  0
   28.9740  -20.8523   -7.3799 C   0  0  0  0  0  0  0  0  0  0  0  0
   28.3629  -20.0614   -6.4242 C   0  0  0  0  0  0  0  0  0  0  0  0
   27.2442  -19.3391   -6.8132 C   0  0  0  0  0  0  0  0  0  0  0  0
   26.7254  -19.3735   -8.0803 C   0  0  0  0  0  0  0  0  0  0  0  0
   27.3494  -20.1722   -9.0296 C   0  0  0  0  0  0  0  0  0  0  0  0
   23.7925  -20.7897  -11.7990 C   0  0  0  0  0  0  0  0  0  0  0  0
   23.1157  -19.8646  -12.3248 O   0  0  0  0  0  0  0  0  0  0  0  0
   23.1233  -21.7346  -10.9962 N   0  0  0  0  0  0  0  0  0  0  0  0
   21.6620  -21.5313  -10.6292 C   0  0  1  0  0  0  0  0  0  0  0  0
   21.4076  -22.3458   -9.4421 C   0  0  0  0  0  0  0  0  0  0  0  0
   20.1035  -22.8673   -9.0404 C   0  0  0  0  0  0  0  0  0  0  0  0
   19.9939  -23.7277   -7.8314 C   0  0  0  0  0  0  0  0  0  0  0  0
   18.5303  -24.1377   -7.6945 C   0  0  0  0  0  0  0  0  0  0  0  0
   18.4339  -24.9669   -6.5130 N   0  0  0  0  0  0  0  0  0  0  0  0
   21.4084  -20.1022  -10.6617 C   0  0  0  0  0  0  0  0  0  0  0  0
   22.0501  -19.3118   -9.8499 O   0  0  0  0  0  0  0  0  0  0  0  0
   20.5443  -19.4075  -11.4763 O   0  0  0  0  0  0  0  0  0  0  0  0
  2  1  1  1
  2  3  1  0
  4  3  1  0
  4  5  1  0
  5  6  1  0
  6  7  1  0
  8  2  1  0
  9  8  2  0
 10  8  1  0
 11 12  1  1
 11 10  1  0
 12 13  1  0
 13 14  2  0
 14 15  1  0
 16 15  1  0
 17 16  2  0
 18 17  1  0
 19 20  1  0
 19 18  2  0
 20 21  2  0
 21 13  1  0
 21 16  1  0
 22 11  1  0
 23 22  2  0
 24 22  1  0
 25 31  1  0
 25 24  1  0
 25 26  1  1
 27 26  1  0
 27 28  1  0
 29 28  1  0
 29 30  1  0
 31 33  1  0
 32 31  2  0
M  END
$$$$
