KWK.pdb
     RDKit          3D

 33 34  0  0  1  0  0  0  0  0999 V2000
   28.4650  -19.5321  -14.4124 N   0  0  0  0  0  0  0  0  0  0  0  0
   27.4289  -20.5168  -14.6499 C   0  0  1  0  0  0  0  0  0  0  0  0
   28.0353  -21.6615  -15.4089 C   0  0  0  0  0  0  0  0  0  0  0  0
   28.4947  -21.3637  -16.7851 C   0  0  0  0  0  0  0  0  0  0  0  0
   29.8988  -20.9019  -16.9487 C   0  0  0  0  0  0  0  0  0  0  0  0
   30.0806  -20.6330  -18.4580 C   0  0  0  0  0  0  0  0  0  0  0  0
   29.4945  -21.7966  -19.1332 N   0  0  0  0  0  0  0  0  0  0  0  0
   26.9748  -21.0636  -13.3306 C   0  0  0  0  0  0  0  0  0  0  0  0
   26.2092  -22.0774  -13.3086 O   0  0  0  0  0  0  0  0  0  0  0  0
   27.3469  -20.5182  -12.0901 N   0  0  0  0  0  0  0  0  0  0  0  0
   26.7410  -20.9754  -10.8270 C   0  0  1  0  0  0  0  0  0  0  0  0
   27.6286  -20.4484   -9.7407 C   0  0  0  0  0  0  0  0  0  0  0  0
   27.0987  -20.5519   -8.3863 C   0  0  0  0  0  0  0  0  0  0  0  0
   25.8506  -21.0281   -8.0560 C   0  0  0  0  0  0  0  0  0  0  0  0
   25.7190  -20.9746   -6.7316 N   0  0  0  0  0  0  0  0  0  0  0  0
   26.8393  -20.4784   -6.1712 C   0  0  0  0  0  0  0  0  0  0  0  0
   27.1918  -20.2290   -4.8519 C   0  0  0  0  0  0  0  0  0  0  0  0
   28.4341  -19.7021   -4.5497 C   0  0  0  0  0  0  0  0  0  0  0  0
   29.2920  -19.4416   -5.6084 C   0  0  0  0  0  0  0  0  0  0  0  0
   28.9696  -19.6784   -6.9183 C   0  0  0  0  0  0  0  0  0  0  0  0
   27.7185  -20.2076   -7.2069 C   0  0  0  0  0  0  0  0  0  0  0  0
   25.3752  -20.3320  -10.7619 C   0  0  0  0  0  0  0  0  0  0  0  0
   25.2534  -19.0824  -10.8793 O   0  0  0  0  0  0  0  0  0  0  0  0
   24.2111  -21.1025  -10.5714 N   0  0  0  0  0  0  0  0  0  0  0  0
   22.8538  -20.5560  -10.9844 C   0  0  1  0  0  0  0  0  0  0  0  0
   22.5359  -21.1509  -12.2814 C   0  0  0  0  0  0  0  0  0  0  0  0
   21.3332  -20.8762  -13.0637 C   0  0  0  0  0  0  0  0  0  0  0  0
   21.1633  -21.5063  -14.4008 C   0  0  0  0  0  0  0  0  0  0  0  0
   19.7931  -21.0918  -14.9296 C   0  0  0  0  0  0  0  0  0  0  0  0
   19.6158  -21.7529  -16.2042 N   0  0  0  0  0  0  0  0  0  0  0  0
   21.9757  -20.6801   -9.8349 C   0  0  0  0  0  0  0  0  0  0  0  0
   22.3073  -21.4620   -8.8480 O   0  0  0  0  0  0  0  0  0  0  0  0
   20.7728  -20.0520   -9.6086 O   0  0  0  0  0  0  0  0  0  0  0  0
  2  1  1  1
  2  3  1  0
  4  3  1  0
  4  5  1  0
  5  6  1  0
  6  7  1  0
  8  2  1  0
  9  8  2  0
 10  8  1  0
 11 12  1  1
 11 10  1  0
 12 13  1  0
 13 14  2  0
 14 15  1  0
 16 15  1  0
 17 16  2  0
 18 17  1  0
 19 20  1  0
 19 18  2  0
 20 21  2  0
 21 13  1  0
 21 16  1  0
 22 11  1  0
 23 22  2  0
 24 22  1  0
 25 31  1  0
 25 24  1  0
 25 26  1  6
 27 26  1  0
 27 28  1  0
 29 28  1  0
 29 30  1  0
 31 33  1  0
 32 31  2  0
M  END
$$$$
