KWK.pdb
     RDKit          3D

 33 34  0  0  1  0  0  0  0  0999 V2000
   27.9048  -24.5289  -16.3888 N   0  0  0  0  0  0  0  0  0  0  0  0
   26.6112  -23.8954  -16.5455 C   0  0  1  0  0  0  0  0  0  0  0  0
   25.6542  -24.9134  -17.0949 C   0  0  0  0  0  0  0  0  0  0  0  0
   26.0724  -25.5998  -18.3390 C   0  0  0  0  0  0  0  0  0  0  0  0
   26.0400  -24.8075  -19.5970 C   0  0  0  0  0  0  0  0  0  0  0  0
   26.3949  -25.7972  -20.7274 C   0  0  0  0  0  0  0  0  0  0  0  0
   27.7996  -25.5261  -21.0543 N   0  0  0  0  0  0  0  0  0  0  0  0
   26.1000  -23.5065  -15.1915 C   0  0  0  0  0  0  0  0  0  0  0  0
   25.9183  -24.4071  -14.3138 O   0  0  0  0  0  0  0  0  0  0  0  0
   25.8018  -22.1844  -14.8201 N   0  0  0  0  0  0  0  0  0  0  0  0
   25.3096  -21.8479  -13.4725 C   0  0  1  0  0  0  0  0  0  0  0  0
   26.0502  -20.6086  -13.0710 C   0  0  0  0  0  0  0  0  0  0  0  0
   27.1408  -20.8037  -12.1232 C   0  0  0  0  0  0  0  0  0  0  0  0
   28.4484  -21.0682  -12.4605 C   0  0  0  0  0  0  0  0  0  0  0  0
   29.1556  -21.1830  -11.3376 N   0  0  0  0  0  0  0  0  0  0  0  0
   28.3602  -21.0031  -10.2650 C   0  0  0  0  0  0  0  0  0  0  0  0
   28.6138  -21.0247   -8.9005 C   0  0  0  0  0  0  0  0  0  0  0  0
   27.5898  -20.8057   -7.9973 C   0  0  0  0  0  0  0  0  0  0  0  0
   26.3239  -20.5679   -8.5126 C   0  0  0  0  0  0  0  0  0  0  0  0
   26.0465  -20.5409   -9.8536 C   0  0  0  0  0  0  0  0  0  0  0  0
   27.0846  -20.7627  -10.7488 C   0  0  0  0  0  0  0  0  0  0  0  0
   23.8334  -21.5637  -13.6257 C   0  0  0  0  0  0  0  0  0  0  0  0
   23.4212  -20.8195  -14.5565 O   0  0  0  0  0  0  0  0  0  0  0  0
   22.8854  -22.1176  -12.7427 N   0  0  0  0  0  0  0  0  0  0  0  0
   21.4152  -21.7513  -12.8679 C   0  0  1  0  0  0  0  0  0  0  0  0
   20.6562  -22.8296  -12.2367 C   0  0  0  0  0  0  0  0  0  0  0  0
   19.1990  -22.9259  -12.1991 C   0  0  0  0  0  0  0  0  0  0  0  0
   18.5544  -24.1243  -11.5972 C   0  0  0  0  0  0  0  0  0  0  0  0
   17.0512  -23.8638  -11.5611 C   0  0  0  0  0  0  0  0  0  0  0  0
   16.4463  -24.9822  -10.8708 N   0  0  0  0  0  0  0  0  0  0  0  0
   21.2842  -20.3644  -12.4592 C   0  0  0  0  0  0  0  0  0  0  0  0
   22.0737  -19.8820  -11.5430 O   0  0  0  0  0  0  0  0  0  0  0  0
   20.4029  -19.4170  -12.9264 O   0  0  0  0  0  0  0  0  0  0  0  0
  2  1  1  1
  2  3  1  0
  4  3  1  0
  4  5  1  0
  5  6  1  0
  6  7  1  0
  8  2  1  0
  9  8  2  0
 10  8  1  0
 11 12  1  6
 11 10  1  0
 12 13  1  0
 13 14  2  0
 14 15  1  0
 16 15  1  0
 17 16  2  0
 18 17  1  0
 19 20  1  0
 19 18  2  0
 20 21  2  0
 21 13  1  0
 21 16  1  0
 22 11  1  0
 23 22  2  0
 24 22  1  0
 25 31  1  0
 25 24  1  0
 25 26  1  1
 27 26  1  0
 27 28  1  0
 29 28  1  0
 29 30  1  0
 31 33  1  0
 32 31  2  0
M  END
$$$$
