KWK.pdb
     RDKit          3D

 33 34  0  0  1  0  0  0  0  0999 V2000
   27.9024  -22.2682  -15.4071 N   0  0  0  0  0  0  0  0  0  0  0  0
   28.0496  -21.0674  -14.6097 C   0  0  1  0  0  0  0  0  0  0  0  0
   27.4304  -19.9258  -15.3630 C   0  0  0  0  0  0  0  0  0  0  0  0
   28.1217  -19.5102  -16.6052 C   0  0  0  0  0  0  0  0  0  0  0  0
   27.7795  -20.2442  -17.8525 C   0  0  0  0  0  0  0  0  0  0  0  0
   28.6318  -19.6008  -18.9672 C   0  0  0  0  0  0  0  0  0  0  0  0
   28.2733  -20.3206  -20.1948 N   0  0  0  0  0  0  0  0  0  0  0  0
   27.2613  -21.2309  -13.3458 C   0  0  0  0  0  0  0  0  0  0  0  0
   26.1521  -21.8498  -13.3810 O   0  0  0  0  0  0  0  0  0  0  0  0
   27.6757  -20.7348  -12.0979 N   0  0  0  0  0  0  0  0  0  0  0  0
   26.9217  -21.0114  -10.8624 C   0  0  1  0  0  0  0  0  0  0  0  0
   27.8291  -20.6113   -9.7389 C   0  0  0  0  0  0  0  0  0  0  0  0
   27.2040  -20.5174   -8.4250 C   0  0  0  0  0  0  0  0  0  0  0  0
   25.9108  -20.8862   -8.1326 C   0  0  0  0  0  0  0  0  0  0  0  0
   25.6935  -20.6603   -6.8381 N   0  0  0  0  0  0  0  0  0  0  0  0
   26.8005  -20.1536   -6.2607 C   0  0  0  0  0  0  0  0  0  0  0  0
   27.0770  -19.7581   -4.9592 C   0  0  0  0  0  0  0  0  0  0  0  0
   28.3247  -19.2593   -4.6322 C   0  0  0  0  0  0  0  0  0  0  0  0
   29.2657  -19.1766   -5.6482 C   0  0  0  0  0  0  0  0  0  0  0  0
   29.0192  -19.5599   -6.9398 C   0  0  0  0  0  0  0  0  0  0  0  0
   27.7617  -20.0587   -7.2537 C   0  0  0  0  0  0  0  0  0  0  0  0
   25.7020  -20.1206  -10.9090 C   0  0  0  0  0  0  0  0  0  0  0  0
   25.8211  -18.8899  -11.1570 O   0  0  0  0  0  0  0  0  0  0  0  0
   24.4104  -20.6349  -10.6802 N   0  0  0  0  0  0  0  0  0  0  0  0
   23.2149  -20.0653  -11.4271 C   0  0  1  0  0  0  0  0  0  0  0  0
   23.5707  -20.0509  -12.8451 C   0  0  0  0  0  0  0  0  0  0  0  0
   22.6888  -19.6326  -13.9320 C   0  0  0  0  0  0  0  0  0  0  0  0
   23.1951  -19.6255  -15.3311 C   0  0  0  0  0  0  0  0  0  0  0  0
   22.6727  -20.8877  -16.0115 C   0  0  0  0  0  0  0  0  0  0  0  0
   23.1142  -20.8375  -17.3884 N   0  0  0  0  0  0  0  0  0  0  0  0
   22.0347  -20.7473  -10.9275 C   0  0  0  0  0  0  0  0  0  0  0  0
   20.8852  -20.1357  -10.9263 O   0  0  0  0  0  0  0  0  0  0  0  0
   21.9349  -22.0261  -10.4303 O   0  0  0  0  0  0  0  0  0  0  0  0
  2  1  1  6
  2  3  1  0
  4  3  1  0
  4  5  1  0
  5  6  1  0
  6  7  1  0
  8  2  1  0
  9  8  2  0
 10  8  1  0
 11 12  1  1
 11 10  1  0
 12 13  1  0
 13 14  2  0
 14 15  1  0
 16 15  1  0
 17 16  2  0
 18 17  1  0
 19 20  1  0
 19 18  2  0
 20 21  2  0
 21 13  1  0
 21 16  1  0
 22 11  1  0
 23 22  2  0
 24 22  1  0
 25 31  1  0
 25 24  1  0
 25 26  1  6
 27 26  1  0
 27 28  1  0
 29 28  1  0
 29 30  1  0
 31 33  1  0
 32 31  2  0
M  END
$$$$
