KWK.pdb
     RDKit          3D

 33 34  0  0  1  0  0  0  0  0999 V2000
   26.2897  -23.8115  -16.5146 N   0  0  0  0  0  0  0  0  0  0  0  0
   25.4126  -24.9483  -16.7094 C   0  0  1  0  0  0  0  0  0  0  0  0
   25.9354  -26.0900  -15.8865 C   0  0  0  0  0  0  0  0  0  0  0  0
   27.2407  -26.6526  -16.3028 C   0  0  0  0  0  0  0  0  0  0  0  0
   27.4023  -27.0069  -17.7380 C   0  0  0  0  0  0  0  0  0  0  0  0
   28.8390  -27.5541  -17.8777 C   0  0  0  0  0  0  0  0  0  0  0  0
   29.0120  -27.8306  -19.3085 N   0  0  0  0  0  0  0  0  0  0  0  0
   24.0578  -24.6077  -16.1669 C   0  0  0  0  0  0  0  0  0  0  0  0
   23.8951  -24.5241  -14.9094 O   0  0  0  0  0  0  0  0  0  0  0  0
   22.9316  -24.3699  -16.9730 N   0  0  0  0  0  0  0  0  0  0  0  0
   21.6048  -24.0957  -16.3933 C   0  0  1  0  0  0  0  0  0  0  0  0
   20.8238  -23.4180  -17.4778 C   0  0  0  0  0  0  0  0  0  0  0  0
   19.4345  -23.1116  -17.1586 C   0  0  0  0  0  0  0  0  0  0  0  0
   19.0062  -22.4491  -16.0311 C   0  0  0  0  0  0  0  0  0  0  0  0
   17.6788  -22.3514  -16.0816 N   0  0  0  0  0  0  0  0  0  0  0  0
   17.2111  -22.9275  -17.2063 C   0  0  0  0  0  0  0  0  0  0  0  0
   15.9274  -23.0855  -17.7100 C   0  0  0  0  0  0  0  0  0  0  0  0
   15.7260  -23.7335  -18.9150 C   0  0  0  0  0  0  0  0  0  0  0  0
   16.8473  -24.2069  -19.5807 C   0  0  0  0  0  0  0  0  0  0  0  0
   18.1243  -24.0642  -19.1063 C   0  0  0  0  0  0  0  0  0  0  0  0
   18.3113  -23.4115  -17.8949 C   0  0  0  0  0  0  0  0  0  0  0  0
   21.0060  -25.4434  -16.0641 C   0  0  0  0  0  0  0  0  0  0  0  0
   21.1604  -26.4181  -16.8494 O   0  0  0  0  0  0  0  0  0  0  0  0
   20.2669  -25.6475  -14.8821 N   0  0  0  0  0  0  0  0  0  0  0  0
   19.7360  -27.0301  -14.5388 C   0  0  1  0  0  0  0  0  0  0  0  0
   20.3758  -27.4291  -13.2863 C   0  0  0  0  0  0  0  0  0  0  0  0
   20.2283  -28.7313  -12.6410 C   0  0  0  0  0  0  0  0  0  0  0  0
   21.0272  -29.0470  -11.4260 C   0  0  0  0  0  0  0  0  0  0  0  0
   20.6835  -30.4752  -11.0126 C   0  0  0  0  0  0  0  0  0  0  0  0
   21.4639  -30.7709   -9.8307 N   0  0  0  0  0  0  0  0  0  0  0  0
   18.2934  -26.9849  -14.6961 C   0  0  0  0  0  0  0  0  0  0  0  0
   17.6216  -28.0921  -14.8309 O   0  0  0  0  0  0  0  0  0  0  0  0
   17.4720  -25.8815  -14.7178 O   0  0  0  0  0  0  0  0  0  0  0  0
  2  1  1  1
  2  3  1  0
  4  3  1  0
  4  5  1  0
  5  6  1  0
  6  7  1  0
  8  2  1  0
  9  8  2  0
 10  8  1  0
 11 12  1  6
 11 10  1  0
 12 13  1  0
 13 14  2  0
 14 15  1  0
 16 15  1  0
 17 16  2  0
 18 17  1  0
 19 20  1  0
 19 18  2  0
 20 21  2  0
 21 13  1  0
 21 16  1  0
 22 11  1  0
 23 22  2  0
 24 22  1  0
 25 31  1  0
 25 24  1  0
 25 26  1  1
 27 26  1  0
 27 28  1  0
 29 28  1  0
 29 30  1  0
 31 33  1  0
 32 31  2  0
M  END
$$$$
