KWK.pdb
     RDKit          3D

 33 34  0  0  1  0  0  0  0  0999 V2000
   26.9167  -17.9249  -18.7412 N   0  0  0  0  0  0  0  0  0  0  0  0
   25.9428  -17.7114  -17.6898 C   0  0  1  0  0  0  0  0  0  0  0  0
   24.5739  -17.9242  -18.2686 C   0  0  0  0  0  0  0  0  0  0  0  0
   23.9225  -16.7340  -18.8624 C   0  0  0  0  0  0  0  0  0  0  0  0
   24.0434  -15.4510  -18.1203 C   0  0  0  0  0  0  0  0  0  0  0  0
   23.2133  -14.4228  -18.9185 C   0  0  0  0  0  0  0  0  0  0  0  0
   23.3508  -13.1592  -18.1851 N   0  0  0  0  0  0  0  0  0  0  0  0
   26.1358  -18.7599  -16.6366 C   0  0  0  0  0  0  0  0  0  0  0  0
   26.0603  -19.9864  -16.9598 O   0  0  0  0  0  0  0  0  0  0  0  0
   26.4002  -18.4710  -15.2870 N   0  0  0  0  0  0  0  0  0  0  0  0
   26.6104  -19.5364  -14.2909 C   0  0  1  0  0  0  0  0  0  0  0  0
   27.4085  -18.9066  -13.1900 C   0  0  0  0  0  0  0  0  0  0  0  0
   27.7647  -19.7878  -12.0843 C   0  0  0  0  0  0  0  0  0  0  0  0
   28.6926  -20.8022  -12.1444 C   0  0  0  0  0  0  0  0  0  0  0  0
   28.7514  -21.3873  -10.9493 N   0  0  0  0  0  0  0  0  0  0  0  0
   27.8928  -20.7944  -10.0969 C   0  0  0  0  0  0  0  0  0  0  0  0
   27.5867  -21.0322   -8.7640 C   0  0  0  0  0  0  0  0  0  0  0  0
   26.6420  -20.2572   -8.1165 C   0  0  0  0  0  0  0  0  0  0  0  0
   26.0293  -19.2516   -8.8501 C   0  0  0  0  0  0  0  0  0  0  0  0
   26.3127  -18.9958  -10.1654 C   0  0  0  0  0  0  0  0  0  0  0  0
   27.2634  -19.7822  -10.8028 C   0  0  0  0  0  0  0  0  0  0  0  0
   25.2356  -19.9267  -13.8000 C   0  0  0  0  0  0  0  0  0  0  0  0
   24.3357  -19.0536  -13.6652 O   0  0  0  0  0  0  0  0  0  0  0  0
   24.9231  -21.2636  -13.4836 N   0  0  0  0  0  0  0  0  0  0  0  0
   23.5439  -21.6242  -12.9552 C   0  0  1  0  0  0  0  0  0  0  0  0
   23.3190  -23.0301  -13.2870 C   0  0  0  0  0  0  0  0  0  0  0  0
   23.7531  -23.6865  -14.5177 C   0  0  0  0  0  0  0  0  0  0  0  0
   22.7576  -24.3969  -15.3652 C   0  0  0  0  0  0  0  0  0  0  0  0
   23.5109  -25.4606  -16.1591 C   0  0  0  0  0  0  0  0  0  0  0  0
   23.1175  -26.7448  -15.6215 N   0  0  0  0  0  0  0  0  0  0  0  0
   23.4629  -21.1227  -11.5952 C   0  0  0  0  0  0  0  0  0  0  0  0
   24.5546  -20.8709  -10.9317 O   0  0  0  0  0  0  0  0  0  0  0  0
   22.3377  -20.8467  -10.8534 O   0  0  0  0  0  0  0  0  0  0  0  0
  2  1  1  6
  2  3  1  0
  4  3  1  0
  4  5  1  0
  5  6  1  0
  6  7  1  0
  8  2  1  0
  9  8  2  0
 10  8  1  0
 11 12  1  1
 11 10  1  0
 12 13  1  0
 13 14  2  0
 14 15  1  0
 16 15  1  0
 17 16  2  0
 18 17  1  0
 19 20  1  0
 19 18  2  0
 20 21  2  0
 21 13  1  0
 21 16  1  0
 22 11  1  0
 23 22  2  0
 24 22  1  0
 25 31  1  0
 25 24  1  0
 25 26  1  1
 27 26  1  0
 27 28  1  0
 29 28  1  0
 29 30  1  0
 31 33  1  0
 32 31  2  0
M  END
$$$$
