KWK.pdb
     RDKit          3D

 33 34  0  0  1  0  0  0  0  0999 V2000
   28.8190  -22.8654  -17.0506 N   0  0  0  0  0  0  0  0  0  0  0  0
   28.3925  -21.5927  -16.5050 C   0  0  1  0  0  0  0  0  0  0  0  0
   27.4232  -20.9709  -17.4683 C   0  0  0  0  0  0  0  0  0  0  0  0
   27.9655  -20.6045  -18.7970 C   0  0  0  0  0  0  0  0  0  0  0  0
   27.5977  -19.2687  -19.3372 C   0  0  0  0  0  0  0  0  0  0  0  0
   26.2044  -19.4429  -19.9788 C   0  0  0  0  0  0  0  0  0  0  0  0
   25.9421  -18.1839  -20.6855 N   0  0  0  0  0  0  0  0  0  0  0  0
   27.6395  -21.8436  -15.2338 C   0  0  0  0  0  0  0  0  0  0  0  0
   26.7825  -22.7809  -15.1940 O   0  0  0  0  0  0  0  0  0  0  0  0
   27.8215  -21.0954  -14.0583 N   0  0  0  0  0  0  0  0  0  0  0  0
   27.0409  -21.3637  -12.8376 C   0  0  1  0  0  0  0  0  0  0  0  0
   27.7209  -20.5928  -11.7472 C   0  0  0  0  0  0  0  0  0  0  0  0
   26.9923  -20.5044  -10.4874 C   0  0  0  0  0  0  0  0  0  0  0  0
   25.6262  -20.3917  -10.3662 C   0  0  0  0  0  0  0  0  0  0  0  0
   25.3237  -20.3377   -9.0701 N   0  0  0  0  0  0  0  0  0  0  0  0
   26.4447  -20.4110   -8.3261 C   0  0  0  0  0  0  0  0  0  0  0  0
   26.6576  -20.3955   -6.9546 C   0  0  0  0  0  0  0  0  0  0  0  0
   27.9409  -20.4851   -6.4470 C   0  0  0  0  0  0  0  0  0  0  0  0
   28.9820  -20.5896   -7.3579 C   0  0  0  0  0  0  0  0  0  0  0  0
   28.7998  -20.6075   -8.7153 C   0  0  0  0  0  0  0  0  0  0  0  0
   27.5056  -20.5166   -9.2106 C   0  0  0  0  0  0  0  0  0  0  0  0
   25.6568  -20.8160  -13.0978 C   0  0  0  0  0  0  0  0  0  0  0  0
   25.5093  -19.6587  -13.5765 O   0  0  0  0  0  0  0  0  0  0  0  0
   24.5039  -21.5755  -12.8169 N   0  0  0  0  0  0  0  0  0  0  0  0
   23.1339  -21.0784  -13.2499 C   0  0  1  0  0  0  0  0  0  0  0  0
   22.4778  -22.1912  -13.9343 C   0  0  0  0  0  0  0  0  0  0  0  0
   21.1498  -22.1434  -14.5412 C   0  0  0  0  0  0  0  0  0  0  0  0
   20.6561  -23.3062  -15.3274 C   0  0  0  0  0  0  0  0  0  0  0  0
   19.2442  -22.9710  -15.7995 C   0  0  0  0  0  0  0  0  0  0  0  0
   18.7499  -24.1320  -16.5072 N   0  0  0  0  0  0  0  0  0  0  0  0
   22.5410  -20.4098  -12.1057 C   0  0  0  0  0  0  0  0  0  0  0  0
   22.7940  -20.8383  -10.9024 O   0  0  0  0  0  0  0  0  0  0  0  0
   21.7050  -19.3173  -12.0949 O   0  0  0  0  0  0  0  0  0  0  0  0
  2  1  1  6
  2  3  1  0
  4  3  1  0
  4  5  1  0
  5  6  1  0
  6  7  1  0
  8  2  1  0
  9  8  2  0
 10  8  1  0
 11 12  1  1
 11 10  1  0
 12 13  1  0
 13 14  2  0
 14 15  1  0
 16 15  1  0
 17 16  2  0
 18 17  1  0
 19 20  1  0
 19 18  2  0
 20 21  2  0
 21 13  1  0
 21 16  1  0
 22 11  1  0
 23 22  2  0
 24 22  1  0
 25 31  1  0
 25 24  1  0
 25 26  1  1
 27 26  1  0
 27 28  1  0
 29 28  1  0
 29 30  1  0
 31 33  1  0
 32 31  2  0
M  END
$$$$
