KWK.pdb
     RDKit          3D

 33 34  0  0  1  0  0  0  0  0999 V2000
   28.5836  -20.4449  -14.4391 N   0  0  0  0  0  0  0  0  0  0  0  0
   27.4674  -21.2692  -14.8564 C   0  0  1  0  0  0  0  0  0  0  0  0
   28.0068  -22.5969  -15.3040 C   0  0  0  0  0  0  0  0  0  0  0  0
   28.8409  -22.5852  -16.5279 C   0  0  0  0  0  0  0  0  0  0  0  0
   30.2226  -23.1235  -16.4147 C   0  0  0  0  0  0  0  0  0  0  0  0
   30.8899  -22.8617  -17.7820 C   0  0  0  0  0  0  0  0  0  0  0  0
   32.3091  -23.1812  -17.5890 N   0  0  0  0  0  0  0  0  0  0  0  0
   26.5954  -21.5344  -13.6669 C   0  0  0  0  0  0  0  0  0  0  0  0
   26.0671  -22.6815  -13.5272 O   0  0  0  0  0  0  0  0  0  0  0  0
   26.3170  -20.5788  -12.6748 N   0  0  0  0  0  0  0  0  0  0  0  0
   25.4091  -20.8675  -11.5506 C   0  0  1  0  0  0  0  0  0  0  0  0
   25.8448  -19.9625  -10.4385 C   0  0  0  0  0  0  0  0  0  0  0  0
   27.0595  -20.3621   -9.7381 C   0  0  0  0  0  0  0  0  0  0  0  0
   28.0312  -21.1943  -10.2449 C   0  0  0  0  0  0  0  0  0  0  0  0
   28.9864  -21.3307   -9.3266 N   0  0  0  0  0  0  0  0  0  0  0  0
   28.6809  -20.6159   -8.2261 C   0  0  0  0  0  0  0  0  0  0  0  0
   29.3396  -20.4349   -7.0177 C   0  0  0  0  0  0  0  0  0  0  0  0
   28.7883  -19.6314   -6.0365 C   0  0  0  0  0  0  0  0  0  0  0  0
   27.5705  -19.0281   -6.3148 C   0  0  0  0  0  0  0  0  0  0  0  0
   26.8998  -19.1897   -7.4981 C   0  0  0  0  0  0  0  0  0  0  0  0
   27.4654  -19.9994   -8.4742 C   0  0  0  0  0  0  0  0  0  0  0  0
   24.0231  -20.5006  -12.0280 C   0  0  0  0  0  0  0  0  0  0  0  0
   23.8220  -19.4044  -12.6180 O   0  0  0  0  0  0  0  0  0  0  0  0
   22.9279  -21.3646  -11.8305 N   0  0  0  0  0  0  0  0  0  0  0  0
   21.5367  -20.9559  -12.2876 C   0  0  1  0  0  0  0  0  0  0  0  0
   21.0757  -21.9894  -13.2132 C   0  0  0  0  0  0  0  0  0  0  0  0
   19.8733  -21.9074  -14.0386 C   0  0  0  0  0  0  0  0  0  0  0  0
   19.5435  -23.0169  -14.9736 C   0  0  0  0  0  0  0  0  0  0  0  0
   18.2601  -22.6317  -15.7039 C   0  0  0  0  0  0  0  0  0  0  0  0
   17.9001  -23.7537  -16.5433 N   0  0  0  0  0  0  0  0  0  0  0  0
   20.7887  -20.5849  -11.0999 C   0  0  0  0  0  0  0  0  0  0  0  0
   21.1509  -21.0443   -9.9366 O   0  0  0  0  0  0  0  0  0  0  0  0
   19.6897  -19.7627  -11.0062 O   0  0  0  0  0  0  0  0  0  0  0  0
  2  1  1  1
  2  3  1  0
  4  3  1  0
  4  5  1  0
  5  6  1  0
  6  7  1  0
  8  2  1  0
  9  8  2  0
 10  8  1  0
 11 12  1  1
 11 10  1  0
 12 13  1  0
 13 14  2  0
 14 15  1  0
 16 15  1  0
 17 16  2  0
 18 17  1  0
 19 20  1  0
 19 18  2  0
 20 21  2  0
 21 13  1  0
 21 16  1  0
 22 11  1  0
 23 22  2  0
 24 22  1  0
 25 31  1  0
 25 24  1  0
 25 26  1  1
 27 26  1  0
 27 28  1  0
 29 28  1  0
 29 30  1  0
 31 33  1  0
 32 31  2  0
M  END
$$$$
