KWK.pdb
     RDKit          3D

 33 34  0  0  1  0  0  0  0  0999 V2000
   27.6261  -22.4422  -15.2250 N   0  0  0  0  0  0  0  0  0  0  0  0
   27.5849  -21.1792  -14.5160 C   0  0  1  0  0  0  0  0  0  0  0  0
   26.7520  -20.2198  -15.3159 C   0  0  0  0  0  0  0  0  0  0  0  0
   27.4682  -19.4338  -16.3469 C   0  0  0  0  0  0  0  0  0  0  0  0
   28.6204  -20.0877  -17.0223 C   0  0  0  0  0  0  0  0  0  0  0  0
   29.1558  -19.0545  -18.0367 C   0  0  0  0  0  0  0  0  0  0  0  0
   28.4830  -19.3682  -19.3026 N   0  0  0  0  0  0  0  0  0  0  0  0
   26.8771  -21.3841  -13.2111 C   0  0  0  0  0  0  0  0  0  0  0  0
   25.8629  -22.1482  -13.1678 O   0  0  0  0  0  0  0  0  0  0  0  0
   27.2684  -20.7744  -12.0069 N   0  0  0  0  0  0  0  0  0  0  0  0
   26.5519  -21.0198  -10.7429 C   0  0  1  0  0  0  0  0  0  0  0  0
   27.4738  -20.5489   -9.6594 C   0  0  0  0  0  0  0  0  0  0  0  0
   26.9106  -20.5305   -8.3147 C   0  0  0  0  0  0  0  0  0  0  0  0
   25.6310  -20.9139   -7.9842 C   0  0  0  0  0  0  0  0  0  0  0  0
   25.4748  -20.7631   -6.6701 N   0  0  0  0  0  0  0  0  0  0  0  0
   26.6094  -20.2922   -6.1165 C   0  0  0  0  0  0  0  0  0  0  0  0
   26.9476  -19.9732   -4.8086 C   0  0  0  0  0  0  0  0  0  0  0  0
   28.2110  -19.4959   -4.5117 C   0  0  0  0  0  0  0  0  0  0  0  0
   29.1043  -19.3557   -5.5638 C   0  0  0  0  0  0  0  0  0  0  0  0
   28.7966  -19.6631   -6.8626 C   0  0  0  0  0  0  0  0  0  0  0  0
   27.5239  -20.1412   -7.1459 C   0  0  0  0  0  0  0  0  0  0  0  0
   25.3068  -20.1653  -10.7957 C   0  0  0  0  0  0  0  0  0  0  0  0
   25.3818  -18.9496  -11.1227 O   0  0  0  0  0  0  0  0  0  0  0  0
   24.0396  -20.6973  -10.4855 N   0  0  0  0  0  0  0  0  0  0  0  0
   22.7880  -20.1218  -11.1286 C   0  0  1  0  0  0  0  0  0  0  0  0
   22.9637  -20.2405  -12.5751 C   0  0  0  0  0  0  0  0  0  0  0  0
   21.9073  -20.0724  -13.5699 C   0  0  0  0  0  0  0  0  0  0  0  0
   22.2133  -20.2752  -15.0119 C   0  0  0  0  0  0  0  0  0  0  0  0
   20.9014  -20.1407  -15.7798 C   0  0  0  0  0  0  0  0  0  0  0  0
   21.2188  -20.2832  -17.1841 N   0  0  0  0  0  0  0  0  0  0  0  0
   21.6490  -20.6937  -10.4333 C   0  0  0  0  0  0  0  0  0  0  0  0
   21.7162  -21.9088   -9.9702 O   0  0  0  0  0  0  0  0  0  0  0  0
   20.4331  -20.1093  -10.1633 O   0  0  0  0  0  0  0  0  0  0  0  0
  2  1  1  6
  2  3  1  0
  4  3  1  0
  4  5  1  0
  5  6  1  0
  6  7  1  0
  8  2  1  0
  9  8  2  0
 10  8  1  0
 11 12  1  1
 11 10  1  0
 12 13  1  0
 13 14  2  0
 14 15  1  0
 16 15  1  0
 17 16  2  0
 18 17  1  0
 19 20  1  0
 19 18  2  0
 20 21  2  0
 21 13  1  0
 21 16  1  0
 22 11  1  0
 23 22  2  0
 24 22  1  0
 25 31  1  0
 25 24  1  0
 25 26  1  6
 27 26  1  0
 27 28  1  0
 29 28  1  0
 29 30  1  0
 31 33  1  0
 32 31  2  0
M  END
$$$$
