KWK.pdb
     RDKit          3D

 33 34  0  0  1  0  0  0  0  0999 V2000
   28.7844  -20.5375  -15.1720 N   0  0  0  0  0  0  0  0  0  0  0  0
   27.8182  -19.6954  -14.4963 C   0  0  1  0  0  0  0  0  0  0  0  0
   26.9952  -18.9963  -15.5394 C   0  0  0  0  0  0  0  0  0  0  0  0
   27.7250  -18.5181  -16.7363 C   0  0  0  0  0  0  0  0  0  0  0  0
   26.9954  -17.6093  -17.6599 C   0  0  0  0  0  0  0  0  0  0  0  0
   28.0036  -17.2370  -18.7682 C   0  0  0  0  0  0  0  0  0  0  0  0
   27.2864  -16.3086  -19.6498 N   0  0  0  0  0  0  0  0  0  0  0  0
   26.8812  -20.5687  -13.7185 C   0  0  0  0  0  0  0  0  0  0  0  0
   26.6514  -21.7504  -14.1252 O   0  0  0  0  0  0  0  0  0  0  0  0
   26.2256  -20.1593  -12.5448 N   0  0  0  0  0  0  0  0  0  0  0  0
   25.4504  -21.1015  -11.7186 C   0  0  1  0  0  0  0  0  0  0  0  0
   25.6481  -20.6523  -10.3027 C   0  0  0  0  0  0  0  0  0  0  0  0
   26.9430  -20.9719   -9.7136 C   0  0  0  0  0  0  0  0  0  0  0  0
   27.9187  -21.7386  -10.3086 C   0  0  0  0  0  0  0  0  0  0  0  0
   28.9575  -21.8126   -9.4783 N   0  0  0  0  0  0  0  0  0  0  0  0
   28.7038  -21.1197   -8.3509 C   0  0  0  0  0  0  0  0  0  0  0  0
   29.4528  -20.8965   -7.2037 C   0  0  0  0  0  0  0  0  0  0  0  0
   28.9385  -20.1312   -6.1731 C   0  0  0  0  0  0  0  0  0  0  0  0
   27.6643  -19.6086   -6.3401 C   0  0  0  0  0  0  0  0  0  0  0  0
   26.9044  -19.8133   -7.4611 C   0  0  0  0  0  0  0  0  0  0  0  0
   27.4337  -20.5840   -8.4879 C   0  0  0  0  0  0  0  0  0  0  0  0
   24.0079  -20.9350  -12.1368 C   0  0  0  0  0  0  0  0  0  0  0  0
   23.5232  -19.7834  -12.3082 O   0  0  0  0  0  0  0  0  0  0  0  0
   23.1727  -22.0501  -12.3462 N   0  0  0  0  0  0  0  0  0  0  0  0
   21.7227  -21.8552  -12.7597 C   0  0  1  0  0  0  0  0  0  0  0  0
   21.2439  -23.1492  -13.2430 C   0  0  0  0  0  0  0  0  0  0  0  0
   19.9018  -23.4144  -13.7554 C   0  0  0  0  0  0  0  0  0  0  0  0
   19.5861  -24.7449  -14.3419 C   0  0  0  0  0  0  0  0  0  0  0  0
   18.1651  -24.6743  -14.8941 C   0  0  0  0  0  0  0  0  0  0  0  0
   17.8504  -25.9863  -15.4163 N   0  0  0  0  0  0  0  0  0  0  0  0
   21.0653  -21.1339  -11.6848 C   0  0  0  0  0  0  0  0  0  0  0  0
   21.4830  -21.2753  -10.4597 O   0  0  0  0  0  0  0  0  0  0  0  0
   20.0052  -20.2609  -11.7669 O   0  0  0  0  0  0  0  0  0  0  0  0
  2  1  1  6
  2  3  1  0
  4  3  1  0
  4  5  1  0
  5  6  1  0
  6  7  1  0
  8  2  1  0
  9  8  2  0
 10  8  1  0
 11 12  1  1
 11 10  1  0
 12 13  1  0
 13 14  2  0
 14 15  1  0
 16 15  1  0
 17 16  2  0
 18 17  1  0
 19 20  1  0
 19 18  2  0
 20 21  2  0
 21 13  1  0
 21 16  1  0
 22 11  1  0
 23 22  2  0
 24 22  1  0
 25 31  1  0
 25 24  1  0
 25 26  1  1
 27 26  1  0
 27 28  1  0
 29 28  1  0
 29 30  1  0
 31 33  1  0
 32 31  2  0
M  END
$$$$
