KWK.pdb
     RDKit          3D

 33 34  0  0  1  0  0  0  0  0999 V2000
   28.6324  -21.1406  -16.0068 N   0  0  0  0  0  0  0  0  0  0  0  0
   27.3439  -21.7508  -16.2653 C   0  0  1  0  0  0  0  0  0  0  0  0
   27.5795  -23.1224  -16.8285 C   0  0  0  0  0  0  0  0  0  0  0  0
   28.3454  -23.1871  -18.0946 C   0  0  0  0  0  0  0  0  0  0  0  0
   29.3378  -22.1083  -18.3452 C   0  0  0  0  0  0  0  0  0  0  0  0
   29.3421  -21.8866  -19.8730 C   0  0  0  0  0  0  0  0  0  0  0  0
   30.1484  -22.9827  -20.4223 N   0  0  0  0  0  0  0  0  0  0  0  0
   26.6295  -21.9347  -14.9609 C   0  0  0  0  0  0  0  0  0  0  0  0
   25.5271  -22.5663  -14.9399 O   0  0  0  0  0  0  0  0  0  0  0  0
   27.1074  -21.4446  -13.7336 N   0  0  0  0  0  0  0  0  0  0  0  0
   26.3646  -21.6410  -12.4761 C   0  0  1  0  0  0  0  0  0  0  0  0
   27.3202  -21.2726  -11.3822 C   0  0  0  0  0  0  0  0  0  0  0  0
   26.7116  -20.8999  -10.1108 C   0  0  0  0  0  0  0  0  0  0  0  0
   25.3647  -20.7127   -9.8997 C   0  0  0  0  0  0  0  0  0  0  0  0
   25.1830  -20.3826   -8.6221 N   0  0  0  0  0  0  0  0  0  0  0  0
   26.3655  -20.3445   -7.9774 C   0  0  0  0  0  0  0  0  0  0  0  0
   26.7030  -20.0562   -6.6622 C   0  0  0  0  0  0  0  0  0  0  0  0
   28.0252  -20.0887   -6.2584 C   0  0  0  0  0  0  0  0  0  0  0  0
   28.9766  -20.4175   -7.2131 C   0  0  0  0  0  0  0  0  0  0  0  0
   28.6708  -20.7064   -8.5165 C   0  0  0  0  0  0  0  0  0  0  0  0
   27.3389  -20.6697   -8.9078 C   0  0  0  0  0  0  0  0  0  0  0  0
   25.2038  -20.6746  -12.5212 C   0  0  0  0  0  0  0  0  0  0  0  0
   25.4049  -19.4464  -12.7250 O   0  0  0  0  0  0  0  0  0  0  0  0
   23.8775  -21.1140  -12.3400 N   0  0  0  0  0  0  0  0  0  0  0  0
   22.7141  -20.1747  -12.6149 C   0  0  1  0  0  0  0  0  0  0  0  0
   22.6519  -19.9924  -14.0641 C   0  0  0  0  0  0  0  0  0  0  0  0
   21.8886  -18.9540  -14.7518 C   0  0  0  0  0  0  0  0  0  0  0  0
   21.8220  -18.9500  -16.2383 C   0  0  0  0  0  0  0  0  0  0  0  0
   21.0439  -17.7057  -16.6567 C   0  0  0  0  0  0  0  0  0  0  0  0
   21.0218  -17.6892  -18.1032 N   0  0  0  0  0  0  0  0  0  0  0  0
   21.5839  -20.6569  -11.8418 C   0  0  0  0  0  0  0  0  0  0  0  0
   21.4066  -21.9371  -11.6834 O   0  0  0  0  0  0  0  0  0  0  0  0
   20.6123  -19.9224  -11.2021 O   0  0  0  0  0  0  0  0  0  0  0  0
  2  1  1  1
  2  3  1  0
  4  3  1  0
  4  5  1  0
  5  6  1  0
  6  7  1  0
  8  2  1  0
  9  8  2  0
 10  8  1  0
 11 12  1  1
 11 10  1  0
 12 13  1  0
 13 14  2  0
 14 15  1  0
 16 15  1  0
 17 16  2  0
 18 17  1  0
 19 20  1  0
 19 18  2  0
 20 21  2  0
 21 13  1  0
 21 16  1  0
 22 11  1  0
 23 22  2  0
 24 22  1  0
 25 31  1  0
 25 24  1  0
 25 26  1  6
 27 26  1  0
 27 28  1  0
 29 28  1  0
 29 30  1  0
 31 33  1  0
 32 31  2  0
M  END
$$$$
