KWK.pdb
     RDKit          3D

 33 34  0  0  1  0  0  0  0  0999 V2000
   26.7863  -19.0633  -18.6935 N   0  0  0  0  0  0  0  0  0  0  0  0
   26.7569  -17.7464  -18.0900 C   0  0  1  0  0  0  0  0  0  0  0  0
   27.0236  -16.7324  -19.1646 C   0  0  0  0  0  0  0  0  0  0  0  0
   28.3915  -16.7251  -19.7323 C   0  0  0  0  0  0  0  0  0  0  0  0
   28.9365  -18.0235  -20.2105 C   0  0  0  0  0  0  0  0  0  0  0  0
   30.3379  -17.7092  -20.7766 C   0  0  0  0  0  0  0  0  0  0  0  0
   30.8329  -18.9809  -21.3165 N   0  0  0  0  0  0  0  0  0  0  0  0
   25.3728  -17.4832  -17.5795 C   0  0  0  0  0  0  0  0  0  0  0  0
   25.1060  -16.3542  -17.0609 O   0  0  0  0  0  0  0  0  0  0  0  0
   24.3282  -18.4214  -17.6371 N   0  0  0  0  0  0  0  0  0  0  0  0
   22.9589  -18.0875  -17.2069 C   0  0  1  0  0  0  0  0  0  0  0  0
   22.1368  -18.0676  -18.4596 C   0  0  0  0  0  0  0  0  0  0  0  0
   21.9853  -16.7641  -19.0950 C   0  0  0  0  0  0  0  0  0  0  0  0
   22.8240  -16.2464  -20.0553 C   0  0  0  0  0  0  0  0  0  0  0  0
   22.3732  -15.0413  -20.3996 N   0  0  0  0  0  0  0  0  0  0  0  0
   21.2618  -14.7415  -19.6993 C   0  0  0  0  0  0  0  0  0  0  0  0
   20.4344  -13.6269  -19.6930 C   0  0  0  0  0  0  0  0  0  0  0  0
   19.3361  -13.5785  -18.8542 C   0  0  0  0  0  0  0  0  0  0  0  0
   19.1074  -14.6763  -18.0374 C   0  0  0  0  0  0  0  0  0  0  0  0
   19.9074  -15.7880  -18.0239 C   0  0  0  0  0  0  0  0  0  0  0  0
   21.0068  -15.8226  -18.8715 C   0  0  0  0  0  0  0  0  0  0  0  0
   22.5211  -19.2114  -16.2967 C   0  0  0  0  0  0  0  0  0  0  0  0
   22.6797  -20.4127  -16.6462 O   0  0  0  0  0  0  0  0  0  0  0  0
   21.9307  -18.9517  -15.0441 N   0  0  0  0  0  0  0  0  0  0  0  0
   21.5553  -20.0995  -14.1205 C   0  0  1  0  0  0  0  0  0  0  0  0
   21.7035  -19.6064  -12.7523 C   0  0  0  0  0  0  0  0  0  0  0  0
   21.3887  -20.3640  -11.5436 C   0  0  0  0  0  0  0  0  0  0  0  0
   21.5850  -19.7373  -10.2084 C   0  0  0  0  0  0  0  0  0  0  0  0
   21.1856  -20.7691   -9.1572 C   0  0  0  0  0  0  0  0  0  0  0  0
   22.2095  -20.7471   -8.1353 N   0  0  0  0  0  0  0  0  0  0  0  0
   20.3099  -20.6569  -14.6164 C   0  0  0  0  0  0  0  0  0  0  0  0
   19.3807  -19.8650  -15.0691 O   0  0  0  0  0  0  0  0  0  0  0  0
   19.9386  -21.9793  -14.6948 O   0  0  0  0  0  0  0  0  0  0  0  0
  2  1  1  6
  2  3  1  0
  4  3  1  0
  4  5  1  0
  5  6  1  0
  6  7  1  0
  8  2  1  0
  9  8  2  0
 10  8  1  0
 11 12  1  6
 11 10  1  0
 12 13  1  0
 13 14  2  0
 14 15  1  0
 16 15  1  0
 17 16  2  0
 18 17  1  0
 19 20  1  0
 19 18  2  0
 20 21  2  0
 21 13  1  0
 21 16  1  0
 22 11  1  0
 23 22  2  0
 24 22  1  0
 25 31  1  0
 25 24  1  0
 25 26  1  1
 27 26  1  0
 27 28  1  0
 29 28  1  0
 29 30  1  0
 31 33  1  0
 32 31  2  0
M  END
$$$$
