SQD.pdb
     RDKit          3D

 24 23  0  0  1  0  0  0  0  0999 V2000
   13.7479  -19.2939   18.6125 O   0  0  0  0  0  0  0  0  0  0  0  0
   12.3691  -19.1142   18.5354 C   0  0  0  0  0  0  0  0  0  0  0  0
   12.0619  -17.7127   18.0414 C   0  0  2  0  0  0  0  0  0  0  0  0
   12.5782  -17.5038   16.7011 N   0  0  0  0  0  0  0  0  0  0  0  0
   12.7251  -16.7637   18.9880 C   0  0  0  0  0  0  0  0  0  0  0  0
   13.6467  -16.0247   18.5805 O   0  0  0  0  0  0  0  0  0  0  0  0
    9.8013  -14.5331   24.0475 N   0  0  0  0  0  0  0  0  0  0  0  0
   10.2153  -15.8877   24.0215 C   0  0  0  0  0  0  0  0  0  0  0  0
    9.6864  -16.6888   24.8232 O   0  0  0  0  0  0  0  0  0  0  0  0
   11.2457  -16.3576   23.0773 C   0  0  0  0  0  0  0  0  0  0  0  0
   11.8144  -15.3024   22.1935 C   0  0  0  0  0  0  0  0  0  0  0  0
   12.9251  -15.7140   21.2920 C   0  0  2  0  0  0  0  0  0  0  0  0
   12.3476  -16.6673   20.3419 N   0  0  0  0  0  0  0  0  0  0  0  0
   14.1081  -16.2930   21.9657 C   0  0  0  0  0  0  0  0  0  0  0  0
   14.1815  -17.5480   22.0278 O   0  0  0  0  0  0  0  0  0  0  0  0
   15.1412  -15.5361   22.5329 N   0  0  0  0  0  0  0  0  0  0  0  0
   16.3117  -16.2367   23.1069 C   0  0  1  0  0  0  0  0  0  0  0  0
   17.5223  -15.3796   22.9906 C   0  0  0  0  0  0  0  0  0  0  0  0
   17.9054  -15.1698   21.5881 C   0  0  0  0  0  0  0  0  0  0  0  0
   17.7423  -16.0608   20.7319 O   0  0  0  0  0  0  0  0  0  0  0  0
   16.0267  -16.5267   24.5263 C   0  0  0  0  0  0  0  0  0  0  0  0
   16.8163  -17.2556   25.3612 O   0  0  0  0  0  0  0  0  0  0  0  0
   18.4703  -13.9647   21.1455 O   0  0  0  0  0  0  0  0  0  0  0  0
   14.9460  -16.0563   25.0205 O   0  0  0  0  0  0  0  0  0  0  0  0
  2  1  1  0
  3  5  1  0
  3  2  1  0
  3  4  1  6
  5  6  2  0
  7  8  1  0
  8 10  1  0
  8  9  2  0
 10 11  1  0
 12 11  1  1
 13 12  1  0
 13  5  1  0
 14 15  2  0
 14 12  1  0
 16 14  1  0
 17 16  1  0
 17 21  1  0
 17 18  1  1
 19 18  1  0
 19 23  1  0
 20 19  2  0
 21 24  2  0
 21 22  1  0
M  END
$$$$
