SQD.pdb
     RDKit          3D

 24 23  0  0  1  0  0  0  0  0999 V2000
    7.8772  -13.1499   19.5407 O   0  0  0  0  0  0  0  0  0  0  0  0
    8.4514  -14.3835   19.2445 C   0  0  0  0  0  0  0  0  0  0  0  0
    8.0492  -15.4015   20.2954 C   0  0  2  0  0  0  0  0  0  0  0  0
    6.6423  -15.2811   20.6312 N   0  0  0  0  0  0  0  0  0  0  0  0
    8.8797  -15.1249   21.5080 C   0  0  0  0  0  0  0  0  0  0  0  0
   10.1263  -15.1460   21.4234 O   0  0  0  0  0  0  0  0  0  0  0  0
    6.9329  -11.7528   26.3340 N   0  0  0  0  0  0  0  0  0  0  0  0
    6.2892  -12.9781   26.0319 C   0  0  0  0  0  0  0  0  0  0  0  0
    5.1263  -13.1612   26.4542 O   0  0  0  0  0  0  0  0  0  0  0  0
    6.9620  -14.0238   25.2395 C   0  0  0  0  0  0  0  0  0  0  0  0
    8.3573  -13.7009   24.8311 C   0  0  0  0  0  0  0  0  0  0  0  0
    9.0647  -14.7199   24.0084 C   0  0  2  0  0  0  0  0  0  0  0  0
    8.3050  -14.8369   22.7617 N   0  0  0  0  0  0  0  0  0  0  0  0
    9.2364  -16.0434   24.6467 C   0  0  0  0  0  0  0  0  0  0  0  0
    8.6385  -17.0196   24.1234 O   0  0  0  0  0  0  0  0  0  0  0  0
   10.0166  -16.2733   25.7870 N   0  0  0  0  0  0  0  0  0  0  0  0
   10.7281  -17.5641   25.9209 C   0  0  1  0  0  0  0  0  0  0  0  0
   11.7087  -17.7195   24.8127 C   0  0  0  0  0  0  0  0  0  0  0  0
   12.4882  -18.9572   24.9481 C   0  0  0  0  0  0  0  0  0  0  0  0
   11.9576  -20.0183   25.3300 O   0  0  0  0  0  0  0  0  0  0  0  0
   11.4241  -17.5754   27.2230 C   0  0  0  0  0  0  0  0  0  0  0  0
   11.3734  -16.5883   28.1584 O   0  0  0  0  0  0  0  0  0  0  0  0
   13.8592  -19.0062   24.6563 O   0  0  0  0  0  0  0  0  0  0  0  0
   12.1387  -18.5974   27.5027 O   0  0  0  0  0  0  0  0  0  0  0  0
  2  1  1  0
  3  5  1  0
  3  2  1  0
  3  4  1  1
  5  6  2  0
  7  8  1  0
  8 10  1  0
  8  9  2  0
 10 11  1  0
 12 11  1  1
 13 12  1  0
 13  5  1  0
 14 15  2  0
 14 12  1  0
 16 14  1  0
 17 16  1  0
 17 21  1  0
 17 18  1  6
 19 18  1  0
 19 23  1  0
 20 19  2  0
 21 24  2  0
 21 22  1  0
M  END
$$$$
