SQD.pdb
     RDKit          3D

 24 23  0  0  1  0  0  0  0  0999 V2000
    7.4816  -15.4740   19.5993 O   0  0  0  0  0  0  0  0  0  0  0  0
    6.5660  -14.4310   19.4851 C   0  0  0  0  0  0  0  0  0  0  0  0
    7.2628  -13.1072   19.7396 C   0  0  2  0  0  0  0  0  0  0  0  0
    8.2646  -12.8380   18.7245 N   0  0  0  0  0  0  0  0  0  0  0  0
    7.9210  -13.2136   21.0782 C   0  0  0  0  0  0  0  0  0  0  0  0
    9.1431  -13.4645   21.1498 O   0  0  0  0  0  0  0  0  0  0  0  0
    5.7077  -14.1207   26.4986 N   0  0  0  0  0  0  0  0  0  0  0  0
    6.6841  -13.1814   26.9125 C   0  0  0  0  0  0  0  0  0  0  0  0
    6.9891  -13.1325   28.1245 O   0  0  0  0  0  0  0  0  0  0  0  0
    7.3343  -12.2747   25.9487 C   0  0  0  0  0  0  0  0  0  0  0  0
    6.8812  -12.4290   24.5384 C   0  0  0  0  0  0  0  0  0  0  0  0
    7.8062  -13.1405   23.6143 C   0  0  2  0  0  0  0  0  0  0  0  0
    7.2084  -13.0397   22.2811 N   0  0  0  0  0  0  0  0  0  0  0  0
    8.0881  -14.5511   23.9599 C   0  0  0  0  0  0  0  0  0  0  0  0
    7.2455  -15.4140   23.5999 O   0  0  0  0  0  0  0  0  0  0  0  0
    9.2250  -14.9798   24.6566 N   0  0  0  0  0  0  0  0  0  0  0  0
    9.5031  -16.4302   24.7522 C   0  0  1  0  0  0  0  0  0  0  0  0
   10.6136  -16.7950   23.8317 C   0  0  0  0  0  0  0  0  0  0  0  0
   11.0367  -18.1893   24.0182 C   0  0  0  0  0  0  0  0  0  0  0  0
   10.3346  -18.9998   24.6535 O   0  0  0  0  0  0  0  0  0  0  0  0
    9.8749  -16.7388   26.1473 C   0  0  0  0  0  0  0  0  0  0  0  0
    9.9067  -15.8479   27.1755 O   0  0  0  0  0  0  0  0  0  0  0  0
   12.2438  -18.6748   23.4943 O   0  0  0  0  0  0  0  0  0  0  0  0
   10.1967  -17.9450   26.4206 O   0  0  0  0  0  0  0  0  0  0  0  0
  2  1  1  0
  3  5  1  0
  3  2  1  0
  3  4  1  6
  5  6  2  0
  7  8  1  0
  8 10  1  0
  8  9  2  0
 10 11  1  0
 12 11  1  1
 13 12  1  0
 13  5  1  0
 14 15  2  0
 14 12  1  0
 16 14  1  0
 17 16  1  0
 17 21  1  0
 17 18  1  6
 19 18  1  0
 19 23  1  0
 20 19  2  0
 21 24  2  0
 21 22  1  0
M  END
$$$$
