SQD.pdb
     RDKit          3D

 24 23  0  0  1  0  0  0  0  0999 V2000
    7.6865  -15.4367   19.3735 O   0  0  0  0  0  0  0  0  0  0  0  0
    6.6806  -14.4787   19.4725 C   0  0  0  0  0  0  0  0  0  0  0  0
    7.2785  -13.1501   19.8970 C   0  0  2  0  0  0  0  0  0  0  0  0
    8.2255  -12.6621   18.9114 N   0  0  0  0  0  0  0  0  0  0  0  0
    7.9824  -13.3859   21.1953 C   0  0  0  0  0  0  0  0  0  0  0  0
    9.2141  -13.5967   21.2031 O   0  0  0  0  0  0  0  0  0  0  0  0
    5.4128  -11.9502   26.7867 N   0  0  0  0  0  0  0  0  0  0  0  0
    6.6125  -12.5989   27.1698 C   0  0  0  0  0  0  0  0  0  0  0  0
    6.9158  -12.6247   28.3828 O   0  0  0  0  0  0  0  0  0  0  0  0
    7.4945  -13.2330   26.1728 C   0  0  0  0  0  0  0  0  0  0  0  0
    7.0557  -13.0777   24.7582 C   0  0  0  0  0  0  0  0  0  0  0  0
    7.9322  -13.6808   23.7173 C   0  0  2  0  0  0  0  0  0  0  0  0
    7.3030  -13.3801   22.4294 N   0  0  0  0  0  0  0  0  0  0  0  0
    8.1774  -15.1331   23.8574 C   0  0  0  0  0  0  0  0  0  0  0  0
    7.6288  -15.8955   23.0196 O   0  0  0  0  0  0  0  0  0  0  0  0
    8.9753  -15.7049   24.8564 N   0  0  0  0  0  0  0  0  0  0  0  0
    9.5982  -17.0245   24.6092 C   0  0  1  0  0  0  0  0  0  0  0  0
   10.5073  -16.9434   23.4342 C   0  0  0  0  0  0  0  0  0  0  0  0
   11.2688  -18.1862   23.2510 C   0  0  0  0  0  0  0  0  0  0  0  0
   10.7455  -19.1979   22.7451 O   0  0  0  0  0  0  0  0  0  0  0  0
   10.3570  -17.4108   25.8153 C   0  0  0  0  0  0  0  0  0  0  0  0
   10.7859  -16.5620   26.7886 O   0  0  0  0  0  0  0  0  0  0  0  0
   12.6137  -18.2955   23.6339 O   0  0  0  0  0  0  0  0  0  0  0  0
   10.6400  -18.6482   25.9648 O   0  0  0  0  0  0  0  0  0  0  0  0
  2  1  1  0
  3  5  1  0
  3  2  1  0
  3  4  1  6
  5  6  2  0
  7  8  1  0
  8 10  1  0
  8  9  2  0
 10 11  1  0
 12 11  1  1
 13 12  1  0
 13  5  1  0
 14 15  2  0
 14 12  1  0
 16 14  1  0
 17 16  1  0
 17 21  1  0
 17 18  1  6
 19 18  1  0
 19 23  1  0
 20 19  2  0
 21 24  2  0
 21 22  1  0
M  END
$$$$
