SQD.pdb
     RDKit          3D

 24 23  0  0  1  0  0  0  0  0999 V2000
    4.4448  -20.4986   20.0492 O   0  0  0  0  0  0  0  0  0  0  0  0
    4.4638  -21.8751   20.2594 C   0  0  0  0  0  0  0  0  0  0  0  0
    3.8727  -22.1938   21.6202 C   0  0  2  0  0  0  0  0  0  0  0  0
    2.4853  -21.7752   21.7007 N   0  0  0  0  0  0  0  0  0  0  0  0
    4.6819  -21.4455   22.6310 C   0  0  0  0  0  0  0  0  0  0  0  0
    4.1125  -20.6752   23.4335 O   0  0  0  0  0  0  0  0  0  0  0  0
    5.4781  -22.5952   27.5314 N   0  0  0  0  0  0  0  0  0  0  0  0
    6.5648  -21.6864   27.5429 C   0  0  0  0  0  0  0  0  0  0  0  0
    7.0504  -21.3510   28.6456 O   0  0  0  0  0  0  0  0  0  0  0  0
    7.1210  -21.1388   26.2920 C   0  0  0  0  0  0  0  0  0  0  0  0
    6.3661  -21.4985   25.0597 C   0  0  0  0  0  0  0  0  0  0  0  0
    6.9016  -20.9764   23.7727 C   0  0  2  0  0  0  0  0  0  0  0  0
    6.0822  -21.5753   22.7168 N   0  0  0  0  0  0  0  0  0  0  0  0
    8.3389  -21.2319   23.5328 C   0  0  0  0  0  0  0  0  0  0  0  0
    8.6765  -22.4098   23.2452 O   0  0  0  0  0  0  0  0  0  0  0  0
    9.3366  -20.2516   23.6057 N   0  0  0  0  0  0  0  0  0  0  0  0
   10.7283  -20.6175   23.2598 C   0  0  1  0  0  0  0  0  0  0  0  0
   11.2762  -19.6491   22.2721 C   0  0  0  0  0  0  0  0  0  0  0  0
   12.6794  -19.9397   21.9488 C   0  0  0  0  0  0  0  0  0  0  0  0
   13.0871  -21.1114   21.8284 O   0  0  0  0  0  0  0  0  0  0  0  0
   11.5335  -20.5945   24.4972 C   0  0  0  0  0  0  0  0  0  0  0  0
   12.6754  -21.3023   24.7140 O   0  0  0  0  0  0  0  0  0  0  0  0
   13.6241  -18.9201   21.7609 O   0  0  0  0  0  0  0  0  0  0  0  0
   11.1289  -19.8479   25.4523 O   0  0  0  0  0  0  0  0  0  0  0  0
  2  1  1  0
  3  5  1  0
  3  2  1  0
  3  4  1  6
  5  6  2  0
  7  8  1  0
  8 10  1  0
  8  9  2  0
 10 11  1  0
 12 11  1  1
 13 12  1  0
 13  5  1  0
 14 15  2  0
 14 12  1  0
 16 14  1  0
 17 16  1  0
 17 21  1  0
 17 18  1  6
 19 18  1  0
 19 23  1  0
 20 19  2  0
 21 24  2  0
 21 22  1  0
M  END
$$$$
