SQD.pdb
     RDKit          3D

 24 23  0  0  1  0  0  0  0  0999 V2000
    7.0980  -14.2262   19.7414 O   0  0  0  0  0  0  0  0  0  0  0  0
    7.7966  -13.0753   19.3857 C   0  0  0  0  0  0  0  0  0  0  0  0
    8.6745  -13.3605   18.1812 C   0  0  2  0  0  0  0  0  0  0  0  0
    7.8769  -13.7324   17.0270 N   0  0  0  0  0  0  0  0  0  0  0  0
    9.5722  -14.4959   18.5575 C   0  0  0  0  0  0  0  0  0  0  0  0
    9.3965  -15.6215   18.0438 O   0  0  0  0  0  0  0  0  0  0  0  0
   14.7586  -14.7439   17.0812 N   0  0  0  0  0  0  0  0  0  0  0  0
   14.6084  -14.1297   18.3490 C   0  0  0  0  0  0  0  0  0  0  0  0
   15.6118  -13.6054   18.8806 O   0  0  0  0  0  0  0  0  0  0  0  0
   13.3058  -14.1021   19.0392 C   0  0  0  0  0  0  0  0  0  0  0  0
   12.7098  -15.4402   19.3077 C   0  0  0  0  0  0  0  0  0  0  0  0
   11.4066  -15.4583   20.0268 C   0  0  2  0  0  0  0  0  0  0  0  0
   10.6245  -14.3462   19.4822 N   0  0  0  0  0  0  0  0  0  0  0  0
   11.4937  -15.3688   21.5010 C   0  0  0  0  0  0  0  0  0  0  0  0
   10.7569  -14.5240   22.0734 O   0  0  0  0  0  0  0  0  0  0  0  0
   12.3382  -16.1598   22.2901 N   0  0  0  0  0  0  0  0  0  0  0  0
   11.7561  -16.9373   23.4068 C   0  0  1  0  0  0  0  0  0  0  0  0
   10.6485  -17.7942   22.9042 C   0  0  0  0  0  0  0  0  0  0  0  0
   10.1157  -18.6661   23.9596 C   0  0  0  0  0  0  0  0  0  0  0  0
   10.5859  -18.6476   25.1137 O   0  0  0  0  0  0  0  0  0  0  0  0
   12.8222  -17.7738   23.9929 C   0  0  0  0  0  0  0  0  0  0  0  0
   13.2414  -17.7332   25.2869 O   0  0  0  0  0  0  0  0  0  0  0  0
    9.0585  -19.5569   23.7227 O   0  0  0  0  0  0  0  0  0  0  0  0
   13.4073  -18.6106   23.2242 O   0  0  0  0  0  0  0  0  0  0  0  0
  2  1  1  0
  3  5  1  0
  3  2  1  0
  3  4  1  6
  5  6  2  0
  7  8  1  0
  8 10  1  0
  8  9  2  0
 10 11  1  0
 12 11  1  6
 13 12  1  0
 13  5  1  0
 14 15  2  0
 14 12  1  0
 16 14  1  0
 17 16  1  0
 17 21  1  0
 17 18  1  6
 19 18  1  0
 19 23  1  0
 20 19  2  0
 21 24  2  0
 21 22  1  0
M  END
$$$$
