SQD.pdb
     RDKit          3D

 24 23  0  0  1  0  0  0  0  0999 V2000
    7.3690  -12.1897   20.4304 O   0  0  0  0  0  0  0  0  0  0  0  0
    8.2884  -13.2290   20.3125 C   0  0  0  0  0  0  0  0  0  0  0  0
    8.9568  -13.1698   18.9514 C   0  0  2  0  0  0  0  0  0  0  0  0
    8.0189  -13.4926   17.8919 N   0  0  0  0  0  0  0  0  0  0  0  0
   10.0623  -14.1768   18.9666 C   0  0  0  0  0  0  0  0  0  0  0  0
    9.8957  -15.2884   18.4205 O   0  0  0  0  0  0  0  0  0  0  0  0
   15.4607  -14.3352   16.1945 N   0  0  0  0  0  0  0  0  0  0  0  0
   15.7055  -14.3582   17.5897 C   0  0  0  0  0  0  0  0  0  0  0  0
   16.7636  -13.8474   18.0183 O   0  0  0  0  0  0  0  0  0  0  0  0
   14.7450  -14.9677   18.5278 C   0  0  0  0  0  0  0  0  0  0  0  0
   13.4309  -14.2730   18.6193 C   0  0  0  0  0  0  0  0  0  0  0  0
   12.4372  -14.8468   19.5675 C   0  0  2  0  0  0  0  0  0  0  0  0
   11.3036  -13.9196   19.5813 N   0  0  0  0  0  0  0  0  0  0  0  0
   12.9355  -15.0900   20.9391 C   0  0  0  0  0  0  0  0  0  0  0  0
   13.1889  -14.0822   21.6493 O   0  0  0  0  0  0  0  0  0  0  0  0
   13.1401  -16.3616   21.4894 N   0  0  0  0  0  0  0  0  0  0  0  0
   13.7029  -16.4706   22.8539 C   0  0  1  0  0  0  0  0  0  0  0  0
   13.4208  -17.8206   23.4120 C   0  0  0  0  0  0  0  0  0  0  0  0
   12.2098  -17.8213   24.2436 C   0  0  0  0  0  0  0  0  0  0  0  0
   11.6222  -16.7609   24.5330 O   0  0  0  0  0  0  0  0  0  0  0  0
   15.1600  -16.2468   22.7722 C   0  0  0  0  0  0  0  0  0  0  0  0
   15.9101  -15.5648   23.6800 O   0  0  0  0  0  0  0  0  0  0  0  0
   11.6582  -19.0072   24.7500 O   0  0  0  0  0  0  0  0  0  0  0  0
   15.7773  -16.7322   21.7638 O   0  0  0  0  0  0  0  0  0  0  0  0
  2  1  1  0
  3  5  1  0
  3  2  1  0
  3  4  1  6
  5  6  2  0
  7  8  1  0
  8 10  1  0
  8  9  2  0
 10 11  1  0
 12 11  1  6
 13 12  1  0
 13  5  1  0
 14 15  2  0
 14 12  1  0
 16 14  1  0
 17 16  1  0
 17 21  1  0
 17 18  1  6
 19 18  1  0
 19 23  1  0
 20 19  2  0
 21 24  2  0
 21 22  1  0
M  END
$$$$
