SQD.pdb
     RDKit          3D

 24 23  0  0  1  0  0  0  0  0999 V2000
    8.0299  -19.7943   22.6857 O   0  0  0  0  0  0  0  0  0  0  0  0
    6.8586  -19.3174   22.1029 C   0  0  0  0  0  0  0  0  0  0  0  0
    7.1577  -18.0621   21.3044 C   0  0  2  0  0  0  0  0  0  0  0  0
    7.8624  -18.3776   20.0754 N   0  0  0  0  0  0  0  0  0  0  0  0
    8.0173  -17.1938   22.1667 C   0  0  0  0  0  0  0  0  0  0  0  0
    9.2113  -16.9980   21.8542 O   0  0  0  0  0  0  0  0  0  0  0  0
    5.5511  -12.7855   25.7668 N   0  0  0  0  0  0  0  0  0  0  0  0
    6.6943  -13.1193   26.5340 C   0  0  0  0  0  0  0  0  0  0  0  0
    6.8611  -12.5501   27.6351 O   0  0  0  0  0  0  0  0  0  0  0  0
    7.6749  -14.1124   26.0583 C   0  0  0  0  0  0  0  0  0  0  0  0
    7.4116  -14.6503   24.6947 C   0  0  0  0  0  0  0  0  0  0  0  0
    8.3290  -15.7175   24.2096 C   0  0  2  0  0  0  0  0  0  0  0  0
    7.5284  -16.5777   23.3356 N   0  0  0  0  0  0  0  0  0  0  0  0
    8.9933  -16.5122   25.2660 C   0  0  0  0  0  0  0  0  0  0  0  0
    9.7185  -15.8916   26.0865 O   0  0  0  0  0  0  0  0  0  0  0  0
    8.8649  -17.8998   25.4066 N   0  0  0  0  0  0  0  0  0  0  0  0
    9.6268  -18.5861   26.4738 C   0  0  1  0  0  0  0  0  0  0  0  0
    8.8608  -19.7624   26.9669 C   0  0  0  0  0  0  0  0  0  0  0  0
    7.7182  -19.3565   27.7962 C   0  0  0  0  0  0  0  0  0  0  0  0
    6.6139  -19.0820   27.2877 O   0  0  0  0  0  0  0  0  0  0  0  0
   10.9214  -19.0197   25.9118 C   0  0  0  0  0  0  0  0  0  0  0  0
   11.2824  -18.9456   24.6018 O   0  0  0  0  0  0  0  0  0  0  0  0
    7.8124  -19.2583   29.1922 O   0  0  0  0  0  0  0  0  0  0  0  0
   11.7827  -19.5088   26.7196 O   0  0  0  0  0  0  0  0  0  0  0  0
  2  1  1  0
  3  5  1  0
  3  2  1  0
  3  4  1  6
  5  6  2  0
  7  8  1  0
  8 10  1  0
  8  9  2  0
 10 11  1  0
 12 11  1  1
 13 12  1  0
 13  5  1  0
 14 15  2  0
 14 12  1  0
 16 14  1  0
 17 16  1  0
 17 21  1  0
 17 18  1  6
 19 18  1  0
 19 23  1  0
 20 19  2  0
 21 24  2  0
 21 22  1  0
M  END
$$$$
