SQD.pdb
     RDKit          3D

 24 23  0  0  1  0  0  0  0  0999 V2000
    7.8596  -20.5552   21.9602 O   0  0  0  0  0  0  0  0  0  0  0  0
    6.7879  -19.6663   21.9797 C   0  0  0  0  0  0  0  0  0  0  0  0
    6.5931  -19.0682   20.5987 C   0  0  2  0  0  0  0  0  0  0  0  0
    6.5408  -20.1023   19.5816 N   0  0  0  0  0  0  0  0  0  0  0  0
    7.7638  -18.1731   20.3443 C   0  0  0  0  0  0  0  0  0  0  0  0
    8.7044  -18.5724   19.6250 O   0  0  0  0  0  0  0  0  0  0  0  0
    7.3838  -12.2350   19.1234 N   0  0  0  0  0  0  0  0  0  0  0  0
    7.4978  -13.3428   18.2477 C   0  0  0  0  0  0  0  0  0  0  0  0
    7.1510  -13.1985   17.0548 O   0  0  0  0  0  0  0  0  0  0  0  0
    8.0110  -14.6428   18.7172 C   0  0  0  0  0  0  0  0  0  0  0  0
    8.3672  -14.6916   20.1624 C   0  0  0  0  0  0  0  0  0  0  0  0
    8.9684  -15.9595   20.6592 C   0  0  2  0  0  0  0  0  0  0  0  0
    7.8511  -16.8776   20.8910 N   0  0  0  0  0  0  0  0  0  0  0  0
    9.8061  -15.8324   21.8720 C   0  0  0  0  0  0  0  0  0  0  0  0
    9.2324  -15.4847   22.9370 O   0  0  0  0  0  0  0  0  0  0  0  0
   11.1854  -16.0735   21.9061 N   0  0  0  0  0  0  0  0  0  0  0  0
   11.8625  -16.1811   23.2177 C   0  0  1  0  0  0  0  0  0  0  0  0
   11.3350  -17.3543   23.9654 C   0  0  0  0  0  0  0  0  0  0  0  0
   12.0011  -17.5133   25.2649 C   0  0  0  0  0  0  0  0  0  0  0  0
   12.8084  -16.6627   25.6873 O   0  0  0  0  0  0  0  0  0  0  0  0
   13.3110  -16.3379   22.9787 C   0  0  0  0  0  0  0  0  0  0  0  0
   14.3027  -15.9036   23.8032 O   0  0  0  0  0  0  0  0  0  0  0  0
   11.7637  -18.6226   26.0897 O   0  0  0  0  0  0  0  0  0  0  0  0
   13.6726  -16.9315   21.9062 O   0  0  0  0  0  0  0  0  0  0  0  0
  2  1  1  0
  3  5  1  0
  3  2  1  0
  3  4  1  6
  5  6  2  0
  7  8  1  0
  8 10  1  0
  8  9  2  0
 10 11  1  0
 12 11  1  1
 13 12  1  0
 13  5  1  0
 14 15  2  0
 14 12  1  0
 16 14  1  0
 17 16  1  0
 17 21  1  0
 17 18  1  6
 19 18  1  0
 19 23  1  0
 20 19  2  0
 21 24  2  0
 21 22  1  0
M  END
$$$$
