SQD.pdb
     RDKit          3D

 24 23  0  0  1  0  0  0  0  0999 V2000
    9.3779  -15.1021   17.5807 O   0  0  0  0  0  0  0  0  0  0  0  0
    8.0334  -14.7605   17.7022 C   0  0  0  0  0  0  0  0  0  0  0  0
    7.8908  -13.5584   18.6173 C   0  0  2  0  0  0  0  0  0  0  0  0
    8.6438  -12.4240   18.1146 N   0  0  0  0  0  0  0  0  0  0  0  0
    8.4270  -13.9640   19.9533 C   0  0  0  0  0  0  0  0  0  0  0  0
    9.5732  -13.6036   20.2965 O   0  0  0  0  0  0  0  0  0  0  0  0
    7.8325  -12.7001   25.0210 N   0  0  0  0  0  0  0  0  0  0  0  0
    7.3589  -14.0323   24.9324 C   0  0  0  0  0  0  0  0  0  0  0  0
    7.7377  -14.8586   25.7914 O   0  0  0  0  0  0  0  0  0  0  0  0
    6.4406  -14.4507   23.8574 C   0  0  0  0  0  0  0  0  0  0  0  0
    6.9645  -15.5236   22.9672 C   0  0  0  0  0  0  0  0  0  0  0  0
    8.1715  -15.1921   22.1616 C   0  0  2  0  0  0  0  0  0  0  0  0
    7.6808  -14.7483   20.8550 N   0  0  0  0  0  0  0  0  0  0  0  0
    9.1545  -16.2874   22.0107 C   0  0  0  0  0  0  0  0  0  0  0  0
    9.2044  -16.8700   20.8961 O   0  0  0  0  0  0  0  0  0  0  0  0
   10.0243  -16.7109   23.0236 N   0  0  0  0  0  0  0  0  0  0  0  0
   11.2497  -17.4533   22.6527 C   0  0  1  0  0  0  0  0  0  0  0  0
   12.0532  -16.6551   21.6879 C   0  0  0  0  0  0  0  0  0  0  0  0
   13.2891  -17.3510   21.3052 C   0  0  0  0  0  0  0  0  0  0  0  0
   13.2886  -18.5659   21.0269 O   0  0  0  0  0  0  0  0  0  0  0  0
   12.0289  -17.7029   23.8816 C   0  0  0  0  0  0  0  0  0  0  0  0
   13.0949  -18.5420   23.9886 O   0  0  0  0  0  0  0  0  0  0  0  0
   14.5227  -16.6875   21.2345 O   0  0  0  0  0  0  0  0  0  0  0  0
   11.6773  -17.0809   24.9413 O   0  0  0  0  0  0  0  0  0  0  0  0
  2  1  1  0
  3  5  1  0
  3  2  1  0
  3  4  1  6
  5  6  2  0
  7  8  1  0
  8 10  1  0
  8  9  2  0
 10 11  1  0
 12 11  1  1
 13 12  1  0
 13  5  1  0
 14 15  2  0
 14 12  1  0
 16 14  1  0
 17 16  1  0
 17 21  1  0
 17 18  1  6
 19 18  1  0
 19 23  1  0
 20 19  2  0
 21 24  2  0
 21 22  1  0
M  END
$$$$
