SQD.pdb
     RDKit          3D

 24 23  0  0  1  0  0  0  0  0999 V2000
    9.8633  -19.7997   17.6906 O   0  0  0  0  0  0  0  0  0  0  0  0
    8.7875  -19.2501   16.9978 C   0  0  0  0  0  0  0  0  0  0  0  0
    9.1764  -17.8934   16.4402 C   0  0  2  0  0  0  0  0  0  0  0  0
   10.1978  -18.0199   15.4168 N   0  0  0  0  0  0  0  0  0  0  0  0
    9.7092  -17.0906   17.5840 C   0  0  0  0  0  0  0  0  0  0  0  0
   10.9438  -16.9824   17.7433 O   0  0  0  0  0  0  0  0  0  0  0  0
    5.8434  -13.6578   21.2606 N   0  0  0  0  0  0  0  0  0  0  0  0
    7.1154  -13.3507   21.8035 C   0  0  0  0  0  0  0  0  0  0  0  0
    7.1785  -12.5406   22.7544 O   0  0  0  0  0  0  0  0  0  0  0  0
    8.3460  -13.9630   21.2701 C   0  0  0  0  0  0  0  0  0  0  0  0
    8.1483  -14.8298   20.0753 C   0  0  0  0  0  0  0  0  0  0  0  0
    9.3346  -15.5938   19.6013 C   0  0  2  0  0  0  0  0  0  0  0  0
    8.8625  -16.4411   18.5039 N   0  0  0  0  0  0  0  0  0  0  0  0
   10.0227  -16.4017   20.6321 C   0  0  0  0  0  0  0  0  0  0  0  0
    9.7158  -17.6197   20.7120 O   0  0  0  0  0  0  0  0  0  0  0  0
   10.9857  -15.8977   21.5155 N   0  0  0  0  0  0  0  0  0  0  0  0
   11.6612  -16.8282   22.4472 C   0  0  1  0  0  0  0  0  0  0  0  0
   13.1338  -16.6239   22.3885 C   0  0  0  0  0  0  0  0  0  0  0  0
   13.8334  -17.4266   23.4005 C   0  0  0  0  0  0  0  0  0  0  0  0
   14.6176  -16.9017   24.2148 O   0  0  0  0  0  0  0  0  0  0  0  0
   11.1631  -16.5598   23.8109 C   0  0  0  0  0  0  0  0  0  0  0  0
   11.4445  -17.2990   24.9183 O   0  0  0  0  0  0  0  0  0  0  0  0
   13.6551  -18.8142   23.5003 O   0  0  0  0  0  0  0  0  0  0  0  0
   10.4002  -15.5473   23.9732 O   0  0  0  0  0  0  0  0  0  0  0  0
  2  1  1  0
  3  5  1  0
  3  2  1  0
  3  4  1  6
  5  6  2  0
  7  8  1  0
  8 10  1  0
  8  9  2  0
 10 11  1  0
 12 11  1  1
 13 12  1  0
 13  5  1  0
 14 15  2  0
 14 12  1  0
 16 14  1  0
 17 16  1  0
 17 21  1  0
 17 18  1  1
 19 18  1  0
 19 23  1  0
 20 19  2  0
 21 24  2  0
 21 22  1  0
M  END
$$$$
