SQD.pdb
     RDKit          3D

 24 23  0  0  1  0  0  0  0  0999 V2000
    7.1245  -15.3231   17.9147 O   0  0  0  0  0  0  0  0  0  0  0  0
    7.7895  -15.1633   19.1277 C   0  0  0  0  0  0  0  0  0  0  0  0
    7.4752  -13.7969   19.7082 C   0  0  2  0  0  0  0  0  0  0  0  0
    7.9606  -12.7358   18.8449 N   0  0  0  0  0  0  0  0  0  0  0  0
    8.1636  -13.7196   21.0336 C   0  0  0  0  0  0  0  0  0  0  0  0
    9.3419  -13.3083   21.0970 O   0  0  0  0  0  0  0  0  0  0  0  0
    6.4534  -11.2159   27.0700 N   0  0  0  0  0  0  0  0  0  0  0  0
    6.4179  -12.5854   26.7091 C   0  0  0  0  0  0  0  0  0  0  0  0
    5.4665  -13.2860   27.1192 O   0  0  0  0  0  0  0  0  0  0  0  0
    7.4717  -13.1859   25.8708 C   0  0  0  0  0  0  0  0  0  0  0  0
    7.1049  -13.3709   24.4393 C   0  0  0  0  0  0  0  0  0  0  0  0
    8.1377  -13.9833   23.5594 C   0  0  2  0  0  0  0  0  0  0  0  0
    7.5279  -14.0975   22.2327 N   0  0  0  0  0  0  0  0  0  0  0  0
    8.6632  -15.2901   24.0118 C   0  0  0  0  0  0  0  0  0  0  0  0
    7.9135  -16.2923   23.8785 O   0  0  0  0  0  0  0  0  0  0  0  0
    9.9324  -15.4774   24.5740 N   0  0  0  0  0  0  0  0  0  0  0  0
   10.3415  -16.8394   24.9837 C   0  0  1  0  0  0  0  0  0  0  0  0
   11.8185  -16.9797   24.8727 C   0  0  0  0  0  0  0  0  0  0  0  0
   12.2604  -16.9697   23.4718 C   0  0  0  0  0  0  0  0  0  0  0  0
   11.5297  -17.4014   22.5590 O   0  0  0  0  0  0  0  0  0  0  0  0
    9.9127  -17.0503   26.3807 C   0  0  0  0  0  0  0  0  0  0  0  0
   10.0121  -18.2173   27.0736 O   0  0  0  0  0  0  0  0  0  0  0  0
   13.5181  -16.4772   23.0941 O   0  0  0  0  0  0  0  0  0  0  0  0
    9.4023  -16.0552   26.9993 O   0  0  0  0  0  0  0  0  0  0  0  0
  2  1  1  0
  3  5  1  0
  3  2  1  0
  3  4  1  6
  5  6  2  0
  7  8  1  0
  8 10  1  0
  8  9  2  0
 10 11  1  0
 12 11  1  1
 13 12  1  0
 13  5  1  0
 14 15  2  0
 14 12  1  0
 16 14  1  0
 17 16  1  0
 17 21  1  0
 17 18  1  1
 19 18  1  0
 19 23  1  0
 20 19  2  0
 21 24  2  0
 21 22  1  0
M  END
$$$$
