SQD.pdb
     RDKit          3D

 24 23  0  0  1  0  0  0  0  0999 V2000
    8.7202  -20.2564   19.2423 O   0  0  0  0  0  0  0  0  0  0  0  0
    7.7110  -19.4061   18.7976 C   0  0  0  0  0  0  0  0  0  0  0  0
    8.3173  -18.2595   18.0099 C   0  0  2  0  0  0  0  0  0  0  0  0
    9.1230  -18.7491   16.9064 N   0  0  0  0  0  0  0  0  0  0  0  0
    9.1803  -17.4898   18.9583 C   0  0  0  0  0  0  0  0  0  0  0  0
   10.4202  -17.6426   18.9312 O   0  0  0  0  0  0  0  0  0  0  0  0
    6.8232  -11.5536   20.0034 N   0  0  0  0  0  0  0  0  0  0  0  0
    7.3332  -12.5720   20.8459 C   0  0  0  0  0  0  0  0  0  0  0  0
    7.0783  -12.5176   22.0691 O   0  0  0  0  0  0  0  0  0  0  0  0
    8.1482  -13.6768   20.3082 C   0  0  0  0  0  0  0  0  0  0  0  0
    8.5618  -14.6969   21.3112 C   0  0  0  0  0  0  0  0  0  0  0  0
    9.4486  -15.7893   20.8255 C   0  0  2  0  0  0  0  0  0  0  0  0
    8.6441  -16.5852   19.8959 N   0  0  0  0  0  0  0  0  0  0  0  0
   10.0368  -16.6453   21.8791 C   0  0  0  0  0  0  0  0  0  0  0  0
    9.4401  -17.7195   22.1513 O   0  0  0  0  0  0  0  0  0  0  0  0
   11.2063  -16.3353   22.5848 N   0  0  0  0  0  0  0  0  0  0  0  0
   11.8414  -17.3824   23.4158 C   0  0  1  0  0  0  0  0  0  0  0  0
   12.2179  -18.5443   22.5663 C   0  0  0  0  0  0  0  0  0  0  0  0
   12.9438  -19.5648   23.3342 C   0  0  0  0  0  0  0  0  0  0  0  0
   14.1754  -19.7124   23.2128 O   0  0  0  0  0  0  0  0  0  0  0  0
   13.0425  -16.8039   24.0501 C   0  0  0  0  0  0  0  0  0  0  0  0
   13.6037  -17.2233   25.2168 O   0  0  0  0  0  0  0  0  0  0  0  0
   12.2915  -20.4183   24.2360 O   0  0  0  0  0  0  0  0  0  0  0  0
   13.6096  -15.8233   23.4584 O   0  0  0  0  0  0  0  0  0  0  0  0
  2  1  1  0
  3  5  1  0
  3  2  1  0
  3  4  1  6
  5  6  2  0
  7  8  1  0
  8 10  1  0
  8  9  2  0
 10 11  1  0
 12 11  1  1
 13 12  1  0
 13  5  1  0
 14 15  2  0
 14 12  1  0
 16 14  1  0
 17 16  1  0
 17 21  1  0
 17 18  1  6
 19 18  1  0
 19 23  1  0
 20 19  2  0
 21 24  2  0
 21 22  1  0
M  END
$$$$
