SQD.pdb
     RDKit          3D

 24 23  0  0  1  0  0  0  0  0999 V2000
   12.3332  -19.4686   17.2046 O   0  0  0  0  0  0  0  0  0  0  0  0
   11.4428  -18.4727   17.5979 C   0  0  0  0  0  0  0  0  0  0  0  0
   11.5649  -17.2798   16.6679 C   0  0  2  0  0  0  0  0  0  0  0  0
   12.6087  -17.4884   15.6812 N   0  0  0  0  0  0  0  0  0  0  0  0
   11.9080  -16.0991   17.5192 C   0  0  0  0  0  0  0  0  0  0  0  0
   13.0835  -15.6761   17.5474 O   0  0  0  0  0  0  0  0  0  0  0  0
    7.3614  -12.4044   19.6332 N   0  0  0  0  0  0  0  0  0  0  0  0
    7.7519  -12.8477   18.3455 C   0  0  0  0  0  0  0  0  0  0  0  0
    6.9448  -12.7166   17.3991 O   0  0  0  0  0  0  0  0  0  0  0  0
    9.0759  -13.4527   18.1106 C   0  0  0  0  0  0  0  0  0  0  0  0
    9.9434  -13.5510   19.3171 C   0  0  0  0  0  0  0  0  0  0  0  0
   11.2325  -14.2774   19.1548 C   0  0  2  0  0  0  0  0  0  0  0  0
   10.9450  -15.4337   18.3032 N   0  0  0  0  0  0  0  0  0  0  0  0
   11.8861  -14.6995   20.4131 C   0  0  0  0  0  0  0  0  0  0  0  0
   12.3181  -13.7933   21.1723 O   0  0  0  0  0  0  0  0  0  0  0  0
   12.0515  -16.0335   20.8064 N   0  0  0  0  0  0  0  0  0  0  0  0
   12.7101  -16.3236   22.0997 C   0  0  1  0  0  0  0  0  0  0  0  0
   11.7112  -16.8451   23.0712 C   0  0  0  0  0  0  0  0  0  0  0  0
   12.3327  -17.1853   24.3580 C   0  0  0  0  0  0  0  0  0  0  0  0
   13.5508  -17.0100   24.5554 O   0  0  0  0  0  0  0  0  0  0  0  0
   13.7664  -17.3282   21.8655 C   0  0  0  0  0  0  0  0  0  0  0  0
   14.9668  -17.3809   22.5043 O   0  0  0  0  0  0  0  0  0  0  0  0
   11.5914  -17.7208   25.4214 O   0  0  0  0  0  0  0  0  0  0  0  0
   13.5413  -18.2294   20.9877 O   0  0  0  0  0  0  0  0  0  0  0  0
  2  1  1  0
  3  5  1  0
  3  2  1  0
  3  4  1  6
  5  6  2  0
  7  8  1  0
  8 10  1  0
  8  9  2  0
 10 11  1  0
 12 11  1  1
 13 12  1  0
 13  5  1  0
 14 15  2  0
 14 12  1  0
 16 14  1  0
 17 16  1  0
 17 21  1  0
 17 18  1  1
 19 18  1  0
 19 23  1  0
 20 19  2  0
 21 24  2  0
 21 22  1  0
M  END
$$$$
