QHK.pdb
     RDKit          3D

 29 29  0  0  1  0  0  0  0  0999 V2000
    8.9873  -12.6294   17.3677 N   0  0  0  0  0  0  0  0  0  0  0  0
    8.1581  -13.7615   17.0161 C   0  0  0  0  0  0  0  0  0  0  0  0
    8.0200  -13.9292   15.7884 O   0  0  0  0  0  0  0  0  0  0  0  0
    7.5807  -14.5694   18.0959 C   0  0  0  0  0  0  0  0  0  0  0  0
    7.8402  -14.1662   19.4931 C   0  0  0  0  0  0  0  0  0  0  0  0
    8.7462  -15.0077   20.3128 C   0  0  2  0  0  0  0  0  0  0  0  0
    9.1244  -16.1527   19.4750 N   0  0  0  0  0  0  0  0  0  0  0  0
    8.3257  -15.3726   21.6610 C   0  0  0  0  0  0  0  0  0  0  0  0
    7.7853  -14.5540   22.4707 O   0  0  0  0  0  0  0  0  0  0  0  0
    8.5084  -16.6974   22.1435 N   0  0  0  0  0  0  0  0  0  0  0  0
    8.1262  -17.1290   23.4704 C   0  0  1  0  0  0  0  0  0  0  0  0
    8.0530  -18.6063   23.6403 C   0  0  0  0  0  0  0  0  0  0  0  0
    7.5851  -19.0515   24.9592 C   0  0  0  0  0  0  0  0  0  0  0  0
    7.0081  -18.3161   25.9512 C   0  0  0  0  0  0  0  0  0  0  0  0
    6.7464  -19.1482   26.9785 N   0  0  0  0  0  0  0  0  0  0  0  0
    7.1541  -20.3833   26.6323 C   0  0  0  0  0  0  0  0  0  0  0  0
    7.6659  -20.3177   25.3968 N   0  0  0  0  0  0  0  0  0  0  0  0
    8.9130  -16.4468   24.5274 C   0  0  0  0  0  0  0  0  0  0  0  0
   10.1690  -16.3860   24.4111 O   0  0  0  0  0  0  0  0  0  0  0  0
    8.3464  -15.8536   25.6685 N   0  0  0  0  0  0  0  0  0  0  0  0
    9.1673  -15.0657   26.6485 C   0  0  1  0  0  0  0  0  0  0  0  0
    8.2993  -14.0549   27.2619 C   0  0  0  0  0  0  0  0  0  0  0  0
    7.2100  -13.3769   26.5738 C   0  0  0  0  0  0  0  0  0  0  0  0
    6.3228  -12.3975   27.2187 C   0  0  0  0  0  0  0  0  0  0  0  0
    5.2989  -11.9750   26.1122 C   0  0  0  0  0  0  0  0  0  0  0  0
    4.3807  -11.0454   26.7077 N   0  0  0  0  0  0  0  0  0  0  0  0
    9.6717  -16.1198   27.5621 C   0  0  0  0  0  0  0  0  0  0  0  0
   10.6316  -15.8323   28.3759 O   0  0  0  0  0  0  0  0  0  0  0  0
    9.2271  -17.4114   27.6604 O   0  0  0  0  0  0  0  0  0  0  0  0
  1  2  1  0
  2  3  2  0
  4  5  1  0
  4  2  1  0
  5  6  1  0
  6  7  1  6
  8 10  1  0
  8  6  1  0
  9  8  2  0
 11 10  1  0
 12 13  1  0
 11 12  1  6
 13 17  1  0
 14 15  1  0
 14 13  2  0
 15 16  1  0
 16 17  2  0
 18 11  1  0
 18 19  2  0
 20 18  1  0
 21 20  1  0
 21 27  1  0
 21 22  1  1
 23 22  1  0
 24 23  1  0
 25 24  1  0
 26 25  1  0
 27 28  2  0
 27 29  1  0
M  END
$$$$
