QHK.pdb
     RDKit          3D

 29 29  0  0  1  0  0  0  0  0999 V2000
    3.3764  -23.0008   17.9583 N   0  0  0  0  0  0  0  0  0  0  0  0
    3.1958  -21.5668   17.8957 C   0  0  0  0  0  0  0  0  0  0  0  0
    2.4033  -21.1920   17.0093 O   0  0  0  0  0  0  0  0  0  0  0  0
    3.9356  -20.7253   18.8428 C   0  0  0  0  0  0  0  0  0  0  0  0
    4.8614  -21.3783   19.7906 C   0  0  0  0  0  0  0  0  0  0  0  0
    5.6463  -20.5212   20.7127 C   0  0  2  0  0  0  0  0  0  0  0  0
    5.0325  -19.1880   20.6678 N   0  0  0  0  0  0  0  0  0  0  0  0
    7.0992  -20.5096   20.5836 C   0  0  0  0  0  0  0  0  0  0  0  0
    7.8123  -21.5625   20.6124 O   0  0  0  0  0  0  0  0  0  0  0  0
    7.8023  -19.2852   20.4167 N   0  0  0  0  0  0  0  0  0  0  0  0
    9.2433  -19.1917   20.3301 C   0  0  1  0  0  0  0  0  0  0  0  0
    9.7374  -18.1454   19.3932 C   0  0  0  0  0  0  0  0  0  0  0  0
    9.5428  -18.4522   17.9703 C   0  0  0  0  0  0  0  0  0  0  0  0
    9.6909  -19.6453   17.3281 C   0  0  0  0  0  0  0  0  0  0  0  0
    9.4065  -19.4475   16.0258 N   0  0  0  0  0  0  0  0  0  0  0  0
    9.0859  -18.1511   15.8585 C   0  0  0  0  0  0  0  0  0  0  0  0
    9.1712  -17.5479   17.0509 N   0  0  0  0  0  0  0  0  0  0  0  0
    9.8807  -19.1402   21.6691 C   0  0  0  0  0  0  0  0  0  0  0  0
    9.5008  -18.2623   22.4934 O   0  0  0  0  0  0  0  0  0  0  0  0
   10.8958  -20.0166   22.0897 N   0  0  0  0  0  0  0  0  0  0  0  0
   11.4753  -19.9596   23.4738 C   0  0  1  0  0  0  0  0  0  0  0  0
   11.2134  -21.2443   24.1313 C   0  0  0  0  0  0  0  0  0  0  0  0
   11.1673  -21.4377   25.5736 C   0  0  0  0  0  0  0  0  0  0  0  0
   10.9396  -22.7415   26.2142 C   0  0  0  0  0  0  0  0  0  0  0  0
   10.8447  -22.4384   27.7474 C   0  0  0  0  0  0  0  0  0  0  0  0
   10.6426  -23.6898   28.4219 N   0  0  0  0  0  0  0  0  0  0  0  0
   12.9021  -19.6517   23.2097 C   0  0  0  0  0  0  0  0  0  0  0  0
   13.3786  -19.8692   22.0299 O   0  0  0  0  0  0  0  0  0  0  0  0
   13.8152  -19.1399   24.0929 O   0  0  0  0  0  0  0  0  0  0  0  0
  1  2  1  0
  2  3  2  0
  4  5  1  0
  4  2  1  0
  5  6  1  0
  6  7  1  6
  8 10  1  0
  8  6  1  0
  9  8  2  0
 11 10  1  0
 12 13  1  0
 11 12  1  6
 13 17  1  0
 14 15  1  0
 14 13  2  0
 15 16  1  0
 16 17  2  0
 18 11  1  0
 18 19  2  0
 20 18  1  0
 21 20  1  0
 21 27  1  0
 21 22  1  6
 23 22  1  0
 24 23  1  0
 25 24  1  0
 26 25  1  0
 27 28  2  0
 27 29  1  0
M  END
$$$$
