QHK.pdb
     RDKit          3D

 29 29  0  0  1  0  0  0  0  0999 V2000
    8.2509  -12.2678   16.7437 N   0  0  0  0  0  0  0  0  0  0  0  0
    7.8538  -13.5250   16.1482 C   0  0  0  0  0  0  0  0  0  0  0  0
    6.9609  -13.4194   15.2846 O   0  0  0  0  0  0  0  0  0  0  0  0
    8.5128  -14.7546   16.6022 C   0  0  0  0  0  0  0  0  0  0  0  0
    9.5546  -14.6517   17.6444 C   0  0  0  0  0  0  0  0  0  0  0  0
    9.5077  -15.6004   18.7839 C   0  0  2  0  0  0  0  0  0  0  0  0
    8.3862  -16.5115   18.5228 N   0  0  0  0  0  0  0  0  0  0  0  0
    9.5303  -15.0609   20.1390 C   0  0  0  0  0  0  0  0  0  0  0  0
   10.3285  -14.1441   20.5135 O   0  0  0  0  0  0  0  0  0  0  0  0
    8.6361  -15.5516   21.1294 N   0  0  0  0  0  0  0  0  0  0  0  0
    8.5619  -15.0269   22.4756 C   0  0  1  0  0  0  0  0  0  0  0  0
    7.1809  -14.7293   22.9454 C   0  0  0  0  0  0  0  0  0  0  0  0
    7.0984  -14.1802   24.3049 C   0  0  0  0  0  0  0  0  0  0  0  0
    7.5046  -12.9602   24.7569 C   0  0  0  0  0  0  0  0  0  0  0  0
    7.2285  -12.8989   26.0745 N   0  0  0  0  0  0  0  0  0  0  0  0
    6.6588  -14.0628   26.4385 C   0  0  0  0  0  0  0  0  0  0  0  0
    6.5821  -14.8420   25.3522 N   0  0  0  0  0  0  0  0  0  0  0  0
    9.3552  -15.8353   23.4341 C   0  0  0  0  0  0  0  0  0  0  0  0
    9.1448  -17.0784   23.5058 O   0  0  0  0  0  0  0  0  0  0  0  0
   10.3414  -15.3031   24.2822 N   0  0  0  0  0  0  0  0  0  0  0  0
   11.0972  -16.1562   25.2600 C   0  0  1  0  0  0  0  0  0  0  0  0
   10.2021  -16.4696   26.3789 C   0  0  0  0  0  0  0  0  0  0  0  0
   10.4821  -17.4643   27.4046 C   0  0  0  0  0  0  0  0  0  0  0  0
    9.5786  -17.7531   28.5281 C   0  0  0  0  0  0  0  0  0  0  0  0
   10.3183  -18.8330   29.3871 C   0  0  0  0  0  0  0  0  0  0  0  0
    9.5070  -19.0935   30.5429 N   0  0  0  0  0  0  0  0  0  0  0  0
   11.5098  -17.3100   24.4242 C   0  0  0  0  0  0  0  0  0  0  0  0
   11.0973  -17.3739   23.2026 O   0  0  0  0  0  0  0  0  0  0  0  0
   12.3101  -18.3572   24.7967 O   0  0  0  0  0  0  0  0  0  0  0  0
  1  2  1  0
  2  3  2  0
  4  5  1  0
  4  2  1  0
  5  6  1  0
  6  7  1  6
  8 10  1  0
  8  6  1  0
  9  8  2  0
 11 10  1  0
 12 13  1  0
 11 12  1  1
 13 17  1  0
 14 15  1  0
 14 13  2  0
 15 16  1  0
 16 17  2  0
 18 11  1  0
 18 19  2  0
 20 18  1  0
 21 20  1  0
 21 27  1  0
 21 22  1  1
 23 22  1  0
 24 23  1  0
 25 24  1  0
 26 25  1  0
 27 28  2  0
 27 29  1  0
M  END
$$$$
