QHK.pdb
     RDKit          3D

 29 29  0  0  1  0  0  0  0  0999 V2000
   16.6896  -14.3769   16.1456 N   0  0  0  0  0  0  0  0  0  0  0  0
   15.2727  -14.6677   16.1222 C   0  0  0  0  0  0  0  0  0  0  0  0
   14.9402  -15.5103   15.2655 O   0  0  0  0  0  0  0  0  0  0  0  0
   14.3981  -13.9686   17.0701 C   0  0  0  0  0  0  0  0  0  0  0  0
   14.5346  -14.2715   18.5094 C   0  0  0  0  0  0  0  0  0  0  0  0
   13.7011  -15.3561   19.0835 C   0  0  2  0  0  0  0  0  0  0  0  0
   13.2108  -16.1504   17.9500 N   0  0  0  0  0  0  0  0  0  0  0  0
   12.6677  -15.0012   20.0500 C   0  0  0  0  0  0  0  0  0  0  0  0
   12.8628  -14.2033   21.0211 O   0  0  0  0  0  0  0  0  0  0  0  0
   11.3598  -15.5489   19.9465 N   0  0  0  0  0  0  0  0  0  0  0  0
   10.2874  -15.2474   20.8694 C   0  0  1  0  0  0  0  0  0  0  0  0
    8.9212  -15.4053   20.2989 C   0  0  0  0  0  0  0  0  0  0  0  0
    8.6195  -14.5162   19.1697 C   0  0  0  0  0  0  0  0  0  0  0  0
    8.7772  -13.1651   19.0836 C   0  0  0  0  0  0  0  0  0  0  0  0
    8.3672  -12.7822   17.8583 N   0  0  0  0  0  0  0  0  0  0  0  0
    7.9601  -13.8777   17.1907 C   0  0  0  0  0  0  0  0  0  0  0  0
    8.1168  -14.9345   17.9977 N   0  0  0  0  0  0  0  0  0  0  0  0
   10.4684  -15.9263   22.1763 C   0  0  0  0  0  0  0  0  0  0  0  0
   11.0928  -17.0233   22.2139 O   0  0  0  0  0  0  0  0  0  0  0  0
    9.9842  -15.4235   23.3961 N   0  0  0  0  0  0  0  0  0  0  0  0
   10.2988  -16.0790   24.7100 C   0  0  1  0  0  0  0  0  0  0  0  0
    9.9512  -15.1409   25.7826 C   0  0  0  0  0  0  0  0  0  0  0  0
   10.1586  -15.3971   27.2007 C   0  0  0  0  0  0  0  0  0  0  0  0
    9.7643  -14.4612   28.2642 C   0  0  0  0  0  0  0  0  0  0  0  0
   10.2165  -15.1394   29.6009 C   0  0  0  0  0  0  0  0  0  0  0  0
    9.8881  -14.2412   30.6720 N   0  0  0  0  0  0  0  0  0  0  0  0
    9.4854  -17.3180   24.6510 C   0  0  0  0  0  0  0  0  0  0  0  0
    8.4378  -17.3406   23.8971 O   0  0  0  0  0  0  0  0  0  0  0  0
    9.7164  -18.4917   25.3179 O   0  0  0  0  0  0  0  0  0  0  0  0
  1  2  1  0
  2  3  2  0
  4  5  1  0
  4  2  1  0
  5  6  1  0
  6  7  1  6
  8 10  1  0
  8  6  1  0
  9  8  2  0
 11 10  1  0
 12 13  1  0
 11 12  1  6
 13 17  1  0
 14 15  1  0
 14 13  2  0
 15 16  1  0
 16 17  2  0
 18 11  1  0
 18 19  2  0
 20 18  1  0
 21 20  1  0
 21 27  1  0
 21 22  1  1
 23 22  1  0
 24 23  1  0
 25 24  1  0
 26 25  1  0
 27 28  2  0
 27 29  1  0
M  END
$$$$
