QHK.pdb
     RDKit          3D

 29 29  0  0  1  0  0  0  0  0999 V2000
   12.3591  -16.5649   14.6776 N   0  0  0  0  0  0  0  0  0  0  0  0
   11.2549  -15.9494   15.3809 C   0  0  0  0  0  0  0  0  0  0  0  0
   10.2720  -15.6913   14.6586 O   0  0  0  0  0  0  0  0  0  0  0  0
   11.3940  -15.6964   16.8192 C   0  0  0  0  0  0  0  0  0  0  0  0
   12.6085  -16.1823   17.5056 C   0  0  0  0  0  0  0  0  0  0  0  0
   12.4513  -16.8874   18.8013 C   0  0  2  0  0  0  0  0  0  0  0  0
   11.8224  -18.1795   18.4999 N   0  0  0  0  0  0  0  0  0  0  0  0
   11.8329  -16.1715   19.9117 C   0  0  0  0  0  0  0  0  0  0  0  0
   12.4406  -15.2935   20.6028 O   0  0  0  0  0  0  0  0  0  0  0  0
   10.4852  -16.4329   20.2817 N   0  0  0  0  0  0  0  0  0  0  0  0
    9.7693  -15.6828   21.2905 C   0  0  1  0  0  0  0  0  0  0  0  0
    8.3131  -15.5258   21.0234 C   0  0  0  0  0  0  0  0  0  0  0  0
    7.9884  -14.7448   19.8229 C   0  0  0  0  0  0  0  0  0  0  0  0
    8.3145  -13.4536   19.5328 C   0  0  0  0  0  0  0  0  0  0  0  0
    7.8025  -13.1644   18.3202 N   0  0  0  0  0  0  0  0  0  0  0  0
    7.1669  -14.2586   17.8614 C   0  0  0  0  0  0  0  0  0  0  0  0
    7.2841  -15.2213   18.7846 N   0  0  0  0  0  0  0  0  0  0  0  0
   10.0746  -16.1597   22.6620 C   0  0  0  0  0  0  0  0  0  0  0  0
   10.6630  -17.2676   22.8070 O   0  0  0  0  0  0  0  0  0  0  0  0
    9.7481  -15.4507   23.8307 N   0  0  0  0  0  0  0  0  0  0  0  0
   10.1357  -15.9418   25.1958 C   0  0  1  0  0  0  0  0  0  0  0  0
    9.9047  -14.8556   26.1540 C   0  0  0  0  0  0  0  0  0  0  0  0
   10.1837  -14.9416   27.5803 C   0  0  0  0  0  0  0  0  0  0  0  0
    9.9129  -13.8529   28.5309 C   0  0  0  0  0  0  0  0  0  0  0  0
   10.3695  -14.3982   29.9258 C   0  0  0  0  0  0  0  0  0  0  0  0
   10.1277  -13.3643   30.8923 N   0  0  0  0  0  0  0  0  0  0  0  0
    9.2746  -17.1383   25.3606 C   0  0  0  0  0  0  0  0  0  0  0  0
    8.1673  -17.2050   24.7005 O   0  0  0  0  0  0  0  0  0  0  0  0
    9.5168  -18.2291   26.1526 O   0  0  0  0  0  0  0  0  0  0  0  0
  1  2  1  0
  2  3  2  0
  4  5  1  0
  4  2  1  0
  5  6  1  0
  6  7  1  6
  8 10  1  0
  8  6  1  0
  9  8  2  0
 11 10  1  0
 12 13  1  0
 11 12  1  6
 13 17  1  0
 14 15  1  0
 14 13  2  0
 15 16  1  0
 16 17  2  0
 18 11  1  0
 18 19  2  0
 20 18  1  0
 21 20  1  0
 21 27  1  0
 21 22  1  1
 23 22  1  0
 24 23  1  0
 25 24  1  0
 26 25  1  0
 27 28  2  0
 27 29  1  0
M  END
$$$$
