QHK.pdb
     RDKit          3D

 29 29  0  0  1  0  0  0  0  0999 V2000
   12.6870  -21.3321   13.7042 N   0  0  0  0  0  0  0  0  0  0  0  0
   12.2533  -20.0214   13.2718 C   0  0  0  0  0  0  0  0  0  0  0  0
   12.4848  -19.7794   12.0709 O   0  0  0  0  0  0  0  0  0  0  0  0
   11.6106  -19.1377   14.2506 C   0  0  0  0  0  0  0  0  0  0  0  0
   11.5282  -19.5851   15.6560 C   0  0  0  0  0  0  0  0  0  0  0  0
   10.2792  -19.3147   16.4096 C   0  0  2  0  0  0  0  0  0  0  0  0
    9.2104  -19.1801   15.4118 N   0  0  0  0  0  0  0  0  0  0  0  0
   10.2888  -18.2576   17.4146 C   0  0  0  0  0  0  0  0  0  0  0  0
   11.2507  -18.0729   18.2262 O   0  0  0  0  0  0  0  0  0  0  0  0
    9.1909  -17.3624   17.5354 N   0  0  0  0  0  0  0  0  0  0  0  0
    9.1185  -16.3087   18.5240 C   0  0  1  0  0  0  0  0  0  0  0  0
    7.9914  -15.3560   18.3273 C   0  0  0  0  0  0  0  0  0  0  0  0
    7.9441  -14.2510   19.2933 C   0  0  0  0  0  0  0  0  0  0  0  0
    7.0067  -13.9945   20.2489 C   0  0  0  0  0  0  0  0  0  0  0  0
    7.3786  -12.8730   20.8969 N   0  0  0  0  0  0  0  0  0  0  0  0
    8.5303  -12.4369   20.3538 C   0  0  0  0  0  0  0  0  0  0  0  0
    8.8708  -13.2835   19.3739 N   0  0  0  0  0  0  0  0  0  0  0  0
    9.2189  -16.8341   19.9080 C   0  0  0  0  0  0  0  0  0  0  0  0
    8.5455  -17.8543   20.2247 O   0  0  0  0  0  0  0  0  0  0  0  0
   10.0257  -16.2641   20.9077 N   0  0  0  0  0  0  0  0  0  0  0  0
    9.9981  -16.7503   22.3282 C   0  0  1  0  0  0  0  0  0  0  0  0
   11.3578  -17.1581   22.6972 C   0  0  0  0  0  0  0  0  0  0  0  0
   11.7215  -17.7526   23.9755 C   0  0  0  0  0  0  0  0  0  0  0  0
   13.0793  -18.2117   24.3040 C   0  0  0  0  0  0  0  0  0  0  0  0
   13.0014  -18.7063   25.7874 C   0  0  0  0  0  0  0  0  0  0  0  0
   14.3041  -19.1903   26.1488 N   0  0  0  0  0  0  0  0  0  0  0  0
    9.4590  -15.5761   23.0567 C   0  0  0  0  0  0  0  0  0  0  0  0
    9.6624  -14.3961   22.5744 O   0  0  0  0  0  0  0  0  0  0  0  0
    8.7385  -15.5845   24.2214 O   0  0  0  0  0  0  0  0  0  0  0  0
  1  2  1  0
  2  3  2  0
  4  5  1  0
  4  2  1  0
  5  6  1  0
  6  7  1  6
  8 10  1  0
  8  6  1  0
  9  8  2  0
 11 10  1  0
 12 13  1  0
 11 12  1  1
 13 17  1  0
 14 15  1  0
 14 13  2  0
 15 16  1  0
 16 17  2  0
 18 11  1  0
 18 19  2  0
 20 18  1  0
 21 20  1  0
 21 27  1  0
 21 22  1  1
 23 22  1  0
 24 23  1  0
 25 24  1  0
 26 25  1  0
 27 28  2  0
 27 29  1  0
M  END
$$$$
