QHK.pdb
     RDKit          3D

 29 29  0  0  1  0  0  0  0  0999 V2000
    6.9431  -11.9161   18.0288 N   0  0  0  0  0  0  0  0  0  0  0  0
    7.4401  -13.0718   17.3144 C   0  0  0  0  0  0  0  0  0  0  0  0
    6.7888  -13.3556   16.2899 O   0  0  0  0  0  0  0  0  0  0  0  0
    8.6150  -13.7719   17.8452 C   0  0  0  0  0  0  0  0  0  0  0  0
    9.1914  -13.3103   19.1246 C   0  0  0  0  0  0  0  0  0  0  0  0
   10.4144  -13.9814   19.6294 C   0  0  2  0  0  0  0  0  0  0  0  0
   11.1336  -14.4806   18.4506 N   0  0  0  0  0  0  0  0  0  0  0  0
   10.2771  -14.9628   20.6999 C   0  0  0  0  0  0  0  0  0  0  0  0
    9.5454  -14.7824   21.7244 O   0  0  0  0  0  0  0  0  0  0  0  0
   10.9770  -16.1991   20.6438 N   0  0  0  0  0  0  0  0  0  0  0  0
   10.7729  -17.2810   21.5822 C   0  0  1  0  0  0  0  0  0  0  0  0
   11.0922  -18.6318   21.0436 C   0  0  0  0  0  0  0  0  0  0  0  0
   10.1139  -19.1583   20.0832 C   0  0  0  0  0  0  0  0  0  0  0  0
    8.9297  -18.6117   19.6874 C   0  0  0  0  0  0  0  0  0  0  0  0
    8.3710  -19.4495   18.7918 N   0  0  0  0  0  0  0  0  0  0  0  0
    9.1941  -20.5023   18.6318 C   0  0  0  0  0  0  0  0  0  0  0  0
   10.2578  -20.3184   19.4240 N   0  0  0  0  0  0  0  0  0  0  0  0
   11.3973  -17.0027   22.8991 C   0  0  0  0  0  0  0  0  0  0  0  0
   12.6289  -16.7277   22.9456 O   0  0  0  0  0  0  0  0  0  0  0  0
   10.7000  -17.0249   24.1191 N   0  0  0  0  0  0  0  0  0  0  0  0
   11.3742  -16.7312   25.4284 C   0  0  1  0  0  0  0  0  0  0  0  0
   10.4057  -16.0562   26.2989 C   0  0  0  0  0  0  0  0  0  0  0  0
   10.6494  -15.7134   27.6927 C   0  0  0  0  0  0  0  0  0  0  0  0
    9.7040  -14.9512   28.5218 C   0  0  0  0  0  0  0  0  0  0  0  0
   10.4190  -14.7680   29.9027 C   0  0  0  0  0  0  0  0  0  0  0  0
    9.6029  -13.8937   30.6974 N   0  0  0  0  0  0  0  0  0  0  0  0
   11.8083  -18.0782   25.8727 C   0  0  0  0  0  0  0  0  0  0  0  0
   12.7982  -18.1741   26.6957 O   0  0  0  0  0  0  0  0  0  0  0  0
   11.2672  -19.2830   25.5105 O   0  0  0  0  0  0  0  0  0  0  0  0
  1  2  1  0
  2  3  2  0
  4  5  1  0
  4  2  1  0
  5  6  1  0
  6  7  1  6
  8 10  1  0
  8  6  1  0
  9  8  2  0
 11 10  1  0
 12 13  1  0
 11 12  1  6
 13 17  1  0
 14 15  1  0
 14 13  2  0
 15 16  1  0
 16 17  2  0
 18 11  1  0
 18 19  2  0
 20 18  1  0
 21 20  1  0
 21 27  1  0
 21 22  1  1
 23 22  1  0
 24 23  1  0
 25 24  1  0
 26 25  1  0
 27 28  2  0
 27 29  1  0
M  END
$$$$
