QHK.pdb
     RDKit          3D

 29 29  0  0  1  0  0  0  0  0999 V2000
   19.1478   -9.6038   16.6515 N   0  0  0  0  0  0  0  0  0  0  0  0
   19.4888  -11.0060   16.7542 C   0  0  0  0  0  0  0  0  0  0  0  0
   20.3459  -11.2588   17.6235 O   0  0  0  0  0  0  0  0  0  0  0  0
   18.8208  -11.9570   15.8589 C   0  0  0  0  0  0  0  0  0  0  0  0
   17.3884  -12.2438   16.0782 C   0  0  0  0  0  0  0  0  0  0  0  0
   16.9589  -13.6611   16.1660 C   0  0  2  0  0  0  0  0  0  0  0  0
   16.5036  -14.0434   14.8233 N   0  0  0  0  0  0  0  0  0  0  0  0
   16.0428  -14.0449   17.2343 C   0  0  0  0  0  0  0  0  0  0  0  0
   16.3400  -13.9752   18.4691 O   0  0  0  0  0  0  0  0  0  0  0  0
   14.7405  -14.5292   16.9332 N   0  0  0  0  0  0  0  0  0  0  0  0
   13.8067  -14.9985   17.9335 C   0  0  1  0  0  0  0  0  0  0  0  0
   12.3821  -14.9842   17.5012 C   0  0  0  0  0  0  0  0  0  0  0  0
   11.4307  -15.4865   18.5007 C   0  0  0  0  0  0  0  0  0  0  0  0
   11.5189  -15.4392   19.8600 C   0  0  0  0  0  0  0  0  0  0  0  0
   10.4137  -16.0238   20.3627 N   0  0  0  0  0  0  0  0  0  0  0  0
    9.6480  -16.4294   19.3327 C   0  0  0  0  0  0  0  0  0  0  0  0
   10.2752  -16.0982   18.1970 N   0  0  0  0  0  0  0  0  0  0  0  0
   14.2332  -16.2864   18.5345 C   0  0  0  0  0  0  0  0  0  0  0  0
   14.6166  -17.2185   17.7737 O   0  0  0  0  0  0  0  0  0  0  0  0
   14.2396  -16.5443   19.9160 N   0  0  0  0  0  0  0  0  0  0  0  0
   14.5561  -17.9028   20.4721 C   0  0  1  0  0  0  0  0  0  0  0  0
   15.2084  -17.7224   21.7733 C   0  0  0  0  0  0  0  0  0  0  0  0
   15.8180  -18.7957   22.5455 C   0  0  0  0  0  0  0  0  0  0  0  0
   16.4700  -18.5940   23.8479 C   0  0  0  0  0  0  0  0  0  0  0  0
   17.0109  -20.0035   24.2627 C   0  0  0  0  0  0  0  0  0  0  0  0
   17.7338  -19.8423   25.4929 N   0  0  0  0  0  0  0  0  0  0  0  0
   13.2229  -18.5521   20.5059 C   0  0  0  0  0  0  0  0  0  0  0  0
   13.1275  -19.7972   20.1789 O   0  0  0  0  0  0  0  0  0  0  0  0
   12.0313  -17.9769   20.8594 O   0  0  0  0  0  0  0  0  0  0  0  0
  1  2  1  0
  2  3  2  0
  4  5  1  0
  4  2  1  0
  5  6  1  0
  6  7  1  6
  8 10  1  0
  8  6  1  0
  9  8  2  0
 11 10  1  0
 12 13  1  0
 11 12  1  6
 13 17  1  0
 14 15  1  0
 14 13  2  0
 15 16  1  0
 16 17  2  0
 18 11  1  0
 18 19  2  0
 20 18  1  0
 21 20  1  0
 21 27  1  0
 21 22  1  1
 23 22  1  0
 24 23  1  0
 25 24  1  0
 26 25  1  0
 27 28  2  0
 27 29  1  0
M  END
$$$$
