QHK.pdb
     RDKit          3D

 29 29  0  0  1  0  0  0  0  0999 V2000
   14.5379  -18.9082   15.5957 N   0  0  0  0  0  0  0  0  0  0  0  0
   13.2806  -18.8392   14.8836 C   0  0  0  0  0  0  0  0  0  0  0  0
   13.3167  -19.3312   13.7386 O   0  0  0  0  0  0  0  0  0  0  0  0
   12.1305  -18.2192   15.5507 C   0  0  0  0  0  0  0  0  0  0  0  0
   12.3133  -17.6805   16.9140 C   0  0  0  0  0  0  0  0  0  0  0  0
   11.4097  -18.1601   17.9883 C   0  0  2  0  0  0  0  0  0  0  0  0
   10.0993  -18.3813   17.3640 N   0  0  0  0  0  0  0  0  0  0  0  0
   11.3525  -17.4069   19.2362 C   0  0  0  0  0  0  0  0  0  0  0  0
   12.3864  -17.0421   19.8810 O   0  0  0  0  0  0  0  0  0  0  0  0
   10.1020  -17.0384   19.8036 N   0  0  0  0  0  0  0  0  0  0  0  0
    9.9675  -16.2986   21.0395 C   0  0  1  0  0  0  0  0  0  0  0  0
    8.6542  -15.6183   21.2102 C   0  0  0  0  0  0  0  0  0  0  0  0
    8.3825  -14.5522   20.2374 C   0  0  0  0  0  0  0  0  0  0  0  0
    9.1877  -14.0796   19.2444 C   0  0  0  0  0  0  0  0  0  0  0  0
    8.5184  -13.0996   18.6059 N   0  0  0  0  0  0  0  0  0  0  0  0
    7.3144  -12.9632   19.1918 C   0  0  0  0  0  0  0  0  0  0  0  0
    7.2373  -13.8539   20.1886 N   0  0  0  0  0  0  0  0  0  0  0  0
   10.3796  -17.1007   22.2178 C   0  0  0  0  0  0  0  0  0  0  0  0
    9.6414  -18.0522   22.5979 O   0  0  0  0  0  0  0  0  0  0  0  0
   11.5553  -16.8700   22.9524 N   0  0  0  0  0  0  0  0  0  0  0  0
   11.9918  -17.7793   24.0648 C   0  0  1  0  0  0  0  0  0  0  0  0
   13.2142  -18.4683   23.6377 C   0  0  0  0  0  0  0  0  0  0  0  0
   13.2392  -19.7468   22.9416 C   0  0  0  0  0  0  0  0  0  0  0  0
   14.4755  -20.4158   22.5101 C   0  0  0  0  0  0  0  0  0  0  0  0
   14.0139  -21.7747   21.8841 C   0  0  0  0  0  0  0  0  0  0  0  0
   15.1763  -22.4105   21.3306 N   0  0  0  0  0  0  0  0  0  0  0  0
   12.1474  -16.8400   25.2022 C   0  0  0  0  0  0  0  0  0  0  0  0
   12.3408  -15.5879   24.9545 O   0  0  0  0  0  0  0  0  0  0  0  0
   12.1049  -17.1430   26.5371 O   0  0  0  0  0  0  0  0  0  0  0  0
  1  2  1  0
  2  3  2  0
  4  5  1  0
  4  2  1  0
  5  6  1  0
  6  7  1  6
  8 10  1  0
  8  6  1  0
  9  8  2  0
 11 10  1  0
 12 13  1  0
 11 12  1  1
 13 17  1  0
 14 15  1  0
 14 13  2  0
 15 16  1  0
 16 17  2  0
 18 11  1  0
 18 19  2  0
 20 18  1  0
 21 20  1  0
 21 27  1  0
 21 22  1  6
 23 22  1  0
 24 23  1  0
 25 24  1  0
 26 25  1  0
 27 28  2  0
 27 29  1  0
M  END
$$$$
