QHK.pdb
     RDKit          3D

 29 29  0  0  1  0  0  0  0  0999 V2000
    8.4454  -13.2219   15.6105 N   0  0  0  0  0  0  0  0  0  0  0  0
    7.5100  -13.9657   16.4258 C   0  0  0  0  0  0  0  0  0  0  0  0
    6.3262  -13.5913   16.3120 O   0  0  0  0  0  0  0  0  0  0  0  0
    8.0251  -15.0446   17.2760 C   0  0  0  0  0  0  0  0  0  0  0  0
    9.4850  -15.2636   17.3288 C   0  0  0  0  0  0  0  0  0  0  0  0
   10.1731  -15.1149   18.6347 C   0  0  2  0  0  0  0  0  0  0  0  0
   11.5714  -15.5065   18.4168 N   0  0  0  0  0  0  0  0  0  0  0  0
    9.5646  -15.7204   19.8140 C   0  0  0  0  0  0  0  0  0  0  0  0
    8.3856  -15.4519   20.2087 O   0  0  0  0  0  0  0  0  0  0  0  0
   10.2843  -16.6636   20.5975 N   0  0  0  0  0  0  0  0  0  0  0  0
    9.7887  -17.2243   21.8356 C   0  0  1  0  0  0  0  0  0  0  0  0
   10.3285  -18.5733   22.1603 C   0  0  0  0  0  0  0  0  0  0  0  0
    9.7842  -19.6665   21.3447 C   0  0  0  0  0  0  0  0  0  0  0  0
    8.8235  -19.6122   20.3793 C   0  0  0  0  0  0  0  0  0  0  0  0
    8.6493  -20.8612   19.9042 N   0  0  0  0  0  0  0  0  0  0  0  0
    9.4885  -21.6816   20.5631 C   0  0  0  0  0  0  0  0  0  0  0  0
   10.1795  -20.9454   21.4425 N   0  0  0  0  0  0  0  0  0  0  0  0
    9.8792  -16.2607   22.9603 C   0  0  0  0  0  0  0  0  0  0  0  0
   10.9071  -15.5342   23.0614 O   0  0  0  0  0  0  0  0  0  0  0  0
    8.8822  -16.0986   23.9375 N   0  0  0  0  0  0  0  0  0  0  0  0
    9.0310  -15.1301   25.0754 C   0  0  1  0  0  0  0  0  0  0  0  0
    7.7519  -14.4347   25.2528 C   0  0  0  0  0  0  0  0  0  0  0  0
    7.5683  -13.2420   26.0673 C   0  0  0  0  0  0  0  0  0  0  0  0
    6.2747  -12.5646   26.2407 C   0  0  0  0  0  0  0  0  0  0  0  0
    6.5738  -11.3288   27.1543 C   0  0  0  0  0  0  0  0  0  0  0  0
    5.3291  -10.6498   27.3812 N   0  0  0  0  0  0  0  0  0  0  0  0
    9.4432  -16.0130   26.1937 C   0  0  0  0  0  0  0  0  0  0  0  0
    9.1895  -17.2763   26.1166 O   0  0  0  0  0  0  0  0  0  0  0  0
   10.0903  -15.6447   27.3432 O   0  0  0  0  0  0  0  0  0  0  0  0
  1  2  1  0
  2  3  2  0
  4  5  1  0
  4  2  1  0
  5  6  1  0
  6  7  1  6
  8 10  1  0
  8  6  1  0
  9  8  2  0
 11 10  1  0
 12 13  1  0
 11 12  1  1
 13 17  1  0
 14 15  1  0
 14 13  2  0
 15 16  1  0
 16 17  2  0
 18 11  1  0
 18 19  2  0
 20 18  1  0
 21 20  1  0
 21 27  1  0
 21 22  1  1
 23 22  1  0
 24 23  1  0
 25 24  1  0
 26 25  1  0
 27 28  2  0
 27 29  1  0
M  END
$$$$
