QHK.pdb
     RDKit          3D

 29 29  0  0  1  0  0  0  0  0999 V2000
    7.5262  -20.7228   20.2809 N   0  0  0  0  0  0  0  0  0  0  0  0
    8.8923  -20.4021   20.6329 C   0  0  0  0  0  0  0  0  0  0  0  0
    9.5965  -21.3965   20.8970 O   0  0  0  0  0  0  0  0  0  0  0  0
    9.3000  -18.9930   20.6468 C   0  0  0  0  0  0  0  0  0  0  0  0
    8.2988  -17.9666   20.2914 C   0  0  0  0  0  0  0  0  0  0  0  0
    8.7116  -16.5418   20.3140 C   0  0  2  0  0  0  0  0  0  0  0  0
    9.8046  -16.4083   19.3427 N   0  0  0  0  0  0  0  0  0  0  0  0
    8.9850  -15.9178   21.6038 C   0  0  0  0  0  0  0  0  0  0  0  0
   10.1461  -15.8581   22.1198 O   0  0  0  0  0  0  0  0  0  0  0  0
    7.9348  -15.3334   22.3634 N   0  0  0  0  0  0  0  0  0  0  0  0
    8.1179  -14.7593   23.6786 C   0  0  1  0  0  0  0  0  0  0  0  0
    7.0559  -13.7980   24.0843 C   0  0  0  0  0  0  0  0  0  0  0  0
    7.2067  -13.2499   25.4383 C   0  0  0  0  0  0  0  0  0  0  0  0
    6.3617  -13.3625   26.5018 C   0  0  0  0  0  0  0  0  0  0  0  0
    6.9136  -12.6971   27.5356 N   0  0  0  0  0  0  0  0  0  0  0  0
    8.0847  -12.1776   27.1230 C   0  0  0  0  0  0  0  0  0  0  0  0
    8.2582  -12.5190   25.8400 N   0  0  0  0  0  0  0  0  0  0  0  0
    8.4080  -15.7927   24.7031 C   0  0  0  0  0  0  0  0  0  0  0  0
    7.6013  -16.7535   24.8475 O   0  0  0  0  0  0  0  0  0  0  0  0
    9.5383  -15.7750   25.5382 N   0  0  0  0  0  0  0  0  0  0  0  0
    9.8503  -16.9008   26.4816 C   0  0  1  0  0  0  0  0  0  0  0  0
   11.1219  -17.5036   26.0677 C   0  0  0  0  0  0  0  0  0  0  0  0
   11.7875  -18.5893   26.7733 C   0  0  0  0  0  0  0  0  0  0  0  0
   13.0280  -19.2255   26.3058 C   0  0  0  0  0  0  0  0  0  0  0  0
   13.3316  -20.3549   27.3468 C   0  0  0  0  0  0  0  0  0  0  0  0
   14.5391  -21.0110   26.9303 N   0  0  0  0  0  0  0  0  0  0  0  0
    9.8607  -16.2193   27.7990 C   0  0  0  0  0  0  0  0  0  0  0  0
   10.0877  -14.9493   27.8420 O   0  0  0  0  0  0  0  0  0  0  0  0
    9.6459  -16.7880   29.0263 O   0  0  0  0  0  0  0  0  0  0  0  0
  1  2  1  0
  2  3  2  0
  4  5  1  0
  4  2  1  0
  5  6  1  0
  6  7  1  6
  8 10  1  0
  8  6  1  0
  9  8  2  0
 11 10  1  0
 12 13  1  0
 11 12  1  1
 13 17  1  0
 14 15  1  0
 14 13  2  0
 15 16  1  0
 16 17  2  0
 18 11  1  0
 18 19  2  0
 20 18  1  0
 21 20  1  0
 21 27  1  0
 21 22  1  6
 23 22  1  0
 24 23  1  0
 25 24  1  0
 26 25  1  0
 27 28  2  0
 27 29  1  0
M  END
$$$$
