QHK.pdb
     RDKit          3D

 29 29  0  0  1  0  0  0  0  0999 V2000
   11.0405  -16.3962   13.8925 N   0  0  0  0  0  0  0  0  0  0  0  0
    9.8375  -16.1594   14.6603 C   0  0  0  0  0  0  0  0  0  0  0  0
    8.9352  -15.5781   14.0260 O   0  0  0  0  0  0  0  0  0  0  0  0
    9.7982  -16.6065   16.0570 C   0  0  0  0  0  0  0  0  0  0  0  0
   10.9346  -17.3945   16.5764 C   0  0  0  0  0  0  0  0  0  0  0  0
   10.8638  -17.8994   17.9696 C   0  0  2  0  0  0  0  0  0  0  0  0
    9.8722  -18.9824   17.9713 N   0  0  0  0  0  0  0  0  0  0  0  0
   10.6908  -16.9353   19.0504 C   0  0  0  0  0  0  0  0  0  0  0  0
   11.5623  -16.0595   19.3526 O   0  0  0  0  0  0  0  0  0  0  0  0
    9.5065  -16.9333   19.8372 N   0  0  0  0  0  0  0  0  0  0  0  0
    9.3056  -16.0751   20.9843 C   0  0  1  0  0  0  0  0  0  0  0  0
    8.0956  -15.2114   20.9029 C   0  0  0  0  0  0  0  0  0  0  0  0
    8.0630  -14.3053   19.7477 C   0  0  0  0  0  0  0  0  0  0  0  0
    8.6127  -13.0644   19.6227 C   0  0  0  0  0  0  0  0  0  0  0  0
    8.3263  -12.6122   18.3859 N   0  0  0  0  0  0  0  0  0  0  0  0
    7.6091  -13.5568   17.7495 C   0  0  0  0  0  0  0  0  0  0  0  0
    7.4514  -14.5893   18.5873 N   0  0  0  0  0  0  0  0  0  0  0  0
    9.4218  -16.8174   22.2638 C   0  0  0  0  0  0  0  0  0  0  0  0
    8.5977  -17.7417   22.5111 O   0  0  0  0  0  0  0  0  0  0  0  0
   10.4029  -16.5577   23.2360 N   0  0  0  0  0  0  0  0  0  0  0  0
   10.5255  -17.3819   24.4852 C   0  0  1  0  0  0  0  0  0  0  0  0
   11.8163  -18.0775   24.4479 C   0  0  0  0  0  0  0  0  0  0  0  0
   12.5013  -18.4786   23.2274 C   0  0  0  0  0  0  0  0  0  0  0  0
   13.8251  -19.1185   23.2085 C   0  0  0  0  0  0  0  0  0  0  0  0
   14.1218  -19.4111   21.6992 C   0  0  0  0  0  0  0  0  0  0  0  0
   15.4196  -20.0211   21.6261 N   0  0  0  0  0  0  0  0  0  0  0  0
   10.3738  -16.3651   25.5543 C   0  0  0  0  0  0  0  0  0  0  0  0
   10.4133  -15.1148   25.2356 O   0  0  0  0  0  0  0  0  0  0  0  0
   10.1839  -16.5927   26.8915 O   0  0  0  0  0  0  0  0  0  0  0  0
  1  2  1  0
  2  3  2  0
  4  5  1  0
  4  2  1  0
  5  6  1  0
  6  7  1  6
  8 10  1  0
  8  6  1  0
  9  8  2  0
 11 10  1  0
 12 13  1  0
 11 12  1  6
 13 17  1  0
 14 15  1  0
 14 13  2  0
 15 16  1  0
 16 17  2  0
 18 11  1  0
 18 19  2  0
 20 18  1  0
 21 20  1  0
 21 27  1  0
 21 22  1  1
 23 22  1  0
 24 23  1  0
 25 24  1  0
 26 25  1  0
 27 28  2  0
 27 29  1  0
M  END
$$$$
