QHK.pdb
     RDKit          3D

 29 29  0  0  1  0  0  0  0  0999 V2000
   13.9164  -16.0311   13.4335 N   0  0  0  0  0  0  0  0  0  0  0  0
   12.5258  -16.3027   13.1411 C   0  0  0  0  0  0  0  0  0  0  0  0
   12.2661  -16.3724   11.9238 O   0  0  0  0  0  0  0  0  0  0  0  0
   11.5922  -16.4610   14.2616 C   0  0  0  0  0  0  0  0  0  0  0  0
   12.1197  -16.3596   15.6376 C   0  0  0  0  0  0  0  0  0  0  0  0
   11.4921  -17.1884   16.6959 C   0  0  2  0  0  0  0  0  0  0  0  0
   10.1412  -17.5164   16.2232 N   0  0  0  0  0  0  0  0  0  0  0  0
   11.5384  -16.7094   18.0729 C   0  0  0  0  0  0  0  0  0  0  0  0
   12.6065  -16.3171   18.6414 O   0  0  0  0  0  0  0  0  0  0  0  0
   10.3575  -16.6601   18.8632 N   0  0  0  0  0  0  0  0  0  0  0  0
   10.3235  -16.1802   20.2275 C   0  0  1  0  0  0  0  0  0  0  0  0
    8.9881  -15.7005   20.6785 C   0  0  0  0  0  0  0  0  0  0  0  0
    8.4377  -14.5868   19.8953 C   0  0  0  0  0  0  0  0  0  0  0  0
    9.0377  -13.4148   19.5430 C   0  0  0  0  0  0  0  0  0  0  0  0
    8.1490  -12.6989   18.8263 N   0  0  0  0  0  0  0  0  0  0  0  0
    7.0123  -13.4136   18.7330 C   0  0  0  0  0  0  0  0  0  0  0  0
    7.1950  -14.5667   19.3887 N   0  0  0  0  0  0  0  0  0  0  0  0
   10.9633  -17.1312   21.1698 C   0  0  0  0  0  0  0  0  0  0  0  0
   10.8623  -18.3706   20.9498 O   0  0  0  0  0  0  0  0  0  0  0  0
   11.6863  -16.7404   22.3098 N   0  0  0  0  0  0  0  0  0  0  0  0
   12.4728  -17.7217   23.1305 C   0  0  1  0  0  0  0  0  0  0  0  0
   13.8954  -17.5329   22.8275 C   0  0  0  0  0  0  0  0  0  0  0  0
   14.9209  -18.5482   23.0207 C   0  0  0  0  0  0  0  0  0  0  0  0
   16.3294  -18.3668   22.6394 C   0  0  0  0  0  0  0  0  0  0  0  0
   17.0484  -19.6893   23.0701 C   0  0  0  0  0  0  0  0  0  0  0  0
   18.4415  -19.5447   22.7536 N   0  0  0  0  0  0  0  0  0  0  0  0
   12.0598  -17.3833   24.5143 C   0  0  0  0  0  0  0  0  0  0  0  0
   12.1275  -18.2952   25.4256 O   0  0  0  0  0  0  0  0  0  0  0  0
   11.6019  -16.1753   24.9690 O   0  0  0  0  0  0  0  0  0  0  0  0
  1  2  1  0
  2  3  2  0
  4  5  1  0
  4  2  1  0
  5  6  1  0
  6  7  1  6
  8 10  1  0
  8  6  1  0
  9  8  2  0
 11 10  1  0
 12 13  1  0
 11 12  1  1
 13 17  1  0
 14 15  1  0
 14 13  2  0
 15 16  1  0
 16 17  2  0
 18 11  1  0
 18 19  2  0
 20 18  1  0
 21 20  1  0
 21 27  1  0
 21 22  1  1
 23 22  1  0
 24 23  1  0
 25 24  1  0
 26 25  1  0
 27 28  2  0
 27 29  1  0
M  END
$$$$
