ENN.pdb
     RDKit          3D

 26 25  0  0  1  0  0  0  0  0999 V2000
   11.2047  -17.0130   17.1770 N   0  0  0  0  0  0  0  0  0  0  0  0
   11.8694  -15.7057   17.0479 C   0  0  1  0  0  0  0  0  0  0  0  0
   11.7906  -15.2303   15.6352 C   0  0  0  0  0  0  0  0  0  0  0  0
   11.4902  -16.3594   14.6975 C   0  0  0  0  0  0  0  0  0  0  0  0
   11.3248  -15.8890   13.2964 C   0  0  0  0  0  0  0  0  0  0  0  0
   12.2584  -15.7092   12.4869 O   0  0  0  0  0  0  0  0  0  0  0  0
   11.2426  -14.8054   18.0450 C   0  0  0  0  0  0  0  0  0  0  0  0
   10.8317  -13.6344   17.7360 O   0  0  0  0  0  0  0  0  0  0  0  0
   10.0407  -15.6117   12.7975 O   0  0  0  0  0  0  0  0  0  0  0  0
    9.1798  -12.3835   18.8105 N   0  0  0  0  0  0  0  0  0  0  0  0
    8.3575  -13.5342   18.8916 C   0  0  0  0  0  0  0  0  0  0  0  0
    7.2397  -13.4464   18.3074 O   0  0  0  0  0  0  0  0  0  0  0  0
    8.7679  -14.7652   19.6104 C   0  0  0  0  0  0  0  0  0  0  0  0
   10.1324  -14.5803   20.2285 C   0  0  2  0  0  0  0  0  0  0  0  0
   11.0896  -15.2435   19.3779 N   0  0  0  0  0  0  0  0  0  0  0  0
   10.2110  -15.2418   21.5690 C   0  0  0  0  0  0  0  0  0  0  0  0
    9.4699  -14.8492   22.5187 O   0  0  0  0  0  0  0  0  0  0  0  0
   11.5652  -19.5431   20.9953 N   0  0  0  0  0  0  0  0  0  0  0  0
   10.7849  -18.9738   22.0319 C   0  0  0  0  0  0  0  0  0  0  0  0
    9.5169  -19.0086   21.9559 O   0  0  0  0  0  0  0  0  0  0  0  0
   11.4763  -18.3508   23.1814 C   0  0  0  0  0  0  0  0  0  0  0  0
   11.1802  -16.8735   23.1952 C   0  0  2  0  0  0  0  0  0  0  0  0
   11.0809  -16.3137   21.8763 N   0  0  0  0  0  0  0  0  0  0  0  0
   12.3259  -16.2326   23.9363 C   0  0  0  0  0  0  0  0  0  0  0  0
   13.0580  -15.3717   23.4078 O   0  0  0  0  0  0  0  0  0  0  0  0
   12.5673  -16.6149   25.2400 O   0  0  0  0  0  0  0  0  0  0  0  0
  2  1  1  6
  3  2  1  0
  4  3  1  0
  5  4  1  0
  5  6  2  0
  7  2  1  0
  7  8  2  0
  9  5  1  0
 10 11  1  0
 11 13  1  0
 12 11  2  0
 14 13  1  6
 14 15  1  0
 15  7  1  0
 16 14  1  0
 17 16  2  0
 19 21  1  0
 19 18  1  0
 20 19  2  0
 22 23  1  0
 22 21  1  6
 23 16  1  0
 24 22  1  0
 25 24  2  0
 26 24  1  0
M  END
$$$$
