ENN.pdb
     RDKit          3D

 26 25  0  0  1  0  0  0  0  0999 V2000
    9.4872  -20.3474   20.9746 N   0  0  0  0  0  0  0  0  0  0  0  0
    8.2785  -19.6058   20.5784 C   0  0  1  0  0  0  0  0  0  0  0  0
    7.8491  -20.0228   19.2110 C   0  0  0  0  0  0  0  0  0  0  0  0
    8.9666  -20.6919   18.4706 C   0  0  0  0  0  0  0  0  0  0  0  0
    8.5564  -21.1071   17.1027 C   0  0  0  0  0  0  0  0  0  0  0  0
    8.8667  -22.1879   16.5597 O   0  0  0  0  0  0  0  0  0  0  0  0
    7.2711  -19.8271   21.6432 C   0  0  0  0  0  0  0  0  0  0  0  0
    6.5396  -18.8785   22.0910 O   0  0  0  0  0  0  0  0  0  0  0  0
    7.7590  -20.2539   16.3212 O   0  0  0  0  0  0  0  0  0  0  0  0
    4.0579  -22.2329   24.8713 N   0  0  0  0  0  0  0  0  0  0  0  0
    4.0859  -22.7581   23.5559 C   0  0  0  0  0  0  0  0  0  0  0  0
    3.1654  -23.5790   23.2781 O   0  0  0  0  0  0  0  0  0  0  0  0
    5.1199  -22.3792   22.5621 C   0  0  0  0  0  0  0  0  0  0  0  0
    6.0542  -21.3476   23.1460 C   0  0  2  0  0  0  0  0  0  0  0  0
    7.1061  -21.1194   22.1862 N   0  0  0  0  0  0  0  0  0  0  0  0
    6.7073  -21.8564   24.3931 C   0  0  0  0  0  0  0  0  0  0  0  0
    6.0032  -22.1808   25.3952 O   0  0  0  0  0  0  0  0  0  0  0  0
   11.0983  -19.8749   26.1169 N   0  0  0  0  0  0  0  0  0  0  0  0
   10.1627  -19.1167   25.3703 C   0  0  0  0  0  0  0  0  0  0  0  0
   10.4579  -17.9353   25.0071 O   0  0  0  0  0  0  0  0  0  0  0  0
    8.8593  -19.7291   25.0334 C   0  0  0  0  0  0  0  0  0  0  0  0
    8.8770  -21.1815   25.4339 C   0  0  2  0  0  0  0  0  0  0  0  0
    8.1040  -22.0111   24.5523 N   0  0  0  0  0  0  0  0  0  0  0  0
    8.2933  -21.2309   26.8229 C   0  0  0  0  0  0  0  0  0  0  0  0
    7.0907  -20.9844   27.0455 O   0  0  0  0  0  0  0  0  0  0  0  0
    9.1207  -21.5595   27.8773 O   0  0  0  0  0  0  0  0  0  0  0  0
  2  1  1  1
  3  2  1  0
  4  3  1  0
  5  4  1  0
  5  6  2  0
  7  2  1  0
  7  8  2  0
  9  5  1  0
 10 11  1  0
 11 13  1  0
 12 11  2  0
 14 13  1  6
 14 15  1  0
 15  7  1  0
 16 14  1  0
 17 16  2  0
 19 21  1  0
 19 18  1  0
 20 19  2  0
 22 23  1  0
 22 21  1  6
 23 16  1  0
 24 22  1  0
 25 24  2  0
 26 24  1  0
M  END
$$$$
