ENN.pdb
     RDKit          3D

 26 25  0  0  1  0  0  0  0  0999 V2000
    8.6848  -17.6516   19.4635 N   0  0  0  0  0  0  0  0  0  0  0  0
    9.5822  -18.5239   20.2390 C   0  0  1  0  0  0  0  0  0  0  0  0
   10.6873  -19.0226   19.3683 C   0  0  0  0  0  0  0  0  0  0  0  0
   10.4269  -18.7096   17.9265 C   0  0  0  0  0  0  0  0  0  0  0  0
   11.4802  -19.2684   17.0377 C   0  0  0  0  0  0  0  0  0  0  0  0
   12.7042  -19.0504   17.1536 O   0  0  0  0  0  0  0  0  0  0  0  0
   10.0224  -17.7446   21.4208 C   0  0  0  0  0  0  0  0  0  0  0  0
   10.6419  -16.6317   21.3055 O   0  0  0  0  0  0  0  0  0  0  0  0
   11.1226  -20.1113   15.9716 O   0  0  0  0  0  0  0  0  0  0  0  0
    9.6941  -14.7727   25.8308 N   0  0  0  0  0  0  0  0  0  0  0  0
    9.2981  -16.1280   25.7167 C   0  0  0  0  0  0  0  0  0  0  0  0
    9.2393  -16.7711   26.8037 O   0  0  0  0  0  0  0  0  0  0  0  0
    8.9721  -16.7624   24.4160 C   0  0  0  0  0  0  0  0  0  0  0  0
   10.1842  -17.4691   23.8598 C   0  0  2  0  0  0  0  0  0  0  0  0
    9.7550  -18.2361   22.7165 N   0  0  0  0  0  0  0  0  0  0  0  0
   10.7427  -18.4422   24.8506 C   0  0  0  0  0  0  0  0  0  0  0  0
   10.1779  -19.5616   25.0335 O   0  0  0  0  0  0  0  0  0  0  0  0
   15.2712  -21.2787   25.6956 N   0  0  0  0  0  0  0  0  0  0  0  0
   14.9154  -20.1975   26.5394 C   0  0  0  0  0  0  0  0  0  0  0  0
   15.2385  -20.2259   27.7680 O   0  0  0  0  0  0  0  0  0  0  0  0
   14.1721  -19.0581   25.9589 C   0  0  0  0  0  0  0  0  0  0  0  0
   12.6957  -19.2707   26.1718 C   0  0  2  0  0  0  0  0  0  0  0  0
   11.8970  -18.2057   25.6328 N   0  0  0  0  0  0  0  0  0  0  0  0
   12.5036  -19.3467   27.6650 C   0  0  0  0  0  0  0  0  0  0  0  0
   12.0546  -18.3879   28.3250 O   0  0  0  0  0  0  0  0  0  0  0  0
   12.8372  -20.5165   28.3166 O   0  0  0  0  0  0  0  0  0  0  0  0
  2  1  1  6
  3  2  1  0
  4  3  1  0
  5  4  1  0
  5  6  2  0
  7  2  1  0
  7  8  2  0
  9  5  1  0
 10 11  1  0
 11 13  1  0
 12 11  2  0
 14 13  1  1
 14 15  1  0
 15  7  1  0
 16 14  1  0
 17 16  2  0
 19 21  1  0
 19 18  1  0
 20 19  2  0
 22 23  1  0
 22 21  1  1
 23 16  1  0
 24 22  1  0
 25 24  2  0
 26 24  1  0
M  END
$$$$
