ENN.pdb
     RDKit          3D

 26 25  0  0  1  0  0  0  0  0999 V2000
    9.1610  -18.0890   19.8559 N   0  0  0  0  0  0  0  0  0  0  0  0
   10.3873  -17.2805   19.7541 C   0  0  1  0  0  0  0  0  0  0  0  0
   10.7538  -17.0875   18.3201 C   0  0  0  0  0  0  0  0  0  0  0  0
   10.9681  -18.4011   17.6321 C   0  0  0  0  0  0  0  0  0  0  0  0
   11.2500  -18.2293   16.1820 C   0  0  0  0  0  0  0  0  0  0  0  0
   11.3452  -19.1610   15.3562 O   0  0  0  0  0  0  0  0  0  0  0  0
   10.1397  -16.0286   20.5086 C   0  0  0  0  0  0  0  0  0  0  0  0
   11.0888  -15.2365   20.8360 O   0  0  0  0  0  0  0  0  0  0  0  0
   11.4312  -16.9408   15.6515 O   0  0  0  0  0  0  0  0  0  0  0  0
    6.6376  -13.6841   18.7086 N   0  0  0  0  0  0  0  0  0  0  0  0
    7.5536  -13.3904   19.7486 C   0  0  0  0  0  0  0  0  0  0  0  0
    8.5675  -12.7168   19.4066 O   0  0  0  0  0  0  0  0  0  0  0  0
    7.3495  -13.8374   21.1482 C   0  0  0  0  0  0  0  0  0  0  0  0
    8.5974  -14.5057   21.6717 C   0  0  2  0  0  0  0  0  0  0  0  0
    8.8210  -15.6912   20.8817 N   0  0  0  0  0  0  0  0  0  0  0  0
    8.4145  -14.9555   23.0876 C   0  0  0  0  0  0  0  0  0  0  0  0
    7.9006  -14.1754   23.9435 O   0  0  0  0  0  0  0  0  0  0  0  0
    6.0144  -16.4472   25.9061 N   0  0  0  0  0  0  0  0  0  0  0  0
    6.4297  -17.6098   25.2106 C   0  0  0  0  0  0  0  0  0  0  0  0
    5.5597  -18.3720   24.6844 O   0  0  0  0  0  0  0  0  0  0  0  0
    7.8763  -17.9031   25.1174 C   0  0  0  0  0  0  0  0  0  0  0  0
    8.6330  -16.6114   24.9468 C   0  0  2  0  0  0  0  0  0  0  0  0
    8.7837  -16.2328   23.5695 N   0  0  0  0  0  0  0  0  0  0  0  0
    9.9888  -16.8460   25.5624 C   0  0  0  0  0  0  0  0  0  0  0  0
   10.1382  -17.0234   26.7883 O   0  0  0  0  0  0  0  0  0  0  0  0
   11.0957  -16.8638   24.7387 O   0  0  0  0  0  0  0  0  0  0  0  0
  2  1  1  6
  3  2  1  0
  4  3  1  0
  5  4  1  0
  5  6  2  0
  7  2  1  0
  7  8  2  0
  9  5  1  0
 10 11  1  0
 11 13  1  0
 12 11  2  0
 14 13  1  6
 14 15  1  0
 15  7  1  0
 16 14  1  0
 17 16  2  0
 19 21  1  0
 19 18  1  0
 20 19  2  0
 22 23  1  0
 22 21  1  6
 23 16  1  0
 24 22  1  0
 25 24  2  0
 26 24  1  0
M  END
$$$$
