ENN.pdb
     RDKit          3D

 26 25  0  0  1  0  0  0  0  0999 V2000
    9.8900  -19.8334   19.6017 N   0  0  0  0  0  0  0  0  0  0  0  0
   10.1849  -18.4058   19.8080 C   0  0  1  0  0  0  0  0  0  0  0  0
    9.5805  -17.5957   18.7096 C   0  0  0  0  0  0  0  0  0  0  0  0
    9.5920  -18.3448   17.4121 C   0  0  0  0  0  0  0  0  0  0  0  0
    8.8614  -17.6142   16.3424 C   0  0  0  0  0  0  0  0  0  0  0  0
    7.6236  -17.6348   16.1787 O   0  0  0  0  0  0  0  0  0  0  0  0
    9.7107  -18.0622   21.1699 C   0  0  0  0  0  0  0  0  0  0  0  0
    9.9185  -16.9122   21.6892 O   0  0  0  0  0  0  0  0  0  0  0  0
    9.5722  -16.8272   15.4204 O   0  0  0  0  0  0  0  0  0  0  0  0
    6.8175  -17.1820   21.7874 N   0  0  0  0  0  0  0  0  0  0  0  0
    6.3008  -18.2336   22.5836 C   0  0  0  0  0  0  0  0  0  0  0  0
    5.0474  -18.3906   22.5309 O   0  0  0  0  0  0  0  0  0  0  0  0
    7.1610  -19.0991   23.4271 C   0  0  0  0  0  0  0  0  0  0  0  0
    8.6100  -18.7058   23.2736 C   0  0  2  0  0  0  0  0  0  0  0  0
    9.0078  -19.0256   21.9248 N   0  0  0  0  0  0  0  0  0  0  0  0
    9.4856  -19.5070   24.1859 C   0  0  0  0  0  0  0  0  0  0  0  0
   10.1469  -20.4893   23.7354 O   0  0  0  0  0  0  0  0  0  0  0  0
   13.1730  -20.2701   27.3627 N   0  0  0  0  0  0  0  0  0  0  0  0
   13.2680  -19.2137   26.4231 C   0  0  0  0  0  0  0  0  0  0  0  0
   14.3977  -18.6819   26.1870 O   0  0  0  0  0  0  0  0  0  0  0  0
   12.0380  -18.7582   25.7396 C   0  0  0  0  0  0  0  0  0  0  0  0
   10.8603  -19.5320   26.2729 C   0  0  2  0  0  0  0  0  0  0  0  0
    9.6421  -19.2475   25.5673 N   0  0  0  0  0  0  0  0  0  0  0  0
   10.7207  -19.1225   27.7170 C   0  0  0  0  0  0  0  0  0  0  0  0
   10.9110  -19.9237   28.6543 O   0  0  0  0  0  0  0  0  0  0  0  0
   10.3709  -17.8191   28.0045 O   0  0  0  0  0  0  0  0  0  0  0  0
  2  1  1  6
  3  2  1  0
  4  3  1  0
  5  4  1  0
  5  6  2  0
  7  2  1  0
  7  8  2  0
  9  5  1  0
 10 11  1  0
 11 13  1  0
 12 11  2  0
 14 13  1  6
 14 15  1  0
 15  7  1  0
 16 14  1  0
 17 16  2  0
 19 21  1  0
 19 18  1  0
 20 19  2  0
 22 23  1  0
 22 21  1  6
 23 16  1  0
 24 22  1  0
 25 24  2  0
 26 24  1  0
M  END
$$$$
