ENN.pdb
     RDKit          3D

 26 25  0  0  1  0  0  0  0  0999 V2000
   16.2753  -12.8850   17.2893 N   0  0  0  0  0  0  0  0  0  0  0  0
   15.5388  -14.1434   17.0850 C   0  0  1  0  0  0  0  0  0  0  0  0
   16.4808  -15.3001   17.1352 C   0  0  0  0  0  0  0  0  0  0  0  0
   17.4835  -15.1373   18.2364 C   0  0  0  0  0  0  0  0  0  0  0  0
   18.3859  -16.3145   18.3446 C   0  0  0  0  0  0  0  0  0  0  0  0
   19.5915  -16.3244   18.0197 O   0  0  0  0  0  0  0  0  0  0  0  0
   14.4563  -14.1760   18.0975 C   0  0  0  0  0  0  0  0  0  0  0  0
   14.4345  -13.3718   19.0915 O   0  0  0  0  0  0  0  0  0  0  0  0
   17.8925  -17.5317   18.8443 O   0  0  0  0  0  0  0  0  0  0  0  0
    9.9533  -15.0750   20.3807 N   0  0  0  0  0  0  0  0  0  0  0  0
    9.9063  -15.5803   19.0581 C   0  0  0  0  0  0  0  0  0  0  0  0
    8.7705  -15.9735   18.6659 O   0  0  0  0  0  0  0  0  0  0  0  0
   11.1014  -15.6493   18.1821 C   0  0  0  0  0  0  0  0  0  0  0  0
   12.3005  -15.0610   18.8850 C   0  0  2  0  0  0  0  0  0  0  0  0
   13.4138  -15.1189   17.9702 N   0  0  0  0  0  0  0  0  0  0  0  0
   12.6785  -15.8777   20.0812 C   0  0  0  0  0  0  0  0  0  0  0  0
   12.8989  -17.1197   19.9619 O   0  0  0  0  0  0  0  0  0  0  0  0
   15.4802  -15.8654   21.2918 N   0  0  0  0  0  0  0  0  0  0  0  0
   15.4587  -15.4531   22.6473 C   0  0  0  0  0  0  0  0  0  0  0  0
   16.5170  -14.9963   23.1823 O   0  0  0  0  0  0  0  0  0  0  0  0
   14.1936  -15.5678   23.4047 C   0  0  0  0  0  0  0  0  0  0  0  0
   13.1404  -16.1808   22.5186 C   0  0  2  0  0  0  0  0  0  0  0  0
   12.8155  -15.3560   21.3885 N   0  0  0  0  0  0  0  0  0  0  0  0
   11.9225  -16.3551   23.3896 C   0  0  0  0  0  0  0  0  0  0  0  0
   10.8604  -15.7366   23.1750 O   0  0  0  0  0  0  0  0  0  0  0  0
   11.9911  -17.2275   24.4565 O   0  0  0  0  0  0  0  0  0  0  0  0
  2  1  1  1
  3  2  1  0
  4  3  1  0
  5  4  1  0
  5  6  2  0
  7  2  1  0
  7  8  2  0
  9  5  1  0
 10 11  1  0
 11 13  1  0
 12 11  2  0
 14 13  1  6
 14 15  1  0
 15  7  1  0
 16 14  1  0
 17 16  2  0
 19 21  1  0
 19 18  1  0
 20 19  2  0
 22 23  1  0
 22 21  1  1
 23 16  1  0
 24 22  1  0
 25 24  2  0
 26 24  1  0
M  END
$$$$
