ENN.pdb
     RDKit          3D

 26 25  0  0  1  0  0  0  0  0999 V2000
    7.7595  -16.7647   16.4400 N   0  0  0  0  0  0  0  0  0  0  0  0
    8.8823  -15.8836   16.0786 C   0  0  1  0  0  0  0  0  0  0  0  0
    8.6201  -15.2377   14.7587 C   0  0  0  0  0  0  0  0  0  0  0  0
    8.6220  -16.2457   13.6503 C   0  0  0  0  0  0  0  0  0  0  0  0
   10.0022  -16.6198   13.2420 C   0  0  0  0  0  0  0  0  0  0  0  0
   10.6893  -16.0085   12.3974 O   0  0  0  0  0  0  0  0  0  0  0  0
    9.0690  -14.9415   17.2079 C   0  0  0  0  0  0  0  0  0  0  0  0
    9.9431  -14.0086   17.1741 O   0  0  0  0  0  0  0  0  0  0  0  0
   10.6251  -17.7384   13.8213 O   0  0  0  0  0  0  0  0  0  0  0  0
    8.5362  -12.4618   21.6657 N   0  0  0  0  0  0  0  0  0  0  0  0
    7.2881  -13.0045   21.2725 C   0  0  0  0  0  0  0  0  0  0  0  0
    6.3056  -12.6976   22.0067 O   0  0  0  0  0  0  0  0  0  0  0  0
    7.1307  -13.8757   20.0822 C   0  0  0  0  0  0  0  0  0  0  0  0
    8.4773  -14.1711   19.4679 C   0  0  2  0  0  0  0  0  0  0  0  0
    8.2633  -15.0688   18.3598 N   0  0  0  0  0  0  0  0  0  0  0  0
    9.3677  -14.8832   20.4378 C   0  0  0  0  0  0  0  0  0  0  0  0
    8.8769  -15.4374   21.4660 O   0  0  0  0  0  0  0  0  0  0  0  0
   11.9151  -18.3777   22.9420 N   0  0  0  0  0  0  0  0  0  0  0  0
   12.5376  -17.9369   21.7479 C   0  0  0  0  0  0  0  0  0  0  0  0
   13.7704  -18.1775   21.5558 O   0  0  0  0  0  0  0  0  0  0  0  0
   11.7258  -17.2038   20.7524 C   0  0  0  0  0  0  0  0  0  0  0  0
   11.5787  -15.7705   21.1930 C   0  0  2  0  0  0  0  0  0  0  0  0
   10.7705  -14.9929   20.2958 N   0  0  0  0  0  0  0  0  0  0  0  0
   12.9771  -15.2092   21.2361 C   0  0  0  0  0  0  0  0  0  0  0  0
   13.3704  -14.3472   20.4244 O   0  0  0  0  0  0  0  0  0  0  0  0
   13.8448  -15.6677   22.2062 O   0  0  0  0  0  0  0  0  0  0  0  0
  2  1  1  1
  3  2  1  0
  4  3  1  0
  5  4  1  0
  5  6  2  0
  7  2  1  0
  7  8  2  0
  9  5  1  0
 10 11  1  0
 11 13  1  0
 12 11  2  0
 14 13  1  1
 14 15  1  0
 15  7  1  0
 16 14  1  0
 17 16  2  0
 19 21  1  0
 19 18  1  0
 20 19  2  0
 22 23  1  0
 22 21  1  6
 23 16  1  0
 24 22  1  0
 25 24  2  0
 26 24  1  0
M  END
$$$$
