ENN.pdb
     RDKit          3D

 26 25  0  0  1  0  0  0  0  0999 V2000
   14.4913  -16.6582   17.8909 N   0  0  0  0  0  0  0  0  0  0  0  0
   14.6290  -15.2064   17.6887 C   0  0  1  0  0  0  0  0  0  0  0  0
   14.7645  -14.9044   16.2332 C   0  0  0  0  0  0  0  0  0  0  0  0
   13.7588  -15.6650   15.4242 C   0  0  0  0  0  0  0  0  0  0  0  0
   13.9057  -15.4042   13.9674 C   0  0  0  0  0  0  0  0  0  0  0  0
   14.9921  -15.2247   13.3785 O   0  0  0  0  0  0  0  0  0  0  0  0
   13.4670  -14.5686   18.3525 C   0  0  0  0  0  0  0  0  0  0  0  0
   13.3819  -13.3009   18.4976 O   0  0  0  0  0  0  0  0  0  0  0  0
   12.7657  -15.3452   13.1478 O   0  0  0  0  0  0  0  0  0  0  0  0
    9.2317  -13.5895   17.4003 N   0  0  0  0  0  0  0  0  0  0  0  0
    9.8727  -14.8039   17.7483 C   0  0  0  0  0  0  0  0  0  0  0  0
   10.2794  -15.5026   16.7762 O   0  0  0  0  0  0  0  0  0  0  0  0
   10.0603  -15.2385   19.1542 C   0  0  0  0  0  0  0  0  0  0  0  0
   11.4006  -14.7755   19.6709 C   0  0  2  0  0  0  0  0  0  0  0  0
   12.4177  -15.3752   18.8429 N   0  0  0  0  0  0  0  0  0  0  0  0
   11.6365  -15.2598   21.0676 C   0  0  0  0  0  0  0  0  0  0  0  0
   10.8171  -14.9710   21.9898 O   0  0  0  0  0  0  0  0  0  0  0  0
   12.8238  -19.5183   21.1073 N   0  0  0  0  0  0  0  0  0  0  0  0
   12.3785  -18.7440   22.2073 C   0  0  0  0  0  0  0  0  0  0  0  0
   11.1552  -18.7823   22.5489 O   0  0  0  0  0  0  0  0  0  0  0  0
   13.3603  -17.9073   22.9309 C   0  0  0  0  0  0  0  0  0  0  0  0
   12.9552  -16.4604   22.8184 C   0  0  2  0  0  0  0  0  0  0  0  0
   12.7449  -16.0457   21.4595 N   0  0  0  0  0  0  0  0  0  0  0  0
   14.0870  -15.6696   23.4236 C   0  0  0  0  0  0  0  0  0  0  0  0
   14.3734  -15.7440   24.6356 O   0  0  0  0  0  0  0  0  0  0  0  0
   14.8254  -14.8389   22.6058 O   0  0  0  0  0  0  0  0  0  0  0  0
  2  1  1  6
  3  2  1  0
  4  3  1  0
  5  4  1  0
  5  6  2  0
  7  2  1  0
  7  8  2  0
  9  5  1  0
 10 11  1  0
 11 13  1  0
 12 11  2  0
 14 13  1  6
 14 15  1  0
 15  7  1  0
 16 14  1  0
 17 16  2  0
 19 21  1  0
 19 18  1  0
 20 19  2  0
 22 23  1  0
 22 21  1  6
 23 16  1  0
 24 22  1  0
 25 24  2  0
 26 24  1  0
M  END
$$$$
