ENN.pdb
     RDKit          3D

 26 25  0  0  1  0  0  0  0  0999 V2000
   11.3760  -15.7870   16.1239 N   0  0  0  0  0  0  0  0  0  0  0  0
   10.1590  -16.5880   15.9120 C   0  0  1  0  0  0  0  0  0  0  0  0
   10.3761  -17.5626   14.8026 C   0  0  0  0  0  0  0  0  0  0  0  0
   10.7889  -16.8675   13.5412 C   0  0  0  0  0  0  0  0  0  0  0  0
   11.0971  -17.8311   12.4512 C   0  0  0  0  0  0  0  0  0  0  0  0
   12.0549  -17.7302   11.6564 O   0  0  0  0  0  0  0  0  0  0  0  0
    9.8134  -17.1970   17.2187 C   0  0  0  0  0  0  0  0  0  0  0  0
    8.6678  -17.7205   17.4400 O   0  0  0  0  0  0  0  0  0  0  0  0
   10.2785  -18.9571   12.2593 O   0  0  0  0  0  0  0  0  0  0  0  0
    8.2033  -20.4485   18.1034 N   0  0  0  0  0  0  0  0  0  0  0  0
    8.7679  -19.6135   19.0988 C   0  0  0  0  0  0  0  0  0  0  0  0
    7.9471  -19.1179   19.9230 O   0  0  0  0  0  0  0  0  0  0  0  0
   10.2219  -19.3311   19.1798 C   0  0  0  0  0  0  0  0  0  0  0  0
   10.4553  -17.8736   19.4949 C   0  0  2  0  0  0  0  0  0  0  0  0
   10.7699  -17.2050   18.2565 N   0  0  0  0  0  0  0  0  0  0  0  0
   11.6386  -17.6996   20.3951 C   0  0  0  0  0  0  0  0  0  0  0  0
   11.6938  -18.3135   21.5021 O   0  0  0  0  0  0  0  0  0  0  0  0
   11.7690  -13.3514   18.9702 N   0  0  0  0  0  0  0  0  0  0  0  0
   12.8431  -14.0101   19.6183 C   0  0  0  0  0  0  0  0  0  0  0  0
   13.9698  -14.0972   19.0371 O   0  0  0  0  0  0  0  0  0  0  0  0
   12.6181  -14.5812   20.9639 C   0  0  0  0  0  0  0  0  0  0  0  0
   13.2812  -15.9317   21.0453 C   0  0  2  0  0  0  0  0  0  0  0  0
   12.7465  -16.8717   20.1000 N   0  0  0  0  0  0  0  0  0  0  0  0
   13.0366  -16.4247   22.4487 C   0  0  0  0  0  0  0  0  0  0  0  0
   13.9701  -16.7605   23.2052 O   0  0  0  0  0  0  0  0  0  0  0  0
   11.7367  -16.5049   22.9049 O   0  0  0  0  0  0  0  0  0  0  0  0
  2  1  1  1
  3  2  1  0
  4  3  1  0
  5  4  1  0
  5  6  2  0
  7  2  1  0
  7  8  2  0
  9  5  1  0
 10 11  1  0
 11 13  1  0
 12 11  2  0
 14 13  1  6
 14 15  1  0
 15  7  1  0
 16 14  1  0
 17 16  2  0
 19 21  1  0
 19 18  1  0
 20 19  2  0
 22 23  1  0
 22 21  1  1
 23 16  1  0
 24 22  1  0
 25 24  2  0
 26 24  1  0
M  END
$$$$
