ENN.pdb
     RDKit          3D

 26 25  0  0  1  0  0  0  0  0999 V2000
   10.0309  -15.4109   19.5914 N   0  0  0  0  0  0  0  0  0  0  0  0
    9.7909  -16.4682   20.5875 C   0  0  1  0  0  0  0  0  0  0  0  0
   10.7698  -17.5791   20.3989 C   0  0  0  0  0  0  0  0  0  0  0  0
   11.1547  -17.7257   18.9584 C   0  0  0  0  0  0  0  0  0  0  0  0
   12.1246  -18.8343   18.7526 C   0  0  0  0  0  0  0  0  0  0  0  0
   11.8719  -19.9062   18.1641 O   0  0  0  0  0  0  0  0  0  0  0  0
    9.8325  -15.8196   21.9199 C   0  0  0  0  0  0  0  0  0  0  0  0
   10.8830  -15.2347   22.3557 O   0  0  0  0  0  0  0  0  0  0  0  0
   13.4377  -18.7155   19.2387 O   0  0  0  0  0  0  0  0  0  0  0  0
    6.2891  -13.0755   26.0278 N   0  0  0  0  0  0  0  0  0  0  0  0
    7.4208  -13.7706   25.5351 C   0  0  0  0  0  0  0  0  0  0  0  0
    8.4408  -13.7483   26.2819 O   0  0  0  0  0  0  0  0  0  0  0  0
    7.4227  -14.4804   24.2325 C   0  0  0  0  0  0  0  0  0  0  0  0
    8.7326  -15.2030   24.0320 C   0  0  2  0  0  0  0  0  0  0  0  0
    8.6842  -15.8424   22.7403 N   0  0  0  0  0  0  0  0  0  0  0  0
    8.9103  -16.2884   25.0474 C   0  0  0  0  0  0  0  0  0  0  0  0
    8.0162  -17.1733   25.1984 O   0  0  0  0  0  0  0  0  0  0  0  0
   11.3828  -19.7356   24.7960 N   0  0  0  0  0  0  0  0  0  0  0  0
   11.8286  -18.4898   25.3028 C   0  0  0  0  0  0  0  0  0  0  0  0
   12.4534  -17.6880   24.5401 O   0  0  0  0  0  0  0  0  0  0  0  0
   11.5505  -18.1574   26.7169 C   0  0  0  0  0  0  0  0  0  0  0  0
   10.1985  -17.4995   26.8137 C   0  0  2  0  0  0  0  0  0  0  0  0
   10.0410  -16.4131   25.8876 N   0  0  0  0  0  0  0  0  0  0  0  0
   10.0934  -16.9846   28.2266 C   0  0  0  0  0  0  0  0  0  0  0  0
    9.9028  -15.7778   28.4795 O   0  0  0  0  0  0  0  0  0  0  0  0
   10.2128  -17.8813   29.2685 O   0  0  0  0  0  0  0  0  0  0  0  0
  2  1  1  6
  3  2  1  0
  4  3  1  0
  5  4  1  0
  5  6  2  0
  7  2  1  0
  7  8  2  0
  9  5  1  0
 10 11  1  0
 11 13  1  0
 12 11  2  0
 14 13  1  1
 14 15  1  0
 15  7  1  0
 16 14  1  0
 17 16  2  0
 19 21  1  0
 19 18  1  0
 20 19  2  0
 22 23  1  0
 22 21  1  1
 23 16  1  0
 24 22  1  0
 25 24  2  0
 26 24  1  0
M  END
$$$$
