ENN.pdb
     RDKit          3D

 26 25  0  0  1  0  0  0  0  0999 V2000
    8.4060  -18.4250   16.1256 N   0  0  0  0  0  0  0  0  0  0  0  0
    8.7120  -17.0282   16.4763 C   0  0  1  0  0  0  0  0  0  0  0  0
    7.9872  -16.1010   15.5583 C   0  0  0  0  0  0  0  0  0  0  0  0
    7.2737  -16.8538   14.4772 C   0  0  0  0  0  0  0  0  0  0  0  0
    7.5076  -16.2552   13.1360 C   0  0  0  0  0  0  0  0  0  0  0  0
    8.6215  -15.9065   12.6923 O   0  0  0  0  0  0  0  0  0  0  0  0
    8.3855  -16.8652   17.9131 C   0  0  0  0  0  0  0  0  0  0  0  0
    8.4811  -15.7358   18.5053 O   0  0  0  0  0  0  0  0  0  0  0  0
    6.4257  -16.0452   12.2642 O   0  0  0  0  0  0  0  0  0  0  0  0
    5.1766  -19.8532   18.7380 N   0  0  0  0  0  0  0  0  0  0  0  0
    5.5079  -18.9373   19.7667 C   0  0  0  0  0  0  0  0  0  0  0  0
    4.6232  -18.0739   20.0323 O   0  0  0  0  0  0  0  0  0  0  0  0
    6.8018  -18.9770   20.4910 C   0  0  0  0  0  0  0  0  0  0  0  0
    7.6759  -17.8227   20.0650 C   0  0  2  0  0  0  0  0  0  0  0  0
    7.9551  -17.9833   18.6593 N   0  0  0  0  0  0  0  0  0  0  0  0
    8.9931  -17.8532   20.7755 C   0  0  0  0  0  0  0  0  0  0  0  0
    9.5730  -16.7717   21.0908 O   0  0  0  0  0  0  0  0  0  0  0  0
   10.0186  -20.8165   25.2507 N   0  0  0  0  0  0  0  0  0  0  0  0
    9.8337  -19.4737   24.8380 C   0  0  0  0  0  0  0  0  0  0  0  0
   10.2256  -18.5258   25.5880 O   0  0  0  0  0  0  0  0  0  0  0  0
    9.1842  -19.2140   23.5348 C   0  0  0  0  0  0  0  0  0  0  0  0
   10.2278  -19.2401   22.4483 C   0  0  2  0  0  0  0  0  0  0  0  0
    9.6727  -19.0389   21.1390 N   0  0  0  0  0  0  0  0  0  0  0  0
   10.8677  -20.6027   22.5270 C   0  0  0  0  0  0  0  0  0  0  0  0
   10.2557  -21.6417   22.2068 O   0  0  0  0  0  0  0  0  0  0  0  0
   12.1717  -20.6970   22.9683 O   0  0  0  0  0  0  0  0  0  0  0  0
  2  1  1  6
  3  2  1  0
  4  3  1  0
  5  4  1  0
  5  6  2  0
  7  2  1  0
  7  8  2  0
  9  5  1  0
 10 11  1  0
 11 13  1  0
 12 11  2  0
 14 13  1  1
 14 15  1  0
 15  7  1  0
 16 14  1  0
 17 16  2  0
 19 21  1  0
 19 18  1  0
 20 19  2  0
 22 23  1  0
 22 21  1  1
 23 16  1  0
 24 22  1  0
 25 24  2  0
 26 24  1  0
M  END
$$$$
