ENN.pdb
     RDKit          3D

 26 25  0  0  1  0  0  0  0  0999 V2000
    8.6097  -15.0470   16.0462 N   0  0  0  0  0  0  0  0  0  0  0  0
    9.0129  -16.0949   16.9986 C   0  0  1  0  0  0  0  0  0  0  0  0
   10.0537  -16.9704   16.3837 C   0  0  0  0  0  0  0  0  0  0  0  0
    9.5422  -17.6326   15.1409 C   0  0  0  0  0  0  0  0  0  0  0  0
   10.5181  -18.6108   14.5908 C   0  0  0  0  0  0  0  0  0  0  0  0
   11.6042  -18.9163   15.1258 O   0  0  0  0  0  0  0  0  0  0  0  0
    9.4326  -15.4058   18.2423 C   0  0  0  0  0  0  0  0  0  0  0  0
   10.5755  -14.8425   18.3515 O   0  0  0  0  0  0  0  0  0  0  0  0
   10.2438  -19.2682   13.3794 O   0  0  0  0  0  0  0  0  0  0  0  0
    6.0225  -12.9140   20.0387 N   0  0  0  0  0  0  0  0  0  0  0  0
    7.2874  -13.0051   20.6700 C   0  0  0  0  0  0  0  0  0  0  0  0
    7.9785  -11.9463   20.6591 O   0  0  0  0  0  0  0  0  0  0  0  0
    7.7802  -14.2521   21.3044 C   0  0  0  0  0  0  0  0  0  0  0  0
    8.9999  -14.7630   20.5769 C   0  0  2  0  0  0  0  0  0  0  0  0
    8.5525  -15.3642   19.3448 N   0  0  0  0  0  0  0  0  0  0  0  0
    9.6844  -15.8385   21.3614 C   0  0  0  0  0  0  0  0  0  0  0  0
    9.2739  -17.0354   21.2959 O   0  0  0  0  0  0  0  0  0  0  0  0
   12.7116  -18.6544   24.1916 N   0  0  0  0  0  0  0  0  0  0  0  0
   13.5644  -17.6693   23.6347 C   0  0  0  0  0  0  0  0  0  0  0  0
   14.8247  -17.8097   23.7167 O   0  0  0  0  0  0  0  0  0  0  0  0
   12.9560  -16.4972   22.9688 C   0  0  0  0  0  0  0  0  0  0  0  0
   11.4631  -16.6885   22.8976 C   0  0  2  0  0  0  0  0  0  0  0  0
   10.7979  -15.6202   22.2054 N   0  0  0  0  0  0  0  0  0  0  0  0
   10.9882  -16.7436   24.3272 C   0  0  0  0  0  0  0  0  0  0  0  0
   11.4126  -17.5954   25.1340 O   0  0  0  0  0  0  0  0  0  0  0  0
   10.0543  -15.8202   24.7505 O   0  0  0  0  0  0  0  0  0  0  0  0
  2  1  1  6
  3  2  1  0
  4  3  1  0
  5  4  1  0
  5  6  2  0
  7  2  1  0
  7  8  2  0
  9  5  1  0
 10 11  1  0
 11 13  1  0
 12 11  2  0
 14 13  1  1
 14 15  1  0
 15  7  1  0
 16 14  1  0
 17 16  2  0
 19 21  1  0
 19 18  1  0
 20 19  2  0
 22 23  1  0
 22 21  1  1
 23 16  1  0
 24 22  1  0
 25 24  2  0
 26 24  1  0
M  END
$$$$
