ENN.pdb
     RDKit          3D

 26 25  0  0  1  0  0  0  0  0999 V2000
   10.9435  -14.9267   18.0161 N   0  0  0  0  0  0  0  0  0  0  0  0
   11.8979  -15.7177   18.8106 C   0  0  1  0  0  0  0  0  0  0  0  0
   13.2579  -15.6398   18.2003 C   0  0  0  0  0  0  0  0  0  0  0  0
   13.7538  -14.2267   18.1561 C   0  0  0  0  0  0  0  0  0  0  0  0
   15.1151  -14.1340   17.5644 C   0  0  0  0  0  0  0  0  0  0  0  0
   16.1367  -13.7563   18.1751 O   0  0  0  0  0  0  0  0  0  0  0  0
   11.8105  -15.2214   20.2048 C   0  0  0  0  0  0  0  0  0  0  0  0
   12.4899  -15.7445   21.1536 O   0  0  0  0  0  0  0  0  0  0  0  0
   15.3200  -14.4868   16.2197 O   0  0  0  0  0  0  0  0  0  0  0  0
    8.1993  -12.6154   18.7018 N   0  0  0  0  0  0  0  0  0  0  0  0
    7.8460  -13.8720   19.2522 C   0  0  0  0  0  0  0  0  0  0  0  0
    6.6054  -14.0838   19.3729 O   0  0  0  0  0  0  0  0  0  0  0  0
    8.8534  -14.8800   19.6638 C   0  0  0  0  0  0  0  0  0  0  0  0
    9.5926  -14.4099   20.8928 C   0  0  2  0  0  0  0  0  0  0  0  0
   10.9551  -14.1397   20.5052 N   0  0  0  0  0  0  0  0  0  0  0  0
    9.6425  -15.4830   21.9353 C   0  0  0  0  0  0  0  0  0  0  0  0
    8.6269  -15.7219   22.6540 O   0  0  0  0  0  0  0  0  0  0  0  0
   10.1857  -19.6232   21.6605 N   0  0  0  0  0  0  0  0  0  0  0  0
   11.2190  -19.6237   22.6300 C   0  0  0  0  0  0  0  0  0  0  0  0
   11.5752  -20.7181   23.1686 O   0  0  0  0  0  0  0  0  0  0  0  0
   11.8574  -18.3386   22.9885 C   0  0  0  0  0  0  0  0  0  0  0  0
   10.7883  -17.3006   23.2118 C   0  0  2  0  0  0  0  0  0  0  0  0
   10.7773  -16.2858   22.1955 N   0  0  0  0  0  0  0  0  0  0  0  0
   11.0942  -16.6785   24.5504 C   0  0  0  0  0  0  0  0  0  0  0  0
   11.8083  -15.6615   24.6608 O   0  0  0  0  0  0  0  0  0  0  0  0
   10.5648  -17.2572   25.6857 O   0  0  0  0  0  0  0  0  0  0  0  0
  2  1  1  6
  3  2  1  0
  4  3  1  0
  5  4  1  0
  5  6  2  0
  7  2  1  0
  7  8  2  0
  9  5  1  0
 10 11  1  0
 11 13  1  0
 12 11  2  0
 14 13  1  6
 14 15  1  0
 15  7  1  0
 16 14  1  0
 17 16  2  0
 19 21  1  0
 19 18  1  0
 20 19  2  0
 22 23  1  0
 22 21  1  6
 23 16  1  0
 24 22  1  0
 25 24  2  0
 26 24  1  0
M  END
$$$$
