ENN.pdb
     RDKit          3D

 26 25  0  0  1  0  0  0  0  0999 V2000
    8.3834  -18.6328   17.3043 N   0  0  0  0  0  0  0  0  0  0  0  0
    8.9450  -19.5844   18.2775 C   0  0  1  0  0  0  0  0  0  0  0  0
   10.4322  -19.4619   18.3113 C   0  0  0  0  0  0  0  0  0  0  0  0
   10.9887  -19.2152   16.9423 C   0  0  0  0  0  0  0  0  0  0  0  0
   12.4754  -19.2502   16.9323 C   0  0  0  0  0  0  0  0  0  0  0  0
   13.1936  -19.4406   17.9360 O   0  0  0  0  0  0  0  0  0  0  0  0
    8.2682  -19.3249   19.5707 C   0  0  0  0  0  0  0  0  0  0  0  0
    7.8407  -18.1627   19.8900 O   0  0  0  0  0  0  0  0  0  0  0  0
   13.1726  -19.0600   15.7271 O   0  0  0  0  0  0  0  0  0  0  0  0
    4.6380  -20.4221   23.5563 N   0  0  0  0  0  0  0  0  0  0  0  0
    5.8126  -21.1686   23.2920 C   0  0  0  0  0  0  0  0  0  0  0  0
    6.3201  -21.7560   24.2900 O   0  0  0  0  0  0  0  0  0  0  0  0
    6.4169  -21.2627   21.9406 C   0  0  0  0  0  0  0  0  0  0  0  0
    7.3917  -20.1311   21.7231 C   0  0  2  0  0  0  0  0  0  0  0  0
    8.0848  -20.3851   20.4842 N   0  0  0  0  0  0  0  0  0  0  0  0
    8.4289  -20.0982   22.8019 C   0  0  0  0  0  0  0  0  0  0  0  0
    9.5543  -20.6516   22.6220 O   0  0  0  0  0  0  0  0  0  0  0  0
    7.5858  -19.0811   27.8602 N   0  0  0  0  0  0  0  0  0  0  0  0
    7.7218  -18.4211   26.6138 C   0  0  0  0  0  0  0  0  0  0  0  0
    6.6897  -17.9707   26.0249 O   0  0  0  0  0  0  0  0  0  0  0  0
    9.0733  -18.2751   26.0309 C   0  0  0  0  0  0  0  0  0  0  0  0
    9.3021  -19.3779   25.0301 C   0  0  2  0  0  0  0  0  0  0  0  0
    8.2489  -19.4746   24.0584 N   0  0  0  0  0  0  0  0  0  0  0  0
    9.3737  -20.6518   25.8330 C   0  0  0  0  0  0  0  0  0  0  0  0
    8.4978  -21.5365   25.7515 O   0  0  0  0  0  0  0  0  0  0  0  0
   10.4442  -20.8390   26.6833 O   0  0  0  0  0  0  0  0  0  0  0  0
  2  1  1  6
  3  2  1  0
  4  3  1  0
  5  4  1  0
  5  6  2  0
  7  2  1  0
  7  8  2  0
  9  5  1  0
 10 11  1  0
 11 13  1  0
 12 11  2  0
 14 13  1  1
 14 15  1  0
 15  7  1  0
 16 14  1  0
 17 16  2  0
 19 21  1  0
 19 18  1  0
 20 19  2  0
 22 23  1  0
 22 21  1  1
 23 16  1  0
 24 22  1  0
 25 24  2  0
 26 24  1  0
M  END
$$$$
