ENN.pdb
     RDKit          3D

 26 25  0  0  1  0  0  0  0  0999 V2000
   13.6481  -16.8980   18.5900 N   0  0  0  0  0  0  0  0  0  0  0  0
   14.0430  -15.4934   18.3924 C   0  0  1  0  0  0  0  0  0  0  0  0
   14.4515  -15.2728   16.9738 C   0  0  0  0  0  0  0  0  0  0  0  0
   13.3906  -15.7385   16.0238 C   0  0  0  0  0  0  0  0  0  0  0  0
   13.7774  -15.5136   14.6055 C   0  0  0  0  0  0  0  0  0  0  0  0
   14.5790  -14.6409   14.2120 O   0  0  0  0  0  0  0  0  0  0  0  0
   12.9064  -14.6596   18.8512 C   0  0  0  0  0  0  0  0  0  0  0  0
   12.9955  -13.3875   18.9478 O   0  0  0  0  0  0  0  0  0  0  0  0
   13.2266  -16.3179   13.5933 O   0  0  0  0  0  0  0  0  0  0  0  0
    9.3497  -13.1921   17.7546 N   0  0  0  0  0  0  0  0  0  0  0  0
    8.7980  -14.3962   18.2572 C   0  0  0  0  0  0  0  0  0  0  0  0
    7.8163  -14.8577   17.6077 O   0  0  0  0  0  0  0  0  0  0  0  0
    9.3265  -15.0796   19.4631 C   0  0  0  0  0  0  0  0  0  0  0  0
   10.6644  -14.4981   19.8503 C   0  0  2  0  0  0  0  0  0  0  0  0
   11.6847  -15.2777   19.1941 N   0  0  0  0  0  0  0  0  0  0  0  0
   10.9012  -14.6245   21.3229 C   0  0  0  0  0  0  0  0  0  0  0  0
   10.0531  -14.1696   22.1469 O   0  0  0  0  0  0  0  0  0  0  0  0
   11.0382  -19.3621   24.2477 N   0  0  0  0  0  0  0  0  0  0  0  0
   11.0081  -17.9455   24.2348 C   0  0  0  0  0  0  0  0  0  0  0  0
   10.9039  -17.3089   25.3296 O   0  0  0  0  0  0  0  0  0  0  0  0
   11.0998  -17.2449   22.9355 C   0  0  0  0  0  0  0  0  0  0  0  0
   11.9746  -16.0279   23.0905 C   0  0  2  0  0  0  0  0  0  0  0  0
   12.0415  -15.2351   21.8948 N   0  0  0  0  0  0  0  0  0  0  0  0
   13.3465  -16.5502   23.4334 C   0  0  0  0  0  0  0  0  0  0  0  0
   13.5814  -17.1406   24.5072 O   0  0  0  0  0  0  0  0  0  0  0  0
   14.3705  -16.3661   22.5270 O   0  0  0  0  0  0  0  0  0  0  0  0
  2  1  1  6
  3  2  1  0
  4  3  1  0
  5  4  1  0
  5  6  2  0
  7  2  1  0
  7  8  2  0
  9  5  1  0
 10 11  1  0
 11 13  1  0
 12 11  2  0
 14 13  1  1
 14 15  1  0
 15  7  1  0
 16 14  1  0
 17 16  2  0
 19 21  1  0
 19 18  1  0
 20 19  2  0
 22 23  1  0
 22 21  1  6
 23 16  1  0
 24 22  1  0
 25 24  2  0
 26 24  1  0
M  END
$$$$
