STM.pdb
     RDKit          3D

 22 21  0  0  1  0  0  0  0  0999 V2000
   15.1167  -12.9253  -16.0103 O   0  0  0  0  0  0  0  0  0  0  0  0
   14.6282  -11.6944  -15.5854 C   0  0  0  0  0  0  0  0  0  0  0  0
   14.4521  -10.7716  -16.7790 C   0  0  2  0  0  0  0  0  0  0  0  0
   13.8202  -11.5118  -17.8401 N   0  0  0  0  0  0  0  0  0  0  0  0
   15.7311  -10.2029  -17.2266 C   0  0  0  0  0  0  0  0  0  0  0  0
   16.3452  -10.6458  -18.2268 O   0  0  0  0  0  0  0  0  0  0  0  0
   16.2495   -6.8771  -18.3047 C   0  0  0  0  0  0  0  0  0  0  0  0
   17.2216   -6.9992  -17.1310 C   0  0  1  0  0  0  0  0  0  0  0  0
   16.5747   -6.4414  -16.0320 O   0  0  0  0  0  0  0  0  0  0  0  0
   17.5420   -8.4708  -16.8594 C   0  0  2  0  0  0  0  0  0  0  0  0
   16.3135   -9.1223  -16.5291 N   0  0  0  0  0  0  0  0  0  0  0  0
   18.5853   -8.6145  -15.8419 C   0  0  0  0  0  0  0  0  0  0  0  0
   18.2783   -8.7204  -14.6281 O   0  0  0  0  0  0  0  0  0  0  0  0
   24.0279  -12.4604  -15.8556 C   0  0  0  0  0  0  0  0  0  0  0  0
   24.4343  -11.0060  -14.9233 S   0  0  0  0  0  0  0  0  0  0  0  0
   23.0808   -9.9398  -14.4555 C   0  0  0  0  0  0  0  0  0  0  0  0
   22.0222   -9.7262  -15.4747 C   0  0  0  0  0  0  0  0  0  0  0  0
   20.9825   -8.7319  -15.1080 C   0  0  2  0  0  0  0  0  0  0  0  0
   19.9686   -8.6412  -16.1658 N   0  0  0  0  0  0  0  0  0  0  0  0
   21.4832   -7.4065  -14.7322 C   0  0  0  0  0  0  0  0  0  0  0  0
   21.7183   -6.4593  -15.5086 O   0  0  0  0  0  0  0  0  0  0  0  0
   21.7300   -7.1560  -13.3648 O   0  0  0  0  0  0  0  0  0  0  0  0
  2  1  1  0
  3  5  1  0
  3  2  1  0
  3  4  1  6
  5 11  1  0
  6  5  2  0
  8  7  1  6
  9  8  1  0
 10 12  1  0
 10  8  1  0
 10 11  1  1
 12 19  1  0
 12 13  2  0
 15 14  1  0
 15 16  1  0
 16 17  1  0
 18 17  1  6
 18 20  1  0
 19 18  1  0
 20 21  2  0
 20 22  1  0
M  END
$$$$
