STM.pdb
     RDKit          3D

 22 21  0  0  1  0  0  0  0  0999 V2000
   16.2089   -5.6361   -7.6749 O   0  0  0  0  0  0  0  0  0  0  0  0
   16.6417   -6.5905   -8.5893 C   0  0  0  0  0  0  0  0  0  0  0  0
   15.5059   -6.9524   -9.5308 C   0  0  2  0  0  0  0  0  0  0  0  0
   14.5582   -7.7649   -8.8131 N   0  0  0  0  0  0  0  0  0  0  0  0
   15.9889   -7.6482  -10.7316 C   0  0  0  0  0  0  0  0  0  0  0  0
   15.9315   -8.8958  -10.8489 O   0  0  0  0  0  0  0  0  0  0  0  0
   14.8469   -7.1536  -14.1315 C   0  0  0  0  0  0  0  0  0  0  0  0
   16.3346   -6.8047  -14.1804 C   0  0  1  0  0  0  0  0  0  0  0  0
   16.4118   -5.4193  -14.0701 O   0  0  0  0  0  0  0  0  0  0  0  0
   17.0722   -7.4653  -13.0136 C   0  0  2  0  0  0  0  0  0  0  0  0
   16.5408   -6.9166  -11.8056 N   0  0  0  0  0  0  0  0  0  0  0  0
   18.5236   -7.3220  -13.1454 C   0  0  0  0  0  0  0  0  0  0  0  0
   19.1122   -6.3320  -12.6435 O   0  0  0  0  0  0  0  0  0  0  0  0
   25.4620  -10.9416  -14.7867 C   0  0  0  0  0  0  0  0  0  0  0  0
   23.6981  -10.8572  -14.9628 S   0  0  0  0  0  0  0  0  0  0  0  0
   22.9003   -9.3582  -14.4113 C   0  0  0  0  0  0  0  0  0  0  0  0
   21.4161   -9.3731  -14.3711 C   0  0  0  0  0  0  0  0  0  0  0  0
   20.7837   -8.1182  -13.8921 C   0  0  2  0  0  0  0  0  0  0  0  0
   19.3250   -8.2734  -13.8324 N   0  0  0  0  0  0  0  0  0  0  0  0
   21.1628   -6.9040  -14.6203 C   0  0  0  0  0  0  0  0  0  0  0  0
   22.0710   -6.1089  -14.3069 O   0  0  0  0  0  0  0  0  0  0  0  0
   20.4437   -6.5841  -15.7926 O   0  0  0  0  0  0  0  0  0  0  0  0
  2  1  1  0
  3  5  1  0
  3  2  1  0
  3  4  1  1
  5 11  1  0
  6  5  2  0
  8  7  1  1
  9  8  1  0
 10 12  1  0
 10  8  1  0
 10 11  1  1
 12 19  1  0
 12 13  2  0
 15 14  1  0
 15 16  1  0
 16 17  1  0
 18 17  1  6
 18 20  1  0
 19 18  1  0
 20 21  2  0
 20 22  1  0
M  END
$$$$
