STM.pdb
     RDKit          3D

 22 21  0  0  1  0  0  0  0  0999 V2000
   19.1259  -12.5958  -20.3824 O   0  0  0  0  0  0  0  0  0  0  0  0
   19.0177  -11.4388  -19.6182 C   0  0  0  0  0  0  0  0  0  0  0  0
   17.6706  -10.7826  -19.8671 C   0  0  2  0  0  0  0  0  0  0  0  0
   17.6400  -10.3015  -21.2239 N   0  0  0  0  0  0  0  0  0  0  0  0
   17.4078   -9.6916  -18.9184 C   0  0  0  0  0  0  0  0  0  0  0  0
   17.8742   -8.5385  -19.0810 O   0  0  0  0  0  0  0  0  0  0  0  0
   14.0528   -8.8214  -17.7672 C   0  0  0  0  0  0  0  0  0  0  0  0
   14.8318   -9.0114  -16.4655 C   0  0  1  0  0  0  0  0  0  0  0  0
   14.4680  -10.2622  -15.9749 O   0  0  0  0  0  0  0  0  0  0  0  0
   16.3371   -8.9730  -16.7385 C   0  0  2  0  0  0  0  0  0  0  0  0
   16.6079   -9.9169  -17.7769 N   0  0  0  0  0  0  0  0  0  0  0  0
   17.1109   -9.1943  -15.5151 C   0  0  0  0  0  0  0  0  0  0  0  0
   17.6923  -10.2911  -15.3211 O   0  0  0  0  0  0  0  0  0  0  0  0
   23.3386   -9.6167  -11.9213 C   0  0  0  0  0  0  0  0  0  0  0  0
   22.1719   -9.2497  -13.2073 S   0  0  0  0  0  0  0  0  0  0  0  0
   20.4824   -8.9592  -12.7087 C   0  0  0  0  0  0  0  0  0  0  0  0
   19.5035   -8.7095  -13.7969 C   0  0  0  0  0  0  0  0  0  0  0  0
   18.1170   -8.4263  -13.3478 C   0  0  2  0  0  0  0  0  0  0  0  0
   17.2421   -8.2031  -14.5055 N   0  0  0  0  0  0  0  0  0  0  0  0
   17.9818   -7.3516  -12.3604 C   0  0  0  0  0  0  0  0  0  0  0  0
   17.6742   -6.1664  -12.5972 O   0  0  0  0  0  0  0  0  0  0  0  0
   18.2182   -7.6658  -11.0043 O   0  0  0  0  0  0  0  0  0  0  0  0
  2  1  1  0
  3  5  1  0
  3  2  1  0
  3  4  1  6
  5 11  1  0
  6  5  2  0
  8  7  1  6
  9  8  1  0
 10 12  1  0
 10  8  1  0
 10 11  1  6
 12 19  1  0
 12 13  2  0
 15 14  1  0
 15 16  1  0
 16 17  1  0
 18 17  1  6
 18 20  1  0
 19 18  1  0
 20 21  2  0
 20 22  1  0
M  END
$$$$
