STM.pdb
     RDKit          3D

 22 21  0  0  1  0  0  0  0  0999 V2000
   16.3743  -13.7879  -16.2462 O   0  0  0  0  0  0  0  0  0  0  0  0
   16.4773  -12.7967  -15.2761 C   0  0  0  0  0  0  0  0  0  0  0  0
   17.9343  -12.4101  -15.0890 C   0  0  2  0  0  0  0  0  0  0  0  0
   18.6838  -13.5956  -14.7632 N   0  0  0  0  0  0  0  0  0  0  0  0
   18.1009  -11.3833  -14.0511 C   0  0  0  0  0  0  0  0  0  0  0  0
   18.3665  -11.6745  -12.8602 O   0  0  0  0  0  0  0  0  0  0  0  0
   19.1106   -6.5998  -13.3565 C   0  0  0  0  0  0  0  0  0  0  0  0
   18.8726   -7.8121  -14.2571 C   0  0  1  0  0  0  0  0  0  0  0  0
   20.1315   -8.2522  -14.6557 O   0  0  0  0  0  0  0  0  0  0  0  0
   18.1532   -8.9165  -13.4794 C   0  0  2  0  0  0  0  0  0  0  0  0
   17.9637  -10.0155  -14.3733 N   0  0  0  0  0  0  0  0  0  0  0  0
   16.9164   -8.4251  -12.8684 C   0  0  0  0  0  0  0  0  0  0  0  0
   15.9188   -8.1551  -13.5829 O   0  0  0  0  0  0  0  0  0  0  0  0
   11.3315   -9.1491   -7.5600 C   0  0  0  0  0  0  0  0  0  0  0  0
   12.9487   -9.5187   -8.1907 S   0  0  0  0  0  0  0  0  0  0  0  0
   13.6441   -8.3644   -9.3618 C   0  0  0  0  0  0  0  0  0  0  0  0
   14.9507   -8.7349   -9.9620 C   0  0  0  0  0  0  0  0  0  0  0  0
   15.5231   -7.7350  -10.8983 C   0  0  2  0  0  0  0  0  0  0  0  0
   16.7821   -8.2317  -11.4671 N   0  0  0  0  0  0  0  0  0  0  0  0
   15.6782   -6.3817  -10.3570 C   0  0  0  0  0  0  0  0  0  0  0  0
   16.7529   -5.8284  -10.0503 O   0  0  0  0  0  0  0  0  0  0  0  0
   14.5116   -5.6124  -10.1551 O   0  0  0  0  0  0  0  0  0  0  0  0
  2  1  1  0
  3  5  1  0
  3  2  1  0
  3  4  1  1
  5 11  1  0
  6  5  2  0
  8  7  1  1
  9  8  1  0
 10 12  1  0
 10  8  1  0
 10 11  1  6
 12 19  1  0
 12 13  2  0
 15 14  1  0
 15 16  1  0
 16 17  1  0
 18 17  1  1
 18 20  1  0
 19 18  1  0
 20 21  2  0
 20 22  1  0
M  END
$$$$
