STM.pdb
     RDKit          3D

 22 21  0  0  1  0  0  0  0  0999 V2000
   44.6559  -11.0467   -8.7767 O   0  0  0  0  0  0  0  0  0  0  0  0
   43.4208  -10.4306   -8.6058 C   0  0  0  0  0  0  0  0  0  0  0  0
   42.3109  -11.4594   -8.7364 C   0  0  2  0  0  0  0  0  0  0  0  0
   42.6743  -12.3957   -9.7682 N   0  0  0  0  0  0  0  0  0  0  0  0
   41.0141  -10.8336   -9.0300 C   0  0  0  0  0  0  0  0  0  0  0  0
   40.4372  -10.9790  -10.1343 O   0  0  0  0  0  0  0  0  0  0  0  0
   37.8513  -10.9238   -6.8894 C   0  0  0  0  0  0  0  0  0  0  0  0
   38.3089   -9.4692   -6.9994 C   0  0  1  0  0  0  0  0  0  0  0  0
   39.0588   -9.2110   -5.8556 O   0  0  0  0  0  0  0  0  0  0  0  0
   39.1741   -9.2791   -8.2474 C   0  0  2  0  0  0  0  0  0  0  0  0
   40.3711  -10.0368   -8.0578 N   0  0  0  0  0  0  0  0  0  0  0  0
   39.4049   -7.8609   -8.5301 C   0  0  0  0  0  0  0  0  0  0  0  0
   40.4764   -7.3088   -8.1756 O   0  0  0  0  0  0  0  0  0  0  0  0
   37.1237   -1.2224  -12.3820 C   0  0  0  0  0  0  0  0  0  0  0  0
   36.9390   -2.9521  -12.0302 S   0  0  0  0  0  0  0  0  0  0  0  0
   37.9615   -3.6279  -10.7321 C   0  0  0  0  0  0  0  0  0  0  0  0
   37.8408   -5.0869  -10.4846 C   0  0  0  0  0  0  0  0  0  0  0  0
   38.6808   -5.6127   -9.3792 C   0  0  2  0  0  0  0  0  0  0  0  0
   38.4510   -7.0523   -9.2049 N   0  0  0  0  0  0  0  0  0  0  0  0
   38.5677   -4.8953   -8.1060 C   0  0  0  0  0  0  0  0  0  0  0  0
   37.7585   -5.1417   -7.1897 O   0  0  0  0  0  0  0  0  0  0  0  0
   39.4499   -3.8177   -7.8734 O   0  0  0  0  0  0  0  0  0  0  0  0
  2  1  1  0
  3  5  1  0
  3  2  1  0
  3  4  1  6
  5 11  1  0
  6  5  2  0
  8  7  1  1
  9  8  1  0
 10 12  1  0
 10  8  1  0
 10 11  1  1
 12 19  1  0
 12 13  2  0
 15 14  1  0
 15 16  1  0
 16 17  1  0
 18 17  1  6
 18 20  1  0
 19 18  1  0
 20 21  2  0
 20 22  1  0
M  END
$$$$
