STM.pdb
     RDKit          3D

 22 21  0  0  1  0  0  0  0  0999 V2000
   16.9398  -10.4446  -18.5596 O   0  0  0  0  0  0  0  0  0  0  0  0
   17.4418  -10.1435  -17.2979 C   0  0  0  0  0  0  0  0  0  0  0  0
   18.6754  -10.9856  -17.0213 C   0  0  2  0  0  0  0  0  0  0  0  0
   18.2732  -12.3638  -16.9114 N   0  0  0  0  0  0  0  0  0  0  0  0
   19.3788  -10.5468  -15.8080 C   0  0  0  0  0  0  0  0  0  0  0  0
   19.0802  -10.9804  -14.6694 O   0  0  0  0  0  0  0  0  0  0  0  0
   23.0902  -10.5834  -15.4319 C   0  0  0  0  0  0  0  0  0  0  0  0
   22.6600   -9.1367  -15.1882 C   0  0  1  0  0  0  0  0  0  0  0  0
   22.8602   -8.4647  -16.3906 O   0  0  0  0  0  0  0  0  0  0  0  0
   21.1813   -9.0825  -14.7974 C   0  0  2  0  0  0  0  0  0  0  0  0
   20.4294   -9.6075  -15.8936 N   0  0  0  0  0  0  0  0  0  0  0  0
   20.7818   -7.7331  -14.3924 C   0  0  0  0  0  0  0  0  0  0  0  0
   20.3004   -6.9339  -15.2339 O   0  0  0  0  0  0  0  0  0  0  0  0
   17.7681   -3.0580   -8.7889 C   0  0  0  0  0  0  0  0  0  0  0  0
   18.3235   -4.6305   -9.3960 S   0  0  0  0  0  0  0  0  0  0  0  0
   19.2369   -4.6292  -10.9301 C   0  0  0  0  0  0  0  0  0  0  0  0
   19.6703   -5.9528  -11.4448 C   0  0  0  0  0  0  0  0  0  0  0  0
   20.4772   -5.9139  -12.6904 C   0  0  2  0  0  0  0  0  0  0  0  0
   20.9144   -7.2667  -13.0568 N   0  0  0  0  0  0  0  0  0  0  0  0
   21.6005   -4.9723  -12.6840 C   0  0  0  0  0  0  0  0  0  0  0  0
   22.7815   -5.2348  -12.3818 O   0  0  0  0  0  0  0  0  0  0  0  0
   21.3434   -3.6336  -13.0521 O   0  0  0  0  0  0  0  0  0  0  0  0
  2  1  1  0
  3  5  1  0
  3  2  1  0
  3  4  1  1
  5 11  1  0
  6  5  2  0
  8  7  1  6
  9  8  1  0
 10 12  1  0
 10  8  1  0
 10 11  1  6
 12 19  1  0
 12 13  2  0
 15 14  1  0
 15 16  1  0
 16 17  1  0
 18 17  1  1
 18 20  1  0
 19 18  1  0
 20 21  2  0
 20 22  1  0
M  END
$$$$
