STM.pdb
     RDKit          3D

 22 21  0  0  1  0  0  0  0  0999 V2000
   24.3910  -12.4891  -20.3575 O   0  0  0  0  0  0  0  0  0  0  0  0
   24.1356  -11.5600  -19.3546 C   0  0  0  0  0  0  0  0  0  0  0  0
   25.0492  -10.3581  -19.5227 C   0  0  2  0  0  0  0  0  0  0  0  0
   26.4077  -10.7821  -19.3039 N   0  0  0  0  0  0  0  0  0  0  0  0
   24.6889   -9.2631  -18.6115 C   0  0  0  0  0  0  0  0  0  0  0  0
   25.1325   -9.1959  -17.4400 O   0  0  0  0  0  0  0  0  0  0  0  0
   22.5184   -4.7768  -18.4473 C   0  0  0  0  0  0  0  0  0  0  0  0
   22.9909   -6.0068  -19.2227 C   0  0  1  0  0  0  0  0  0  0  0  0
   24.1076   -5.6024  -19.9484 O   0  0  0  0  0  0  0  0  0  0  0  0
   23.3729   -7.1287  -18.2546 C   0  0  2  0  0  0  0  0  0  0  0  0
   23.8172   -8.2379  -19.0388 N   0  0  0  0  0  0  0  0  0  0  0  0
   22.2739   -7.4471  -17.3406 C   0  0  0  0  0  0  0  0  0  0  0  0
   21.1922   -7.9072  -17.7841 O   0  0  0  0  0  0  0  0  0  0  0  0
   20.6432  -12.5426  -15.2921 C   0  0  0  0  0  0  0  0  0  0  0  0
   20.4186  -10.8825  -14.7062 S   0  0  0  0  0  0  0  0  0  0  0  0
   21.8945   -9.9283  -14.3918 C   0  0  0  0  0  0  0  0  0  0  0  0
   21.6956   -8.5162  -13.9785 C   0  0  0  0  0  0  0  0  0  0  0  0
   21.2461   -7.5990  -15.0559 C   0  0  2  0  0  0  0  0  0  0  0  0
   22.3704   -7.2567  -15.9358 N   0  0  0  0  0  0  0  0  0  0  0  0
   20.5350   -6.3990  -14.6057 C   0  0  0  0  0  0  0  0  0  0  0  0
   19.3794   -6.3579  -14.1385 O   0  0  0  0  0  0  0  0  0  0  0  0
   21.2037   -5.1591  -14.7010 O   0  0  0  0  0  0  0  0  0  0  0  0
  2  1  1  0
  3  5  1  0
  3  2  1  0
  3  4  1  1
  5 11  1  0
  6  5  2  0
  8  7  1  1
  9  8  1  0
 10 12  1  0
 10  8  1  0
 10 11  1  6
 12 19  1  0
 12 13  2  0
 15 14  1  0
 15 16  1  0
 16 17  1  0
 18 17  1  1
 18 20  1  0
 19 18  1  0
 20 21  2  0
 20 22  1  0
M  END
$$$$
