STM.pdb
     RDKit          3D

 22 21  0  0  1  0  0  0  0  0999 V2000
   13.6199  -10.1569  -14.8333 O   0  0  0  0  0  0  0  0  0  0  0  0
   14.7784   -9.6916  -15.4462 C   0  0  0  0  0  0  0  0  0  0  0  0
   14.4305   -8.5932  -16.4360 C   0  0  2  0  0  0  0  0  0  0  0  0
   13.9120   -9.2033  -17.6327 N   0  0  0  0  0  0  0  0  0  0  0  0
   15.5892   -7.7424  -16.7414 C   0  0  0  0  0  0  0  0  0  0  0  0
   16.0905   -7.6842  -17.8898 O   0  0  0  0  0  0  0  0  0  0  0  0
   15.6318   -4.3165  -16.6185 C   0  0  0  0  0  0  0  0  0  0  0  0
   16.7689   -4.6419  -15.6498 C   0  0  1  0  0  0  0  0  0  0  0  0
   16.2281   -4.5464  -14.3708 O   0  0  0  0  0  0  0  0  0  0  0  0
   17.2847   -6.0616  -15.8961 C   0  0  2  0  0  0  0  0  0  0  0  0
   16.1798   -6.9530  -15.7308 N   0  0  0  0  0  0  0  0  0  0  0  0
   18.4335   -6.3714  -15.0425 C   0  0  0  0  0  0  0  0  0  0  0  0
   18.2629   -6.8967  -13.9140 O   0  0  0  0  0  0  0  0  0  0  0  0
   24.7769  -10.2258  -13.6330 C   0  0  0  0  0  0  0  0  0  0  0  0
   23.7846   -9.3564  -14.8200 S   0  0  0  0  0  0  0  0  0  0  0  0
   22.8137   -7.9858  -14.2148 C   0  0  0  0  0  0  0  0  0  0  0  0
   21.6513   -7.5792  -15.0443 C   0  0  0  0  0  0  0  0  0  0  0  0
   20.8920   -6.4080  -14.5385 C   0  0  2  0  0  0  0  0  0  0  0  0
   19.7717   -6.1006  -15.4363 N   0  0  0  0  0  0  0  0  0  0  0  0
   21.6924   -5.2135  -14.2540 C   0  0  0  0  0  0  0  0  0  0  0  0
   21.7909   -4.2021  -14.9768 O   0  0  0  0  0  0  0  0  0  0  0  0
   22.4311   -5.1834  -13.0511 O   0  0  0  0  0  0  0  0  0  0  0  0
  2  1  1  0
  3  5  1  0
  3  2  1  0
  3  4  1  6
  5 11  1  0
  6  5  2  0
  8  7  1  6
  9  8  1  0
 10 12  1  0
 10  8  1  0
 10 11  1  1
 12 19  1  0
 12 13  2  0
 15 14  1  0
 15 16  1  0
 16 17  1  0
 18 17  1  6
 18 20  1  0
 19 18  1  0
 20 21  2  0
 20 22  1  0
M  END
$$$$
