STM.pdb
     RDKit          3D

 22 21  0  0  1  0  0  0  0  0999 V2000
   28.9117  -21.9645  -16.2468 O   0  0  0  0  0  0  0  0  0  0  0  0
   28.3211  -21.1129  -15.3193 C   0  0  0  0  0  0  0  0  0  0  0  0
   26.8107  -21.2656  -15.3702 C   0  0  2  0  0  0  0  0  0  0  0  0
   26.3584  -20.9015  -16.6879 N   0  0  0  0  0  0  0  0  0  0  0  0
   26.1420  -20.4538  -14.3440 C   0  0  0  0  0  0  0  0  0  0  0  0
   25.4966  -19.4165  -14.6288 O   0  0  0  0  0  0  0  0  0  0  0  0
   23.6399  -19.8357  -13.6090 C   0  0  0  0  0  0  0  0  0  0  0  0
   23.9652  -20.4699  -12.2565 C   0  0  1  0  0  0  0  0  0  0  0  0
   23.6905  -21.8279  -12.3889 O   0  0  0  0  0  0  0  0  0  0  0  0
   25.4432  -20.2646  -11.9169 C   0  0  2  0  0  0  0  0  0  0  0  0
   26.2096  -20.8273  -12.9840 N   0  0  0  0  0  0  0  0  0  0  0  0
   25.7715  -20.8069  -10.5968 C   0  0  0  0  0  0  0  0  0  0  0  0
   26.0001  -22.0340  -10.4533 O   0  0  0  0  0  0  0  0  0  0  0  0
   29.0334  -19.7604   -3.4708 C   0  0  0  0  0  0  0  0  0  0  0  0
   28.4999  -19.1289   -5.0412 S   0  0  0  0  0  0  0  0  0  0  0  0
   27.3488  -20.1308   -5.9678 C   0  0  0  0  0  0  0  0  0  0  0  0
   27.0294  -19.6729   -7.3437 C   0  0  0  0  0  0  0  0  0  0  0  0
   26.1566  -20.5835   -8.1268 C   0  0  2  0  0  0  0  0  0  0  0  0
   25.8471  -19.9927   -9.4347 N   0  0  0  0  0  0  0  0  0  0  0  0
   24.9412  -21.0339   -7.4425 C   0  0  0  0  0  0  0  0  0  0  0  0
   23.7708  -20.7135   -7.7301 O   0  0  0  0  0  0  0  0  0  0  0  0
   25.0858  -21.9159   -6.3495 O   0  0  0  0  0  0  0  0  0  0  0  0
  2  1  1  0
  3  5  1  0
  3  2  1  0
  3  4  1  6
  5 11  1  0
  6  5  2  0
  8  7  1  6
  9  8  1  0
 10 12  1  0
 10  8  1  0
 10 11  1  6
 12 19  1  0
 12 13  2  0
 15 14  1  0
 15 16  1  0
 16 17  1  0
 18 17  1  1
 18 20  1  0
 19 18  1  0
 20 21  2  0
 20 22  1  0
M  END
$$$$
