STM.pdb
     RDKit          3D

 22 21  0  0  1  0  0  0  0  0999 V2000
   25.6131  -27.3968  -17.5728 O   0  0  0  0  0  0  0  0  0  0  0  0
   25.9580  -26.3122  -16.7733 C   0  0  0  0  0  0  0  0  0  0  0  0
   27.3660  -25.8526  -17.1101 C   0  0  2  0  0  0  0  0  0  0  0  0
   28.2810  -26.9224  -16.8075 N   0  0  0  0  0  0  0  0  0  0  0  0
   27.7324  -24.6287  -16.3840 C   0  0  0  0  0  0  0  0  0  0  0  0
   28.8967  -24.1622  -16.4064 O   0  0  0  0  0  0  0  0  0  0  0  0
   26.5749  -20.2950  -16.4869 C   0  0  0  0  0  0  0  0  0  0  0  0
   26.6955  -21.8035  -16.7037 C   0  0  1  0  0  0  0  0  0  0  0  0
   27.8808  -22.0008  -17.4062 O   0  0  0  0  0  0  0  0  0  0  0  0
   26.7572  -22.5288  -15.3575 C   0  0  2  0  0  0  0  0  0  0  0  0
   26.7649  -23.9323  -15.6275 N   0  0  0  0  0  0  0  0  0  0  0  0
   25.6778  -22.0993  -14.4659 C   0  0  0  0  0  0  0  0  0  0  0  0
   24.4770  -22.2554  -14.8013 O   0  0  0  0  0  0  0  0  0  0  0  0
   26.6276  -19.7877   -8.1130 C   0  0  0  0  0  0  0  0  0  0  0  0
   24.8970  -19.6098   -8.4638 S   0  0  0  0  0  0  0  0  0  0  0  0
   24.3078  -20.2985  -10.0020 C   0  0  0  0  0  0  0  0  0  0  0  0
   25.3361  -20.6042  -11.0286 C   0  0  0  0  0  0  0  0  0  0  0  0
   24.8215  -21.2295  -12.2728 C   0  0  2  0  0  0  0  0  0  0  0  0
   25.9255  -21.4968  -13.2031 N   0  0  0  0  0  0  0  0  0  0  0  0
   23.7280  -20.5109  -12.9333 C   0  0  0  0  0  0  0  0  0  0  0  0
   23.8469  -19.6067  -13.7838 O   0  0  0  0  0  0  0  0  0  0  0  0
   22.4040  -20.8596  -12.5883 O   0  0  0  0  0  0  0  0  0  0  0  0
  2  1  1  0
  3  5  1  0
  3  2  1  0
  3  4  1  1
  5 11  1  0
  6  5  2  0
  8  7  1  1
  9  8  1  0
 10 12  1  0
 10  8  1  0
 10 11  1  6
 12 19  1  0
 12 13  2  0
 15 14  1  0
 15 16  1  0
 16 17  1  0
 18 17  1  1
 18 20  1  0
 19 18  1  0
 20 21  2  0
 20 22  1  0
M  END
$$$$
