SWN.pdb
     RDKit          3D

 29 30  0  0  1  0  0  0  0  0999 V2000
   25.9780  -22.3256  -17.7714 O   0  0  0  0  0  0  0  0  0  0  0  0
   27.3383  -22.2205  -17.4722 C   0  0  0  0  0  0  0  0  0  0  0  0
   27.6190  -23.1193  -16.2822 C   0  0  2  0  0  0  0  0  0  0  0  0
   27.3776  -24.5098  -16.6041 N   0  0  0  0  0  0  0  0  0  0  0  0
   26.7334  -22.7462  -15.1543 C   0  0  0  0  0  0  0  0  0  0  0  0
   25.9720  -23.6389  -14.6710 O   0  0  0  0  0  0  0  0  0  0  0  0
   26.7334  -21.4410  -14.6309 N   0  0  0  0  0  0  0  0  0  0  0  0
   25.8950  -21.1479  -13.4589 C   0  0  1  0  0  0  0  0  0  0  0  0
   26.5952  -20.0477  -12.7447 C   0  0  0  0  0  0  0  0  0  0  0  0
   27.5044  -20.4380  -11.6633 C   0  0  0  0  0  0  0  0  0  0  0  0
   28.8194  -20.8787  -11.8167 C   0  0  0  0  0  0  0  0  0  0  0  0
   29.3299  -21.1721  -10.6099 N   0  0  0  0  0  0  0  0  0  0  0  0
   28.3995  -20.9399   -9.6709 C   0  0  0  0  0  0  0  0  0  0  0  0
   28.4602  -21.0814   -8.2846 C   0  0  0  0  0  0  0  0  0  0  0  0
   27.3764  -20.7664   -7.4958 C   0  0  0  0  0  0  0  0  0  0  0  0
   26.2504  -20.3128   -8.1353 C   0  0  0  0  0  0  0  0  0  0  0  0
   26.1956  -20.1756   -9.5056 C   0  0  0  0  0  0  0  0  0  0  0  0
   27.2600  -20.4829  -10.3128 C   0  0  0  0  0  0  0  0  0  0  0  0
   24.5387  -20.8926  -13.9296 C   0  0  0  0  0  0  0  0  0  0  0  0
   24.2821  -20.5095  -15.0958 O   0  0  0  0  0  0  0  0  0  0  0  0
   19.8807  -20.7999  -10.6615 N   0  0  0  0  0  0  0  0  0  0  0  0
   21.0908  -21.0729  -11.3512 C   0  0  0  0  0  0  0  0  0  0  0  0
   22.1461  -20.6914  -10.7566 O   0  0  0  0  0  0  0  0  0  0  0  0
   21.1485  -21.7452  -12.6507 C   0  0  0  0  0  0  0  0  0  0  0  0
   22.0717  -21.0016  -13.6014 C   0  0  2  0  0  0  0  0  0  0  0  0
   23.4395  -21.0764  -13.0545 N   0  0  0  0  0  0  0  0  0  0  0  0
   21.7168  -19.5671  -13.5574 C   0  0  0  0  0  0  0  0  0  0  0  0
   22.6539  -18.6249  -13.2001 O   0  0  0  0  0  0  0  0  0  0  0  0
   20.5591  -19.2088  -13.8466 O   0  0  0  0  0  0  0  0  0  0  0  0
  2  1  1  0
  3  5  1  0
  3  2  1  0
  3  4  1  6
  5  6  2  0
  7  8  1  0
  7  5  1  0
  8  9  1  6
 10 18  1  0
 10  9  1  0
 11 10  2  0
 12 11  1  0
 12 13  1  0
 13 18  2  0
 14 13  1  0
 14 15  2  0
 15 16  1  0
 16 17  2  0
 18 17  1  0
 19 26  1  0
 19  8  1  0
 20 19  2  0
 22 21  1  0
 23 22  2  0
 24 22  1  0
 25 24  1  1
 25 26  1  0
 27 25  1  0
 27 28  1  0
 29 27  2  0
M  END
$$$$
