SWN.pdb
     RDKit          3D

 29 30  0  0  1  0  0  0  0  0999 V2000
   28.3186  -19.0165  -16.3037 O   0  0  0  0  0  0  0  0  0  0  0  0
   27.3725  -19.7888  -15.6261 C   0  0  0  0  0  0  0  0  0  0  0  0
   28.0658  -20.4283  -14.4374 C   0  0  2  0  0  0  0  0  0  0  0  0
   28.9190  -21.5220  -14.8513 N   0  0  0  0  0  0  0  0  0  0  0  0
   27.0535  -20.9632  -13.4967 C   0  0  0  0  0  0  0  0  0  0  0  0
   26.6178  -22.1388  -13.6919 O   0  0  0  0  0  0  0  0  0  0  0  0
   26.5861  -20.1932  -12.4167 N   0  0  0  0  0  0  0  0  0  0  0  0
   25.5744  -20.7717  -11.5201 C   0  0  1  0  0  0  0  0  0  0  0  0
   25.8257  -20.1464  -10.1947 C   0  0  0  0  0  0  0  0  0  0  0  0
   27.1067  -20.4555   -9.5528 C   0  0  0  0  0  0  0  0  0  0  0  0
   28.1540  -21.1822  -10.1204 C   0  0  0  0  0  0  0  0  0  0  0  0
   29.1521  -21.2875   -9.2284 N   0  0  0  0  0  0  0  0  0  0  0  0
   28.7992  -20.6568   -8.0976 C   0  0  0  0  0  0  0  0  0  0  0  0
   29.4996  -20.4829   -6.9039 C   0  0  0  0  0  0  0  0  0  0  0  0
   28.9471  -19.7764   -5.8591 C   0  0  0  0  0  0  0  0  0  0  0  0
   27.6905  -19.2601   -6.0506 C   0  0  0  0  0  0  0  0  0  0  0  0
   27.0025  -19.4355   -7.2320 C   0  0  0  0  0  0  0  0  0  0  0  0
   27.5298  -20.1349   -8.2864 C   0  0  0  0  0  0  0  0  0  0  0  0
   24.2650  -20.5647  -12.1276 C   0  0  0  0  0  0  0  0  0  0  0  0
   23.9076  -19.4687  -12.6212 O   0  0  0  0  0  0  0  0  0  0  0  0
   19.3950  -21.3446  -13.7817 N   0  0  0  0  0  0  0  0  0  0  0  0
   20.0328  -22.6011  -13.6116 C   0  0  0  0  0  0  0  0  0  0  0  0
   19.3404  -23.6068  -13.9605 O   0  0  0  0  0  0  0  0  0  0  0  0
   21.3879  -22.7561  -13.0790 C   0  0  0  0  0  0  0  0  0  0  0  0
   22.0207  -21.4003  -12.8136 C   0  0  2  0  0  0  0  0  0  0  0  0
   23.3320  -21.6299  -12.1783 N   0  0  0  0  0  0  0  0  0  0  0  0
   21.2110  -20.7091  -11.7877 C   0  0  0  0  0  0  0  0  0  0  0  0
   21.2293  -21.1333  -10.4788 O   0  0  0  0  0  0  0  0  0  0  0  0
   20.5065  -19.7339  -12.1117 O   0  0  0  0  0  0  0  0  0  0  0  0
  2  1  1  0
  3  5  1  0
  3  2  1  0
  3  4  1  6
  5  6  2  0
  7  8  1  0
  7  5  1  0
  8  9  1  1
 10 18  1  0
 10  9  1  0
 11 10  2  0
 12 11  1  0
 12 13  1  0
 13 18  2  0
 14 13  1  0
 14 15  2  0
 15 16  1  0
 16 17  2  0
 18 17  1  0
 19 26  1  0
 19  8  1  0
 20 19  2  0
 22 21  1  0
 23 22  2  0
 24 22  1  0
 25 24  1  1
 25 26  1  0
 27 25  1  0
 27 28  1  0
 29 27  2  0
M  END
$$$$
