SWN.pdb
     RDKit          3D

 29 30  0  0  1  0  0  0  0  0999 V2000
   27.0809  -18.5212  -14.5878 O   0  0  0  0  0  0  0  0  0  0  0  0
   28.3773  -18.6068  -14.0750 C   0  0  0  0  0  0  0  0  0  0  0  0
   28.7472  -20.0765  -14.0008 C   0  0  2  0  0  0  0  0  0  0  0  0
   28.7534  -20.6849  -15.3143 N   0  0  0  0  0  0  0  0  0  0  0  0
   27.7612  -20.7984  -13.1626 C   0  0  0  0  0  0  0  0  0  0  0  0
   26.8671  -21.4834  -13.7468 O   0  0  0  0  0  0  0  0  0  0  0  0
   27.8113  -20.7290  -11.7589 N   0  0  0  0  0  0  0  0  0  0  0  0
   26.7872  -21.4387  -10.9779 C   0  0  1  0  0  0  0  0  0  0  0  0
   27.4334  -21.7426   -9.6738 C   0  0  0  0  0  0  0  0  0  0  0  0
   27.2278  -20.7721   -8.5947 C   0  0  0  0  0  0  0  0  0  0  0  0
   26.2299  -19.7979   -8.5473 C   0  0  0  0  0  0  0  0  0  0  0  0
   26.3708  -19.0764   -7.4236 N   0  0  0  0  0  0  0  0  0  0  0  0
   27.4231  -19.5410   -6.7322 C   0  0  0  0  0  0  0  0  0  0  0  0
   27.9532  -19.1299   -5.5093 C   0  0  0  0  0  0  0  0  0  0  0  0
   29.0460  -19.7668   -4.9649 C   0  0  0  0  0  0  0  0  0  0  0  0
   29.5782  -20.8114   -5.6777 C   0  0  0  0  0  0  0  0  0  0  0  0
   29.0508  -21.2131   -6.8860 C   0  0  0  0  0  0  0  0  0  0  0  0
   27.9644  -20.5955   -7.4494 C   0  0  0  0  0  0  0  0  0  0  0  0
   25.5845  -20.6142  -10.9604 C   0  0  0  0  0  0  0  0  0  0  0  0
   25.6165  -19.3625  -10.8913 O   0  0  0  0  0  0  0  0  0  0  0  0
   22.1569  -19.3013  -14.9737 N   0  0  0  0  0  0  0  0  0  0  0  0
   22.4237  -19.2745  -13.5798 C   0  0  0  0  0  0  0  0  0  0  0  0
   21.6117  -18.5831  -12.8904 O   0  0  0  0  0  0  0  0  0  0  0  0
   23.5421  -19.9839  -12.9555 C   0  0  0  0  0  0  0  0  0  0  0  0
   23.1716  -20.4495  -11.5573 C   0  0  2  0  0  0  0  0  0  0  0  0
   24.3072  -21.2244  -11.0229 N   0  0  0  0  0  0  0  0  0  0  0  0
   22.0636  -21.4211  -11.6758 C   0  0  0  0  0  0  0  0  0  0  0  0
   20.8610  -21.1911  -11.0479 O   0  0  0  0  0  0  0  0  0  0  0  0
   22.2207  -22.4568  -12.3503 O   0  0  0  0  0  0  0  0  0  0  0  0
  2  1  1  0
  3  5  1  0
  3  2  1  0
  3  4  1  6
  5  6  2  0
  7  8  1  0
  7  5  1  0
  8  9  1  1
 10 18  1  0
 10  9  1  0
 11 10  2  0
 12 11  1  0
 12 13  1  0
 13 18  2  0
 14 13  1  0
 14 15  2  0
 15 16  1  0
 16 17  2  0
 18 17  1  0
 19 26  1  0
 19  8  1  0
 20 19  2  0
 22 21  1  0
 23 22  2  0
 24 22  1  0
 25 24  1  6
 25 26  1  0
 27 25  1  0
 27 28  1  0
 29 27  2  0
M  END
$$$$
