SWN.pdb
     RDKit          3D

 29 30  0  0  1  0  0  0  0  0999 V2000
   26.0653  -17.0522  -17.6374 O   0  0  0  0  0  0  0  0  0  0  0  0
   27.1697  -16.8144  -16.8162 C   0  0  0  0  0  0  0  0  0  0  0  0
   27.9427  -18.1146  -16.6958 C   0  0  2  0  0  0  0  0  0  0  0  0
   28.1048  -18.7522  -17.9853 N   0  0  0  0  0  0  0  0  0  0  0  0
   27.2129  -19.0495  -15.8074 C   0  0  0  0  0  0  0  0  0  0  0  0
   26.8856  -20.1838  -16.2722 O   0  0  0  0  0  0  0  0  0  0  0  0
   26.8903  -18.6937  -14.4856 N   0  0  0  0  0  0  0  0  0  0  0  0
   26.3355  -19.7207  -13.5913 C   0  0  1  0  0  0  0  0  0  0  0  0
   26.8907  -19.4081  -12.2478 C   0  0  0  0  0  0  0  0  0  0  0  0
   26.4796  -20.2823  -11.1455 C   0  0  0  0  0  0  0  0  0  0  0  0
   26.1150  -21.6247  -11.2559 C   0  0  0  0  0  0  0  0  0  0  0  0
   25.7730  -22.0900  -10.0436 N   0  0  0  0  0  0  0  0  0  0  0  0
   25.9001  -21.1037   -9.1424 C   0  0  0  0  0  0  0  0  0  0  0  0
   25.6762  -21.1035   -7.7657 C   0  0  0  0  0  0  0  0  0  0  0  0
   25.8877  -19.9672   -7.0173 C   0  0  0  0  0  0  0  0  0  0  0  0
   26.3237  -18.8517   -7.6866 C   0  0  0  0  0  0  0  0  0  0  0  0
   26.5427  -18.8571   -9.0473 C   0  0  0  0  0  0  0  0  0  0  0  0
   26.3391  -19.9746   -9.8146 C   0  0  0  0  0  0  0  0  0  0  0  0
   24.8851  -19.7112  -13.7419 C   0  0  0  0  0  0  0  0  0  0  0  0
   24.2295  -18.6663  -13.9675 O   0  0  0  0  0  0  0  0  0  0  0  0
   20.4275  -21.0128  -15.4197 N   0  0  0  0  0  0  0  0  0  0  0  0
   21.0451  -22.2240  -15.0122 C   0  0  0  0  0  0  0  0  0  0  0  0
   20.5084  -23.2808  -15.4682 O   0  0  0  0  0  0  0  0  0  0  0  0
   22.2160  -22.2810  -14.1351 C   0  0  0  0  0  0  0  0  0  0  0  0
   22.6865  -20.8821  -13.7732 C   0  0  2  0  0  0  0  0  0  0  0  0
   24.1545  -20.9205  -13.6343 N   0  0  0  0  0  0  0  0  0  0  0  0
   22.1797  -20.5630  -12.4215 C   0  0  0  0  0  0  0  0  0  0  0  0
   20.9280  -20.0162  -12.2545 O   0  0  0  0  0  0  0  0  0  0  0  0
   22.8923  -20.7917  -11.4254 O   0  0  0  0  0  0  0  0  0  0  0  0
  2  1  1  0
  3  5  1  0
  3  2  1  0
  3  4  1  6
  5  6  2  0
  7  8  1  0
  7  5  1  0
  8  9  1  1
 10 18  1  0
 10  9  1  0
 11 10  2  0
 12 11  1  0
 12 13  1  0
 13 18  2  0
 14 13  1  0
 14 15  2  0
 15 16  1  0
 16 17  2  0
 18 17  1  0
 19 26  1  0
 19  8  1  0
 20 19  2  0
 22 21  1  0
 23 22  2  0
 24 22  1  0
 25 24  1  1
 25 26  1  0
 27 25  1  0
 27 28  1  0
 29 27  2  0
M  END
$$$$
