SWN.pdb
     RDKit          3D

 29 30  0  0  1  0  0  0  0  0999 V2000
   26.8475  -21.0093  -17.3825 O   0  0  0  0  0  0  0  0  0  0  0  0
   28.1477  -20.7970  -16.9188 C   0  0  0  0  0  0  0  0  0  0  0  0
   28.5362  -21.9948  -16.0721 C   0  0  2  0  0  0  0  0  0  0  0  0
   28.4174  -23.2288  -16.8196 N   0  0  0  0  0  0  0  0  0  0  0  0
   27.6447  -22.0827  -14.8918 C   0  0  0  0  0  0  0  0  0  0  0  0
   26.7625  -22.9945  -14.8751 O   0  0  0  0  0  0  0  0  0  0  0  0
   27.7693  -21.1832  -13.8180 N   0  0  0  0  0  0  0  0  0  0  0  0
   26.8687  -21.3280  -12.6647 C   0  0  1  0  0  0  0  0  0  0  0  0
   27.4959  -20.5297  -11.5784 C   0  0  0  0  0  0  0  0  0  0  0  0
   26.7558  -20.4387  -10.3164 C   0  0  0  0  0  0  0  0  0  0  0  0
   25.3674  -20.4071  -10.1806 C   0  0  0  0  0  0  0  0  0  0  0  0
   25.0540  -20.2915   -8.8800 N   0  0  0  0  0  0  0  0  0  0  0  0
   26.1843  -20.2466   -8.1578 C   0  0  0  0  0  0  0  0  0  0  0  0
   26.3723  -20.1443   -6.7796 C   0  0  0  0  0  0  0  0  0  0  0  0
   27.6391  -20.1312   -6.2400 C   0  0  0  0  0  0  0  0  0  0  0  0
   28.6911  -20.2229   -7.1160 C   0  0  0  0  0  0  0  0  0  0  0  0
   28.4997  -20.3231   -8.4772 C   0  0  0  0  0  0  0  0  0  0  0  0
   27.2495  -20.3375   -9.0391 C   0  0  0  0  0  0  0  0  0  0  0  0
   25.5268  -20.9502  -13.0926 C   0  0  0  0  0  0  0  0  0  0  0  0
   25.2991  -19.9626  -13.8312 O   0  0  0  0  0  0  0  0  0  0  0  0
   23.8251  -24.6926  -14.6864 N   0  0  0  0  0  0  0  0  0  0  0  0
   23.2027  -23.4195  -14.7664 C   0  0  0  0  0  0  0  0  0  0  0  0
   23.3103  -22.8384  -15.8905 O   0  0  0  0  0  0  0  0  0  0  0  0
   22.4813  -22.7993  -13.6535 C   0  0  0  0  0  0  0  0  0  0  0  0
   23.0962  -21.4569  -13.2942 C   0  0  2  0  0  0  0  0  0  0  0  0
   24.4090  -21.7127  -12.6724 N   0  0  0  0  0  0  0  0  0  0  0  0
   22.2757  -20.8477  -12.2258 C   0  0  0  0  0  0  0  0  0  0  0  0
   20.9758  -20.4690  -12.4715 O   0  0  0  0  0  0  0  0  0  0  0  0
   22.7660  -20.6764  -11.0933 O   0  0  0  0  0  0  0  0  0  0  0  0
  2  1  1  0
  3  5  1  0
  3  2  1  0
  3  4  1  6
  5  6  2  0
  7  8  1  0
  7  5  1  0
  8  9  1  1
 10 18  1  0
 10  9  1  0
 11 10  2  0
 12 11  1  0
 12 13  1  0
 13 18  2  0
 14 13  1  0
 14 15  2  0
 15 16  1  0
 16 17  2  0
 18 17  1  0
 19 26  1  0
 19  8  1  0
 20 19  2  0
 22 21  1  0
 23 22  2  0
 24 22  1  0
 25 24  1  1
 25 26  1  0
 27 25  1  0
 27 28  1  0
 29 27  2  0
M  END
$$$$
