SWN.pdb
     RDKit          3D

 29 30  0  0  1  0  0  0  0  0999 V2000
   29.0455  -22.6829  -15.4438 O   0  0  0  0  0  0  0  0  0  0  0  0
   27.9737  -22.9416  -16.3012 C   0  0  0  0  0  0  0  0  0  0  0  0
   26.9856  -21.7984  -16.1613 C   0  0  2  0  0  0  0  0  0  0  0  0
   27.6464  -20.5150  -16.2697 N   0  0  0  0  0  0  0  0  0  0  0  0
   26.3259  -21.8674  -14.8362 C   0  0  0  0  0  0  0  0  0  0  0  0
   25.7573  -22.9528  -14.5069 O   0  0  0  0  0  0  0  0  0  0  0  0
   26.3277  -20.7635  -13.9650 N   0  0  0  0  0  0  0  0  0  0  0  0
   25.6096  -20.8695  -12.6862 C   0  0  1  0  0  0  0  0  0  0  0  0
   26.2885  -19.9081  -11.7776 C   0  0  0  0  0  0  0  0  0  0  0  0
   27.4239  -20.4210  -11.0053 C   0  0  0  0  0  0  0  0  0  0  0  0
   28.5121  -21.1279  -11.5185 C   0  0  0  0  0  0  0  0  0  0  0  0
   29.3375  -21.4583  -10.5123 N   0  0  0  0  0  0  0  0  0  0  0  0
   28.8321  -20.9943   -9.3588 C   0  0  0  0  0  0  0  0  0  0  0  0
   29.3282  -21.0753   -8.0577 C   0  0  0  0  0  0  0  0  0  0  0  0
   28.6450  -20.5066   -7.0062 C   0  0  0  0  0  0  0  0  0  0  0  0
   27.4682  -19.8655   -7.3007 C   0  0  0  0  0  0  0  0  0  0  0  0
   26.9822  -19.7890   -8.5881 C   0  0  0  0  0  0  0  0  0  0  0  0
   27.6427  -20.3472   -9.6517 C   0  0  0  0  0  0  0  0  0  0  0  0
   24.1903  -20.6634  -12.9498 C   0  0  0  0  0  0  0  0  0  0  0  0
   23.7591  -19.7378  -13.6778 O   0  0  0  0  0  0  0  0  0  0  0  0
   19.0629  -21.3558  -13.2612 N   0  0  0  0  0  0  0  0  0  0  0  0
   19.7283  -22.5957  -13.0755 C   0  0  0  0  0  0  0  0  0  0  0  0
   18.9859  -23.6223  -13.1631 O   0  0  0  0  0  0  0  0  0  0  0  0
   21.1625  -22.7128  -12.8049 C   0  0  0  0  0  0  0  0  0  0  0  0
   21.8054  -21.3396  -12.7037 C   0  0  2  0  0  0  0  0  0  0  0  0
   23.2300  -21.5306  -12.3724 N   0  0  0  0  0  0  0  0  0  0  0  0
   21.2266  -20.6472  -11.5327 C   0  0  0  0  0  0  0  0  0  0  0  0
   21.7523  -20.8395  -10.2757 O   0  0  0  0  0  0  0  0  0  0  0  0
   20.2547  -19.8829  -11.6861 O   0  0  0  0  0  0  0  0  0  0  0  0
  2  1  1  0
  3  5  1  0
  3  2  1  0
  3  4  1  1
  5  6  2  0
  7  8  1  0
  7  5  1  0
  8  9  1  1
 10 18  1  0
 10  9  1  0
 11 10  2  0
 12 11  1  0
 12 13  1  0
 13 18  2  0
 14 13  1  0
 14 15  2  0
 15 16  1  0
 16 17  2  0
 18 17  1  0
 19 26  1  0
 19  8  1  0
 20 19  2  0
 22 21  1  0
 23 22  2  0
 24 22  1  0
 25 24  1  1
 25 26  1  0
 27 25  1  0
 27 28  1  0
 29 27  2  0
M  END
$$$$
