SWN.pdb
     RDKit          3D

 29 30  0  0  1  0  0  0  0  0999 V2000
   25.4620  -21.0804  -18.2084 O   0  0  0  0  0  0  0  0  0  0  0  0
   26.0929  -20.1018  -17.4368 C   0  0  0  0  0  0  0  0  0  0  0  0
   26.0647  -20.5651  -15.9922 C   0  0  2  0  0  0  0  0  0  0  0  0
   26.1243  -22.0086  -15.9009 N   0  0  0  0  0  0  0  0  0  0  0  0
   24.8097  -20.1133  -15.3468 C   0  0  0  0  0  0  0  0  0  0  0  0
   24.4975  -20.6197  -14.2261 O   0  0  0  0  0  0  0  0  0  0  0  0
   23.9849  -19.1506  -15.9556 N   0  0  0  0  0  0  0  0  0  0  0  0
   22.8017  -18.6693  -15.2272 C   0  0  1  0  0  0  0  0  0  0  0  0
   22.4851  -17.3472  -15.8292 C   0  0  0  0  0  0  0  0  0  0  0  0
   22.0859  -17.3441  -17.2396 C   0  0  0  0  0  0  0  0  0  0  0  0
   22.9168  -17.6148  -18.3275 C   0  0  0  0  0  0  0  0  0  0  0  0
   22.2112  -17.4901  -19.4631 N   0  0  0  0  0  0  0  0  0  0  0  0
   20.9490  -17.1485  -19.1611 C   0  0  0  0  0  0  0  0  0  0  0  0
   19.8517  -16.9200  -19.9912 C   0  0  0  0  0  0  0  0  0  0  0  0
   18.6240  -16.5905  -19.4619 C   0  0  0  0  0  0  0  0  0  0  0  0
   18.5377  -16.5001  -18.0955 C   0  0  0  0  0  0  0  0  0  0  0  0
   19.6254  -16.7263  -17.2799 C   0  0  0  0  0  0  0  0  0  0  0  0
   20.8579  -17.0549  -17.7818 C   0  0  0  0  0  0  0  0  0  0  0  0
   21.7787  -19.7062  -15.2974 C   0  0  0  0  0  0  0  0  0  0  0  0
   21.7645  -20.5914  -16.1855 O   0  0  0  0  0  0  0  0  0  0  0  0
   21.1688  -24.0948  -14.1685 N   0  0  0  0  0  0  0  0  0  0  0  0
   20.0617  -23.2070  -14.1371 C   0  0  0  0  0  0  0  0  0  0  0  0
   19.0231  -23.6217  -14.7387 O   0  0  0  0  0  0  0  0  0  0  0  0
   20.0860  -21.9056  -13.4665 C   0  0  0  0  0  0  0  0  0  0  0  0
   19.7114  -20.7944  -14.4329 C   0  0  2  0  0  0  0  0  0  0  0  0
   20.7407  -19.7426  -14.3336 N   0  0  0  0  0  0  0  0  0  0  0  0
   18.4666  -20.1629  -13.9456 C   0  0  0  0  0  0  0  0  0  0  0  0
   17.2425  -20.7331  -14.2102 O   0  0  0  0  0  0  0  0  0  0  0  0
   18.5272  -19.1055  -13.2895 O   0  0  0  0  0  0  0  0  0  0  0  0
  2  1  1  0
  3  5  1  0
  3  2  1  0
  3  4  1  6
  5  6  2  0
  7  8  1  0
  7  5  1  0
  8  9  1  6
 10 18  1  0
 10  9  1  0
 11 10  2  0
 12 11  1  0
 12 13  1  0
 13 18  2  0
 14 13  1  0
 14 15  2  0
 15 16  1  0
 16 17  2  0
 18 17  1  0
 19 26  1  0
 19  8  1  0
 20 19  2  0
 22 21  1  0
 23 22  2  0
 24 22  1  0
 25 24  1  1
 25 26  1  0
 27 25  1  0
 27 28  1  0
 29 27  2  0
M  END
$$$$
