SWN.pdb
     RDKit          3D

 29 30  0  0  1  0  0  0  0  0999 V2000
   27.9251  -21.5607  -18.2947 O   0  0  0  0  0  0  0  0  0  0  0  0
   26.9376  -22.0481  -17.4356 C   0  0  0  0  0  0  0  0  0  0  0  0
   27.6312  -22.6131  -16.2100 C   0  0  2  0  0  0  0  0  0  0  0  0
   27.9305  -24.0197  -16.3758 N   0  0  0  0  0  0  0  0  0  0  0  0
   26.7529  -22.4647  -15.0258 C   0  0  0  0  0  0  0  0  0  0  0  0
   26.1284  -23.4888  -14.6121 O   0  0  0  0  0  0  0  0  0  0  0  0
   26.6126  -21.2257  -14.3755 N   0  0  0  0  0  0  0  0  0  0  0  0
   25.7523  -21.1438  -13.1858 C   0  0  1  0  0  0  0  0  0  0  0  0
   26.3069  -20.0235  -12.3807 C   0  0  0  0  0  0  0  0  0  0  0  0
   27.4104  -20.3483  -11.4723 C   0  0  0  0  0  0  0  0  0  0  0  0
   28.6930  -20.7477  -11.8501 C   0  0  0  0  0  0  0  0  0  0  0  0
   29.4232  -20.9856  -10.7487 N   0  0  0  0  0  0  0  0  0  0  0  0
   28.6683  -20.7568   -9.6629 C   0  0  0  0  0  0  0  0  0  0  0  0
   28.9827  -20.8530   -8.3074 C   0  0  0  0  0  0  0  0  0  0  0  0
   28.0466  -20.5515   -7.3436 C   0  0  0  0  0  0  0  0  0  0  0  0
   26.8069  -20.1572   -7.7798 C   0  0  0  0  0  0  0  0  0  0  0  0
   26.5013  -20.0646   -9.1206 C   0  0  0  0  0  0  0  0  0  0  0  0
   27.4147  -20.3597  -10.0992 C   0  0  0  0  0  0  0  0  0  0  0  0
   24.3704  -21.0319  -13.6377 C   0  0  0  0  0  0  0  0  0  0  0  0
   24.0367  -20.3828  -14.6575 O   0  0  0  0  0  0  0  0  0  0  0  0
   19.3134  -23.1685  -14.6544 N   0  0  0  0  0  0  0  0  0  0  0  0
   19.8086  -22.7822  -13.3815 C   0  0  0  0  0  0  0  0  0  0  0  0
   18.9286  -22.3649  -12.5665 O   0  0  0  0  0  0  0  0  0  0  0  0
   21.2225  -22.8518  -13.0073 C   0  0  0  0  0  0  0  0  0  0  0  0
   21.9510  -21.5825  -13.4162 C   0  0  2  0  0  0  0  0  0  0  0  0
   23.3350  -21.6738  -12.9141 N   0  0  0  0  0  0  0  0  0  0  0  0
   21.3481  -20.4503  -12.6810 C   0  0  0  0  0  0  0  0  0  0  0  0
   21.6924  -20.2033  -11.3718 O   0  0  0  0  0  0  0  0  0  0  0  0
   20.5215  -19.7139  -13.2524 O   0  0  0  0  0  0  0  0  0  0  0  0
  2  1  1  0
  3  5  1  0
  3  2  1  0
  3  4  1  6
  5  6  2  0
  7  8  1  0
  7  5  1  0
  8  9  1  6
 10 18  1  0
 10  9  1  0
 11 10  2  0
 12 11  1  0
 12 13  1  0
 13 18  2  0
 14 13  1  0
 14 15  2  0
 15 16  1  0
 16 17  2  0
 18 17  1  0
 19 26  1  0
 19  8  1  0
 20 19  2  0
 22 21  1  0
 23 22  2  0
 24 22  1  0
 25 24  1  1
 25 26  1  0
 27 25  1  0
 27 28  1  0
 29 27  2  0
M  END
$$$$
