SWN.pdb
     RDKit          3D

 29 30  0  0  1  0  0  0  0  0999 V2000
   45.5590   -4.6535   -2.3383 O   0  0  0  0  0  0  0  0  0  0  0  0
   44.2904   -4.4237   -2.8757 C   0  0  0  0  0  0  0  0  0  0  0  0
   43.5679   -3.4583   -1.9546 C   0  0  2  0  0  0  0  0  0  0  0  0
   43.8974   -3.7075   -0.5673 N   0  0  0  0  0  0  0  0  0  0  0  0
   42.1032   -3.6146   -2.1163 C   0  0  0  0  0  0  0  0  0  0  0  0
   41.5069   -4.4584   -1.3798 O   0  0  0  0  0  0  0  0  0  0  0  0
   41.3902   -2.8515   -3.0580 N   0  0  0  0  0  0  0  0  0  0  0  0
   39.9383   -3.0513   -3.1781 C   0  0  1  0  0  0  0  0  0  0  0  0
   39.3318   -1.7583   -2.7648 C   0  0  0  0  0  0  0  0  0  0  0  0
   37.8704   -1.6655   -2.8296 C   0  0  0  0  0  0  0  0  0  0  0  0
   37.1227   -1.2649   -3.9375 C   0  0  0  0  0  0  0  0  0  0  0  0
   35.8188   -1.2757   -3.6169 N   0  0  0  0  0  0  0  0  0  0  0  0
   35.6832   -1.6688   -2.3409 C   0  0  0  0  0  0  0  0  0  0  0  0
   34.5362   -1.8465   -1.5674 C   0  0  0  0  0  0  0  0  0  0  0  0
   34.6257   -2.2790   -0.2631 C   0  0  0  0  0  0  0  0  0  0  0  0
   35.8833   -2.5226    0.2284 C   0  0  0  0  0  0  0  0  0  0  0  0
   37.0134   -2.3447   -0.5401 C   0  0  0  0  0  0  0  0  0  0  0  0
   36.9514   -1.9146   -1.8402 C   0  0  0  0  0  0  0  0  0  0  0  0
   39.6608   -3.5270   -4.5284 C   0  0  0  0  0  0  0  0  0  0  0  0
   40.3120   -3.1502   -5.5317 O   0  0  0  0  0  0  0  0  0  0  0  0
   35.7904   -7.1796   -7.6478 N   0  0  0  0  0  0  0  0  0  0  0  0
   37.0527   -6.5923   -7.3715 C   0  0  0  0  0  0  0  0  0  0  0  0
   37.8167   -6.4622   -8.3775 O   0  0  0  0  0  0  0  0  0  0  0  0
   37.4686   -6.1567   -6.0369 C   0  0  0  0  0  0  0  0  0  0  0  0
   38.3586   -4.9281   -6.1241 C   0  0  2  0  0  0  0  0  0  0  0  0
   38.6151   -4.4570   -4.7501 N   0  0  0  0  0  0  0  0  0  0  0  0
   37.5833   -3.8446   -6.7649 C   0  0  0  0  0  0  0  0  0  0  0  0
   37.9633   -3.3409   -7.9877 O   0  0  0  0  0  0  0  0  0  0  0  0
   36.5771   -3.3841   -6.1923 O   0  0  0  0  0  0  0  0  0  0  0  0
  2  1  1  0
  3  5  1  0
  3  2  1  0
  3  4  1  1
  5  6  2  0
  7  8  1  0
  7  5  1  0
  8  9  1  6
 10 18  1  0
 10  9  1  0
 11 10  2  0
 12 11  1  0
 12 13  1  0
 13 18  2  0
 14 13  1  0
 14 15  2  0
 15 16  1  0
 16 17  2  0
 18 17  1  0
 19 26  1  0
 19  8  1  0
 20 19  2  0
 22 21  1  0
 23 22  2  0
 24 22  1  0
 25 24  1  1
 25 26  1  0
 27 25  1  0
 27 28  1  0
 29 27  2  0
M  END
$$$$
