SWN.pdb
     RDKit          3D

 29 30  0  0  1  0  0  0  0  0999 V2000
   22.3595   -8.0947  -20.5711 O   0  0  0  0  0  0  0  0  0  0  0  0
   22.2694   -9.4883  -20.5436 C   0  0  0  0  0  0  0  0  0  0  0  0
   23.1160   -9.9819  -19.3851 C   0  0  2  0  0  0  0  0  0  0  0  0
   23.3088  -11.4152  -19.4470 N   0  0  0  0  0  0  0  0  0  0  0  0
   22.4447   -9.6615  -18.1035 C   0  0  0  0  0  0  0  0  0  0  0  0
   21.2256   -9.9865  -17.9692 O   0  0  0  0  0  0  0  0  0  0  0  0
   23.1355   -9.0157  -17.0626 N   0  0  0  0  0  0  0  0  0  0  0  0
   22.4054   -8.6755  -15.8324 C   0  0  1  0  0  0  0  0  0  0  0  0
   23.2796   -9.1355  -14.7211 C   0  0  0  0  0  0  0  0  0  0  0  0
   23.3205  -10.5789  -14.4693 C   0  0  0  0  0  0  0  0  0  0  0  0
   24.4722  -11.3552  -14.3342 C   0  0  0  0  0  0  0  0  0  0  0  0
   24.1201  -12.6364  -14.1403 N   0  0  0  0  0  0  0  0  0  0  0  0
   22.7812  -12.7295  -14.1426 C   0  0  0  0  0  0  0  0  0  0  0  0
   21.9524  -13.8378  -13.9688 C   0  0  0  0  0  0  0  0  0  0  0  0
   20.5822  -13.7039  -13.9922 C   0  0  0  0  0  0  0  0  0  0  0  0
   20.0822  -12.4420  -14.1924 C   0  0  0  0  0  0  0  0  0  0  0  0
   20.9058  -11.3503  -14.3643 C   0  0  0  0  0  0  0  0  0  0  0  0
   22.2722  -11.4571  -14.3459 C   0  0  0  0  0  0  0  0  0  0  0  0
   22.0708   -7.2572  -15.8864 C   0  0  0  0  0  0  0  0  0  0  0  0
   22.8426   -6.3920  -16.3643 O   0  0  0  0  0  0  0  0  0  0  0  0
   20.3586   -2.6723  -17.7172 N   0  0  0  0  0  0  0  0  0  0  0  0
   19.6313   -3.7172  -17.0897 C   0  0  0  0  0  0  0  0  0  0  0  0
   18.4837   -3.3882  -16.6566 O   0  0  0  0  0  0  0  0  0  0  0  0
   20.1397   -5.0822  -16.9414 C   0  0  0  0  0  0  0  0  0  0  0  0
   20.4916   -5.3716  -15.4917 C   0  0  2  0  0  0  0  0  0  0  0  0
   20.8255   -6.8043  -15.3847 N   0  0  0  0  0  0  0  0  0  0  0  0
   19.2683   -5.1991  -14.6795 C   0  0  0  0  0  0  0  0  0  0  0  0
   18.5339   -6.2919  -14.2797 O   0  0  0  0  0  0  0  0  0  0  0  0
   18.9000   -4.0541  -14.3544 O   0  0  0  0  0  0  0  0  0  0  0  0
  2  1  1  0
  3  5  1  0
  3  2  1  0
  3  4  1  6
  5  6  2  0
  7  8  1  0
  7  5  1  0
  8  9  1  1
 10 18  1  0
 10  9  1  0
 11 10  2  0
 12 11  1  0
 12 13  1  0
 13 18  2  0
 14 13  1  0
 14 15  2  0
 15 16  1  0
 16 17  2  0
 18 17  1  0
 19 26  1  0
 19  8  1  0
 20 19  2  0
 22 21  1  0
 23 22  2  0
 24 22  1  0
 25 24  1  6
 25 26  1  0
 27 25  1  0
 27 28  1  0
 29 27  2  0
M  END
$$$$
