SWN.pdb
     RDKit          3D

 29 30  0  0  1  0  0  0  0  0999 V2000
   26.5823  -22.0590  -18.4750 O   0  0  0  0  0  0  0  0  0  0  0  0
   27.5845  -21.2205  -17.9816 C   0  0  0  0  0  0  0  0  0  0  0  0
   28.3186  -21.9740  -16.8880 C   0  0  2  0  0  0  0  0  0  0  0  0
   28.6006  -23.3370  -17.2859 N   0  0  0  0  0  0  0  0  0  0  0  0
   27.4859  -22.0138  -15.6630 C   0  0  0  0  0  0  0  0  0  0  0  0
   27.0824  -23.1439  -15.2504 O   0  0  0  0  0  0  0  0  0  0  0  0
   27.1499  -20.8350  -14.9738 N   0  0  0  0  0  0  0  0  0  0  0  0
   26.4192  -20.9419  -13.7021 C   0  0  1  0  0  0  0  0  0  0  0  0
   27.0008  -19.8882  -12.8292 C   0  0  0  0  0  0  0  0  0  0  0  0
   27.6578  -20.3401  -11.5993 C   0  0  0  0  0  0  0  0  0  0  0  0
   28.9594  -20.8331  -11.4987 C   0  0  0  0  0  0  0  0  0  0  0  0
   29.2045  -21.1739  -10.2232 N   0  0  0  0  0  0  0  0  0  0  0  0
   28.1132  -20.9225   -9.4836 C   0  0  0  0  0  0  0  0  0  0  0  0
   27.8876  -21.0962   -8.1181 C   0  0  0  0  0  0  0  0  0  0  0  0
   26.6796  -20.7523   -7.5540 C   0  0  0  0  0  0  0  0  0  0  0  0
   25.7235  -20.2374   -8.3926 C   0  0  0  0  0  0  0  0  0  0  0  0
   25.9514  -20.0685   -9.7414 C   0  0  0  0  0  0  0  0  0  0  0  0
   27.1446  -20.4035  -10.3273 C   0  0  0  0  0  0  0  0  0  0  0  0
   24.9930  -20.8650  -13.9959 C   0  0  0  0  0  0  0  0  0  0  0  0
   24.5296  -20.2131  -14.9618 O   0  0  0  0  0  0  0  0  0  0  0  0
   19.7802  -23.2856  -13.9655 N   0  0  0  0  0  0  0  0  0  0  0  0
   20.4803  -22.5475  -12.9757 C   0  0  0  0  0  0  0  0  0  0  0  0
   19.7545  -21.8020  -12.2476 O   0  0  0  0  0  0  0  0  0  0  0  0
   21.9299  -22.6225  -12.7836 C   0  0  0  0  0  0  0  0  0  0  0  0
   22.6297  -21.4899  -13.5161 C   0  0  2  0  0  0  0  0  0  0  0  0
   24.0630  -21.5463  -13.1721 N   0  0  0  0  0  0  0  0  0  0  0  0
   22.1478  -20.2114  -12.9513 C   0  0  0  0  0  0  0  0  0  0  0  0
   21.1350  -19.5121  -13.5667 O   0  0  0  0  0  0  0  0  0  0  0  0
   22.6634  -19.7640  -11.9091 O   0  0  0  0  0  0  0  0  0  0  0  0
  2  1  1  0
  3  5  1  0
  3  2  1  0
  3  4  1  6
  5  6  2  0
  7  8  1  0
  7  5  1  0
  8  9  1  1
 10 18  1  0
 10  9  1  0
 11 10  2  0
 12 11  1  0
 12 13  1  0
 13 18  2  0
 14 13  1  0
 14 15  2  0
 15 16  1  0
 16 17  2  0
 18 17  1  0
 19 26  1  0
 19  8  1  0
 20 19  2  0
 22 21  1  0
 23 22  2  0
 24 22  1  0
 25 24  1  1
 25 26  1  0
 27 25  1  0
 27 28  1  0
 29 27  2  0
M  END
$$$$
