YHH.pdb
     RDKit          3D

 33 35  0  0  1  0  0  0  0  0999 V2000
    5.8994  -12.4225   17.8469 O   0  0  0  0  0  0  0  0  0  0  0  0
    7.0659  -13.1644   17.7441 C   0  0  0  0  0  0  0  0  0  0  0  0
    6.9783  -14.4341   17.2257 C   0  0  0  0  0  0  0  0  0  0  0  0
    8.1269  -15.1763   17.1199 C   0  0  0  0  0  0  0  0  0  0  0  0
    9.3342  -14.6495   17.5276 C   0  0  0  0  0  0  0  0  0  0  0  0
   10.5584  -15.4876   17.3962 C   0  0  0  0  0  0  0  0  0  0  0  0
   11.4739  -15.3086   18.5611 C   0  0  2  0  0  0  0  0  0  0  0  0
   11.2784  -14.0830   19.2720 N   0  0  0  0  0  0  0  0  0  0  0  0
   12.8709  -15.4986   18.1035 C   0  0  0  0  0  0  0  0  0  0  0  0
   13.1230  -16.5944   17.5149 O   0  0  0  0  0  0  0  0  0  0  0  0
    9.3969  -13.3852   18.0398 C   0  0  0  0  0  0  0  0  0  0  0  0
    8.2632  -12.6239   18.1556 C   0  0  0  0  0  0  0  0  0  0  0  0
   13.8980  -14.5385   18.2911 N   0  0  0  0  0  0  0  0  0  0  0  0
   15.2270  -14.8475   17.8537 C   0  0  1  0  0  0  0  0  0  0  0  0
   16.0038  -13.6688   17.3695 C   0  0  0  0  0  0  0  0  0  0  0  0
   16.0262  -13.5135   15.9041 C   0  0  0  0  0  0  0  0  0  0  0  0
   15.3849  -14.4088   15.0702 C   0  0  0  0  0  0  0  0  0  0  0  0
   15.5952  -13.9878   13.8074 N   0  0  0  0  0  0  0  0  0  0  0  0
   16.3364  -12.8739   13.8151 C   0  0  0  0  0  0  0  0  0  0  0  0
   16.5826  -12.6111   15.1105 N   0  0  0  0  0  0  0  0  0  0  0  0
   15.9229  -15.5824   18.9538 C   0  0  0  0  0  0  0  0  0  0  0  0
   15.9059  -15.1480   20.1348 O   0  0  0  0  0  0  0  0  0  0  0  0
   16.6257  -16.7895   18.7157 N   0  0  0  0  0  0  0  0  0  0  0  0
   17.0043  -17.7001   19.8304 C   0  0  1  0  0  0  0  0  0  0  0  0
   15.7053  -18.3304   20.2668 C   0  0  0  0  0  0  0  0  0  0  0  0
   15.8374  -19.4492   21.2048 C   0  0  0  0  0  0  0  0  0  0  0  0
   16.0279  -19.2430   22.5675 C   0  0  0  0  0  0  0  0  0  0  0  0
   16.1114  -20.4402   23.1583 N   0  0  0  0  0  0  0  0  0  0  0  0
   15.9794  -21.3558   22.2095 C   0  0  0  0  0  0  0  0  0  0  0  0
   15.8127  -20.7658   21.0208 N   0  0  0  0  0  0  0  0  0  0  0  0
   18.0160  -18.6550   19.3590 C   0  0  0  0  0  0  0  0  0  0  0  0
   18.5624  -19.4266   20.1863 O   0  0  0  0  0  0  0  0  0  0  0  0
   18.4007  -18.7511   18.0456 O   0  0  0  0  0  0  0  0  0  0  0  0
  2  3  2  0
  2  1  1  0
  4  3  1  0
  5  4  2  0
  6  7  1  0
  6  5  1  0
  7  8  1  6
  9  7  1  0
  9 10  2  0
 11  5  1  0
 11 12  2  0
 12  2  1  0
 13  9  1  0
 14 13  1  0
 14 15  1  1
 16 15  1  0
 17 16  2  0
 18 19  1  0
 18 17  1  0
 19 20  2  0
 20 16  1  0
 21 14  1  0
 22 21  2  0
 23 21  1  0
 24 23  1  0
 24 25  1  6
 25 26  1  0
 26 27  2  0
 26 30  1  0
 27 28  1  0
 28 29  1  0
 30 29  2  0
 31 24  1  0
 32 31  2  0
 33 31  1  0
M  END
$$$$
