YHH.pdb
     RDKit          3D

 33 35  0  0  1  0  0  0  0  0999 V2000
    5.9730  -10.7439   28.6731 O   0  0  0  0  0  0  0  0  0  0  0  0
    6.4464  -11.7511   27.8466 C   0  0  0  0  0  0  0  0  0  0  0  0
    7.2938  -12.6862   28.3908 C   0  0  0  0  0  0  0  0  0  0  0  0
    7.7677  -13.6869   27.5813 C   0  0  0  0  0  0  0  0  0  0  0  0
    7.3951  -13.7421   26.2547 C   0  0  0  0  0  0  0  0  0  0  0  0
    7.9314  -14.8445   25.4090 C   0  0  0  0  0  0  0  0  0  0  0  0
    6.8347  -15.6627   24.8132 C   0  0  2  0  0  0  0  0  0  0  0  0
    6.3261  -16.6765   25.6845 N   0  0  0  0  0  0  0  0  0  0  0  0
    7.2919  -16.1944   23.5073 C   0  0  0  0  0  0  0  0  0  0  0  0
    7.6545  -17.4106   23.4941 O   0  0  0  0  0  0  0  0  0  0  0  0
    6.5517  -12.8017   25.7359 C   0  0  0  0  0  0  0  0  0  0  0  0
    6.0649  -11.7922   26.5245 C   0  0  0  0  0  0  0  0  0  0  0  0
    7.3378  -15.4248   22.3167 N   0  0  0  0  0  0  0  0  0  0  0  0
    7.8461  -16.0258   21.1195 C   0  0  1  0  0  0  0  0  0  0  0  0
    7.5260  -15.2734   19.8710 C   0  0  0  0  0  0  0  0  0  0  0  0
    7.9761  -15.9303   18.6309 C   0  0  0  0  0  0  0  0  0  0  0  0
    7.1796  -16.8388   17.9613 C   0  0  0  0  0  0  0  0  0  0  0  0
    7.8748  -17.2488   16.8821 N   0  0  0  0  0  0  0  0  0  0  0  0
    9.0654  -16.6393   16.8476 C   0  0  0  0  0  0  0  0  0  0  0  0
    9.0957  -15.8411   17.9292 N   0  0  0  0  0  0  0  0  0  0  0  0
    9.3135  -16.2506   21.2952 C   0  0  0  0  0  0  0  0  0  0  0  0
    9.9431  -15.7090   22.2407 O   0  0  0  0  0  0  0  0  0  0  0  0
   10.0521  -17.0765   20.4119 N   0  0  0  0  0  0  0  0  0  0  0  0
   11.3929  -17.6056   20.7825 C   0  0  1  0  0  0  0  0  0  0  0  0
   11.1514  -18.4187   22.0298 C   0  0  0  0  0  0  0  0  0  0  0  0
   11.4754  -17.7424   23.2894 C   0  0  0  0  0  0  0  0  0  0  0  0
   11.8201  -16.3950   23.3288 C   0  0  0  0  0  0  0  0  0  0  0  0
   12.0581  -16.0671   24.6037 N   0  0  0  0  0  0  0  0  0  0  0  0
   11.8712  -17.1590   25.3309 C   0  0  0  0  0  0  0  0  0  0  0  0
   11.5175  -18.1810   24.5439 N   0  0  0  0  0  0  0  0  0  0  0  0
   11.9454  -18.3691   19.6558 C   0  0  0  0  0  0  0  0  0  0  0  0
   11.1604  -18.9558   18.8699 O   0  0  0  0  0  0  0  0  0  0  0  0
   13.2914  -18.4764   19.4122 O   0  0  0  0  0  0  0  0  0  0  0  0
  2  3  2  0
  2  1  1  0
  4  3  1  0
  5  4  2  0
  6  7  1  0
  6  5  1  0
  7  8  1  1
  9  7  1  0
  9 10  2  0
 11  5  1  0
 11 12  2  0
 12  2  1  0
 13  9  1  0
 14 13  1  0
 14 15  1  6
 16 15  1  0
 17 16  2  0
 18 19  1  0
 18 17  1  0
 19 20  2  0
 20 16  1  0
 21 14  1  0
 22 21  2  0
 23 21  1  0
 24 23  1  0
 24 25  1  1
 25 26  1  0
 26 27  2  0
 26 30  1  0
 27 28  1  0
 28 29  1  0
 30 29  2  0
 31 24  1  0
 32 31  2  0
 33 31  1  0
M  END
$$$$
