YHH.pdb
     RDKit          3D

 33 35  0  0  1  0  0  0  0  0999 V2000
    5.3021  -10.0372   27.8218 O   0  0  0  0  0  0  0  0  0  0  0  0
    5.9095  -11.1578   27.2768 C   0  0  0  0  0  0  0  0  0  0  0  0
    5.7468  -12.3584   27.9253 C   0  0  0  0  0  0  0  0  0  0  0  0
    6.3438  -13.4731   27.3941 C   0  0  0  0  0  0  0  0  0  0  0  0
    7.0869  -13.3779   26.2363 C   0  0  0  0  0  0  0  0  0  0  0  0
    7.7191  -14.6116   25.6917 C   0  0  0  0  0  0  0  0  0  0  0  0
    6.7790  -15.3685   24.8137 C   0  0  2  0  0  0  0  0  0  0  0  0
    6.0065  -16.3555   25.5027 N   0  0  0  0  0  0  0  0  0  0  0  0
    7.5379  -15.9209   23.6666 C   0  0  0  0  0  0  0  0  0  0  0  0
    7.5189  -17.1835   23.5388 O   0  0  0  0  0  0  0  0  0  0  0  0
    7.2348  -12.1740   25.6091 C   0  0  0  0  0  0  0  0  0  0  0  0
    6.6480  -11.0459   26.1204 C   0  0  0  0  0  0  0  0  0  0  0  0
    8.2575  -15.1224   22.7412 N   0  0  0  0  0  0  0  0  0  0  0  0
    8.6348  -15.6886   21.4802 C   0  0  1  0  0  0  0  0  0  0  0  0
    8.3777  -14.8023   20.3074 C   0  0  0  0  0  0  0  0  0  0  0  0
    8.7852  -15.3727   19.0111 C   0  0  0  0  0  0  0  0  0  0  0  0
    9.8888  -14.9019   18.3265 C   0  0  0  0  0  0  0  0  0  0  0  0
    9.9854  -15.6257   17.1938 N   0  0  0  0  0  0  0  0  0  0  0  0
    8.9954  -16.5241   17.1405 C   0  0  0  0  0  0  0  0  0  0  0  0
    8.2806  -16.3434   18.2648 N   0  0  0  0  0  0  0  0  0  0  0  0
   10.0623  -16.1233   21.5706 C   0  0  0  0  0  0  0  0  0  0  0  0
   10.6439  -16.6459   20.5845 O   0  0  0  0  0  0  0  0  0  0  0  0
   10.8152  -15.9666   22.7608 N   0  0  0  0  0  0  0  0  0  0  0  0
   12.2056  -16.4853   22.8736 C   0  0  1  0  0  0  0  0  0  0  0  0
   12.0432  -17.9264   23.2885 C   0  0  0  0  0  0  0  0  0  0  0  0
   11.3524  -18.1357   24.5643 C   0  0  0  0  0  0  0  0  0  0  0  0
   10.9586  -17.0694   25.3667 C   0  0  0  0  0  0  0  0  0  0  0  0
   10.3594  -17.5696   26.4530 N   0  0  0  0  0  0  0  0  0  0  0  0
   10.3765  -18.8896   26.3374 C   0  0  0  0  0  0  0  0  0  0  0  0
   10.9764  -19.2438   25.1957 N   0  0  0  0  0  0  0  0  0  0  0  0
   12.9034  -16.2949   21.5952 C   0  0  0  0  0  0  0  0  0  0  0  0
   13.8442  -15.4650   21.5286 O   0  0  0  0  0  0  0  0  0  0  0  0
   12.5786  -16.9850   20.4547 O   0  0  0  0  0  0  0  0  0  0  0  0
  2  3  2  0
  2  1  1  0
  4  3  1  0
  5  4  2  0
  6  7  1  0
  6  5  1  0
  7  8  1  1
  9  7  1  0
  9 10  2  0
 11  5  1  0
 11 12  2  0
 12  2  1  0
 13  9  1  0
 14 13  1  0
 14 15  1  6
 16 15  1  0
 17 16  2  0
 18 19  1  0
 18 17  1  0
 19 20  2  0
 20 16  1  0
 21 14  1  0
 22 21  2  0
 23 21  1  0
 24 23  1  0
 24 25  1  6
 25 26  1  0
 26 27  2  0
 26 30  1  0
 27 28  1  0
 28 29  1  0
 30 29  2  0
 31 24  1  0
 32 31  2  0
 33 31  1  0
M  END
$$$$
