YHH.pdb
     RDKit          3D

 33 35  0  0  1  0  0  0  0  0999 V2000
    6.0988  -12.8108   20.4048 O   0  0  0  0  0  0  0  0  0  0  0  0
    7.4141  -13.1887   20.1841 C   0  0  0  0  0  0  0  0  0  0  0  0
    8.1139  -12.5392   19.1956 C   0  0  0  0  0  0  0  0  0  0  0  0
    9.4161  -12.9059   18.9694 C   0  0  0  0  0  0  0  0  0  0  0  0
    9.9975  -13.9038   19.7228 C   0  0  0  0  0  0  0  0  0  0  0  0
   11.4137  -14.2726   19.4461 C   0  0  0  0  0  0  0  0  0  0  0  0
   11.5690  -14.8759   18.0899 C   0  0  2  0  0  0  0  0  0  0  0  0
   10.5922  -15.8744   17.7820 N   0  0  0  0  0  0  0  0  0  0  0  0
   12.9620  -15.3598   17.9398 C   0  0  0  0  0  0  0  0  0  0  0  0
   13.1582  -16.5881   18.1923 O   0  0  0  0  0  0  0  0  0  0  0  0
    9.2825  -14.5353   20.6999 C   0  0  0  0  0  0  0  0  0  0  0  0
    7.9799  -14.1868   20.9449 C   0  0  0  0  0  0  0  0  0  0  0  0
   14.0433  -14.5335   17.5400 N   0  0  0  0  0  0  0  0  0  0  0  0
   15.3335  -15.1244   17.3418 C   0  0  1  0  0  0  0  0  0  0  0  0
   16.1171  -14.5265   16.2211 C   0  0  0  0  0  0  0  0  0  0  0  0
   15.6324  -14.8882   14.8772 C   0  0  0  0  0  0  0  0  0  0  0  0
   15.6182  -16.1984   14.4398 C   0  0  0  0  0  0  0  0  0  0  0  0
   15.1240  -16.1877   13.1861 N   0  0  0  0  0  0  0  0  0  0  0  0
   14.8300  -14.9342   12.8222 C   0  0  0  0  0  0  0  0  0  0  0  0
   15.1521  -14.1653   13.8770 N   0  0  0  0  0  0  0  0  0  0  0  0
   16.0699  -15.0877   18.6422 C   0  0  0  0  0  0  0  0  0  0  0  0
   15.9311  -14.1228   19.4381 O   0  0  0  0  0  0  0  0  0  0  0  0
   16.9485  -16.1293   19.0309 N   0  0  0  0  0  0  0  0  0  0  0  0
   17.7727  -16.0291   20.2661 C   0  0  1  0  0  0  0  0  0  0  0  0
   17.9068  -17.4507   20.7522 C   0  0  0  0  0  0  0  0  0  0  0  0
   16.7555  -17.9675   21.4981 C   0  0  0  0  0  0  0  0  0  0  0  0
   15.6754  -17.1563   21.8311 C   0  0  0  0  0  0  0  0  0  0  0  0
   14.7909  -17.9019   22.5027 N   0  0  0  0  0  0  0  0  0  0  0  0
   15.2932  -19.1252   22.5872 C   0  0  0  0  0  0  0  0  0  0  0  0
   16.4845  -19.1763   21.9813 N   0  0  0  0  0  0  0  0  0  0  0  0
   19.0474  -15.3709   19.9509 C   0  0  0  0  0  0  0  0  0  0  0  0
   19.2890  -15.0408   18.7631 O   0  0  0  0  0  0  0  0  0  0  0  0
   20.0008  -15.0928   20.8975 O   0  0  0  0  0  0  0  0  0  0  0  0
  2  3  2  0
  2  1  1  0
  4  3  1  0
  5  4  2  0
  6  7  1  0
  6  5  1  0
  7  8  1  1
  9  7  1  0
  9 10  2  0
 11  5  1  0
 11 12  2  0
 12  2  1  0
 13  9  1  0
 14 13  1  0
 14 15  1  6
 16 15  1  0
 17 16  2  0
 18 19  1  0
 18 17  1  0
 19 20  2  0
 20 16  1  0
 21 14  1  0
 22 21  2  0
 23 21  1  0
 24 23  1  0
 24 25  1  6
 25 26  1  0
 26 27  2  0
 26 30  1  0
 27 28  1  0
 28 29  1  0
 30 29  2  0
 31 24  1  0
 32 31  2  0
 33 31  1  0
M  END
$$$$
