YHH.pdb
     RDKit          3D

 33 35  0  0  1  0  0  0  0  0999 V2000
    7.2531  -10.7787   26.5871 O   0  0  0  0  0  0  0  0  0  0  0  0
    7.2528  -12.1636   26.5266 C   0  0  0  0  0  0  0  0  0  0  0  0
    6.0422  -12.8110   26.5892 C   0  0  0  0  0  0  0  0  0  0  0  0
    6.0312  -14.1813   26.5301 C   0  0  0  0  0  0  0  0  0  0  0  0
    7.2136  -14.8807   26.4107 C   0  0  0  0  0  0  0  0  0  0  0  0
    7.1589  -16.3679   26.3498 C   0  0  0  0  0  0  0  0  0  0  0  0
    6.3544  -16.8404   25.1850 C   0  0  2  0  0  0  0  0  0  0  0  0
    5.9195  -18.1988   25.2910 N   0  0  0  0  0  0  0  0  0  0  0  0
    7.1117  -16.5680   23.9403 C   0  0  0  0  0  0  0  0  0  0  0  0
    7.9033  -17.4824   23.5552 O   0  0  0  0  0  0  0  0  0  0  0  0
    8.4048  -14.2159   26.3504 C   0  0  0  0  0  0  0  0  0  0  0  0
    8.4418  -12.8471   26.4074 C   0  0  0  0  0  0  0  0  0  0  0  0
    6.9902  -15.3695   23.1914 N   0  0  0  0  0  0  0  0  0  0  0  0
    7.7156  -15.2410   21.9624 C   0  0  1  0  0  0  0  0  0  0  0  0
    7.3380  -14.0486   21.1483 C   0  0  0  0  0  0  0  0  0  0  0  0
    7.9956  -13.9763   19.8314 C   0  0  0  0  0  0  0  0  0  0  0  0
    7.3984  -14.4836   18.6938 C   0  0  0  0  0  0  0  0  0  0  0  0
    8.2488  -14.2611   17.6723 N   0  0  0  0  0  0  0  0  0  0  0  0
    9.3463  -13.6400   18.1193 C   0  0  0  0  0  0  0  0  0  0  0  0
    9.1601  -13.4808   19.4412 N   0  0  0  0  0  0  0  0  0  0  0  0
    9.1769  -15.2850   22.2745 C   0  0  0  0  0  0  0  0  0  0  0  0
    9.6338  -14.7419   23.3138 O   0  0  0  0  0  0  0  0  0  0  0  0
   10.1022  -15.9348   21.4205 N   0  0  0  0  0  0  0  0  0  0  0  0
   11.5695  -15.8399   21.6503 C   0  0  1  0  0  0  0  0  0  0  0  0
   12.0184  -17.2663   21.8477 C   0  0  0  0  0  0  0  0  0  0  0  0
   11.7529  -17.8272   23.1758 C   0  0  0  0  0  0  0  0  0  0  0  0
   11.7722  -17.0372   24.3209 C   0  0  0  0  0  0  0  0  0  0  0  0
   11.4959  -17.8219   25.3684 N   0  0  0  0  0  0  0  0  0  0  0  0
   11.3116  -19.0484   24.9017 C   0  0  0  0  0  0  0  0  0  0  0  0
   11.4651  -19.0630   23.5732 N   0  0  0  0  0  0  0  0  0  0  0  0
   12.1990  -15.1557   20.5132 C   0  0  0  0  0  0  0  0  0  0  0  0
   11.5020  -14.8709   19.5075 O   0  0  0  0  0  0  0  0  0  0  0  0
   13.5254  -14.8054   20.4907 O   0  0  0  0  0  0  0  0  0  0  0  0
  2  3  2  0
  2  1  1  0
  4  3  1  0
  5  4  2  0
  6  7  1  0
  6  5  1  0
  7  8  1  1
  9  7  1  0
  9 10  2  0
 11  5  1  0
 11 12  2  0
 12  2  1  0
 13  9  1  0
 14 13  1  0
 14 15  1  1
 16 15  1  0
 17 16  2  0
 18 19  1  0
 18 17  1  0
 19 20  2  0
 20 16  1  0
 21 14  1  0
 22 21  2  0
 23 21  1  0
 24 23  1  0
 24 25  1  6
 25 26  1  0
 26 27  2  0
 26 30  1  0
 27 28  1  0
 28 29  1  0
 30 29  2  0
 31 24  1  0
 32 31  2  0
 33 31  1  0
M  END
$$$$
