YHH.pdb
     RDKit          3D

 33 35  0  0  1  0  0  0  0  0999 V2000
    9.5865  -12.2435    6.9512 O   0  0  0  0  0  0  0  0  0  0  0  0
    9.6698  -12.7534    8.2375 C   0  0  0  0  0  0  0  0  0  0  0  0
   10.3812  -12.0369    9.1698 C   0  0  0  0  0  0  0  0  0  0  0  0
   10.4696  -12.5330   10.4455 C   0  0  0  0  0  0  0  0  0  0  0  0
    9.8547  -13.7234   10.7718 C   0  0  0  0  0  0  0  0  0  0  0  0
    9.9744  -14.2281   12.1680 C   0  0  0  0  0  0  0  0  0  0  0  0
    8.7438  -13.9422   12.9624 C   0  0  2  0  0  0  0  0  0  0  0  0
    8.4707  -12.5484   13.1308 N   0  0  0  0  0  0  0  0  0  0  0  0
    8.8235  -14.6781   14.2466 C   0  0  0  0  0  0  0  0  0  0  0  0
    9.4622  -14.1049   15.1816 O   0  0  0  0  0  0  0  0  0  0  0  0
    9.1531  -14.4182    9.8286 C   0  0  0  0  0  0  0  0  0  0  0  0
    9.0504  -13.9431    8.5472 C   0  0  0  0  0  0  0  0  0  0  0  0
    8.2353  -15.9507   14.4622 N   0  0  0  0  0  0  0  0  0  0  0  0
    8.3848  -16.5781   15.7417 C   0  0  1  0  0  0  0  0  0  0  0  0
    7.3968  -17.6632   16.0129 C   0  0  0  0  0  0  0  0  0  0  0  0
    7.6240  -18.3939   17.2723 C   0  0  0  0  0  0  0  0  0  0  0  0
    8.0307  -19.7140   17.2815 C   0  0  0  0  0  0  0  0  0  0  0  0
    8.1455  -20.0797   18.5735 N   0  0  0  0  0  0  0  0  0  0  0  0
    7.8299  -19.0511   19.3687 C   0  0  0  0  0  0  0  0  0  0  0  0
    7.5161  -18.0374   18.5432 N   0  0  0  0  0  0  0  0  0  0  0  0
    9.7996  -17.0426   15.8728 C   0  0  0  0  0  0  0  0  0  0  0  0
   10.5474  -17.1337   14.8647 O   0  0  0  0  0  0  0  0  0  0  0  0
   10.3545  -17.3973   17.1275 N   0  0  0  0  0  0  0  0  0  0  0  0
   11.7188  -17.9821   17.2354 C   0  0  1  0  0  0  0  0  0  0  0  0
   12.6206  -16.9737   16.5683 C   0  0  0  0  0  0  0  0  0  0  0  0
   14.0428  -17.3280   16.5417 C   0  0  0  0  0  0  0  0  0  0  0  0
   14.8961  -16.8558   15.5495 C   0  0  0  0  0  0  0  0  0  0  0  0
   16.1181  -17.3443   15.7892 N   0  0  0  0  0  0  0  0  0  0  0  0
   16.0352  -18.0891   16.8821 C   0  0  0  0  0  0  0  0  0  0  0  0
   14.7811  -18.0862   17.3468 N   0  0  0  0  0  0  0  0  0  0  0  0
   12.0308  -18.2370   18.6479 C   0  0  0  0  0  0  0  0  0  0  0  0
   13.1644  -18.6837   18.9539 O   0  0  0  0  0  0  0  0  0  0  0  0
   11.1383  -18.0094   19.6649 O   0  0  0  0  0  0  0  0  0  0  0  0
  2  3  2  0
  2  1  1  0
  4  3  1  0
  5  4  2  0
  6  7  1  0
  6  5  1  0
  7  8  1  1
  9  7  1  0
  9 10  2  0
 11  5  1  0
 11 12  2  0
 12  2  1  0
 13  9  1  0
 14 13  1  0
 14 15  1  6
 16 15  1  0
 17 16  2  0
 18 19  1  0
 18 17  1  0
 19 20  2  0
 20 16  1  0
 21 14  1  0
 22 21  2  0
 23 21  1  0
 24 23  1  0
 24 25  1  1
 25 26  1  0
 26 27  2  0
 26 30  1  0
 27 28  1  0
 28 29  1  0
 30 29  2  0
 31 24  1  0
 32 31  2  0
 33 31  1  0
M  END
$$$$
