YHH.pdb
     RDKit          3D

 33 35  0  0  1  0  0  0  0  0999 V2000
    7.2532  -12.1276   16.8805 O   0  0  0  0  0  0  0  0  0  0  0  0
    7.6985  -13.1009   17.7615 C   0  0  0  0  0  0  0  0  0  0  0  0
    6.9880  -13.2932   18.9220 C   0  0  0  0  0  0  0  0  0  0  0  0
    7.4205  -14.2539   19.8003 C   0  0  0  0  0  0  0  0  0  0  0  0
    8.5428  -15.0021   19.5138 C   0  0  0  0  0  0  0  0  0  0  0  0
    8.9797  -16.0355   20.4934 C   0  0  0  0  0  0  0  0  0  0  0  0
    8.9997  -17.3971   19.8828 C   0  0  2  0  0  0  0  0  0  0  0  0
    7.7580  -17.7872   19.2899 N   0  0  0  0  0  0  0  0  0  0  0  0
    9.4916  -18.3651   20.8918 C   0  0  0  0  0  0  0  0  0  0  0  0
    8.6631  -19.2492   21.2697 O   0  0  0  0  0  0  0  0  0  0  0  0
    9.2329  -14.7934   18.3541 C   0  0  0  0  0  0  0  0  0  0  0  0
    8.8207  -13.8393   17.4607 C   0  0  0  0  0  0  0  0  0  0  0  0
   10.8033  -18.3418   21.4309 N   0  0  0  0  0  0  0  0  0  0  0  0
   11.2397  -19.4366   22.2458 C   0  0  1  0  0  0  0  0  0  0  0  0
   11.7146  -20.6238   21.4763 C   0  0  0  0  0  0  0  0  0  0  0  0
   10.6890  -21.2454   20.6197 C   0  0  0  0  0  0  0  0  0  0  0  0
    9.9724  -22.3517   21.0329 C   0  0  0  0  0  0  0  0  0  0  0  0
    9.1274  -22.6675   20.0317 N   0  0  0  0  0  0  0  0  0  0  0  0
    9.2835  -21.8113   19.0155 C   0  0  0  0  0  0  0  0  0  0  0  0
   10.2442  -20.9558   19.4064 N   0  0  0  0  0  0  0  0  0  0  0  0
   12.2653  -18.9257   23.2059 C   0  0  0  0  0  0  0  0  0  0  0  0
   13.2937  -18.3265   22.7970 O   0  0  0  0  0  0  0  0  0  0  0  0
   12.1244  -19.0929   24.6060 N   0  0  0  0  0  0  0  0  0  0  0  0
   12.9134  -20.1128   25.3492 C   0  0  1  0  0  0  0  0  0  0  0  0
   12.6653  -21.4026   24.6076 C   0  0  0  0  0  0  0  0  0  0  0  0
   11.5068  -22.1747   25.0666 C   0  0  0  0  0  0  0  0  0  0  0  0
   10.6183  -21.6696   26.0106 C   0  0  0  0  0  0  0  0  0  0  0  0
    9.6749  -22.5933   26.2251 N   0  0  0  0  0  0  0  0  0  0  0  0
    9.9586  -23.6307   25.4510 C   0  0  0  0  0  0  0  0  0  0  0  0
   11.0676  -23.3876   24.7441 N   0  0  0  0  0  0  0  0  0  0  0  0
   14.3222  -19.7002   25.3981 C   0  0  0  0  0  0  0  0  0  0  0  0
   15.0332  -19.8255   24.3699 O   0  0  0  0  0  0  0  0  0  0  0  0
   14.9109  -19.1773   26.5217 O   0  0  0  0  0  0  0  0  0  0  0  0
  2  3  2  0
  2  1  1  0
  4  3  1  0
  5  4  2  0
  6  7  1  0
  6  5  1  0
  7  8  1  1
  9  7  1  0
  9 10  2  0
 11  5  1  0
 11 12  2  0
 12  2  1  0
 13  9  1  0
 14 13  1  0
 14 15  1  6
 16 15  1  0
 17 16  2  0
 18 19  1  0
 18 17  1  0
 19 20  2  0
 20 16  1  0
 21 14  1  0
 22 21  2  0
 23 21  1  0
 24 23  1  0
 24 25  1  6
 25 26  1  0
 26 27  2  0
 26 30  1  0
 27 28  1  0
 28 29  1  0
 30 29  2  0
 31 24  1  0
 32 31  2  0
 33 31  1  0
M  END
$$$$
