YHH.pdb
     RDKit          3D

 33 35  0  0  1  0  0  0  0  0999 V2000
    6.3046  -12.7600   15.6271 O   0  0  0  0  0  0  0  0  0  0  0  0
    7.2045  -12.9545   16.6635 C   0  0  0  0  0  0  0  0  0  0  0  0
    8.4073  -13.5504   16.3691 C   0  0  0  0  0  0  0  0  0  0  0  0
    9.3045  -13.7473   17.3877 C   0  0  0  0  0  0  0  0  0  0  0  0
    8.9949  -13.3522   18.6720 C   0  0  0  0  0  0  0  0  0  0  0  0
    9.9962  -13.5838   19.7499 C   0  0  0  0  0  0  0  0  0  0  0  0
   10.8138  -14.8043   19.4868 C   0  0  2  0  0  0  0  0  0  0  0  0
   10.4044  -15.5408   18.3311 N   0  0  0  0  0  0  0  0  0  0  0  0
   10.8506  -15.6283   20.7183 C   0  0  0  0  0  0  0  0  0  0  0  0
   11.2732  -15.0502   21.7662 O   0  0  0  0  0  0  0  0  0  0  0  0
    7.7932  -12.7620   18.9409 C   0  0  0  0  0  0  0  0  0  0  0  0
    6.8801  -12.5544   17.9402 C   0  0  0  0  0  0  0  0  0  0  0  0
   10.4466  -16.9870   20.7685 N   0  0  0  0  0  0  0  0  0  0  0  0
   10.6278  -17.7218   21.9852 C   0  0  1  0  0  0  0  0  0  0  0  0
    9.8897  -19.0180   22.0355 C   0  0  0  0  0  0  0  0  0  0  0  0
   10.0900  -19.7859   23.2773 C   0  0  0  0  0  0  0  0  0  0  0  0
   10.0260  -19.1852   24.5196 C   0  0  0  0  0  0  0  0  0  0  0  0
   10.2506  -20.1500   25.4334 N   0  0  0  0  0  0  0  0  0  0  0  0
   10.4512  -21.3219   24.8198 C   0  0  0  0  0  0  0  0  0  0  0  0
   10.3466  -21.0651   23.5042 N   0  0  0  0  0  0  0  0  0  0  0  0
   12.0952  -17.8861   22.2187 C   0  0  0  0  0  0  0  0  0  0  0  0
   12.9067  -17.8986   21.2569 O   0  0  0  0  0  0  0  0  0  0  0  0
   12.6305  -18.0337   23.5224 N   0  0  0  0  0  0  0  0  0  0  0  0
   14.0811  -18.2836   23.7420 C   0  0  1  0  0  0  0  0  0  0  0  0
   14.7663  -17.0500   23.2090 C   0  0  0  0  0  0  0  0  0  0  0  0
   16.2197  -17.0118   23.3965 C   0  0  0  0  0  0  0  0  0  0  0  0
   16.8030  -17.2339   24.6399 C   0  0  0  0  0  0  0  0  0  0  0  0
   18.1294  -17.1353   24.4970 N   0  0  0  0  0  0  0  0  0  0  0  0
   18.3673  -16.8637   23.2220 C   0  0  0  0  0  0  0  0  0  0  0  0
   17.2162  -16.7866   22.5455 N   0  0  0  0  0  0  0  0  0  0  0  0
   14.3215  -18.5454   25.1672 C   0  0  0  0  0  0  0  0  0  0  0  0
   13.4739  -18.1625   26.0118 O   0  0  0  0  0  0  0  0  0  0  0  0
   15.4370  -19.1953   25.6315 O   0  0  0  0  0  0  0  0  0  0  0  0
  2  3  2  0
  2  1  1  0
  4  3  1  0
  5  4  2  0
  6  7  1  0
  6  5  1  0
  7  8  1  6
  9  7  1  0
  9 10  2  0
 11  5  1  0
 11 12  2  0
 12  2  1  0
 13  9  1  0
 14 13  1  0
 14 15  1  6
 16 15  1  0
 17 16  2  0
 18 19  1  0
 18 17  1  0
 19 20  2  0
 20 16  1  0
 21 14  1  0
 22 21  2  0
 23 21  1  0
 24 23  1  0
 24 25  1  1
 25 26  1  0
 26 27  2  0
 26 30  1  0
 27 28  1  0
 28 29  1  0
 30 29  2  0
 31 24  1  0
 32 31  2  0
 33 31  1  0
M  END
$$$$
