YHH.pdb
     RDKit          3D

 33 35  0  0  1  0  0  0  0  0999 V2000
    9.4742  -12.0822   17.9458 O   0  0  0  0  0  0  0  0  0  0  0  0
    8.8266  -12.7171   18.9942 C   0  0  0  0  0  0  0  0  0  0  0  0
    9.5965  -13.2358   20.0075 C   0  0  0  0  0  0  0  0  0  0  0  0
    8.9651  -13.8659   21.0495 C   0  0  0  0  0  0  0  0  0  0  0  0
    7.5902  -13.9696   21.0679 C   0  0  0  0  0  0  0  0  0  0  0  0
    6.9429  -14.6613   22.2173 C   0  0  0  0  0  0  0  0  0  0  0  0
    7.1285  -16.1403   22.1432 C   0  0  2  0  0  0  0  0  0  0  0  0
    6.6288  -16.7299   20.9397 N   0  0  0  0  0  0  0  0  0  0  0  0
    6.5642  -16.7537   23.3689 C   0  0  0  0  0  0  0  0  0  0  0  0
    5.3501  -17.1182   23.3044 O   0  0  0  0  0  0  0  0  0  0  0  0
    6.8457  -13.4464   20.0498 C   0  0  0  0  0  0  0  0  0  0  0  0
    7.4533  -12.8123   18.9977 C   0  0  0  0  0  0  0  0  0  0  0  0
    7.3014  -16.9418   24.5660 N   0  0  0  0  0  0  0  0  0  0  0  0
    7.5103  -18.2735   25.0519 C   0  0  1  0  0  0  0  0  0  0  0  0
    7.8716  -19.2633   23.9950 C   0  0  0  0  0  0  0  0  0  0  0  0
    7.9918  -20.6514   24.4752 C   0  0  0  0  0  0  0  0  0  0  0  0
    6.8878  -21.4710   24.6076 C   0  0  0  0  0  0  0  0  0  0  0  0
    7.3337  -22.6586   25.0624 N   0  0  0  0  0  0  0  0  0  0  0  0
    8.6618  -22.6177   25.2194 C   0  0  0  0  0  0  0  0  0  0  0  0
    9.0324  -21.3785   24.8523 N   0  0  0  0  0  0  0  0  0  0  0  0
    8.5176  -18.2165   26.1550 C   0  0  0  0  0  0  0  0  0  0  0  0
    9.7497  -18.1607   25.9048 O   0  0  0  0  0  0  0  0  0  0  0  0
    8.1311  -18.2229   27.5183 N   0  0  0  0  0  0  0  0  0  0  0  0
    9.0268  -18.7644   28.5764 C   0  0  1  0  0  0  0  0  0  0  0  0
    9.1225  -20.2398   28.2778 C   0  0  0  0  0  0  0  0  0  0  0  0
    7.8651  -20.9842   28.3950 C   0  0  0  0  0  0  0  0  0  0  0  0
    6.7004  -20.3840   28.8631 C   0  0  0  0  0  0  0  0  0  0  0  0
    5.7303  -21.3050   28.8568 N   0  0  0  0  0  0  0  0  0  0  0  0
    6.2621  -22.4316   28.4052 C   0  0  0  0  0  0  0  0  0  0  0  0
    7.5564  -22.2484   28.1221 N   0  0  0  0  0  0  0  0  0  0  0  0
   10.3108  -18.0518   28.5414 C   0  0  0  0  0  0  0  0  0  0  0  0
   10.6499  -17.3517   29.5279 O   0  0  0  0  0  0  0  0  0  0  0  0
   11.1716  -18.1116   27.4747 O   0  0  0  0  0  0  0  0  0  0  0  0
  2  3  2  0
  2  1  1  0
  4  3  1  0
  5  4  2  0
  6  7  1  0
  6  5  1  0
  7  8  1  6
  9  7  1  0
  9 10  2  0
 11  5  1  0
 11 12  2  0
 12  2  1  0
 13  9  1  0
 14 13  1  0
 14 15  1  6
 16 15  1  0
 17 16  2  0
 18 19  1  0
 18 17  1  0
 19 20  2  0
 20 16  1  0
 21 14  1  0
 22 21  2  0
 23 21  1  0
 24 23  1  0
 24 25  1  6
 25 26  1  0
 26 27  2  0
 26 30  1  0
 27 28  1  0
 28 29  1  0
 30 29  2  0
 31 24  1  0
 32 31  2  0
 33 31  1  0
M  END
$$$$
