YHH.pdb
     RDKit          3D

 33 35  0  0  1  0  0  0  0  0999 V2000
    7.1452  -12.6491   15.7978 O   0  0  0  0  0  0  0  0  0  0  0  0
    7.3608  -13.3121   16.9959 C   0  0  0  0  0  0  0  0  0  0  0  0
    6.9550  -14.6217   17.0897 C   0  0  0  0  0  0  0  0  0  0  0  0
    7.1638  -15.2865   18.2712 C   0  0  0  0  0  0  0  0  0  0  0  0
    7.7677  -14.6447   19.3318 C   0  0  0  0  0  0  0  0  0  0  0  0
    7.9765  -15.4015   20.5975 C   0  0  0  0  0  0  0  0  0  0  0  0
    9.4251  -15.6523   20.8546 C   0  0  2  0  0  0  0  0  0  0  0  0
   10.1598  -16.0578   19.6965 N   0  0  0  0  0  0  0  0  0  0  0  0
    9.5512  -16.6025   21.9852 C   0  0  0  0  0  0  0  0  0  0  0  0
    8.8707  -16.3325   23.0220 O   0  0  0  0  0  0  0  0  0  0  0  0
    8.1627  -13.3427   19.2154 C   0  0  0  0  0  0  0  0  0  0  0  0
    7.9649  -12.6572   18.0453 C   0  0  0  0  0  0  0  0  0  0  0  0
   10.3725  -17.7585   21.9538 N   0  0  0  0  0  0  0  0  0  0  0  0
   10.3759  -18.6400   23.0834 C   0  0  1  0  0  0  0  0  0  0  0  0
   11.1799  -19.8824   22.8905 C   0  0  0  0  0  0  0  0  0  0  0  0
   11.2409  -20.7591   24.0735 C   0  0  0  0  0  0  0  0  0  0  0  0
   12.3388  -20.7706   24.9117 C   0  0  0  0  0  0  0  0  0  0  0  0
   12.0808  -21.6685   25.8831 N   0  0  0  0  0  0  0  0  0  0  0  0
   10.8755  -22.2162   25.6898 C   0  0  0  0  0  0  0  0  0  0  0  0
   10.3892  -21.6395   24.5769 N   0  0  0  0  0  0  0  0  0  0  0  0
   10.8026  -17.8596   24.2849 C   0  0  0  0  0  0  0  0  0  0  0  0
   11.7164  -16.9978   24.2064 O   0  0  0  0  0  0  0  0  0  0  0  0
   10.2013  -18.0553   25.5530 N   0  0  0  0  0  0  0  0  0  0  0  0
   10.6771  -17.3241   26.7587 C   0  0  1  0  0  0  0  0  0  0  0  0
    9.9957  -15.9804   26.6844 C   0  0  0  0  0  0  0  0  0  0  0  0
   10.1184  -15.1500   27.8861 C   0  0  0  0  0  0  0  0  0  0  0  0
    9.0580  -14.3814   28.3558 C   0  0  0  0  0  0  0  0  0  0  0  0
    9.4683  -13.7406   29.4560 N   0  0  0  0  0  0  0  0  0  0  0  0
   10.7287  -14.0912   29.6669 C   0  0  0  0  0  0  0  0  0  0  0  0
   11.1331  -14.9456   28.7208 N   0  0  0  0  0  0  0  0  0  0  0  0
   10.3557  -18.1037   27.9614 C   0  0  0  0  0  0  0  0  0  0  0  0
    9.4358  -18.9578   27.9100 O   0  0  0  0  0  0  0  0  0  0  0  0
   11.0161  -17.9475   29.1538 O   0  0  0  0  0  0  0  0  0  0  0  0
  2  3  2  0
  2  1  1  0
  4  3  1  0
  5  4  2  0
  6  7  1  0
  6  5  1  0
  7  8  1  6
  9  7  1  0
  9 10  2  0
 11  5  1  0
 11 12  2  0
 12  2  1  0
 13  9  1  0
 14 13  1  0
 14 15  1  6
 16 15  1  0
 17 16  2  0
 18 19  1  0
 18 17  1  0
 19 20  2  0
 20 16  1  0
 21 14  1  0
 22 21  2  0
 23 21  1  0
 24 23  1  0
 24 25  1  1
 25 26  1  0
 26 27  2  0
 26 30  1  0
 27 28  1  0
 28 29  1  0
 30 29  2  0
 31 24  1  0
 32 31  2  0
 33 31  1  0
M  END
$$$$
