YHH.pdb
     RDKit          3D

 33 35  0  0  1  0  0  0  0  0999 V2000
    7.2793  -14.8675   15.3834 O   0  0  0  0  0  0  0  0  0  0  0  0
    7.8115  -14.4920   16.6071 C   0  0  0  0  0  0  0  0  0  0  0  0
    7.1271  -13.5587   17.3482 C   0  0  0  0  0  0  0  0  0  0  0  0
    7.6454  -13.1805   18.5605 C   0  0  0  0  0  0  0  0  0  0  0  0
    8.8258  -13.7311   19.0134 C   0  0  0  0  0  0  0  0  0  0  0  0
    9.3553  -13.2939   20.3350 C   0  0  0  0  0  0  0  0  0  0  0  0
   10.2918  -14.3025   20.9121 C   0  0  2  0  0  0  0  0  0  0  0  0
   10.9252  -15.1340   19.9359 N   0  0  0  0  0  0  0  0  0  0  0  0
    9.5773  -15.0737   21.9570 C   0  0  0  0  0  0  0  0  0  0  0  0
    8.9125  -14.3943   22.7980 O   0  0  0  0  0  0  0  0  0  0  0  0
    9.4885  -14.6570   18.2596 C   0  0  0  0  0  0  0  0  0  0  0  0
    8.9908  -15.0511   17.0450 C   0  0  0  0  0  0  0  0  0  0  0  0
    9.6069  -16.4888   22.0492 N   0  0  0  0  0  0  0  0  0  0  0  0
    8.8184  -17.1368   23.0549 C   0  0  1  0  0  0  0  0  0  0  0  0
    8.7667  -18.6232   22.9317 C   0  0  0  0  0  0  0  0  0  0  0  0
    7.9035  -19.2876   23.9243 C   0  0  0  0  0  0  0  0  0  0  0  0
    7.2328  -18.5717   24.8968 C   0  0  0  0  0  0  0  0  0  0  0  0
    6.5413  -19.4638   25.6332 N   0  0  0  0  0  0  0  0  0  0  0  0
    6.7492  -20.7001   25.1659 C   0  0  0  0  0  0  0  0  0  0  0  0
    7.5852  -20.5577   24.1226 N   0  0  0  0  0  0  0  0  0  0  0  0
    9.3069  -16.6874   24.3944 C   0  0  0  0  0  0  0  0  0  0  0  0
   10.5275  -16.4546   24.5940 O   0  0  0  0  0  0  0  0  0  0  0  0
    8.4237  -16.5059   25.4875 N   0  0  0  0  0  0  0  0  0  0  0  0
    8.9328  -16.2608   26.8643 C   0  0  1  0  0  0  0  0  0  0  0  0
    7.8290  -15.4937   27.5489 C   0  0  0  0  0  0  0  0  0  0  0  0
    7.5982  -14.1397   27.0369 C   0  0  0  0  0  0  0  0  0  0  0  0
    8.4056  -13.5830   26.0500 C   0  0  0  0  0  0  0  0  0  0  0  0
    7.9528  -12.3509   25.7928 N   0  0  0  0  0  0  0  0  0  0  0  0
    6.9089  -12.1439   26.5823 C   0  0  0  0  0  0  0  0  0  0  0  0
    6.6850  -13.2223   27.3411 N   0  0  0  0  0  0  0  0  0  0  0  0
    9.2658  -17.5435   27.4977 C   0  0  0  0  0  0  0  0  0  0  0  0
    8.9020  -18.6118   26.9458 O   0  0  0  0  0  0  0  0  0  0  0  0
    9.9633  -17.6385   28.6753 O   0  0  0  0  0  0  0  0  0  0  0  0
  2  3  2  0
  2  1  1  0
  4  3  1  0
  5  4  2  0
  6  7  1  0
  6  5  1  0
  7  8  1  6
  9  7  1  0
  9 10  2  0
 11  5  1  0
 11 12  2  0
 12  2  1  0
 13  9  1  0
 14 13  1  0
 14 15  1  1
 16 15  1  0
 17 16  2  0
 18 19  1  0
 18 17  1  0
 19 20  2  0
 20 16  1  0
 21 14  1  0
 22 21  2  0
 23 21  1  0
 24 23  1  0
 24 25  1  1
 25 26  1  0
 26 27  2  0
 26 30  1  0
 27 28  1  0
 28 29  1  0
 30 29  2  0
 31 24  1  0
 32 31  2  0
 33 31  1  0
M  END
$$$$
