AGT.pdb
     RDKit          3D

 17 16  0  0  1  0  0  0  0  0999 V2000
   17.4454  -12.9298  -15.8189 C   0  0  0  0  0  0  0  0  0  0  0  0
   18.3229  -11.9593  -16.5976 C   0  0  2  0  0  0  0  0  0  0  0  0
   19.7166  -12.3295  -16.4526 N   0  0  0  0  0  0  0  0  0  0  0  0
   18.1127  -10.6162  -16.0414 C   0  0  0  0  0  0  0  0  0  0  0  0
   16.9569  -10.0940  -16.0757 O   0  0  0  0  0  0  0  0  0  0  0  0
   19.1395   -9.8353  -15.4500 N   0  0  0  0  0  0  0  0  0  0  0  0
   18.8900   -8.5067  -14.9833 C   0  0  0  0  0  0  0  0  0  0  0  0
   20.0980   -7.9079  -14.3523 C   0  0  0  0  0  0  0  0  0  0  0  0
   20.5814   -8.4905  -13.3612 O   0  0  0  0  0  0  0  0  0  0  0  0
   23.2621   -7.2805  -16.0875 C   0  0  0  0  0  0  0  0  0  0  0  0
   22.9619   -5.9492  -15.4247 C   0  0  1  0  0  0  0  0  0  0  0  0
   22.4425   -5.1375  -16.4422 O   0  0  0  0  0  0  0  0  0  0  0  0
   21.9381   -6.1958  -14.3502 C   0  0  2  0  0  0  0  0  0  0  0  0
   20.7026   -6.7198  -14.8347 N   0  0  0  0  0  0  0  0  0  0  0  0
   21.7475   -4.9336  -13.5701 C   0  0  0  0  0  0  0  0  0  0  0  0
   22.8013   -4.4995  -12.8024 O   0  0  0  0  0  0  0  0  0  0  0  0
   20.6880   -4.2835  -13.5972 O   0  0  0  0  0  0  0  0  0  0  0  0
  2  1  1  1
  2  3  1  0
  4  5  2  0
  4  2  1  0
  6  4  1  0
  7  8  1  0
  7  6  1  0
  8  9  2  0
 11 10  1  6
 11 13  1  0
 12 11  1  0
 13 15  1  0
 13 14  1  6
 14  8  1  0
 15 17  2  0
 15 16  1  0
M  END
$$$$
