AGT.pdb
     RDKit          3D

 17 16  0  0  1  0  0  0  0  0999 V2000
   15.8390  -14.7040  -15.2704 C   0  0  0  0  0  0  0  0  0  0  0  0
   17.0725  -14.4185  -16.1162 C   0  0  2  0  0  0  0  0  0  0  0  0
   18.2655  -14.8275  -15.4021 N   0  0  0  0  0  0  0  0  0  0  0  0
   17.1229  -12.9718  -16.3654 C   0  0  0  0  0  0  0  0  0  0  0  0
   16.2100  -12.4186  -17.0511 O   0  0  0  0  0  0  0  0  0  0  0  0
   18.1498  -12.1209  -15.8803 N   0  0  0  0  0  0  0  0  0  0  0  0
   18.2180  -10.7439  -16.2605 C   0  0  0  0  0  0  0  0  0  0  0  0
   19.3279  -10.0347  -15.5669 C   0  0  0  0  0  0  0  0  0  0  0  0
   19.7714  -10.5418  -14.5173 O   0  0  0  0  0  0  0  0  0  0  0  0
   22.3935   -8.6274  -17.4713 C   0  0  0  0  0  0  0  0  0  0  0  0
   21.9319   -7.5441  -16.5148 C   0  0  1  0  0  0  0  0  0  0  0  0
   21.2252   -6.6281  -17.3056 O   0  0  0  0  0  0  0  0  0  0  0  0
   21.0327   -8.1893  -15.4955 C   0  0  2  0  0  0  0  0  0  0  0  0
   19.8841   -8.8251  -16.0540 N   0  0  0  0  0  0  0  0  0  0  0  0
   20.6665   -7.1690  -14.4644 C   0  0  0  0  0  0  0  0  0  0  0  0
   21.6760   -6.6837  -13.6685 O   0  0  0  0  0  0  0  0  0  0  0  0
   19.5025   -6.7591  -14.3124 O   0  0  0  0  0  0  0  0  0  0  0  0
  2  1  1  1
  2  3  1  0
  4  5  2  0
  4  2  1  0
  6  4  1  0
  7  8  1  0
  7  6  1  0
  8  9  2  0
 11 10  1  6
 11 13  1  0
 12 11  1  0
 13 15  1  0
 13 14  1  6
 14  8  1  0
 15 17  2  0
 15 16  1  0
M  END
$$$$
