AGT.pdb
     RDKit          3D

 17 16  0  0  1  0  0  0  0  0999 V2000
   18.8390  -15.8343  -16.7691 C   0  0  0  0  0  0  0  0  0  0  0  0
   19.5377  -14.5824  -17.2817 C   0  0  2  0  0  0  0  0  0  0  0  0
   20.7315  -14.3288  -16.4998 N   0  0  0  0  0  0  0  0  0  0  0  0
   18.6076  -13.4551  -17.1347 C   0  0  0  0  0  0  0  0  0  0  0  0
   17.5201  -13.4465  -17.7881 O   0  0  0  0  0  0  0  0  0  0  0  0
   18.8433  -12.3402  -16.2890 N   0  0  0  0  0  0  0  0  0  0  0  0
   17.8605  -11.3159  -16.1151 C   0  0  0  0  0  0  0  0  0  0  0  0
   18.4660   -9.9569  -16.1622 C   0  0  0  0  0  0  0  0  0  0  0  0
   19.7108   -9.8782  -16.1604 O   0  0  0  0  0  0  0  0  0  0  0  0
   16.0363   -6.3950  -16.4908 C   0  0  0  0  0  0  0  0  0  0  0  0
   17.3608   -6.5536  -17.2133 C   0  0  1  0  0  0  0  0  0  0  0  0
   17.9036   -5.2633  -17.2795 O   0  0  0  0  0  0  0  0  0  0  0  0
   18.2252   -7.4651  -16.3852 C   0  0  2  0  0  0  0  0  0  0  0  0
   17.6860   -8.7740  -16.2081 N   0  0  0  0  0  0  0  0  0  0  0  0
   18.5171   -6.7946  -15.0800 C   0  0  0  0  0  0  0  0  0  0  0  0
   19.4089   -5.7493  -15.0916 O   0  0  0  0  0  0  0  0  0  0  0  0
   17.9876   -7.1491  -14.0123 O   0  0  0  0  0  0  0  0  0  0  0  0
  2  1  1  1
  2  3  1  0
  4  5  2  0
  4  2  1  0
  6  4  1  0
  7  8  1  0
  7  6  1  0
  8  9  2  0
 11 10  1  1
 11 13  1  0
 12 11  1  0
 13 15  1  0
 13 14  1  1
 14  8  1  0
 15 17  2  0
 15 16  1  0
M  END
$$$$
