AGT.pdb
     RDKit          3D

 17 16  0  0  1  0  0  0  0  0999 V2000
   15.6305  -13.4678  -18.5999 C   0  0  0  0  0  0  0  0  0  0  0  0
   16.5962  -13.3603  -17.4276 C   0  0  2  0  0  0  0  0  0  0  0  0
   15.8552  -13.2481  -16.1870 N   0  0  0  0  0  0  0  0  0  0  0  0
   17.4093  -12.1527  -17.6229 C   0  0  0  0  0  0  0  0  0  0  0  0
   18.2189  -12.0894  -18.5977 O   0  0  0  0  0  0  0  0  0  0  0  0
   17.3541  -11.0162  -16.7750 N   0  0  0  0  0  0  0  0  0  0  0  0
   18.2361   -9.9056  -16.9592 C   0  0  0  0  0  0  0  0  0  0  0  0
   19.0106   -9.6056  -15.7238 C   0  0  0  0  0  0  0  0  0  0  0  0
   18.4775   -9.8724  -14.6282 O   0  0  0  0  0  0  0  0  0  0  0  0
   22.0460  -11.0087  -14.4761 C   0  0  0  0  0  0  0  0  0  0  0  0
   22.3876   -9.5318  -14.5380 C   0  0  1  0  0  0  0  0  0  0  0  0
   23.1229   -9.3708  -15.7201 O   0  0  0  0  0  0  0  0  0  0  0  0
   21.0933   -8.7668  -14.5944 C   0  0  2  0  0  0  0  0  0  0  0  0
   20.3090   -9.0374  -15.7551 N   0  0  0  0  0  0  0  0  0  0  0  0
   21.3908   -7.3085  -14.4428 C   0  0  0  0  0  0  0  0  0  0  0  0
   21.1531   -6.4986  -15.5272 O   0  0  0  0  0  0  0  0  0  0  0  0
   21.8360   -6.8223  -13.3886 O   0  0  0  0  0  0  0  0  0  0  0  0
  2  1  1  6
  2  3  1  0
  4  5  2  0
  4  2  1  0
  6  4  1  0
  7  8  1  0
  7  6  1  0
  8  9  2  0
 11 10  1  6
 11 13  1  0
 12 11  1  0
 13 15  1  0
 13 14  1  6
 14  8  1  0
 15 17  2  0
 15 16  1  0
M  END
$$$$
