AGT.pdb
     RDKit          3D

 17 16  0  0  1  0  0  0  0  0999 V2000
   14.5660  -11.2474  -17.0555 C   0  0  0  0  0  0  0  0  0  0  0  0
   16.0283  -11.4312  -16.6730 C   0  0  2  0  0  0  0  0  0  0  0  0
   16.1323  -11.7583  -15.2649 N   0  0  0  0  0  0  0  0  0  0  0  0
   16.7249  -10.1647  -16.9341 C   0  0  0  0  0  0  0  0  0  0  0  0
   16.8411   -9.7437  -18.1253 O   0  0  0  0  0  0  0  0  0  0  0  0
   17.2954   -9.3521  -15.9203 N   0  0  0  0  0  0  0  0  0  0  0  0
   18.0310   -8.1681  -16.2403 C   0  0  0  0  0  0  0  0  0  0  0  0
   18.9903   -7.8063  -15.1610 C   0  0  0  0  0  0  0  0  0  0  0  0
   18.5776   -7.8425  -13.9847 O   0  0  0  0  0  0  0  0  0  0  0  0
   22.1735   -9.4462  -14.3592 C   0  0  0  0  0  0  0  0  0  0  0  0
   22.5576   -7.9903  -14.5448 C   0  0  1  0  0  0  0  0  0  0  0  0
   23.0848   -7.9084  -15.8406 O   0  0  0  0  0  0  0  0  0  0  0  0
   21.3041   -7.1683  -14.4151 C   0  0  2  0  0  0  0  0  0  0  0  0
   20.3312   -7.4297  -15.4254 N   0  0  0  0  0  0  0  0  0  0  0  0
   21.6823   -5.7221  -14.3577 C   0  0  0  0  0  0  0  0  0  0  0  0
   22.4086   -5.3010  -13.2698 O   0  0  0  0  0  0  0  0  0  0  0  0
   21.3651   -4.9115  -15.2457 O   0  0  0  0  0  0  0  0  0  0  0  0
  2  1  1  1
  2  3  1  0
  4  5  2  0
  4  2  1  0
  6  4  1  0
  7  8  1  0
  7  6  1  0
  8  9  2  0
 11 10  1  6
 11 13  1  0
 12 11  1  0
 13 15  1  0
 13 14  1  6
 14  8  1  0
 15 17  2  0
 15 16  1  0
M  END
$$$$
