AGT.pdb
     RDKit          3D

 17 16  0  0  1  0  0  0  0  0999 V2000
   19.7078  -14.5101  -20.5776 C   0  0  0  0  0  0  0  0  0  0  0  0
   20.4052  -14.1905  -19.2624 C   0  0  2  0  0  0  0  0  0  0  0  0
   19.4425  -14.1990  -18.1790 N   0  0  0  0  0  0  0  0  0  0  0  0
   20.9977  -12.8517  -19.3802 C   0  0  0  0  0  0  0  0  0  0  0  0
   22.0417  -12.6844  -20.0815 O   0  0  0  0  0  0  0  0  0  0  0  0
   20.4718  -11.6954  -18.7476 N   0  0  0  0  0  0  0  0  0  0  0  0
   21.1373  -10.4324  -18.8315 C   0  0  0  0  0  0  0  0  0  0  0  0
   20.5985   -9.4583  -17.8431 C   0  0  0  0  0  0  0  0  0  0  0  0
   19.4102   -9.1018  -17.9716 O   0  0  0  0  0  0  0  0  0  0  0  0
   20.0069   -9.8665  -14.3624 C   0  0  0  0  0  0  0  0  0  0  0  0
   20.9241   -8.6582  -14.3818 C   0  0  1  0  0  0  0  0  0  0  0  0
   22.2005   -9.1572  -14.0893 O   0  0  0  0  0  0  0  0  0  0  0  0
   20.8743   -8.0706  -15.7659 C   0  0  2  0  0  0  0  0  0  0  0  0
   21.3797   -8.9349  -16.7822 N   0  0  0  0  0  0  0  0  0  0  0  0
   21.5741   -6.7484  -15.7514 C   0  0  0  0  0  0  0  0  0  0  0  0
   21.0047   -5.7395  -15.0123 O   0  0  0  0  0  0  0  0  0  0  0  0
   22.6304   -6.5433  -16.3745 O   0  0  0  0  0  0  0  0  0  0  0  0
  2  1  1  6
  2  3  1  0
  4  5  2  0
  4  2  1  0
  6  4  1  0
  7  8  1  0
  7  6  1  0
  8  9  2  0
 11 10  1  6
 11 13  1  0
 12 11  1  0
 13 15  1  0
 13 14  1  6
 14  8  1  0
 15 17  2  0
 15 16  1  0
M  END
$$$$
