AGT.pdb
     RDKit          3D

 17 16  0  0  1  0  0  0  0  0999 V2000
   21.5302  -11.9245  -18.7717 C   0  0  0  0  0  0  0  0  0  0  0  0
   20.5353  -11.3494  -17.7728 C   0  0  2  0  0  0  0  0  0  0  0  0
   19.7309  -10.3266  -18.4112 N   0  0  0  0  0  0  0  0  0  0  0  0
   21.2988  -10.7534  -16.6686 C   0  0  0  0  0  0  0  0  0  0  0  0
   21.9790  -11.4983  -15.8991 O   0  0  0  0  0  0  0  0  0  0  0  0
   21.3327   -9.3623  -16.3907 N   0  0  0  0  0  0  0  0  0  0  0  0
   22.2367   -8.8169  -15.4259 C   0  0  0  0  0  0  0  0  0  0  0  0
   22.2784   -7.3302  -15.4878 C   0  0  0  0  0  0  0  0  0  0  0  0
   22.7989   -6.8079  -16.4937 O   0  0  0  0  0  0  0  0  0  0  0  0
   19.6641   -5.0411  -15.8780 C   0  0  0  0  0  0  0  0  0  0  0  0
   20.2935   -4.5347  -14.5939 C   0  0  1  0  0  0  0  0  0  0  0  0
   19.4962   -5.0490  -13.5625 O   0  0  0  0  0  0  0  0  0  0  0  0
   21.6925   -5.0839  -14.5247 C   0  0  2  0  0  0  0  0  0  0  0  0
   21.7548   -6.5077  -14.4587 N   0  0  0  0  0  0  0  0  0  0  0  0
   22.4068   -4.4350  -13.3815 C   0  0  0  0  0  0  0  0  0  0  0  0
   22.6126   -3.0783  -13.4526 O   0  0  0  0  0  0  0  0  0  0  0  0
   22.8089   -5.0745  -12.3939 O   0  0  0  0  0  0  0  0  0  0  0  0
  2  1  1  6
  2  3  1  0
  4  5  2  0
  4  2  1  0
  6  4  1  0
  7  8  1  0
  7  6  1  0
  8  9  2  0
 11 10  1  6
 11 13  1  0
 12 11  1  0
 13 15  1  0
 13 14  1  1
 14  8  1  0
 15 17  2  0
 15 16  1  0
M  END
$$$$
