AGT.pdb
     RDKit          3D

 17 16  0  0  1  0  0  0  0  0999 V2000
   20.0478  -11.2583  -18.4622 C   0  0  0  0  0  0  0  0  0  0  0  0
   19.4085   -9.8936  -18.2455 C   0  0  2  0  0  0  0  0  0  0  0  0
   19.7618   -9.0050  -19.3347 N   0  0  0  0  0  0  0  0  0  0  0  0
   19.9250   -9.3495  -16.9827 C   0  0  0  0  0  0  0  0  0  0  0  0
   19.1628   -8.6671  -16.2324 O   0  0  0  0  0  0  0  0  0  0  0  0
   21.2554   -9.5369  -16.5260 N   0  0  0  0  0  0  0  0  0  0  0  0
   21.6824   -9.0451  -15.2528 C   0  0  0  0  0  0  0  0  0  0  0  0
   22.0624   -7.6072  -15.3162 C   0  0  0  0  0  0  0  0  0  0  0  0
   22.9369   -7.2762  -16.1415 O   0  0  0  0  0  0  0  0  0  0  0  0
   19.9026   -4.9235  -16.2355 C   0  0  0  0  0  0  0  0  0  0  0  0
   20.4600   -4.4244  -14.9157 C   0  0  1  0  0  0  0  0  0  0  0  0
   19.4555   -4.6745  -13.9710 O   0  0  0  0  0  0  0  0  0  0  0  0
   21.7001   -5.2212  -14.6144 C   0  0  2  0  0  0  0  0  0  0  0  0
   21.4718   -6.6234  -14.4836 N   0  0  0  0  0  0  0  0  0  0  0  0
   22.3599   -4.6424  -13.4029 C   0  0  0  0  0  0  0  0  0  0  0  0
   22.4244   -5.4318  -12.2800 O   0  0  0  0  0  0  0  0  0  0  0  0
   22.8391   -3.4952  -13.3854 O   0  0  0  0  0  0  0  0  0  0  0  0
  2  1  1  6
  2  3  1  0
  4  5  2  0
  4  2  1  0
  6  4  1  0
  7  8  1  0
  7  6  1  0
  8  9  2  0
 11 10  1  6
 11 13  1  0
 12 11  1  0
 13 15  1  0
 13 14  1  1
 14  8  1  0
 15 17  2  0
 15 16  1  0
M  END
$$$$
