AGT.pdb
     RDKit          3D

 17 16  0  0  1  0  0  0  0  0999 V2000
   18.4897  -10.7454  -17.5646 C   0  0  0  0  0  0  0  0  0  0  0  0
   19.5784  -10.8294  -16.5035 C   0  0  2  0  0  0  0  0  0  0  0  0
   19.1236  -10.2004  -15.2795 N   0  0  0  0  0  0  0  0  0  0  0  0
   20.7582  -10.1167  -17.0110 C   0  0  0  0  0  0  0  0  0  0  0  0
   21.5190  -10.6797  -17.8559 O   0  0  0  0  0  0  0  0  0  0  0  0
   21.1208   -8.8037  -16.6134 N   0  0  0  0  0  0  0  0  0  0  0  0
   22.3402   -8.2012  -17.0557 C   0  0  0  0  0  0  0  0  0  0  0  0
   22.5546   -6.8673  -16.4309 C   0  0  0  0  0  0  0  0  0  0  0  0
   23.6097   -6.2623  -16.7073 O   0  0  0  0  0  0  0  0  0  0  0  0
   20.1795   -4.0488  -16.6510 C   0  0  0  0  0  0  0  0  0  0  0  0
   20.5025   -4.1165  -15.1703 C   0  0  1  0  0  0  0  0  0  0  0  0
   19.3908   -4.7288  -14.5761 O   0  0  0  0  0  0  0  0  0  0  0  0
   21.7376   -4.9608  -15.0115 C   0  0  2  0  0  0  0  0  0  0  0  0
   21.6146   -6.2765  -15.5493 N   0  0  0  0  0  0  0  0  0  0  0  0
   22.1256   -4.9767  -13.5667 C   0  0  0  0  0  0  0  0  0  0  0  0
   22.1000   -6.1879  -12.9183 O   0  0  0  0  0  0  0  0  0  0  0  0
   22.4621   -3.9491  -12.9527 O   0  0  0  0  0  0  0  0  0  0  0  0
  2  1  1  6
  2  3  1  0
  4  5  2  0
  4  2  1  0
  6  4  1  0
  7  8  1  0
  7  6  1  0
  8  9  2  0
 11 10  1  6
 11 13  1  0
 12 11  1  0
 13 15  1  0
 13 14  1  1
 14  8  1  0
 15 17  2  0
 15 16  1  0
M  END
$$$$
