AGT.pdb
     RDKit          3D

 17 16  0  0  1  0  0  0  0  0999 V2000
   20.8984  -12.9039  -17.7554 C   0  0  0  0  0  0  0  0  0  0  0  0
   20.3842  -11.4708  -17.7451 C   0  0  2  0  0  0  0  0  0  0  0  0
   20.7018  -10.8239  -19.0026 N   0  0  0  0  0  0  0  0  0  0  0  0
   21.0522  -10.7603  -16.6467 C   0  0  0  0  0  0  0  0  0  0  0  0
   20.8415  -11.1149  -15.4469 O   0  0  0  0  0  0  0  0  0  0  0  0
   21.9438   -9.6725  -16.8347 N   0  0  0  0  0  0  0  0  0  0  0  0
   22.5217   -8.9820  -15.7236 C   0  0  0  0  0  0  0  0  0  0  0  0
   22.2971   -7.5130  -15.8098 C   0  0  0  0  0  0  0  0  0  0  0  0
   22.5269   -6.9562  -16.9019 O   0  0  0  0  0  0  0  0  0  0  0  0
   19.3834   -5.7543  -15.9006 C   0  0  0  0  0  0  0  0  0  0  0  0
   20.0387   -5.0696  -14.7159 C   0  0  1  0  0  0  0  0  0  0  0  0
   19.4596   -5.6556  -13.5823 O   0  0  0  0  0  0  0  0  0  0  0  0
   21.5141   -5.3569  -14.7826 C   0  0  2  0  0  0  0  0  0  0  0  0
   21.8393   -6.7442  -14.7102 N   0  0  0  0  0  0  0  0  0  0  0  0
   22.2066   -4.5598  -13.7229 C   0  0  0  0  0  0  0  0  0  0  0  0
   22.1540   -3.1905  -13.8258 O   0  0  0  0  0  0  0  0  0  0  0  0
   22.8131   -5.0898  -12.7757 O   0  0  0  0  0  0  0  0  0  0  0  0
  2  1  1  6
  2  3  1  0
  4  5  2  0
  4  2  1  0
  6  4  1  0
  7  8  1  0
  7  6  1  0
  8  9  2  0
 11 10  1  6
 11 13  1  0
 12 11  1  0
 13 15  1  0
 13 14  1  1
 14  8  1  0
 15 17  2  0
 15 16  1  0
M  END
$$$$
