AGT.pdb
     RDKit          3D

 17 16  0  0  1  0  0  0  0  0999 V2000
   19.7174  -12.7012  -18.3103 C   0  0  0  0  0  0  0  0  0  0  0  0
   19.0552  -11.4417  -17.7684 C   0  0  2  0  0  0  0  0  0  0  0  0
   19.0934  -10.3947  -18.7698 N   0  0  0  0  0  0  0  0  0  0  0  0
   19.8072  -11.0121  -16.5820 C   0  0  0  0  0  0  0  0  0  0  0  0
   19.8456  -11.7580  -15.5564 O   0  0  0  0  0  0  0  0  0  0  0  0
   20.5160   -9.7858  -16.4960 N   0  0  0  0  0  0  0  0  0  0  0  0
   21.3428   -9.4804  -15.3698 C   0  0  0  0  0  0  0  0  0  0  0  0
   21.9107   -8.1073  -15.4587 C   0  0  0  0  0  0  0  0  0  0  0  0
   22.8689   -7.9273  -16.2365 O   0  0  0  0  0  0  0  0  0  0  0  0
   20.4744   -5.2134  -16.7835 C   0  0  0  0  0  0  0  0  0  0  0  0
   20.8291   -4.7315  -15.3893 C   0  0  1  0  0  0  0  0  0  0  0  0
   19.6343   -4.7962  -14.6598 O   0  0  0  0  0  0  0  0  0  0  0  0
   21.8593   -5.6744  -14.8298 C   0  0  2  0  0  0  0  0  0  0  0  0
   21.4051   -7.0208  -14.7012 N   0  0  0  0  0  0  0  0  0  0  0  0
   22.3607   -5.1227  -13.5328 C   0  0  0  0  0  0  0  0  0  0  0  0
   23.0355   -3.9263  -13.5732 O   0  0  0  0  0  0  0  0  0  0  0  0
   22.1874   -5.7030  -12.4468 O   0  0  0  0  0  0  0  0  0  0  0  0
  2  1  1  6
  2  3  1  0
  4  5  2  0
  4  2  1  0
  6  4  1  0
  7  8  1  0
  7  6  1  0
  8  9  2  0
 11 10  1  6
 11 13  1  0
 12 11  1  0
 13 15  1  0
 13 14  1  1
 14  8  1  0
 15 17  2  0
 15 16  1  0
M  END
$$$$
