AGT.pdb
     RDKit          3D

 17 16  0  0  1  0  0  0  0  0999 V2000
   27.9874  -18.8338  -14.6539 C   0  0  0  0  0  0  0  0  0  0  0  0
   26.9087  -19.8847  -14.8786 C   0  0  2  0  0  0  0  0  0  0  0  0
   26.7862  -20.1707  -16.2942 N   0  0  0  0  0  0  0  0  0  0  0  0
   25.6393  -19.3417  -14.3772 C   0  0  0  0  0  0  0  0  0  0  0  0
   25.4967  -19.1165  -13.1368 O   0  0  0  0  0  0  0  0  0  0  0  0
   24.5259  -19.0413  -15.2042 N   0  0  0  0  0  0  0  0  0  0  0  0
   23.3079  -18.5293  -14.6568 C   0  0  0  0  0  0  0  0  0  0  0  0
   22.1269  -19.3145  -15.1095 C   0  0  0  0  0  0  0  0  0  0  0  0
   21.6466  -19.0432  -16.2281 O   0  0  0  0  0  0  0  0  0  0  0  0
   21.8675  -23.1839  -14.8828 C   0  0  0  0  0  0  0  0  0  0  0  0
   20.5925  -22.6072  -14.2969 C   0  0  1  0  0  0  0  0  0  0  0  0
   20.7608  -22.6722  -12.9072 O   0  0  0  0  0  0  0  0  0  0  0  0
   20.4802  -21.1816  -14.7647 C   0  0  2  0  0  0  0  0  0  0  0  0
   21.5443  -20.3401  -14.3231 N   0  0  0  0  0  0  0  0  0  0  0  0
   19.1395  -20.6502  -14.3670 C   0  0  0  0  0  0  0  0  0  0  0  0
   18.0315  -21.2999  -14.8554 O   0  0  0  0  0  0  0  0  0  0  0  0
   19.0045  -19.6615  -13.6252 O   0  0  0  0  0  0  0  0  0  0  0  0
  2  1  1  6
  2  3  1  0
  4  5  2  0
  4  2  1  0
  6  4  1  0
  7  8  1  0
  7  6  1  0
  8  9  2  0
 11 10  1  6
 11 13  1  0
 12 11  1  0
 13 15  1  0
 13 14  1  1
 14  8  1  0
 15 17  2  0
 15 16  1  0
M  END
$$$$
