DDP.pdb
     RDKit          3D

 24 24  0  0  1  0  0  0  0  0999 V2000
   27.3056  -18.5272  -19.2099 N   0  0  0  0  0  0  0  0  0  0  0  0
   26.9800  -19.6329  -18.3592 C   0  0  1  0  0  0  0  0  0  0  0  0
   28.2597  -20.2781  -17.8487 C   0  0  0  0  0  0  0  0  0  0  0  0
   29.0250  -20.8945  -18.9522 C   0  0  0  0  0  0  0  0  0  0  0  0
   28.4651  -21.7239  -19.7120 O   0  0  0  0  0  0  0  0  0  0  0  0
   26.2105  -19.1332  -17.1684 C   0  0  0  0  0  0  0  0  0  0  0  0
   26.5099  -18.0639  -16.6014 O   0  0  0  0  0  0  0  0  0  0  0  0
   30.3493  -20.5841  -19.1765 O   0  0  0  0  0  0  0  0  0  0  0  0
   25.1292  -19.8878  -16.6823 N   0  0  0  0  0  0  0  0  0  0  0  0
   24.2936  -19.4460  -15.5519 C   0  0  1  0  0  0  0  0  0  0  0  0
   22.8646  -19.5655  -16.0751 C   0  0  0  0  0  0  0  0  0  0  0  0
   21.8574  -19.2725  -15.0365 C   0  0  0  0  0  0  0  0  0  0  0  0
   22.0218  -18.2697  -14.3053 O   0  0  0  0  0  0  0  0  0  0  0  0
   24.4484  -20.4593  -14.4786 C   0  0  0  0  0  0  0  0  0  0  0  0
   24.0705  -21.6541  -14.7243 O   0  0  0  0  0  0  0  0  0  0  0  0
   20.7331  -20.0507  -14.8248 O   0  0  0  0  0  0  0  0  0  0  0  0
   24.9930  -20.1930  -13.1890 N   0  0  0  0  0  0  0  0  0  0  0  0
   25.7261  -18.9916  -12.8668 C   0  0  0  0  0  0  0  0  0  0  0  0
   26.5865  -19.3990  -11.6666 C   0  0  0  0  0  0  0  0  0  0  0  0
   25.5475  -20.2496  -10.9192 C   0  0  0  0  0  0  0  0  0  0  0  0
   24.9427  -21.0300  -12.0449 C   0  0  1  0  0  0  0  0  0  0  0  0
   23.5763  -21.5151  -11.7272 C   0  0  0  0  0  0  0  0  0  0  0  0
   23.2870  -22.4890  -10.7879 O   0  0  0  0  0  0  0  0  0  0  0  0
   22.6193  -21.0020  -12.3588 O   0  0  0  0  0  0  0  0  0  0  0  0
  2  1  1  6
  3  2  1  0
  3  4  1  0
  4  8  1  0
  5  4  2  0
  6  7  2  0
  6  2  1  0
  9  6  1  0
 10 14  1  0
 10  9  1  0
 10 11  1  6
 12 16  1  0
 12 11  1  0
 13 12  2  0
 14 17  1  0
 15 14  2  0
 17 21  1  0
 17 18  1  0
 18 19  1  0
 20 19  1  0
 21 20  1  0
 21 22  1  1
 22 24  2  0
 22 23  1  0
M  END
$$$$
