DDP.pdb
     RDKit          3D

 24 24  0  0  1  0  0  0  0  0999 V2000
   44.5353   -9.7256   -5.3201 N   0  0  0  0  0  0  0  0  0  0  0  0
   44.0202   -9.8892   -6.6468 C   0  0  1  0  0  0  0  0  0  0  0  0
   43.5299  -11.3175   -6.8312 C   0  0  0  0  0  0  0  0  0  0  0  0
   44.6439  -12.2255   -7.1743 C   0  0  0  0  0  0  0  0  0  0  0  0
   45.1719  -12.9307   -6.2785 O   0  0  0  0  0  0  0  0  0  0  0  0
   42.8454   -8.9714   -6.8398 C   0  0  0  0  0  0  0  0  0  0  0  0
   42.0406   -8.7406   -5.9159 O   0  0  0  0  0  0  0  0  0  0  0  0
   45.1272  -12.3242   -8.4616 O   0  0  0  0  0  0  0  0  0  0  0  0
   42.6488   -8.3593   -8.0894 N   0  0  0  0  0  0  0  0  0  0  0  0
   41.5441   -7.4202   -8.3516 C   0  0  1  0  0  0  0  0  0  0  0  0
   42.1402   -6.4047   -9.3229 C   0  0  0  0  0  0  0  0  0  0  0  0
   41.1660   -5.3721   -9.7276 C   0  0  0  0  0  0  0  0  0  0  0  0
   40.8601   -5.2754  -10.9378 O   0  0  0  0  0  0  0  0  0  0  0  0
   40.5044   -8.1734   -9.0961 C   0  0  0  0  0  0  0  0  0  0  0  0
   40.8818   -8.9216  -10.0597 O   0  0  0  0  0  0  0  0  0  0  0  0
   40.5679   -4.4985   -8.8370 O   0  0  0  0  0  0  0  0  0  0  0  0
   39.1095   -8.1228   -8.8093 N   0  0  0  0  0  0  0  0  0  0  0  0
   38.5545   -7.4216   -7.6758 C   0  0  0  0  0  0  0  0  0  0  0  0
   37.2105   -8.1169   -7.4379 C   0  0  0  0  0  0  0  0  0  0  0  0
   36.7800   -8.2891   -8.9030 C   0  0  0  0  0  0  0  0  0  0  0  0
   38.0598   -8.7443   -9.5332 C   0  0  1  0  0  0  0  0  0  0  0  0
   38.1025   -8.4676  -10.9908 C   0  0  0  0  0  0  0  0  0  0  0  0
   38.1924   -7.2045  -11.5485 O   0  0  0  0  0  0  0  0  0  0  0  0
   38.0529   -9.4532  -11.7680 O   0  0  0  0  0  0  0  0  0  0  0  0
  2  1  1  1
  3  2  1  0
  3  4  1  0
  4  8  1  0
  5  4  2  0
  6  7  2  0
  6  2  1  0
  9  6  1  0
 10 14  1  0
 10  9  1  0
 10 11  1  6
 12 16  1  0
 12 11  1  0
 13 12  2  0
 14 17  1  0
 15 14  2  0
 17 21  1  0
 17 18  1  0
 18 19  1  0
 20 19  1  0
 21 20  1  0
 21 22  1  6
 22 24  2  0
 22 23  1  0
M  END
$$$$
