DDP.pdb
     RDKit          3D

 24 24  0  0  1  0  0  0  0  0999 V2000
   17.3306  -11.0232  -14.4846 N   0  0  0  0  0  0  0  0  0  0  0  0
   18.5724  -10.6736  -15.1073 C   0  0  1  0  0  0  0  0  0  0  0  0
   18.5581  -11.1216  -16.5611 C   0  0  0  0  0  0  0  0  0  0  0  0
   18.4841  -12.5936  -16.6666 C   0  0  0  0  0  0  0  0  0  0  0  0
   19.2805  -13.3068  -16.0064 O   0  0  0  0  0  0  0  0  0  0  0  0
   18.7337   -9.1792  -15.0885 C   0  0  0  0  0  0  0  0  0  0  0  0
   17.7609   -8.4170  -15.2537 O   0  0  0  0  0  0  0  0  0  0  0  0
   17.5576  -13.2157  -17.4758 O   0  0  0  0  0  0  0  0  0  0  0  0
   20.0094   -8.6277  -14.8802 N   0  0  0  0  0  0  0  0  0  0  0  0
   20.2481   -7.1752  -14.8123 C   0  0  1  0  0  0  0  0  0  0  0  0
   21.2799   -7.0184  -13.6983 C   0  0  0  0  0  0  0  0  0  0  0  0
   21.5931   -5.6040  -13.4147 C   0  0  0  0  0  0  0  0  0  0  0  0
   20.6501   -4.7855  -13.3248 O   0  0  0  0  0  0  0  0  0  0  0  0
   20.9161   -6.7876  -16.0795 C   0  0  0  0  0  0  0  0  0  0  0  0
   21.9458   -7.4508  -16.4408 O   0  0  0  0  0  0  0  0  0  0  0  0
   22.8811   -5.1291  -13.2415 O   0  0  0  0  0  0  0  0  0  0  0  0
   20.4869   -5.7251  -16.9266 N   0  0  0  0  0  0  0  0  0  0  0  0
   19.2405   -5.0185  -16.7483 C   0  0  0  0  0  0  0  0  0  0  0  0
   18.9373   -4.4549  -18.1401 C   0  0  0  0  0  0  0  0  0  0  0  0
   20.3615   -4.0279  -18.5287 C   0  0  0  0  0  0  0  0  0  0  0  0
   21.1584   -5.2071  -18.0636 C   0  0  1  0  0  0  0  0  0  0  0  0
   22.5792   -4.8636  -17.8053 C   0  0  0  0  0  0  0  0  0  0  0  0
   23.4928   -4.5117  -18.7831 O   0  0  0  0  0  0  0  0  0  0  0  0
   22.9744   -4.8967  -16.6133 O   0  0  0  0  0  0  0  0  0  0  0  0
  2  1  1  6
  3  2  1  0
  3  4  1  0
  4  8  1  0
  5  4  2  0
  6  7  2  0
  6  2  1  0
  9  6  1  0
 10 14  1  0
 10  9  1  0
 10 11  1  1
 12 16  1  0
 12 11  1  0
 13 12  2  0
 14 17  1  0
 15 14  2  0
 17 21  1  0
 17 18  1  0
 18 19  1  0
 20 19  1  0
 21 20  1  0
 21 22  1  1
 22 24  2  0
 22 23  1  0
M  END
$$$$
