DDP.pdb
     RDKit          3D

 24 24  0  0  1  0  0  0  0  0999 V2000
   24.4376   -9.8424  -19.4309 N   0  0  0  0  0  0  0  0  0  0  0  0
   24.6707   -8.8607  -18.4140 C   0  0  1  0  0  0  0  0  0  0  0  0
   25.8127   -7.9490  -18.8373 C   0  0  0  0  0  0  0  0  0  0  0  0
   27.0948   -8.6822  -18.8806 C   0  0  0  0  0  0  0  0  0  0  0  0
   27.1238   -9.9049  -18.5925 O   0  0  0  0  0  0  0  0  0  0  0  0
   23.4407   -8.0119  -18.2522 C   0  0  0  0  0  0  0  0  0  0  0  0
   22.6587   -7.8106  -19.2022 O   0  0  0  0  0  0  0  0  0  0  0  0
   28.2735   -8.0594  -19.2316 O   0  0  0  0  0  0  0  0  0  0  0  0
   23.1651   -7.4315  -17.0024 N   0  0  0  0  0  0  0  0  0  0  0  0
   21.9388   -6.6595  -16.7354 C   0  0  1  0  0  0  0  0  0  0  0  0
   21.4670   -7.1672  -15.3754 C   0  0  0  0  0  0  0  0  0  0  0  0
   20.7493   -8.4536  -15.4716 C   0  0  0  0  0  0  0  0  0  0  0  0
   20.8813   -9.2865  -14.5463 O   0  0  0  0  0  0  0  0  0  0  0  0
   22.3501   -5.2455  -16.5513 C   0  0  0  0  0  0  0  0  0  0  0  0
   23.4089   -5.0130  -15.8763 O   0  0  0  0  0  0  0  0  0  0  0  0
   19.9327   -8.7924  -16.5358 O   0  0  0  0  0  0  0  0  0  0  0  0
   21.6460   -4.1244  -17.0784 N   0  0  0  0  0  0  0  0  0  0  0  0
   20.4828   -4.2412  -17.9258 C   0  0  0  0  0  0  0  0  0  0  0  0
   20.4576   -2.9178  -18.6968 C   0  0  0  0  0  0  0  0  0  0  0  0
   20.8523   -1.9767  -17.5479 C   0  0  0  0  0  0  0  0  0  0  0  0
   21.9574   -2.7521  -16.9000 C   0  0  1  0  0  0  0  0  0  0  0  0
   22.1584   -2.3714  -15.4795 C   0  0  0  0  0  0  0  0  0  0  0  0
   21.8902   -3.1945  -14.4000 O   0  0  0  0  0  0  0  0  0  0  0  0
   22.6031   -1.2198  -15.2470 O   0  0  0  0  0  0  0  0  0  0  0  0
  2  1  1  6
  3  2  1  0
  3  4  1  0
  4  8  1  0
  5  4  2  0
  6  7  2  0
  6  2  1  0
  9  6  1  0
 10 14  1  0
 10  9  1  0
 10 11  1  1
 12 16  1  0
 12 11  1  0
 13 12  2  0
 14 17  1  0
 15 14  2  0
 17 21  1  0
 17 18  1  0
 18 19  1  0
 20 19  1  0
 21 20  1  0
 21 22  1  1
 22 24  2  0
 22 23  1  0
M  END
$$$$
