DDP.pdb
     RDKit          3D

 24 24  0  0  1  0  0  0  0  0999 V2000
   32.7727  -35.5800   -5.9658 N   0  0  0  0  0  0  0  0  0  0  0  0
   33.4380  -36.1680   -4.8416 C   0  0  1  0  0  0  0  0  0  0  0  0
   34.8825  -36.4754   -5.2070 C   0  0  0  0  0  0  0  0  0  0  0  0
   34.9837  -37.7325   -5.9768 C   0  0  0  0  0  0  0  0  0  0  0  0
   33.9401  -38.3612   -6.2840 O   0  0  0  0  0  0  0  0  0  0  0  0
   33.4507  -35.1864   -3.7032 C   0  0  0  0  0  0  0  0  0  0  0  0
   33.7599  -33.9911   -3.8773 O   0  0  0  0  0  0  0  0  0  0  0  0
   36.2015  -38.2426   -6.3733 O   0  0  0  0  0  0  0  0  0  0  0  0
   33.1068  -35.6248   -2.4131 N   0  0  0  0  0  0  0  0  0  0  0  0
   32.9858  -34.7080   -1.2659 C   0  0  1  0  0  0  0  0  0  0  0  0
   31.9908  -35.4005   -0.3383 C   0  0  0  0  0  0  0  0  0  0  0  0
   31.6764  -34.5920    0.8561 C   0  0  0  0  0  0  0  0  0  0  0  0
   31.3687  -33.3881    0.7034 O   0  0  0  0  0  0  0  0  0  0  0  0
   34.2979  -34.7086   -0.5723 C   0  0  0  0  0  0  0  0  0  0  0  0
   34.8561  -35.8351   -0.3482 O   0  0  0  0  0  0  0  0  0  0  0  0
   31.7032  -35.0948    2.1449 O   0  0  0  0  0  0  0  0  0  0  0  0
   34.9829  -33.5366   -0.1391 N   0  0  0  0  0  0  0  0  0  0  0  0
   34.5787  -32.1986   -0.5006 C   0  0  0  0  0  0  0  0  0  0  0  0
   35.8624  -31.3759   -0.3520 C   0  0  0  0  0  0  0  0  0  0  0  0
   36.3975  -32.0189    0.9372 C   0  0  0  0  0  0  0  0  0  0  0  0
   36.1488  -33.4704    0.6662 C   0  0  1  0  0  0  0  0  0  0  0  0
   36.0522  -34.2703    1.9127 C   0  0  0  0  0  0  0  0  0  0  0  0
   34.8870  -34.8438    2.3901 O   0  0  0  0  0  0  0  0  0  0  0  0
   37.1056  -34.4346    2.5772 O   0  0  0  0  0  0  0  0  0  0  0  0
  2  1  1  6
  3  2  1  0
  3  4  1  0
  4  8  1  0
  5  4  2  0
  6  7  2  0
  6  2  1  0
  9  6  1  0
 10 14  1  0
 10  9  1  0
 10 11  1  1
 12 16  1  0
 12 11  1  0
 13 12  2  0
 14 17  1  0
 15 14  2  0
 17 21  1  0
 17 18  1  0
 18 19  1  0
 20 19  1  0
 21 20  1  0
 21 22  1  1
 22 24  2  0
 22 23  1  0
M  END
$$$$
