DDP.pdb
     RDKit          3D

 24 24  0  0  1  0  0  0  0  0999 V2000
   27.4868  -23.1498  -16.9877 N   0  0  0  0  0  0  0  0  0  0  0  0
   28.3539  -22.1118  -16.5155 C   0  0  1  0  0  0  0  0  0  0  0  0
   29.0709  -21.4705  -17.6940 C   0  0  0  0  0  0  0  0  0  0  0  0
   28.2603  -21.5594  -18.9262 C   0  0  0  0  0  0  0  0  0  0  0  0
   27.3801  -20.6930  -19.1573 O   0  0  0  0  0  0  0  0  0  0  0  0
   27.5332  -21.0475  -15.8423 C   0  0  0  0  0  0  0  0  0  0  0  0
   28.0516  -19.9951  -15.4200 O   0  0  0  0  0  0  0  0  0  0  0  0
   28.4421  -22.5747  -19.8407 O   0  0  0  0  0  0  0  0  0  0  0  0
   26.1504  -21.2421  -15.6845 N   0  0  0  0  0  0  0  0  0  0  0  0
   25.2974  -20.3151  -14.9201 C   0  0  1  0  0  0  0  0  0  0  0  0
   24.1187  -20.0398  -15.8501 C   0  0  0  0  0  0  0  0  0  0  0  0
   23.0959  -19.1787  -15.2246 C   0  0  0  0  0  0  0  0  0  0  0  0
   23.4685  -18.1637  -14.5934 O   0  0  0  0  0  0  0  0  0  0  0  0
   24.7664  -21.0737  -13.7603 C   0  0  0  0  0  0  0  0  0  0  0  0
   24.0295  -22.0896  -13.9960 O   0  0  0  0  0  0  0  0  0  0  0  0
   21.7378  -19.4331  -15.2976 O   0  0  0  0  0  0  0  0  0  0  0  0
   25.0235  -20.7490  -12.3968 N   0  0  0  0  0  0  0  0  0  0  0  0
   26.0598  -19.8352  -11.9776 C   0  0  0  0  0  0  0  0  0  0  0  0
   26.3552  -20.2545  -10.5342 C   0  0  0  0  0  0  0  0  0  0  0  0
   24.9131  -20.5187  -10.0735 C   0  0  0  0  0  0  0  0  0  0  0  0
   24.3598  -21.2589  -11.2516 C   0  0  1  0  0  0  0  0  0  0  0  0
   22.8808  -21.1653  -11.3351 C   0  0  0  0  0  0  0  0  0  0  0  0
   22.1921  -20.4417  -12.2925 O   0  0  0  0  0  0  0  0  0  0  0  0
   22.2125  -21.7885  -10.4731 O   0  0  0  0  0  0  0  0  0  0  0  0
  2  1  1  6
  3  2  1  0
  3  4  1  0
  4  8  1  0
  5  4  2  0
  6  7  2  0
  6  2  1  0
  9  6  1  0
 10 14  1  0
 10  9  1  0
 10 11  1  6
 12 16  1  0
 12 11  1  0
 13 12  2  0
 14 17  1  0
 15 14  2  0
 17 21  1  0
 17 18  1  0
 18 19  1  0
 20 19  1  0
 21 20  1  0
 21 22  1  6
 22 24  2  0
 22 23  1  0
M  END
$$$$
