DDP.pdb
     RDKit          3D

 24 24  0  0  1  0  0  0  0  0999 V2000
   16.3512  -12.9937  -13.8895 N   0  0  0  0  0  0  0  0  0  0  0  0
   15.3497  -12.0621  -13.4638 C   0  0  1  0  0  0  0  0  0  0  0  0
   14.3993  -12.7436  -12.4908 C   0  0  0  0  0  0  0  0  0  0  0  0
   13.5424  -13.7293  -13.1817 C   0  0  0  0  0  0  0  0  0  0  0  0
   13.6587  -13.8960  -14.4216 O   0  0  0  0  0  0  0  0  0  0  0  0
   16.0086  -10.9213  -12.7399 C   0  0  0  0  0  0  0  0  0  0  0  0
   16.8546  -11.1192  -11.8456 O   0  0  0  0  0  0  0  0  0  0  0  0
   12.6088  -14.4805  -12.5002 O   0  0  0  0  0  0  0  0  0  0  0  0
   15.6638   -9.6015  -13.0777 N   0  0  0  0  0  0  0  0  0  0  0  0
   16.2474   -8.4282  -12.4039 C   0  0  1  0  0  0  0  0  0  0  0  0
   16.5770   -7.4687  -13.5443 C   0  0  0  0  0  0  0  0  0  0  0  0
   17.5447   -6.4282  -13.1441 C   0  0  0  0  0  0  0  0  0  0  0  0
   17.9460   -6.4043  -11.9585 O   0  0  0  0  0  0  0  0  0  0  0  0
   15.1611   -7.8014  -11.6103 C   0  0  0  0  0  0  0  0  0  0  0  0
   14.0671   -7.5236  -12.2075 O   0  0  0  0  0  0  0  0  0  0  0  0
   18.0364   -5.4706  -14.0134 O   0  0  0  0  0  0  0  0  0  0  0  0
   15.2518   -7.4884  -10.2231 N   0  0  0  0  0  0  0  0  0  0  0  0
   16.3073   -7.9722   -9.3650 C   0  0  0  0  0  0  0  0  0  0  0  0
   15.6937   -7.9147   -7.9625 C   0  0  0  0  0  0  0  0  0  0  0  0
   14.9520   -6.5751   -8.0927 C   0  0  0  0  0  0  0  0  0  0  0  0
   14.3511   -6.7039   -9.4581 C   0  0  1  0  0  0  0  0  0  0  0  0
   14.0487   -5.3858  -10.0699 C   0  0  0  0  0  0  0  0  0  0  0  0
   14.8345   -4.7634  -11.0237 O   0  0  0  0  0  0  0  0  0  0  0  0
   13.0048   -4.7984   -9.6910 O   0  0  0  0  0  0  0  0  0  0  0  0
  2  1  1  1
  3  2  1  0
  3  4  1  0
  4  8  1  0
  5  4  2  0
  6  7  2  0
  6  2  1  0
  9  6  1  0
 10 14  1  0
 10  9  1  0
 10 11  1  6
 12 16  1  0
 12 11  1  0
 13 12  2  0
 14 17  1  0
 15 14  2  0
 17 21  1  0
 17 18  1  0
 18 19  1  0
 20 19  1  0
 21 20  1  0
 21 22  1  6
 22 24  2  0
 22 23  1  0
M  END
$$$$
