DDP.pdb
     RDKit          3D

 24 24  0  0  1  0  0  0  0  0999 V2000
   26.4097  -21.7773  -12.7709 N   0  0  0  0  0  0  0  0  0  0  0  0
   27.3811  -20.7731  -12.4547 C   0  0  1  0  0  0  0  0  0  0  0  0
   27.4162  -19.7306  -13.5621 C   0  0  0  0  0  0  0  0  0  0  0  0
   27.8447  -20.3265  -14.8445 C   0  0  0  0  0  0  0  0  0  0  0  0
   28.0499  -21.5639  -14.9192 O   0  0  0  0  0  0  0  0  0  0  0  0
   26.9814  -20.0790  -11.1826 C   0  0  0  0  0  0  0  0  0  0  0  0
   27.0801  -18.8425  -11.0566 O   0  0  0  0  0  0  0  0  0  0  0  0
   28.0281  -19.5584  -15.9744 O   0  0  0  0  0  0  0  0  0  0  0  0
   26.4856  -20.8402  -10.1104 N   0  0  0  0  0  0  0  0  0  0  0  0
   25.9804  -20.2312   -8.8674 C   0  0  1  0  0  0  0  0  0  0  0  0
   24.6554  -20.9453   -8.6137 C   0  0  0  0  0  0  0  0  0  0  0  0
   23.5684  -20.4399   -9.4752 C   0  0  0  0  0  0  0  0  0  0  0  0
   23.3687  -19.2052   -9.5293 O   0  0  0  0  0  0  0  0  0  0  0  0
   26.9063  -20.6365   -7.7806 C   0  0  0  0  0  0  0  0  0  0  0  0
   27.1597  -21.8805   -7.6428 O   0  0  0  0  0  0  0  0  0  0  0  0
   22.7517  -21.2615  -10.2316 O   0  0  0  0  0  0  0  0  0  0  0  0
   27.5371  -19.7322   -6.8778 N   0  0  0  0  0  0  0  0  0  0  0  0
   27.4788  -18.2965   -7.0183 C   0  0  0  0  0  0  0  0  0  0  0  0
   28.7175  -17.8046   -6.2632 C   0  0  0  0  0  0  0  0  0  0  0  0
   28.6506  -18.7644   -5.0650 C   0  0  0  0  0  0  0  0  0  0  0  0
   28.3241  -20.0586   -5.7437 C   0  0  1  0  0  0  0  0  0  0  0  0
   27.6700  -21.0278   -4.8295 C   0  0  0  0  0  0  0  0  0  0  0  0
   28.3083  -21.6818   -3.7905 O   0  0  0  0  0  0  0  0  0  0  0  0
   26.4513  -21.2676   -5.0171 O   0  0  0  0  0  0  0  0  0  0  0  0
  2  1  1  6
  3  2  1  0
  3  4  1  0
  4  8  1  0
  5  4  2  0
  6  7  2  0
  6  2  1  0
  9  6  1  0
 10 14  1  0
 10  9  1  0
 10 11  1  1
 12 16  1  0
 12 11  1  0
 13 12  2  0
 14 17  1  0
 15 14  2  0
 17 21  1  0
 17 18  1  0
 18 19  1  0
 20 19  1  0
 21 20  1  0
 21 22  1  1
 22 24  2  0
 22 23  1  0
M  END
$$$$
