DDP.pdb
     RDKit          3D

 24 24  0  0  1  0  0  0  0  0999 V2000
   15.0626   -7.9293   -8.1300 N   0  0  0  0  0  0  0  0  0  0  0  0
   15.3241   -7.0868   -9.2586 C   0  0  1  0  0  0  0  0  0  0  0  0
   15.6534   -5.6807   -8.7802 C   0  0  0  0  0  0  0  0  0  0  0  0
   14.4453   -4.9861   -8.2889 C   0  0  0  0  0  0  0  0  0  0  0  0
   13.5469   -4.6487   -9.0999 O   0  0  0  0  0  0  0  0  0  0  0  0
   16.5204   -7.6111  -10.0028 C   0  0  0  0  0  0  0  0  0  0  0  0
   17.5195   -8.0524   -9.4013 O   0  0  0  0  0  0  0  0  0  0  0  0
   14.2712   -4.6939   -6.9530 O   0  0  0  0  0  0  0  0  0  0  0  0
   16.5137   -7.6038  -11.4080 N   0  0  0  0  0  0  0  0  0  0  0  0
   17.6001   -8.1894  -12.2130 C   0  0  1  0  0  0  0  0  0  0  0  0
   16.8821   -8.8356  -13.3948 C   0  0  0  0  0  0  0  0  0  0  0  0
   16.3212  -10.1592  -13.0589 C   0  0  0  0  0  0  0  0  0  0  0  0
   15.1523  -10.4260  -13.4191 O   0  0  0  0  0  0  0  0  0  0  0  0
   18.3945   -7.0586  -12.7541 C   0  0  0  0  0  0  0  0  0  0  0  0
   17.7739   -5.9883  -13.0705 O   0  0  0  0  0  0  0  0  0  0  0  0
   17.0211  -11.1284  -12.3625 O   0  0  0  0  0  0  0  0  0  0  0  0
   19.8065   -7.0815  -12.9442 N   0  0  0  0  0  0  0  0  0  0  0  0
   20.6478   -8.1800  -12.5317 C   0  0  0  0  0  0  0  0  0  0  0  0
   22.0309   -7.5413  -12.3713 C   0  0  0  0  0  0  0  0  0  0  0  0
   22.0016   -6.6215  -13.6021 C   0  0  0  0  0  0  0  0  0  0  0  0
   20.6130   -6.0672  -13.5211 C   0  0  1  0  0  0  0  0  0  0  0  0
   20.1153   -5.5933  -14.8367 C   0  0  0  0  0  0  0  0  0  0  0  0
   19.7019   -6.4216  -15.8652 O   0  0  0  0  0  0  0  0  0  0  0  0
   20.0686   -4.3520  -15.0241 O   0  0  0  0  0  0  0  0  0  0  0  0
  2  1  1  1
  3  2  1  0
  3  4  1  0
  4  8  1  0
  5  4  2  0
  6  7  2  0
  6  2  1  0
  9  6  1  0
 10 14  1  0
 10  9  1  0
 10 11  1  6
 12 16  1  0
 12 11  1  0
 13 12  2  0
 14 17  1  0
 15 14  2  0
 17 21  1  0
 17 18  1  0
 18 19  1  0
 20 19  1  0
 21 20  1  0
 21 22  1  6
 22 24  2  0
 22 23  1  0
M  END
$$$$
