DDP.pdb
     RDKit          3D

 24 24  0  0  1  0  0  0  0  0999 V2000
   23.8850    0.3501    0.3894 N   0  0  0  0  0  0  0  0  0  0  0  0
   25.0653    0.6944   -0.3458 C   0  0  1  0  0  0  0  0  0  0  0  0
   25.9953   -0.5079   -0.4097 C   0  0  0  0  0  0  0  0  0  0  0  0
   26.4915   -0.8725    0.9335 C   0  0  0  0  0  0  0  0  0  0  0  0
   26.2300   -2.0061    1.4082 O   0  0  0  0  0  0  0  0  0  0  0  0
   24.6848    1.0566   -1.7542 C   0  0  0  0  0  0  0  0  0  0  0  0
   23.6931    0.5472   -2.3124 O   0  0  0  0  0  0  0  0  0  0  0  0
   27.2411    0.0024    1.6905 O   0  0  0  0  0  0  0  0  0  0  0  0
   25.4639    1.9901   -2.4587 N   0  0  0  0  0  0  0  0  0  0  0  0
   25.0386    2.5761   -3.7420 C   0  0  1  0  0  0  0  0  0  0  0  0
   25.1558    4.0819   -3.5217 C   0  0  0  0  0  0  0  0  0  0  0  0
   24.7418    4.8593   -4.7064 C   0  0  0  0  0  0  0  0  0  0  0  0
   25.4013    5.8765   -5.0187 O   0  0  0  0  0  0  0  0  0  0  0  0
   26.0646    2.2040   -4.7478 C   0  0  0  0  0  0  0  0  0  0  0  0
   27.2934    2.3299   -4.4243 O   0  0  0  0  0  0  0  0  0  0  0  0
   23.6569    4.5233   -5.4966 O   0  0  0  0  0  0  0  0  0  0  0  0
   25.7746    1.7120   -6.0533 N   0  0  0  0  0  0  0  0  0  0  0  0
   24.4488    1.3405   -6.4880 C   0  0  0  0  0  0  0  0  0  0  0  0
   24.7021    0.3574   -7.6351 C   0  0  0  0  0  0  0  0  0  0  0  0
   25.8809    1.0836   -8.3020 C   0  0  0  0  0  0  0  0  0  0  0  0
   26.6936    1.4809   -7.1088 C   0  0  1  0  0  0  0  0  0  0  0  0
   27.5778    2.6402   -7.3870 C   0  0  0  0  0  0  0  0  0  0  0  0
   27.3762    3.9179   -6.8956 O   0  0  0  0  0  0  0  0  0  0  0  0
   28.5777    2.4416   -8.1211 O   0  0  0  0  0  0  0  0  0  0  0  0
  2  1  1  1
  3  2  1  0
  3  4  1  0
  4  8  1  0
  5  4  2  0
  6  7  2  0
  6  2  1  0
  9  6  1  0
 10 14  1  0
 10  9  1  0
 10 11  1  1
 12 16  1  0
 12 11  1  0
 13 12  2  0
 14 17  1  0
 15 14  2  0
 17 21  1  0
 17 18  1  0
 18 19  1  0
 20 19  1  0
 21 20  1  0
 21 22  1  6
 22 24  2  0
 22 23  1  0
M  END
$$$$
