DDP.pdb
     RDKit          3D

 24 24  0  0  1  0  0  0  0  0999 V2000
   12.3744  -12.4331  -10.1970 N   0  0  0  0  0  0  0  0  0  0  0  0
   13.7041  -12.0850  -10.6007 C   0  0  1  0  0  0  0  0  0  0  0  0
   14.0156  -12.7312  -11.9423 C   0  0  0  0  0  0  0  0  0  0  0  0
   14.0694  -14.2034  -11.8274 C   0  0  0  0  0  0  0  0  0  0  0  0
   15.0634  -14.7507  -11.2878 O   0  0  0  0  0  0  0  0  0  0  0  0
   13.7955  -10.5949  -10.7759 C   0  0  0  0  0  0  0  0  0  0  0  0
   12.8409   -9.9325  -11.2281 O   0  0  0  0  0  0  0  0  0  0  0  0
   13.0511  -15.0040  -12.2990 O   0  0  0  0  0  0  0  0  0  0  0  0
   14.9835   -9.9325  -10.4227 N   0  0  0  0  0  0  0  0  0  0  0  0
   15.1048   -8.4640  -10.4147 C   0  0  1  0  0  0  0  0  0  0  0  0
   15.7065   -8.1467   -9.0482 C   0  0  0  0  0  0  0  0  0  0  0  0
   15.9097   -6.6990   -8.8437 C   0  0  0  0  0  0  0  0  0  0  0  0
   15.0478   -5.9031   -9.2808 O   0  0  0  0  0  0  0  0  0  0  0  0
   16.1265   -8.1095  -11.4310 C   0  0  0  0  0  0  0  0  0  0  0  0
   17.2799   -8.6491  -11.3340 O   0  0  0  0  0  0  0  0  0  0  0  0
   17.0084   -6.1689   -8.1909 O   0  0  0  0  0  0  0  0  0  0  0  0
   15.9105   -7.2080  -12.5132 N   0  0  0  0  0  0  0  0  0  0  0  0
   14.6305   -6.6074  -12.8058 C   0  0  0  0  0  0  0  0  0  0  0  0
   14.7236   -6.2548  -14.2936 C   0  0  0  0  0  0  0  0  0  0  0  0
   16.1732   -5.7453  -14.3172 C   0  0  0  0  0  0  0  0  0  0  0  0
   16.8597   -6.7749  -13.4741 C   0  0  1  0  0  0  0  0  0  0  0  0
   18.1187   -6.2669  -12.8740 C   0  0  0  0  0  0  0  0  0  0  0  0
   19.2603   -5.9538  -13.5904 O   0  0  0  0  0  0  0  0  0  0  0  0
   18.1438   -6.1127  -11.6275 O   0  0  0  0  0  0  0  0  0  0  0  0
  2  1  1  6
  3  2  1  0
  3  4  1  0
  4  8  1  0
  5  4  2  0
  6  7  2  0
  6  2  1  0
  9  6  1  0
 10 14  1  0
 10  9  1  0
 10 11  1  1
 12 16  1  0
 12 11  1  0
 13 12  2  0
 14 17  1  0
 15 14  2  0
 17 21  1  0
 17 18  1  0
 18 19  1  0
 20 19  1  0
 21 20  1  0
 21 22  1  1
 22 24  2  0
 22 23  1  0
M  END
$$$$
