DDP.pdb
     RDKit          3D

 24 24  0  0  1  0  0  0  0  0999 V2000
   18.9344  -10.8346  -15.1429 N   0  0  0  0  0  0  0  0  0  0  0  0
   17.6088  -10.5615  -14.6736 C   0  0  1  0  0  0  0  0  0  0  0  0
   17.0274  -11.8118  -14.0307 C   0  0  0  0  0  0  0  0  0  0  0  0
   16.7594  -12.8571  -15.0401 C   0  0  0  0  0  0  0  0  0  0  0  0
   15.8941  -12.6580  -15.9291 O   0  0  0  0  0  0  0  0  0  0  0  0
   17.6656   -9.4882  -13.6226 C   0  0  0  0  0  0  0  0  0  0  0  0
   18.5229   -9.5077  -12.7176 O   0  0  0  0  0  0  0  0  0  0  0  0
   17.4372  -14.0575  -15.0367 O   0  0  0  0  0  0  0  0  0  0  0  0
   16.7316   -8.4389  -13.6601 N   0  0  0  0  0  0  0  0  0  0  0  0
   16.7298   -7.3385  -12.6801 C   0  0  1  0  0  0  0  0  0  0  0  0
   16.4908   -6.0886  -13.5231 C   0  0  0  0  0  0  0  0  0  0  0  0
   16.3649   -4.8692  -12.7007 C   0  0  0  0  0  0  0  0  0  0  0  0
   17.2992   -4.5691  -11.9233 O   0  0  0  0  0  0  0  0  0  0  0  0
   15.5294   -7.5219  -11.8269 C   0  0  0  0  0  0  0  0  0  0  0  0
   14.4277   -7.8201  -12.3996 O   0  0  0  0  0  0  0  0  0  0  0  0
   15.2632   -4.0332  -12.7417 O   0  0  0  0  0  0  0  0  0  0  0  0
   15.5194   -7.3909  -10.4080 N   0  0  0  0  0  0  0  0  0  0  0  0
   16.7009   -7.1146   -9.6255 C   0  0  0  0  0  0  0  0  0  0  0  0
   16.3516   -7.6510   -8.2338 C   0  0  0  0  0  0  0  0  0  0  0  0
   14.8910   -7.1779   -8.1669 C   0  0  0  0  0  0  0  0  0  0  0  0
   14.4061   -7.5278   -9.5397 C   0  0  1  0  0  0  0  0  0  0  0  0
   13.2334   -6.7155   -9.9497 C   0  0  0  0  0  0  0  0  0  0  0  0
   11.9421   -6.9139   -9.4939 O   0  0  0  0  0  0  0  0  0  0  0  0
   13.4332   -5.7841  -10.7687 O   0  0  0  0  0  0  0  0  0  0  0  0
  2  1  1  1
  3  2  1  0
  3  4  1  0
  4  8  1  0
  5  4  2  0
  6  7  2  0
  6  2  1  0
  9  6  1  0
 10 14  1  0
 10  9  1  0
 10 11  1  6
 12 16  1  0
 12 11  1  0
 13 12  2  0
 14 17  1  0
 15 14  2  0
 17 21  1  0
 17 18  1  0
 18 19  1  0
 20 19  1  0
 21 20  1  0
 21 22  1  6
 22 24  2  0
 22 23  1  0
M  END
$$$$
