DDP.pdb
     RDKit          3D

 24 24  0  0  1  0  0  0  0  0999 V2000
   16.7652  -13.3444  -16.0462 N   0  0  0  0  0  0  0  0  0  0  0  0
   16.6406  -12.1016  -15.3447 C   0  0  1  0  0  0  0  0  0  0  0  0
   16.5979  -12.3634  -13.8466 C   0  0  0  0  0  0  0  0  0  0  0  0
   15.4044  -13.1513  -13.4750 C   0  0  0  0  0  0  0  0  0  0  0  0
   14.2656  -12.7694  -13.8438 O   0  0  0  0  0  0  0  0  0  0  0  0
   17.8455  -11.2486  -15.6281 C   0  0  0  0  0  0  0  0  0  0  0  0
   18.9992  -11.7204  -15.5972 O   0  0  0  0  0  0  0  0  0  0  0  0
   15.5029  -14.3058  -12.7281 O   0  0  0  0  0  0  0  0  0  0  0  0
   17.6686   -9.8887  -15.9346 N   0  0  0  0  0  0  0  0  0  0  0  0
   18.7812   -9.0124  -16.3415 C   0  0  1  0  0  0  0  0  0  0  0  0
   18.2330   -8.2468  -17.5428 C   0  0  0  0  0  0  0  0  0  0  0  0
   18.3015   -9.0319  -18.7910 C   0  0  0  0  0  0  0  0  0  0  0  0
   19.3374   -9.6934  -19.0293 O   0  0  0  0  0  0  0  0  0  0  0  0
   18.9749   -8.0254  -15.2502 C   0  0  0  0  0  0  0  0  0  0  0  0
   17.9349   -7.5146  -14.7133 O   0  0  0  0  0  0  0  0  0  0  0  0
   17.2765   -9.0775  -19.7193 O   0  0  0  0  0  0  0  0  0  0  0  0
   20.2441   -7.6073  -14.7552 N   0  0  0  0  0  0  0  0  0  0  0  0
   21.4936   -8.2058  -15.1613 C   0  0  0  0  0  0  0  0  0  0  0  0
   22.4418   -7.8976  -13.9983 C   0  0  0  0  0  0  0  0  0  0  0  0
   21.9906   -6.4568  -13.7116 C   0  0  0  0  0  0  0  0  0  0  0  0
   20.5019   -6.5931  -13.7977 C   0  0  1  0  0  0  0  0  0  0  0  0
   19.8327   -5.3047  -14.1065 C   0  0  0  0  0  0  0  0  0  0  0  0
   19.2260   -5.0039  -15.3132 O   0  0  0  0  0  0  0  0  0  0  0  0
   19.8194   -4.4296  -13.2055 O   0  0  0  0  0  0  0  0  0  0  0  0
  2  1  1  6
  3  2  1  0
  3  4  1  0
  4  8  1  0
  5  4  2  0
  6  7  2  0
  6  2  1  0
  9  6  1  0
 10 14  1  0
 10  9  1  0
 10 11  1  6
 12 16  1  0
 12 11  1  0
 13 12  2  0
 14 17  1  0
 15 14  2  0
 17 21  1  0
 17 18  1  0
 18 19  1  0
 20 19  1  0
 21 20  1  0
 21 22  1  6
 22 24  2  0
 22 23  1  0
M  END
$$$$
