NQC.pdb
     RDKit          3D

 24 23  0  0  1  0  0  0  0  0999 V2000
   21.2098   -9.1232  -14.0702 N   0  0  0  0  0  0  0  0  0  0  0  0
   21.1751   -7.8906  -13.3682 C   0  0  0  0  0  0  0  0  0  0  0  0
   22.2002   -7.2334  -13.1273 O   0  0  0  0  0  0  0  0  0  0  0  0
   19.8484   -7.4023  -12.9221 C   0  0  0  0  0  0  0  0  0  0  0  0
   18.7478   -8.3789  -13.3576 C   0  0  2  0  0  0  0  0  0  0  0  0
   18.6155   -8.2302  -14.7861 N   0  0  0  0  0  0  0  0  0  0  0  0
   17.4717   -7.9595  -12.7210 C   0  0  0  0  0  0  0  0  0  0  0  0
   16.7727   -7.0408  -13.2210 O   0  0  0  0  0  0  0  0  0  0  0  0
   13.5974  -11.5685   -9.7403 N   0  0  0  0  0  0  0  0  0  0  0  0
   12.8980  -10.3703   -9.5062 C   0  0  0  0  0  0  0  0  0  0  0  0
   11.7639  -10.2652   -9.0192 O   0  0  0  0  0  0  0  0  0  0  0  0
   13.6219   -9.0893   -9.8958 C   0  0  0  0  0  0  0  0  0  0  0  0
   14.9742   -9.4204  -10.4413 C   0  0  0  0  0  0  0  0  0  0  0  0
   15.6604   -8.2194  -10.9715 C   0  0  2  0  0  0  0  0  0  0  0  0
   16.9706   -8.5545  -11.5354 N   0  0  0  0  0  0  0  0  0  0  0  0
   15.9208   -7.2599   -9.8776 C   0  0  0  0  0  0  0  0  0  0  0  0
   16.6917   -7.4958   -8.9128 O   0  0  0  0  0  0  0  0  0  0  0  0
   15.2928   -5.9768   -9.8567 N   0  0  0  0  0  0  0  0  0  0  0  0
   15.3807   -5.0515   -8.7699 C   0  0  1  0  0  0  0  0  0  0  0  0
   15.2610   -3.6167   -9.1743 C   0  0  0  0  0  0  0  0  0  0  0  0
   15.3836   -2.5713   -7.6788 S   0  0  0  0  0  0  0  0  0  0  0  0
   14.2903   -5.3725   -7.8077 C   0  0  0  0  0  0  0  0  0  0  0  0
   13.1664   -5.8120   -8.1599 O   0  0  0  0  0  0  0  0  0  0  0  0
   14.5305   -5.1758   -6.4620 O   0  0  0  0  0  0  0  0  0  0  0  0
  2  1  1  0
  2  3  2  0
  4  2  1  0
  5  4  1  0
  5  6  1  6
  7  5  1  0
  8  7  2  0
 10 12  1  0
 10  9  1  0
 11 10  2  0
 13 12  1  0
 14 13  1  1
 14 15  1  0
 15  7  1  0
 16 14  1  0
 16 17  2  0
 18 16  1  0
 19 18  1  0
 19 20  1  6
 20 21  1  0
 22 19  1  0
 23 22  2  0
 24 22  1  0
M  END
$$$$
