NQC.pdb
     RDKit          3D

 24 23  0  0  1  0  0  0  0  0999 V2000
   16.8981  -14.0466  -16.8862 N   0  0  0  0  0  0  0  0  0  0  0  0
   18.0550  -13.5345  -17.5284 C   0  0  0  0  0  0  0  0  0  0  0  0
   18.2805  -13.7151  -18.7355 O   0  0  0  0  0  0  0  0  0  0  0  0
   19.0059  -12.7607  -16.6948 C   0  0  0  0  0  0  0  0  0  0  0  0
   20.4113  -13.3700  -16.7859 C   0  0  2  0  0  0  0  0  0  0  0  0
   20.3698  -14.5998  -16.0335 N   0  0  0  0  0  0  0  0  0  0  0  0
   21.3663  -12.4445  -16.1217 C   0  0  0  0  0  0  0  0  0  0  0  0
   21.2561  -12.1727  -14.8983 O   0  0  0  0  0  0  0  0  0  0  0  0
   27.1592  -11.3031  -17.9020 N   0  0  0  0  0  0  0  0  0  0  0  0
   27.1561  -10.4890  -16.7545 C   0  0  0  0  0  0  0  0  0  0  0  0
   28.1338   -9.9074  -16.2641 O   0  0  0  0  0  0  0  0  0  0  0  0
   25.8113  -10.3183  -16.0622 C   0  0  0  0  0  0  0  0  0  0  0  0
   24.7861  -11.1744  -16.7345 C   0  0  0  0  0  0  0  0  0  0  0  0
   23.4447  -10.9991  -16.1310 C   0  0  2  0  0  0  0  0  0  0  0  0
   22.4393  -11.8219  -16.8085 N   0  0  0  0  0  0  0  0  0  0  0  0
   22.9976   -9.5988  -16.2866 C   0  0  0  0  0  0  0  0  0  0  0  0
   22.5624   -9.1223  -17.3657 O   0  0  0  0  0  0  0  0  0  0  0  0
   23.0373   -8.6853  -15.1889 N   0  0  0  0  0  0  0  0  0  0  0  0
   22.6545   -7.3097  -15.2677 C   0  0  1  0  0  0  0  0  0  0  0  0
   22.2763   -6.7017  -13.9548 C   0  0  0  0  0  0  0  0  0  0  0  0
   21.8252   -4.9502  -14.2252 S   0  0  0  0  0  0  0  0  0  0  0  0
   23.8008   -6.5488  -15.8377 C   0  0  0  0  0  0  0  0  0  0  0  0
   24.9977   -6.7613  -15.5173 O   0  0  0  0  0  0  0  0  0  0  0  0
   23.5304   -5.5610  -16.7642 O   0  0  0  0  0  0  0  0  0  0  0  0
  2  1  1  0
  2  3  2  0
  4  2  1  0
  5  4  1  0
  5  6  1  1
  7  5  1  0
  8  7  2  0
 10 12  1  0
 10  9  1  0
 11 10  2  0
 13 12  1  0
 14 13  1  6
 14 15  1  0
 15  7  1  0
 16 14  1  0
 16 17  2  0
 18 16  1  0
 19 18  1  0
 19 20  1  1
 20 21  1  0
 22 19  1  0
 23 22  2  0
 24 22  1  0
M  END
$$$$
