NQC.pdb
     RDKit          3D

 24 23  0  0  1  0  0  0  0  0999 V2000
   17.0030  -27.8433   -5.6343 N   0  0  0  0  0  0  0  0  0  0  0  0
   15.7819  -27.2656   -5.2003 C   0  0  0  0  0  0  0  0  0  0  0  0
   14.6886  -27.5617   -5.7080 O   0  0  0  0  0  0  0  0  0  0  0  0
   15.8544  -26.2766   -4.0984 C   0  0  0  0  0  0  0  0  0  0  0  0
   15.3145  -24.9183   -4.5658 C   0  0  2  0  0  0  0  0  0  0  0  0
   16.2659  -24.4116   -5.5239 N   0  0  0  0  0  0  0  0  0  0  0  0
   15.2878  -23.9988   -3.3982 C   0  0  0  0  0  0  0  0  0  0  0  0
   16.3551  -23.6221   -2.8491 O   0  0  0  0  0  0  0  0  0  0  0  0
   10.7560  -20.0378   -1.9939 N   0  0  0  0  0  0  0  0  0  0  0  0
   11.5469  -19.8028   -0.8543 C   0  0  0  0  0  0  0  0  0  0  0  0
   11.3426  -18.9469    0.0176 O   0  0  0  0  0  0  0  0  0  0  0  0
   12.7679  -20.6976   -0.6946 C   0  0  0  0  0  0  0  0  0  0  0  0
   12.8532  -21.6446   -1.8487 C   0  0  0  0  0  0  0  0  0  0  0  0
   14.0620  -22.4973   -1.7697 C   0  0  2  0  0  0  0  0  0  0  0  0
   14.0844  -23.4976   -2.8401 N   0  0  0  0  0  0  0  0  0  0  0  0
   14.0647  -23.2570   -0.5017 C   0  0  0  0  0  0  0  0  0  0  0  0
   13.4996  -24.3707   -0.3556 O   0  0  0  0  0  0  0  0  0  0  0  0
   14.7276  -22.7527    0.6591 N   0  0  0  0  0  0  0  0  0  0  0  0
   14.8157  -23.4479    1.9056 C   0  0  1  0  0  0  0  0  0  0  0  0
   16.1598  -24.0417    2.1835 C   0  0  0  0  0  0  0  0  0  0  0  0
   17.3985  -22.6973    2.2330 S   0  0  0  0  0  0  0  0  0  0  0  0
   14.4822  -22.4838    2.9906 C   0  0  0  0  0  0  0  0  0  0  0  0
   14.3483  -21.2486    2.7990 O   0  0  0  0  0  0  0  0  0  0  0  0
   14.3125  -22.9761    4.2697 O   0  0  0  0  0  0  0  0  0  0  0  0
  2  1  1  0
  2  3  2  0
  4  2  1  0
  5  4  1  0
  5  6  1  6
  7  5  1  0
  8  7  2  0
 10 12  1  0
 10  9  1  0
 11 10  2  0
 13 12  1  0
 14 13  1  6
 14 15  1  0
 15  7  1  0
 16 14  1  0
 16 17  2  0
 18 16  1  0
 19 18  1  0
 19 20  1  1
 20 21  1  0
 22 19  1  0
 23 22  2  0
 24 22  1  0
M  END
$$$$
