NQC.pdb
     RDKit          3D

 24 23  0  0  1  0  0  0  0  0999 V2000
   16.6789  -14.1793  -18.2438 N   0  0  0  0  0  0  0  0  0  0  0  0
   17.7418  -13.2395  -18.2514 C   0  0  0  0  0  0  0  0  0  0  0  0
   18.6054  -13.2194  -19.1429 O   0  0  0  0  0  0  0  0  0  0  0  0
   17.7897  -12.2620  -17.1380 C   0  0  0  0  0  0  0  0  0  0  0  0
   19.1200  -11.4972  -17.1579 C   0  0  2  0  0  0  0  0  0  0  0  0
   20.0304  -12.2453  -16.3262 N   0  0  0  0  0  0  0  0  0  0  0  0
   18.9026  -10.1644  -16.5366 C   0  0  0  0  0  0  0  0  0  0  0  0
   18.2228   -9.2828  -17.1224 O   0  0  0  0  0  0  0  0  0  0  0  0
   17.3604   -9.1752  -10.8843 N   0  0  0  0  0  0  0  0  0  0  0  0
   16.4195   -9.0755  -11.9256 C   0  0  0  0  0  0  0  0  0  0  0  0
   15.1890   -9.1651  -11.8146 O   0  0  0  0  0  0  0  0  0  0  0  0
   16.9883   -8.8338  -13.3166 C   0  0  0  0  0  0  0  0  0  0  0  0
   18.4824   -8.8274  -13.2562 C   0  0  0  0  0  0  0  0  0  0  0  0
   19.0835   -8.5632  -14.5841 C   0  0  2  0  0  0  0  0  0  0  0  0
   19.4353   -9.8084  -15.2716 N   0  0  0  0  0  0  0  0  0  0  0  0
   20.3472   -7.8125  -14.4283 C   0  0  0  0  0  0  0  0  0  0  0  0
   21.4210   -8.3310  -14.0294 O   0  0  0  0  0  0  0  0  0  0  0  0
   20.4190   -6.4180  -14.7307 N   0  0  0  0  0  0  0  0  0  0  0  0
   21.5947   -5.6178  -14.5804 C   0  0  1  0  0  0  0  0  0  0  0  0
   21.8171   -4.6397  -15.6896 C   0  0  0  0  0  0  0  0  0  0  0  0
   23.2606   -3.5966  -15.2739 S   0  0  0  0  0  0  0  0  0  0  0  0
   21.4778   -4.8713  -13.2971 C   0  0  0  0  0  0  0  0  0  0  0  0
   20.4769   -4.1743  -12.9929 O   0  0  0  0  0  0  0  0  0  0  0  0
   22.5242   -4.9518  -12.3994 O   0  0  0  0  0  0  0  0  0  0  0  0
  2  1  1  0
  2  3  2  0
  4  2  1  0
  5  4  1  0
  5  6  1  1
  7  5  1  0
  8  7  2  0
 10 12  1  0
 10  9  1  0
 11 10  2  0
 13 12  1  0
 14 13  1  1
 14 15  1  0
 15  7  1  0
 16 14  1  0
 16 17  2  0
 18 16  1  0
 19 18  1  0
 19 20  1  6
 20 21  1  0
 22 19  1  0
 23 22  2  0
 24 22  1  0
M  END
$$$$
