NQC.pdb
     RDKit          3D

 24 23  0  0  1  0  0  0  0  0999 V2000
   13.0992  -11.2184   -9.2309 N   0  0  0  0  0  0  0  0  0  0  0  0
   12.3834  -10.0505   -9.6009 C   0  0  0  0  0  0  0  0  0  0  0  0
   11.1432  -10.0005   -9.5942 O   0  0  0  0  0  0  0  0  0  0  0  0
   13.1801   -8.8672  -10.0042 C   0  0  0  0  0  0  0  0  0  0  0  0
   14.6789   -9.1548   -9.8439 C   0  0  2  0  0  0  0  0  0  0  0  0
   14.9588   -9.0732   -8.4314 N   0  0  0  0  0  0  0  0  0  0  0  0
   15.4379   -8.0806  -10.5365 C   0  0  0  0  0  0  0  0  0  0  0  0
   15.3556   -7.9336  -11.7832 O   0  0  0  0  0  0  0  0  0  0  0  0
   17.7119   -2.7766   -8.2239 N   0  0  0  0  0  0  0  0  0  0  0  0
   16.3882   -2.8760   -8.6903 C   0  0  0  0  0  0  0  0  0  0  0  0
   15.4659   -2.0828   -8.4568 O   0  0  0  0  0  0  0  0  0  0  0  0
   16.0791   -4.0824   -9.5654 C   0  0  0  0  0  0  0  0  0  0  0  0
   17.2859   -4.9604   -9.6583 C   0  0  0  0  0  0  0  0  0  0  0  0
   17.0483   -6.1273  -10.5393 C   0  0  2  0  0  0  0  0  0  0  0  0
   16.2849   -7.1723   -9.8522 N   0  0  0  0  0  0  0  0  0  0  0  0
   18.3357   -6.7461  -10.9195 C   0  0  0  0  0  0  0  0  0  0  0  0
   18.9243   -7.6129  -10.2242 O   0  0  0  0  0  0  0  0  0  0  0  0
   18.9998   -6.3826  -12.1311 N   0  0  0  0  0  0  0  0  0  0  0  0
   20.2290   -6.9570  -12.5828 C   0  0  1  0  0  0  0  0  0  0  0  0
   20.1050   -8.3641  -13.0738 C   0  0  0  0  0  0  0  0  0  0  0  0
   21.7522   -8.9464  -13.6144 S   0  0  0  0  0  0  0  0  0  0  0  0
   20.7515   -6.1063  -13.6879 C   0  0  0  0  0  0  0  0  0  0  0  0
   20.0107   -5.5270  -14.5221 O   0  0  0  0  0  0  0  0  0  0  0  0
   22.1192   -5.9490  -13.7978 O   0  0  0  0  0  0  0  0  0  0  0  0
  2  1  1  0
  2  3  2  0
  4  2  1  0
  5  4  1  0
  5  6  1  1
  7  5  1  0
  8  7  2  0
 10 12  1  0
 10  9  1  0
 11 10  2  0
 13 12  1  0
 14 13  1  1
 14 15  1  0
 15  7  1  0
 16 14  1  0
 16 17  2  0
 18 16  1  0
 19 18  1  0
 19 20  1  6
 20 21  1  0
 22 19  1  0
 23 22  2  0
 24 22  1  0
M  END
$$$$
