NQC.pdb
     RDKit          3D

 24 23  0  0  1  0  0  0  0  0999 V2000
   15.9343  -13.3632  -15.4407 N   0  0  0  0  0  0  0  0  0  0  0  0
   16.6659  -12.7540  -14.3886 C   0  0  0  0  0  0  0  0  0  0  0  0
   16.7087  -13.2329  -13.2442 O   0  0  0  0  0  0  0  0  0  0  0  0
   17.3928  -11.5016  -14.7058 C   0  0  0  0  0  0  0  0  0  0  0  0
   17.0499  -11.0322  -16.1260 C   0  0  2  0  0  0  0  0  0  0  0  0
   17.7125  -11.9441  -17.0257 N   0  0  0  0  0  0  0  0  0  0  0  0
   17.6262   -9.6761  -16.3223 C   0  0  0  0  0  0  0  0  0  0  0  0
   18.7884   -9.5293  -16.7811 O   0  0  0  0  0  0  0  0  0  0  0  0
   14.9724   -4.6062  -17.9329 N   0  0  0  0  0  0  0  0  0  0  0  0
   16.0755   -3.9289  -17.3815 C   0  0  0  0  0  0  0  0  0  0  0  0
   16.3825   -2.7448  -17.5765 O   0  0  0  0  0  0  0  0  0  0  0  0
   16.9665   -4.7477  -16.4582 C   0  0  0  0  0  0  0  0  0  0  0  0
   16.4033   -6.1244  -16.3045 C   0  0  0  0  0  0  0  0  0  0  0  0
   17.4705   -7.1503  -16.2513 C   0  0  2  0  0  0  0  0  0  0  0  0
   16.9192   -8.4867  -16.0123 N   0  0  0  0  0  0  0  0  0  0  0  0
   18.3811   -6.8766  -15.1196 C   0  0  0  0  0  0  0  0  0  0  0  0
   18.0826   -7.0920  -13.9174 O   0  0  0  0  0  0  0  0  0  0  0  0
   19.6861   -6.3371  -15.3365 N   0  0  0  0  0  0  0  0  0  0  0  0
   20.6077   -6.0066  -14.2942 C   0  0  1  0  0  0  0  0  0  0  0  0
   21.8363   -6.8588  -14.2683 C   0  0  0  0  0  0  0  0  0  0  0  0
   22.9068   -6.3069  -12.8922 S   0  0  0  0  0  0  0  0  0  0  0  0
   21.0123   -4.5850  -14.4762 C   0  0  0  0  0  0  0  0  0  0  0  0
   21.0337   -4.0114  -15.5947 O   0  0  0  0  0  0  0  0  0  0  0  0
   21.3816   -3.8647  -13.3573 O   0  0  0  0  0  0  0  0  0  0  0  0
  2  1  1  0
  2  3  2  0
  4  2  1  0
  5  4  1  0
  5  6  1  6
  7  5  1  0
  8  7  2  0
 10 12  1  0
 10  9  1  0
 11 10  2  0
 13 12  1  0
 14 13  1  1
 14 15  1  0
 15  7  1  0
 16 14  1  0
 16 17  2  0
 18 16  1  0
 19 18  1  0
 19 20  1  6
 20 21  1  0
 22 19  1  0
 23 22  2  0
 24 22  1  0
M  END
$$$$
