NQC.pdb
     RDKit          3D

 24 23  0  0  1  0  0  0  0  0999 V2000
   15.8852  -14.0502  -13.6625 N   0  0  0  0  0  0  0  0  0  0  0  0
   15.7706  -13.2767  -12.4785 C   0  0  0  0  0  0  0  0  0  0  0  0
   15.5074  -13.7831  -11.3762 O   0  0  0  0  0  0  0  0  0  0  0  0
   15.9793  -11.8143  -12.6020 C   0  0  0  0  0  0  0  0  0  0  0  0
   14.9738  -11.0571  -11.7242 C   0  0  2  0  0  0  0  0  0  0  0  0
   13.6963  -11.1658  -12.3847 N   0  0  0  0  0  0  0  0  0  0  0  0
   15.3665   -9.6238  -11.6929 C   0  0  0  0  0  0  0  0  0  0  0  0
   15.2041   -8.8883  -12.7006 O   0  0  0  0  0  0  0  0  0  0  0  0
   15.2530   -5.9834   -6.8926 N   0  0  0  0  0  0  0  0  0  0  0  0
   14.2001   -6.0081   -7.8256 C   0  0  0  0  0  0  0  0  0  0  0  0
   13.0368   -5.6299   -7.6303 O   0  0  0  0  0  0  0  0  0  0  0  0
   14.5437   -6.5563   -9.2034 C   0  0  0  0  0  0  0  0  0  0  0  0
   15.9851   -6.9520   -9.2435 C   0  0  0  0  0  0  0  0  0  0  0  0
   16.3405   -7.5980  -10.5282 C   0  0  2  0  0  0  0  0  0  0  0  0
   15.9369   -9.0063  -10.5509 N   0  0  0  0  0  0  0  0  0  0  0  0
   17.8074   -7.5915  -10.7104 C   0  0  0  0  0  0  0  0  0  0  0  0
   18.6047   -8.2160   -9.9653 O   0  0  0  0  0  0  0  0  0  0  0  0
   18.4157   -6.8544  -11.7723 N   0  0  0  0  0  0  0  0  0  0  0  0
   19.8076   -6.9039  -12.0969 C   0  0  1  0  0  0  0  0  0  0  0  0
   20.2147   -8.1179  -12.8694 C   0  0  0  0  0  0  0  0  0  0  0  0
   21.9774   -7.9591  -13.3298 S   0  0  0  0  0  0  0  0  0  0  0  0
   20.1327   -5.6920  -12.8991 C   0  0  0  0  0  0  0  0  0  0  0  0
   21.2860   -5.1959  -12.9632 O   0  0  0  0  0  0  0  0  0  0  0  0
   19.1129   -5.0864  -13.6064 O   0  0  0  0  0  0  0  0  0  0  0  0
  2  1  1  0
  2  3  2  0
  4  2  1  0
  5  4  1  0
  5  6  1  6
  7  5  1  0
  8  7  2  0
 10 12  1  0
 10  9  1  0
 11 10  2  0
 13 12  1  0
 14 13  1  1
 14 15  1  0
 15  7  1  0
 16 14  1  0
 16 17  2  0
 18 16  1  0
 19 18  1  0
 19 20  1  6
 20 21  1  0
 22 19  1  0
 23 22  2  0
 24 22  1  0
M  END
$$$$
