NQC.pdb
     RDKit          3D

 24 23  0  0  1  0  0  0  0  0999 V2000
   17.3366  -12.5944  -19.4328 N   0  0  0  0  0  0  0  0  0  0  0  0
   17.9739  -11.3529  -19.6888 C   0  0  0  0  0  0  0  0  0  0  0  0
   17.7608  -10.6962  -20.7204 O   0  0  0  0  0  0  0  0  0  0  0  0
   18.9220  -10.8541  -18.6641 C   0  0  0  0  0  0  0  0  0  0  0  0
   20.2722  -10.5138  -19.3091 C   0  0  2  0  0  0  0  0  0  0  0  0
   21.0597  -11.7212  -19.2627 N   0  0  0  0  0  0  0  0  0  0  0  0
   20.9426   -9.4828  -18.4742 C   0  0  0  0  0  0  0  0  0  0  0  0
   21.8001   -9.8077  -17.6129 O   0  0  0  0  0  0  0  0  0  0  0  0
   21.4979   -2.2787  -17.7465 N   0  0  0  0  0  0  0  0  0  0  0  0
   22.0426   -3.3958  -18.4059 C   0  0  0  0  0  0  0  0  0  0  0  0
   22.5435   -3.4077  -19.5388 O   0  0  0  0  0  0  0  0  0  0  0  0
   22.0036   -4.7083  -17.6361 C   0  0  0  0  0  0  0  0  0  0  0  0
   21.3374   -5.7594  -18.4652 C   0  0  0  0  0  0  0  0  0  0  0  0
   21.3534   -7.0793  -17.7930 C   0  0  2  0  0  0  0  0  0  0  0  0
   20.6656   -8.0971  -18.5918 N   0  0  0  0  0  0  0  0  0  0  0  0
   20.6217   -7.0044  -16.5108 C   0  0  0  0  0  0  0  0  0  0  0  0
   19.3731   -6.8822  -16.4273 O   0  0  0  0  0  0  0  0  0  0  0  0
   21.3130   -7.0681  -15.2621 N   0  0  0  0  0  0  0  0  0  0  0  0
   20.6821   -6.9656  -13.9829 C   0  0  1  0  0  0  0  0  0  0  0  0
   20.8416   -8.1774  -13.1211 C   0  0  0  0  0  0  0  0  0  0  0  0
   20.0759   -7.8473  -11.4935 S   0  0  0  0  0  0  0  0  0  0  0  0
   21.2691   -5.7929  -13.2770 C   0  0  0  0  0  0  0  0  0  0  0  0
   22.4725   -5.4487  -13.3937 O   0  0  0  0  0  0  0  0  0  0  0  0
   20.4462   -5.0494  -12.4541 O   0  0  0  0  0  0  0  0  0  0  0  0
  2  1  1  0
  2  3  2  0
  4  2  1  0
  5  4  1  0
  5  6  1  1
  7  5  1  0
  8  7  2  0
 10 12  1  0
 10  9  1  0
 11 10  2  0
 13 12  1  0
 14 13  1  6
 14 15  1  0
 15  7  1  0
 16 14  1  0
 16 17  2  0
 18 16  1  0
 19 18  1  0
 19 20  1  1
 20 21  1  0
 22 19  1  0
 23 22  2  0
 24 22  1  0
M  END
$$$$
