NQC.pdb
     RDKit          3D

 24 23  0  0  1  0  0  0  0  0999 V2000
   15.5202  -11.0833  -16.5096 N   0  0  0  0  0  0  0  0  0  0  0  0
   15.2696  -11.6501  -15.2332 C   0  0  0  0  0  0  0  0  0  0  0  0
   14.2928  -12.3831  -15.0112 O   0  0  0  0  0  0  0  0  0  0  0  0
   16.2313  -11.3328  -14.1506 C   0  0  0  0  0  0  0  0  0  0  0  0
   17.3215  -10.3848  -14.6680 C   0  0  2  0  0  0  0  0  0  0  0  0
   18.3008  -11.2139  -15.3266 N   0  0  0  0  0  0  0  0  0  0  0  0
   17.9675   -9.7326  -13.4989 C   0  0  0  0  0  0  0  0  0  0  0  0
   19.1711   -9.9634  -13.2149 O   0  0  0  0  0  0  0  0  0  0  0  0
   21.5004   -6.9372  -12.9395 N   0  0  0  0  0  0  0  0  0  0  0  0
   20.9799   -5.8763  -12.1759 C   0  0  0  0  0  0  0  0  0  0  0  0
   21.6345   -5.0034  -11.5894 O   0  0  0  0  0  0  0  0  0  0  0  0
   19.4627   -5.8117  -12.0724 C   0  0  0  0  0  0  0  0  0  0  0  0
   18.8583   -6.9750  -12.7917 C   0  0  0  0  0  0  0  0  0  0  0  0
   17.9677   -7.7629  -11.9084 C   0  0  2  0  0  0  0  0  0  0  0  0
   17.2843   -8.8280  -12.6470 N   0  0  0  0  0  0  0  0  0  0  0  0
   16.9016   -6.8976  -11.3610 C   0  0  0  0  0  0  0  0  0  0  0  0
   16.2124   -6.1134  -12.0617 O   0  0  0  0  0  0  0  0  0  0  0  0
   16.5880   -6.9054   -9.9672 N   0  0  0  0  0  0  0  0  0  0  0  0
   15.4771   -6.2186   -9.3848 C   0  0  1  0  0  0  0  0  0  0  0  0
   14.9555   -6.8469   -8.1320 C   0  0  0  0  0  0  0  0  0  0  0  0
   14.5301   -8.5910   -8.4810 S   0  0  0  0  0  0  0  0  0  0  0  0
   15.9097   -4.8264   -9.0805 C   0  0  0  0  0  0  0  0  0  0  0  0
   15.1229   -3.9312   -8.6808 O   0  0  0  0  0  0  0  0  0  0  0  0
   17.2430   -4.5076   -9.2473 O   0  0  0  0  0  0  0  0  0  0  0  0
  2  1  1  0
  2  3  2  0
  4  2  1  0
  5  4  1  0
  5  6  1  1
  7  5  1  0
  8  7  2  0
 10 12  1  0
 10  9  1  0
 11 10  2  0
 13 12  1  0
 14 13  1  6
 14 15  1  0
 15  7  1  0
 16 14  1  0
 16 17  2  0
 18 16  1  0
 19 18  1  0
 19 20  1  1
 20 21  1  0
 22 19  1  0
 23 22  2  0
 24 22  1  0
M  END
$$$$
