NQC.pdb
     RDKit          3D

 24 23  0  0  1  0  0  0  0  0999 V2000
   17.6395  -13.8515  -14.1949 N   0  0  0  0  0  0  0  0  0  0  0  0
   16.4708  -13.1782  -13.7544 C   0  0  0  0  0  0  0  0  0  0  0  0
   15.4644  -13.7850  -13.3547 O   0  0  0  0  0  0  0  0  0  0  0  0
   16.4899  -11.6963  -13.7871 C   0  0  0  0  0  0  0  0  0  0  0  0
   15.4921  -11.1285  -12.7688 C   0  0  2  0  0  0  0  0  0  0  0  0
   14.1912  -11.2115  -13.3859 N   0  0  0  0  0  0  0  0  0  0  0  0
   15.8161   -9.6950  -12.5457 C   0  0  0  0  0  0  0  0  0  0  0  0
   15.5189   -8.8252  -13.4046 O   0  0  0  0  0  0  0  0  0  0  0  0
   15.3222   -6.5403   -7.3987 N   0  0  0  0  0  0  0  0  0  0  0  0
   14.2796   -6.7572   -8.3180 C   0  0  0  0  0  0  0  0  0  0  0  0
   13.0713   -6.5749   -8.1145 O   0  0  0  0  0  0  0  0  0  0  0  0
   14.6967   -7.2652   -9.6909 C   0  0  0  0  0  0  0  0  0  0  0  0
   16.1795   -7.4545   -9.7292 C   0  0  0  0  0  0  0  0  0  0  0  0
   16.6529   -7.8008  -11.0894 C   0  0  2  0  0  0  0  0  0  0  0  0
   16.4665   -9.2255  -11.3764 N   0  0  0  0  0  0  0  0  0  0  0  0
   18.1053   -7.5493  -11.2003 C   0  0  0  0  0  0  0  0  0  0  0  0
   18.9792   -8.2489  -10.6278 O   0  0  0  0  0  0  0  0  0  0  0  0
   18.6088   -6.4672  -11.9855 N   0  0  0  0  0  0  0  0  0  0  0  0
   19.9931   -6.2527  -12.2730 C   0  0  1  0  0  0  0  0  0  0  0  0
   20.6393   -7.3612  -13.0412 C   0  0  0  0  0  0  0  0  0  0  0  0
   22.3428   -6.8597  -13.4782 S   0  0  0  0  0  0  0  0  0  0  0  0
   20.1064   -4.9930  -13.0592 C   0  0  0  0  0  0  0  0  0  0  0  0
   19.1536   -4.5011  -13.7154 O   0  0  0  0  0  0  0  0  0  0  0  0
   21.3210   -4.3358  -13.0648 O   0  0  0  0  0  0  0  0  0  0  0  0
  2  1  1  0
  2  3  2  0
  4  2  1  0
  5  4  1  0
  5  6  1  6
  7  5  1  0
  8  7  2  0
 10 12  1  0
 10  9  1  0
 11 10  2  0
 13 12  1  0
 14 13  1  1
 14 15  1  0
 15  7  1  0
 16 14  1  0
 16 17  2  0
 18 16  1  0
 19 18  1  0
 19 20  1  6
 20 21  1  0
 22 19  1  0
 23 22  2  0
 24 22  1  0
M  END
$$$$
