NQC.pdb
     RDKit          3D

 24 23  0  0  1  0  0  0  0  0999 V2000
   27.1672  -12.5457  -15.9093 N   0  0  0  0  0  0  0  0  0  0  0  0
   27.4903  -11.2180  -16.2911 C   0  0  0  0  0  0  0  0  0  0  0  0
   28.6618  -10.8337  -16.4348 O   0  0  0  0  0  0  0  0  0  0  0  0
   26.3612  -10.2846  -16.5179 C   0  0  0  0  0  0  0  0  0  0  0  0
   25.0271  -10.9793  -16.2139 C   0  0  2  0  0  0  0  0  0  0  0  0
   24.8524  -11.9855  -17.2322 N   0  0  0  0  0  0  0  0  0  0  0  0
   23.9367   -9.9782  -16.3501 C   0  0  0  0  0  0  0  0  0  0  0  0
   23.5791   -9.5640  -17.4829 O   0  0  0  0  0  0  0  0  0  0  0  0
   18.8512   -9.7133  -13.1573 N   0  0  0  0  0  0  0  0  0  0  0  0
   19.0284  -10.4622  -14.3351 C   0  0  0  0  0  0  0  0  0  0  0  0
   18.3218  -11.4041  -14.7197 O   0  0  0  0  0  0  0  0  0  0  0  0
   20.2085  -10.0608  -15.2086 C   0  0  0  0  0  0  0  0  0  0  0  0
   20.9580   -8.9412  -14.5600 C   0  0  0  0  0  0  0  0  0  0  0  0
   22.1169   -8.5120  -15.3767 C   0  0  2  0  0  0  0  0  0  0  0  0
   23.2444   -9.4373  -15.2371 N   0  0  0  0  0  0  0  0  0  0  0  0
   22.6076   -7.1982  -14.9096 C   0  0  0  0  0  0  0  0  0  0  0  0
   23.4500   -7.0570  -13.9869 O   0  0  0  0  0  0  0  0  0  0  0  0
   22.1380   -5.9837  -15.4975 N   0  0  0  0  0  0  0  0  0  0  0  0
   22.6365   -4.6832  -15.1733 C   0  0  1  0  0  0  0  0  0  0  0  0
   22.4521   -3.6680  -16.2558 C   0  0  0  0  0  0  0  0  0  0  0  0
   20.6910   -3.6453  -16.7481 S   0  0  0  0  0  0  0  0  0  0  0  0
   21.9289   -4.2149  -13.9494 C   0  0  0  0  0  0  0  0  0  0  0  0
   20.8970   -4.7699  -13.4940 O   0  0  0  0  0  0  0  0  0  0  0  0
   22.4356   -3.1155  -13.2848 O   0  0  0  0  0  0  0  0  0  0  0  0
  2  1  1  0
  2  3  2  0
  4  2  1  0
  5  4  1  0
  5  6  1  6
  7  5  1  0
  8  7  2  0
 10 12  1  0
 10  9  1  0
 11 10  2  0
 13 12  1  0
 14 13  1  1
 14 15  1  0
 15  7  1  0
 16 14  1  0
 16 17  2  0
 18 16  1  0
 19 18  1  0
 19 20  1  6
 20 21  1  0
 22 19  1  0
 23 22  2  0
 24 22  1  0
M  END
$$$$
