NQC.pdb
     RDKit          3D

 24 23  0  0  1  0  0  0  0  0999 V2000
   18.6899  -16.2433  -15.9449 N   0  0  0  0  0  0  0  0  0  0  0  0
   19.5152  -15.5131  -15.0511 C   0  0  0  0  0  0  0  0  0  0  0  0
   20.0079  -16.0241  -14.0329 O   0  0  0  0  0  0  0  0  0  0  0  0
   19.7759  -14.0909  -15.3785 C   0  0  0  0  0  0  0  0  0  0  0  0
   19.0574  -13.7035  -16.6780 C   0  0  2  0  0  0  0  0  0  0  0  0
   19.9014  -14.1531  -17.7576 N   0  0  0  0  0  0  0  0  0  0  0  0
   18.9667  -12.2210  -16.7381 C   0  0  0  0  0  0  0  0  0  0  0  0
   19.7633  -11.5542  -17.4477 O   0  0  0  0  0  0  0  0  0  0  0  0
   14.0035  -10.2646  -14.9597 N   0  0  0  0  0  0  0  0  0  0  0  0
   14.0962  -10.4667  -16.3489 C   0  0  0  0  0  0  0  0  0  0  0  0
   13.1896  -10.8597  -17.0959 O   0  0  0  0  0  0  0  0  0  0  0  0
   15.4502  -10.1677  -16.9768 C   0  0  0  0  0  0  0  0  0  0  0  0
   16.3879   -9.6533  -15.9318 C   0  0  0  0  0  0  0  0  0  0  0  0
   17.7892  -10.0421  -16.2137 C   0  0  2  0  0  0  0  0  0  0  0  0
   17.9980  -11.4789  -16.0159 N   0  0  0  0  0  0  0  0  0  0  0  0
   18.7032   -9.3638  -15.2705 C   0  0  0  0  0  0  0  0  0  0  0  0
   18.9307   -9.7742  -14.1040 O   0  0  0  0  0  0  0  0  0  0  0  0
   19.3966   -8.1717  -15.6435 N   0  0  0  0  0  0  0  0  0  0  0  0
   20.2953   -7.4586  -14.7898 C   0  0  1  0  0  0  0  0  0  0  0  0
   21.7376   -7.6082  -15.1553 C   0  0  0  0  0  0  0  0  0  0  0  0
   22.7284   -6.4734  -14.1184 S   0  0  0  0  0  0  0  0  0  0  0  0
   19.9317   -6.0155  -14.8477 C   0  0  0  0  0  0  0  0  0  0  0  0
   19.3361   -5.4926  -15.8235 O   0  0  0  0  0  0  0  0  0  0  0  0
   20.2677   -5.2158  -13.7732 O   0  0  0  0  0  0  0  0  0  0  0  0
  2  1  1  0
  2  3  2  0
  4  2  1  0
  5  4  1  0
  5  6  1  6
  7  5  1  0
  8  7  2  0
 10 12  1  0
 10  9  1  0
 11 10  2  0
 13 12  1  0
 14 13  1  1
 14 15  1  0
 15  7  1  0
 16 14  1  0
 16 17  2  0
 18 16  1  0
 19 18  1  0
 19 20  1  6
 20 21  1  0
 22 19  1  0
 23 22  2  0
 24 22  1  0
M  END
$$$$
