NQC.pdb
     RDKit          3D

 24 23  0  0  1  0  0  0  0  0999 V2000
   18.5954  -21.0355  -11.7930 N   0  0  0  0  0  0  0  0  0  0  0  0
   18.7455  -21.9464  -12.8704 C   0  0  0  0  0  0  0  0  0  0  0  0
   17.9152  -22.8380  -13.1081 O   0  0  0  0  0  0  0  0  0  0  0  0
   19.9503  -21.7967  -13.7211 C   0  0  0  0  0  0  0  0  0  0  0  0
   20.8626  -20.6961  -13.1630 C   0  0  2  0  0  0  0  0  0  0  0  0
   20.1675  -19.4495  -13.3701 N   0  0  0  0  0  0  0  0  0  0  0  0
   22.1144  -20.6753  -13.9644 C   0  0  0  0  0  0  0  0  0  0  0  0
   22.8719  -21.6789  -14.0038 O   0  0  0  0  0  0  0  0  0  0  0  0
   23.2624  -20.8755  -19.4305 N   0  0  0  0  0  0  0  0  0  0  0  0
   22.2393  -19.9994  -19.0238 C   0  0  0  0  0  0  0  0  0  0  0  0
   21.3307  -19.5505  -19.7360 O   0  0  0  0  0  0  0  0  0  0  0  0
   22.2690  -19.5731  -17.5629 C   0  0  0  0  0  0  0  0  0  0  0  0
   23.4464  -20.1928  -16.8806 C   0  0  0  0  0  0  0  0  0  0  0  0
   23.7188  -19.5561  -15.5712 C   0  0  2  0  0  0  0  0  0  0  0  0
   22.5266  -19.5481  -14.7196 N   0  0  0  0  0  0  0  0  0  0  0  0
   24.0913  -18.1387  -15.7643 C   0  0  0  0  0  0  0  0  0  0  0  0
   23.2644  -17.1918  -15.7419 O   0  0  0  0  0  0  0  0  0  0  0  0
   25.4489  -17.7573  -15.9936 N   0  0  0  0  0  0  0  0  0  0  0  0
   25.8918  -16.4082  -16.1638 C   0  0  1  0  0  0  0  0  0  0  0  0
   27.3105  -16.1718  -15.7542 C   0  0  0  0  0  0  0  0  0  0  0  0
   27.3531  -14.8027  -14.5424 S   0  0  0  0  0  0  0  0  0  0  0  0
   25.7418  -16.0566  -17.6031 C   0  0  0  0  0  0  0  0  0  0  0  0
   25.6249  -16.9145  -18.5145 O   0  0  0  0  0  0  0  0  0  0  0  0
   25.7312  -14.7197  -17.9491 O   0  0  0  0  0  0  0  0  0  0  0  0
  2  1  1  0
  2  3  2  0
  4  2  1  0
  5  4  1  0
  5  6  1  6
  7  5  1  0
  8  7  2  0
 10 12  1  0
 10  9  1  0
 11 10  2  0
 13 12  1  0
 14 13  1  6
 14 15  1  0
 15  7  1  0
 16 14  1  0
 16 17  2  0
 18 16  1  0
 19 18  1  0
 19 20  1  6
 20 21  1  0
 22 19  1  0
 23 22  2  0
 24 22  1  0
M  END
$$$$
