KIV.pdb
     RDKit          3D

 25 24  0  0  1  0  0  0  0  0999 V2000
    7.7028  -14.4465   20.8330 N   0  0  0  0  0  0  0  0  0  0  0  0
    7.7127  -15.5602   21.6814 C   0  0  1  0  0  0  0  0  0  0  0  0
    8.3566  -16.8174   21.2935 C   0  0  0  0  0  0  0  0  0  0  0  0
    7.7853  -17.8507   20.4619 C   0  0  0  0  0  0  0  0  0  0  0  0
    7.6103  -19.2576   20.8125 C   0  0  0  0  0  0  0  0  0  0  0  0
    7.0975  -20.2186   19.8279 C   0  0  0  0  0  0  0  0  0  0  0  0
    6.8981  -21.5048   20.5606 N   0  0  0  0  0  0  0  0  0  0  0  0
    8.3316  -15.0786   22.9917 C   0  0  0  0  0  0  0  0  0  0  0  0
    9.5725  -14.8830   22.9403 O   0  0  0  0  0  0  0  0  0  0  0  0
    5.7989  -11.5691   25.8957 C   0  0  0  0  0  0  0  0  0  0  0  0
    6.7858  -12.4407   25.1131 C   0  0  0  0  0  0  0  0  0  0  0  0
    7.2771  -13.5094   26.0496 C   0  0  2  0  0  0  0  0  0  0  0  0
    7.8566  -12.9295   27.3229 C   0  0  0  0  0  0  0  0  0  0  0  0
    8.2297  -14.4194   25.3565 C   0  0  2  0  0  0  0  0  0  0  0  0
    7.5522  -14.8781   24.1487 N   0  0  0  0  0  0  0  0  0  0  0  0
    8.7401  -15.5446   26.1440 C   0  0  0  0  0  0  0  0  0  0  0  0
    8.0474  -16.4875   26.5829 O   0  0  0  0  0  0  0  0  0  0  0  0
   12.9485  -15.8557   27.0066 C   0  0  0  0  0  0  0  0  0  0  0  0
   12.0793  -17.0652   26.7513 C   0  0  2  0  0  0  0  0  0  0  0  0
   12.1170  -17.4273   25.2831 C   0  0  0  0  0  0  0  0  0  0  0  0
   10.6757  -16.7338   27.2119 C   0  0  2  0  0  0  0  0  0  0  0  0
   10.1476  -15.6172   26.4660 N   0  0  0  0  0  0  0  0  0  0  0  0
   10.6896  -16.3981   28.6403 C   0  0  0  0  0  0  0  0  0  0  0  0
   11.0405  -17.3469   29.5871 O   0  0  0  0  0  0  0  0  0  0  0  0
   10.3797  -15.2297   29.0366 O   0  0  0  0  0  0  0  0  0  0  0  0
  2  1  1  6
  3  2  1  0
  4  3  1  0
  5  4  1  0
  6  7  1  0
  6  5  1  0
  8  2  1  0
  8  9  2  0
 11 10  1  0
 12 14  1  0
 12 11  1  0
 12 13  1  1
 14 15  1  6
 15  8  1  0
 16 14  1  0
 17 16  2  0
 19 18  1  6
 19 20  1  0
 19 21  1  0
 21 23  1  0
 21 22  1  6
 22 16  1  0
 23 24  1  0
 25 23  2  0
M  END
$$$$
