KIV.pdb
     RDKit          3D

 25 24  0  0  1  0  0  0  0  0999 V2000
    8.2309  -15.7865   21.0476 N   0  0  0  0  0  0  0  0  0  0  0  0
    7.5517  -16.2629   22.1755 C   0  0  1  0  0  0  0  0  0  0  0  0
    7.4163  -17.6966   22.4438 C   0  0  0  0  0  0  0  0  0  0  0  0
    6.6475  -18.6432   21.6701 C   0  0  0  0  0  0  0  0  0  0  0  0
    5.9652  -18.3878   20.4043 C   0  0  0  0  0  0  0  0  0  0  0  0
    5.1978  -19.4475   19.7379 C   0  0  0  0  0  0  0  0  0  0  0  0
    5.9547  -20.7162   19.9583 N   0  0  0  0  0  0  0  0  0  0  0  0
    8.2267  -15.6031   23.3760 C   0  0  0  0  0  0  0  0  0  0  0  0
    9.4824  -15.5774   23.3179 O   0  0  0  0  0  0  0  0  0  0  0  0
    5.8075  -11.6032   25.9224 C   0  0  0  0  0  0  0  0  0  0  0  0
    6.8163  -12.5090   25.2097 C   0  0  0  0  0  0  0  0  0  0  0  0
    7.2928  -13.5223   26.2131 C   0  0  2  0  0  0  0  0  0  0  0  0
    7.9066  -12.8703   27.4345 C   0  0  0  0  0  0  0  0  0  0  0  0
    8.2102  -14.5049   25.5739 C   0  0  2  0  0  0  0  0  0  0  0  0
    7.4790  -15.0748   24.4474 N   0  0  0  0  0  0  0  0  0  0  0  0
    8.7488  -15.5513   26.4468 C   0  0  0  0  0  0  0  0  0  0  0  0
    8.0748  -16.4553   26.9854 O   0  0  0  0  0  0  0  0  0  0  0  0
   12.9993  -15.9006   27.0241 C   0  0  0  0  0  0  0  0  0  0  0  0
   12.0647  -17.0860   26.9519 C   0  0  2  0  0  0  0  0  0  0  0  0
   11.9395  -17.5580   25.5202 C   0  0  0  0  0  0  0  0  0  0  0  0
   10.7285  -16.6591   27.5212 C   0  0  2  0  0  0  0  0  0  0  0  0
   10.1640  -15.5855   26.7398 N   0  0  0  0  0  0  0  0  0  0  0  0
   10.9017  -16.2093   28.9072 C   0  0  0  0  0  0  0  0  0  0  0  0
   10.6578  -14.8917   29.2596 O   0  0  0  0  0  0  0  0  0  0  0  0
   11.2790  -17.0205   29.8117 O   0  0  0  0  0  0  0  0  0  0  0  0
  2  1  1  6
  3  2  1  0
  4  3  1  0
  5  4  1  0
  6  7  1  0
  6  5  1  0
  8  2  1  0
  8  9  2  0
 11 10  1  0
 12 14  1  0
 12 11  1  0
 12 13  1  1
 14 15  1  6
 15  8  1  0
 16 14  1  0
 17 16  2  0
 19 18  1  6
 19 20  1  0
 19 21  1  0
 21 23  1  0
 21 22  1  6
 22 16  1  0
 23 24  1  0
 25 23  2  0
M  END
$$$$
