KIV.pdb
     RDKit          3D

 25 24  0  0  1  0  0  0  0  0999 V2000
    6.1230  -17.2644   20.1041 N   0  0  0  0  0  0  0  0  0  0  0  0
    7.0946  -16.4253   20.6628 C   0  0  1  0  0  0  0  0  0  0  0  0
    7.2710  -15.0436   20.2093 C   0  0  0  0  0  0  0  0  0  0  0  0
    7.8675  -14.6212   18.9637 C   0  0  0  0  0  0  0  0  0  0  0  0
    8.0470  -13.2472   18.5024 C   0  0  0  0  0  0  0  0  0  0  0  0
    8.6818  -12.9665   17.2085 C   0  0  0  0  0  0  0  0  0  0  0  0
    8.0461  -13.8884   16.2200 N   0  0  0  0  0  0  0  0  0  0  0  0
    6.8201  -16.4149   22.1650 C   0  0  0  0  0  0  0  0  0  0  0  0
    5.6570  -16.0554   22.4791 O   0  0  0  0  0  0  0  0  0  0  0  0
    7.1534  -20.4484   25.0613 C   0  0  0  0  0  0  0  0  0  0  0  0
    6.8985  -19.1081   24.3651 C   0  0  0  0  0  0  0  0  0  0  0  0
    7.7274  -18.0726   25.0732 C   0  0  2  0  0  0  0  0  0  0  0  0
    7.5433  -18.1247   26.5755 C   0  0  0  0  0  0  0  0  0  0  0  0
    7.4646  -16.7173   24.5167 C   0  0  2  0  0  0  0  0  0  0  0  0
    7.8081  -16.7827   23.1003 N   0  0  0  0  0  0  0  0  0  0  0  0
    8.1431  -15.6014   25.1810 C   0  0  0  0  0  0  0  0  0  0  0  0
    9.3500  -15.3090   25.0421 O   0  0  0  0  0  0  0  0  0  0  0  0
    5.9674  -13.0373   27.8660 C   0  0  0  0  0  0  0  0  0  0  0  0
    7.0383  -12.5000   26.9449 C   0  0  2  0  0  0  0  0  0  0  0  0
    6.4142  -12.0165   25.6546 C   0  0  0  0  0  0  0  0  0  0  0  0
    8.0412  -13.6079   26.7030 C   0  0  2  0  0  0  0  0  0  0  0  0
    7.4039  -14.7412   26.0773 N   0  0  0  0  0  0  0  0  0  0  0  0
    8.6319  -14.0285   27.9787 C   0  0  0  0  0  0  0  0  0  0  0  0
    8.4300  -15.3105   28.4637 O   0  0  0  0  0  0  0  0  0  0  0  0
    9.3407  -13.2241   28.6635 O   0  0  0  0  0  0  0  0  0  0  0  0
  2  1  1  6
  3  2  1  0
  4  3  1  0
  5  4  1  0
  6  7  1  0
  6  5  1  0
  8  2  1  0
  8  9  2  0
 11 10  1  0
 12 14  1  0
 12 11  1  0
 12 13  1  1
 14 15  1  6
 15  8  1  0
 16 14  1  0
 17 16  2  0
 19 18  1  1
 19 20  1  0
 19 21  1  0
 21 23  1  0
 21 22  1  1
 22 16  1  0
 23 24  1  0
 25 23  2  0
M  END
$$$$
