KIV.pdb
     RDKit          3D

 25 24  0  0  1  0  0  0  0  0999 V2000
   12.2518  -17.0299   19.9135 N   0  0  0  0  0  0  0  0  0  0  0  0
   11.2041  -17.5916   20.6533 C   0  0  1  0  0  0  0  0  0  0  0  0
   11.3478  -18.8804   21.3346 C   0  0  0  0  0  0  0  0  0  0  0  0
   11.0555  -20.1803   20.7775 C   0  0  0  0  0  0  0  0  0  0  0  0
   12.0226  -21.1582   20.2865 C   0  0  0  0  0  0  0  0  0  0  0  0
   11.5794  -22.4621   19.7773 C   0  0  0  0  0  0  0  0  0  0  0  0
   12.8044  -23.1579   19.2811 N   0  0  0  0  0  0  0  0  0  0  0  0
   10.8108  -16.5356   21.6838 C   0  0  0  0  0  0  0  0  0  0  0  0
   11.7780  -15.8928   22.1656 O   0  0  0  0  0  0  0  0  0  0  0  0
    6.6990  -13.3864   20.8895 C   0  0  0  0  0  0  0  0  0  0  0  0
    8.0646  -13.9653   21.2715 C   0  0  0  0  0  0  0  0  0  0  0  0
    7.9052  -14.6425   22.6045 C   0  0  2  0  0  0  0  0  0  0  0  0
    7.3509  -13.7056   23.6574 C   0  0  0  0  0  0  0  0  0  0  0  0
    9.1826  -15.2787   23.0278 C   0  0  2  0  0  0  0  0  0  0  0  0
    9.4661  -16.3203   22.0465 N   0  0  0  0  0  0  0  0  0  0  0  0
    9.2221  -15.8057   24.3945 C   0  0  0  0  0  0  0  0  0  0  0  0
    8.9719  -16.9869   24.7167 O   0  0  0  0  0  0  0  0  0  0  0  0
    8.9865  -13.4336   27.8686 C   0  0  0  0  0  0  0  0  0  0  0  0
   10.1775  -14.3592   27.7756 C   0  0  2  0  0  0  0  0  0  0  0  0
   11.3980  -13.5863   27.3270 C   0  0  0  0  0  0  0  0  0  0  0  0
    9.8284  -15.4690   26.8069 C   0  0  2  0  0  0  0  0  0  0  0  0
    9.5721  -14.9326   25.4921 N   0  0  0  0  0  0  0  0  0  0  0  0
    8.6360  -16.1819   27.2794 C   0  0  0  0  0  0  0  0  0  0  0  0
    8.7147  -17.0649   28.3442 O   0  0  0  0  0  0  0  0  0  0  0  0
    7.5074  -16.0029   26.7204 O   0  0  0  0  0  0  0  0  0  0  0  0
  2  1  1  1
  3  2  1  0
  4  3  1  0
  5  4  1  0
  6  7  1  0
  6  5  1  0
  8  2  1  0
  8  9  2  0
 11 10  1  0
 12 14  1  0
 12 11  1  0
 12 13  1  1
 14 15  1  6
 15  8  1  0
 16 14  1  0
 17 16  2  0
 19 18  1  6
 19 20  1  0
 19 21  1  0
 21 23  1  0
 21 22  1  6
 22 16  1  0
 23 24  1  0
 25 23  2  0
M  END
$$$$
