KIV.pdb
     RDKit          3D

 25 24  0  0  1  0  0  0  0  0999 V2000
    7.8141  -14.2014   20.1873 N   0  0  0  0  0  0  0  0  0  0  0  0
    7.0239  -14.8255   21.1602 C   0  0  1  0  0  0  0  0  0  0  0  0
    6.5602  -16.2063   21.0052 C   0  0  0  0  0  0  0  0  0  0  0  0
    6.6068  -16.9942   19.7957 C   0  0  0  0  0  0  0  0  0  0  0  0
    6.0571  -18.3335   19.6035 C   0  0  0  0  0  0  0  0  0  0  0  0
    6.2593  -19.0538   18.3401 C   0  0  0  0  0  0  0  0  0  0  0  0
    5.5391  -20.3551   18.4785 N   0  0  0  0  0  0  0  0  0  0  0  0
    7.8098  -14.7178   22.4650 C   0  0  0  0  0  0  0  0  0  0  0  0
    9.0515  -14.8686   22.3388 O   0  0  0  0  0  0  0  0  0  0  0  0
    6.1627  -11.3714   26.2540 C   0  0  0  0  0  0  0  0  0  0  0  0
    6.9738  -12.1747   25.2327 C   0  0  0  0  0  0  0  0  0  0  0  0
    7.2674  -13.5139   25.8500 C   0  0  2  0  0  0  0  0  0  0  0  0
    7.9846  -13.3849   27.1777 C   0  0  0  0  0  0  0  0  0  0  0  0
    8.0009  -14.3857   24.8920 C   0  0  2  0  0  0  0  0  0  0  0  0
    7.1699  -14.4694   23.6959 N   0  0  0  0  0  0  0  0  0  0  0  0
    8.3717  -15.7165   25.3804 C   0  0  0  0  0  0  0  0  0  0  0  0
    7.5657  -16.5947   25.7553 O   0  0  0  0  0  0  0  0  0  0  0  0
   11.6793  -19.2951   25.2642 C   0  0  0  0  0  0  0  0  0  0  0  0
   11.3446  -17.8623   24.9196 C   0  0  2  0  0  0  0  0  0  0  0  0
   12.5403  -16.9748   25.1852 C   0  0  0  0  0  0  0  0  0  0  0  0
   10.1463  -17.4530   25.7493 C   0  0  2  0  0  0  0  0  0  0  0  0
    9.7654  -16.0930   25.4538 N   0  0  0  0  0  0  0  0  0  0  0  0
   10.4701  -17.5656   27.1761 C   0  0  0  0  0  0  0  0  0  0  0  0
   10.6551  -16.4324   27.9515 O   0  0  0  0  0  0  0  0  0  0  0  0
   10.5871  -18.7056   27.7283 O   0  0  0  0  0  0  0  0  0  0  0  0
  2  1  1  6
  3  2  1  0
  4  3  1  0
  5  4  1  0
  6  7  1  0
  6  5  1  0
  8  2  1  0
  8  9  2  0
 11 10  1  0
 12 14  1  0
 12 11  1  0
 12 13  1  1
 14 15  1  6
 15  8  1  0
 16 14  1  0
 17 16  2  0
 19 18  1  1
 19 20  1  0
 19 21  1  0
 21 23  1  0
 21 22  1  1
 22 16  1  0
 23 24  1  0
 25 23  2  0
M  END
$$$$
