KIV.pdb
     RDKit          3D

 25 24  0  0  1  0  0  0  0  0999 V2000
    8.6671  -18.3927   17.6927 N   0  0  0  0  0  0  0  0  0  0  0  0
    7.6723  -18.1663   18.6516 C   0  0  1  0  0  0  0  0  0  0  0  0
    7.0025  -19.2715   19.3413 C   0  0  0  0  0  0  0  0  0  0  0  0
    6.2161  -20.3142   18.7246 C   0  0  0  0  0  0  0  0  0  0  0  0
    6.5926  -21.1259   17.5704 C   0  0  0  0  0  0  0  0  0  0  0  0
    5.7219  -22.2102   17.0991 C   0  0  0  0  0  0  0  0  0  0  0  0
    6.3293  -22.7159   15.8316 N   0  0  0  0  0  0  0  0  0  0  0  0
    8.3042  -17.2498   19.6969 C   0  0  0  0  0  0  0  0  0  0  0  0
    9.5389  -17.4209   19.8610 O   0  0  0  0  0  0  0  0  0  0  0  0
    8.0964  -12.5225   19.9056 C   0  0  0  0  0  0  0  0  0  0  0  0
    7.0634  -13.6210   20.1747 C   0  0  0  0  0  0  0  0  0  0  0  0
    7.3902  -14.2227   21.5133 C   0  0  2  0  0  0  0  0  0  0  0  0
    8.0040  -13.2111   22.4586 C   0  0  0  0  0  0  0  0  0  0  0  0
    8.2384  -15.4353   21.3523 C   0  0  2  0  0  0  0  0  0  0  0  0
    7.5420  -16.2990   20.4051 N   0  0  0  0  0  0  0  0  0  0  0  0
    8.5796  -16.1551   22.5822 C   0  0  0  0  0  0  0  0  0  0  0  0
    7.7544  -16.5782   23.4197 O   0  0  0  0  0  0  0  0  0  0  0  0
   12.6464  -17.2298   23.3400 C   0  0  0  0  0  0  0  0  0  0  0  0
   11.4898  -18.0774   23.8171 C   0  0  2  0  0  0  0  0  0  0  0  0
   11.1512  -19.1215   22.7764 C   0  0  0  0  0  0  0  0  0  0  0  0
   10.3200  -17.1557   24.0891 C   0  0  2  0  0  0  0  0  0  0  0  0
    9.9646  -16.4223   22.8983 N   0  0  0  0  0  0  0  0  0  0  0  0
   10.6724  -16.2088   25.1532 C   0  0  0  0  0  0  0  0  0  0  0  0
   10.8579  -14.8649   24.8720 O   0  0  0  0  0  0  0  0  0  0  0  0
   10.8144  -16.6038   26.3541 O   0  0  0  0  0  0  0  0  0  0  0  0
  2  1  1  6
  3  2  1  0
  4  3  1  0
  5  4  1  0
  6  7  1  0
  6  5  1  0
  8  2  1  0
  8  9  2  0
 11 10  1  0
 12 14  1  0
 12 11  1  0
 12 13  1  1
 14 15  1  6
 15  8  1  0
 16 14  1  0
 17 16  2  0
 19 18  1  6
 19 20  1  0
 19 21  1  0
 21 23  1  0
 21 22  1  6
 22 16  1  0
 23 24  1  0
 25 23  2  0
M  END
$$$$
