KIV.pdb
     RDKit          3D

 25 24  0  0  1  0  0  0  0  0999 V2000
    7.2204  -15.9080   21.2693 N   0  0  0  0  0  0  0  0  0  0  0  0
    6.8362  -16.4238   22.5129 C   0  0  1  0  0  0  0  0  0  0  0  0
    6.8576  -17.8621   22.7894 C   0  0  0  0  0  0  0  0  0  0  0  0
    5.7359  -18.7675   22.7008 C   0  0  0  0  0  0  0  0  0  0  0  0
    5.7812  -20.1824   22.3418 C   0  0  0  0  0  0  0  0  0  0  0  0
    4.5513  -20.9826   22.2862 C   0  0  0  0  0  0  0  0  0  0  0  0
    4.9710  -22.3747   21.9442 N   0  0  0  0  0  0  0  0  0  0  0  0
    7.7111  -15.7152   23.5445 C   0  0  0  0  0  0  0  0  0  0  0  0
    8.9224  -15.6190   23.2216 O   0  0  0  0  0  0  0  0  0  0  0  0
    6.0237  -11.5243   26.1524 C   0  0  0  0  0  0  0  0  0  0  0  0
    6.8839  -12.5409   25.3956 C   0  0  0  0  0  0  0  0  0  0  0  0
    7.3760  -13.5451   26.4006 C   0  0  2  0  0  0  0  0  0  0  0  0
    8.1965  -12.8990   27.4974 C   0  0  0  0  0  0  0  0  0  0  0  0
    8.1056  -14.6524   25.7245 C   0  0  2  0  0  0  0  0  0  0  0  0
    7.1783  -15.2195   24.7515 N   0  0  0  0  0  0  0  0  0  0  0  0
    8.6648  -15.6878   26.5975 C   0  0  0  0  0  0  0  0  0  0  0  0
    8.0063  -16.3851   27.3986 O   0  0  0  0  0  0  0  0  0  0  0  0
   12.9123  -16.4540   26.6507 C   0  0  0  0  0  0  0  0  0  0  0  0
   11.8986  -17.5701   26.7538 C   0  0  2  0  0  0  0  0  0  0  0  0
   11.6179  -18.1407   25.3812 C   0  0  0  0  0  0  0  0  0  0  0  0
   10.6484  -17.0044   27.3931 C   0  0  2  0  0  0  0  0  0  0  0  0
   10.0836  -15.9637   26.5685 N   0  0  0  0  0  0  0  0  0  0  0  0
   10.9736  -16.4525   28.7133 C   0  0  0  0  0  0  0  0  0  0  0  0
   11.4108  -17.2773   29.7372 O   0  0  0  0  0  0  0  0  0  0  0  0
   10.8604  -15.2064   28.9430 O   0  0  0  0  0  0  0  0  0  0  0  0
  2  1  1  6
  3  2  1  0
  4  3  1  0
  5  4  1  0
  6  7  1  0
  6  5  1  0
  8  2  1  0
  8  9  2  0
 11 10  1  0
 12 14  1  0
 12 11  1  0
 12 13  1  1
 14 15  1  6
 15  8  1  0
 16 14  1  0
 17 16  2  0
 19 18  1  6
 19 20  1  0
 19 21  1  0
 21 23  1  0
 21 22  1  6
 22 16  1  0
 23 24  1  0
 25 23  2  0
M  END
$$$$
