KIV.pdb
     RDKit          3D

 25 24  0  0  1  0  0  0  0  0999 V2000
    8.5092  -14.8571   20.7601 N   0  0  0  0  0  0  0  0  0  0  0  0
    7.8850  -15.6320   21.7451 C   0  0  1  0  0  0  0  0  0  0  0  0
    7.9089  -17.0960   21.7024 C   0  0  0  0  0  0  0  0  0  0  0  0
    7.5011  -17.9267   20.5937 C   0  0  0  0  0  0  0  0  0  0  0  0
    6.7906  -19.2003   20.6709 C   0  0  0  0  0  0  0  0  0  0  0  0
    6.4441  -19.9418   19.4519 C   0  0  0  0  0  0  0  0  0  0  0  0
    5.6191  -21.1076   19.8896 N   0  0  0  0  0  0  0  0  0  0  0  0
    8.4805  -15.1724   23.0741 C   0  0  0  0  0  0  0  0  0  0  0  0
    9.7373  -15.1683   23.1076 O   0  0  0  0  0  0  0  0  0  0  0  0
    5.9671  -11.5784   26.0933 C   0  0  0  0  0  0  0  0  0  0  0  0
    6.9745  -12.4084   25.2918 C   0  0  0  0  0  0  0  0  0  0  0  0
    7.3846  -13.5686   26.1558 C   0  0  2  0  0  0  0  0  0  0  0  0
    7.9472  -13.1170   27.4874 C   0  0  0  0  0  0  0  0  0  0  0  0
    8.3169  -14.4676   25.4222 C   0  0  2  0  0  0  0  0  0  0  0  0
    7.6646  -14.7899   24.1577 N   0  0  0  0  0  0  0  0  0  0  0  0
    8.7404  -15.6787   26.1300 C   0  0  0  0  0  0  0  0  0  0  0  0
    7.9867  -16.6197   26.4586 O   0  0  0  0  0  0  0  0  0  0  0  0
   12.9090  -16.3594   26.8958 C   0  0  0  0  0  0  0  0  0  0  0  0
   11.9341  -17.4718   26.5858 C   0  0  2  0  0  0  0  0  0  0  0  0
   11.8912  -17.7197   25.0942 C   0  0  0  0  0  0  0  0  0  0  0  0
   10.5796  -17.0661   27.1266 C   0  0  2  0  0  0  0  0  0  0  0  0
   10.1275  -15.8474   26.5001 N   0  0  0  0  0  0  0  0  0  0  0  0
   10.6667  -16.8609   28.5770 C   0  0  0  0  0  0  0  0  0  0  0  0
   10.9617  -17.9163   29.4248 O   0  0  0  0  0  0  0  0  0  0  0  0
   10.4730  -15.7102   29.0836 O   0  0  0  0  0  0  0  0  0  0  0  0
  2  1  1  6
  3  2  1  0
  4  3  1  0
  5  4  1  0
  6  7  1  0
  6  5  1  0
  8  2  1  0
  8  9  2  0
 11 10  1  0
 12 14  1  0
 12 11  1  0
 12 13  1  1
 14 15  1  6
 15  8  1  0
 16 14  1  0
 17 16  2  0
 19 18  1  6
 19 20  1  0
 19 21  1  0
 21 23  1  0
 21 22  1  6
 22 16  1  0
 23 24  1  0
 25 23  2  0
M  END
$$$$
