KIV.pdb
     RDKit          3D

 25 24  0  0  1  0  0  0  0  0999 V2000
    9.8921  -15.8038   20.2916 N   0  0  0  0  0  0  0  0  0  0  0  0
    9.1163  -16.4433   21.2660 C   0  0  1  0  0  0  0  0  0  0  0  0
    9.3202  -17.8527   21.6092 C   0  0  0  0  0  0  0  0  0  0  0  0
    8.9186  -18.9928   20.8188 C   0  0  0  0  0  0  0  0  0  0  0  0
    9.0528  -20.4004   21.1842 C   0  0  0  0  0  0  0  0  0  0  0  0
    8.5725  -21.4583   20.2864 C   0  0  0  0  0  0  0  0  0  0  0  0
    8.7802  -22.7489   21.0089 N   0  0  0  0  0  0  0  0  0  0  0  0
    9.2682  -15.6053   22.5335 C   0  0  0  0  0  0  0  0  0  0  0  0
   10.4313  -15.1723   22.7349 O   0  0  0  0  0  0  0  0  0  0  0  0
    6.0730  -12.1290   26.2227 C   0  0  0  0  0  0  0  0  0  0  0  0
    7.4105  -12.8339   25.9768 C   0  0  0  0  0  0  0  0  0  0  0  0
    7.1654  -13.9137   24.9596 C   0  0  2  0  0  0  0  0  0  0  0  0
    6.0742  -14.8696   25.3945 C   0  0  0  0  0  0  0  0  0  0  0  0
    8.4333  -14.6167   24.6223 C   0  0  2  0  0  0  0  0  0  0  0  0
    8.1773  -15.3537   23.3895 N   0  0  0  0  0  0  0  0  0  0  0  0
    8.9871  -15.4884   25.6618 C   0  0  0  0  0  0  0  0  0  0  0  0
    8.8940  -16.7343   25.6795 O   0  0  0  0  0  0  0  0  0  0  0  0
    9.8573  -14.4195   29.6163 C   0  0  0  0  0  0  0  0  0  0  0  0
   11.0309  -14.9316   28.8138 C   0  0  2  0  0  0  0  0  0  0  0  0
   11.8731  -13.7708   28.3327 C   0  0  0  0  0  0  0  0  0  0  0  0
   10.4847  -15.7452   27.6598 C   0  0  2  0  0  0  0  0  0  0  0  0
    9.7062  -14.9121   26.7755 N   0  0  0  0  0  0  0  0  0  0  0  0
    9.6383  -16.8280   28.1741 C   0  0  0  0  0  0  0  0  0  0  0  0
   10.1999  -17.9283   28.8016 O   0  0  0  0  0  0  0  0  0  0  0  0
    8.3729  -16.7771   28.0537 O   0  0  0  0  0  0  0  0  0  0  0  0
  2  1  1  6
  3  2  1  0
  4  3  1  0
  5  4  1  0
  6  7  1  0
  6  5  1  0
  8  2  1  0
  8  9  2  0
 11 10  1  0
 12 14  1  0
 12 11  1  0
 12 13  1  1
 14 15  1  6
 15  8  1  0
 16 14  1  0
 17 16  2  0
 19 18  1  6
 19 20  1  0
 19 21  1  0
 21 23  1  0
 21 22  1  6
 22 16  1  0
 23 24  1  0
 25 23  2  0
M  END
$$$$
