KIV.pdb
     RDKit          3D

 25 24  0  0  1  0  0  0  0  0999 V2000
    8.3967  -15.1541   20.8303 N   0  0  0  0  0  0  0  0  0  0  0  0
    7.6960  -15.7390   21.8921 C   0  0  1  0  0  0  0  0  0  0  0  0
    7.5560  -17.1920   22.0141 C   0  0  0  0  0  0  0  0  0  0  0  0
    6.8504  -18.0633   21.1037 C   0  0  0  0  0  0  0  0  0  0  0  0
    6.6118  -19.4943   21.2718 C   0  0  0  0  0  0  0  0  0  0  0  0
    5.9222  -20.2677   20.2316 C   0  0  0  0  0  0  0  0  0  0  0  0
    6.7099  -20.0794   18.9765 N   0  0  0  0  0  0  0  0  0  0  0  0
    8.3474  -15.2027   23.1649 C   0  0  0  0  0  0  0  0  0  0  0  0
    9.6027  -15.1458   23.1230 O   0  0  0  0  0  0  0  0  0  0  0  0
    6.1042  -11.3554   25.9839 C   0  0  0  0  0  0  0  0  0  0  0  0
    7.0239  -12.3112   25.2178 C   0  0  0  0  0  0  0  0  0  0  0  0
    7.4206  -13.4065   26.1683 C   0  0  2  0  0  0  0  0  0  0  0  0
    8.0482  -12.8627   27.4349 C   0  0  0  0  0  0  0  0  0  0  0  0
    8.2907  -14.4044   25.4879 C   0  0  2  0  0  0  0  0  0  0  0  0
    7.5803  -14.8110   24.2803 N   0  0  0  0  0  0  0  0  0  0  0  0
    8.6943  -15.5640   26.2876 C   0  0  0  0  0  0  0  0  0  0  0  0
    7.9097  -16.3542   26.8546 O   0  0  0  0  0  0  0  0  0  0  0  0
   12.8799  -16.4969   26.8830 C   0  0  0  0  0  0  0  0  0  0  0  0
   11.8292  -17.5578   26.6499 C   0  0  2  0  0  0  0  0  0  0  0  0
   11.7396  -17.8802   25.1747 C   0  0  0  0  0  0  0  0  0  0  0  0
   10.5151  -17.0366   27.1915 C   0  0  2  0  0  0  0  0  0  0  0  0
   10.0977  -15.8615   26.4655 N   0  0  0  0  0  0  0  0  0  0  0  0
   10.6634  -16.7002   28.6121 C   0  0  0  0  0  0  0  0  0  0  0  0
   10.5999  -15.3833   29.0381 O   0  0  0  0  0  0  0  0  0  0  0  0
   10.8530  -17.6112   29.4796 O   0  0  0  0  0  0  0  0  0  0  0  0
  2  1  1  6
  3  2  1  0
  4  3  1  0
  5  4  1  0
  6  7  1  0
  6  5  1  0
  8  2  1  0
  8  9  2  0
 11 10  1  0
 12 14  1  0
 12 11  1  0
 12 13  1  1
 14 15  1  6
 15  8  1  0
 16 14  1  0
 17 16  2  0
 19 18  1  6
 19 20  1  0
 19 21  1  0
 21 23  1  0
 21 22  1  6
 22 16  1  0
 23 24  1  0
 25 23  2  0
M  END
$$$$
