KIV.pdb
     RDKit          3D

 25 24  0  0  1  0  0  0  0  0999 V2000
    6.4127  -15.1444   21.1566 N   0  0  0  0  0  0  0  0  0  0  0  0
    7.6757  -14.5592   21.0064 C   0  0  1  0  0  0  0  0  0  0  0  0
    7.8515  -13.2700   20.3334 C   0  0  0  0  0  0  0  0  0  0  0  0
    7.8155  -13.0364   18.9087 C   0  0  0  0  0  0  0  0  0  0  0  0
    8.1771  -13.9844   17.8583 C   0  0  0  0  0  0  0  0  0  0  0  0
    8.1248  -13.5937   16.4439 C   0  0  0  0  0  0  0  0  0  0  0  0
    8.7050  -14.7330   15.6716 N   0  0  0  0  0  0  0  0  0  0  0  0
    8.2565  -14.4577   22.4152 C   0  0  0  0  0  0  0  0  0  0  0  0
    9.4906  -14.2208   22.4536 O   0  0  0  0  0  0  0  0  0  0  0  0
    6.0374  -11.6471   26.0016 C   0  0  0  0  0  0  0  0  0  0  0  0
    6.9991  -12.4155   25.0900 C   0  0  0  0  0  0  0  0  0  0  0  0
    7.2668  -13.7436   25.7422 C   0  0  2  0  0  0  0  0  0  0  0  0
    7.8532  -13.5894   27.1300 C   0  0  0  0  0  0  0  0  0  0  0  0
    8.1081  -14.6013   24.8635 C   0  0  2  0  0  0  0  0  0  0  0  0
    7.4519  -14.6208   23.5607 N   0  0  0  0  0  0  0  0  0  0  0  0
    8.3769  -15.9579   25.3478 C   0  0  0  0  0  0  0  0  0  0  0  0
    7.5047  -16.8147   25.6061 O   0  0  0  0  0  0  0  0  0  0  0  0
   12.3948  -17.4431   25.3676 C   0  0  0  0  0  0  0  0  0  0  0  0
   11.1768  -18.2917   25.0849 C   0  0  2  0  0  0  0  0  0  0  0  0
   10.8563  -18.2586   23.6070 C   0  0  0  0  0  0  0  0  0  0  0  0
   10.0333  -17.7552   25.9195 C   0  0  2  0  0  0  0  0  0  0  0  0
    9.7403  -16.3889   25.5598 N   0  0  0  0  0  0  0  0  0  0  0  0
   10.3877  -17.8155   27.3422 C   0  0  0  0  0  0  0  0  0  0  0  0
   10.5306  -19.0346   27.9851 O   0  0  0  0  0  0  0  0  0  0  0  0
   10.5705  -16.7499   28.0124 O   0  0  0  0  0  0  0  0  0  0  0  0
  2  1  1  1
  3  2  1  0
  4  3  1  0
  5  4  1  0
  6  7  1  0
  6  5  1  0
  8  2  1  0
  8  9  2  0
 11 10  1  0
 12 14  1  0
 12 11  1  0
 12 13  1  1
 14 15  1  6
 15  8  1  0
 16 14  1  0
 17 16  2  0
 19 18  1  6
 19 20  1  0
 19 21  1  0
 21 23  1  0
 21 22  1  6
 22 16  1  0
 23 24  1  0
 25 23  2  0
M  END
$$$$
