KIV.pdb
     RDKit          3D

 25 24  0  0  1  0  0  0  0  0999 V2000
    7.8709  -14.1305   20.0482 N   0  0  0  0  0  0  0  0  0  0  0  0
    7.1668  -14.8977   20.9841 C   0  0  1  0  0  0  0  0  0  0  0  0
    6.9590  -16.3360   20.8000 C   0  0  0  0  0  0  0  0  0  0  0  0
    6.6964  -17.0097   19.5498 C   0  0  0  0  0  0  0  0  0  0  0  0
    6.3768  -18.4232   19.3691 C   0  0  0  0  0  0  0  0  0  0  0  0
    6.0360  -18.9522   18.0426 C   0  0  0  0  0  0  0  0  0  0  0  0
    5.7139  -20.3978   18.2368 N   0  0  0  0  0  0  0  0  0  0  0  0
    7.8723  -14.6733   22.3198 C   0  0  0  0  0  0  0  0  0  0  0  0
    9.1270  -14.6406   22.2466 O   0  0  0  0  0  0  0  0  0  0  0  0
    5.7707  -11.4324   25.9292 C   0  0  0  0  0  0  0  0  0  0  0  0
    6.6608  -12.2129   24.9571 C   0  0  0  0  0  0  0  0  0  0  0  0
    7.0548  -13.4921   25.6419 C   0  0  2  0  0  0  0  0  0  0  0  0
    7.6978  -13.2425   26.9902 C   0  0  0  0  0  0  0  0  0  0  0  0
    7.9099  -14.3240   24.7516 C   0  0  2  0  0  0  0  0  0  0  0  0
    7.1513  -14.5189   23.5208 N   0  0  0  0  0  0  0  0  0  0  0  0
    8.3709  -15.6005   25.3039 C   0  0  0  0  0  0  0  0  0  0  0  0
    7.6275  -16.5381   25.6639 O   0  0  0  0  0  0  0  0  0  0  0  0
   11.4274  -17.6127   23.8305 C   0  0  0  0  0  0  0  0  0  0  0  0
   11.6166  -17.4381   25.3196 C   0  0  2  0  0  0  0  0  0  0  0  0
   12.2218  -18.6908   25.9134 C   0  0  0  0  0  0  0  0  0  0  0  0
   10.2650  -17.1258   25.9258 C   0  0  2  0  0  0  0  0  0  0  0  0
    9.7865  -15.8446   25.4657 N   0  0  0  0  0  0  0  0  0  0  0  0
   10.3714  -17.1053   27.3892 C   0  0  0  0  0  0  0  0  0  0  0  0
   10.4844  -18.2848   28.1074 O   0  0  0  0  0  0  0  0  0  0  0  0
   10.3620  -16.0043   28.0264 O   0  0  0  0  0  0  0  0  0  0  0  0
  2  1  1  6
  3  2  1  0
  4  3  1  0
  5  4  1  0
  6  7  1  0
  6  5  1  0
  8  2  1  0
  8  9  2  0
 11 10  1  0
 12 14  1  0
 12 11  1  0
 12 13  1  1
 14 15  1  6
 15  8  1  0
 16 14  1  0
 17 16  2  0
 19 18  1  6
 19 20  1  0
 19 21  1  0
 21 23  1  0
 21 22  1  6
 22 16  1  0
 23 24  1  0
 25 23  2  0
M  END
$$$$
