KIV.pdb
     RDKit          3D

 25 24  0  0  1  0  0  0  0  0999 V2000
    9.3515  -15.9627   20.7006 N   0  0  0  0  0  0  0  0  0  0  0  0
    8.3849  -16.3119   21.6515 C   0  0  1  0  0  0  0  0  0  0  0  0
    8.0432  -17.7100   21.9238 C   0  0  0  0  0  0  0  0  0  0  0  0
    7.2801  -18.5871   21.0670 C   0  0  0  0  0  0  0  0  0  0  0  0
    7.7891  -19.3765   19.9487 C   0  0  0  0  0  0  0  0  0  0  0  0
    6.9025  -20.2756   19.1993 C   0  0  0  0  0  0  0  0  0  0  0  0
    7.7333  -20.8745   18.1120 N   0  0  0  0  0  0  0  0  0  0  0  0
    8.8298  -15.6549   22.9563 C   0  0  0  0  0  0  0  0  0  0  0  0
   10.0753  -15.6237   23.1251 O   0  0  0  0  0  0  0  0  0  0  0  0
    6.8547  -11.5286   26.8640 C   0  0  0  0  0  0  0  0  0  0  0  0
    7.9565  -12.5345   26.5169 C   0  0  0  0  0  0  0  0  0  0  0  0
    7.4191  -13.4291   25.4345 C   0  0  2  0  0  0  0  0  0  0  0  0
    6.0738  -14.0210   25.7996 C   0  0  0  0  0  0  0  0  0  0  0  0
    8.4168  -14.4719   25.0698 C   0  0  2  0  0  0  0  0  0  0  0  0
    7.8990  -15.1348   23.8779 N   0  0  0  0  0  0  0  0  0  0  0  0
    8.7542  -15.4399   26.1167 C   0  0  0  0  0  0  0  0  0  0  0  0
    7.9821  -16.3161   26.5612 O   0  0  0  0  0  0  0  0  0  0  0  0
   12.8329  -15.8054   27.3394 C   0  0  0  0  0  0  0  0  0  0  0  0
   11.8823  -16.9710   27.1927 C   0  0  2  0  0  0  0  0  0  0  0  0
   11.9179  -17.4903   25.7724 C   0  0  0  0  0  0  0  0  0  0  0  0
   10.4992  -16.4938   27.5815 C   0  0  2  0  0  0  0  0  0  0  0  0
   10.0700  -15.4226   26.7151 N   0  0  0  0  0  0  0  0  0  0  0  0
   10.5115  -16.0179   28.9695 C   0  0  0  0  0  0  0  0  0  0  0  0
   10.7355  -16.8965   30.0172 O   0  0  0  0  0  0  0  0  0  0  0  0
   10.3167  -14.7897   29.2374 O   0  0  0  0  0  0  0  0  0  0  0  0
  2  1  1  6
  3  2  1  0
  4  3  1  0
  5  4  1  0
  6  7  1  0
  6  5  1  0
  8  2  1  0
  8  9  2  0
 11 10  1  0
 12 14  1  0
 12 11  1  0
 12 13  1  1
 14 15  1  6
 15  8  1  0
 16 14  1  0
 17 16  2  0
 19 18  1  6
 19 20  1  0
 19 21  1  0
 21 23  1  0
 21 22  1  6
 22 16  1  0
 23 24  1  0
 25 23  2  0
M  END
$$$$
