KIV.pdb
     RDKit          3D

 25 24  0  0  1  0  0  0  0  0999 V2000
    6.3947  -15.2893   21.3611 N   0  0  0  0  0  0  0  0  0  0  0  0
    7.5800  -14.5657   21.1823 C   0  0  1  0  0  0  0  0  0  0  0  0
    7.5823  -13.2281   20.5853 C   0  0  0  0  0  0  0  0  0  0  0  0
    7.7604  -12.9153   19.1866 C   0  0  0  0  0  0  0  0  0  0  0  0
    8.0470  -13.8592   18.1097 C   0  0  0  0  0  0  0  0  0  0  0  0
    8.2194  -13.3924   16.7283 C   0  0  0  0  0  0  0  0  0  0  0  0
    8.5796  -14.5958   15.9201 N   0  0  0  0  0  0  0  0  0  0  0  0
    8.2298  -14.4859   22.5619 C   0  0  0  0  0  0  0  0  0  0  0  0
    9.4730  -14.2995   22.5416 O   0  0  0  0  0  0  0  0  0  0  0  0
    6.0945  -11.6948   26.2235 C   0  0  0  0  0  0  0  0  0  0  0  0
    6.9879  -12.4688   25.2494 C   0  0  0  0  0  0  0  0  0  0  0  0
    7.3964  -13.7432   25.9349 C   0  0  2  0  0  0  0  0  0  0  0  0
    8.1134  -13.4824   27.2431 C   0  0  0  0  0  0  0  0  0  0  0  0
    8.1895  -14.6044   25.0157 C   0  0  2  0  0  0  0  0  0  0  0  0
    7.4740  -14.6141   23.7444 N   0  0  0  0  0  0  0  0  0  0  0  0
    8.4694  -15.9648   25.4828 C   0  0  0  0  0  0  0  0  0  0  0  0
    7.6032  -16.8161   25.7767 O   0  0  0  0  0  0  0  0  0  0  0  0
   12.5068  -17.4032   25.5407 C   0  0  0  0  0  0  0  0  0  0  0  0
   11.3223  -18.2893   25.2317 C   0  0  2  0  0  0  0  0  0  0  0  0
   11.0563  -18.2946   23.7426 C   0  0  0  0  0  0  0  0  0  0  0  0
   10.1352  -17.7664   26.0122 C   0  0  2  0  0  0  0  0  0  0  0  0
    9.8377  -16.4065   25.6324 N   0  0  0  0  0  0  0  0  0  0  0  0
   10.4274  -17.8144   27.4494 C   0  0  0  0  0  0  0  0  0  0  0  0
   10.5252  -16.6482   28.1912 O   0  0  0  0  0  0  0  0  0  0  0  0
   10.5965  -18.9274   28.0417 O   0  0  0  0  0  0  0  0  0  0  0  0
  2  1  1  1
  3  2  1  0
  4  3  1  0
  5  4  1  0
  6  7  1  0
  6  5  1  0
  8  2  1  0
  8  9  2  0
 11 10  1  0
 12 14  1  0
 12 11  1  0
 12 13  1  1
 14 15  1  6
 15  8  1  0
 16 14  1  0
 17 16  2  0
 19 18  1  6
 19 20  1  0
 19 21  1  0
 21 23  1  0
 21 22  1  6
 22 16  1  0
 23 24  1  0
 25 23  2  0
M  END
$$$$
