ITN.pdb
     RDKit          3D

 24 23  0  0  1  0  0  0  0  0999 V2000
    6.2870  -12.9180   19.2438 C   0  0  0  0  0  0  0  0  0  0  0  0
    7.4065  -13.7807   18.7228 C   0  0  0  0  0  0  0  0  0  0  0  0
    8.7592  -13.3779   19.2376 C   0  0  2  0  0  0  0  0  0  0  0  0
    9.0373  -11.9778   18.7199 C   0  0  0  0  0  0  0  0  0  0  0  0
    9.8618  -14.3099   18.8512 C   0  0  2  0  0  0  0  0  0  0  0  0
    9.2325  -15.6352   18.6946 N   0  0  0  0  0  0  0  0  0  0  0  0
   10.9194  -14.3646   19.8812 C   0  0  0  0  0  0  0  0  0  0  0  0
   11.6074  -13.3567   20.1362 O   0  0  0  0  0  0  0  0  0  0  0  0
   10.6996  -15.8348   23.5501 C   0  0  0  0  0  0  0  0  0  0  0  0
   11.8158  -16.4326   22.7624 C   0  0  1  0  0  0  0  0  0  0  0  0
   11.4185  -17.6710   22.2582 O   0  0  0  0  0  0  0  0  0  0  0  0
   12.2571  -15.5782   21.5949 C   0  0  2  0  0  0  0  0  0  0  0  0
   11.2051  -15.5559   20.6272 N   0  0  0  0  0  0  0  0  0  0  0  0
   13.5170  -16.1583   21.0779 C   0  0  0  0  0  0  0  0  0  0  0  0
   13.5275  -16.5569   19.8850 O   0  0  0  0  0  0  0  0  0  0  0  0
   18.1314  -13.3339   20.7362 N   0  0  0  0  0  0  0  0  0  0  0  0
   17.2642  -14.2254   20.0445 C   0  0  0  0  0  0  0  0  0  0  0  0
   17.6472  -14.6179   18.9129 O   0  0  0  0  0  0  0  0  0  0  0  0
   16.0135  -14.6056   20.7022 C   0  0  0  0  0  0  0  0  0  0  0  0
   16.0185  -15.9743   21.3198 C   0  0  2  0  0  0  0  0  0  0  0  0
   14.7030  -16.2973   21.8200 N   0  0  0  0  0  0  0  0  0  0  0  0
   17.0889  -16.1808   22.2886 C   0  0  0  0  0  0  0  0  0  0  0  0
   17.9654  -17.0448   22.0704 O   0  0  0  0  0  0  0  0  0  0  0  0
   17.1933  -15.4602   23.4616 O   0  0  0  0  0  0  0  0  0  0  0  0
  2  1  1  0
  3  2  1  0
  3  4  1  6
  3  5  1  0
  5  6  1  1
  7  5  1  0
  7  8  2  0
 10  9  1  6
 10 12  1  0
 10 11  1  0
 12 13  1  6
 13  7  1  0
 14 12  1  0
 15 14  2  0
 16 17  1  0
 17 18  2  0
 19 17  1  0
 20 19  1  1
 20 21  1  0
 21 14  1  0
 22 20  1  0
 23 22  2  0
 24 22  1  0
M  END
$$$$
