ITN.pdb
     RDKit          3D

 24 23  0  0  1  0  0  0  0  0999 V2000
    6.6444  -12.6511   20.7198 C   0  0  0  0  0  0  0  0  0  0  0  0
    7.5639  -13.6516   20.0698 C   0  0  0  0  0  0  0  0  0  0  0  0
    8.8578  -13.0529   19.5959 C   0  0  2  0  0  0  0  0  0  0  0  0
    8.5153  -12.0447   18.5134 C   0  0  0  0  0  0  0  0  0  0  0  0
    9.8442  -14.0542   19.0884 C   0  0  2  0  0  0  0  0  0  0  0  0
    9.1382  -14.8217   18.0445 N   0  0  0  0  0  0  0  0  0  0  0  0
   10.3091  -14.9578   20.1609 C   0  0  0  0  0  0  0  0  0  0  0  0
   10.8326  -14.4969   21.1942 O   0  0  0  0  0  0  0  0  0  0  0  0
   11.0675  -19.6538   21.6496 C   0  0  0  0  0  0  0  0  0  0  0  0
   10.5095  -18.6709   20.6768 C   0  0  1  0  0  0  0  0  0  0  0  0
    9.1180  -18.7669   20.6646 O   0  0  0  0  0  0  0  0  0  0  0  0
   10.8711  -17.2364   20.9923 C   0  0  2  0  0  0  0  0  0  0  0  0
   10.1853  -16.3840   20.0719 N   0  0  0  0  0  0  0  0  0  0  0  0
   12.3447  -17.1261   20.9069 C   0  0  0  0  0  0  0  0  0  0  0  0
   12.8400  -16.7910   19.8004 O   0  0  0  0  0  0  0  0  0  0  0  0
   16.6072  -14.5080   20.6531 N   0  0  0  0  0  0  0  0  0  0  0  0
   16.0437  -14.8947   21.9015 C   0  0  0  0  0  0  0  0  0  0  0  0
   16.7652  -14.7332   22.9185 O   0  0  0  0  0  0  0  0  0  0  0  0
   14.6864  -15.4417   21.8952 C   0  0  0  0  0  0  0  0  0  0  0  0
   14.6110  -16.9382   21.9925 C   0  0  2  0  0  0  0  0  0  0  0  0
   13.2326  -17.3677   21.9700 N   0  0  0  0  0  0  0  0  0  0  0  0
   15.3891  -17.4982   23.0915 C   0  0  0  0  0  0  0  0  0  0  0  0
   14.8652  -17.6310   24.2185 O   0  0  0  0  0  0  0  0  0  0  0  0
   16.7030  -17.9003   22.9566 O   0  0  0  0  0  0  0  0  0  0  0  0
  2  1  1  0
  3  2  1  0
  3  4  1  6
  3  5  1  0
  5  6  1  6
  7  5  1  0
  7  8  2  0
 10  9  1  1
 10 12  1  0
 10 11  1  0
 12 13  1  6
 13  7  1  0
 14 12  1  0
 15 14  2  0
 16 17  1  0
 17 18  2  0
 19 17  1  0
 20 19  1  1
 20 21  1  0
 21 14  1  0
 22 20  1  0
 23 22  2  0
 24 22  1  0
M  END
$$$$
