ITN.pdb
     RDKit          3D

 24 23  0  0  1  0  0  0  0  0999 V2000
    7.3095  -11.2443   27.8680 C   0  0  0  0  0  0  0  0  0  0  0  0
    6.4211  -12.0371   26.9455 C   0  0  0  0  0  0  0  0  0  0  0  0
    7.1261  -13.1833   26.2773 C   0  0  2  0  0  0  0  0  0  0  0  0
    8.3005  -12.6015   25.5106 C   0  0  0  0  0  0  0  0  0  0  0  0
    6.2548  -13.9910   25.3707 C   0  0  2  0  0  0  0  0  0  0  0  0
    5.1447  -14.4809   26.2103 N   0  0  0  0  0  0  0  0  0  0  0  0
    6.9870  -15.1283   24.7767 C   0  0  0  0  0  0  0  0  0  0  0  0
    7.2295  -16.1474   25.4527 O   0  0  0  0  0  0  0  0  0  0  0  0
    6.7047  -16.1383   20.9041 C   0  0  0  0  0  0  0  0  0  0  0  0
    8.1112  -16.2017   21.3956 C   0  0  1  0  0  0  0  0  0  0  0  0
    8.8216  -15.1007   20.9170 O   0  0  0  0  0  0  0  0  0  0  0  0
    8.2250  -16.2049   22.9039 C   0  0  2  0  0  0  0  0  0  0  0  0
    7.4485  -15.1205   23.4187 N   0  0  0  0  0  0  0  0  0  0  0  0
    9.6640  -16.1048   23.2358 C   0  0  0  0  0  0  0  0  0  0  0  0
   10.0930  -14.9919   23.6352 O   0  0  0  0  0  0  0  0  0  0  0  0
   10.5777  -19.0832   25.2914 N   0  0  0  0  0  0  0  0  0  0  0  0
   11.1087  -17.9794   26.0160 C   0  0  0  0  0  0  0  0  0  0  0  0
   11.0016  -18.0245   27.2681 O   0  0  0  0  0  0  0  0  0  0  0  0
   11.7276  -16.8969   25.2502 C   0  0  0  0  0  0  0  0  0  0  0  0
   11.8801  -17.1727   23.7820 C   0  0  2  0  0  0  0  0  0  0  0  0
   10.5877  -17.1604   23.1383 N   0  0  0  0  0  0  0  0  0  0  0  0
   12.6804  -18.3548   23.4835 C   0  0  0  0  0  0  0  0  0  0  0  0
   13.8724  -18.4077   23.8557 O   0  0  0  0  0  0  0  0  0  0  0  0
   12.1862  -19.4459   22.7968 O   0  0  0  0  0  0  0  0  0  0  0  0
  2  1  1  0
  3  2  1  0
  3  4  1  6
  3  5  1  0
  5  6  1  1
  7  5  1  0
  7  8  2  0
 10  9  1  1
 10 12  1  0
 10 11  1  0
 12 13  1  1
 13  7  1  0
 14 12  1  0
 15 14  2  0
 16 17  1  0
 17 18  2  0
 19 17  1  0
 20 19  1  1
 20 21  1  0
 21 14  1  0
 22 20  1  0
 23 22  2  0
 24 22  1  0
M  END
$$$$
