ITN.pdb
     RDKit          3D

 24 23  0  0  1  0  0  0  0  0999 V2000
    7.2929  -11.5958   19.2235 C   0  0  0  0  0  0  0  0  0  0  0  0
    7.5273  -12.9782   18.6730 C   0  0  0  0  0  0  0  0  0  0  0  0
    7.9311  -13.9769   19.7202 C   0  0  2  0  0  0  0  0  0  0  0  0
    9.2146  -13.4690   20.3528 C   0  0  0  0  0  0  0  0  0  0  0  0
    8.1151  -15.3659   19.2005 C   0  0  2  0  0  0  0  0  0  0  0  0
    6.8190  -15.7494   18.6086 N   0  0  0  0  0  0  0  0  0  0  0  0
    8.4850  -16.3090   20.2759 C   0  0  0  0  0  0  0  0  0  0  0  0
    7.6737  -16.5871   21.1807 O   0  0  0  0  0  0  0  0  0  0  0  0
    8.9511  -19.7535   20.4671 C   0  0  0  0  0  0  0  0  0  0  0  0
   10.2387  -19.1950   20.9709 C   0  0  1  0  0  0  0  0  0  0  0  0
   11.1929  -19.2352   19.9543 O   0  0  0  0  0  0  0  0  0  0  0  0
   10.1313  -17.7635   21.4477 C   0  0  2  0  0  0  0  0  0  0  0  0
    9.7709  -16.9417   20.3348 N   0  0  0  0  0  0  0  0  0  0  0  0
   11.4358  -17.4010   22.0459 C   0  0  0  0  0  0  0  0  0  0  0  0
   11.9463  -16.3026   21.7067 O   0  0  0  0  0  0  0  0  0  0  0  0
   14.1640  -16.5688   26.2709 N   0  0  0  0  0  0  0  0  0  0  0  0
   12.9056  -16.0095   25.9116 C   0  0  0  0  0  0  0  0  0  0  0  0
   12.5199  -15.0166   26.5798 O   0  0  0  0  0  0  0  0  0  0  0  0
   12.1751  -16.6312   24.8065 C   0  0  0  0  0  0  0  0  0  0  0  0
   12.9515  -17.6642   24.0417 C   0  0  2  0  0  0  0  0  0  0  0  0
   12.1473  -18.1922   22.9649 N   0  0  0  0  0  0  0  0  0  0  0  0
   13.5614  -18.6872   24.8835 C   0  0  0  0  0  0  0  0  0  0  0  0
   14.8054  -18.8035   24.9163 O   0  0  0  0  0  0  0  0  0  0  0  0
   12.8269  -19.5562   25.6655 O   0  0  0  0  0  0  0  0  0  0  0  0
  2  1  1  0
  3  2  1  0
  3  4  1  6
  3  5  1  0
  5  6  1  1
  7  5  1  0
  7  8  2  0
 10  9  1  6
 10 12  1  0
 10 11  1  0
 12 13  1  6
 13  7  1  0
 14 12  1  0
 15 14  2  0
 16 17  1  0
 17 18  2  0
 19 17  1  0
 20 19  1  1
 20 21  1  0
 21 14  1  0
 22 20  1  0
 23 22  2  0
 24 22  1  0
M  END
$$$$
