ITN.pdb
     RDKit          3D

 24 23  0  0  1  0  0  0  0  0999 V2000
    6.8660  -11.5254   27.4641 C   0  0  0  0  0  0  0  0  0  0  0  0
    6.2148  -12.6860   26.7586 C   0  0  0  0  0  0  0  0  0  0  0  0
    7.1977  -13.6093   26.0963 C   0  0  2  0  0  0  0  0  0  0  0  0
    8.0238  -12.7712   25.1368 C   0  0  0  0  0  0  0  0  0  0  0  0
    6.5677  -14.7600   25.3805 C   0  0  2  0  0  0  0  0  0  0  0  0
    5.7591  -15.4689   26.3909 N   0  0  0  0  0  0  0  0  0  0  0  0
    7.5806  -15.6694   24.8065 C   0  0  0  0  0  0  0  0  0  0  0  0
    8.1556  -16.5106   25.5248 O   0  0  0  0  0  0  0  0  0  0  0  0
    7.0891  -17.8171   21.6930 C   0  0  0  0  0  0  0  0  0  0  0  0
    8.3819  -17.0835   21.5739 C   0  0  1  0  0  0  0  0  0  0  0  0
    8.2224  -15.9958   20.7153 O   0  0  0  0  0  0  0  0  0  0  0  0
    8.9029  -16.5583   22.8932 C   0  0  2  0  0  0  0  0  0  0  0  0
    7.9488  -15.6335   23.4207 N   0  0  0  0  0  0  0  0  0  0  0  0
   10.2266  -15.9497   22.6316 C   0  0  0  0  0  0  0  0  0  0  0  0
   10.3841  -14.7421   22.9462 O   0  0  0  0  0  0  0  0  0  0  0  0
   15.2803  -15.9742   23.2787 N   0  0  0  0  0  0  0  0  0  0  0  0
   14.2966  -16.1831   24.2858 C   0  0  0  0  0  0  0  0  0  0  0  0
   14.7069  -16.2191   25.4738 O   0  0  0  0  0  0  0  0  0  0  0  0
   12.9059  -16.3367   23.8573 C   0  0  0  0  0  0  0  0  0  0  0  0
   12.7026  -16.3376   22.3695 C   0  0  2  0  0  0  0  0  0  0  0  0
   11.3213  -16.6201   22.0579 N   0  0  0  0  0  0  0  0  0  0  0  0
   13.6564  -17.1687   21.6439 C   0  0  0  0  0  0  0  0  0  0  0  0
   14.5402  -16.6311   20.9423 O   0  0  0  0  0  0  0  0  0  0  0  0
   13.6400  -18.5485   21.6877 O   0  0  0  0  0  0  0  0  0  0  0  0
  2  1  1  0
  3  2  1  0
  3  4  1  6
  3  5  1  0
  5  6  1  1
  7  5  1  0
  7  8  2  0
 10  9  1  1
 10 12  1  0
 10 11  1  0
 12 13  1  6
 13  7  1  0
 14 12  1  0
 15 14  2  0
 16 17  1  0
 17 18  2  0
 19 17  1  0
 20 19  1  1
 20 21  1  0
 21 14  1  0
 22 20  1  0
 23 22  2  0
 24 22  1  0
M  END
$$$$
