ITN.pdb
     RDKit          3D

 24 23  0  0  1  0  0  0  0  0999 V2000
    7.5076  -11.7714   19.5988 C   0  0  0  0  0  0  0  0  0  0  0  0
    8.0297  -13.1588   19.3320 C   0  0  0  0  0  0  0  0  0  0  0  0
    8.1138  -14.0123   20.5656 C   0  0  2  0  0  0  0  0  0  0  0  0
    9.0137  -13.2881   21.5512 C   0  0  0  0  0  0  0  0  0  0  0  0
    8.6148  -15.3980   20.3164 C   0  0  2  0  0  0  0  0  0  0  0  0
    7.6508  -16.0131   19.3840 N   0  0  0  0  0  0  0  0  0  0  0  0
    8.6928  -16.1852   21.5641 C   0  0  0  0  0  0  0  0  0  0  0  0
    7.6565  -16.4870   22.1879 O   0  0  0  0  0  0  0  0  0  0  0  0
    9.7659  -19.5333   22.1802 C   0  0  0  0  0  0  0  0  0  0  0  0
   10.5623  -18.7035   23.1294 C   0  0  1  0  0  0  0  0  0  0  0  0
   11.8561  -18.5416   22.6336 O   0  0  0  0  0  0  0  0  0  0  0  0
    9.9813  -17.3267   23.3631 C   0  0  2  0  0  0  0  0  0  0  0  0
    9.9395  -16.6349   22.1126 N   0  0  0  0  0  0  0  0  0  0  0  0
   10.8298  -16.6579   24.3749 C   0  0  0  0  0  0  0  0  0  0  0  0
   11.2412  -15.4982   24.1145 O   0  0  0  0  0  0  0  0  0  0  0  0
    9.9545  -13.5009   28.1460 N   0  0  0  0  0  0  0  0  0  0  0  0
    9.8592  -14.9184   28.2305 C   0  0  0  0  0  0  0  0  0  0  0  0
    9.6902  -15.4034   29.3782 O   0  0  0  0  0  0  0  0  0  0  0  0
    9.9650  -15.6829   26.9872 C   0  0  0  0  0  0  0  0  0  0  0  0
   11.2127  -16.5088   26.8610 C   0  0  2  0  0  0  0  0  0  0  0  0
   11.2106  -17.2217   25.6053 N   0  0  0  0  0  0  0  0  0  0  0  0
   11.4830  -17.3508   28.0208 C   0  0  0  0  0  0  0  0  0  0  0  0
   12.4455  -17.0827   28.7717 O   0  0  0  0  0  0  0  0  0  0  0  0
   10.7191  -18.4540   28.3458 O   0  0  0  0  0  0  0  0  0  0  0  0
  2  1  1  0
  3  2  1  0
  3  4  1  1
  3  5  1  0
  5  6  1  6
  7  5  1  0
  7  8  2  0
 10  9  1  6
 10 12  1  0
 10 11  1  0
 12 13  1  6
 13  7  1  0
 14 12  1  0
 15 14  2  0
 16 17  1  0
 17 18  2  0
 19 17  1  0
 20 19  1  1
 20 21  1  0
 21 14  1  0
 22 20  1  0
 23 22  2  0
 24 22  1  0
M  END
$$$$
