ITN.pdb
     RDKit          3D

 24 23  0  0  1  0  0  0  0  0999 V2000
    7.9323  -12.4495   22.6622 C   0  0  0  0  0  0  0  0  0  0  0  0
    7.6051  -13.5839   21.7270 C   0  0  0  0  0  0  0  0  0  0  0  0
    8.3293  -13.5020   20.4132 C   0  0  2  0  0  0  0  0  0  0  0  0
    7.8212  -12.2628   19.6977 C   0  0  0  0  0  0  0  0  0  0  0  0
    8.1668  -14.7111   19.5500 C   0  0  2  0  0  0  0  0  0  0  0  0
    6.7208  -14.8200   19.2775 N   0  0  0  0  0  0  0  0  0  0  0  0
    8.6540  -15.9334   20.2216 C   0  0  0  0  0  0  0  0  0  0  0  0
    7.9118  -16.5687   20.9961 O   0  0  0  0  0  0  0  0  0  0  0  0
   10.2405  -18.8660   18.4919 C   0  0  0  0  0  0  0  0  0  0  0  0
   11.0987  -18.5219   19.6618 C   0  0  1  0  0  0  0  0  0  0  0  0
   12.2404  -17.8527   19.2206 O   0  0  0  0  0  0  0  0  0  0  0  0
   10.4094  -17.6391   20.6784 C   0  0  2  0  0  0  0  0  0  0  0  0
    9.9796  -16.4438   20.0223 N   0  0  0  0  0  0  0  0  0  0  0  0
   11.3755  -17.3923   21.7724 C   0  0  0  0  0  0  0  0  0  0  0  0
   11.7560  -16.2076   21.9563 O   0  0  0  0  0  0  0  0  0  0  0  0
   10.1397  -16.8919   26.9253 N   0  0  0  0  0  0  0  0  0  0  0  0
   11.2516  -17.3430   26.1600 C   0  0  0  0  0  0  0  0  0  0  0  0
   12.3336  -17.5030   26.7803 O   0  0  0  0  0  0  0  0  0  0  0  0
   11.0432  -17.5798   24.7311 C   0  0  0  0  0  0  0  0  0  0  0  0
   12.2209  -18.1741   24.0138 C   0  0  2  0  0  0  0  0  0  0  0  0
   11.8999  -18.3826   22.6215 N   0  0  0  0  0  0  0  0  0  0  0  0
   12.7848  -19.3455   24.6745 C   0  0  0  0  0  0  0  0  0  0  0  0
   13.2521  -19.2421   25.8292 O   0  0  0  0  0  0  0  0  0  0  0  0
   12.8341  -20.5929   24.0848 O   0  0  0  0  0  0  0  0  0  0  0  0
  2  1  1  0
  3  2  1  0
  3  4  1  6
  3  5  1  0
  5  6  1  1
  7  5  1  0
  7  8  2  0
 10  9  1  6
 10 12  1  0
 10 11  1  0
 12 13  1  6
 13  7  1  0
 14 12  1  0
 15 14  2  0
 16 17  1  0
 17 18  2  0
 19 17  1  0
 20 19  1  1
 20 21  1  0
 21 14  1  0
 22 20  1  0
 23 22  2  0
 24 22  1  0
M  END
$$$$
