ITN.pdb
     RDKit          3D

 24 23  0  0  1  0  0  0  0  0999 V2000
    7.1656  -12.2009   19.2617 C   0  0  0  0  0  0  0  0  0  0  0  0
    8.1973  -13.2974   19.3056 C   0  0  0  0  0  0  0  0  0  0  0  0
    8.0373  -14.2206   20.4800 C   0  0  2  0  0  0  0  0  0  0  0  0
    8.2439  -13.3903   21.7344 C   0  0  0  0  0  0  0  0  0  0  0  0
    8.9649  -15.3923   20.4664 C   0  0  2  0  0  0  0  0  0  0  0  0
    8.6232  -16.1624   19.2551 N   0  0  0  0  0  0  0  0  0  0  0  0
    8.8029  -16.2336   21.6699 C   0  0  0  0  0  0  0  0  0  0  0  0
    7.9847  -17.1743   21.6791 O   0  0  0  0  0  0  0  0  0  0  0  0
    8.8948  -18.8381   22.5151 C   0  0  0  0  0  0  0  0  0  0  0  0
    9.7694  -18.2841   23.5884 C   0  0  1  0  0  0  0  0  0  0  0  0
   11.0931  -18.2692   23.1487 O   0  0  0  0  0  0  0  0  0  0  0  0
    9.4031  -16.8753   23.9995 C   0  0  2  0  0  0  0  0  0  0  0  0
    9.5627  -16.0174   22.8671 N   0  0  0  0  0  0  0  0  0  0  0  0
   10.2744  -16.5099   25.1390 C   0  0  0  0  0  0  0  0  0  0  0  0
   11.4339  -16.0991   24.8766 O   0  0  0  0  0  0  0  0  0  0  0  0
    8.5296  -13.6227   27.4293 N   0  0  0  0  0  0  0  0  0  0  0  0
    9.8800  -13.9286   27.7585 C   0  0  0  0  0  0  0  0  0  0  0  0
   10.7460  -13.0796   27.4264 O   0  0  0  0  0  0  0  0  0  0  0  0
   10.1429  -15.1920   28.4484 C   0  0  0  0  0  0  0  0  0  0  0  0
   10.7741  -16.2547   27.5956 C   0  0  2  0  0  0  0  0  0  0  0  0
    9.9034  -16.5877   26.4929 N   0  0  0  0  0  0  0  0  0  0  0  0
   11.2478  -17.4110   28.3477 C   0  0  0  0  0  0  0  0  0  0  0  0
   12.0127  -17.2466   29.3224 O   0  0  0  0  0  0  0  0  0  0  0  0
   10.8920  -18.7086   28.0383 O   0  0  0  0  0  0  0  0  0  0  0  0
  2  1  1  0
  3  2  1  0
  3  4  1  1
  3  5  1  0
  5  6  1  6
  7  5  1  0
  7  8  2  0
 10  9  1  6
 10 12  1  0
 10 11  1  0
 12 13  1  6
 13  7  1  0
 14 12  1  0
 15 14  2  0
 16 17  1  0
 17 18  2  0
 19 17  1  0
 20 19  1  1
 20 21  1  0
 21 14  1  0
 22 20  1  0
 23 22  2  0
 24 22  1  0
M  END
$$$$
