ITN.pdb
     RDKit          3D

 24 23  0  0  1  0  0  0  0  0999 V2000
    0.5521  -20.6188   21.5934 C   0  0  0  0  0  0  0  0  0  0  0  0
    0.1871  -21.1329   22.9613 C   0  0  0  0  0  0  0  0  0  0  0  0
   -1.2835  -21.0501   23.2572 C   0  0  2  0  0  0  0  0  0  0  0  0
   -1.6763  -19.5859   23.1715 C   0  0  0  0  0  0  0  0  0  0  0  0
   -1.6730  -21.6221   24.5817 C   0  0  2  0  0  0  0  0  0  0  0  0
   -1.1739  -23.0107   24.5832 N   0  0  0  0  0  0  0  0  0  0  0  0
   -3.1373  -21.6051   24.7769 C   0  0  0  0  0  0  0  0  0  0  0  0
   -3.7508  -20.5239   24.8709 O   0  0  0  0  0  0  0  0  0  0  0  0
   -5.7865  -23.3143   22.6516 C   0  0  0  0  0  0  0  0  0  0  0  0
   -5.9845  -23.6995   24.0785 C   0  0  1  0  0  0  0  0  0  0  0  0
   -5.4508  -24.9698   24.2961 O   0  0  0  0  0  0  0  0  0  0  0  0
   -5.3307  -22.7496   25.0574 C   0  0  2  0  0  0  0  0  0  0  0  0
   -3.9150  -22.8070   24.8668 N   0  0  0  0  0  0  0  0  0  0  0  0
   -5.7563  -23.1568   26.4153 C   0  0  0  0  0  0  0  0  0  0  0  0
   -5.0747  -24.0383   26.9988 O   0  0  0  0  0  0  0  0  0  0  0  0
   -7.6266  -23.6364   31.1016 N   0  0  0  0  0  0  0  0  0  0  0  0
   -6.3112  -23.2144   30.7595 C   0  0  0  0  0  0  0  0  0  0  0  0
   -5.4718  -23.1755   31.6950 O   0  0  0  0  0  0  0  0  0  0  0  0
   -6.0501  -22.8653   29.3626 C   0  0  0  0  0  0  0  0  0  0  0  0
   -7.2349  -22.9969   28.4495 C   0  0  2  0  0  0  0  0  0  0  0  0
   -6.8654  -22.6324   27.1021 N   0  0  0  0  0  0  0  0  0  0  0  0
   -8.4340  -22.3258   28.9380 C   0  0  0  0  0  0  0  0  0  0  0  0
   -8.8690  -21.3184   28.3396 O   0  0  0  0  0  0  0  0  0  0  0  0
   -9.1343  -22.7485   30.0503 O   0  0  0  0  0  0  0  0  0  0  0  0
  2  1  1  0
  3  2  1  0
  3  4  1  1
  3  5  1  0
  5  6  1  6
  7  5  1  0
  7  8  2  0
 10  9  1  6
 10 12  1  0
 10 11  1  0
 12 13  1  1
 13  7  1  0
 14 12  1  0
 15 14  2  0
 16 17  1  0
 17 18  2  0
 19 17  1  0
 20 19  1  1
 20 21  1  0
 21 14  1  0
 22 20  1  0
 23 22  2  0
 24 22  1  0
M  END
$$$$
