ITN.pdb
     RDKit          3D

 24 23  0  0  1  0  0  0  0  0999 V2000
    6.4189  -11.3521   26.7001 C   0  0  0  0  0  0  0  0  0  0  0  0
    6.9246  -11.8480   25.3708 C   0  0  0  0  0  0  0  0  0  0  0  0
    7.3392  -13.2919   25.3910 C   0  0  2  0  0  0  0  0  0  0  0  0
    8.4865  -13.4151   26.3781 C   0  0  0  0  0  0  0  0  0  0  0  0
    7.7350  -13.8323   24.0551 C   0  0  2  0  0  0  0  0  0  0  0  0
    6.6080  -13.5346   23.1504 N   0  0  0  0  0  0  0  0  0  0  0  0
    7.9807  -15.2883   24.1037 C   0  0  0  0  0  0  0  0  0  0  0  0
    7.2402  -16.0762   23.4830 O   0  0  0  0  0  0  0  0  0  0  0  0
    8.9062  -17.1392   22.2674 C   0  0  0  0  0  0  0  0  0  0  0  0
    9.8849  -17.5068   23.3308 C   0  0  1  0  0  0  0  0  0  0  0  0
   11.0573  -16.7706   23.1590 O   0  0  0  0  0  0  0  0  0  0  0  0
    9.3791  -17.2498   24.7330 C   0  0  2  0  0  0  0  0  0  0  0  0
    9.0620  -15.8609   24.8522 N   0  0  0  0  0  0  0  0  0  0  0  0
   10.4369  -17.6919   25.6692 C   0  0  0  0  0  0  0  0  0  0  0  0
   11.3852  -16.8966   25.8933 O   0  0  0  0  0  0  0  0  0  0  0  0
    8.3173  -20.5625   28.4537 N   0  0  0  0  0  0  0  0  0  0  0  0
    9.5346  -20.0130   28.9454 C   0  0  0  0  0  0  0  0  0  0  0  0
    9.4475  -19.2622   29.9503 O   0  0  0  0  0  0  0  0  0  0  0  0
   10.7714  -20.3650   28.2469 C   0  0  0  0  0  0  0  0  0  0  0  0
   11.3568  -19.2636   27.4109 C   0  0  2  0  0  0  0  0  0  0  0  0
   10.4614  -18.9343   26.3270 N   0  0  0  0  0  0  0  0  0  0  0  0
   12.7319  -19.5084   26.9910 C   0  0  0  0  0  0  0  0  0  0  0  0
   12.9691  -19.8548   25.8138 O   0  0  0  0  0  0  0  0  0  0  0  0
   13.8136  -19.3765   27.8387 O   0  0  0  0  0  0  0  0  0  0  0  0
  2  1  1  0
  3  2  1  0
  3  4  1  1
  3  5  1  0
  5  6  1  6
  7  5  1  0
  7  8  2  0
 10  9  1  6
 10 12  1  0
 10 11  1  0
 12 13  1  6
 13  7  1  0
 14 12  1  0
 15 14  2  0
 16 17  1  0
 17 18  2  0
 19 17  1  0
 20 19  1  6
 20 21  1  0
 21 14  1  0
 22 20  1  0
 23 22  2  0
 24 22  1  0
M  END
$$$$
