ITN.pdb
     RDKit          3D

 24 23  0  0  1  0  0  0  0  0999 V2000
    7.4656  -11.7731   19.7171 C   0  0  0  0  0  0  0  0  0  0  0  0
    8.0381  -12.7815   18.7557 C   0  0  0  0  0  0  0  0  0  0  0  0
    8.5783  -14.0100   19.4311 C   0  0  2  0  0  0  0  0  0  0  0  0
    9.6953  -13.5589   20.3555 C   0  0  0  0  0  0  0  0  0  0  0  0
    9.0688  -15.0598   18.4873 C   0  0  2  0  0  0  0  0  0  0  0  0
    7.9433  -15.3385   17.5747 N   0  0  0  0  0  0  0  0  0  0  0  0
    9.4682  -16.2920   19.1977 C   0  0  0  0  0  0  0  0  0  0  0  0
    8.6181  -16.9841   19.7915 O   0  0  0  0  0  0  0  0  0  0  0  0
   10.7719  -19.4776   18.0187 C   0  0  0  0  0  0  0  0  0  0  0  0
   11.7675  -18.9278   18.9832 C   0  0  1  0  0  0  0  0  0  0  0  0
   12.7878  -18.2843   18.2827 O   0  0  0  0  0  0  0  0  0  0  0  0
   11.1785  -17.9335   19.9591 C   0  0  2  0  0  0  0  0  0  0  0  0
   10.8274  -16.7482   19.2410 N   0  0  0  0  0  0  0  0  0  0  0  0
   12.1905  -17.7015   21.0140 C   0  0  0  0  0  0  0  0  0  0  0  0
   12.9509  -16.7083   20.8826 O   0  0  0  0  0  0  0  0  0  0  0  0
   10.3171  -18.3726   24.7402 N   0  0  0  0  0  0  0  0  0  0  0  0
   11.6014  -17.7815   24.9034 C   0  0  0  0  0  0  0  0  0  0  0  0
   11.6276  -16.6096   25.3585 O   0  0  0  0  0  0  0  0  0  0  0  0
   12.7702  -18.5797   24.5314 C   0  0  0  0  0  0  0  0  0  0  0  0
   13.3467  -18.2597   23.1823 C   0  0  2  0  0  0  0  0  0  0  0  0
   12.3658  -18.5081   22.1522 N   0  0  0  0  0  0  0  0  0  0  0  0
   14.6415  -18.8819   22.9310 C   0  0  0  0  0  0  0  0  0  0  0  0
   14.7557  -19.7322   22.0221 O   0  0  0  0  0  0  0  0  0  0  0  0
   15.7767  -18.5794   23.6563 O   0  0  0  0  0  0  0  0  0  0  0  0
  2  1  1  0
  3  2  1  0
  3  4  1  1
  3  5  1  0
  5  6  1  6
  7  5  1  0
  7  8  2  0
 10  9  1  6
 10 12  1  0
 10 11  1  0
 12 13  1  6
 13  7  1  0
 14 12  1  0
 15 14  2  0
 16 17  1  0
 17 18  2  0
 19 17  1  0
 20 19  1  1
 20 21  1  0
 21 14  1  0
 22 20  1  0
 23 22  2  0
 24 22  1  0
M  END
$$$$
