DAE.pdb
     RDKit          3D

 23 22  0  0  1  0  0  0  0  0999 V2000
    9.6341  -19.2593   19.3347 N   0  0  0  0  0  0  0  0  0  0  0  0
   10.9142  -18.7235   18.9990 C   0  0  1  0  0  0  0  0  0  0  0  0
   10.8148  -18.0703   17.6367 C   0  0  0  0  0  0  0  0  0  0  0  0
   11.2057  -19.0906   16.6303 C   0  0  0  0  0  0  0  0  0  0  0  0
   12.0441  -19.9528   16.9719 O   0  0  0  0  0  0  0  0  0  0  0  0
   11.4289  -17.7441   19.9692 C   0  0  0  0  0  0  0  0  0  0  0  0
   12.5505  -17.1789   19.8485 O   0  0  0  0  0  0  0  0  0  0  0  0
   10.6781  -19.1101   15.3563 O   0  0  0  0  0  0  0  0  0  0  0  0
   10.1320  -15.8843   23.0174 C   0  0  0  0  0  0  0  0  0  0  0  0
   11.1900  -16.4278   22.0845 C   0  0  2  0  0  0  0  0  0  0  0  0
   10.6775  -17.3603   21.1361 N   0  0  0  0  0  0  0  0  0  0  0  0
   12.3067  -17.0380   22.8441 C   0  0  0  0  0  0  0  0  0  0  0  0
   12.2798  -18.2809   23.1616 O   0  0  0  0  0  0  0  0  0  0  0  0
   13.4044  -16.2201   23.2124 N   0  0  0  0  0  0  0  0  0  0  0  0
   14.5544  -16.7398   23.9258 C   0  0  1  0  0  0  0  0  0  0  0  0
   15.7228  -15.8630   23.6138 C   0  0  0  0  0  0  0  0  0  0  0  0
   17.0041  -16.1953   24.2866 C   0  0  0  0  0  0  0  0  0  0  0  0
   18.1444  -15.3205   23.9234 C   0  0  0  0  0  0  0  0  0  0  0  0
   18.3829  -15.0653   22.7149 O   0  0  0  0  0  0  0  0  0  0  0  0
   14.2949  -16.9423   25.3517 C   0  0  0  0  0  0  0  0  0  0  0  0
   13.4757  -16.3270   26.0466 O   0  0  0  0  0  0  0  0  0  0  0  0
   19.0012  -14.7400   24.8459 O   0  0  0  0  0  0  0  0  0  0  0  0
   15.0417  -17.9291   26.0124 O   0  0  0  0  0  0  0  0  0  0  0  0
  2  1  1  1
  2  3  1  0
  3  4  1  0
  4  8  1  0
  4  5  2  0
  6  2  1  0
  7  6  2  0
 10  9  1  1
 10 11  1  0
 11  6  1  0
 12 10  1  0
 12 14  1  0
 13 12  2  0
 15 14  1  0
 15 16  1  1
 15 20  1  0
 16 17  1  0
 17 18  1  0
 18 22  1  0
 19 18  2  0
 20 21  2  0
 20 23  1  0
M  END
$$$$
