DAE.pdb
     RDKit          3D

 23 22  0  0  1  0  0  0  0  0999 V2000
    8.9081  -15.1164   14.7395 N   0  0  0  0  0  0  0  0  0  0  0  0
    8.2831  -15.6213   15.9197 C   0  0  1  0  0  0  0  0  0  0  0  0
    8.4389  -17.1272   15.9342 C   0  0  0  0  0  0  0  0  0  0  0  0
    7.7075  -17.6563   14.7545 C   0  0  0  0  0  0  0  0  0  0  0  0
    6.4703  -17.8047   14.8559 O   0  0  0  0  0  0  0  0  0  0  0  0
    8.8243  -15.0664   17.1706 C   0  0  0  0  0  0  0  0  0  0  0  0
   10.0504  -15.1017   17.4662 O   0  0  0  0  0  0  0  0  0  0  0  0
    8.3454  -17.9806   13.5756 O   0  0  0  0  0  0  0  0  0  0  0  0
    7.5149  -13.0658   20.1323 C   0  0  0  0  0  0  0  0  0  0  0  0
    8.5078  -13.9119   19.3686 C   0  0  2  0  0  0  0  0  0  0  0  0
    7.9802  -14.4382   18.1536 N   0  0  0  0  0  0  0  0  0  0  0  0
    9.0310  -15.0113   20.2134 C   0  0  0  0  0  0  0  0  0  0  0  0
    8.4904  -16.1745   20.1819 O   0  0  0  0  0  0  0  0  0  0  0  0
   10.1405  -14.7511   21.0564 N   0  0  0  0  0  0  0  0  0  0  0  0
   10.6845  -15.7510   21.9540 C   0  0  1  0  0  0  0  0  0  0  0  0
   12.1377  -15.4591   22.1398 C   0  0  0  0  0  0  0  0  0  0  0  0
   12.8818  -16.3445   23.0711 C   0  0  0  0  0  0  0  0  0  0  0  0
   14.3358  -16.0710   23.1635 C   0  0  0  0  0  0  0  0  0  0  0  0
   14.8321  -15.0881   22.5551 O   0  0  0  0  0  0  0  0  0  0  0  0
    9.9156  -15.8822   23.1921 C   0  0  0  0  0  0  0  0  0  0  0  0
    9.1301  -15.0496   23.6638 O   0  0  0  0  0  0  0  0  0  0  0  0
   15.2252  -16.8429   23.8951 O   0  0  0  0  0  0  0  0  0  0  0  0
   10.0734  -17.0644   23.9306 O   0  0  0  0  0  0  0  0  0  0  0  0
  2  1  1  6
  2  3  1  0
  3  4  1  0
  4  8  1  0
  4  5  2  0
  6  2  1  0
  7  6  2  0
 10  9  1  1
 10 11  1  0
 11  6  1  0
 12 10  1  0
 12 14  1  0
 13 12  2  0
 15 14  1  0
 15 16  1  1
 15 20  1  0
 16 17  1  0
 17 18  1  0
 18 22  1  0
 19 18  2  0
 20 21  2  0
 20 23  1  0
M  END
$$$$
