DAE.pdb
     RDKit          3D

 23 22  0  0  1  0  0  0  0  0999 V2000
    8.4699  -17.3984   17.5624 N   0  0  0  0  0  0  0  0  0  0  0  0
    9.3250  -18.0776   18.4821 C   0  0  1  0  0  0  0  0  0  0  0  0
   10.6532  -17.3519   18.5225 C   0  0  0  0  0  0  0  0  0  0  0  0
   11.3130  -17.5688   17.2094 C   0  0  0  0  0  0  0  0  0  0  0  0
   11.6246  -18.7398   16.9017 O   0  0  0  0  0  0  0  0  0  0  0  0
    8.7840  -18.1737   19.8472 C   0  0  0  0  0  0  0  0  0  0  0  0
    7.8674  -17.4221   20.2794 O   0  0  0  0  0  0  0  0  0  0  0  0
   11.5842  -16.5332   16.3401 O   0  0  0  0  0  0  0  0  0  0  0  0
    8.4195  -20.7349   22.4547 C   0  0  0  0  0  0  0  0  0  0  0  0
    8.6833  -19.2936   22.0832 C   0  0  2  0  0  0  0  0  0  0  0  0
    9.2706  -19.1442   20.7931 N   0  0  0  0  0  0  0  0  0  0  0  0
    9.5247  -18.6263   23.1045 C   0  0  0  0  0  0  0  0  0  0  0  0
    9.2394  -18.7225   24.3517 O   0  0  0  0  0  0  0  0  0  0  0  0
   10.6507  -17.8800   22.6748 N   0  0  0  0  0  0  0  0  0  0  0  0
   11.4693  -17.1125   23.5926 C   0  0  1  0  0  0  0  0  0  0  0  0
   12.6402  -16.5833   22.8308 C   0  0  0  0  0  0  0  0  0  0  0  0
   13.9817  -16.8182   23.4224 C   0  0  0  0  0  0  0  0  0  0  0  0
   15.1214  -16.4368   22.5545 C   0  0  0  0  0  0  0  0  0  0  0  0
   15.5928  -17.2650   21.7332 O   0  0  0  0  0  0  0  0  0  0  0  0
   10.7049  -16.1069   24.3314 C   0  0  0  0  0  0  0  0  0  0  0  0
    9.5551  -15.7232   24.0798 O   0  0  0  0  0  0  0  0  0  0  0  0
   15.7319  -15.1923   22.5782 O   0  0  0  0  0  0  0  0  0  0  0  0
   11.3234  -15.5076   25.4388 O   0  0  0  0  0  0  0  0  0  0  0  0
  2  1  1  6
  2  3  1  0
  3  4  1  0
  4  8  1  0
  4  5  2  0
  6  2  1  0
  7  6  2  0
 10  9  1  1
 10 11  1  0
 11  6  1  0
 12 10  1  0
 12 14  1  0
 13 12  2  0
 15 14  1  0
 15 16  1  6
 15 20  1  0
 16 17  1  0
 17 18  1  0
 18 22  1  0
 19 18  2  0
 20 21  2  0
 20 23  1  0
M  END
$$$$
