DAE.pdb
     RDKit          3D

 23 22  0  0  1  0  0  0  0  0999 V2000
   12.4271  -17.1324   16.4103 N   0  0  0  0  0  0  0  0  0  0  0  0
   13.2067  -15.9367   16.4414 C   0  0  1  0  0  0  0  0  0  0  0  0
   13.1777  -15.3131   15.0620 C   0  0  0  0  0  0  0  0  0  0  0  0
   13.7965  -16.2867   14.1262 C   0  0  0  0  0  0  0  0  0  0  0  0
   14.5993  -17.1194   14.6006 O   0  0  0  0  0  0  0  0  0  0  0  0
   12.7500  -14.9470   17.4300 C   0  0  0  0  0  0  0  0  0  0  0  0
   13.3668  -13.8714   17.6637 O   0  0  0  0  0  0  0  0  0  0  0  0
   13.5135  -16.2949   12.7766 O   0  0  0  0  0  0  0  0  0  0  0  0
    9.5540  -14.0931   19.1645 C   0  0  0  0  0  0  0  0  0  0  0  0
   11.0632  -14.1397   19.0935 C   0  0  2  0  0  0  0  0  0  0  0  0
   11.5533  -15.1422   18.2067 N   0  0  0  0  0  0  0  0  0  0  0  0
   11.6540  -14.3203   20.4405 C   0  0  0  0  0  0  0  0  0  0  0  0
   11.4156  -13.4771   21.3778 O   0  0  0  0  0  0  0  0  0  0  0  0
   12.4875  -15.4433   20.6715 N   0  0  0  0  0  0  0  0  0  0  0  0
   13.0189  -15.7586   21.9829 C   0  0  1  0  0  0  0  0  0  0  0  0
   12.5174  -17.1119   22.3682 C   0  0  0  0  0  0  0  0  0  0  0  0
   12.5805  -17.4607   23.8102 C   0  0  0  0  0  0  0  0  0  0  0  0
   12.0970  -18.8216   24.1443 C   0  0  0  0  0  0  0  0  0  0  0  0
   11.6520  -19.5724   23.2383 O   0  0  0  0  0  0  0  0  0  0  0  0
   14.4702  -15.5895   22.0639 C   0  0  0  0  0  0  0  0  0  0  0  0
   15.2668  -15.5923   21.1162 O   0  0  0  0  0  0  0  0  0  0  0  0
   12.0961  -19.3516   25.4254 O   0  0  0  0  0  0  0  0  0  0  0  0
   15.0309  -15.4049   23.3366 O   0  0  0  0  0  0  0  0  0  0  0  0
  2  1  1  6
  2  3  1  0
  3  4  1  0
  4  8  1  0
  4  5  2  0
  6  2  1  0
  7  6  2  0
 10  9  1  1
 10 11  1  0
 11  6  1  0
 12 10  1  0
 12 14  1  0
 13 12  2  0
 15 14  1  0
 15 16  1  6
 15 20  1  0
 16 17  1  0
 17 18  1  0
 18 22  1  0
 19 18  2  0
 20 21  2  0
 20 23  1  0
M  END
$$$$
