DAE.pdb
     RDKit          3D

 23 22  0  0  1  0  0  0  0  0999 V2000
    7.3212  -17.5912   18.1659 N   0  0  0  0  0  0  0  0  0  0  0  0
    8.7431  -17.5681   18.2922 C   0  0  1  0  0  0  0  0  0  0  0  0
    9.3259  -17.0062   17.0127 C   0  0  0  0  0  0  0  0  0  0  0  0
    9.0059  -17.9661   15.9251 C   0  0  0  0  0  0  0  0  0  0  0  0
    9.5019  -19.1115   15.9961 O   0  0  0  0  0  0  0  0  0  0  0  0
    9.2323  -16.7795   19.4342 C   0  0  0  0  0  0  0  0  0  0  0  0
   10.4582  -16.6071   19.6779 O   0  0  0  0  0  0  0  0  0  0  0  0
    8.1928  -17.6326   14.8624 O   0  0  0  0  0  0  0  0  0  0  0  0
    7.7156  -14.5972   22.1627 C   0  0  0  0  0  0  0  0  0  0  0  0
    8.8116  -15.3544   21.4482 C   0  0  2  0  0  0  0  0  0  0  0  0
    8.3332  -16.1437   20.3621 N   0  0  0  0  0  0  0  0  0  0  0  0
    9.5764  -16.2016   22.3935 C   0  0  0  0  0  0  0  0  0  0  0  0
    9.1487  -17.3659   22.7217 O   0  0  0  0  0  0  0  0  0  0  0  0
   10.7897  -15.6989   22.9271 N   0  0  0  0  0  0  0  0  0  0  0  0
   11.6518  -16.4950   23.7783 C   0  0  1  0  0  0  0  0  0  0  0  0
   13.0668  -16.1301   23.4682 C   0  0  0  0  0  0  0  0  0  0  0  0
   14.1202  -16.8083   24.2653 C   0  0  0  0  0  0  0  0  0  0  0  0
   15.5087  -16.4156   23.9259 C   0  0  0  0  0  0  0  0  0  0  0  0
   16.4351  -17.2650   23.9809 O   0  0  0  0  0  0  0  0  0  0  0  0
   11.2866  -16.4132   25.1930 C   0  0  0  0  0  0  0  0  0  0  0  0
   10.5892  -15.5396   25.7250 O   0  0  0  0  0  0  0  0  0  0  0  0
   15.8807  -15.1375   23.5386 O   0  0  0  0  0  0  0  0  0  0  0  0
   11.7674  -17.4184   26.0454 O   0  0  0  0  0  0  0  0  0  0  0  0
  2  1  1  6
  2  3  1  0
  3  4  1  0
  4  8  1  0
  4  5  2  0
  6  2  1  0
  7  6  2  0
 10  9  1  1
 10 11  1  0
 11  6  1  0
 12 10  1  0
 12 14  1  0
 13 12  2  0
 15 14  1  0
 15 16  1  1
 15 20  1  0
 16 17  1  0
 17 18  1  0
 18 22  1  0
 19 18  2  0
 20 21  2  0
 20 23  1  0
M  END
$$$$
