DAE.pdb
     RDKit          3D

 23 22  0  0  1  0  0  0  0  0999 V2000
    9.7933  -16.0466   18.1188 N   0  0  0  0  0  0  0  0  0  0  0  0
    9.0379  -16.7175   19.1276 C   0  0  1  0  0  0  0  0  0  0  0  0
    9.3154  -18.2022   19.0221 C   0  0  0  0  0  0  0  0  0  0  0  0
    8.9308  -18.6251   17.6511 C   0  0  0  0  0  0  0  0  0  0  0  0
    7.7555  -19.0110   17.4699 O   0  0  0  0  0  0  0  0  0  0  0  0
    9.3305  -16.2663   20.4973 C   0  0  0  0  0  0  0  0  0  0  0  0
   10.4634  -16.3943   21.0376 O   0  0  0  0  0  0  0  0  0  0  0  0
    9.8185  -18.6031   16.5960 O   0  0  0  0  0  0  0  0  0  0  0  0
    7.4915  -14.4017   23.2666 C   0  0  0  0  0  0  0  0  0  0  0  0
    8.6283  -15.1735   22.6367 C   0  0  2  0  0  0  0  0  0  0  0  0
    8.3307  -15.6404   21.3233 N   0  0  0  0  0  0  0  0  0  0  0  0
    9.0431  -16.3068   23.4968 C   0  0  0  0  0  0  0  0  0  0  0  0
    9.0407  -17.5071   23.0434 O   0  0  0  0  0  0  0  0  0  0  0  0
    9.4422  -16.0371   24.8299 N   0  0  0  0  0  0  0  0  0  0  0  0
   10.3897  -16.8731   25.5405 C   0  0  1  0  0  0  0  0  0  0  0  0
   11.7158  -16.7392   24.8662 C   0  0  0  0  0  0  0  0  0  0  0  0
   12.3281  -17.9878   24.3457 C   0  0  0  0  0  0  0  0  0  0  0  0
   13.6302  -17.8054   23.6609 C   0  0  0  0  0  0  0  0  0  0  0  0
   14.1211  -16.6538   23.5367 O   0  0  0  0  0  0  0  0  0  0  0  0
   10.3995  -16.6223   26.9822 C   0  0  0  0  0  0  0  0  0  0  0  0
   10.7541  -17.4137   27.8657 O   0  0  0  0  0  0  0  0  0  0  0  0
   14.3773  -18.8435   23.1259 O   0  0  0  0  0  0  0  0  0  0  0  0
    9.9661  -15.3633   27.4238 O   0  0  0  0  0  0  0  0  0  0  0  0
  2  1  1  6
  2  3  1  0
  3  4  1  0
  4  8  1  0
  4  5  2  0
  6  2  1  0
  7  6  2  0
 10  9  1  1
 10 11  1  0
 11  6  1  0
 12 10  1  0
 12 14  1  0
 13 12  2  0
 15 14  1  0
 15 16  1  6
 15 20  1  0
 16 17  1  0
 17 18  1  0
 18 22  1  0
 19 18  2  0
 20 21  2  0
 20 23  1  0
M  END
$$$$
