DAE.pdb
     RDKit          3D

 23 22  0  0  1  0  0  0  0  0999 V2000
    8.5345  -14.8210   20.7645 N   0  0  0  0  0  0  0  0  0  0  0  0
    7.7525  -15.1465   21.9138 C   0  0  1  0  0  0  0  0  0  0  0  0
    7.7151  -16.6537   22.0533 C   0  0  0  0  0  0  0  0  0  0  0  0
    7.1080  -17.1952   20.8105 C   0  0  0  0  0  0  0  0  0  0  0  0
    5.8609  -17.2626   20.7540 O   0  0  0  0  0  0  0  0  0  0  0  0
    8.2509  -14.5565   23.1665 C   0  0  0  0  0  0  0  0  0  0  0  0
    9.4277  -14.7274   23.5881 O   0  0  0  0  0  0  0  0  0  0  0  0
    7.8693  -17.6163   19.7404 O   0  0  0  0  0  0  0  0  0  0  0  0
    6.9553  -12.1812   25.8466 C   0  0  0  0  0  0  0  0  0  0  0  0
    7.8925  -13.1998   25.2389 C   0  0  2  0  0  0  0  0  0  0  0  0
    7.4183  -13.7343   24.0056 N   0  0  0  0  0  0  0  0  0  0  0  0
    8.1758  -14.2980   26.1928 C   0  0  0  0  0  0  0  0  0  0  0  0
    7.2946  -15.1990   26.4335 O   0  0  0  0  0  0  0  0  0  0  0  0
    9.4399  -14.3320   26.8333 N   0  0  0  0  0  0  0  0  0  0  0  0
    9.7637  -15.3025   27.8603 C   0  0  1  0  0  0  0  0  0  0  0  0
   10.9832  -16.0454   27.4218 C   0  0  0  0  0  0  0  0  0  0  0  0
   10.8489  -16.8900   26.2080 C   0  0  0  0  0  0  0  0  0  0  0  0
   12.1055  -17.5307   25.7519 C   0  0  0  0  0  0  0  0  0  0  0  0
   13.1985  -17.2351   26.3000 O   0  0  0  0  0  0  0  0  0  0  0  0
    9.8455  -14.7108   29.1962 C   0  0  0  0  0  0  0  0  0  0  0  0
    9.7824  -13.5060   29.4739 O   0  0  0  0  0  0  0  0  0  0  0  0
   12.1732  -18.4648   24.7297 O   0  0  0  0  0  0  0  0  0  0  0  0
   10.0124  -15.5831   30.2821 O   0  0  0  0  0  0  0  0  0  0  0  0
  2  1  1  6
  2  3  1  0
  3  4  1  0
  4  8  1  0
  4  5  2  0
  6  2  1  0
  7  6  2  0
 10  9  1  1
 10 11  1  0
 11  6  1  0
 12 10  1  0
 12 14  1  0
 13 12  2  0
 15 14  1  0
 15 16  1  6
 15 20  1  0
 16 17  1  0
 17 18  1  0
 18 22  1  0
 19 18  2  0
 20 21  2  0
 20 23  1  0
M  END
$$$$
