DAE.pdb
     RDKit          3D

 23 22  0  0  1  0  0  0  0  0999 V2000
   10.3070  -18.2283   17.7059 N   0  0  0  0  0  0  0  0  0  0  0  0
   11.6432  -17.9312   18.1115 C   0  0  1  0  0  0  0  0  0  0  0  0
   12.3516  -17.2531   16.9579 C   0  0  0  0  0  0  0  0  0  0  0  0
   12.1938  -18.1295   15.7689 C   0  0  0  0  0  0  0  0  0  0  0  0
   12.1839  -19.3657   15.9550 O   0  0  0  0  0  0  0  0  0  0  0  0
   11.7326  -17.0751   19.3051 C   0  0  0  0  0  0  0  0  0  0  0  0
   12.8196  -16.5937   19.7278 O   0  0  0  0  0  0  0  0  0  0  0  0
   12.0606  -17.6244   14.4926 O   0  0  0  0  0  0  0  0  0  0  0  0
    9.3493  -15.4616   21.7913 C   0  0  0  0  0  0  0  0  0  0  0  0
   10.6756  -15.9952   21.3003 C   0  0  2  0  0  0  0  0  0  0  0  0
   10.5708  -16.7251   20.0805 N   0  0  0  0  0  0  0  0  0  0  0  0
   11.3303  -16.8287   22.3361 C   0  0  0  0  0  0  0  0  0  0  0  0
   11.0763  -18.0834   22.4230 O   0  0  0  0  0  0  0  0  0  0  0  0
   12.2423  -16.2111   23.2283 N   0  0  0  0  0  0  0  0  0  0  0  0
   12.8711  -16.9320   24.3176 C   0  0  1  0  0  0  0  0  0  0  0  0
   14.2839  -16.4591   24.4260 C   0  0  0  0  0  0  0  0  0  0  0  0
   15.1125  -16.5470   23.1970 C   0  0  0  0  0  0  0  0  0  0  0  0
   16.4894  -16.0152   23.3339 C   0  0  0  0  0  0  0  0  0  0  0  0
   16.6720  -14.7968   23.5886 O   0  0  0  0  0  0  0  0  0  0  0  0
   12.1001  -16.8707   25.5599 C   0  0  0  0  0  0  0  0  0  0  0  0
   11.1158  -16.1535   25.7819 O   0  0  0  0  0  0  0  0  0  0  0  0
   17.6350  -16.7840   23.1976 O   0  0  0  0  0  0  0  0  0  0  0  0
   12.5044  -17.7021   26.6150 O   0  0  0  0  0  0  0  0  0  0  0  0
  2  1  1  6
  2  3  1  0
  3  4  1  0
  4  8  1  0
  4  5  2  0
  6  2  1  0
  7  6  2  0
 10  9  1  1
 10 11  1  0
 11  6  1  0
 12 10  1  0
 12 14  1  0
 13 12  2  0
 15 14  1  0
 15 16  1  1
 15 20  1  0
 16 17  1  0
 17 18  1  0
 18 22  1  0
 19 18  2  0
 20 21  2  0
 20 23  1  0
M  END
$$$$
