DAE.pdb
     RDKit          3D

 23 22  0  0  1  0  0  0  0  0999 V2000
    7.8701  -17.0467   17.2737 N   0  0  0  0  0  0  0  0  0  0  0  0
    7.6728  -17.3966   18.6437 C   0  0  1  0  0  0  0  0  0  0  0  0
    8.0921  -18.8393   18.8320 C   0  0  0  0  0  0  0  0  0  0  0  0
    7.3283  -19.6509   17.8500 C   0  0  0  0  0  0  0  0  0  0  0  0
    6.1396  -19.3313   17.6310 O   0  0  0  0  0  0  0  0  0  0  0  0
    8.4125  -16.5496   19.5929 C   0  0  0  0  0  0  0  0  0  0  0  0
    9.6654  -16.4054   19.5560 O   0  0  0  0  0  0  0  0  0  0  0  0
    7.8856  -20.7246   17.1880 O   0  0  0  0  0  0  0  0  0  0  0  0
    7.5920  -14.2617   22.5289 C   0  0  0  0  0  0  0  0  0  0  0  0
    8.4761  -15.0912   21.6259 C   0  0  2  0  0  0  0  0  0  0  0  0
    7.7475  -15.8193   20.6407 N   0  0  0  0  0  0  0  0  0  0  0  0
    9.3256  -16.0144   22.4148 C   0  0  0  0  0  0  0  0  0  0  0  0
    8.9099  -17.1906   22.7147 O   0  0  0  0  0  0  0  0  0  0  0  0
   10.6061  -15.5710   22.8307 N   0  0  0  0  0  0  0  0  0  0  0  0
   11.5131  -16.4152   23.5831 C   0  0  1  0  0  0  0  0  0  0  0  0
   12.9090  -16.0364   23.2098 C   0  0  0  0  0  0  0  0  0  0  0  0
   14.0044  -16.7508   23.9132 C   0  0  0  0  0  0  0  0  0  0  0  0
   15.3716  -16.3813   23.4756 C   0  0  0  0  0  0  0  0  0  0  0  0
   15.7041  -16.5120   22.2694 O   0  0  0  0  0  0  0  0  0  0  0  0
   11.2332  -16.4120   25.0195 C   0  0  0  0  0  0  0  0  0  0  0  0
   10.5573  -15.5787   25.6370 O   0  0  0  0  0  0  0  0  0  0  0  0
   16.3498  -15.8850   24.3234 O   0  0  0  0  0  0  0  0  0  0  0  0
   11.7788  -17.4511   25.7881 O   0  0  0  0  0  0  0  0  0  0  0  0
  2  1  1  6
  2  3  1  0
  3  4  1  0
  4  8  1  0
  4  5  2  0
  6  2  1  0
  7  6  2  0
 10  9  1  1
 10 11  1  0
 11  6  1  0
 12 10  1  0
 12 14  1  0
 13 12  2  0
 15 14  1  0
 15 16  1  1
 15 20  1  0
 16 17  1  0
 17 18  1  0
 18 22  1  0
 19 18  2  0
 20 21  2  0
 20 23  1  0
M  END
$$$$
