DAE.pdb
     RDKit          3D

 23 22  0  0  1  0  0  0  0  0999 V2000
   10.6109  -17.6387   17.3359 N   0  0  0  0  0  0  0  0  0  0  0  0
   10.9126  -18.3373   18.5439 C   0  0  1  0  0  0  0  0  0  0  0  0
   12.1069  -19.2328   18.2907 C   0  0  0  0  0  0  0  0  0  0  0  0
   11.6970  -20.2353   17.2740 C   0  0  0  0  0  0  0  0  0  0  0  0
   10.4855  -20.5373   17.2108 O   0  0  0  0  0  0  0  0  0  0  0  0
   11.1996  -17.4599   19.6899 C   0  0  0  0  0  0  0  0  0  0  0  0
   12.2814  -16.8229   19.8159 O   0  0  0  0  0  0  0  0  0  0  0  0
   12.5999  -20.8282   16.4167 O   0  0  0  0  0  0  0  0  0  0  0  0
    9.2908  -15.9667   22.6012 C   0  0  0  0  0  0  0  0  0  0  0  0
   10.5325  -16.4097   21.8615 C   0  0  2  0  0  0  0  0  0  0  0  0
   10.2531  -17.2672   20.7578 N   0  0  0  0  0  0  0  0  0  0  0  0
   11.4950  -17.0619   22.7804 C   0  0  0  0  0  0  0  0  0  0  0  0
   11.4353  -18.3243   23.0020 O   0  0  0  0  0  0  0  0  0  0  0  0
   12.4824  -16.2623   23.4089 N   0  0  0  0  0  0  0  0  0  0  0  0
   13.4314  -16.8063   24.3603 C   0  0  1  0  0  0  0  0  0  0  0  0
   14.6671  -15.9687   24.3061 C   0  0  0  0  0  0  0  0  0  0  0  0
   15.9293  -16.6650   23.9498 C   0  0  0  0  0  0  0  0  0  0  0  0
   17.1221  -15.7890   23.8649 C   0  0  0  0  0  0  0  0  0  0  0  0
   18.1254  -16.0185   24.5882 O   0  0  0  0  0  0  0  0  0  0  0  0
   12.8601  -16.9820   25.6960 C   0  0  0  0  0  0  0  0  0  0  0  0
   11.8087  -16.4842   26.1194 O   0  0  0  0  0  0  0  0  0  0  0  0
   17.2223  -14.6949   23.0193 O   0  0  0  0  0  0  0  0  0  0  0  0
   13.5626  -17.7933   26.5996 O   0  0  0  0  0  0  0  0  0  0  0  0
  2  1  1  6
  2  3  1  0
  3  4  1  0
  4  8  1  0
  4  5  2  0
  6  2  1  0
  7  6  2  0
 10  9  1  1
 10 11  1  0
 11  6  1  0
 12 10  1  0
 12 14  1  0
 13 12  2  0
 15 14  1  0
 15 16  1  1
 15 20  1  0
 16 17  1  0
 17 18  1  0
 18 22  1  0
 19 18  2  0
 20 21  2  0
 20 23  1  0
M  END
$$$$
