DAE.pdb
     RDKit          3D

 23 22  0  0  1  0  0  0  0  0999 V2000
    8.9545  -18.9764   18.8361 N   0  0  0  0  0  0  0  0  0  0  0  0
   10.3005  -18.5194   18.7027 C   0  0  1  0  0  0  0  0  0  0  0  0
   10.4603  -17.9028   17.3291 C   0  0  0  0  0  0  0  0  0  0  0  0
   10.3641  -19.0054   16.3384 C   0  0  0  0  0  0  0  0  0  0  0  0
    9.4452  -18.9485   15.4926 O   0  0  0  0  0  0  0  0  0  0  0  0
   10.7066  -17.5401   19.7233 C   0  0  0  0  0  0  0  0  0  0  0  0
   11.8450  -16.9964   19.7420 O   0  0  0  0  0  0  0  0  0  0  0  0
   11.2441  -20.0671   16.3284 O   0  0  0  0  0  0  0  0  0  0  0  0
    9.1083  -15.6852   22.6306 C   0  0  0  0  0  0  0  0  0  0  0  0
   10.2509  -16.2610   21.8258 C   0  0  2  0  0  0  0  0  0  0  0  0
    9.8207  -17.1315   20.7824 N   0  0  0  0  0  0  0  0  0  0  0  0
   11.2205  -16.9594   22.7024 C   0  0  0  0  0  0  0  0  0  0  0  0
   11.0488  -18.1915   23.0165 O   0  0  0  0  0  0  0  0  0  0  0  0
   12.3407  -16.2380   23.1862 N   0  0  0  0  0  0  0  0  0  0  0  0
   13.3771  -16.8596   23.9869 C   0  0  1  0  0  0  0  0  0  0  0  0
   14.6823  -16.2376   23.6115 C   0  0  0  0  0  0  0  0  0  0  0  0
   15.8948  -16.7802   24.2751 C   0  0  0  0  0  0  0  0  0  0  0  0
   17.1692  -16.1476   23.8592 C   0  0  0  0  0  0  0  0  0  0  0  0
   17.8808  -15.5479   24.7058 O   0  0  0  0  0  0  0  0  0  0  0  0
   13.0738  -16.8472   25.4185 C   0  0  0  0  0  0  0  0  0  0  0  0
   12.2754  -16.0981   25.9964 O   0  0  0  0  0  0  0  0  0  0  0  0
   17.6565  -16.1650   22.5615 O   0  0  0  0  0  0  0  0  0  0  0  0
   13.7473  -17.7710   26.2315 O   0  0  0  0  0  0  0  0  0  0  0  0
  2  1  1  1
  2  3  1  0
  3  4  1  0
  4  8  1  0
  4  5  2  0
  6  2  1  0
  7  6  2  0
 10  9  1  1
 10 11  1  0
 11  6  1  0
 12 10  1  0
 12 14  1  0
 13 12  2  0
 15 14  1  0
 15 16  1  1
 15 20  1  0
 16 17  1  0
 17 18  1  0
 18 22  1  0
 19 18  2  0
 20 21  2  0
 20 23  1  0
M  END
$$$$
