DAE.pdb
     RDKit          3D

 23 22  0  0  1  0  0  0  0  0999 V2000
    9.4057  -16.1617   20.1216 N   0  0  0  0  0  0  0  0  0  0  0  0
    9.0277  -16.8251   21.3280 C   0  0  1  0  0  0  0  0  0  0  0  0
    9.6235  -18.2170   21.3131 C   0  0  0  0  0  0  0  0  0  0  0  0
    9.0260  -18.9387   20.1605 C   0  0  0  0  0  0  0  0  0  0  0  0
    7.8274  -19.2832   20.2482 O   0  0  0  0  0  0  0  0  0  0  0  0
    9.4511  -16.1302   22.5541 C   0  0  0  0  0  0  0  0  0  0  0  0
   10.6105  -15.6586   22.7132 O   0  0  0  0  0  0  0  0  0  0  0  0
    9.7448  -19.2317   19.0206 O   0  0  0  0  0  0  0  0  0  0  0  0
    7.8600  -14.5586   25.5710 C   0  0  0  0  0  0  0  0  0  0  0  0
    8.9807  -15.2844   24.8622 C   0  0  2  0  0  0  0  0  0  0  0  0
    8.5594  -15.9395   23.6685 N   0  0  0  0  0  0  0  0  0  0  0  0
    9.6429  -16.2537   25.7668 C   0  0  0  0  0  0  0  0  0  0  0  0
    9.1532  -17.4270   25.9398 O   0  0  0  0  0  0  0  0  0  0  0  0
   10.8278  -15.8576   26.4364 N   0  0  0  0  0  0  0  0  0  0  0  0
   11.5363  -16.7369   27.3455 C   0  0  1  0  0  0  0  0  0  0  0  0
   13.0003  -16.5608   27.1068 C   0  0  0  0  0  0  0  0  0  0  0  0
   13.4933  -16.8588   25.7382 C   0  0  0  0  0  0  0  0  0  0  0  0
   14.9480  -16.6534   25.5409 C   0  0  0  0  0  0  0  0  0  0  0  0
   15.6577  -16.2231   26.4864 O   0  0  0  0  0  0  0  0  0  0  0  0
   11.1117  -16.5778   28.7369 C   0  0  0  0  0  0  0  0  0  0  0  0
   10.3268  -15.7268   29.1754 O   0  0  0  0  0  0  0  0  0  0  0  0
   15.6129  -16.9073   24.3512 O   0  0  0  0  0  0  0  0  0  0  0  0
   11.6386  -17.4715   29.6813 O   0  0  0  0  0  0  0  0  0  0  0  0
  2  1  1  6
  2  3  1  0
  3  4  1  0
  4  8  1  0
  4  5  2  0
  6  2  1  0
  7  6  2  0
 10  9  1  1
 10 11  1  0
 11  6  1  0
 12 10  1  0
 12 14  1  0
 13 12  2  0
 15 14  1  0
 15 16  1  1
 15 20  1  0
 16 17  1  0
 17 18  1  0
 18 22  1  0
 19 18  2  0
 20 21  2  0
 20 23  1  0
M  END
$$$$
