DAE.pdb
     RDKit          3D

 23 22  0  0  1  0  0  0  0  0999 V2000
   11.3436  -17.6437   18.1427 N   0  0  0  0  0  0  0  0  0  0  0  0
   11.5300  -18.2436   19.4247 C   0  0  1  0  0  0  0  0  0  0  0  0
   12.4055  -19.4672   19.2554 C   0  0  0  0  0  0  0  0  0  0  0  0
   11.6894  -20.3977   18.3454 C   0  0  0  0  0  0  0  0  0  0  0  0
   10.5439  -20.7710   18.6795 O   0  0  0  0  0  0  0  0  0  0  0  0
   12.1356  -17.3494   20.4243 C   0  0  0  0  0  0  0  0  0  0  0  0
   13.1828  -16.6804   20.2056 O   0  0  0  0  0  0  0  0  0  0  0  0
   12.2445  -20.8500   17.1668 O   0  0  0  0  0  0  0  0  0  0  0  0
   11.2365  -15.9798   23.8513 C   0  0  0  0  0  0  0  0  0  0  0  0
   12.1607  -16.3135   22.7025 C   0  0  2  0  0  0  0  0  0  0  0  0
   11.5666  -17.1759   21.7356 N   0  0  0  0  0  0  0  0  0  0  0  0
   13.4302  -16.8994   23.1938 C   0  0  0  0  0  0  0  0  0  0  0  0
   13.5052  -18.1466   23.4856 O   0  0  0  0  0  0  0  0  0  0  0  0
   14.5590  -16.0536   23.3343 N   0  0  0  0  0  0  0  0  0  0  0  0
   15.8471  -16.5464   23.7810 C   0  0  1  0  0  0  0  0  0  0  0  0
   16.8973  -15.6159   23.2686 C   0  0  0  0  0  0  0  0  0  0  0  0
   18.3066  -15.9649   23.5799 C   0  0  0  0  0  0  0  0  0  0  0  0
   19.3145  -15.0071   23.0658 C   0  0  0  0  0  0  0  0  0  0  0  0
   18.9614  -14.0669   22.3082 O   0  0  0  0  0  0  0  0  0  0  0  0
   15.8912  -16.7974   25.2220 C   0  0  0  0  0  0  0  0  0  0  0  0
   15.2878  -16.1656   26.0991 O   0  0  0  0  0  0  0  0  0  0  0  0
   20.6667  -15.0687   23.3653 O   0  0  0  0  0  0  0  0  0  0  0  0
   16.6936  -17.8569   25.6708 O   0  0  0  0  0  0  0  0  0  0  0  0
  2  1  1  6
  2  3  1  0
  3  4  1  0
  4  8  1  0
  4  5  2  0
  6  2  1  0
  7  6  2  0
 10  9  1  1
 10 11  1  0
 11  6  1  0
 12 10  1  0
 12 14  1  0
 13 12  2  0
 15 14  1  0
 15 16  1  1
 15 20  1  0
 16 17  1  0
 17 18  1  0
 18 22  1  0
 19 18  2  0
 20 21  2  0
 20 23  1  0
M  END
$$$$
