DAE.pdb
     RDKit          3D

 23 22  0  0  1  0  0  0  0  0999 V2000
    8.1881  -14.3420   19.0075 N   0  0  0  0  0  0  0  0  0  0  0  0
    8.1129  -15.3457   20.0201 C   0  0  1  0  0  0  0  0  0  0  0  0
    9.0370  -16.4814   19.6346 C   0  0  0  0  0  0  0  0  0  0  0  0
    8.3359  -17.2879   18.6029 C   0  0  0  0  0  0  0  0  0  0  0  0
    7.8011  -16.6773   17.6520 O   0  0  0  0  0  0  0  0  0  0  0  0
    8.4672  -14.8688   21.3664 C   0  0  0  0  0  0  0  0  0  0  0  0
    9.5828  -14.3475   21.6412 O   0  0  0  0  0  0  0  0  0  0  0  0
    8.2619  -18.6635   18.6663 O   0  0  0  0  0  0  0  0  0  0  0  0
    6.6152  -14.1002   24.5687 C   0  0  0  0  0  0  0  0  0  0  0  0
    7.8484  -14.3888   23.7435 C   0  0  2  0  0  0  0  0  0  0  0  0
    7.5528  -14.9665   22.4745 N   0  0  0  0  0  0  0  0  0  0  0  0
    8.7957  -15.2529   24.4866 C   0  0  0  0  0  0  0  0  0  0  0  0
    8.9144  -16.4965   24.1938 O   0  0  0  0  0  0  0  0  0  0  0  0
    9.5674  -14.6771   25.5269 N   0  0  0  0  0  0  0  0  0  0  0  0
   10.4005  -15.4728   26.4068 C   0  0  1  0  0  0  0  0  0  0  0  0
   10.7933  -14.6163   27.5658 C   0  0  0  0  0  0  0  0  0  0  0  0
    9.9576  -14.7247   28.7884 C   0  0  0  0  0  0  0  0  0  0  0  0
   10.5180  -15.5921   29.8519 C   0  0  0  0  0  0  0  0  0  0  0  0
   11.6546  -16.1116   29.7078 O   0  0  0  0  0  0  0  0  0  0  0  0
    9.7903  -16.7545   26.7622 C   0  0  0  0  0  0  0  0  0  0  0  0
    8.5886  -16.9660   26.9713 O   0  0  0  0  0  0  0  0  0  0  0  0
    9.8627  -15.8874   31.0375 O   0  0  0  0  0  0  0  0  0  0  0  0
   10.6390  -17.8651   26.8821 O   0  0  0  0  0  0  0  0  0  0  0  0
  2  1  1  6
  2  3  1  0
  3  4  1  0
  4  8  1  0
  4  5  2  0
  6  2  1  0
  7  6  2  0
 10  9  1  1
 10 11  1  0
 11  6  1  0
 12 10  1  0
 12 14  1  0
 13 12  2  0
 15 14  1  0
 15 16  1  1
 15 20  1  0
 16 17  1  0
 17 18  1  0
 18 22  1  0
 19 18  2  0
 20 21  2  0
 20 23  1  0
M  END
$$$$
