DAE.pdb
     RDKit          3D

 23 22  0  0  1  0  0  0  0  0999 V2000
    9.0384  -15.7526   15.4565 N   0  0  0  0  0  0  0  0  0  0  0  0
    8.1704  -15.9446   16.5738 C   0  0  1  0  0  0  0  0  0  0  0  0
    7.9708  -17.4324   16.7718 C   0  0  0  0  0  0  0  0  0  0  0  0
    7.7050  -18.0221   15.4346 C   0  0  0  0  0  0  0  0  0  0  0  0
    7.1709  -17.2910   14.5725 O   0  0  0  0  0  0  0  0  0  0  0  0
    8.6636  -15.3512   17.8268 C   0  0  0  0  0  0  0  0  0  0  0  0
    9.8290  -15.5460   18.2695 O   0  0  0  0  0  0  0  0  0  0  0  0
    8.0259  -19.3276   15.1270 O   0  0  0  0  0  0  0  0  0  0  0  0
    7.3319  -13.0183   20.5315 C   0  0  0  0  0  0  0  0  0  0  0  0
    8.2777  -14.0215   19.9118 C   0  0  2  0  0  0  0  0  0  0  0  0
    7.8388  -14.4977   18.6421 N   0  0  0  0  0  0  0  0  0  0  0  0
    8.5178  -15.1623   20.8268 C   0  0  0  0  0  0  0  0  0  0  0  0
    7.7223  -16.1690   20.8398 O   0  0  0  0  0  0  0  0  0  0  0  0
    9.6438  -15.1179   21.6867 N   0  0  0  0  0  0  0  0  0  0  0  0
    9.9778  -16.2058   22.5847 C   0  0  1  0  0  0  0  0  0  0  0  0
   11.4303  -16.5111   22.4156 C   0  0  0  0  0  0  0  0  0  0  0  0
   12.3778  -15.3904   22.6415 C   0  0  0  0  0  0  0  0  0  0  0  0
   13.8060  -15.7302   22.4361 C   0  0  0  0  0  0  0  0  0  0  0  0
   14.4893  -16.1839   23.3899 O   0  0  0  0  0  0  0  0  0  0  0  0
    9.5535  -15.9563   23.9628 C   0  0  0  0  0  0  0  0  0  0  0  0
    9.1170  -14.8911   24.4182 O   0  0  0  0  0  0  0  0  0  0  0  0
   14.4731  -15.5812   21.2299 O   0  0  0  0  0  0  0  0  0  0  0  0
    9.6444  -17.0211   24.8716 O   0  0  0  0  0  0  0  0  0  0  0  0
  2  1  1  6
  2  3  1  0
  3  4  1  0
  4  8  1  0
  4  5  2  0
  6  2  1  0
  7  6  2  0
 10  9  1  1
 10 11  1  0
 11  6  1  0
 12 10  1  0
 12 14  1  0
 13 12  2  0
 15 14  1  0
 15 16  1  1
 15 20  1  0
 16 17  1  0
 17 18  1  0
 18 22  1  0
 19 18  2  0
 20 21  2  0
 20 23  1  0
M  END
$$$$
