DAE.pdb
     RDKit          3D

 23 22  0  0  1  0  0  0  0  0999 V2000
    7.7554  -17.1769   17.6266 N   0  0  0  0  0  0  0  0  0  0  0  0
    8.7482  -16.2088   17.2870 C   0  0  1  0  0  0  0  0  0  0  0  0
    8.4395  -15.6747   15.9042 C   0  0  0  0  0  0  0  0  0  0  0  0
    8.3853  -16.8402   14.9848 C   0  0  0  0  0  0  0  0  0  0  0  0
    9.4403  -17.4853   14.8010 O   0  0  0  0  0  0  0  0  0  0  0  0
    8.8386  -15.0839   18.2315 C   0  0  0  0  0  0  0  0  0  0  0  0
    9.6965  -14.1646   18.1280 O   0  0  0  0  0  0  0  0  0  0  0  0
    7.2254  -17.2202   14.3430 O   0  0  0  0  0  0  0  0  0  0  0  0
    6.7207  -13.5137   20.9147 C   0  0  0  0  0  0  0  0  0  0  0  0
    8.0404  -13.8692   20.2690 C   0  0  2  0  0  0  0  0  0  0  0  0
    7.9425  -14.9554   19.3512 N   0  0  0  0  0  0  0  0  0  0  0  0
    9.0722  -14.1604   21.2922 C   0  0  0  0  0  0  0  0  0  0  0  0
    9.3317  -13.3123   22.2194 O   0  0  0  0  0  0  0  0  0  0  0  0
    9.7659  -15.3948   21.2251 N   0  0  0  0  0  0  0  0  0  0  0  0
   10.7680  -15.7759   22.2008 C   0  0  1  0  0  0  0  0  0  0  0  0
   10.3458  -17.0729   22.8098 C   0  0  0  0  0  0  0  0  0  0  0  0
   11.3196  -17.7318   23.7168 C   0  0  0  0  0  0  0  0  0  0  0  0
   10.8334  -17.9519   25.0998 C   0  0  0  0  0  0  0  0  0  0  0  0
    9.5983  -17.9724   25.3378 O   0  0  0  0  0  0  0  0  0  0  0  0
   12.1263  -15.7598   21.6567 C   0  0  0  0  0  0  0  0  0  0  0  0
   13.1691  -15.5322   22.2839 O   0  0  0  0  0  0  0  0  0  0  0  0
   11.6644  -18.1435   26.1928 O   0  0  0  0  0  0  0  0  0  0  0  0
   12.2792  -16.0272   20.2880 O   0  0  0  0  0  0  0  0  0  0  0  0
  2  1  1  1
  2  3  1  0
  3  4  1  0
  4  8  1  0
  4  5  2  0
  6  2  1  0
  7  6  2  0
 10  9  1  1
 10 11  1  0
 11  6  1  0
 12 10  1  0
 12 14  1  0
 13 12  2  0
 15 14  1  0
 15 16  1  6
 15 20  1  0
 16 17  1  0
 17 18  1  0
 18 22  1  0
 19 18  2  0
 20 21  2  0
 20 23  1  0
M  END
$$$$
