FIL.pdb
     RDKit          3D

 28 28  0  0  1  0  0  0  0  0999 V2000
   23.6864  -19.7627  -16.8621 N   0  0  0  0  0  0  0  0  0  0  0  0
   22.9259  -19.3382  -15.7191 C   0  0  1  0  0  0  0  0  0  0  0  0
   21.5639  -18.7902  -16.0852 C   0  0  0  0  0  0  0  0  0  0  0  0
   21.6681  -17.6484  -17.0109 C   0  0  0  0  0  0  0  0  0  0  0  0
   21.2905  -17.7670  -18.3532 C   0  0  0  0  0  0  0  0  0  0  0  0
   21.4008  -16.6758  -19.1959 C   0  0  0  0  0  0  0  0  0  0  0  0
   21.8780  -15.4612  -18.7437 C   0  0  0  0  0  0  0  0  0  0  0  0
   22.2435  -15.3753  -17.4105 C   0  0  0  0  0  0  0  0  0  0  0  0
   22.1464  -16.4391  -16.5480 C   0  0  0  0  0  0  0  0  0  0  0  0
   22.8030  -20.3868  -14.6963 C   0  0  0  0  0  0  0  0  0  0  0  0
   22.9860  -21.6145  -15.0008 O   0  0  0  0  0  0  0  0  0  0  0  0
   24.0581  -21.2591   -8.8540 C   0  0  0  0  0  0  0  0  0  0  0  0
   23.2092  -21.6834  -10.0297 C   0  0  0  0  0  0  0  0  0  0  0  0
   23.2571  -20.6446  -11.1449 C   0  0  2  0  0  0  0  0  0  0  0  0
   22.6165  -19.4066  -10.5653 C   0  0  0  0  0  0  0  0  0  0  0  0
   22.4878  -21.1334  -12.3560 C   0  0  2  0  0  0  0  0  0  0  0  0
   22.4804  -20.0387  -13.3659 N   0  0  0  0  0  0  0  0  0  0  0  0
   21.0584  -21.2774  -11.9866 C   0  0  0  0  0  0  0  0  0  0  0  0
   20.3317  -20.2465  -11.7156 O   0  0  0  0  0  0  0  0  0  0  0  0
   17.6561  -21.8683  -14.3067 C   0  0  0  0  0  0  0  0  0  0  0  0
   18.2896  -23.2031  -13.9069 C   0  0  2  0  0  0  0  0  0  0  0  0
   17.9185  -24.3144  -14.8296 C   0  0  0  0  0  0  0  0  0  0  0  0
   18.1725  -23.4901  -12.4552 C   0  0  0  0  0  0  0  0  0  0  0  0
   18.9563  -22.6252  -11.5286 C   0  0  2  0  0  0  0  0  0  0  0  0
   20.3519  -22.5019  -11.8942 N   0  0  0  0  0  0  0  0  0  0  0  0
   18.8001  -22.9425  -10.1024 C   0  0  0  0  0  0  0  0  0  0  0  0
   19.8092  -23.4849   -9.3243 O   0  0  0  0  0  0  0  0  0  0  0  0
   17.7054  -22.7227   -9.5264 O   0  0  0  0  0  0  0  0  0  0  0  0
  2  1  1  6
  2  3  1  0
  2 10  1  0
  3  4  1  0
  4  9  2  0
  5  4  1  0
  5  6  2  0
  6  7  1  0
  7  8  2  0
  9  8  1  0
 10 17  1  0
 10 11  2  0
 13 12  1  0
 14 13  1  0
 14 15  1  1
 16 14  1  0
 16 17  1  6
 18 16  1  0
 18 19  2  0
 21 20  1  6
 21 23  1  0
 22 21  1  0
 24 23  1  6
 24 25  1  0
 25 18  1  0
 26 27  1  0
 26 24  1  0
 28 26  2  0
M  END
$$$$
