FIL.pdb
     RDKit          3D

 28 28  0  0  1  0  0  0  0  0999 V2000
   28.6341  -20.1443  -14.6902 N   0  0  0  0  0  0  0  0  0  0  0  0
   27.5646  -19.4992  -13.9797 C   0  0  1  0  0  0  0  0  0  0  0  0
   26.6562  -18.6933  -14.8823 C   0  0  0  0  0  0  0  0  0  0  0  0
   27.3616  -17.5449  -15.4783 C   0  0  0  0  0  0  0  0  0  0  0  0
   27.4635  -16.3254  -14.7994 C   0  0  0  0  0  0  0  0  0  0  0  0
   28.1325  -15.2669  -15.3870 C   0  0  0  0  0  0  0  0  0  0  0  0
   28.7077  -15.3827  -16.6372 C   0  0  0  0  0  0  0  0  0  0  0  0
   28.5899  -16.6018  -17.2837 C   0  0  0  0  0  0  0  0  0  0  0  0
   27.9328  -17.6718  -16.7285 C   0  0  0  0  0  0  0  0  0  0  0  0
   26.7809  -20.4344  -13.1599 C   0  0  0  0  0  0  0  0  0  0  0  0
   26.5955  -21.6381  -13.5473 O   0  0  0  0  0  0  0  0  0  0  0  0
   26.5682  -20.1935   -7.6647 C   0  0  0  0  0  0  0  0  0  0  0  0
   26.5921  -20.7388   -9.0736 C   0  0  0  0  0  0  0  0  0  0  0  0
   25.2529  -20.5209   -9.7695 C   0  0  2  0  0  0  0  0  0  0  0  0
   24.2642  -21.3700   -9.0077 C   0  0  0  0  0  0  0  0  0  0  0  0
   25.3335  -20.9560  -11.2191 C   0  0  2  0  0  0  0  0  0  0  0  0
   26.2271  -20.0029  -11.9342 N   0  0  0  0  0  0  0  0  0  0  0  0
   24.0113  -20.7396  -11.8560 C   0  0  0  0  0  0  0  0  0  0  0  0
   23.5263  -19.5531  -12.0012 O   0  0  0  0  0  0  0  0  0  0  0  0
   22.5588  -20.7352  -15.8937 C   0  0  0  0  0  0  0  0  0  0  0  0
   22.5857  -22.1466  -15.3021 C   0  0  2  0  0  0  0  0  0  0  0  0
   22.5876  -23.2086  -16.3492 C   0  0  0  0  0  0  0  0  0  0  0  0
   21.6227  -22.3276  -14.1871 C   0  0  0  0  0  0  0  0  0  0  0  0
   21.8617  -21.5317  -12.9500 C   0  0  2  0  0  0  0  0  0  0  0  0
   23.1644  -21.7575  -12.3596 N   0  0  0  0  0  0  0  0  0  0  0  0
   20.7939  -21.6132  -11.9438 C   0  0  0  0  0  0  0  0  0  0  0  0
   20.9852  -22.1052  -10.6634 O   0  0  0  0  0  0  0  0  0  0  0  0
   19.6332  -21.2246  -12.2268 O   0  0  0  0  0  0  0  0  0  0  0  0
  2  1  1  6
  2  3  1  0
  2 10  1  0
  3  4  1  0
  4  9  2  0
  5  4  1  0
  5  6  2  0
  6  7  1  0
  7  8  2  0
  9  8  1  0
 10 17  1  0
 10 11  2  0
 13 12  1  0
 14 13  1  0
 14 15  1  1
 16 14  1  0
 16 17  1  6
 18 16  1  0
 18 19  2  0
 21 20  1  6
 21 23  1  0
 22 21  1  0
 24 23  1  6
 24 25  1  0
 25 18  1  0
 26 27  1  0
 26 24  1  0
 28 26  2  0
M  END
$$$$
