FIL.pdb
     RDKit          3D

 28 28  0  0  1  0  0  0  0  0999 V2000
   15.4226  -14.8888    4.6908 N   0  0  0  0  0  0  0  0  0  0  0  0
   16.4507  -15.8536    4.9679 C   0  0  1  0  0  0  0  0  0  0  0  0
   17.8251  -15.3953    4.5317 C   0  0  0  0  0  0  0  0  0  0  0  0
   18.0847  -15.7236    3.1187 C   0  0  0  0  0  0  0  0  0  0  0  0
   18.5661  -14.7583    2.2272 C   0  0  0  0  0  0  0  0  0  0  0  0
   18.7993  -15.0991    0.9071 C   0  0  0  0  0  0  0  0  0  0  0  0
   18.5675  -16.3785    0.4414 C   0  0  0  0  0  0  0  0  0  0  0  0
   18.0913  -17.3113    1.3476 C   0  0  0  0  0  0  0  0  0  0  0  0
   17.8495  -17.0055    2.6640 C   0  0  0  0  0  0  0  0  0  0  0  0
   16.4697  -16.2762    6.3758 C   0  0  0  0  0  0  0  0  0  0  0  0
   16.1906  -15.4455    7.3060 O   0  0  0  0  0  0  0  0  0  0  0  0
   13.6017  -19.8284    8.5225 C   0  0  0  0  0  0  0  0  0  0  0  0
   14.5424  -18.6505    8.4183 C   0  0  0  0  0  0  0  0  0  0  0  0
   15.9974  -19.1058    8.4451 C   0  0  2  0  0  0  0  0  0  0  0  0
   16.2244  -19.6355    9.8404 C   0  0  0  0  0  0  0  0  0  0  0  0
   16.9214  -17.9402    8.1536 C   0  0  2  0  0  0  0  0  0  0  0  0
   16.7985  -17.6095    6.7066 N   0  0  0  0  0  0  0  0  0  0  0  0
   18.3254  -18.3996    8.2887 C   0  0  0  0  0  0  0  0  0  0  0  0
   18.8376  -19.2365    7.4511 O   0  0  0  0  0  0  0  0  0  0  0  0
   23.0106  -17.1930    8.0107 C   0  0  0  0  0  0  0  0  0  0  0  0
   22.0736  -16.5735    9.0505 C   0  0  2  0  0  0  0  0  0  0  0  0
   22.6154  -15.3119    9.6328 C   0  0  0  0  0  0  0  0  0  0  0  0
   21.5418  -17.5660   10.0177 C   0  0  0  0  0  0  0  0  0  0  0  0
   20.5510  -18.5518    9.5005 C   0  0  2  0  0  0  0  0  0  0  0  0
   19.2300  -17.9936    9.3005 N   0  0  0  0  0  0  0  0  0  0  0  0
   20.4925  -19.8195   10.2413 C   0  0  0  0  0  0  0  0  0  0  0  0
   21.2881  -20.9146    9.9479 O   0  0  0  0  0  0  0  0  0  0  0  0
   19.6886  -19.9515   11.1978 O   0  0  0  0  0  0  0  0  0  0  0  0
  2  1  1  1
  2  3  1  0
  2 10  1  0
  3  4  1  0
  4  9  2  0
  5  4  1  0
  5  6  2  0
  6  7  1  0
  7  8  2  0
  9  8  1  0
 10 17  1  0
 10 11  2  0
 13 12  1  0
 14 13  1  0
 14 15  1  1
 16 14  1  0
 16 17  1  6
 18 16  1  0
 18 19  2  0
 21 20  1  1
 21 23  1  0
 22 21  1  0
 24 23  1  1
 24 25  1  0
 25 18  1  0
 26 27  1  0
 26 24  1  0
 28 26  2  0
M  END
$$$$
