FIL.pdb
     RDKit          3D

 28 28  0  0  1  0  0  0  0  0999 V2000
   24.1406  -21.4908  -14.6435 N   0  0  0  0  0  0  0  0  0  0  0  0
   23.8432  -21.3572  -13.2440 C   0  0  1  0  0  0  0  0  0  0  0  0
   22.5234  -21.9877  -12.8568 C   0  0  0  0  0  0  0  0  0  0  0  0
   21.3892  -21.3334  -13.5330 C   0  0  0  0  0  0  0  0  0  0  0  0
   20.8084  -21.8911  -14.6776 C   0  0  0  0  0  0  0  0  0  0  0  0
   19.7449  -21.2515  -15.2883 C   0  0  0  0  0  0  0  0  0  0  0  0
   19.2364  -20.0665  -14.7940 C   0  0  0  0  0  0  0  0  0  0  0  0
   19.8323  -19.5397  -13.6602 C   0  0  0  0  0  0  0  0  0  0  0  0
   20.8890  -20.1493  -13.0302 C   0  0  0  0  0  0  0  0  0  0  0  0
   24.9257  -21.8543  -12.3825 C   0  0  0  0  0  0  0  0  0  0  0  0
   25.5925  -22.8932  -12.7131 O   0  0  0  0  0  0  0  0  0  0  0  0
   29.8088  -21.5460  -12.0516 C   0  0  0  0  0  0  0  0  0  0  0  0
   28.9901  -20.6643  -11.1377 C   0  0  0  0  0  0  0  0  0  0  0  0
   27.5449  -20.5706  -11.6150 C   0  0  2  0  0  0  0  0  0  0  0  0
   27.2245  -19.0955  -11.6314 C   0  0  0  0  0  0  0  0  0  0  0  0
   26.6254  -21.3118  -10.6649 C   0  0  2  0  0  0  0  0  0  0  0  0
   25.2338  -21.1811  -11.1795 N   0  0  0  0  0  0  0  0  0  0  0  0
   26.5893  -20.5848   -9.3723 C   0  0  0  0  0  0  0  0  0  0  0  0
   25.6174  -19.7880   -9.0813 O   0  0  0  0  0  0  0  0  0  0  0  0
   27.4657  -21.0655   -4.2674 C   0  0  0  0  0  0  0  0  0  0  0  0
   28.6347  -21.2471   -5.2387 C   0  0  2  0  0  0  0  0  0  0  0  0
   29.9042  -21.6139   -4.5475 C   0  0  0  0  0  0  0  0  0  0  0  0
   28.7273  -20.1606   -6.2458 C   0  0  0  0  0  0  0  0  0  0  0  0
   27.5330  -19.9325   -7.1076 C   0  0  2  0  0  0  0  0  0  0  0  0
   27.5663  -20.6749   -8.3503 N   0  0  0  0  0  0  0  0  0  0  0  0
   27.1912  -18.5213   -7.3333 C   0  0  0  0  0  0  0  0  0  0  0  0
   26.4530  -17.7608   -6.4417 O   0  0  0  0  0  0  0  0  0  0  0  0
   27.5729  -17.9425   -8.3810 O   0  0  0  0  0  0  0  0  0  0  0  0
  2  1  1  6
  2  3  1  0
  2 10  1  0
  3  4  1  0
  4  9  2  0
  5  4  1  0
  5  6  2  0
  6  7  1  0
  7  8  2  0
  9  8  1  0
 10 17  1  0
 10 11  2  0
 13 12  1  0
 14 13  1  0
 14 15  1  1
 16 14  1  0
 16 17  1  6
 18 16  1  0
 18 19  2  0
 21 20  1  1
 21 23  1  0
 22 21  1  0
 24 23  1  6
 24 25  1  0
 25 18  1  0
 26 27  1  0
 26 24  1  0
 28 26  2  0
M  END
$$$$
