FIL.pdb
     RDKit          3D

 28 28  0  0  1  0  0  0  0  0999 V2000
   24.7729  -20.4935  -17.5716 N   0  0  0  0  0  0  0  0  0  0  0  0
   24.9771  -19.6437  -16.4311 C   0  0  1  0  0  0  0  0  0  0  0  0
   23.7823  -18.7674  -16.1249 C   0  0  0  0  0  0  0  0  0  0  0  0
   23.4960  -17.8334  -17.2282 C   0  0  0  0  0  0  0  0  0  0  0  0
   22.3697  -17.9972  -18.0424 C   0  0  0  0  0  0  0  0  0  0  0  0
   22.1299  -17.1027  -19.0698 C   0  0  0  0  0  0  0  0  0  0  0  0
   22.9802  -16.0426  -19.3156 C   0  0  0  0  0  0  0  0  0  0  0  0
   24.0861  -15.9072  -18.4928 C   0  0  0  0  0  0  0  0  0  0  0  0
   24.3528  -16.7773  -17.4648 C   0  0  0  0  0  0  0  0  0  0  0  0
   25.3918  -20.3887  -15.2336 C   0  0  0  0  0  0  0  0  0  0  0  0
   24.9276  -21.5570  -15.0035 O   0  0  0  0  0  0  0  0  0  0  0  0
   30.0291  -21.2792  -11.4390 C   0  0  0  0  0  0  0  0  0  0  0  0
   28.5408  -21.3660  -11.6851 C   0  0  0  0  0  0  0  0  0  0  0  0
   28.1405  -20.5640  -12.9186 C   0  0  2  0  0  0  0  0  0  0  0  0
   28.6237  -19.1583  -12.6551 C   0  0  0  0  0  0  0  0  0  0  0  0
   26.6362  -20.5919  -13.1020 C   0  0  2  0  0  0  0  0  0  0  0  0
   26.3101  -19.8121  -14.3283 N   0  0  0  0  0  0  0  0  0  0  0  0
   26.0084  -19.8063  -12.0115 C   0  0  0  0  0  0  0  0  0  0  0  0
   26.6171  -18.8030  -11.4756 O   0  0  0  0  0  0  0  0  0  0  0  0
   21.6741  -19.0566  -10.4572 C   0  0  0  0  0  0  0  0  0  0  0  0
   21.9847  -20.5550  -10.4923 C   0  0  2  0  0  0  0  0  0  0  0  0
   20.7805  -21.3974  -10.2389 C   0  0  0  0  0  0  0  0  0  0  0  0
   23.2069  -20.9129   -9.7297 C   0  0  0  0  0  0  0  0  0  0  0  0
   24.4468  -20.1460  -10.0389 C   0  0  2  0  0  0  0  0  0  0  0  0
   24.7277  -20.0476  -11.4560 N   0  0  0  0  0  0  0  0  0  0  0  0
   25.6368  -20.5591   -9.2823 C   0  0  0  0  0  0  0  0  0  0  0  0
   26.3244  -21.7373   -9.5213 O   0  0  0  0  0  0  0  0  0  0  0  0
   26.0811  -19.8281   -8.3622 O   0  0  0  0  0  0  0  0  0  0  0  0
  2  1  1  6
  2  3  1  0
  2 10  1  0
  3  4  1  0
  4  9  2  0
  5  4  1  0
  5  6  2  0
  6  7  1  0
  7  8  2  0
  9  8  1  0
 10 17  1  0
 10 11  2  0
 13 12  1  0
 14 13  1  0
 14 15  1  1
 16 14  1  0
 16 17  1  6
 18 16  1  0
 18 19  2  0
 21 20  1  1
 21 23  1  0
 22 21  1  0
 24 23  1  6
 24 25  1  0
 25 18  1  0
 26 27  1  0
 26 24  1  0
 28 26  2  0
M  END
$$$$
