FIL.pdb
     RDKit          3D

 28 28  0  0  1  0  0  0  0  0999 V2000
   17.9788  -16.3080  -21.3729 N   0  0  0  0  0  0  0  0  0  0  0  0
   16.8105  -15.7276  -20.7705 C   0  0  1  0  0  0  0  0  0  0  0  0
   16.3223  -16.4986  -19.5636 C   0  0  0  0  0  0  0  0  0  0  0  0
   15.8975  -17.8626  -19.9252 C   0  0  0  0  0  0  0  0  0  0  0  0
   16.7728  -18.9484  -19.8103 C   0  0  0  0  0  0  0  0  0  0  0  0
   16.3426  -20.2162  -20.1581 C   0  0  0  0  0  0  0  0  0  0  0  0
   15.0606  -20.4408  -20.6200 C   0  0  0  0  0  0  0  0  0  0  0  0
   14.2181  -19.3463  -20.7227 C   0  0  0  0  0  0  0  0  0  0  0  0
   14.6138  -18.0755  -20.3858 C   0  0  0  0  0  0  0  0  0  0  0  0
   16.9879  -14.3066  -20.4385 C   0  0  0  0  0  0  0  0  0  0  0  0
   18.1456  -13.7677  -20.4922 O   0  0  0  0  0  0  0  0  0  0  0  0
   13.9361   -9.0931  -21.0060 C   0  0  0  0  0  0  0  0  0  0  0  0
   15.1194   -9.8297  -20.4226 C   0  0  0  0  0  0  0  0  0  0  0  0
   14.9578  -11.3380  -20.5771 C   0  0  2  0  0  0  0  0  0  0  0  0
   13.6344  -11.6663  -19.9294 C   0  0  0  0  0  0  0  0  0  0  0  0
   16.0928  -12.0650  -19.8838 C   0  0  2  0  0  0  0  0  0  0  0  0
   15.8729  -13.5279  -20.0570 N   0  0  0  0  0  0  0  0  0  0  0  0
   15.9641  -11.8635  -18.4198 C   0  0  0  0  0  0  0  0  0  0  0  0
   16.1290  -10.6994  -17.8889 O   0  0  0  0  0  0  0  0  0  0  0  0
   17.5235  -14.5522  -14.7797 C   0  0  0  0  0  0  0  0  0  0  0  0
   17.9592  -13.2085  -15.3693 C   0  0  2  0  0  0  0  0  0  0  0  0
   19.2496  -12.7230  -14.8007 C   0  0  0  0  0  0  0  0  0  0  0  0
   16.8565  -12.2168  -15.4320 C   0  0  0  0  0  0  0  0  0  0  0  0
   15.5743  -12.6675  -16.0435 C   0  0  2  0  0  0  0  0  0  0  0  0
   15.6567  -12.8729  -17.4744 N   0  0  0  0  0  0  0  0  0  0  0  0
   14.3984  -11.8637  -15.6825 C   0  0  0  0  0  0  0  0  0  0  0  0
   13.5128  -12.2123  -14.6764 O   0  0  0  0  0  0  0  0  0  0  0  0
   14.1533  -10.7971  -16.2996 O   0  0  0  0  0  0  0  0  0  0  0  0
  2  1  1  1
  2  3  1  0
  2 10  1  0
  3  4  1  0
  4  9  2  0
  5  4  1  0
  5  6  2  0
  6  7  1  0
  7  8  2  0
  9  8  1  0
 10 17  1  0
 10 11  2  0
 13 12  1  0
 14 13  1  0
 14 15  1  1
 16 14  1  0
 16 17  1  1
 18 16  1  0
 18 19  2  0
 21 20  1  1
 21 23  1  0
 22 21  1  0
 24 23  1  6
 24 25  1  0
 25 18  1  0
 26 27  1  0
 26 24  1  0
 28 26  2  0
M  END
$$$$
