FIL.pdb
     RDKit          3D

 28 28  0  0  1  0  0  0  0  0999 V2000
   23.9272  -20.1510  -17.0621 N   0  0  0  0  0  0  0  0  0  0  0  0
   24.3668  -19.6909  -15.7738 C   0  0  1  0  0  0  0  0  0  0  0  0
   23.2219  -19.3620  -14.8408 C   0  0  0  0  0  0  0  0  0  0  0  0
   22.3642  -18.2955  -15.3875 C   0  0  0  0  0  0  0  0  0  0  0  0
   22.7969  -16.9652  -15.4244 C   0  0  0  0  0  0  0  0  0  0  0  0
   21.9673  -15.9881  -15.9440 C   0  0  0  0  0  0  0  0  0  0  0  0
   20.7118  -16.2933  -16.4319 C   0  0  0  0  0  0  0  0  0  0  0  0
   20.3122  -17.6184  -16.3818 C   0  0  0  0  0  0  0  0  0  0  0  0
   21.1112  -18.6120  -15.8725 C   0  0  0  0  0  0  0  0  0  0  0  0
   25.3082  -20.6179  -15.1294 C   0  0  0  0  0  0  0  0  0  0  0  0
   25.2218  -21.8765  -15.3343 O   0  0  0  0  0  0  0  0  0  0  0  0
   30.8626  -20.5875  -12.4266 C   0  0  0  0  0  0  0  0  0  0  0  0
   29.5829  -21.3139  -12.7697 C   0  0  0  0  0  0  0  0  0  0  0  0
   28.5839  -20.3785  -13.4418 C   0  0  2  0  0  0  0  0  0  0  0  0
   28.3766  -19.2466  -12.4646 C   0  0  0  0  0  0  0  0  0  0  0  0
   27.2804  -21.1033  -13.7121 C   0  0  2  0  0  0  0  0  0  0  0  0
   26.3171  -20.1175  -14.2768 N   0  0  0  0  0  0  0  0  0  0  0  0
   26.6693  -21.4849  -12.4154 C   0  0  0  0  0  0  0  0  0  0  0  0
   27.3039  -22.2247  -11.5703 O   0  0  0  0  0  0  0  0  0  0  0  0
   25.8202  -18.5924   -7.8120 C   0  0  0  0  0  0  0  0  0  0  0  0
   25.4759  -19.9941   -8.3216 C   0  0  2  0  0  0  0  0  0  0  0  0
   25.8451  -21.0649   -7.3514 C   0  0  0  0  0  0  0  0  0  0  0  0
   25.8860  -20.2169   -9.7307 C   0  0  0  0  0  0  0  0  0  0  0  0
   24.9741  -21.0341  -10.5802 C   0  0  2  0  0  0  0  0  0  0  0  0
   25.3813  -21.1003  -11.9682 N   0  0  0  0  0  0  0  0  0  0  0  0
   23.5475  -20.7054  -10.4535 C   0  0  0  0  0  0  0  0  0  0  0  0
   22.7686  -21.0822   -9.3722 O   0  0  0  0  0  0  0  0  0  0  0  0
   22.9718  -20.0485  -11.3566 O   0  0  0  0  0  0  0  0  0  0  0  0
  2  1  1  6
  2  3  1  0
  2 10  1  0
  3  4  1  0
  4  9  2  0
  5  4  1  0
  5  6  2  0
  6  7  1  0
  7  8  2  0
  9  8  1  0
 10 17  1  0
 10 11  2  0
 13 12  1  0
 14 13  1  0
 14 15  1  1
 16 14  1  0
 16 17  1  1
 18 16  1  0
 18 19  2  0
 21 20  1  1
 21 23  1  0
 22 21  1  0
 24 23  1  1
 24 25  1  0
 25 18  1  0
 26 27  1  0
 26 24  1  0
 28 26  2  0
M  END
$$$$
