FIL.pdb
     RDKit          3D

 28 28  0  0  1  0  0  0  0  0999 V2000
   28.4538  -22.3115  -10.0500 N   0  0  0  0  0  0  0  0  0  0  0  0
   27.5170  -21.2518   -9.7969 C   0  0  1  0  0  0  0  0  0  0  0  0
   28.1857  -19.9517   -9.4069 C   0  0  0  0  0  0  0  0  0  0  0  0
   28.2463  -19.7892   -7.9434 C   0  0  0  0  0  0  0  0  0  0  0  0
   29.2447  -20.4118   -7.1860 C   0  0  0  0  0  0  0  0  0  0  0  0
   29.2733  -20.2388   -5.8139 C   0  0  0  0  0  0  0  0  0  0  0  0
   28.3341  -19.4609   -5.1659 C   0  0  0  0  0  0  0  0  0  0  0  0
   27.3588  -18.8579   -5.9427 C   0  0  0  0  0  0  0  0  0  0  0  0
   27.3024  -19.0093   -7.3062 C   0  0  0  0  0  0  0  0  0  0  0  0
   26.5843  -21.0384  -10.9129 C   0  0  0  0  0  0  0  0  0  0  0  0
   26.8828  -21.4315  -12.0918 O   0  0  0  0  0  0  0  0  0  0  0  0
   21.5735  -21.1073   -8.7661 C   0  0  0  0  0  0  0  0  0  0  0  0
   22.7988  -21.4388   -9.5858 C   0  0  0  0  0  0  0  0  0  0  0  0
   22.9232  -20.5089  -10.7879 C   0  0  2  0  0  0  0  0  0  0  0  0
   21.7136  -20.7981  -11.6435 C   0  0  0  0  0  0  0  0  0  0  0  0
   24.2028  -20.7959  -11.5479 C   0  0  2  0  0  0  0  0  0  0  0  0
   25.3480  -20.3946  -10.6843 N   0  0  0  0  0  0  0  0  0  0  0  0
   24.2917  -19.8658  -12.7001 C   0  0  0  0  0  0  0  0  0  0  0  0
   23.9530  -18.6263  -12.5853 O   0  0  0  0  0  0  0  0  0  0  0  0
   27.1406  -17.5025  -14.6160 C   0  0  0  0  0  0  0  0  0  0  0  0
   27.2472  -18.9097  -15.2087 C   0  0  2  0  0  0  0  0  0  0  0  0
   28.5311  -19.1316  -15.9344 C   0  0  0  0  0  0  0  0  0  0  0  0
   26.0134  -19.3379  -15.9142 C   0  0  0  0  0  0  0  0  0  0  0  0
   24.7432  -19.3082  -15.1353 C   0  0  2  0  0  0  0  0  0  0  0  0
   24.7397  -20.2070  -14.0001 N   0  0  0  0  0  0  0  0  0  0  0  0
   23.5202  -19.4504  -15.9373 C   0  0  0  0  0  0  0  0  0  0  0  0
   22.6540  -20.5255  -15.8277 O   0  0  0  0  0  0  0  0  0  0  0  0
   23.2138  -18.5677  -16.7773 O   0  0  0  0  0  0  0  0  0  0  0  0
  2  1  1  6
  2  3  1  0
  2 10  1  0
  3  4  1  0
  4  9  2  0
  5  4  1  0
  5  6  2  0
  6  7  1  0
  7  8  2  0
  9  8  1  0
 10 17  1  0
 10 11  2  0
 13 12  1  0
 14 13  1  0
 14 15  1  6
 16 14  1  0
 16 17  1  1
 18 16  1  0
 18 19  2  0
 21 20  1  6
 21 23  1  0
 22 21  1  0
 24 23  1  6
 24 25  1  0
 25 18  1  0
 26 27  1  0
 26 24  1  0
 28 26  2  0
M  END
$$$$
