FIL.pdb
     RDKit          3D

 28 28  0  0  1  0  0  0  0  0999 V2000
   28.3751  -20.4973  -14.9241 N   0  0  0  0  0  0  0  0  0  0  0  0
   27.5131  -19.7609  -14.0413 C   0  0  1  0  0  0  0  0  0  0  0  0
   26.5358  -18.8697  -14.7761 C   0  0  0  0  0  0  0  0  0  0  0  0
   27.2260  -17.7912  -15.5057 C   0  0  0  0  0  0  0  0  0  0  0  0
   27.5737  -17.9355  -16.8535 C   0  0  0  0  0  0  0  0  0  0  0  0
   28.2212  -16.9039  -17.5092 C   0  0  0  0  0  0  0  0  0  0  0  0
   28.5364  -15.7247  -16.8631 C   0  0  0  0  0  0  0  0  0  0  0  0
   28.1794  -15.6122  -15.5297 C   0  0  0  0  0  0  0  0  0  0  0  0
   27.5363  -16.6169  -14.8499 C   0  0  0  0  0  0  0  0  0  0  0  0
   26.8060  -20.6250  -13.0851 C   0  0  0  0  0  0  0  0  0  0  0  0
   26.6354  -21.8664  -13.3361 O   0  0  0  0  0  0  0  0  0  0  0  0
   26.7670  -20.3529   -7.6469 C   0  0  0  0  0  0  0  0  0  0  0  0
   26.6419  -20.8918   -9.0530 C   0  0  0  0  0  0  0  0  0  0  0  0
   25.3251  -20.4624   -9.6905 C   0  0  2  0  0  0  0  0  0  0  0  0
   24.2498  -21.1685   -8.9004 C   0  0  0  0  0  0  0  0  0  0  0  0
   25.2835  -20.8765  -11.1480 C   0  0  2  0  0  0  0  0  0  0  0  0
   26.3100  -20.0825  -11.8789 N   0  0  0  0  0  0  0  0  0  0  0  0
   24.0021  -20.4175  -11.7376 C   0  0  0  0  0  0  0  0  0  0  0  0
   23.8401  -19.1939  -12.1128 O   0  0  0  0  0  0  0  0  0  0  0  0
   23.3842  -22.4229  -14.5046 C   0  0  0  0  0  0  0  0  0  0  0  0
   22.2354  -21.5441  -15.0056 C   0  0  2  0  0  0  0  0  0  0  0  0
   22.3795  -21.1747  -16.4433 C   0  0  0  0  0  0  0  0  0  0  0  0
   21.9026  -20.4368  -14.0748 C   0  0  0  0  0  0  0  0  0  0  0  0
   21.6636  -20.7993  -12.6491 C   0  0  2  0  0  0  0  0  0  0  0  0
   22.8591  -21.2264  -11.9527 N   0  0  0  0  0  0  0  0  0  0  0  0
   20.5488  -21.7298  -12.4241 C   0  0  0  0  0  0  0  0  0  0  0  0
   20.6949  -22.9664  -11.8177 O   0  0  0  0  0  0  0  0  0  0  0  0
   19.3876  -21.4188  -12.7892 O   0  0  0  0  0  0  0  0  0  0  0  0
  2  1  1  6
  2  3  1  0
  2 10  1  0
  3  4  1  0
  4  9  2  0
  5  4  1  0
  5  6  2  0
  6  7  1  0
  7  8  2  0
  9  8  1  0
 10 17  1  0
 10 11  2  0
 13 12  1  0
 14 13  1  0
 14 15  1  1
 16 14  1  0
 16 17  1  6
 18 16  1  0
 18 19  2  0
 21 20  1  1
 21 23  1  0
 22 21  1  0
 24 23  1  6
 24 25  1  0
 25 18  1  0
 26 27  1  0
 26 24  1  0
 28 26  2  0
M  END
$$$$
