VYC.pdb
     RDKit          3D

 26 26  0  0  1  0  0  0  0  0999 V2000
   11.4599  -19.8677   21.6302 C   0  0  0  0  0  0  0  0  0  0  0  0
    9.9740  -19.8075   21.3467 C   0  0  2  0  0  0  0  0  0  0  0  0
    9.6374  -21.0264   20.5090 C   0  0  0  0  0  0  0  0  0  0  0  0
    9.6541  -18.5902   20.5428 C   0  0  2  0  0  0  0  0  0  0  0  0
   10.4133  -18.6550   19.3118 N   0  0  0  0  0  0  0  0  0  0  0  0
    9.8887  -17.3193   21.2006 C   0  0  0  0  0  0  0  0  0  0  0  0
   10.9791  -16.7237   20.9953 O   0  0  0  0  0  0  0  0  0  0  0  0
    7.0496  -12.4910   17.5460 O   0  0  0  0  0  0  0  0  0  0  0  0
    7.3771  -12.9576   18.8326 C   0  0  0  0  0  0  0  0  0  0  0  0
    8.4811  -12.4577   19.4810 C   0  0  0  0  0  0  0  0  0  0  0  0
    8.8018  -12.9247   20.7586 C   0  0  0  0  0  0  0  0  0  0  0  0
    8.0308  -13.8786   21.3817 C   0  0  0  0  0  0  0  0  0  0  0  0
    8.3376  -14.3816   22.7041 C   0  0  0  0  0  0  0  0  0  0  0  0
    9.3405  -15.4867   22.7718 C   0  0  2  0  0  0  0  0  0  0  0  0
    8.9765  -16.6697   22.0775 N   0  0  0  0  0  0  0  0  0  0  0  0
    9.5880  -15.7446   24.2406 C   0  0  0  0  0  0  0  0  0  0  0  0
    8.7508  -15.3583   25.0841 O   0  0  0  0  0  0  0  0  0  0  0  0
    6.9322  -14.3573   20.7030 C   0  0  0  0  0  0  0  0  0  0  0  0
    6.5907  -13.9111   19.4335 C   0  0  0  0  0  0  0  0  0  0  0  0
   10.7504  -16.4166   24.6900 N   0  0  0  0  0  0  0  0  0  0  0  0
   10.9298  -17.0937   25.9442 C   0  0  1  0  0  0  0  0  0  0  0  0
    9.8094  -17.9758   26.3649 C   0  0  0  0  0  0  0  0  0  0  0  0
   10.1748  -18.5865   28.0445 S   0  0  0  0  0  0  0  0  0  0  0  0
   12.2654  -17.7345   26.1171 C   0  0  0  0  0  0  0  0  0  0  0  0
   12.6057  -18.1688   27.2276 O   0  0  0  0  0  0  0  0  0  0  0  0
   13.1536  -17.8629   25.0614 O   0  0  0  0  0  0  0  0  0  0  0  0
  2  1  1  6
  2  4  1  0
  3  2  1  0
  4  6  1  0
  4  5  1  6
  6  7  2  0
  9  8  1  0
  9 19  2  0
 10  9  1  0
 11 10  2  0
 11 12  1  0
 12 18  2  0
 14 13  1  1
 13 12  1  0
 15 14  1  0
 15  6  1  0
 16 17  2  0
 16 14  1  0
 18 19  1  0
 20 16  1  0
 21 24  1  0
 21 20  1  0
 21 22  1  6
 23 22  1  0
 24 26  1  0
 25 24  2  0
M  END
$$$$
