VYC.pdb
     RDKit          3D

 26 26  0  0  1  0  0  0  0  0999 V2000
    9.2607  -19.6259   20.4238 C   0  0  0  0  0  0  0  0  0  0  0  0
    8.3878  -18.6593   19.6522 C   0  0  2  0  0  0  0  0  0  0  0  0
    8.3278  -19.1664   18.2240 C   0  0  0  0  0  0  0  0  0  0  0  0
    9.0136  -17.3034   19.6365 C   0  0  2  0  0  0  0  0  0  0  0  0
   10.3621  -17.4392   19.1272 N   0  0  0  0  0  0  0  0  0  0  0  0
    9.0340  -16.6024   20.9058 C   0  0  0  0  0  0  0  0  0  0  0  0
   10.0552  -16.7023   21.6360 O   0  0  0  0  0  0  0  0  0  0  0  0
    7.0804  -11.7671   28.0630 O   0  0  0  0  0  0  0  0  0  0  0  0
    7.0866  -12.3346   26.7752 C   0  0  0  0  0  0  0  0  0  0  0  0
    7.9181  -11.8246   25.8070 C   0  0  0  0  0  0  0  0  0  0  0  0
    7.9201  -12.3920   24.5298 C   0  0  0  0  0  0  0  0  0  0  0  0
    7.1028  -13.4550   24.2223 C   0  0  0  0  0  0  0  0  0  0  0  0
    7.0827  -14.0636   22.9089 C   0  0  0  0  0  0  0  0  0  0  0  0
    8.0947  -15.1349   22.6641 C   0  0  2  0  0  0  0  0  0  0  0  0
    7.9796  -15.7933   21.4122 N   0  0  0  0  0  0  0  0  0  0  0  0
    7.9812  -16.0978   23.8238 C   0  0  0  0  0  0  0  0  0  0  0  0
    7.0742  -16.9574   23.8249 O   0  0  0  0  0  0  0  0  0  0  0  0
    6.2826  -13.9405   25.2164 C   0  0  0  0  0  0  0  0  0  0  0  0
    6.2605  -13.3960   26.4933 C   0  0  0  0  0  0  0  0  0  0  0  0
    8.8805  -16.0523   24.9163 N   0  0  0  0  0  0  0  0  0  0  0  0
    9.4926  -17.1685   25.5823 C   0  0  1  0  0  0  0  0  0  0  0  0
   10.0303  -18.2318   24.6933 C   0  0  0  0  0  0  0  0  0  0  0  0
   10.6196  -19.6000   25.7461 S   0  0  0  0  0  0  0  0  0  0  0  0
   10.4375  -16.7963   26.6745 C   0  0  0  0  0  0  0  0  0  0  0  0
   10.6144  -17.5661   27.6305 O   0  0  0  0  0  0  0  0  0  0  0  0
   11.1360  -15.5998   26.6569 O   0  0  0  0  0  0  0  0  0  0  0  0
  2  1  1  1
  2  4  1  0
  3  2  1  0
  4  6  1  0
  4  5  1  1
  6  7  2  0
  9  8  1  0
  9 19  2  0
 10  9  1  0
 11 10  2  0
 11 12  1  0
 12 18  2  0
 14 13  1  1
 13 12  1  0
 15 14  1  0
 15  6  1  0
 16 17  2  0
 16 14  1  0
 18 19  1  0
 20 16  1  0
 21 24  1  0
 21 20  1  0
 21 22  1  6
 23 22  1  0
 24 26  1  0
 25 24  2  0
M  END
$$$$
