VYC.pdb
     RDKit          3D

 26 26  0  0  1  0  0  0  0  0999 V2000
    7.3592  -13.3133   20.5695 C   0  0  0  0  0  0  0  0  0  0  0  0
    8.5844  -13.1931   19.6886 C   0  0  2  0  0  0  0  0  0  0  0  0
    8.2782  -12.1268   18.6542 C   0  0  0  0  0  0  0  0  0  0  0  0
    8.8276  -14.4795   18.9699 C   0  0  2  0  0  0  0  0  0  0  0  0
    7.6158  -14.8310   18.2600 N   0  0  0  0  0  0  0  0  0  0  0  0
    9.2566  -15.5924   19.7946 C   0  0  0  0  0  0  0  0  0  0  0  0
    8.3870  -16.3894   20.2357 O   0  0  0  0  0  0  0  0  0  0  0  0
    9.4550  -20.4622   15.6554 O   0  0  0  0  0  0  0  0  0  0  0  0
   10.0321  -19.8600   16.7887 C   0  0  0  0  0  0  0  0  0  0  0  0
    9.7741  -20.3682   18.0394 C   0  0  0  0  0  0  0  0  0  0  0  0
   10.3499  -19.7661   19.1615 C   0  0  0  0  0  0  0  0  0  0  0  0
   11.1729  -18.6707   19.0376 C   0  0  0  0  0  0  0  0  0  0  0  0
   11.7835  -18.0259   20.1809 C   0  0  0  0  0  0  0  0  0  0  0  0
   10.9370  -17.0310   20.9056 C   0  0  2  0  0  0  0  0  0  0  0  0
   10.6029  -15.8714   20.1588 N   0  0  0  0  0  0  0  0  0  0  0  0
   11.6782  -16.6915   22.1786 C   0  0  0  0  0  0  0  0  0  0  0  0
   12.4396  -15.7010   22.2032 O   0  0  0  0  0  0  0  0  0  0  0  0
   11.4096  -18.1880   17.7697 C   0  0  0  0  0  0  0  0  0  0  0  0
   10.8509  -18.7665   16.6381 C   0  0  0  0  0  0  0  0  0  0  0  0
   11.5324  -17.4703   23.3519 N   0  0  0  0  0  0  0  0  0  0  0  0
   12.1057  -17.2086   24.6429 C   0  0  1  0  0  0  0  0  0  0  0  0
   11.1505  -16.7684   25.6935 C   0  0  0  0  0  0  0  0  0  0  0  0
    9.8462  -18.0359   25.8343 S   0  0  0  0  0  0  0  0  0  0  0  0
   13.0518  -18.2560   25.1247 C   0  0  0  0  0  0  0  0  0  0  0  0
   13.0358  -19.3871   24.6165 O   0  0  0  0  0  0  0  0  0  0  0  0
   13.9628  -18.0040   26.1377 O   0  0  0  0  0  0  0  0  0  0  0  0
  2  1  1  1
  2  4  1  0
  3  2  1  0
  4  6  1  0
  4  5  1  1
  6  7  2  0
  9  8  1  0
  9 19  2  0
 10  9  1  0
 11 10  2  0
 11 12  1  0
 12 18  2  0
 14 13  1  6
 13 12  1  0
 15 14  1  0
 15  6  1  0
 16 17  2  0
 16 14  1  0
 18 19  1  0
 20 16  1  0
 21 24  1  0
 21 20  1  0
 21 22  1  1
 23 22  1  0
 24 26  1  0
 25 24  2  0
M  END
$$$$
