VYC.pdb
     RDKit          3D

 26 26  0  0  1  0  0  0  0  0999 V2000
   10.6125  -17.6539   16.0244 C   0  0  0  0  0  0  0  0  0  0  0  0
   11.5378  -16.7355   16.7940 C   0  0  2  0  0  0  0  0  0  0  0  0
   12.9440  -17.0139   16.2986 C   0  0  0  0  0  0  0  0  0  0  0  0
   11.4871  -17.0601   18.2509 C   0  0  2  0  0  0  0  0  0  0  0  0
   10.1140  -16.9288   18.6908 N   0  0  0  0  0  0  0  0  0  0  0  0
   12.3558  -16.2724   19.1040 C   0  0  0  0  0  0  0  0  0  0  0  0
   12.0951  -15.0517   19.2712 O   0  0  0  0  0  0  0  0  0  0  0  0
   10.0001  -16.8143   25.3773 O   0  0  0  0  0  0  0  0  0  0  0  0
   11.1237  -16.7164   24.5358 C   0  0  0  0  0  0  0  0  0  0  0  0
   11.5281  -15.4863   24.0749 C   0  0  0  0  0  0  0  0  0  0  0  0
   12.6446  -15.3949   23.2394 C   0  0  0  0  0  0  0  0  0  0  0  0
   13.3492  -16.5167   22.8682 C   0  0  0  0  0  0  0  0  0  0  0  0
   14.5092  -16.4537   22.0044 C   0  0  0  0  0  0  0  0  0  0  0  0
   14.2763  -15.9252   20.6267 C   0  0  2  0  0  0  0  0  0  0  0  0
   13.5027  -16.7661   19.7851 N   0  0  0  0  0  0  0  0  0  0  0  0
   15.6425  -15.6427   20.0448 C   0  0  0  0  0  0  0  0  0  0  0  0
   15.9449  -16.1106   18.9262 O   0  0  0  0  0  0  0  0  0  0  0  0
   12.9161  -17.7327   23.3484 C   0  0  0  0  0  0  0  0  0  0  0  0
   11.8106  -17.8522   24.1795 C   0  0  0  0  0  0  0  0  0  0  0  0
   16.5955  -14.8571   20.7369 N   0  0  0  0  0  0  0  0  0  0  0  0
   17.5684  -13.9694   20.1629 C   0  0  1  0  0  0  0  0  0  0  0  0
   17.0208  -12.8708   19.3243 C   0  0  0  0  0  0  0  0  0  0  0  0
   16.6333  -13.5586   17.6797 S   0  0  0  0  0  0  0  0  0  0  0  0
   18.6180  -13.5019   21.1138 C   0  0  0  0  0  0  0  0  0  0  0  0
   18.3563  -13.3916   22.3209 O   0  0  0  0  0  0  0  0  0  0  0  0
   19.8966  -13.1813   20.6871 O   0  0  0  0  0  0  0  0  0  0  0  0
  2  1  1  6
  2  4  1  0
  3  2  1  0
  4  6  1  0
  4  5  1  1
  6  7  2  0
  9  8  1  0
  9 19  2  0
 10  9  1  0
 11 10  2  0
 11 12  1  0
 12 18  2  0
 14 13  1  1
 13 12  1  0
 15 14  1  0
 15  6  1  0
 16 17  2  0
 16 14  1  0
 18 19  1  0
 20 16  1  0
 21 24  1  0
 21 20  1  0
 21 22  1  1
 23 22  1  0
 24 26  1  0
 25 24  2  0
M  END
$$$$
