VYC.pdb
     RDKit          3D

 26 26  0  0  1  0  0  0  0  0999 V2000
    7.1451  -12.7758   27.2557 C   0  0  0  0  0  0  0  0  0  0  0  0
    6.6869  -12.4203   25.8573 C   0  0  2  0  0  0  0  0  0  0  0  0
    5.5578  -11.4186   26.0069 C   0  0  0  0  0  0  0  0  0  0  0  0
    6.1443  -13.6312   25.1720 C   0  0  2  0  0  0  0  0  0  0  0  0
    5.1274  -14.2097   26.0249 N   0  0  0  0  0  0  0  0  0  0  0  0
    7.1188  -14.6424   24.8106 C   0  0  0  0  0  0  0  0  0  0  0  0
    6.9406  -15.8240   25.2081 O   0  0  0  0  0  0  0  0  0  0  0  0
    6.7400  -13.5029   17.8986 O   0  0  0  0  0  0  0  0  0  0  0  0
    7.5055  -13.9417   18.9948 C   0  0  0  0  0  0  0  0  0  0  0  0
    7.3864  -15.2375   19.4373 C   0  0  0  0  0  0  0  0  0  0  0  0
    8.1490  -15.6680   20.5264 C   0  0  0  0  0  0  0  0  0  0  0  0
    9.0196  -14.8164   21.1663 C   0  0  0  0  0  0  0  0  0  0  0  0
    9.8225  -15.2332   22.2966 C   0  0  0  0  0  0  0  0  0  0  0  0
    9.0838  -15.4933   23.5687 C   0  0  2  0  0  0  0  0  0  0  0  0
    8.2852  -14.4144   24.0293 N   0  0  0  0  0  0  0  0  0  0  0  0
   10.1237  -15.9037   24.5862 C   0  0  0  0  0  0  0  0  0  0  0  0
   11.0447  -16.6779   24.2485 O   0  0  0  0  0  0  0  0  0  0  0  0
    9.1136  -13.5252   20.6965 C   0  0  0  0  0  0  0  0  0  0  0  0
    8.3681  -13.0713   19.6169 C   0  0  0  0  0  0  0  0  0  0  0  0
   10.0826  -15.4319   25.9204 N   0  0  0  0  0  0  0  0  0  0  0  0
   10.9859  -15.7663   26.9862 C   0  0  1  0  0  0  0  0  0  0  0  0
   11.0343  -14.8001   28.1151 C   0  0  0  0  0  0  0  0  0  0  0  0
    9.9732  -13.3798   27.6854 S   0  0  0  0  0  0  0  0  0  0  0  0
   10.9084  -17.1841   27.4425 C   0  0  0  0  0  0  0  0  0  0  0  0
    9.9879  -17.9138   27.0451 O   0  0  0  0  0  0  0  0  0  0  0  0
   11.8455  -17.7223   28.3095 O   0  0  0  0  0  0  0  0  0  0  0  0
  2  1  1  1
  2  4  1  0
  3  2  1  0
  4  6  1  0
  4  5  1  1
  6  7  2  0
  9  8  1  0
  9 19  2  0
 10  9  1  0
 11 10  2  0
 11 12  1  0
 12 18  2  0
 14 13  1  6
 13 12  1  0
 15 14  1  0
 15  6  1  0
 16 17  2  0
 16 14  1  0
 18 19  1  0
 20 16  1  0
 21 24  1  0
 21 20  1  0
 21 22  1  1
 23 22  1  0
 24 26  1  0
 25 24  2  0
M  END
$$$$
