VYC.pdb
     RDKit          3D

 26 26  0  0  1  0  0  0  0  0999 V2000
    7.9103  -21.0034   20.3252 C   0  0  0  0  0  0  0  0  0  0  0  0
    8.4450  -19.8145   21.0949 C   0  0  2  0  0  0  0  0  0  0  0  0
    7.5811  -19.6689   22.3330 C   0  0  0  0  0  0  0  0  0  0  0  0
    8.3020  -18.5704   20.2812 C   0  0  2  0  0  0  0  0  0  0  0  0
    9.0300  -18.7591   19.0440 N   0  0  0  0  0  0  0  0  0  0  0  0
    8.7306  -17.3429   20.9234 C   0  0  0  0  0  0  0  0  0  0  0  0
    9.9575  -17.0590   20.9285 O   0  0  0  0  0  0  0  0  0  0  0  0
    7.9426  -12.4765   16.5037 O   0  0  0  0  0  0  0  0  0  0  0  0
    7.9078  -12.8492   17.8602 C   0  0  0  0  0  0  0  0  0  0  0  0
    8.9834  -12.5783   18.6718 C   0  0  0  0  0  0  0  0  0  0  0  0
    8.9434  -12.9505   20.0183 C   0  0  0  0  0  0  0  0  0  0  0  0
    7.8441  -13.5852   20.5486 C   0  0  0  0  0  0  0  0  0  0  0  0
    7.7734  -13.9827   21.9388 C   0  0  0  0  0  0  0  0  0  0  0  0
    8.3908  -15.2998   22.2792 C   0  0  2  0  0  0  0  0  0  0  0  0
    7.8697  -16.4088   21.5632 N   0  0  0  0  0  0  0  0  0  0  0  0
    8.2364  -15.4666   23.7736 C   0  0  0  0  0  0  0  0  0  0  0  0
    7.2330  -14.9907   24.3467 O   0  0  0  0  0  0  0  0  0  0  0  0
    6.7845  -13.8409   19.7068 C   0  0  0  0  0  0  0  0  0  0  0  0
    6.7976  -13.4821   18.3658 C   0  0  0  0  0  0  0  0  0  0  0  0
    9.2040  -16.1518   24.5473 N   0  0  0  0  0  0  0  0  0  0  0  0
    9.0997  -16.5296   25.9294 C   0  0  1  0  0  0  0  0  0  0  0  0
    7.8244  -17.1850   26.3224 C   0  0  0  0  0  0  0  0  0  0  0  0
    6.4806  -15.9685   26.1171 S   0  0  0  0  0  0  0  0  0  0  0  0
   10.2997  -17.2286   26.4732 C   0  0  0  0  0  0  0  0  0  0  0  0
   10.3279  -17.5778   27.6627 O   0  0  0  0  0  0  0  0  0  0  0  0
   11.4023  -17.5054   25.6812 O   0  0  0  0  0  0  0  0  0  0  0  0
  2  1  1  6
  2  4  1  0
  3  2  1  0
  4  6  1  0
  4  5  1  6
  6  7  2  0
  9  8  1  0
  9 19  2  0
 10  9  1  0
 11 10  2  0
 11 12  1  0
 12 18  2  0
 14 13  1  6
 13 12  1  0
 15 14  1  0
 15  6  1  0
 16 17  2  0
 16 14  1  0
 18 19  1  0
 20 16  1  0
 21 24  1  0
 21 20  1  0
 21 22  1  6
 23 22  1  0
 24 26  1  0
 25 24  2  0
M  END
$$$$
