VYC.pdb
     RDKit          3D

 26 26  0  0  1  0  0  0  0  0999 V2000
   10.4547  -19.9383   20.0245 C   0  0  0  0  0  0  0  0  0  0  0  0
   10.3209  -18.9438   21.1580 C   0  0  2  0  0  0  0  0  0  0  0  0
    9.2763  -19.4985   22.1075 C   0  0  0  0  0  0  0  0  0  0  0  0
    9.8247  -17.6353   20.6363 C   0  0  2  0  0  0  0  0  0  0  0  0
   10.7352  -17.1922   19.6015 N   0  0  0  0  0  0  0  0  0  0  0  0
    9.6514  -16.5868   21.6228 C   0  0  0  0  0  0  0  0  0  0  0  0
   10.6727  -15.9992   22.0674 O   0  0  0  0  0  0  0  0  0  0  0  0
    6.3275  -11.1320   27.7735 O   0  0  0  0  0  0  0  0  0  0  0  0
    6.4975  -11.9663   26.6530 C   0  0  0  0  0  0  0  0  0  0  0  0
    7.1850  -11.5060   25.5555 C   0  0  0  0  0  0  0  0  0  0  0  0
    7.3509  -12.3388   24.4455 C   0  0  0  0  0  0  0  0  0  0  0  0
    6.8372  -13.6149   24.4305 C   0  0  0  0  0  0  0  0  0  0  0  0
    6.9928  -14.5005   23.2958 C   0  0  0  0  0  0  0  0  0  0  0  0
    8.3333  -15.1410   23.1395 C   0  0  2  0  0  0  0  0  0  0  0  0
    8.4023  -16.1519   22.1459 N   0  0  0  0  0  0  0  0  0  0  0  0
    8.7160  -15.6619   24.5059 C   0  0  0  0  0  0  0  0  0  0  0  0
    8.9444  -14.8543   25.4318 O   0  0  0  0  0  0  0  0  0  0  0  0
    6.1541  -14.0433   25.5470 C   0  0  0  0  0  0  0  0  0  0  0  0
    5.9746  -13.2372   26.6629 C   0  0  0  0  0  0  0  0  0  0  0  0
    8.8234  -17.0492   24.7674 N   0  0  0  0  0  0  0  0  0  0  0  0
    9.1478  -17.6725   26.0205 C   0  0  1  0  0  0  0  0  0  0  0  0
    7.9873  -18.0903   26.8504 C   0  0  0  0  0  0  0  0  0  0  0  0
    7.0330  -19.3227   25.9027 S   0  0  0  0  0  0  0  0  0  0  0  0
   10.2045  -18.7215   25.9356 C   0  0  0  0  0  0  0  0  0  0  0  0
   10.5633  -19.1520   24.8294 O   0  0  0  0  0  0  0  0  0  0  0  0
   10.8089  -19.2398   27.0695 O   0  0  0  0  0  0  0  0  0  0  0  0
  2  1  1  6
  2  4  1  0
  3  2  1  0
  4  6  1  0
  4  5  1  6
  6  7  2  0
  9  8  1  0
  9 19  2  0
 10  9  1  0
 11 10  2  0
 11 12  1  0
 12 18  2  0
 14 13  1  1
 13 12  1  0
 15 14  1  0
 15  6  1  0
 16 17  2  0
 16 14  1  0
 18 19  1  0
 20 16  1  0
 21 24  1  0
 21 20  1  0
 21 22  1  6
 23 22  1  0
 24 26  1  0
 25 24  2  0
M  END
$$$$
