VYC.pdb
     RDKit          3D

 26 26  0  0  1  0  0  0  0  0999 V2000
   10.7935  -20.3649   20.9779 C   0  0  0  0  0  0  0  0  0  0  0  0
    9.3116  -20.0556   20.9724 C   0  0  2  0  0  0  0  0  0  0  0  0
    8.6293  -21.1900   20.2320 C   0  0  0  0  0  0  0  0  0  0  0  0
    9.0544  -18.7909   20.2207 C   0  0  2  0  0  0  0  0  0  0  0  0
    9.5410  -18.9676   18.8686 N   0  0  0  0  0  0  0  0  0  0  0  0
    9.6228  -17.5874   20.7962 C   0  0  0  0  0  0  0  0  0  0  0  0
   10.7615  -17.2118   20.4112 O   0  0  0  0  0  0  0  0  0  0  0  0
    6.6332  -12.6016   17.4139 O   0  0  0  0  0  0  0  0  0  0  0  0
    7.1677  -13.0446   18.6379 C   0  0  0  0  0  0  0  0  0  0  0  0
    8.4663  -12.7383   18.9680 C   0  0  0  0  0  0  0  0  0  0  0  0
    8.9921  -13.1808   20.1849 C   0  0  0  0  0  0  0  0  0  0  0  0
    8.2319  -13.9196   21.0617 C   0  0  0  0  0  0  0  0  0  0  0  0
    8.7486  -14.3918   22.3289 C   0  0  0  0  0  0  0  0  0  0  0  0
    9.6238  -15.6012   22.2737 C   0  0  2  0  0  0  0  0  0  0  0  0
    8.9952  -16.7738   21.7796 N   0  0  0  0  0  0  0  0  0  0  0  0
   10.1674  -15.7950   23.6708 C   0  0  0  0  0  0  0  0  0  0  0  0
    9.3758  -15.8800   24.6340 O   0  0  0  0  0  0  0  0  0  0  0  0
    6.9351  -14.2081   20.6988 C   0  0  0  0  0  0  0  0  0  0  0  0
    6.3876  -13.7813   19.4966 C   0  0  0  0  0  0  0  0  0  0  0  0
   11.5583  -15.8835   23.9198 N   0  0  0  0  0  0  0  0  0  0  0  0
   12.2086  -16.6574   24.9406 C   0  0  1  0  0  0  0  0  0  0  0  0
   11.6609  -18.0219   25.1602 C   0  0  0  0  0  0  0  0  0  0  0  0
   10.2830  -17.8901   26.3485 S   0  0  0  0  0  0  0  0  0  0  0  0
   13.6986  -16.6361   24.8796 C   0  0  0  0  0  0  0  0  0  0  0  0
   14.2729  -16.5275   23.7860 O   0  0  0  0  0  0  0  0  0  0  0  0
   14.4757  -16.7354   26.0224 O   0  0  0  0  0  0  0  0  0  0  0  0
  2  1  1  6
  2  4  1  0
  3  2  1  0
  4  6  1  0
  4  5  1  6
  6  7  2  0
  9  8  1  0
  9 19  2  0
 10  9  1  0
 11 10  2  0
 11 12  1  0
 12 18  2  0
 14 13  1  1
 13 12  1  0
 15 14  1  0
 15  6  1  0
 16 17  2  0
 16 14  1  0
 18 19  1  0
 20 16  1  0
 21 24  1  0
 21 20  1  0
 21 22  1  6
 23 22  1  0
 24 26  1  0
 25 24  2  0
M  END
$$$$
