VYC.pdb
     RDKit          3D

 26 26  0  0  1  0  0  0  0  0999 V2000
    7.0546  -17.4497   18.5352 C   0  0  0  0  0  0  0  0  0  0  0  0
    7.7051  -17.4186   19.9018 C   0  0  2  0  0  0  0  0  0  0  0  0
    6.6298  -17.7820   20.9079 C   0  0  0  0  0  0  0  0  0  0  0  0
    8.1819  -16.0376   20.2116 C   0  0  2  0  0  0  0  0  0  0  0  0
    9.1378  -15.6557   19.1935 N   0  0  0  0  0  0  0  0  0  0  0  0
    8.7615  -15.8499   21.5275 C   0  0  0  0  0  0  0  0  0  0  0  0
    9.9561  -16.1998   21.7183 O   0  0  0  0  0  0  0  0  0  0  0  0
   10.2395  -14.1831   30.0972 O   0  0  0  0  0  0  0  0  0  0  0  0
    9.6708  -14.2453   28.8116 C   0  0  0  0  0  0  0  0  0  0  0  0
    8.9698  -15.3633   28.4271 C   0  0  0  0  0  0  0  0  0  0  0  0
    8.4070  -15.4198   27.1492 C   0  0  0  0  0  0  0  0  0  0  0  0
    8.5418  -14.3740   26.2656 C   0  0  0  0  0  0  0  0  0  0  0  0
    7.9704  -14.4033   24.9358 C   0  0  0  0  0  0  0  0  0  0  0  0
    8.7210  -15.1933   23.9139 C   0  0  2  0  0  0  0  0  0  0  0  0
    8.0862  -15.2931   22.6486 N   0  0  0  0  0  0  0  0  0  0  0  0
    8.9743  -16.5504   24.5298 C   0  0  0  0  0  0  0  0  0  0  0  0
    8.0080  -17.2966   24.7962 O   0  0  0  0  0  0  0  0  0  0  0  0
    9.2504  -13.2696   26.6840 C   0  0  0  0  0  0  0  0  0  0  0  0
    9.8197  -13.1871   27.9475 C   0  0  0  0  0  0  0  0  0  0  0  0
   10.2854  -17.0023   24.8150 N   0  0  0  0  0  0  0  0  0  0  0  0
   10.6673  -18.2931   25.3169 C   0  0  1  0  0  0  0  0  0  0  0  0
   11.2106  -19.2403   24.3081 C   0  0  0  0  0  0  0  0  0  0  0  0
   12.5806  -18.4089   23.4366 S   0  0  0  0  0  0  0  0  0  0  0  0
   11.4764  -18.2565   26.5692 C   0  0  0  0  0  0  0  0  0  0  0  0
   12.0020  -17.1952   26.9370 O   0  0  0  0  0  0  0  0  0  0  0  0
   11.6637  -19.3867   27.3485 O   0  0  0  0  0  0  0  0  0  0  0  0
  2  1  1  6
  2  4  1  0
  3  2  1  0
  4  6  1  0
  4  5  1  6
  6  7  2  0
  9  8  1  0
  9 19  2  0
 10  9  1  0
 11 10  2  0
 11 12  1  0
 12 18  2  0
 14 13  1  1
 13 12  1  0
 15 14  1  0
 15  6  1  0
 16 17  2  0
 16 14  1  0
 18 19  1  0
 20 16  1  0
 21 24  1  0
 21 20  1  0
 21 22  1  6
 23 22  1  0
 24 26  1  0
 25 24  2  0
M  END
$$$$
