VYC.pdb
     RDKit          3D

 26 26  0  0  1  0  0  0  0  0999 V2000
    6.6250  -13.2198   19.4577 C   0  0  0  0  0  0  0  0  0  0  0  0
    7.5835  -13.2146   20.6295 C   0  0  2  0  0  0  0  0  0  0  0  0
    8.8034  -12.4250   20.1949 C   0  0  0  0  0  0  0  0  0  0  0  0
    8.0204  -14.6083   20.9409 C   0  0  2  0  0  0  0  0  0  0  0  0
    6.8453  -15.4542   20.9484 N   0  0  0  0  0  0  0  0  0  0  0  0
    8.7578  -14.7775   22.1780 C   0  0  0  0  0  0  0  0  0  0  0  0
    9.8784  -14.2152   22.2963 O   0  0  0  0  0  0  0  0  0  0  0  0
    5.8555  -10.6969   26.8212 O   0  0  0  0  0  0  0  0  0  0  0  0
    6.5033  -11.9179   26.5571 C   0  0  0  0  0  0  0  0  0  0  0  0
    7.8258  -12.0777   26.8953 C   0  0  0  0  0  0  0  0  0  0  0  0
    8.4642  -13.2925   26.6307 C   0  0  0  0  0  0  0  0  0  0  0  0
    7.7916  -14.3349   26.0362 C   0  0  0  0  0  0  0  0  0  0  0  0
    8.4257  -15.6045   25.7498 C   0  0  0  0  0  0  0  0  0  0  0  0
    9.1405  -15.7031   24.4417 C   0  0  2  0  0  0  0  0  0  0  0  0
    8.3191  -15.5393   23.2961 N   0  0  0  0  0  0  0  0  0  0  0  0
    9.8485  -17.0387   24.4455 C   0  0  0  0  0  0  0  0  0  0  0  0
    9.2094  -18.0761   24.1678 O   0  0  0  0  0  0  0  0  0  0  0  0
    6.4676  -14.1400   25.7108 C   0  0  0  0  0  0  0  0  0  0  0  0
    5.8091  -12.9440   25.9623 C   0  0  0  0  0  0  0  0  0  0  0  0
   11.2252  -17.1474   24.7572 N   0  0  0  0  0  0  0  0  0  0  0  0
   12.2345  -17.8320   23.9979 C   0  0  1  0  0  0  0  0  0  0  0  0
   12.0862  -17.7612   22.5203 C   0  0  0  0  0  0  0  0  0  0  0  0
   11.8821  -19.4621   21.8935 S   0  0  0  0  0  0  0  0  0  0  0  0
   13.6319  -17.5749   24.4510 C   0  0  0  0  0  0  0  0  0  0  0  0
   14.0338  -16.4103   24.5915 O   0  0  0  0  0  0  0  0  0  0  0  0
   14.5109  -18.6104   24.7246 O   0  0  0  0  0  0  0  0  0  0  0  0
  2  1  1  6
  2  4  1  0
  3  2  1  0
  4  6  1  0
  4  5  1  1
  6  7  2  0
  9  8  1  0
  9 19  2  0
 10  9  1  0
 11 10  2  0
 11 12  1  0
 12 18  2  0
 14 13  1  1
 13 12  1  0
 15 14  1  0
 15  6  1  0
 16 17  2  0
 16 14  1  0
 18 19  1  0
 20 16  1  0
 21 24  1  0
 21 20  1  0
 21 22  1  6
 23 22  1  0
 24 26  1  0
 25 24  2  0
M  END
$$$$
