VYC.pdb
     RDKit          3D

 26 26  0  0  1  0  0  0  0  0999 V2000
    8.4965  -20.0609   18.3775 C   0  0  0  0  0  0  0  0  0  0  0  0
    8.8517  -19.1546   19.5369 C   0  0  2  0  0  0  0  0  0  0  0  0
    8.4604  -19.8900   20.8044 C   0  0  0  0  0  0  0  0  0  0  0  0
    8.0527  -17.8948   19.4666 C   0  0  2  0  0  0  0  0  0  0  0  0
    8.3204  -17.2661   18.1902 N   0  0  0  0  0  0  0  0  0  0  0  0
    8.2744  -16.9456   20.5402 C   0  0  0  0  0  0  0  0  0  0  0  0
    9.3535  -16.2967   20.5611 O   0  0  0  0  0  0  0  0  0  0  0  0
    7.7515  -12.2802   28.0476 O   0  0  0  0  0  0  0  0  0  0  0  0
    7.4439  -13.0070   26.8825 C   0  0  0  0  0  0  0  0  0  0  0  0
    7.1004  -12.3400   25.7309 C   0  0  0  0  0  0  0  0  0  0  0  0
    6.7959  -13.0669   24.5768 C   0  0  0  0  0  0  0  0  0  0  0  0
    6.8336  -14.4420   24.5714 C   0  0  0  0  0  0  0  0  0  0  0  0
    6.5235  -15.2220   23.3919 C   0  0  0  0  0  0  0  0  0  0  0  0
    7.6915  -15.7723   22.6405 C   0  0  2  0  0  0  0  0  0  0  0  0
    7.3612  -16.6751   21.5966 N   0  0  0  0  0  0  0  0  0  0  0  0
    8.5985  -16.4047   23.6713 C   0  0  0  0  0  0  0  0  0  0  0  0
    8.2829  -17.5016   24.1801 O   0  0  0  0  0  0  0  0  0  0  0  0
    7.1818  -15.0775   25.7426 C   0  0  0  0  0  0  0  0  0  0  0  0
    7.4889  -14.3804   26.9032 C   0  0  0  0  0  0  0  0  0  0  0  0
    9.8040  -15.7842   24.0789 N   0  0  0  0  0  0  0  0  0  0  0  0
   10.9178  -16.4050   24.7407 C   0  0  1  0  0  0  0  0  0  0  0  0
   12.2403  -16.2154   24.0887 C   0  0  0  0  0  0  0  0  0  0  0  0
   13.4304  -17.3394   24.8938 S   0  0  0  0  0  0  0  0  0  0  0  0
   10.9639  -16.1848   26.2150 C   0  0  0  0  0  0  0  0  0  0  0  0
   10.7123  -15.0642   26.6827 O   0  0  0  0  0  0  0  0  0  0  0  0
   11.2838  -17.2067   27.0943 O   0  0  0  0  0  0  0  0  0  0  0  0
  2  1  1  6
  2  4  1  0
  3  2  1  0
  4  6  1  0
  4  5  1  6
  6  7  2  0
  9  8  1  0
  9 19  2  0
 10  9  1  0
 11 10  2  0
 11 12  1  0
 12 18  2  0
 14 13  1  1
 13 12  1  0
 15 14  1  0
 15  6  1  0
 16 17  2  0
 16 14  1  0
 18 19  1  0
 20 16  1  0
 21 24  1  0
 21 20  1  0
 21 22  1  6
 23 22  1  0
 24 26  1  0
 25 24  2  0
M  END
$$$$
