VYC.pdb
     RDKit          3D

 26 26  0  0  1  0  0  0  0  0999 V2000
    9.8069  -21.3863   19.6046 C   0  0  0  0  0  0  0  0  0  0  0  0
   10.0771  -20.4265   20.7437 C   0  0  2  0  0  0  0  0  0  0  0  0
    9.1279  -20.7997   21.8664 C   0  0  0  0  0  0  0  0  0  0  0  0
    9.7673  -19.0282   20.3207 C   0  0  2  0  0  0  0  0  0  0  0  0
   10.5470  -18.7362   19.1362 N   0  0  0  0  0  0  0  0  0  0  0  0
    9.9874  -18.0021   21.3214 C   0  0  0  0  0  0  0  0  0  0  0  0
   11.1706  -17.7119   21.6407 O   0  0  0  0  0  0  0  0  0  0  0  0
    8.2235  -12.2694   17.9841 O   0  0  0  0  0  0  0  0  0  0  0  0
    8.2496  -12.9664   19.2063 C   0  0  0  0  0  0  0  0  0  0  0  0
    7.0828  -13.1670   19.9044 C   0  0  0  0  0  0  0  0  0  0  0  0
    7.1146  -13.8600   21.1176 C   0  0  0  0  0  0  0  0  0  0  0  0
    8.2956  -14.3468   21.6282 C   0  0  0  0  0  0  0  0  0  0  0  0
    8.3601  -15.0681   22.8817 C   0  0  0  0  0  0  0  0  0  0  0  0
    9.2761  -16.2476   22.9163 C   0  0  2  0  0  0  0  0  0  0  0  0
    8.9632  -17.2768   21.9906 N   0  0  0  0  0  0  0  0  0  0  0  0
    9.2700  -16.7471   24.3430 C   0  0  0  0  0  0  0  0  0  0  0  0
    8.1968  -17.1258   24.8590 O   0  0  0  0  0  0  0  0  0  0  0  0
    9.4454  -14.1276   20.9024 C   0  0  0  0  0  0  0  0  0  0  0  0
    9.4425  -13.4428   19.6948 C   0  0  0  0  0  0  0  0  0  0  0  0
   10.4551  -16.7980   25.1160 N   0  0  0  0  0  0  0  0  0  0  0  0
   10.6804  -17.5687   26.3073 C   0  0  1  0  0  0  0  0  0  0  0  0
   10.4785  -19.0353   26.1722 C   0  0  0  0  0  0  0  0  0  0  0  0
   10.6942  -19.7868   27.8204 S   0  0  0  0  0  0  0  0  0  0  0  0
   11.9319  -17.2232   27.0414 C   0  0  0  0  0  0  0  0  0  0  0  0
   12.9293  -16.8323   26.4168 O   0  0  0  0  0  0  0  0  0  0  0  0
   12.0192  -17.3260   28.4203 O   0  0  0  0  0  0  0  0  0  0  0  0
  2  1  1  6
  2  4  1  0
  3  2  1  0
  4  6  1  0
  4  5  1  6
  6  7  2  0
  9  8  1  0
  9 19  2  0
 10  9  1  0
 11 10  2  0
 11 12  1  0
 12 18  2  0
 14 13  1  1
 13 12  1  0
 15 14  1  0
 15  6  1  0
 16 17  2  0
 16 14  1  0
 18 19  1  0
 20 16  1  0
 21 24  1  0
 21 20  1  0
 21 22  1  6
 23 22  1  0
 24 26  1  0
 25 24  2  0
M  END
$$$$
