VYC.pdb
     RDKit          3D

 26 26  0  0  1  0  0  0  0  0999 V2000
    8.6667  -22.1020   20.0058 C   0  0  0  0  0  0  0  0  0  0  0  0
    9.0017  -20.8466   20.7825 C   0  0  2  0  0  0  0  0  0  0  0  0
    9.4115  -21.2882   22.1745 C   0  0  0  0  0  0  0  0  0  0  0  0
    7.7900  -19.9827   20.9085 C   0  0  2  0  0  0  0  0  0  0  0  0
    7.2702  -19.7448   19.5783 N   0  0  0  0  0  0  0  0  0  0  0  0
    7.9828  -18.7205   21.5958 C   0  0  0  0  0  0  0  0  0  0  0  0
    8.7527  -17.8647   21.0850 O   0  0  0  0  0  0  0  0  0  0  0  0
    7.6783  -11.6126   26.7889 O   0  0  0  0  0  0  0  0  0  0  0  0
    7.4046  -12.8486   26.1744 C   0  0  0  0  0  0  0  0  0  0  0  0
    7.4841  -14.0090   26.9067 C   0  0  0  0  0  0  0  0  0  0  0  0
    7.2113  -15.2338   26.2915 C   0  0  0  0  0  0  0  0  0  0  0  0
    6.8634  -15.3003   24.9622 C   0  0  0  0  0  0  0  0  0  0  0  0
    6.5752  -16.5537   24.2974 C   0  0  0  0  0  0  0  0  0  0  0  0
    7.6747  -17.1242   23.4625 C   0  0  2  0  0  0  0  0  0  0  0  0
    7.3661  -18.3533   22.8237 N   0  0  0  0  0  0  0  0  0  0  0  0
    8.8778  -17.2432   24.3700 C   0  0  0  0  0  0  0  0  0  0  0  0
    8.8742  -18.0881   25.2907 O   0  0  0  0  0  0  0  0  0  0  0  0
    6.7934  -14.1183   24.2588 C   0  0  0  0  0  0  0  0  0  0  0  0
    7.0592  -12.8882   24.8448 C   0  0  0  0  0  0  0  0  0  0  0  0
   10.0162  -16.4181   24.2044 N   0  0  0  0  0  0  0  0  0  0  0  0
   11.2415  -16.4711   24.9526 C   0  0  1  0  0  0  0  0  0  0  0  0
   12.3446  -15.6154   24.4417 C   0  0  0  0  0  0  0  0  0  0  0  0
   13.9128  -16.2564   25.1180 S   0  0  0  0  0  0  0  0  0  0  0  0
   11.0698  -16.3706   26.4307 C   0  0  0  0  0  0  0  0  0  0  0  0
   10.3743  -15.4648   26.9139 O   0  0  0  0  0  0  0  0  0  0  0  0
   11.6711  -17.2698   27.2965 O   0  0  0  0  0  0  0  0  0  0  0  0
  2  1  1  6
  2  4  1  0
  3  2  1  0
  4  6  1  0
  4  5  1  6
  6  7  2  0
  9  8  1  0
  9 19  2  0
 10  9  1  0
 11 10  2  0
 11 12  1  0
 12 18  2  0
 14 13  1  1
 13 12  1  0
 15 14  1  0
 15  6  1  0
 16 17  2  0
 16 14  1  0
 18 19  1  0
 20 16  1  0
 21 24  1  0
 21 20  1  0
 21 22  1  6
 23 22  1  0
 24 26  1  0
 25 24  2  0
M  END
$$$$
