VYC.pdb
     RDKit          3D

 26 26  0  0  1  0  0  0  0  0999 V2000
    9.3477  -20.1262   18.7086 C   0  0  0  0  0  0  0  0  0  0  0  0
    9.3868  -19.3931   20.0325 C   0  0  2  0  0  0  0  0  0  0  0  0
    8.2183  -19.9056   20.8525 C   0  0  0  0  0  0  0  0  0  0  0  0
    9.1923  -17.9286   19.8136 C   0  0  2  0  0  0  0  0  0  0  0  0
   10.2104  -17.4755   18.8894 N   0  0  0  0  0  0  0  0  0  0  0  0
    9.2069  -17.1043   21.0066 C   0  0  0  0  0  0  0  0  0  0  0  0
   10.2783  -17.0059   21.6611 O   0  0  0  0  0  0  0  0  0  0  0  0
    7.1126  -11.7848   27.7749 O   0  0  0  0  0  0  0  0  0  0  0  0
    7.1150  -12.4806   26.5517 C   0  0  0  0  0  0  0  0  0  0  0  0
    7.9015  -12.0385   25.5149 C   0  0  0  0  0  0  0  0  0  0  0  0
    7.9000  -12.7333   24.3023 C   0  0  0  0  0  0  0  0  0  0  0  0
    7.1236  -13.8552   24.1262 C   0  0  0  0  0  0  0  0  0  0  0  0
    7.1010  -14.5956   22.8823 C   0  0  0  0  0  0  0  0  0  0  0  0
    8.2109  -15.5746   22.6787 C   0  0  2  0  0  0  0  0  0  0  0  0
    8.0940  -16.3798   21.5159 N   0  0  0  0  0  0  0  0  0  0  0  0
    8.2794  -16.4058   23.9394 C   0  0  0  0  0  0  0  0  0  0  0  0
    7.4712  -17.3447   24.1035 O   0  0  0  0  0  0  0  0  0  0  0  0
    6.3479  -14.2698   25.1860 C   0  0  0  0  0  0  0  0  0  0  0  0
    6.3303  -13.5987   26.4011 C   0  0  0  0  0  0  0  0  0  0  0  0
    9.2406  -16.1480   24.9464 N   0  0  0  0  0  0  0  0  0  0  0  0
    9.7381  -17.0726   25.9269 C   0  0  1  0  0  0  0  0  0  0  0  0
   10.1993  -18.3836   25.3989 C   0  0  0  0  0  0  0  0  0  0  0  0
   10.2780  -19.5556   26.7945 S   0  0  0  0  0  0  0  0  0  0  0  0
   10.6886  -16.4799   26.9116 C   0  0  0  0  0  0  0  0  0  0  0  0
   11.0780  -15.3110   26.7711 O   0  0  0  0  0  0  0  0  0  0  0  0
   11.1590  -17.2031   27.9957 O   0  0  0  0  0  0  0  0  0  0  0  0
  2  1  1  6
  2  4  1  0
  3  2  1  0
  4  6  1  0
  4  5  1  6
  6  7  2  0
  9  8  1  0
  9 19  2  0
 10  9  1  0
 11 10  2  0
 11 12  1  0
 12 18  2  0
 14 13  1  1
 13 12  1  0
 15 14  1  0
 15  6  1  0
 16 17  2  0
 16 14  1  0
 18 19  1  0
 20 16  1  0
 21 24  1  0
 21 20  1  0
 21 22  1  6
 23 22  1  0
 24 26  1  0
 25 24  2  0
M  END
$$$$
