YEP.pdb
     RDKit          3D

 29 30  0  0  1  0  0  0  0  0999 V2000
   18.4321  -25.6234   -2.3826 O   0  0  0  0  0  0  0  0  0  0  0  0
   19.0364  -26.7936   -1.9046 C   0  0  0  0  0  0  0  0  0  0  0  0
   20.3536  -27.0887   -2.1374 C   0  0  0  0  0  0  0  0  0  0  0  0
   20.9084  -28.2587   -1.6445 C   0  0  0  0  0  0  0  0  0  0  0  0
   20.1616  -29.1652   -0.9058 C   0  0  0  0  0  0  0  0  0  0  0  0
   20.7453  -30.4254   -0.3708 C   0  0  0  0  0  0  0  0  0  0  0  0
   20.9709  -31.3414   -1.5476 C   0  0  2  0  0  0  0  0  0  0  0  0
   19.6856  -31.6851   -2.0924 N   0  0  0  0  0  0  0  0  0  0  0  0
   21.6746  -32.5968   -1.1374 C   0  0  0  0  0  0  0  0  0  0  0  0
   21.0124  -33.5935   -0.7500 O   0  0  0  0  0  0  0  0  0  0  0  0
   18.8322  -28.8281   -0.6931 C   0  0  0  0  0  0  0  0  0  0  0  0
   18.2761  -27.6675   -1.1803 C   0  0  0  0  0  0  0  0  0  0  0  0
   23.0879  -32.6246   -1.1990 N   0  0  0  0  0  0  0  0  0  0  0  0
   23.8654  -33.8220   -0.9347 C   0  0  1  0  0  0  0  0  0  0  0  0
   25.2486  -33.5507   -1.4922 C   0  0  0  0  0  0  0  0  0  0  0  0
   25.1039  -33.5774   -3.0111 C   0  0  0  0  0  0  0  0  0  0  0  0
   26.4257  -33.3789   -3.6672 C   0  0  0  0  0  0  0  0  0  0  0  0
   27.4814  -33.3018   -2.9928 O   0  0  0  0  0  0  0  0  0  0  0  0
   23.8582  -34.1719    0.4965 C   0  0  0  0  0  0  0  0  0  0  0  0
   24.0385  -33.2505    1.3666 O   0  0  0  0  0  0  0  0  0  0  0  0
   26.5187  -33.2743   -5.0454 O   0  0  0  0  0  0  0  0  0  0  0  0
   23.6605  -35.4842    1.0087 N   0  0  0  0  0  0  0  0  0  0  0  0
   23.2347  -36.6748    0.3038 C   0  0  0  0  0  0  0  0  0  0  0  0
   24.1488  -37.7362    0.9340 C   0  0  0  0  0  0  0  0  0  0  0  0
   23.8331  -37.4211    2.4087 C   0  0  0  0  0  0  0  0  0  0  0  0
   23.8038  -35.8897    2.4094 C   0  0  1  0  0  0  0  0  0  0  0  0
   25.0762  -35.4370    3.0020 C   0  0  0  0  0  0  0  0  0  0  0  0
   25.2974  -35.6344    4.2131 O   0  0  0  0  0  0  0  0  0  0  0  0
   26.0357  -34.7956    2.2442 O   0  0  0  0  0  0  0  0  0  0  0  0
  2  1  1  0
  2 12  2  0
  3  2  1  0
  4  3  2  0
  4  5  1  0
  5 11  2  0
  6  5  1  0
  7  9  1  0
  7  6  1  0
  7  8  1  1
  9 10  2  0
 11 12  1  0
 13 14  1  0
 13  9  1  0
 14 19  1  0
 15 16  1  0
 14 15  1  1
 16 17  1  0
 17 21  1  0
 17 18  2  0
 19 20  2  0
 22 19  1  0
 22 26  1  0
 23 24  1  0
 23 22  1  0
 25 24  1  0
 25 26  1  0
 26 27  1  6
 27 28  2  0
 27 29  1  0
M  END
$$$$
