YEP.pdb
     RDKit          3D

 29 30  0  0  1  0  0  0  0  0999 V2000
   33.5783   -4.4734  -15.8666 O   0  0  0  0  0  0  0  0  0  0  0  0
   34.6374   -4.9193  -15.0649 C   0  0  0  0  0  0  0  0  0  0  0  0
   34.5716   -6.0784  -14.3380 C   0  0  0  0  0  0  0  0  0  0  0  0
   35.6445   -6.4799  -13.5587 C   0  0  0  0  0  0  0  0  0  0  0  0
   36.8119   -5.7336  -13.4850 C   0  0  0  0  0  0  0  0  0  0  0  0
   37.9715   -6.1536  -12.6519 C   0  0  0  0  0  0  0  0  0  0  0  0
   37.6428   -5.7931  -11.2247 C   0  0  2  0  0  0  0  0  0  0  0  0
   37.8549   -4.3799  -11.0662 N   0  0  0  0  0  0  0  0  0  0  0  0
   38.5199   -6.5260  -10.2588 C   0  0  0  0  0  0  0  0  0  0  0  0
   39.6159   -6.0259   -9.8971 O   0  0  0  0  0  0  0  0  0  0  0  0
   36.8368   -4.5671  -14.2363 C   0  0  0  0  0  0  0  0  0  0  0  0
   35.7742   -4.1636  -15.0120 C   0  0  0  0  0  0  0  0  0  0  0  0
   38.0818   -7.7808   -9.7735 N   0  0  0  0  0  0  0  0  0  0  0  0
   38.8896   -8.6149   -8.9016 C   0  0  1  0  0  0  0  0  0  0  0  0
   37.9093   -9.4150   -8.0671 C   0  0  0  0  0  0  0  0  0  0  0  0
   38.7369  -10.4729   -7.3429 C   0  0  0  0  0  0  0  0  0  0  0  0
   37.8622  -11.3430   -6.5096 C   0  0  0  0  0  0  0  0  0  0  0  0
   36.6189  -11.3694   -6.6803 O   0  0  0  0  0  0  0  0  0  0  0  0
   39.8374   -9.4446   -9.6658 C   0  0  0  0  0  0  0  0  0  0  0  0
   39.4020  -10.1642  -10.6307 O   0  0  0  0  0  0  0  0  0  0  0  0
   38.4057  -12.1474   -5.5213 O   0  0  0  0  0  0  0  0  0  0  0  0
   41.2362   -9.5150   -9.4163 N   0  0  0  0  0  0  0  0  0  0  0  0
   42.0184   -8.7831   -8.4426 C   0  0  0  0  0  0  0  0  0  0  0  0
   42.9716   -9.8790   -7.9427 C   0  0  0  0  0  0  0  0  0  0  0  0
   43.4829  -10.3419   -9.3203 C   0  0  0  0  0  0  0  0  0  0  0  0
   42.2004  -10.3321  -10.1576 C   0  0  1  0  0  0  0  0  0  0  0  0
   41.7666  -11.7351  -10.2934 C   0  0  0  0  0  0  0  0  0  0  0  0
   40.8443  -12.1680   -9.5746 O   0  0  0  0  0  0  0  0  0  0  0  0
   42.3601  -12.5876  -11.2030 O   0  0  0  0  0  0  0  0  0  0  0  0
  2  1  1  0
  2 12  2  0
  3  2  1  0
  4  3  2  0
  4  5  1  0
  5 11  2  0
  6  5  1  0
  7  9  1  0
  7  6  1  0
  7  8  1  6
  9 10  2  0
 11 12  1  0
 13 14  1  0
 13  9  1  0
 14 19  1  0
 15 16  1  0
 14 15  1  6
 16 17  1  0
 17 21  1  0
 17 18  2  0
 19 20  2  0
 22 19  1  0
 22 26  1  0
 23 24  1  0
 23 22  1  0
 25 24  1  0
 25 26  1  0
 26 27  1  1
 27 28  2  0
 27 29  1  0
M  END
$$$$
