YEP.pdb
     RDKit          3D

 29 30  0  0  1  0  0  0  0  0999 V2000
   20.7331  -20.2446  -13.9368 O   0  0  0  0  0  0  0  0  0  0  0  0
   20.9658  -19.0088  -14.5547 C   0  0  0  0  0  0  0  0  0  0  0  0
   21.4731  -18.9050  -15.8229 C   0  0  0  0  0  0  0  0  0  0  0  0
   21.6868  -17.6607  -16.3936 C   0  0  0  0  0  0  0  0  0  0  0  0
   21.3990  -16.4868  -15.7122 C   0  0  0  0  0  0  0  0  0  0  0  0
   21.6237  -15.1441  -16.3137 C   0  0  0  0  0  0  0  0  0  0  0  0
   20.3146  -14.7095  -16.9239 C   0  0  2  0  0  0  0  0  0  0  0  0
   19.9968  -15.6253  -17.9857 N   0  0  0  0  0  0  0  0  0  0  0  0
   20.4058  -13.3265  -17.4880 C   0  0  0  0  0  0  0  0  0  0  0  0
   20.5216  -13.1577  -18.7291 O   0  0  0  0  0  0  0  0  0  0  0  0
   20.8870  -16.6368  -14.4310 C   0  0  0  0  0  0  0  0  0  0  0  0
   20.6728  -17.8700  -13.8593 C   0  0  0  0  0  0  0  0  0  0  0  0
   20.3581  -12.2321  -16.5926 N   0  0  0  0  0  0  0  0  0  0  0  0
   20.0256  -10.8827  -17.0133 C   0  0  1  0  0  0  0  0  0  0  0  0
   18.6449  -10.9691  -17.6328 C   0  0  0  0  0  0  0  0  0  0  0  0
   18.3309   -9.5720  -18.1600 C   0  0  0  0  0  0  0  0  0  0  0  0
   16.9687   -9.5318  -18.7600 C   0  0  0  0  0  0  0  0  0  0  0  0
   16.7575   -9.9551  -19.9225 O   0  0  0  0  0  0  0  0  0  0  0  0
   20.1190   -9.9252  -15.8975 C   0  0  0  0  0  0  0  0  0  0  0  0
   19.2792  -10.0029  -14.9345 O   0  0  0  0  0  0  0  0  0  0  0  0
   15.8984   -9.0229  -18.0426 O   0  0  0  0  0  0  0  0  0  0  0  0
   21.0921   -8.8925  -15.7954 N   0  0  0  0  0  0  0  0  0  0  0  0
   22.1749   -8.5782  -16.7034 C   0  0  0  0  0  0  0  0  0  0  0  0
   22.1237   -7.0430  -16.7068 C   0  0  0  0  0  0  0  0  0  0  0  0
   22.1623   -6.8389  -15.1802 C   0  0  0  0  0  0  0  0  0  0  0  0
   21.2252   -7.9450  -14.6857 C   0  0  1  0  0  0  0  0  0  0  0  0
   19.9462   -7.2989  -14.3371 C   0  0  0  0  0  0  0  0  0  0  0  0
   19.0216   -7.2699  -15.1731 O   0  0  0  0  0  0  0  0  0  0  0  0
   19.7450   -6.7211  -13.0993 O   0  0  0  0  0  0  0  0  0  0  0  0
  2  1  1  0
  2 12  2  0
  3  2  1  0
  4  3  2  0
  4  5  1  0
  5 11  2  0
  6  5  1  0
  7  9  1  0
  7  6  1  0
  7  8  1  6
  9 10  2  0
 11 12  1  0
 13 14  1  0
 13  9  1  0
 14 19  1  0
 15 16  1  0
 14 15  1  1
 16 17  1  0
 17 21  1  0
 17 18  2  0
 19 20  2  0
 22 19  1  0
 22 26  1  0
 23 24  1  0
 23 22  1  0
 25 24  1  0
 25 26  1  0
 26 27  1  6
 27 28  2  0
 27 29  1  0
M  END
$$$$
