YEP.pdb
     RDKit          3D

 29 30  0  0  1  0  0  0  0  0999 V2000
   15.1554  -17.9262  -15.5071 O   0  0  0  0  0  0  0  0  0  0  0  0
   16.3342  -18.5479  -15.0745 C   0  0  0  0  0  0  0  0  0  0  0  0
   17.5711  -17.9905  -15.2629 C   0  0  0  0  0  0  0  0  0  0  0  0
   18.7099  -18.6423  -14.8178 C   0  0  0  0  0  0  0  0  0  0  0  0
   18.6428  -19.8687  -14.1724 C   0  0  0  0  0  0  0  0  0  0  0  0
   19.8581  -20.5793  -13.6893 C   0  0  0  0  0  0  0  0  0  0  0  0
   20.6394  -20.9967  -14.9101 C   0  0  2  0  0  0  0  0  0  0  0  0
   19.9785  -22.1346  -15.4895 N   0  0  0  0  0  0  0  0  0  0  0  0
   22.0427  -21.3789  -14.5580 C   0  0  0  0  0  0  0  0  0  0  0  0
   22.2823  -22.5073  -14.0565 O   0  0  0  0  0  0  0  0  0  0  0  0
   17.3712  -20.3979  -14.0020 C   0  0  0  0  0  0  0  0  0  0  0  0
   16.2369  -19.7549  -14.4420 C   0  0  0  0  0  0  0  0  0  0  0  0
   23.0748  -20.4430  -14.8041 N   0  0  0  0  0  0  0  0  0  0  0  0
   24.4553  -20.6712  -14.4161 C   0  0  1  0  0  0  0  0  0  0  0  0
   25.3010  -19.9464  -15.4442 C   0  0  0  0  0  0  0  0  0  0  0  0
   26.7527  -20.1758  -15.0339 C   0  0  0  0  0  0  0  0  0  0  0  0
   27.6784  -19.7423  -16.1165 C   0  0  0  0  0  0  0  0  0  0  0  0
   27.6061  -18.5913  -16.6117 O   0  0  0  0  0  0  0  0  0  0  0  0
   24.7092  -20.2452  -13.0287 C   0  0  0  0  0  0  0  0  0  0  0  0
   24.5213  -19.0208  -12.7060 O   0  0  0  0  0  0  0  0  0  0  0  0
   28.6456  -20.6063  -16.6035 O   0  0  0  0  0  0  0  0  0  0  0  0
   25.1568  -21.1039  -11.9866 N   0  0  0  0  0  0  0  0  0  0  0  0
   25.3557  -22.5374  -12.0197 C   0  0  0  0  0  0  0  0  0  0  0  0
   26.6600  -22.6750  -11.2202 C   0  0  0  0  0  0  0  0  0  0  0  0
   26.2202  -21.8715   -9.9814 C   0  0  0  0  0  0  0  0  0  0  0  0
   25.4645  -20.6983  -10.6127 C   0  0  1  0  0  0  0  0  0  0  0  0
   26.3624  -19.5298  -10.5555 C   0  0  0  0  0  0  0  0  0  0  0  0
   27.0617  -19.2399  -11.5463 O   0  0  0  0  0  0  0  0  0  0  0  0
   26.4491  -18.7427   -9.4244 O   0  0  0  0  0  0  0  0  0  0  0  0
  2  1  1  0
  2 12  2  0
  3  2  1  0
  4  3  2  0
  4  5  1  0
  5 11  2  0
  6  5  1  0
  7  9  1  0
  7  6  1  0
  7  8  1  1
  9 10  2  0
 11 12  1  0
 13 14  1  0
 13  9  1  0
 14 19  1  0
 15 16  1  0
 14 15  1  6
 16 17  1  0
 17 21  1  0
 17 18  2  0
 19 20  2  0
 22 19  1  0
 22 26  1  0
 23 24  1  0
 23 22  1  0
 25 24  1  0
 25 26  1  0
 26 27  1  6
 27 28  2  0
 27 29  1  0
M  END
$$$$
