YEP.pdb
     RDKit          3D

 29 30  0  0  1  0  0  0  0  0999 V2000
   11.1532  -14.7172  -16.6794 O   0  0  0  0  0  0  0  0  0  0  0  0
   12.4478  -14.2665  -16.3894 C   0  0  0  0  0  0  0  0  0  0  0  0
   12.9159  -13.0517  -16.8153 C   0  0  0  0  0  0  0  0  0  0  0  0
   14.2042  -12.6477  -16.5042 C   0  0  0  0  0  0  0  0  0  0  0  0
   15.0592  -13.4471  -15.7591 C   0  0  0  0  0  0  0  0  0  0  0  0
   16.4451  -13.0251  -15.4181 C   0  0  0  0  0  0  0  0  0  0  0  0
   17.3104  -13.3476  -16.6106 C   0  0  2  0  0  0  0  0  0  0  0  0
   17.5287  -14.7686  -16.6264 N   0  0  0  0  0  0  0  0  0  0  0  0
   18.6344  -12.6549  -16.5299 C   0  0  0  0  0  0  0  0  0  0  0  0
   19.5670  -13.1538  -15.8491 O   0  0  0  0  0  0  0  0  0  0  0  0
   14.5457  -14.6690  -15.3478 C   0  0  0  0  0  0  0  0  0  0  0  0
   13.2671  -15.0752  -15.6538 C   0  0  0  0  0  0  0  0  0  0  0  0
   18.7995  -11.4388  -17.2341 N   0  0  0  0  0  0  0  0  0  0  0  0
   20.0464  -10.6948  -17.2414 C   0  0  1  0  0  0  0  0  0  0  0  0
   20.0196   -9.8517  -18.5008 C   0  0  0  0  0  0  0  0  0  0  0  0
   21.3536   -9.1119  -18.5417 C   0  0  0  0  0  0  0  0  0  0  0  0
   21.2724   -7.9342  -19.4491 C   0  0  0  0  0  0  0  0  0  0  0  0
   21.2530   -8.0743  -20.6963 O   0  0  0  0  0  0  0  0  0  0  0  0
   20.2221   -9.9132  -16.0049 C   0  0  0  0  0  0  0  0  0  0  0  0
   19.3255   -9.0633  -15.6693 O   0  0  0  0  0  0  0  0  0  0  0  0
   21.2161   -6.6501  -18.9324 O   0  0  0  0  0  0  0  0  0  0  0  0
   21.3348  -10.0268  -15.1259 N   0  0  0  0  0  0  0  0  0  0  0  0
   22.4839  -10.9009  -15.2310 C   0  0  0  0  0  0  0  0  0  0  0  0
   23.6154   -9.9580  -14.7950 C   0  0  0  0  0  0  0  0  0  0  0  0
   22.9822   -9.4849  -13.4726 C   0  0  0  0  0  0  0  0  0  0  0  0
   21.5157   -9.2928  -13.8707 C   0  0  1  0  0  0  0  0  0  0  0  0
   21.3008   -7.8422  -14.0277 C   0  0  0  0  0  0  0  0  0  0  0  0
   21.3304   -7.3337  -15.1658 O   0  0  0  0  0  0  0  0  0  0  0  0
   21.0660   -7.0269  -12.9384 O   0  0  0  0  0  0  0  0  0  0  0  0
  2  1  1  0
  2 12  2  0
  3  2  1  0
  4  3  2  0
  4  5  1  0
  5 11  2  0
  6  5  1  0
  7  9  1  0
  7  6  1  0
  7  8  1  1
  9 10  2  0
 11 12  1  0
 13 14  1  0
 13  9  1  0
 14 19  1  0
 15 16  1  0
 14 15  1  6
 16 17  1  0
 17 21  1  0
 17 18  2  0
 19 20  2  0
 22 19  1  0
 22 26  1  0
 23 24  1  0
 23 22  1  0
 25 24  1  0
 25 26  1  0
 26 27  1  6
 27 28  2  0
 27 29  1  0
M  END
$$$$
