YEP.pdb
     RDKit          3D

 29 30  0  0  1  0  0  0  0  0999 V2000
   16.6414  -18.8354  -10.3285 O   0  0  0  0  0  0  0  0  0  0  0  0
   17.8278  -19.3441  -10.8734 C   0  0  0  0  0  0  0  0  0  0  0  0
   18.1945  -20.6570  -10.7394 C   0  0  0  0  0  0  0  0  0  0  0  0
   19.3778  -21.1154  -11.2956 C   0  0  0  0  0  0  0  0  0  0  0  0
   20.2262  -20.2738  -12.0007 C   0  0  0  0  0  0  0  0  0  0  0  0
   21.4998  -20.7535  -12.6031 C   0  0  0  0  0  0  0  0  0  0  0  0
   21.2335  -20.9883  -14.0690 C   0  0  2  0  0  0  0  0  0  0  0  0
   20.3141  -22.0882  -14.1800 N   0  0  0  0  0  0  0  0  0  0  0  0
   22.4900  -21.3309  -14.8060 C   0  0  0  0  0  0  0  0  0  0  0  0
   23.1121  -22.3898  -14.5342 O   0  0  0  0  0  0  0  0  0  0  0  0
   19.8173  -18.9524  -12.1128 C   0  0  0  0  0  0  0  0  0  0  0  0
   18.6433  -18.4917  -11.5624 C   0  0  0  0  0  0  0  0  0  0  0  0
   22.9477  -20.4376  -15.8032 N   0  0  0  0  0  0  0  0  0  0  0  0
   24.1482  -20.6758  -16.5845 C   0  0  1  0  0  0  0  0  0  0  0  0
   23.7063  -20.6795  -18.0344 C   0  0  0  0  0  0  0  0  0  0  0  0
   23.6138  -22.1467  -18.4435 C   0  0  0  0  0  0  0  0  0  0  0  0
   23.3401  -22.2680  -19.9020 C   0  0  0  0  0  0  0  0  0  0  0  0
   23.2599  -21.2525  -20.6353 O   0  0  0  0  0  0  0  0  0  0  0  0
   25.1989  -19.6875  -16.2845 C   0  0  0  0  0  0  0  0  0  0  0  0
   24.9692  -18.4462  -16.4971 O   0  0  0  0  0  0  0  0  0  0  0  0
   23.1670  -23.5130  -20.4845 O   0  0  0  0  0  0  0  0  0  0  0  0
   26.4836  -20.0041  -15.7621 N   0  0  0  0  0  0  0  0  0  0  0  0
   26.9646  -21.2706  -15.2520 C   0  0  0  0  0  0  0  0  0  0  0  0
   28.3870  -21.3033  -15.8310 C   0  0  0  0  0  0  0  0  0  0  0  0
   28.8386  -19.9186  -15.3288 C   0  0  0  0  0  0  0  0  0  0  0  0
   27.5932  -19.0641  -15.5834 C   0  0  1  0  0  0  0  0  0  0  0  0
   27.8606  -18.2676  -16.7955 C   0  0  0  0  0  0  0  0  0  0  0  0
   28.3654  -17.1325  -16.6890 O   0  0  0  0  0  0  0  0  0  0  0  0
   27.5640  -18.7505  -18.0546 O   0  0  0  0  0  0  0  0  0  0  0  0
  2  1  1  0
  2 12  2  0
  3  2  1  0
  4  3  2  0
  4  5  1  0
  5 11  2  0
  6  5  1  0
  7  9  1  0
  7  6  1  0
  7  8  1  1
  9 10  2  0
 11 12  1  0
 13 14  1  0
 13  9  1  0
 14 19  1  0
 15 16  1  0
 14 15  1  6
 16 17  1  0
 17 21  1  0
 17 18  2  0
 19 20  2  0
 22 19  1  0
 22 26  1  0
 23 24  1  0
 23 22  1  0
 25 24  1  0
 25 26  1  0
 26 27  1  6
 27 28  2  0
 27 29  1  0
M  END
$$$$
