YEP.pdb
     RDKit          3D

 29 30  0  0  1  0  0  0  0  0999 V2000
   16.0058  -24.5183    2.8885 O   0  0  0  0  0  0  0  0  0  0  0  0
   16.4224  -23.1810    2.9241 C   0  0  0  0  0  0  0  0  0  0  0  0
   17.4384  -22.7490    3.7349 C   0  0  0  0  0  0  0  0  0  0  0  0
   17.8164  -21.4160    3.7366 C   0  0  0  0  0  0  0  0  0  0  0  0
   17.1890  -20.4791    2.9280 C   0  0  0  0  0  0  0  0  0  0  0  0
   17.5853  -19.0446    2.9203 C   0  0  0  0  0  0  0  0  0  0  0  0
   16.5757  -18.3036    3.7610 C   0  0  2  0  0  0  0  0  0  0  0  0
   15.8873  -17.3739    2.9071 N   0  0  0  0  0  0  0  0  0  0  0  0
   17.2366  -17.5456    4.8692 C   0  0  0  0  0  0  0  0  0  0  0  0
   17.8256  -16.4608    4.6278 O   0  0  0  0  0  0  0  0  0  0  0  0
   16.1655  -20.9585    2.1226 C   0  0  0  0  0  0  0  0  0  0  0  0
   15.7860  -22.2812    2.1169 C   0  0  0  0  0  0  0  0  0  0  0  0
   17.1776  -18.0819    6.1772 N   0  0  0  0  0  0  0  0  0  0  0  0
   17.7690  -17.4219    7.3275 C   0  0  1  0  0  0  0  0  0  0  0  0
   16.6650  -17.3200    8.3610 C   0  0  0  0  0  0  0  0  0  0  0  0
   15.7309  -16.2164    7.8730 C   0  0  0  0  0  0  0  0  0  0  0  0
   14.9009  -15.6978    8.9950 C   0  0  0  0  0  0  0  0  0  0  0  0
   13.7532  -16.1536    9.2197 O   0  0  0  0  0  0  0  0  0  0  0  0
   18.9688  -18.1310    7.8055 C   0  0  0  0  0  0  0  0  0  0  0  0
   18.9608  -19.4100    7.8566 O   0  0  0  0  0  0  0  0  0  0  0  0
   15.3811  -14.6942    9.8205 O   0  0  0  0  0  0  0  0  0  0  0  0
   20.1709  -17.4969    8.2259 N   0  0  0  0  0  0  0  0  0  0  0  0
   20.5073  -16.0892    8.1987 C   0  0  0  0  0  0  0  0  0  0  0  0
   21.2297  -15.9302    9.5449 C   0  0  0  0  0  0  0  0  0  0  0  0
   22.2359  -17.0835    9.3686 C   0  0  0  0  0  0  0  0  0  0  0  0
   21.3651  -18.1743    8.7376 C   0  0  1  0  0  0  0  0  0  0  0  0
   21.0523  -19.1433    9.8045 C   0  0  0  0  0  0  0  0  0  0  0  0
   19.9940  -19.0265   10.4532 O   0  0  0  0  0  0  0  0  0  0  0  0
   21.9080  -20.1844   10.1053 O   0  0  0  0  0  0  0  0  0  0  0  0
  2  1  1  0
  2 12  2  0
  3  2  1  0
  4  3  2  0
  4  5  1  0
  5 11  2  0
  6  5  1  0
  7  9  1  0
  7  6  1  0
  7  8  1  6
  9 10  2  0
 11 12  1  0
 13 14  1  0
 13  9  1  0
 14 19  1  0
 15 16  1  0
 14 15  1  1
 16 17  1  0
 17 21  1  0
 17 18  2  0
 19 20  2  0
 22 19  1  0
 22 26  1  0
 23 24  1  0
 23 22  1  0
 25 24  1  0
 25 26  1  0
 26 27  1  1
 27 28  2  0
 27 29  1  0
M  END
$$$$
