YEP.pdb
     RDKit          3D

 29 30  0  0  1  0  0  0  0  0999 V2000
   14.9045  -18.9530  -15.1347 O   0  0  0  0  0  0  0  0  0  0  0  0
   15.8043  -17.8793  -15.1089 C   0  0  0  0  0  0  0  0  0  0  0  0
   17.1172  -18.0290  -14.7479 C   0  0  0  0  0  0  0  0  0  0  0  0
   17.9708  -16.9377  -14.7372 C   0  0  0  0  0  0  0  0  0  0  0  0
   17.5352  -15.6676  -15.0869 C   0  0  0  0  0  0  0  0  0  0  0  0
   18.4417  -14.4873  -15.0795 C   0  0  0  0  0  0  0  0  0  0  0  0
   18.8116  -14.2063  -16.5146 C   0  0  2  0  0  0  0  0  0  0  0  0
   19.6830  -15.2595  -16.9602 N   0  0  0  0  0  0  0  0  0  0  0  0
   19.5245  -12.8976  -16.6502 C   0  0  0  0  0  0  0  0  0  0  0  0
   20.7599  -12.8259  -16.4250 O   0  0  0  0  0  0  0  0  0  0  0  0
   16.1989  -15.5601  -15.4458 C   0  0  0  0  0  0  0  0  0  0  0  0
   15.3467  -16.6405  -15.4583 C   0  0  0  0  0  0  0  0  0  0  0  0
   18.7740  -11.7613  -17.0342 N   0  0  0  0  0  0  0  0  0  0  0  0
   19.3664  -10.4472  -17.2094 C   0  0  1  0  0  0  0  0  0  0  0  0
   18.5769   -9.7802  -18.3181 C   0  0  0  0  0  0  0  0  0  0  0  0
   19.2716   -8.4488  -18.5886 C   0  0  0  0  0  0  0  0  0  0  0  0
   18.3413   -7.4984  -19.2581 C   0  0  0  0  0  0  0  0  0  0  0  0
   17.1501   -7.8137  -19.4966 O   0  0  0  0  0  0  0  0  0  0  0  0
   19.3841   -9.6848  -15.9488 C   0  0  0  0  0  0  0  0  0  0  0  0
   18.2908   -9.5150  -15.3050 O   0  0  0  0  0  0  0  0  0  0  0  0
   18.7739   -6.2373  -19.6343 O   0  0  0  0  0  0  0  0  0  0  0  0
   20.5467   -9.1057  -15.3685 N   0  0  0  0  0  0  0  0  0  0  0  0
   21.9159   -9.1679  -15.8344 C   0  0  0  0  0  0  0  0  0  0  0  0
   22.3866   -7.7305  -15.5662 C   0  0  0  0  0  0  0  0  0  0  0  0
   21.9578   -7.6528  -14.0885 C   0  0  0  0  0  0  0  0  0  0  0  0
   20.5948   -8.3509  -14.1136 C   0  0  1  0  0  0  0  0  0  0  0  0
   19.5699   -7.2923  -14.0506 C   0  0  0  0  0  0  0  0  0  0  0  0
   19.0091   -6.9134  -15.0978 O   0  0  0  0  0  0  0  0  0  0  0  0
   19.2130   -6.7057  -12.8527 O   0  0  0  0  0  0  0  0  0  0  0  0
  2  1  1  0
  2 12  2  0
  3  2  1  0
  4  3  2  0
  4  5  1  0
  5 11  2  0
  6  5  1  0
  7  9  1  0
  7  6  1  0
  7  8  1  1
  9 10  2  0
 11 12  1  0
 13 14  1  0
 13  9  1  0
 14 19  1  0
 15 16  1  0
 14 15  1  6
 16 17  1  0
 17 21  1  0
 17 18  2  0
 19 20  2  0
 22 19  1  0
 22 26  1  0
 23 24  1  0
 23 22  1  0
 25 24  1  0
 25 26  1  0
 26 27  1  6
 27 28  2  0
 27 29  1  0
M  END
$$$$
