YEP.pdb
     RDKit          3D

 29 30  0  0  1  0  0  0  0  0999 V2000
   12.1076  -13.7193  -20.2884 O   0  0  0  0  0  0  0  0  0  0  0  0
   13.1625  -13.3382  -19.4487 C   0  0  0  0  0  0  0  0  0  0  0  0
   13.5614  -14.0957  -18.3794 C   0  0  0  0  0  0  0  0  0  0  0  0
   14.6103  -13.6785  -17.5761 C   0  0  0  0  0  0  0  0  0  0  0  0
   15.2887  -12.4929  -17.8200 C   0  0  0  0  0  0  0  0  0  0  0  0
   16.4170  -12.0334  -16.9650 C   0  0  0  0  0  0  0  0  0  0  0  0
   17.6878  -12.2936  -17.7346 C   0  0  2  0  0  0  0  0  0  0  0  0
   18.0071  -13.6891  -17.6010 N   0  0  0  0  0  0  0  0  0  0  0  0
   18.8268  -11.4828  -17.2010 C   0  0  0  0  0  0  0  0  0  0  0  0
   19.4898  -11.8979  -16.2160 O   0  0  0  0  0  0  0  0  0  0  0  0
   14.8529  -11.7562  -18.9124 C   0  0  0  0  0  0  0  0  0  0  0  0
   13.8118  -12.1657  -19.7135 C   0  0  0  0  0  0  0  0  0  0  0  0
   19.1283  -10.2527  -17.8318 N   0  0  0  0  0  0  0  0  0  0  0  0
   20.2022   -9.3816  -17.3888 C   0  0  1  0  0  0  0  0  0  0  0  0
   20.8302   -8.8221  -18.6498 C   0  0  0  0  0  0  0  0  0  0  0  0
   21.9389   -9.7965  -19.0370 C   0  0  0  0  0  0  0  0  0  0  0  0
   23.1564   -9.5596  -18.2134 C   0  0  0  0  0  0  0  0  0  0  0  0
   23.4372  -10.3004  -17.2398 O   0  0  0  0  0  0  0  0  0  0  0  0
   19.7170   -8.3492  -16.4563 C   0  0  0  0  0  0  0  0  0  0  0  0
   18.7688   -7.5711  -16.8226 O   0  0  0  0  0  0  0  0  0  0  0  0
   24.0110   -8.5093  -18.5063 O   0  0  0  0  0  0  0  0  0  0  0  0
   20.2263   -8.1382  -15.1449 N   0  0  0  0  0  0  0  0  0  0  0  0
   21.1672   -8.9476  -14.3998 C   0  0  0  0  0  0  0  0  0  0  0  0
   22.0337   -7.8644  -13.7400 C   0  0  0  0  0  0  0  0  0  0  0  0
   20.8877   -7.0433  -13.1189 C   0  0  0  0  0  0  0  0  0  0  0  0
   19.8445   -7.0506  -14.2404 C   0  0  1  0  0  0  0  0  0  0  0  0
   19.9040   -5.7277  -14.8896 C   0  0  0  0  0  0  0  0  0  0  0  0
   20.5274   -5.5938  -15.9611 O   0  0  0  0  0  0  0  0  0  0  0  0
   19.2825   -4.6255  -14.3369 O   0  0  0  0  0  0  0  0  0  0  0  0
  2  1  1  0
  2 12  2  0
  3  2  1  0
  4  3  2  0
  4  5  1  0
  5 11  2  0
  6  5  1  0
  7  9  1  0
  7  6  1  0
  7  8  1  1
  9 10  2  0
 11 12  1  0
 13 14  1  0
 13  9  1  0
 14 19  1  0
 15 16  1  0
 14 15  1  6
 16 17  1  0
 17 21  1  0
 17 18  2  0
 19 20  2  0
 22 19  1  0
 22 26  1  0
 23 24  1  0
 23 22  1  0
 25 24  1  0
 25 26  1  0
 26 27  1  6
 27 28  2  0
 27 29  1  0
M  END
$$$$
