YEP.pdb
     RDKit          3D

 29 30  0  0  1  0  0  0  0  0999 V2000
   22.1584  -21.0326   -7.2714 O   0  0  0  0  0  0  0  0  0  0  0  0
   23.0704  -20.7753   -8.3035 C   0  0  0  0  0  0  0  0  0  0  0  0
   22.6869  -20.6714   -9.6144 C   0  0  0  0  0  0  0  0  0  0  0  0
   23.6246  -20.4157  -10.6017 C   0  0  0  0  0  0  0  0  0  0  0  0
   24.9708  -20.2571  -10.3054 C   0  0  0  0  0  0  0  0  0  0  0  0
   25.9881  -19.9821  -11.3564 C   0  0  0  0  0  0  0  0  0  0  0  0
   25.9333  -21.1293  -12.3341 C   0  0  2  0  0  0  0  0  0  0  0  0
   26.4877  -22.2875  -11.6874 N   0  0  0  0  0  0  0  0  0  0  0  0
   26.7282  -20.8361  -13.5676 C   0  0  0  0  0  0  0  0  0  0  0  0
   27.9829  -20.7698  -13.5087 O   0  0  0  0  0  0  0  0  0  0  0  0
   25.3164  -20.3699   -8.9661 C   0  0  0  0  0  0  0  0  0  0  0  0
   24.3893  -20.6237   -7.9813 C   0  0  0  0  0  0  0  0  0  0  0  0
   26.0320  -20.6388  -14.7835 N   0  0  0  0  0  0  0  0  0  0  0  0
   26.7045  -20.3861  -16.0453 C   0  0  1  0  0  0  0  0  0  0  0  0
   26.2745  -21.5025  -16.9761 C   0  0  0  0  0  0  0  0  0  0  0  0
   27.0966  -22.7246  -16.5771 C   0  0  0  0  0  0  0  0  0  0  0  0
   26.2131  -23.8026  -16.0535 C   0  0  0  0  0  0  0  0  0  0  0  0
   26.6896  -24.8751  -15.6084 O   0  0  0  0  0  0  0  0  0  0  0  0
   26.4113  -19.0365  -16.5585 C   0  0  0  0  0  0  0  0  0  0  0  0
   25.1966  -18.7051  -16.7889 O   0  0  0  0  0  0  0  0  0  0  0  0
   24.8369  -23.6436  -16.0466 O   0  0  0  0  0  0  0  0  0  0  0  0
   27.3916  -18.0409  -16.8260 N   0  0  0  0  0  0  0  0  0  0  0  0
   28.8058  -18.0591  -16.5173 C   0  0  0  0  0  0  0  0  0  0  0  0
   29.3966  -17.4419  -17.7938 C   0  0  0  0  0  0  0  0  0  0  0  0
   28.5157  -16.1785  -17.8305 C   0  0  0  0  0  0  0  0  0  0  0  0
   27.1427  -16.7343  -17.4407 C   0  0  1  0  0  0  0  0  0  0  0  0
   26.3528  -16.8345  -18.6821 C   0  0  0  0  0  0  0  0  0  0  0  0
   26.2905  -17.9227  -19.2876 O   0  0  0  0  0  0  0  0  0  0  0  0
   25.6755  -15.7459  -19.1947 O   0  0  0  0  0  0  0  0  0  0  0  0
  2  1  1  0
  2 12  2  0
  3  2  1  0
  4  3  2  0
  4  5  1  0
  5 11  2  0
  6  5  1  0
  7  9  1  0
  7  6  1  0
  7  8  1  1
  9 10  2  0
 11 12  1  0
 13 14  1  0
 13  9  1  0
 14 19  1  0
 15 16  1  0
 14 15  1  6
 16 17  1  0
 17 21  1  0
 17 18  2  0
 19 20  2  0
 22 19  1  0
 22 26  1  0
 23 24  1  0
 23 22  1  0
 25 24  1  0
 25 26  1  0
 26 27  1  6
 27 28  2  0
 27 29  1  0
M  END
$$$$
