YEP.pdb
     RDKit          3D

 29 30  0  0  1  0  0  0  0  0999 V2000
   27.8018  -20.9257   -6.3938 O   0  0  0  0  0  0  0  0  0  0  0  0
   27.6581  -20.6602   -7.7620 C   0  0  0  0  0  0  0  0  0  0  0  0
   28.7306  -20.5623   -8.6084 C   0  0  0  0  0  0  0  0  0  0  0  0
   28.5400  -20.2983   -9.9551 C   0  0  0  0  0  0  0  0  0  0  0  0
   27.2724  -20.1251  -10.4920 C   0  0  0  0  0  0  0  0  0  0  0  0
   27.0539  -19.8411  -11.9365 C   0  0  0  0  0  0  0  0  0  0  0  0
   26.8174  -21.1669  -12.6158 C   0  0  2  0  0  0  0  0  0  0  0  0
   28.0751  -21.6245  -13.1409 N   0  0  0  0  0  0  0  0  0  0  0  0
   25.8401  -21.0387  -13.7417 C   0  0  0  0  0  0  0  0  0  0  0  0
   26.1453  -20.3824  -14.7705 O   0  0  0  0  0  0  0  0  0  0  0  0
   26.2142  -20.2323   -9.6005 C   0  0  0  0  0  0  0  0  0  0  0  0
   26.3977  -20.4943   -8.2621 C   0  0  0  0  0  0  0  0  0  0  0  0
   24.5807  -21.6705  -13.6124 N   0  0  0  0  0  0  0  0  0  0  0  0
   23.6091  -21.7207  -14.6903 C   0  0  1  0  0  0  0  0  0  0  0  0
   23.4432  -23.1881  -15.0320 C   0  0  0  0  0  0  0  0  0  0  0  0
   24.7439  -23.6139  -15.7068 C   0  0  0  0  0  0  0  0  0  0  0  0
   25.1413  -24.9791  -15.2651 C   0  0  0  0  0  0  0  0  0  0  0  0
   26.2059  -25.5086  -15.6674 O   0  0  0  0  0  0  0  0  0  0  0  0
   22.3508  -21.0489  -14.3217 C   0  0  0  0  0  0  0  0  0  0  0  0
   21.7111  -21.4438  -13.2856 O   0  0  0  0  0  0  0  0  0  0  0  0
   24.3390  -25.6987  -14.3947 O   0  0  0  0  0  0  0  0  0  0  0  0
   21.7700  -19.9665  -15.0391 N   0  0  0  0  0  0  0  0  0  0  0  0
   22.3509  -19.1695  -16.0988 C   0  0  0  0  0  0  0  0  0  0  0  0
   21.1547  -19.0244  -17.0514 C   0  0  0  0  0  0  0  0  0  0  0  0
   20.1361  -18.5112  -16.0157 C   0  0  0  0  0  0  0  0  0  0  0  0
   20.4430  -19.3926  -14.8012 C   0  0  1  0  0  0  0  0  0  0  0  0
   19.3858  -20.4190  -14.7387 C   0  0  0  0  0  0  0  0  0  0  0  0
   18.3515  -20.2000  -14.0776 O   0  0  0  0  0  0  0  0  0  0  0  0
   19.5131  -21.6252  -15.3985 O   0  0  0  0  0  0  0  0  0  0  0  0
  2  1  1  0
  2 12  2  0
  3  2  1  0
  4  3  2  0
  4  5  1  0
  5 11  2  0
  6  5  1  0
  7  9  1  0
  7  6  1  0
  7  8  1  6
  9 10  2  0
 11 12  1  0
 13 14  1  0
 13  9  1  0
 14 19  1  0
 15 16  1  0
 14 15  1  1
 16 17  1  0
 17 21  1  0
 17 18  2  0
 19 20  2  0
 22 19  1  0
 22 26  1  0
 23 24  1  0
 23 22  1  0
 25 24  1  0
 25 26  1  0
 26 27  1  6
 27 28  2  0
 27 29  1  0
M  END
$$$$
