ERP.pdb
     RDKit          3D

 28 28  0  0  1  0  0  0  0  0999 V2000
    8.5445  -13.3520   18.5685 N   0  0  0  0  0  0  0  0  0  0  0  0
    8.7178  -14.4005   19.4922 C   0  0  1  0  0  0  0  0  0  0  0  0
   10.0978  -14.8873   19.7512 C   0  0  0  0  0  0  0  0  0  0  0  0
   11.1111  -13.9022   20.1878 C   0  0  0  0  0  0  0  0  0  0  0  0
   12.4813  -14.3681   20.3446 C   0  0  0  0  0  0  0  0  0  0  0  0
   12.7798  -15.5506   20.5499 O   0  0  0  0  0  0  0  0  0  0  0  0
    8.0553  -14.2124   20.8158 C   0  0  0  0  0  0  0  0  0  0  0  0
    7.7973  -13.0240   21.1211 O   0  0  0  0  0  0  0  0  0  0  0  0
   13.5148  -13.4453   20.2611 O   0  0  0  0  0  0  0  0  0  0  0  0
    7.1870  -18.8051   27.2709 N   0  0  0  0  0  0  0  0  0  0  0  0
    8.1206  -19.3686   26.3704 C   0  0  0  0  0  0  0  0  0  0  0  0
    9.2568  -19.8348   26.7688 N   0  0  0  0  0  0  0  0  0  0  0  0
    7.7860  -19.4161   24.9969 N   0  0  0  0  0  0  0  0  0  0  0  0
    6.7282  -18.6018   24.4050 C   0  0  0  0  0  0  0  0  0  0  0  0
    7.2809  -17.2531   24.0187 C   0  0  0  0  0  0  0  0  0  0  0  0
    6.3220  -16.3623   23.3183 C   0  0  0  0  0  0  0  0  0  0  0  0
    6.9900  -15.0481   22.9474 C   0  0  2  0  0  0  0  0  0  0  0  0
    7.7110  -15.2393   21.7162 N   0  0  0  0  0  0  0  0  0  0  0  0
    7.8199  -14.5427   24.0416 C   0  0  0  0  0  0  0  0  0  0  0  0
    9.0446  -14.9392   24.0163 O   0  0  0  0  0  0  0  0  0  0  0  0
    9.9286  -20.2389   26.0873 N   0  0  0  0  0  0  0  0  0  0  0  0
    7.4370  -13.6909   25.0919 C   0  0  0  0  0  0  0  0  0  0  0  0
    6.1496  -13.0891   25.3491 C   0  0  0  0  0  0  0  0  0  0  0  0
    6.2205  -12.5173   26.7739 C   0  0  0  0  0  0  0  0  0  0  0  0
    7.6867  -12.1281   26.8310 C   0  0  2  0  0  0  0  0  0  0  0  0
    8.3824  -13.2721   26.1395 C   0  0  0  0  0  0  0  0  0  0  0  0
    8.6194  -14.3794   27.0869 O   0  0  0  0  0  0  0  0  0  0  0  0
    7.9186  -15.4181   27.0301 O   0  0  0  0  0  0  0  0  0  0  0  0
  2  3  1  0
  2  1  1  1
  4  3  1  0
  5  9  1  0
  5  4  1  0
  6  5  2  0
  7  8  2  0
  7  2  1  0
 11 10  1  0
 11 12  2  0
 13 14  1  0
 13 11  1  0
 15 16  1  0
 15 14  1  0
 17 16  1  1
 17 18  1  0
 18  7  1  0
 19 17  1  0
 20 19  2  0
 21 19  1  0
 22 21  1  0
 23 24  1  0
 23 22  1  0
 24 25  1  0
 25 21  1  0
 26 28  1  0
 25 26  1  1
 27 26  2  0
M  END
$$$$
