ERP.pdb
     RDKit          3D

 28 28  0  0  1  0  0  0  0  0999 V2000
    8.3830  -12.7734   19.1098 N   0  0  0  0  0  0  0  0  0  0  0  0
    8.7185  -14.0166   19.6793 C   0  0  1  0  0  0  0  0  0  0  0  0
   10.1307  -14.4713   19.5914 C   0  0  0  0  0  0  0  0  0  0  0  0
   11.1918  -13.5223   19.9929 C   0  0  0  0  0  0  0  0  0  0  0  0
   12.5741  -13.9543   19.8456 C   0  0  0  0  0  0  0  0  0  0  0  0
   13.4736  -13.2248   19.4115 O   0  0  0  0  0  0  0  0  0  0  0  0
    8.2694  -14.2256   21.0867 C   0  0  0  0  0  0  0  0  0  0  0  0
    8.2731  -13.1996   21.8075 O   0  0  0  0  0  0  0  0  0  0  0  0
   12.9117  -15.2508   20.2084 O   0  0  0  0  0  0  0  0  0  0  0  0
    7.1158  -20.7629   27.7228 N   0  0  0  0  0  0  0  0  0  0  0  0
    7.1879  -19.4012   27.3479 C   0  0  0  0  0  0  0  0  0  0  0  0
    8.0916  -18.6102   27.8217 N   0  0  0  0  0  0  0  0  0  0  0  0
    6.2359  -18.9061   26.4264 N   0  0  0  0  0  0  0  0  0  0  0  0
    6.4987  -18.7858   24.9950 C   0  0  0  0  0  0  0  0  0  0  0  0
    6.7992  -17.3484   24.6525 C   0  0  0  0  0  0  0  0  0  0  0  0
    7.1245  -17.1013   23.2254 C   0  0  0  0  0  0  0  0  0  0  0  0
    7.3395  -15.6168   22.9779 C   0  0  2  0  0  0  0  0  0  0  0  0
    7.8561  -15.4510   21.6446 N   0  0  0  0  0  0  0  0  0  0  0  0
    8.1834  -15.0189   24.0132 C   0  0  0  0  0  0  0  0  0  0  0  0
    9.4196  -15.3763   23.9734 O   0  0  0  0  0  0  0  0  0  0  0  0
    8.1890  -17.6427   27.4562 N   0  0  0  0  0  0  0  0  0  0  0  0
    7.8025  -14.1175   25.0220 C   0  0  0  0  0  0  0  0  0  0  0  0
    6.4995  -13.5569   25.2938 C   0  0  0  0  0  0  0  0  0  0  0  0
    6.5991  -12.8902   26.6750 C   0  0  0  0  0  0  0  0  0  0  0  0
    8.0468  -12.4344   26.6458 C   0  0  2  0  0  0  0  0  0  0  0  0
    8.7674  -13.5898   26.0004 C   0  0  0  0  0  0  0  0  0  0  0  0
    9.0920  -14.6211   27.0059 O   0  0  0  0  0  0  0  0  0  0  0  0
    8.4809  -15.7165   27.0049 O   0  0  0  0  0  0  0  0  0  0  0  0
  2  3  1  0
  2  1  1  1
  4  3  1  0
  5  9  1  0
  5  4  1  0
  6  5  2  0
  7  8  2  0
  7  2  1  0
 11 10  1  0
 11 12  2  0
 13 14  1  0
 13 11  1  0
 15 16  1  0
 15 14  1  0
 17 16  1  1
 17 18  1  0
 18  7  1  0
 19 17  1  0
 20 19  2  0
 21 19  1  0
 22 21  1  0
 23 24  1  0
 23 22  1  0
 24 25  1  0
 25 21  1  0
 26 28  1  0
 25 26  1  1
 27 26  2  0
M  END
$$$$
