ERP.pdb
     RDKit          3D

 28 28  0  0  1  0  0  0  0  0999 V2000
   12.3044  -18.5279   22.9652 N   0  0  0  0  0  0  0  0  0  0  0  0
   12.7547  -17.3027   23.4931 C   0  0  1  0  0  0  0  0  0  0  0  0
   13.9428  -16.6636   22.8697 C   0  0  0  0  0  0  0  0  0  0  0  0
   14.0260  -16.6442   21.3931 C   0  0  0  0  0  0  0  0  0  0  0  0
   15.2027  -16.0336   20.7917 C   0  0  0  0  0  0  0  0  0  0  0  0
   16.2630  -16.6406   20.6000 O   0  0  0  0  0  0  0  0  0  0  0  0
   11.7134  -16.2465   23.6549 C   0  0  0  0  0  0  0  0  0  0  0  0
   12.1351  -15.1362   24.0570 O   0  0  0  0  0  0  0  0  0  0  0  0
   15.1425  -14.7006   20.4093 O   0  0  0  0  0  0  0  0  0  0  0  0
    6.7654  -12.9463   18.2605 N   0  0  0  0  0  0  0  0  0  0  0  0
    8.0541  -13.1105   18.8195 C   0  0  0  0  0  0  0  0  0  0  0  0
    9.1265  -12.8493   18.1498 N   0  0  0  0  0  0  0  0  0  0  0  0
    8.1550  -13.5748   20.1518 N   0  0  0  0  0  0  0  0  0  0  0  0
    6.9931  -13.8133   21.0036 C   0  0  0  0  0  0  0  0  0  0  0  0
    7.4456  -14.3165   22.3511 C   0  0  0  0  0  0  0  0  0  0  0  0
    8.4427  -15.4152   22.3050 C   0  0  0  0  0  0  0  0  0  0  0  0
    9.3529  -15.3593   23.5213 C   0  0  2  0  0  0  0  0  0  0  0  0
   10.3374  -16.4021   23.3974 N   0  0  0  0  0  0  0  0  0  0  0  0
    8.5860  -15.4206   24.7661 C   0  0  0  0  0  0  0  0  0  0  0  0
    8.4334  -16.6052   25.2471 O   0  0  0  0  0  0  0  0  0  0  0  0
   10.0605  -13.0872   18.5371 N   0  0  0  0  0  0  0  0  0  0  0  0
    8.0122  -14.3539   25.4789 C   0  0  0  0  0  0  0  0  0  0  0  0
    7.9192  -12.9609   25.1091 C   0  0  0  0  0  0  0  0  0  0  0  0
    6.9375  -12.3183   26.1018 C   0  0  0  0  0  0  0  0  0  0  0  0
    7.2315  -13.1465   27.3396 C   0  0  1  0  0  0  0  0  0  0  0  0
    7.3898  -14.5443   26.7992 C   0  0  0  0  0  0  0  0  0  0  0  0
    6.0715  -15.1931   26.6544 O   0  0  0  0  0  0  0  0  0  0  0  0
    5.5129  -15.2415   25.5324 O   0  0  0  0  0  0  0  0  0  0  0  0
  2  3  1  0
  2  1  1  6
  4  3  1  0
  5  9  1  0
  5  4  1  0
  6  5  2  0
  7  8  2  0
  7  2  1  0
 11 10  1  0
 11 12  2  0
 13 14  1  0
 13 11  1  0
 15 16  1  0
 15 14  1  0
 17 16  1  6
 17 18  1  0
 18  7  1  0
 19 17  1  0
 20 19  2  0
 21 19  1  0
 22 21  1  0
 23 24  1  0
 23 22  1  0
 24 25  1  0
 25 21  1  0
 26 28  1  0
 25 26  1  6
 27 26  2  0
M  END
$$$$
