ERP.pdb
     RDKit          3D

 28 28  0  0  1  0  0  0  0  0999 V2000
    7.4982  -15.4291   18.8424 N   0  0  0  0  0  0  0  0  0  0  0  0
    8.0949  -14.7101   19.8957 C   0  0  1  0  0  0  0  0  0  0  0  0
    8.5529  -13.3219   19.6275 C   0  0  0  0  0  0  0  0  0  0  0  0
    9.5264  -13.1111   18.5341 C   0  0  0  0  0  0  0  0  0  0  0  0
   10.8228  -13.7630   18.6501 C   0  0  0  0  0  0  0  0  0  0  0  0
   11.3990  -13.9474   19.7289 O   0  0  0  0  0  0  0  0  0  0  0  0
    7.3318  -14.6883   21.1776 C   0  0  0  0  0  0  0  0  0  0  0  0
    6.1669  -14.2312   21.0993 O   0  0  0  0  0  0  0  0  0  0  0  0
   11.4545  -14.2050   17.4959 O   0  0  0  0  0  0  0  0  0  0  0  0
    8.9881  -20.0834   24.3395 N   0  0  0  0  0  0  0  0  0  0  0  0
    8.7297  -19.9912   25.7269 C   0  0  0  0  0  0  0  0  0  0  0  0
    9.4653  -20.5950   26.5993 N   0  0  0  0  0  0  0  0  0  0  0  0
    7.6305  -19.2112   26.1558 N   0  0  0  0  0  0  0  0  0  0  0  0
    6.7224  -18.5365   25.2325 C   0  0  0  0  0  0  0  0  0  0  0  0
    7.3055  -17.2063   24.8273 C   0  0  0  0  0  0  0  0  0  0  0  0
    6.4397  -16.3887   23.9409 C   0  0  0  0  0  0  0  0  0  0  0  0
    7.0832  -15.0392   23.6661 C   0  0  2  0  0  0  0  0  0  0  0  0
    7.8102  -15.1291   22.4269 N   0  0  0  0  0  0  0  0  0  0  0  0
    7.9011  -14.5967   24.7960 C   0  0  0  0  0  0  0  0  0  0  0  0
    9.0361  -15.1944   24.9062 O   0  0  0  0  0  0  0  0  0  0  0  0
    9.2558  -20.5115   27.6133 N   0  0  0  0  0  0  0  0  0  0  0  0
    7.5922  -13.6133   25.7513 C   0  0  0  0  0  0  0  0  0  0  0  0
    6.3736  -12.8548   25.9120 C   0  0  0  0  0  0  0  0  0  0  0  0
    6.4770  -12.1619   27.2799 C   0  0  0  0  0  0  0  0  0  0  0  0
    7.9755  -11.9290   27.3468 C   0  0  2  0  0  0  0  0  0  0  0  0
    8.5556  -13.2014   26.7852 C   0  0  0  0  0  0  0  0  0  0  0  0
    8.6493  -14.2332   27.8371 O   0  0  0  0  0  0  0  0  0  0  0  0
    7.8419  -15.1930   27.8519 O   0  0  0  0  0  0  0  0  0  0  0  0
  2  3  1  0
  2  1  1  6
  4  3  1  0
  5  9  1  0
  5  4  1  0
  6  5  2  0
  7  8  2  0
  7  2  1  0
 11 10  1  0
 11 12  2  0
 13 14  1  0
 13 11  1  0
 15 16  1  0
 15 14  1  0
 17 16  1  1
 17 18  1  0
 18  7  1  0
 19 17  1  0
 20 19  2  0
 21 19  1  0
 22 21  1  0
 23 24  1  0
 23 22  1  0
 24 25  1  0
 25 21  1  0
 26 28  1  0
 25 26  1  1
 27 26  2  0
M  END
$$$$
