ERP.pdb
     RDKit          3D

 28 28  0  0  1  0  0  0  0  0999 V2000
    8.4203  -18.0285   17.1588 N   0  0  0  0  0  0  0  0  0  0  0  0
    9.0349  -18.6912   18.2385 C   0  0  1  0  0  0  0  0  0  0  0  0
   10.5193  -18.7572   18.2690 C   0  0  0  0  0  0  0  0  0  0  0  0
   11.2281  -19.0347   17.0008 C   0  0  0  0  0  0  0  0  0  0  0  0
   12.6834  -19.0465   17.0300 C   0  0  0  0  0  0  0  0  0  0  0  0
   13.3689  -18.0409   17.2500 O   0  0  0  0  0  0  0  0  0  0  0  0
    8.5788  -18.2752   19.5968 C   0  0  0  0  0  0  0  0  0  0  0  0
    8.4413  -17.0397   19.7601 O   0  0  0  0  0  0  0  0  0  0  0  0
   13.3470  -20.2438   16.8003 O   0  0  0  0  0  0  0  0  0  0  0  0
    6.4707  -19.6411   28.1218 N   0  0  0  0  0  0  0  0  0  0  0  0
    6.0606  -20.7616   27.3627 C   0  0  0  0  0  0  0  0  0  0  0  0
    5.6139  -21.8369   27.9206 N   0  0  0  0  0  0  0  0  0  0  0  0
    6.1477  -20.6873   25.9529 N   0  0  0  0  0  0  0  0  0  0  0  0
    7.4143  -20.7397   25.2281 C   0  0  0  0  0  0  0  0  0  0  0  0
    7.4994  -19.5793   24.2690 C   0  0  0  0  0  0  0  0  0  0  0  0
    7.7027  -19.9570   22.8479 C   0  0  0  0  0  0  0  0  0  0  0  0
    7.9179  -18.7182   21.9935 C   0  0  2  0  0  0  0  0  0  0  0  0
    8.3016  -19.1415   20.6722 N   0  0  0  0  0  0  0  0  0  0  0  0
    8.8714  -17.7988   22.6156 C   0  0  0  0  0  0  0  0  0  0  0  0
   10.0906  -18.2125   22.6257 O   0  0  0  0  0  0  0  0  0  0  0  0
    5.3005  -22.6399   27.3409 N   0  0  0  0  0  0  0  0  0  0  0  0
    8.6096  -16.5425   23.1887 C   0  0  0  0  0  0  0  0  0  0  0  0
    7.3452  -15.8625   23.3466 C   0  0  0  0  0  0  0  0  0  0  0  0
    7.6076  -14.6849   24.2987 C   0  0  0  0  0  0  0  0  0  0  0  0
    9.0373  -14.3476   23.9158 C   0  0  2  0  0  0  0  0  0  0  0  0
    9.6826  -15.6976   23.7378 C   0  0  0  0  0  0  0  0  0  0  0  0
   10.1357  -16.2278   25.0391 O   0  0  0  0  0  0  0  0  0  0  0  0
    9.5077  -17.1623   25.5919 O   0  0  0  0  0  0  0  0  0  0  0  0
  2  3  1  0
  2  1  1  6
  4  3  1  0
  5  9  1  0
  5  4  1  0
  6  5  2  0
  7  8  2  0
  7  2  1  0
 11 10  1  0
 11 12  2  0
 13 14  1  0
 13 11  1  0
 15 16  1  0
 15 14  1  0
 17 16  1  1
 17 18  1  0
 18  7  1  0
 19 17  1  0
 20 19  2  0
 21 19  1  0
 22 21  1  0
 23 24  1  0
 23 22  1  0
 24 25  1  0
 25 21  1  0
 26 28  1  0
 25 26  1  1
 27 26  2  0
M  END
$$$$
