ERP.pdb
     RDKit          3D

 28 28  0  0  1  0  0  0  0  0999 V2000
   10.1257  -15.7161   19.8318 N   0  0  0  0  0  0  0  0  0  0  0  0
    9.2686  -14.6278   20.0840 C   0  0  1  0  0  0  0  0  0  0  0  0
    8.3581  -14.1841   18.9965 C   0  0  0  0  0  0  0  0  0  0  0  0
    8.7537  -14.4694   17.6002 C   0  0  0  0  0  0  0  0  0  0  0  0
    7.8487  -14.0441   16.5422 C   0  0  0  0  0  0  0  0  0  0  0  0
    6.8048  -13.4144   16.7505 O   0  0  0  0  0  0  0  0  0  0  0  0
    8.4595  -14.7181   21.3343 C   0  0  0  0  0  0  0  0  0  0  0  0
    7.8007  -13.6905   21.6209 O   0  0  0  0  0  0  0  0  0  0  0  0
    8.1641  -14.3563   15.2270 O   0  0  0  0  0  0  0  0  0  0  0  0
    7.2014  -18.4884   28.2791 N   0  0  0  0  0  0  0  0  0  0  0  0
    8.1116  -19.0215   27.3370 C   0  0  0  0  0  0  0  0  0  0  0  0
    9.3673  -19.1585   27.6038 N   0  0  0  0  0  0  0  0  0  0  0  0
    7.6171  -19.4117   26.0705 N   0  0  0  0  0  0  0  0  0  0  0  0
    6.3856  -18.8775   25.4958 C   0  0  0  0  0  0  0  0  0  0  0  0
    6.6179  -17.4661   25.0186 C   0  0  0  0  0  0  0  0  0  0  0  0
    7.4855  -17.3468   23.8200 C   0  0  0  0  0  0  0  0  0  0  0  0
    7.6347  -15.8895   23.4139 C   0  0  2  0  0  0  0  0  0  0  0  0
    8.3856  -15.8368   22.1869 N   0  0  0  0  0  0  0  0  0  0  0  0
    8.2164  -15.0906   24.4932 C   0  0  0  0  0  0  0  0  0  0  0  0
    9.4582  -15.3318   24.7328 O   0  0  0  0  0  0  0  0  0  0  0  0
   10.0154  -19.5588   26.8974 N   0  0  0  0  0  0  0  0  0  0  0  0
    7.5843  -14.1109   25.2779 C   0  0  0  0  0  0  0  0  0  0  0  0
    6.1851  -13.7573   25.3352 C   0  0  0  0  0  0  0  0  0  0  0  0
    6.0216  -12.8522   26.5665 C   0  0  0  0  0  0  0  0  0  0  0  0
    7.3693  -12.1535   26.5631 C   0  0  2  0  0  0  0  0  0  0  0  0
    8.3361  -13.2538   26.2090 C   0  0  0  0  0  0  0  0  0  0  0  0
    8.7129  -14.0167   27.4155 O   0  0  0  0  0  0  0  0  0  0  0  0
    9.4499  -13.4951   28.2863 O   0  0  0  0  0  0  0  0  0  0  0  0
  2  3  1  0
  2  1  1  6
  4  3  1  0
  5  9  1  0
  5  4  1  0
  6  5  2  0
  7  8  2  0
  7  2  1  0
 11 10  1  0
 11 12  2  0
 13 14  1  0
 13 11  1  0
 15 16  1  0
 15 14  1  0
 17 16  1  1
 17 18  1  0
 18  7  1  0
 19 17  1  0
 20 19  2  0
 21 19  1  0
 22 21  1  0
 23 24  1  0
 23 22  1  0
 24 25  1  0
 25 21  1  0
 26 28  1  0
 25 26  1  1
 27 26  2  0
M  END
$$$$
