ERP.pdb
     RDKit          3D

 28 28  0  0  1  0  0  0  0  0999 V2000
   13.4898  -17.0125   21.2480 N   0  0  0  0  0  0  0  0  0  0  0  0
   12.5589  -17.5547   22.1547 C   0  0  1  0  0  0  0  0  0  0  0  0
   12.9777  -18.7176   22.9799 C   0  0  0  0  0  0  0  0  0  0  0  0
   14.2616  -18.6255   23.7084 C   0  0  0  0  0  0  0  0  0  0  0  0
   14.6987  -19.7957   24.4558 C   0  0  0  0  0  0  0  0  0  0  0  0
   14.0182  -20.8215   24.5751 O   0  0  0  0  0  0  0  0  0  0  0  0
   11.8983  -16.5756   23.0663 C   0  0  0  0  0  0  0  0  0  0  0  0
   12.6625  -15.7283   23.5861 O   0  0  0  0  0  0  0  0  0  0  0  0
   15.9429  -19.7700   25.0707 O   0  0  0  0  0  0  0  0  0  0  0  0
    7.6017  -11.9035   20.7562 N   0  0  0  0  0  0  0  0  0  0  0  0
    7.8890  -13.1789   20.2168 C   0  0  0  0  0  0  0  0  0  0  0  0
    7.7941  -13.4218   18.9523 N   0  0  0  0  0  0  0  0  0  0  0  0
    8.2909  -14.2078   21.1002 N   0  0  0  0  0  0  0  0  0  0  0  0
    7.3701  -14.8813   22.0118 C   0  0  0  0  0  0  0  0  0  0  0  0
    8.0933  -15.9859   22.7403 C   0  0  0  0  0  0  0  0  0  0  0  0
    8.4205  -15.6897   24.1576 C   0  0  0  0  0  0  0  0  0  0  0  0
    9.9263  -15.6808   24.3655 C   0  0  2  0  0  0  0  0  0  0  0  0
   10.5244  -16.5365   23.3745 N   0  0  0  0  0  0  0  0  0  0  0  0
   10.2784  -16.0387   25.7401 C   0  0  0  0  0  0  0  0  0  0  0  0
   10.7026  -17.2449   25.8909 O   0  0  0  0  0  0  0  0  0  0  0  0
    8.1368  -14.3212   18.5615 N   0  0  0  0  0  0  0  0  0  0  0  0
   10.2075  -15.2295   26.8870 C   0  0  0  0  0  0  0  0  0  0  0  0
    9.6447  -13.9073   27.0317 C   0  0  0  0  0  0  0  0  0  0  0  0
    9.5645  -13.6384   28.5427 C   0  0  0  0  0  0  0  0  0  0  0  0
   10.7832  -14.4107   29.0148 C   0  0  1  0  0  0  0  0  0  0  0  0
   10.7476  -15.6676   28.1843 C   0  0  0  0  0  0  0  0  0  0  0  0
    9.8518  -16.6668   28.8000 O   0  0  0  0  0  0  0  0  0  0  0  0
    8.7572  -16.9508   28.2575 O   0  0  0  0  0  0  0  0  0  0  0  0
  2  3  1  0
  2  1  1  1
  4  3  1  0
  5  9  1  0
  5  4  1  0
  6  5  2  0
  7  8  2  0
  7  2  1  0
 11 10  1  0
 11 12  2  0
 13 14  1  0
 13 11  1  0
 15 16  1  0
 15 14  1  0
 17 16  1  1
 17 18  1  0
 18  7  1  0
 19 17  1  0
 20 19  2  0
 21 19  1  0
 22 21  1  0
 23 24  1  0
 23 22  1  0
 24 25  1  0
 25 21  1  0
 26 28  1  0
 25 26  1  1
 27 26  2  0
M  END
$$$$
