ERP.pdb
     RDKit          3D

 28 28  0  0  1  0  0  0  0  0999 V2000
   10.8908  -15.4028   20.1258 N   0  0  0  0  0  0  0  0  0  0  0  0
   10.0849  -14.2653   20.3242 C   0  0  1  0  0  0  0  0  0  0  0  0
    9.4125  -13.6661   19.1421 C   0  0  0  0  0  0  0  0  0  0  0  0
    8.5932  -14.5517   18.2864 C   0  0  0  0  0  0  0  0  0  0  0  0
    7.9311  -13.9542   17.1359 C   0  0  0  0  0  0  0  0  0  0  0  0
    8.2442  -14.2010   15.9651 O   0  0  0  0  0  0  0  0  0  0  0  0
    9.0662  -14.3757   21.4087 C   0  0  0  0  0  0  0  0  0  0  0  0
    8.5055  -13.3006   21.7278 O   0  0  0  0  0  0  0  0  0  0  0  0
    6.8924  -13.0593   17.3526 O   0  0  0  0  0  0  0  0  0  0  0  0
    6.3070  -21.0802   27.2178 N   0  0  0  0  0  0  0  0  0  0  0  0
    6.8246  -19.7760   27.3944 C   0  0  0  0  0  0  0  0  0  0  0  0
    7.7796  -19.5282   28.2271 N   0  0  0  0  0  0  0  0  0  0  0  0
    6.2703  -18.7232   26.6296 N   0  0  0  0  0  0  0  0  0  0  0  0
    6.4230  -18.6236   25.1807 C   0  0  0  0  0  0  0  0  0  0  0  0
    6.7958  -17.2117   24.8048 C   0  0  0  0  0  0  0  0  0  0  0  0
    7.5669  -17.0842   23.5428 C   0  0  0  0  0  0  0  0  0  0  0  0
    7.8647  -15.6232   23.2464 C   0  0  2  0  0  0  0  0  0  0  0  0
    8.7019  -15.5608   22.0771 N   0  0  0  0  0  0  0  0  0  0  0  0
    8.4333  -14.9462   24.4126 C   0  0  0  0  0  0  0  0  0  0  0  0
    9.6108  -15.3457   24.7464 O   0  0  0  0  0  0  0  0  0  0  0  0
    8.1419  -18.5613   28.3407 N   0  0  0  0  0  0  0  0  0  0  0  0
    7.8499  -13.9308   25.1896 C   0  0  0  0  0  0  0  0  0  0  0  0
    6.5674  -13.2869   25.0272 C   0  0  0  0  0  0  0  0  0  0  0  0
    6.3218  -12.4887   26.3174 C   0  0  0  0  0  0  0  0  0  0  0  0
    7.7481  -12.1045   26.6673 C   0  0  2  0  0  0  0  0  0  0  0  0
    8.5356  -13.3510   26.3560 C   0  0  0  0  0  0  0  0  0  0  0  0
    8.4880  -14.2886   27.4955 O   0  0  0  0  0  0  0  0  0  0  0  0
    7.7912  -15.3292   27.4266 O   0  0  0  0  0  0  0  0  0  0  0  0
  2  3  1  0
  2  1  1  6
  4  3  1  0
  5  9  1  0
  5  4  1  0
  6  5  2  0
  7  8  2  0
  7  2  1  0
 11 10  1  0
 11 12  2  0
 13 14  1  0
 13 11  1  0
 15 16  1  0
 15 14  1  0
 17 16  1  1
 17 18  1  0
 18  7  1  0
 19 17  1  0
 20 19  2  0
 21 19  1  0
 22 21  1  0
 23 24  1  0
 23 22  1  0
 24 25  1  0
 25 21  1  0
 26 28  1  0
 25 26  1  1
 27 26  2  0
M  END
$$$$
