ERP.pdb
     RDKit          3D

 28 28  0  0  1  0  0  0  0  0999 V2000
   11.5525  -18.4643   21.5506 N   0  0  0  0  0  0  0  0  0  0  0  0
   12.4482  -17.6400   22.2585 C   0  0  1  0  0  0  0  0  0  0  0  0
   13.5824  -17.0335   21.5141 C   0  0  0  0  0  0  0  0  0  0  0  0
   13.8994  -17.5710   20.1731 C   0  0  0  0  0  0  0  0  0  0  0  0
   14.9606  -16.9198   19.4188 C   0  0  0  0  0  0  0  0  0  0  0  0
   15.2063  -17.1702   18.2328 O   0  0  0  0  0  0  0  0  0  0  0  0
   11.8240  -16.5605   23.0777 C   0  0  0  0  0  0  0  0  0  0  0  0
   12.6291  -15.7685   23.6223 O   0  0  0  0  0  0  0  0  0  0  0  0
   15.7439  -15.9661   20.0540 O   0  0  0  0  0  0  0  0  0  0  0  0
    7.5719  -12.6404   19.7989 N   0  0  0  0  0  0  0  0  0  0  0  0
    7.9192  -13.9938   19.5803 C   0  0  0  0  0  0  0  0  0  0  0  0
    8.4980  -14.3825   18.4937 N   0  0  0  0  0  0  0  0  0  0  0  0
    7.6177  -14.9371   20.5902 N   0  0  0  0  0  0  0  0  0  0  0  0
    7.0681  -14.5650   21.8910 C   0  0  0  0  0  0  0  0  0  0  0  0
    8.1920  -14.2824   22.8556 C   0  0  0  0  0  0  0  0  0  0  0  0
    8.3856  -15.3113   23.9079 C   0  0  0  0  0  0  0  0  0  0  0  0
    9.8621  -15.4685   24.2335 C   0  0  2  0  0  0  0  0  0  0  0  0
   10.4421  -16.3740   23.2764 N   0  0  0  0  0  0  0  0  0  0  0  0
   10.0625  -15.8767   25.6244 C   0  0  0  0  0  0  0  0  0  0  0  0
   10.2859  -17.1338   25.7901 O   0  0  0  0  0  0  0  0  0  0  0  0
    8.7858  -15.3736   18.3755 N   0  0  0  0  0  0  0  0  0  0  0  0
   10.0398  -15.0666   26.7727 C   0  0  0  0  0  0  0  0  0  0  0  0
    9.6321  -13.6872   26.9025 C   0  0  0  0  0  0  0  0  0  0  0  0
    9.5208  -13.4131   28.4107 C   0  0  0  0  0  0  0  0  0  0  0  0
   10.6184  -14.3253   28.9279 C   0  0  1  0  0  0  0  0  0  0  0  0
   10.4690  -15.5678   28.0885 C   0  0  0  0  0  0  0  0  0  0  0  0
    9.4360  -16.4545   28.6598 O   0  0  0  0  0  0  0  0  0  0  0  0
    9.6638  -17.0869   29.7188 O   0  0  0  0  0  0  0  0  0  0  0  0
  2  3  1  0
  2  1  1  6
  4  3  1  0
  5  9  1  0
  5  4  1  0
  6  5  2  0
  7  8  2  0
  7  2  1  0
 11 10  1  0
 11 12  2  0
 13 14  1  0
 13 11  1  0
 15 16  1  0
 15 14  1  0
 17 16  1  6
 17 18  1  0
 18  7  1  0
 19 17  1  0
 20 19  2  0
 21 19  1  0
 22 21  1  0
 23 24  1  0
 23 22  1  0
 24 25  1  0
 25 21  1  0
 26 28  1  0
 25 26  1  1
 27 26  2  0
M  END
$$$$
