ERP.pdb
     RDKit          3D

 28 28  0  0  1  0  0  0  0  0999 V2000
    8.1821  -12.6154   19.0268 N   0  0  0  0  0  0  0  0  0  0  0  0
    8.5507  -13.8294   19.6375 C   0  0  1  0  0  0  0  0  0  0  0  0
    9.9876  -14.2086   19.6356 C   0  0  0  0  0  0  0  0  0  0  0  0
   10.9593  -13.2503   20.2060 C   0  0  0  0  0  0  0  0  0  0  0  0
   12.3726  -13.5863   20.1122 C   0  0  0  0  0  0  0  0  0  0  0  0
   13.0674  -13.8898   21.0893 O   0  0  0  0  0  0  0  0  0  0  0  0
    8.0357  -14.0395   21.0219 C   0  0  0  0  0  0  0  0  0  0  0  0
    7.6662  -13.0006   21.6189 O   0  0  0  0  0  0  0  0  0  0  0  0
   12.9827  -13.5682   18.8655 O   0  0  0  0  0  0  0  0  0  0  0  0
    6.6738  -20.0404   28.5233 N   0  0  0  0  0  0  0  0  0  0  0  0
    7.2348  -19.6621   27.2814 C   0  0  0  0  0  0  0  0  0  0  0  0
    8.4148  -20.0430   26.9217 N   0  0  0  0  0  0  0  0  0  0  0  0
    6.4692  -18.8429   26.4192 N   0  0  0  0  0  0  0  0  0  0  0  0
    6.7518  -18.7019   24.9935 C   0  0  0  0  0  0  0  0  0  0  0  0
    6.8765  -17.2409   24.6421 C   0  0  0  0  0  0  0  0  0  0  0  0
    7.1898  -16.9656   23.2175 C   0  0  0  0  0  0  0  0  0  0  0  0
    7.3656  -15.4728   22.9901 C   0  0  2  0  0  0  0  0  0  0  0  0
    7.9385  -15.2790   21.6838 N   0  0  0  0  0  0  0  0  0  0  0  0
    8.1390  -14.8552   24.0680 C   0  0  0  0  0  0  0  0  0  0  0  0
    9.3978  -15.1248   24.0507 O   0  0  0  0  0  0  0  0  0  0  0  0
    8.7889  -19.7868   25.9871 N   0  0  0  0  0  0  0  0  0  0  0  0
    7.6704  -14.0186   25.0955 C   0  0  0  0  0  0  0  0  0  0  0  0
    6.3162  -13.6101   25.3870 C   0  0  0  0  0  0  0  0  0  0  0  0
    6.3545  -12.9599   26.7790 C   0  0  0  0  0  0  0  0  0  0  0  0
    7.7428  -12.3465   26.7473 C   0  0  2  0  0  0  0  0  0  0  0  0
    8.5804  -13.4042   26.0760 C   0  0  0  0  0  0  0  0  0  0  0  0
    9.0261  -14.4102   27.0605 O   0  0  0  0  0  0  0  0  0  0  0  0
    9.8714  -14.1043   27.9353 O   0  0  0  0  0  0  0  0  0  0  0  0
  2  3  1  0
  2  1  1  1
  4  3  1  0
  5  9  1  0
  5  4  1  0
  6  5  2  0
  7  8  2  0
  7  2  1  0
 11 10  1  0
 11 12  2  0
 13 14  1  0
 13 11  1  0
 15 16  1  0
 15 14  1  0
 17 16  1  1
 17 18  1  0
 18  7  1  0
 19 17  1  0
 20 19  2  0
 21 19  1  0
 22 21  1  0
 23 24  1  0
 23 22  1  0
 24 25  1  0
 25 21  1  0
 26 28  1  0
 25 26  1  1
 27 26  2  0
M  END
$$$$
