ERP.pdb
     RDKit          3D

 28 28  0  0  1  0  0  0  0  0999 V2000
   11.8681  -16.8360   20.0933 N   0  0  0  0  0  0  0  0  0  0  0  0
   11.7333  -17.3287   21.4054 C   0  0  1  0  0  0  0  0  0  0  0  0
   12.8727  -18.0794   21.9943 C   0  0  0  0  0  0  0  0  0  0  0  0
   13.7746  -18.8064   21.0745 C   0  0  0  0  0  0  0  0  0  0  0  0
   15.1971  -18.8052   21.3836 C   0  0  0  0  0  0  0  0  0  0  0  0
   16.0536  -18.2973   20.6502 O   0  0  0  0  0  0  0  0  0  0  0  0
   11.2771  -16.3387   22.4242 C   0  0  0  0  0  0  0  0  0  0  0  0
   12.1081  -15.4447   22.7114 O   0  0  0  0  0  0  0  0  0  0  0  0
   15.6259  -19.4028   22.5608 O   0  0  0  0  0  0  0  0  0  0  0  0
    7.1120  -12.6056   19.9165 N   0  0  0  0  0  0  0  0  0  0  0  0
    7.7467  -13.8368   19.6309 C   0  0  0  0  0  0  0  0  0  0  0  0
    8.2616  -14.0864   18.4736 N   0  0  0  0  0  0  0  0  0  0  0  0
    7.8118  -14.8128   20.6526 N   0  0  0  0  0  0  0  0  0  0  0  0
    7.0028  -14.7518   21.8668 C   0  0  0  0  0  0  0  0  0  0  0  0
    7.8365  -14.2243   23.0071 C   0  0  0  0  0  0  0  0  0  0  0  0
    8.1497  -15.2185   24.0639 C   0  0  0  0  0  0  0  0  0  0  0  0
    9.6489  -15.4579   24.1418 C   0  0  2  0  0  0  0  0  0  0  0  0
   10.0228  -16.3369   23.0650 N   0  0  0  0  0  0  0  0  0  0  0  0
   10.0443  -15.9469   25.4633 C   0  0  0  0  0  0  0  0  0  0  0  0
   10.3557  -17.1955   25.5046 O   0  0  0  0  0  0  0  0  0  0  0  0
    8.8001  -14.9603   18.3140 N   0  0  0  0  0  0  0  0  0  0  0  0
   10.1211  -15.2207   26.6640 C   0  0  0  0  0  0  0  0  0  0  0  0
    9.6673  -13.8783   26.9437 C   0  0  0  0  0  0  0  0  0  0  0  0
    9.7245  -13.7158   28.4709 C   0  0  0  0  0  0  0  0  0  0  0  0
   10.9178  -14.5992   28.7873 C   0  0  1  0  0  0  0  0  0  0  0  0
   10.7277  -15.7870   27.8798 C   0  0  0  0  0  0  0  0  0  0  0  0
    9.8133  -16.7672   28.4987 O   0  0  0  0  0  0  0  0  0  0  0  0
    8.6487  -16.9099   28.0552 O   0  0  0  0  0  0  0  0  0  0  0  0
  2  3  1  0
  2  1  1  6
  4  3  1  0
  5  9  1  0
  5  4  1  0
  6  5  2  0
  7  8  2  0
  7  2  1  0
 11 10  1  0
 11 12  2  0
 13 14  1  0
 13 11  1  0
 15 16  1  0
 15 14  1  0
 17 16  1  1
 17 18  1  0
 18  7  1  0
 19 17  1  0
 20 19  2  0
 21 19  1  0
 22 21  1  0
 23 24  1  0
 23 22  1  0
 24 25  1  0
 25 21  1  0
 26 28  1  0
 25 26  1  1
 27 26  2  0
M  END
$$$$
