ERP.pdb
     RDKit          3D

 28 28  0  0  1  0  0  0  0  0999 V2000
    7.7088  -12.8179   18.8741 N   0  0  0  0  0  0  0  0  0  0  0  0
    8.5456  -13.6503   19.6418 C   0  0  1  0  0  0  0  0  0  0  0  0
    9.9992  -13.3431   19.6785 C   0  0  0  0  0  0  0  0  0  0  0  0
   10.8788  -14.2400   20.4594 C   0  0  0  0  0  0  0  0  0  0  0  0
   12.2851  -13.8796   20.5671 C   0  0  0  0  0  0  0  0  0  0  0  0
   12.8417  -13.6192   21.6403 O   0  0  0  0  0  0  0  0  0  0  0  0
    8.1049  -13.8916   21.0466 C   0  0  0  0  0  0  0  0  0  0  0  0
    7.9400  -12.8602   21.7404 O   0  0  0  0  0  0  0  0  0  0  0  0
   13.0510  -13.8222   19.4109 O   0  0  0  0  0  0  0  0  0  0  0  0
    8.3632  -20.7618   26.7164 N   0  0  0  0  0  0  0  0  0  0  0  0
    7.6073  -19.5989   26.4401 C   0  0  0  0  0  0  0  0  0  0  0  0
    7.2070  -18.8068   27.3777 N   0  0  0  0  0  0  0  0  0  0  0  0
    7.2886  -19.3083   25.0930 N   0  0  0  0  0  0  0  0  0  0  0  0
    6.0972  -18.5618   24.6983 C   0  0  0  0  0  0  0  0  0  0  0  0
    6.4605  -17.1198   24.4490 C   0  0  0  0  0  0  0  0  0  0  0  0
    7.0927  -16.8534   23.1325 C   0  0  0  0  0  0  0  0  0  0  0  0
    7.3216  -15.3625   22.9440 C   0  0  2  0  0  0  0  0  0  0  0  0
    7.8694  -15.1520   21.6295 N   0  0  0  0  0  0  0  0  0  0  0  0
    8.1450  -14.8078   24.0191 C   0  0  0  0  0  0  0  0  0  0  0  0
    9.3988  -15.0886   23.9369 O   0  0  0  0  0  0  0  0  0  0  0  0
    6.6628  -17.9521   27.1487 N   0  0  0  0  0  0  0  0  0  0  0  0
    7.7282  -14.0196   25.1055 C   0  0  0  0  0  0  0  0  0  0  0  0
    6.3928  -13.6035   25.4656 C   0  0  0  0  0  0  0  0  0  0  0  0
    6.4913  -13.0300   26.8881 C   0  0  0  0  0  0  0  0  0  0  0  0
    7.8894  -12.4404   26.8403 C   0  0  2  0  0  0  0  0  0  0  0  0
    8.6828  -13.4750   26.0847 C   0  0  0  0  0  0  0  0  0  0  0  0
    9.1422  -14.5402   26.9980 O   0  0  0  0  0  0  0  0  0  0  0  0
    8.6316  -15.6844   26.9391 O   0  0  0  0  0  0  0  0  0  0  0  0
  2  3  1  0
  2  1  1  1
  4  3  1  0
  5  9  1  0
  5  4  1  0
  6  5  2  0
  7  8  2  0
  7  2  1  0
 11 10  1  0
 11 12  2  0
 13 14  1  0
 13 11  1  0
 15 16  1  0
 15 14  1  0
 17 16  1  1
 17 18  1  0
 18  7  1  0
 19 17  1  0
 20 19  2  0
 21 19  1  0
 22 21  1  0
 23 24  1  0
 23 22  1  0
 24 25  1  0
 25 21  1  0
 26 28  1  0
 25 26  1  1
 27 26  2  0
M  END
$$$$
