ERP.pdb
     RDKit          3D

 28 28  0  0  1  0  0  0  0  0999 V2000
   14.2832  -17.6356   20.5182 N   0  0  0  0  0  0  0  0  0  0  0  0
   13.0343  -18.2563   20.7118 C   0  0  1  0  0  0  0  0  0  0  0  0
   13.0140  -19.6390   21.2562 C   0  0  0  0  0  0  0  0  0  0  0  0
   13.7724  -19.9077   22.4973 C   0  0  0  0  0  0  0  0  0  0  0  0
   13.8335  -21.2846   22.9659 C   0  0  0  0  0  0  0  0  0  0  0  0
   13.0431  -21.7598   23.7900 O   0  0  0  0  0  0  0  0  0  0  0  0
   12.0285  -17.4614   21.4753 C   0  0  0  0  0  0  0  0  0  0  0  0
   12.5006  -16.7115   22.3624 O   0  0  0  0  0  0  0  0  0  0  0  0
   14.8268  -22.1167   22.4683 O   0  0  0  0  0  0  0  0  0  0  0  0
    8.0007  -13.1674   17.5209 N   0  0  0  0  0  0  0  0  0  0  0  0
    7.6769  -13.4655   18.8649 C   0  0  0  0  0  0  0  0  0  0  0  0
    8.0678  -12.7182   19.8425 N   0  0  0  0  0  0  0  0  0  0  0  0
    6.9016  -14.6184   19.1301 N   0  0  0  0  0  0  0  0  0  0  0  0
    6.4700  -14.9980   20.4725 C   0  0  0  0  0  0  0  0  0  0  0  0
    7.6759  -15.2486   21.3423 C   0  0  0  0  0  0  0  0  0  0  0  0
    8.5929  -16.3066   20.8491 C   0  0  0  0  0  0  0  0  0  0  0  0
    9.6989  -16.5656   21.8593 C   0  0  2  0  0  0  0  0  0  0  0  0
   10.6343  -17.4924   21.2777 N   0  0  0  0  0  0  0  0  0  0  0  0
    9.1564  -17.0077   23.1445 C   0  0  0  0  0  0  0  0  0  0  0  0
    8.9650  -18.2772   23.2405 O   0  0  0  0  0  0  0  0  0  0  0  0
    7.8652  -12.9875   20.8251 N   0  0  0  0  0  0  0  0  0  0  0  0
    8.8300  -16.2178   24.2603 C   0  0  0  0  0  0  0  0  0  0  0  0
    8.7971  -14.7785   24.3752 C   0  0  0  0  0  0  0  0  0  0  0  0
    8.0864  -14.4705   25.7027 C   0  0  0  0  0  0  0  0  0  0  0  0
    8.5335  -15.6646   26.5264 C   0  0  1  0  0  0  0  0  0  0  0  0
    8.4562  -16.8129   25.5537 C   0  0  0  0  0  0  0  0  0  0  0  0
    7.0803  -17.3451   25.4931 O   0  0  0  0  0  0  0  0  0  0  0  0
    6.3650  -17.1293   24.4856 O   0  0  0  0  0  0  0  0  0  0  0  0
  2  3  1  0
  2  1  1  1
  4  3  1  0
  5  9  1  0
  5  4  1  0
  6  5  2  0
  7  8  2  0
  7  2  1  0
 11 10  1  0
 11 12  2  0
 13 14  1  0
 13 11  1  0
 15 16  1  0
 15 14  1  0
 17 16  1  6
 17 18  1  0
 18  7  1  0
 19 17  1  0
 20 19  2  0
 21 19  1  0
 22 21  1  0
 23 24  1  0
 23 22  1  0
 24 25  1  0
 25 21  1  0
 26 28  1  0
 25 26  1  6
 27 26  2  0
M  END
$$$$
