IHK.pdb
     RDKit          3D

 28 28  0  0  1  0  0  0  0  0999 V2000
   17.7337  -20.8941  -13.0716 C   0  0  0  0  0  0  0  0  0  0  0  0
   18.6727  -21.9623  -12.6251 C   0  0  0  0  0  0  0  0  0  0  0  0
   18.0894  -22.9820  -11.6856 C   0  0  2  0  0  0  0  0  0  0  0  0
   17.6705  -22.2563  -10.4030 C   0  0  0  0  0  0  0  0  0  0  0  0
   19.0765  -24.0576  -11.4055 C   0  0  2  0  0  0  0  0  0  0  0  0
   19.6059  -24.5891  -12.6179 N   0  0  0  0  0  0  0  0  0  0  0  0
   18.5497  -25.1048  -10.4943 C   0  0  0  0  0  0  0  0  0  0  0  0
   17.5225  -25.7401  -10.8059 O   0  0  0  0  0  0  0  0  0  0  0  0
   19.1402  -25.4591   -9.2463 N   0  0  0  0  0  0  0  0  0  0  0  0
   18.6212  -26.4303   -8.3560 C   0  0  1  0  0  0  0  0  0  0  0  0
   19.2445  -27.7460   -8.2625 C   0  0  0  0  0  0  0  0  0  0  0  0
   19.4343  -28.5433   -9.4577 C   0  0  0  0  0  0  0  0  0  0  0  0
   19.1338  -28.3544  -10.7598 C   0  0  0  0  0  0  0  0  0  0  0  0
   19.5407  -29.4190  -11.5164 N   0  0  0  0  0  0  0  0  0  0  0  0
   20.0974  -30.2563  -10.6246 C   0  0  0  0  0  0  0  0  0  0  0  0
   20.0492  -29.7652   -9.3989 N   0  0  0  0  0  0  0  0  0  0  0  0
   18.4136  -25.8055   -6.9960 C   0  0  0  0  0  0  0  0  0  0  0  0
   19.3084  -25.0238   -6.6041 O   0  0  0  0  0  0  0  0  0  0  0  0
   17.2979  -26.0630   -6.1935 N   0  0  0  0  0  0  0  0  0  0  0  0
   17.0908  -25.4529   -4.8841 C   0  0  1  0  0  0  0  0  0  0  0  0
   15.6847  -24.9098   -4.7736 C   0  0  0  0  0  0  0  0  0  0  0  0
   15.3630  -24.3204   -3.4446 C   0  0  0  0  0  0  0  0  0  0  0  0
   13.9744  -23.7517   -3.3492 C   0  0  0  0  0  0  0  0  0  0  0  0
   13.6632  -23.1934   -1.9909 C   0  0  0  0  0  0  0  0  0  0  0  0
   12.3226  -22.5994   -2.0591 N   0  0  0  0  0  0  0  0  0  0  0  0
   17.3837  -26.4740   -3.8649 C   0  0  0  0  0  0  0  0  0  0  0  0
   17.7245  -26.1375   -2.5692 O   0  0  0  0  0  0  0  0  0  0  0  0
   17.3242  -27.6859   -4.1734 O   0  0  0  0  0  0  0  0  0  0  0  0
  2  1  1  0
  2  3  1  0
  3  5  1  0
  3  4  1  1
  5  7  1  0
  5  6  1  6
  7  8  2  0
  9 10  1  0
  9  7  1  0
 10 11  1  1
 11 12  1  0
 12 16  1  0
 13 14  1  0
 13 12  2  0
 14 15  1  0
 15 16  2  0
 17 18  2  0
 17 10  1  0
 19 17  1  0
 20 19  1  0
 20 21  1  6
 22 21  1  0
 23 22  1  0
 24 23  1  0
 24 25  1  0
 26 20  1  0
 26 27  1  0
 28 26  2  0
M  END
$$$$
