IHK.pdb
     RDKit          3D

 28 28  0  0  1  0  0  0  0  0999 V2000
   27.4011  -12.0383  -14.5276 C   0  0  0  0  0  0  0  0  0  0  0  0
   27.4228  -13.2351  -15.4160 C   0  0  0  0  0  0  0  0  0  0  0  0
   26.1722  -13.4640  -16.2200 C   0  0  2  0  0  0  0  0  0  0  0  0
   25.0377  -13.7925  -15.2442 C   0  0  0  0  0  0  0  0  0  0  0  0
   26.3785  -14.5587  -17.2043 C   0  0  2  0  0  0  0  0  0  0  0  0
   27.5848  -14.3611  -17.9381 N   0  0  0  0  0  0  0  0  0  0  0  0
   25.1986  -14.7830  -18.0772 C   0  0  0  0  0  0  0  0  0  0  0  0
   25.1284  -14.2147  -19.1852 O   0  0  0  0  0  0  0  0  0  0  0  0
   24.0973  -15.6244  -17.7439 N   0  0  0  0  0  0  0  0  0  0  0  0
   23.0014  -15.8941  -18.5991 C   0  0  1  0  0  0  0  0  0  0  0  0
   23.2331  -16.3066  -19.9791 C   0  0  0  0  0  0  0  0  0  0  0  0
   23.6571  -15.3318  -20.9641 C   0  0  0  0  0  0  0  0  0  0  0  0
   23.8403  -13.9951  -20.9315 C   0  0  0  0  0  0  0  0  0  0  0  0
   24.2731  -13.5297  -22.1428 N   0  0  0  0  0  0  0  0  0  0  0  0
   24.3449  -14.6331  -22.9069 C   0  0  0  0  0  0  0  0  0  0  0  0
   23.9866  -15.7140  -22.2368 N   0  0  0  0  0  0  0  0  0  0  0  0
   22.0255  -16.8065  -17.8930 C   0  0  0  0  0  0  0  0  0  0  0  0
   22.5222  -17.7684  -17.2660 O   0  0  0  0  0  0  0  0  0  0  0  0
   20.6403  -16.6173  -17.9173 N   0  0  0  0  0  0  0  0  0  0  0  0
   19.7029  -17.4391  -17.1586 C   0  0  1  0  0  0  0  0  0  0  0  0
   18.3760  -16.7292  -17.0180 C   0  0  0  0  0  0  0  0  0  0  0  0
   17.3777  -17.4638  -16.1927 C   0  0  0  0  0  0  0  0  0  0  0  0
   16.0823  -16.7248  -16.0009 C   0  0  0  0  0  0  0  0  0  0  0  0
   15.5914  -16.7638  -14.5828 C   0  0  0  0  0  0  0  0  0  0  0  0
   14.3223  -16.0274  -14.5393 N   0  0  0  0  0  0  0  0  0  0  0  0
   19.5811  -18.7322  -17.8517 C   0  0  0  0  0  0  0  0  0  0  0  0
   19.9931  -18.9030  -19.1591 O   0  0  0  0  0  0  0  0  0  0  0  0
   19.0905  -19.7114  -17.2452 O   0  0  0  0  0  0  0  0  0  0  0  0
  2  1  1  0
  2  3  1  0
  3  5  1  0
  3  4  1  1
  5  7  1  0
  5  6  1  6
  7  8  2  0
  9 10  1  0
  9  7  1  0
 10 11  1  6
 11 12  1  0
 12 16  1  0
 13 14  1  0
 13 12  2  0
 14 15  1  0
 15 16  2  0
 17 18  2  0
 17 10  1  0
 19 17  1  0
 20 19  1  0
 20 21  1  6
 22 21  1  0
 23 22  1  0
 24 23  1  0
 24 25  1  0
 26 20  1  0
 26 27  1  0
 28 26  2  0
M  END
$$$$
