IHK.pdb
     RDKit          3D

 28 28  0  0  1  0  0  0  0  0999 V2000
   18.5116  -14.3434  -19.7738 C   0  0  0  0  0  0  0  0  0  0  0  0
   19.9114  -13.9096  -19.5011 C   0  0  0  0  0  0  0  0  0  0  0  0
   20.0595  -12.8106  -18.4848 C   0  0  2  0  0  0  0  0  0  0  0  0
   19.2653  -11.5984  -18.9819 C   0  0  0  0  0  0  0  0  0  0  0  0
   21.4940  -12.4768  -18.2831 C   0  0  2  0  0  0  0  0  0  0  0  0
   22.2530  -13.6497  -17.9989 N   0  0  0  0  0  0  0  0  0  0  0  0
   21.7029  -11.3953  -17.2876 C   0  0  0  0  0  0  0  0  0  0  0  0
   21.5080  -11.6196  -16.0763 O   0  0  0  0  0  0  0  0  0  0  0  0
   22.1229  -10.0720  -17.6108 N   0  0  0  0  0  0  0  0  0  0  0  0
   22.3328   -9.0394  -16.6649 C   0  0  1  0  0  0  0  0  0  0  0  0
   23.6889   -8.6340  -16.3116 C   0  0  0  0  0  0  0  0  0  0  0  0
   24.6596   -9.6307  -15.9059 C   0  0  0  0  0  0  0  0  0  0  0  0
   24.5756  -10.9446  -15.6091 C   0  0  0  0  0  0  0  0  0  0  0  0
   25.8043  -11.4549  -15.2907 N   0  0  0  0  0  0  0  0  0  0  0  0
   26.6321  -10.4024  -15.4064 C   0  0  0  0  0  0  0  0  0  0  0  0
   25.9835   -9.3098  -15.7690 N   0  0  0  0  0  0  0  0  0  0  0  0
   21.4614   -7.8549  -17.0122 C   0  0  0  0  0  0  0  0  0  0  0  0
   21.4890   -7.4788  -18.2052 O   0  0  0  0  0  0  0  0  0  0  0  0
   20.6572   -7.1920  -16.0800 N   0  0  0  0  0  0  0  0  0  0  0  0
   19.8328   -6.0335  -16.4083 C   0  0  1  0  0  0  0  0  0  0  0  0
   18.4086   -6.2559  -15.9539 C   0  0  0  0  0  0  0  0  0  0  0  0
   17.4612   -6.5758  -17.0572 C   0  0  0  0  0  0  0  0  0  0  0  0
   16.0211   -6.6311  -16.6280 C   0  0  0  0  0  0  0  0  0  0  0  0
   15.0911   -6.9988  -17.7476 C   0  0  0  0  0  0  0  0  0  0  0  0
   13.7362   -7.0644  -17.1866 N   0  0  0  0  0  0  0  0  0  0  0  0
   20.4492   -4.8544  -15.7781 C   0  0  0  0  0  0  0  0  0  0  0  0
   20.1805   -3.5700  -16.2096 O   0  0  0  0  0  0  0  0  0  0  0  0
   21.2418   -5.0119  -14.8218 O   0  0  0  0  0  0  0  0  0  0  0  0
  2  1  1  0
  2  3  1  0
  3  5  1  0
  3  4  1  6
  5  7  1  0
  5  6  1  1
  7  8  2  0
  9 10  1  0
  9  7  1  0
 10 11  1  6
 11 12  1  0
 12 16  1  0
 13 14  1  0
 13 12  2  0
 14 15  1  0
 15 16  2  0
 17 18  2  0
 17 10  1  0
 19 17  1  0
 20 19  1  0
 20 21  1  1
 22 21  1  0
 23 22  1  0
 24 23  1  0
 24 25  1  0
 26 20  1  0
 26 27  1  0
 28 26  2  0
M  END
$$$$
