IHK.pdb
     RDKit          3D

 28 28  0  0  1  0  0  0  0  0999 V2000
   25.3761  -14.2412  -20.3333 C   0  0  0  0  0  0  0  0  0  0  0  0
   26.2486  -15.1596  -19.5476 C   0  0  0  0  0  0  0  0  0  0  0  0
   25.6013  -16.4438  -19.1066 C   0  0  2  0  0  0  0  0  0  0  0  0
   24.3603  -16.0875  -18.2819 C   0  0  0  0  0  0  0  0  0  0  0  0
   26.5585  -17.2677  -18.3225 C   0  0  2  0  0  0  0  0  0  0  0  0
   27.7706  -17.4649  -19.0469 N   0  0  0  0  0  0  0  0  0  0  0  0
   25.9639  -18.5360  -17.8305 C   0  0  0  0  0  0  0  0  0  0  0  0
   25.5662  -19.3928  -18.6450 O   0  0  0  0  0  0  0  0  0  0  0  0
   25.8025  -18.8703  -16.4543 N   0  0  0  0  0  0  0  0  0  0  0  0
   25.2198  -20.0704  -15.9794 C   0  0  1  0  0  0  0  0  0  0  0  0
   26.0519  -21.0896  -15.3492 C   0  0  0  0  0  0  0  0  0  0  0  0
   27.1770  -21.6518  -16.0692 C   0  0  0  0  0  0  0  0  0  0  0  0
   27.6668  -21.4758  -17.3144 C   0  0  0  0  0  0  0  0  0  0  0  0
   28.7818  -22.2423  -17.5157 N   0  0  0  0  0  0  0  0  0  0  0  0
   28.9472  -22.8865  -16.3478 C   0  0  0  0  0  0  0  0  0  0  0  0
   28.0132  -22.5572  -15.4731 N   0  0  0  0  0  0  0  0  0  0  0  0
   24.0010  -19.7429  -15.1484 C   0  0  0  0  0  0  0  0  0  0  0  0
   24.1630  -18.9013  -14.2369 O   0  0  0  0  0  0  0  0  0  0  0  0
   22.7481  -20.3272  -15.3573 N   0  0  0  0  0  0  0  0  0  0  0  0
   21.5784  -20.0382  -14.5340 C   0  0  1  0  0  0  0  0  0  0  0  0
   20.3500  -19.8847  -15.4012 C   0  0  0  0  0  0  0  0  0  0  0  0
   19.1192  -19.5104  -14.6515 C   0  0  0  0  0  0  0  0  0  0  0  0
   17.9063  -19.3288  -15.5215 C   0  0  0  0  0  0  0  0  0  0  0  0
   16.7317  -18.7638  -14.7766 C   0  0  0  0  0  0  0  0  0  0  0  0
   15.6615  -18.5371  -15.7553 N   0  0  0  0  0  0  0  0  0  0  0  0
   21.4441  -21.1266  -13.5519 C   0  0  0  0  0  0  0  0  0  0  0  0
   20.8287  -20.9374  -12.3298 O   0  0  0  0  0  0  0  0  0  0  0  0
   21.8985  -22.2608  -13.8248 O   0  0  0  0  0  0  0  0  0  0  0  0
  2  1  1  0
  2  3  1  0
  3  5  1  0
  3  4  1  1
  5  7  1  0
  5  6  1  6
  7  8  2  0
  9 10  1  0
  9  7  1  0
 10 11  1  1
 11 12  1  0
 12 16  1  0
 13 14  1  0
 13 12  2  0
 14 15  1  0
 15 16  2  0
 17 18  2  0
 17 10  1  0
 19 17  1  0
 20 19  1  0
 20 21  1  6
 22 21  1  0
 23 22  1  0
 24 23  1  0
 24 25  1  0
 26 20  1  0
 26 27  1  0
 28 26  2  0
M  END
$$$$
