IHK.pdb
     RDKit          3D

 28 28  0  0  1  0  0  0  0  0999 V2000
   28.1091  -21.3497  -10.5502 C   0  0  0  0  0  0  0  0  0  0  0  0
   27.6194  -21.0382  -11.9232 C   0  0  0  0  0  0  0  0  0  0  0  0
   26.1316  -20.8580  -12.0517 C   0  0  2  0  0  0  0  0  0  0  0  0
   25.4603  -22.1737  -11.6451 C   0  0  0  0  0  0  0  0  0  0  0  0
   25.7716  -20.4690  -13.4405 C   0  0  2  0  0  0  0  0  0  0  0  0
   26.6363  -19.4420  -13.9204 N   0  0  0  0  0  0  0  0  0  0  0  0
   24.3331  -20.1350  -13.5944 C   0  0  0  0  0  0  0  0  0  0  0  0
   23.8622  -19.1348  -13.0168 O   0  0  0  0  0  0  0  0  0  0  0  0
   23.4094  -20.8890  -14.3755 N   0  0  0  0  0  0  0  0  0  0  0  0
   22.0420  -20.5622  -14.5445 C   0  0  1  0  0  0  0  0  0  0  0  0
   21.5479  -20.1286  -15.8469 C   0  0  0  0  0  0  0  0  0  0  0  0
   20.1557  -19.7591  -16.0062 C   0  0  0  0  0  0  0  0  0  0  0  0
   19.1194  -19.6446  -15.1493 C   0  0  0  0  0  0  0  0  0  0  0  0
   17.9864  -19.2410  -15.8010 N   0  0  0  0  0  0  0  0  0  0  0  0
   18.3762  -19.1159  -17.0811 C   0  0  0  0  0  0  0  0  0  0  0  0
   19.6541  -19.4155  -17.2329 N   0  0  0  0  0  0  0  0  0  0  0  0
   21.1864  -21.6576  -13.9518 C   0  0  0  0  0  0  0  0  0  0  0  0
   21.5824  -22.8299  -14.1369 O   0  0  0  0  0  0  0  0  0  0  0  0
   20.0131  -21.4126  -13.2319 N   0  0  0  0  0  0  0  0  0  0  0  0
   19.2553  -22.4564  -12.5494 C   0  0  1  0  0  0  0  0  0  0  0  0
   19.5264  -22.4163  -11.0631 C   0  0  0  0  0  0  0  0  0  0  0  0
   18.7840  -23.4437  -10.2816 C   0  0  0  0  0  0  0  0  0  0  0  0
   19.0544  -23.3989   -8.8031 C   0  0  0  0  0  0  0  0  0  0  0  0
   18.3505  -24.4879   -8.0467 C   0  0  0  0  0  0  0  0  0  0  0  0
   18.7678  -24.3852   -6.6431 N   0  0  0  0  0  0  0  0  0  0  0  0
   17.8324  -22.2564  -12.8697 C   0  0  0  0  0  0  0  0  0  0  0  0
   17.0210  -23.2975  -13.2769 O   0  0  0  0  0  0  0  0  0  0  0  0
   17.3351  -21.1115  -12.7726 O   0  0  0  0  0  0  0  0  0  0  0  0
  2  1  1  0
  2  3  1  0
  3  5  1  0
  3  4  1  6
  5  7  1  0
  5  6  1  1
  7  8  2  0
  9 10  1  0
  9  7  1  0
 10 11  1  6
 11 12  1  0
 12 16  1  0
 13 14  1  0
 13 12  2  0
 14 15  1  0
 15 16  2  0
 17 18  2  0
 17 10  1  0
 19 17  1  0
 20 19  1  0
 20 21  1  1
 22 21  1  0
 23 22  1  0
 24 23  1  0
 24 25  1  0
 26 20  1  0
 26 27  1  0
 28 26  2  0
M  END
$$$$
