IHK.pdb
     RDKit          3D

 28 28  0  0  1  0  0  0  0  0999 V2000
   28.2149  -18.2221  -17.5157 C   0  0  0  0  0  0  0  0  0  0  0  0
   28.3174  -19.3404  -16.5354 C   0  0  0  0  0  0  0  0  0  0  0  0
   27.0762  -19.6061  -15.7284 C   0  0  2  0  0  0  0  0  0  0  0  0
   26.7545  -18.3405  -14.9272 C   0  0  0  0  0  0  0  0  0  0  0  0
   27.2750  -20.7793  -14.8373 C   0  0  2  0  0  0  0  0  0  0  0  0
   27.7112  -21.9142  -15.5819 N   0  0  0  0  0  0  0  0  0  0  0  0
   26.0947  -21.0647  -13.9830 C   0  0  0  0  0  0  0  0  0  0  0  0
   25.1118  -21.6652  -14.4616 O   0  0  0  0  0  0  0  0  0  0  0  0
   25.9851  -20.6967  -12.6102 N   0  0  0  0  0  0  0  0  0  0  0  0
   24.8756  -20.9942  -11.7822 C   0  0  1  0  0  0  0  0  0  0  0  0
   25.0164  -20.9658  -10.3304 C   0  0  0  0  0  0  0  0  0  0  0  0
   23.8559  -21.1699   -9.4867 C   0  0  0  0  0  0  0  0  0  0  0  0
   22.5502  -21.3989   -9.7398 C   0  0  0  0  0  0  0  0  0  0  0  0
   21.8428  -21.5403   -8.5775 N   0  0  0  0  0  0  0  0  0  0  0  0
   22.7682  -21.3888   -7.6147 C   0  0  0  0  0  0  0  0  0  0  0  0
   23.9681  -21.1686   -8.1222 N   0  0  0  0  0  0  0  0  0  0  0  0
   23.6743  -20.2054  -12.2488 C   0  0  0  0  0  0  0  0  0  0  0  0
   23.8830  -19.0113  -12.5585 O   0  0  0  0  0  0  0  0  0  0  0  0
   22.3881  -20.7460  -12.3418 N   0  0  0  0  0  0  0  0  0  0  0  0
   21.3387  -20.1844  -13.1862 C   0  0  1  0  0  0  0  0  0  0  0  0
   21.6191  -20.4821  -14.6413 C   0  0  0  0  0  0  0  0  0  0  0  0
   20.5447  -20.0368  -15.5711 C   0  0  0  0  0  0  0  0  0  0  0  0
   20.7769  -18.6746  -16.1641 C   0  0  0  0  0  0  0  0  0  0  0  0
   19.6337  -18.2056  -17.0166 C   0  0  0  0  0  0  0  0  0  0  0  0
   19.9379  -16.8330  -17.4389 N   0  0  0  0  0  0  0  0  0  0  0  0
   20.0545  -20.7433  -12.7327 C   0  0  0  0  0  0  0  0  0  0  0  0
   19.8953  -22.0896  -12.4679 O   0  0  0  0  0  0  0  0  0  0  0  0
   19.0722  -19.9822  -12.5797 O   0  0  0  0  0  0  0  0  0  0  0  0
  2  1  1  0
  2  3  1  0
  3  5  1  0
  3  4  1  1
  5  7  1  0
  5  6  1  6
  7  8  2  0
  9 10  1  0
  9  7  1  0
 10 11  1  1
 11 12  1  0
 12 16  1  0
 13 14  1  0
 13 12  2  0
 14 15  1  0
 15 16  2  0
 17 18  2  0
 17 10  1  0
 19 17  1  0
 20 19  1  0
 20 21  1  6
 22 21  1  0
 23 22  1  0
 24 23  1  0
 24 25  1  0
 26 20  1  0
 26 27  1  0
 28 26  2  0
M  END
$$$$
