IHK.pdb
     RDKit          3D

 28 28  0  0  1  0  0  0  0  0999 V2000
   30.1281  -20.4748  -11.2211 C   0  0  0  0  0  0  0  0  0  0  0  0
   28.7012  -20.8138  -10.9541 C   0  0  0  0  0  0  0  0  0  0  0  0
   27.8024  -20.8157  -12.1603 C   0  0  2  0  0  0  0  0  0  0  0  0
   27.9291  -19.4510  -12.8450 C   0  0  0  0  0  0  0  0  0  0  0  0
   26.3979  -21.0980  -11.7634 C   0  0  2  0  0  0  0  0  0  0  0  0
   26.3238  -22.2741  -10.9609 N   0  0  0  0  0  0  0  0  0  0  0  0
   25.4636  -21.1230  -12.9170 C   0  0  0  0  0  0  0  0  0  0  0  0
   25.6205  -21.9630  -13.8256 O   0  0  0  0  0  0  0  0  0  0  0  0
   24.3609  -20.2348  -13.0809 N   0  0  0  0  0  0  0  0  0  0  0  0
   23.4112  -20.3136  -14.1283 C   0  0  1  0  0  0  0  0  0  0  0  0
   22.2291  -21.1563  -13.9837 C   0  0  0  0  0  0  0  0  0  0  0  0
   22.3731  -22.5957  -13.8957 C   0  0  0  0  0  0  0  0  0  0  0  0
   23.4353  -23.4279  -13.9203 C   0  0  0  0  0  0  0  0  0  0  0  0
   23.0408  -24.7306  -13.7839 N   0  0  0  0  0  0  0  0  0  0  0  0
   21.7033  -24.6545  -13.6758 C   0  0  0  0  0  0  0  0  0  0  0  0
   21.2797  -23.4045  -13.7384 N   0  0  0  0  0  0  0  0  0  0  0  0
   23.0580  -18.9197  -14.5925 C   0  0  0  0  0  0  0  0  0  0  0  0
   22.7145  -18.1108  -13.7021 O   0  0  0  0  0  0  0  0  0  0  0  0
   23.1012  -18.5212  -15.9320 N   0  0  0  0  0  0  0  0  0  0  0  0
   22.8467  -17.1535  -16.3729 C   0  0  1  0  0  0  0  0  0  0  0  0
   23.9626  -16.6750  -17.2730 C   0  0  0  0  0  0  0  0  0  0  0  0
   23.8102  -15.2678  -17.7351 C   0  0  0  0  0  0  0  0  0  0  0  0
   24.9059  -14.8056  -18.6553 C   0  0  0  0  0  0  0  0  0  0  0  0
   24.7615  -13.3673  -19.0603 C   0  0  0  0  0  0  0  0  0  0  0  0
   25.9308  -13.0242  -19.8786 N   0  0  0  0  0  0  0  0  0  0  0  0
   21.5353  -17.1372  -17.0417 C   0  0  0  0  0  0  0  0  0  0  0  0
   20.6856  -16.0512  -16.9592 O   0  0  0  0  0  0  0  0  0  0  0  0
   21.1717  -18.1334  -17.7071 O   0  0  0  0  0  0  0  0  0  0  0  0
  2  1  1  0
  2  3  1  0
  3  5  1  0
  3  4  1  1
  5  7  1  0
  5  6  1  6
  7  8  2  0
  9 10  1  0
  9  7  1  0
 10 11  1  1
 11 12  1  0
 12 16  1  0
 13 14  1  0
 13 12  2  0
 14 15  1  0
 15 16  2  0
 17 18  2  0
 17 10  1  0
 19 17  1  0
 20 19  1  0
 20 21  1  6
 22 21  1  0
 23 22  1  0
 24 23  1  0
 24 25  1  0
 26 20  1  0
 26 27  1  0
 28 26  2  0
M  END
$$$$
