IHK.pdb
     RDKit          3D

 28 28  0  0  1  0  0  0  0  0999 V2000
   27.6648  -20.9695   -7.8452 C   0  0  0  0  0  0  0  0  0  0  0  0
   28.0403  -21.2257   -9.2649 C   0  0  0  0  0  0  0  0  0  0  0  0
   27.0890  -20.6765  -10.2926 C   0  0  2  0  0  0  0  0  0  0  0  0
   25.7267  -21.3441  -10.0786 C   0  0  0  0  0  0  0  0  0  0  0  0
   27.6061  -20.9208  -11.6647 C   0  0  2  0  0  0  0  0  0  0  0  0
   29.0052  -20.6561  -11.7346 N   0  0  0  0  0  0  0  0  0  0  0  0
   26.8284  -20.2114  -12.7118 C   0  0  0  0  0  0  0  0  0  0  0  0
   26.6796  -18.9749  -12.6446 O   0  0  0  0  0  0  0  0  0  0  0  0
   26.2140  -20.8475  -13.8297 N   0  0  0  0  0  0  0  0  0  0  0  0
   25.5027  -20.1719  -14.8509 C   0  0  1  0  0  0  0  0  0  0  0  0
   26.0593  -20.0842  -16.1966 C   0  0  0  0  0  0  0  0  0  0  0  0
   25.3425  -19.3652  -17.2307 C   0  0  0  0  0  0  0  0  0  0  0  0
   24.1664  -18.7039  -17.2597 C   0  0  0  0  0  0  0  0  0  0  0  0
   23.9339  -18.1708  -18.4978 N   0  0  0  0  0  0  0  0  0  0  0  0
   25.0116  -18.5337  -19.2143 C   0  0  0  0  0  0  0  0  0  0  0  0
   25.8619  -19.2408  -18.4913 N   0  0  0  0  0  0  0  0  0  0  0  0
   24.0682  -20.6464  -14.8627 C   0  0  0  0  0  0  0  0  0  0  0  0
   23.8942  -21.8832  -14.7898 O   0  0  0  0  0  0  0  0  0  0  0  0
   22.9728  -19.7817  -14.9490 N   0  0  0  0  0  0  0  0  0  0  0  0
   21.5877  -20.2396  -14.9893 C   0  0  1  0  0  0  0  0  0  0  0  0
   20.9363  -20.0634  -13.6369 C   0  0  0  0  0  0  0  0  0  0  0  0
   19.6946  -20.8640  -13.4510 C   0  0  0  0  0  0  0  0  0  0  0  0
   19.8018  -21.9171  -12.3832 C   0  0  0  0  0  0  0  0  0  0  0  0
   18.5812  -22.7866  -12.2949 C   0  0  0  0  0  0  0  0  0  0  0  0
   18.8438  -23.8059  -11.2718 N   0  0  0  0  0  0  0  0  0  0  0  0
   20.8995  -19.4861  -16.0503 C   0  0  0  0  0  0  0  0  0  0  0  0
   21.2245  -19.6385  -17.3842 O   0  0  0  0  0  0  0  0  0  0  0  0
   19.9912  -18.6812  -15.7429 O   0  0  0  0  0  0  0  0  0  0  0  0
  2  1  1  0
  2  3  1  0
  3  5  1  0
  3  4  1  6
  5  7  1  0
  5  6  1  1
  7  8  2  0
  9 10  1  0
  9  7  1  0
 10 11  1  6
 11 12  1  0
 12 16  1  0
 13 14  1  0
 13 12  2  0
 14 15  1  0
 15 16  2  0
 17 18  2  0
 17 10  1  0
 19 17  1  0
 20 19  1  0
 20 21  1  1
 22 21  1  0
 23 22  1  0
 24 23  1  0
 24 25  1  0
 26 20  1  0
 26 27  1  0
 28 26  2  0
M  END
$$$$
