IHK.pdb
     RDKit          3D

 28 28  0  0  1  0  0  0  0  0999 V2000
  -14.5942  -10.0943  -57.3393 C   0  0  0  0  0  0  0  0  0  0  0  0
  -14.4397   -9.0556  -56.2814 C   0  0  0  0  0  0  0  0  0  0  0  0
  -13.7371   -9.5086  -55.0309 C   0  0  2  0  0  0  0  0  0  0  0  0
  -12.5087   -8.6153  -54.8301 C   0  0  0  0  0  0  0  0  0  0  0  0
  -13.3571  -10.9419  -55.1365 C   0  0  2  0  0  0  0  0  0  0  0  0
  -13.7797  -11.6655  -53.9830 N   0  0  0  0  0  0  0  0  0  0  0  0
  -11.9193  -11.1387  -55.4502 C   0  0  0  0  0  0  0  0  0  0  0  0
  -11.5812  -11.9600  -56.3258 O   0  0  0  0  0  0  0  0  0  0  0  0
  -10.8520  -10.4425  -54.8114 N   0  0  0  0  0  0  0  0  0  0  0  0
   -9.4770  -10.6759  -55.0560 C   0  0  1  0  0  0  0  0  0  0  0  0
   -9.0021  -12.0260  -55.3391 C   0  0  0  0  0  0  0  0  0  0  0  0
   -7.7270  -12.2208  -55.9998 C   0  0  0  0  0  0  0  0  0  0  0  0
   -6.9426  -11.4289  -56.7607 C   0  0  0  0  0  0  0  0  0  0  0  0
   -5.8052  -12.0863  -57.1421 N   0  0  0  0  0  0  0  0  0  0  0  0
   -5.9313  -13.3024  -56.5841 C   0  0  0  0  0  0  0  0  0  0  0  0
   -7.0579  -13.4113  -55.9023 N   0  0  0  0  0  0  0  0  0  0  0  0
   -8.9693   -9.6747  -56.0674 C   0  0  0  0  0  0  0  0  0  0  0  0
   -8.9053  -10.0700  -57.2528 O   0  0  0  0  0  0  0  0  0  0  0  0
   -8.5840   -8.3726  -55.7340 N   0  0  0  0  0  0  0  0  0  0  0  0
   -7.2207   -8.0073  -55.3628 C   0  0  1  0  0  0  0  0  0  0  0  0
   -6.3964   -7.7279  -56.5985 C   0  0  0  0  0  0  0  0  0  0  0  0
   -6.3396   -6.2895  -56.9792 C   0  0  0  0  0  0  0  0  0  0  0  0
   -6.5009   -6.0417  -58.4535 C   0  0  0  0  0  0  0  0  0  0  0  0
   -7.6779   -5.1667  -58.7739 C   0  0  0  0  0  0  0  0  0  0  0  0
   -8.1798   -5.5748  -60.0917 N   0  0  0  0  0  0  0  0  0  0  0  0
   -7.2998   -6.8457  -54.4620 C   0  0  0  0  0  0  0  0  0  0  0  0
   -6.7342   -6.8575  -53.2018 O   0  0  0  0  0  0  0  0  0  0  0  0
   -7.8957   -5.8122  -54.8417 O   0  0  0  0  0  0  0  0  0  0  0  0
  2  1  1  0
  2  3  1  0
  3  5  1  0
  3  4  1  6
  5  7  1  0
  5  6  1  1
  7  8  2  0
  9 10  1  0
  9  7  1  0
 10 11  1  6
 11 12  1  0
 12 16  1  0
 13 14  1  0
 13 12  2  0
 14 15  1  0
 15 16  2  0
 17 18  2  0
 17 10  1  0
 19 17  1  0
 20 19  1  0
 20 21  1  6
 22 21  1  0
 23 22  1  0
 24 23  1  0
 24 25  1  0
 26 20  1  0
 26 27  1  0
 28 26  2  0
M  END
$$$$
