IHK.pdb
     RDKit          3D

 28 28  0  0  1  0  0  0  0  0999 V2000
   27.2154  -22.5722  -16.5314 C   0  0  0  0  0  0  0  0  0  0  0  0
   27.2516  -21.2572  -15.8303 C   0  0  0  0  0  0  0  0  0  0  0  0
   26.0400  -20.9366  -14.9985 C   0  0  2  0  0  0  0  0  0  0  0  0
   25.8490  -22.0709  -13.9865 C   0  0  0  0  0  0  0  0  0  0  0  0
   24.8426  -20.7708  -15.8637 C   0  0  2  0  0  0  0  0  0  0  0  0
   25.1207  -19.8936  -16.9527 N   0  0  0  0  0  0  0  0  0  0  0  0
   23.6273  -20.3845  -15.1034 C   0  0  0  0  0  0  0  0  0  0  0  0
   23.6326  -19.3495  -14.4074 O   0  0  0  0  0  0  0  0  0  0  0  0
   22.4087  -21.1241  -15.1010 N   0  0  0  0  0  0  0  0  0  0  0  0
   21.1881  -20.6644  -14.5497 C   0  0  1  0  0  0  0  0  0  0  0  0
   20.3890  -19.6740  -15.2629 C   0  0  0  0  0  0  0  0  0  0  0  0
   20.9417  -18.3639  -15.5429 C   0  0  0  0  0  0  0  0  0  0  0  0
   21.1100  -17.2475  -14.8034 C   0  0  0  0  0  0  0  0  0  0  0  0
   21.7068  -16.2589  -15.5368 N   0  0  0  0  0  0  0  0  0  0  0  0
   21.8927  -16.8187  -16.7445 C   0  0  0  0  0  0  0  0  0  0  0  0
   21.4502  -18.0633  -16.7780 N   0  0  0  0  0  0  0  0  0  0  0  0
   20.3587  -21.8478  -14.1082 C   0  0  0  0  0  0  0  0  0  0  0  0
   20.6460  -22.9491  -14.6277 O   0  0  0  0  0  0  0  0  0  0  0  0
   19.3218  -21.7549  -13.1748 N   0  0  0  0  0  0  0  0  0  0  0  0
   18.5200  -22.8967  -12.7470 C   0  0  1  0  0  0  0  0  0  0  0  0
   18.1532  -22.7639  -11.2868 C   0  0  0  0  0  0  0  0  0  0  0  0
   18.6413  -23.8819  -10.4329 C   0  0  0  0  0  0  0  0  0  0  0  0
   18.2468  -23.7624   -8.9869 C   0  0  0  0  0  0  0  0  0  0  0  0
   18.7046  -24.9272   -8.1578 C   0  0  0  0  0  0  0  0  0  0  0  0
   18.2684  -24.6798   -6.7782 N   0  0  0  0  0  0  0  0  0  0  0  0
   17.3383  -22.9650  -13.6223 C   0  0  0  0  0  0  0  0  0  0  0  0
   16.7198  -24.1627  -13.9241 O   0  0  0  0  0  0  0  0  0  0  0  0
   16.8737  -21.9106  -14.1118 O   0  0  0  0  0  0  0  0  0  0  0  0
  2  1  1  0
  2  3  1  0
  3  5  1  0
  3  4  1  1
  5  7  1  0
  5  6  1  6
  7  8  2  0
  9 10  1  0
  9  7  1  0
 10 11  1  6
 11 12  1  0
 12 16  1  0
 13 14  1  0
 13 12  2  0
 14 15  1  0
 15 16  2  0
 17 18  2  0
 17 10  1  0
 19 17  1  0
 20 19  1  0
 20 21  1  1
 22 21  1  0
 23 22  1  0
 24 23  1  0
 24 25  1  0
 26 20  1  0
 26 27  1  0
 28 26  2  0
M  END
$$$$
