IHK.pdb
     RDKit          3D

 28 28  0  0  1  0  0  0  0  0999 V2000
   28.0294  -19.6596   -7.2776 C   0  0  0  0  0  0  0  0  0  0  0  0
   27.3300  -20.5217   -8.2723 C   0  0  0  0  0  0  0  0  0  0  0  0
   25.9667  -20.0452   -8.6929 C   0  0  2  0  0  0  0  0  0  0  0  0
   25.0393  -20.1359   -7.4768 C   0  0  0  0  0  0  0  0  0  0  0  0
   25.4575  -20.8585   -9.8283 C   0  0  2  0  0  0  0  0  0  0  0  0
   25.9433  -22.1967   -9.7523 N   0  0  0  0  0  0  0  0  0  0  0  0
   25.7024  -20.2266  -11.1494 C   0  0  0  0  0  0  0  0  0  0  0  0
   25.2686  -19.0801  -11.3797 O   0  0  0  0  0  0  0  0  0  0  0  0
   26.4179  -20.8423  -12.2174 N   0  0  0  0  0  0  0  0  0  0  0  0
   26.5892  -20.2767  -13.5043 C   0  0  1  0  0  0  0  0  0  0  0  0
   27.7666  -20.6082  -14.2995 C   0  0  0  0  0  0  0  0  0  0  0  0
   27.9908  -19.9484  -15.5701 C   0  0  0  0  0  0  0  0  0  0  0  0
   28.2838  -18.6783  -15.9201 C   0  0  0  0  0  0  0  0  0  0  0  0
   28.4150  -18.5614  -17.2768 N   0  0  0  0  0  0  0  0  0  0  0  0
   28.1911  -19.8059  -17.7323 C   0  0  0  0  0  0  0  0  0  0  0  0
   27.9376  -20.6477  -16.7459 N   0  0  0  0  0  0  0  0  0  0  0  0
   25.3112  -20.4313  -14.2955 C   0  0  0  0  0  0  0  0  0  0  0  0
   24.6446  -21.4663  -14.0726 O   0  0  0  0  0  0  0  0  0  0  0  0
   24.8677  -19.4919  -15.2314 N   0  0  0  0  0  0  0  0  0  0  0  0
   23.6337  -19.6394  -15.9962 C   0  0  1  0  0  0  0  0  0  0  0  0
   23.1609  -18.2935  -16.4959 C   0  0  0  0  0  0  0  0  0  0  0  0
   22.8243  -18.2672  -17.9461 C   0  0  0  0  0  0  0  0  0  0  0  0
   22.3528  -16.9271  -18.4389 C   0  0  0  0  0  0  0  0  0  0  0  0
   21.9996  -16.9318  -19.8979 C   0  0  0  0  0  0  0  0  0  0  0  0
   21.5774  -15.5707  -20.2498 N   0  0  0  0  0  0  0  0  0  0  0  0
   23.8980  -20.5873  -17.0911 C   0  0  0  0  0  0  0  0  0  0  0  0
   22.8816  -21.2774  -17.7225 O   0  0  0  0  0  0  0  0  0  0  0  0
   25.0766  -20.7795  -17.4672 O   0  0  0  0  0  0  0  0  0  0  0  0
  2  1  1  0
  2  3  1  0
  3  5  1  0
  3  4  1  1
  5  7  1  0
  5  6  1  6
  7  8  2  0
  9 10  1  0
  9  7  1  0
 10 11  1  6
 11 12  1  0
 12 16  1  0
 13 14  1  0
 13 12  2  0
 14 15  1  0
 15 16  2  0
 17 18  2  0
 17 10  1  0
 19 17  1  0
 20 19  1  0
 20 21  1  6
 22 21  1  0
 23 22  1  0
 24 23  1  0
 24 25  1  0
 26 20  1  0
 26 27  1  0
 28 26  2  0
M  END
$$$$
