IHK.pdb
     RDKit          3D

 28 28  0  0  1  0  0  0  0  0999 V2000
   27.7875  -20.3868   -6.8903 C   0  0  0  0  0  0  0  0  0  0  0  0
   27.9055  -20.9519   -8.2647 C   0  0  0  0  0  0  0  0  0  0  0  0
   26.8036  -20.5710   -9.2151 C   0  0  2  0  0  0  0  0  0  0  0  0
   25.4839  -21.0983   -8.6430 C   0  0  0  0  0  0  0  0  0  0  0  0
   27.0695  -21.1228  -10.5696 C   0  0  2  0  0  0  0  0  0  0  0  0
   28.4499  -21.0016  -10.9052 N   0  0  0  0  0  0  0  0  0  0  0  0
   26.1685  -20.5654  -11.6097 C   0  0  0  0  0  0  0  0  0  0  0  0
   25.9422  -19.3392  -11.6434 O   0  0  0  0  0  0  0  0  0  0  0  0
   25.5152  -21.3417  -12.6108 N   0  0  0  0  0  0  0  0  0  0  0  0
   24.6649  -20.8139  -13.6127 C   0  0  1  0  0  0  0  0  0  0  0  0
   25.1500  -20.6628  -14.9802 C   0  0  0  0  0  0  0  0  0  0  0  0
   24.3112  -20.0327  -15.9800 C   0  0  0  0  0  0  0  0  0  0  0  0
   24.1828  -18.7638  -16.4215 C   0  0  0  0  0  0  0  0  0  0  0  0
   23.2427  -18.6819  -17.4118 N   0  0  0  0  0  0  0  0  0  0  0  0
   22.8090  -19.9462  -17.5522 C   0  0  0  0  0  0  0  0  0  0  0  0
   23.4229  -20.7674  -16.7187 N   0  0  0  0  0  0  0  0  0  0  0  0
   23.3296  -21.5193  -13.5615 C   0  0  0  0  0  0  0  0  0  0  0  0
   23.3616  -22.7471  -13.3231 O   0  0  0  0  0  0  0  0  0  0  0  0
   22.1083  -20.8695  -13.7642 N   0  0  0  0  0  0  0  0  0  0  0  0
   20.8228  -21.5601  -13.7814 C   0  0  1  0  0  0  0  0  0  0  0  0
   19.7757  -20.7398  -13.0637 C   0  0  0  0  0  0  0  0  0  0  0  0
   18.4482  -21.4061  -12.9582 C   0  0  0  0  0  0  0  0  0  0  0  0
   17.3857  -20.5522  -12.3236 C   0  0  0  0  0  0  0  0  0  0  0  0
   16.0444  -21.2249  -12.2790 C   0  0  0  0  0  0  0  0  0  0  0  0
   15.0816  -20.2462  -11.7593 N   0  0  0  0  0  0  0  0  0  0  0  0
   20.4730  -21.8167  -15.1881 C   0  0  0  0  0  0  0  0  0  0  0  0
   20.2082  -20.7911  -16.0748 O   0  0  0  0  0  0  0  0  0  0  0  0
   20.4116  -22.9969  -15.6013 O   0  0  0  0  0  0  0  0  0  0  0  0
  2  1  1  0
  2  3  1  0
  3  5  1  0
  3  4  1  1
  5  7  1  0
  5  6  1  6
  7  8  2  0
  9 10  1  0
  9  7  1  0
 10 11  1  6
 11 12  1  0
 12 16  1  0
 13 14  1  0
 13 12  2  0
 14 15  1  0
 15 16  2  0
 17 18  2  0
 17 10  1  0
 19 17  1  0
 20 19  1  0
 20 21  1  6
 22 21  1  0
 23 22  1  0
 24 23  1  0
 24 25  1  0
 26 20  1  0
 26 27  1  0
 28 26  2  0
M  END
$$$$
