IHK.pdb
     RDKit          3D

 28 28  0  0  1  0  0  0  0  0999 V2000
   28.1898  -17.4241  -18.0634 C   0  0  0  0  0  0  0  0  0  0  0  0
   27.6133  -16.1182  -17.6343 C   0  0  0  0  0  0  0  0  0  0  0  0
   26.5127  -16.2039  -16.6126 C   0  0  2  0  0  0  0  0  0  0  0  0
   27.1279  -16.6897  -15.2963 C   0  0  0  0  0  0  0  0  0  0  0  0
   25.4366  -17.1164  -17.0807 C   0  0  2  0  0  0  0  0  0  0  0  0
   25.0589  -16.8105  -18.4210 N   0  0  0  0  0  0  0  0  0  0  0  0
   24.2805  -17.1741  -16.1510 C   0  0  0  0  0  0  0  0  0  0  0  0
   24.0960  -16.2526  -15.3310 O   0  0  0  0  0  0  0  0  0  0  0  0
   23.3274  -18.2334  -16.1142 N   0  0  0  0  0  0  0  0  0  0  0  0
   22.1189  -18.2050  -15.3767 C   0  0  1  0  0  0  0  0  0  0  0  0
   20.8649  -17.8611  -16.0380 C   0  0  0  0  0  0  0  0  0  0  0  0
   20.6576  -16.5186  -16.5429 C   0  0  0  0  0  0  0  0  0  0  0  0
   20.0619  -15.4170  -16.0400 C   0  0  0  0  0  0  0  0  0  0  0  0
   20.1439  -14.3711  -16.9179 N   0  0  0  0  0  0  0  0  0  0  0  0
   20.8105  -14.8809  -17.9677 C   0  0  0  0  0  0  0  0  0  0  0  0
   21.1274  -16.1490  -17.7746 N   0  0  0  0  0  0  0  0  0  0  0  0
   21.9986  -19.4708  -14.5602 C   0  0  0  0  0  0  0  0  0  0  0  0
   22.1585  -20.5458  -15.1798 O   0  0  0  0  0  0  0  0  0  0  0  0
   21.7249  -19.4784  -13.1890 N   0  0  0  0  0  0  0  0  0  0  0  0
   21.5437  -20.7001  -12.4117 C   0  0  1  0  0  0  0  0  0  0  0  0
   22.0883  -20.5192  -11.0135 C   0  0  0  0  0  0  0  0  0  0  0  0
   23.2875  -21.3501  -10.7156 C   0  0  0  0  0  0  0  0  0  0  0  0
   24.5447  -20.8695  -11.3860 C   0  0  0  0  0  0  0  0  0  0  0  0
   25.7378  -21.7252  -11.0734 C   0  0  0  0  0  0  0  0  0  0  0  0
   26.8724  -21.1880  -11.8343 N   0  0  0  0  0  0  0  0  0  0  0  0
   20.1081  -21.0259  -12.4210 C   0  0  0  0  0  0  0  0  0  0  0  0
   19.6529  -22.3275  -12.3394 O   0  0  0  0  0  0  0  0  0  0  0  0
   19.2681  -20.1014  -12.5051 O   0  0  0  0  0  0  0  0  0  0  0  0
  2  1  1  0
  2  3  1  0
  3  5  1  0
  3  4  1  1
  5  7  1  0
  5  6  1  6
  7  8  2  0
  9 10  1  0
  9  7  1  0
 10 11  1  6
 11 12  1  0
 12 16  1  0
 13 14  1  0
 13 12  2  0
 14 15  1  0
 15 16  2  0
 17 18  2  0
 17 10  1  0
 19 17  1  0
 20 19  1  0
 20 21  1  1
 22 21  1  0
 23 22  1  0
 24 23  1  0
 24 25  1  0
 26 20  1  0
 26 27  1  0
 28 26  2  0
M  END
$$$$
