IHK.pdb
     RDKit          3D

 28 28  0  0  1  0  0  0  0  0999 V2000
   26.8437  -35.2503   -8.4047 C   0  0  0  0  0  0  0  0  0  0  0  0
   26.4577  -33.8826   -7.9549 C   0  0  0  0  0  0  0  0  0  0  0  0
   24.9830  -33.5872   -7.9818 C   0  0  2  0  0  0  0  0  0  0  0  0
   24.5221  -33.6196   -9.4426 C   0  0  0  0  0  0  0  0  0  0  0  0
   24.7035  -32.2704   -7.3513 C   0  0  2  0  0  0  0  0  0  0  0  0
   25.2064  -31.2056   -8.1551 N   0  0  0  0  0  0  0  0  0  0  0  0
   25.1573  -32.1959   -5.9396 C   0  0  0  0  0  0  0  0  0  0  0  0
   26.0752  -31.4131   -5.6225 O   0  0  0  0  0  0  0  0  0  0  0  0
   24.6128  -32.9724   -4.8755 N   0  0  0  0  0  0  0  0  0  0  0  0
   24.9184  -32.7883   -3.5051 C   0  0  1  0  0  0  0  0  0  0  0  0
   23.9006  -32.2864   -2.5884 C   0  0  0  0  0  0  0  0  0  0  0  0
   24.2248  -32.0774   -1.1915 C   0  0  0  0  0  0  0  0  0  0  0  0
   23.6876  -32.5202   -0.0352 C   0  0  0  0  0  0  0  0  0  0  0  0
   24.3805  -32.0410    1.0425 N   0  0  0  0  0  0  0  0  0  0  0  0
   25.3546  -31.2940    0.4954 C   0  0  0  0  0  0  0  0  0  0  0  0
   25.2878  -31.2968   -0.8243 N   0  0  0  0  0  0  0  0  0  0  0  0
   25.5983  -34.0276   -2.9710 C   0  0  0  0  0  0  0  0  0  0  0  0
   24.9679  -35.1012   -3.0950 O   0  0  0  0  0  0  0  0  0  0  0  0
   26.8590  -34.0131   -2.3665 N   0  0  0  0  0  0  0  0  0  0  0  0
   27.5169  -35.2088   -1.8495 C   0  0  1  0  0  0  0  0  0  0  0  0
   29.0183  -35.0685   -1.9516 C   0  0  0  0  0  0  0  0  0  0  0  0
   29.5934  -35.5948   -3.2202 C   0  0  0  0  0  0  0  0  0  0  0  0
   31.0966  -35.6239   -3.2429 C   0  0  0  0  0  0  0  0  0  0  0  0
   31.6517  -36.1569   -4.5319 C   0  0  0  0  0  0  0  0  0  0  0  0
   33.1100  -36.2318   -4.3819 N   0  0  0  0  0  0  0  0  0  0  0  0
   27.0609  -35.4048   -0.4636 C   0  0  0  0  0  0  0  0  0  0  0  0
   26.6805  -34.3461    0.3380 O   0  0  0  0  0  0  0  0  0  0  0  0
   27.0133  -36.5627    0.0104 O   0  0  0  0  0  0  0  0  0  0  0  0
  2  1  1  0
  2  3  1  0
  3  5  1  0
  3  4  1  6
  5  7  1  0
  5  6  1  6
  7  8  2  0
  9 10  1  0
  9  7  1  0
 10 11  1  1
 11 12  1  0
 12 16  1  0
 13 14  1  0
 13 12  2  0
 14 15  1  0
 15 16  2  0
 17 18  2  0
 17 10  1  0
 19 17  1  0
 20 19  1  0
 20 21  1  1
 22 21  1  0
 23 22  1  0
 24 23  1  0
 24 25  1  0
 26 20  1  0
 26 27  1  0
 28 26  2  0
M  END
$$$$
