IHK.pdb
     RDKit          3D

 28 28  0  0  1  0  0  0  0  0999 V2000
   22.5258  -19.0145  -19.3695 C   0  0  0  0  0  0  0  0  0  0  0  0
   23.9305  -19.3188  -18.9742 C   0  0  0  0  0  0  0  0  0  0  0  0
   24.1819  -19.3928  -17.4929 C   0  0  2  0  0  0  0  0  0  0  0  0
   23.8150  -18.0357  -16.8839 C   0  0  0  0  0  0  0  0  0  0  0  0
   25.6001  -19.7462  -17.2219 C   0  0  2  0  0  0  0  0  0  0  0  0
   26.4837  -18.8573  -17.9015 N   0  0  0  0  0  0  0  0  0  0  0  0
   25.9012  -21.1763  -17.4839 C   0  0  0  0  0  0  0  0  0  0  0  0
   26.2292  -21.5423  -18.6303 O   0  0  0  0  0  0  0  0  0  0  0  0
   25.8450  -22.2056  -16.4994 N   0  0  0  0  0  0  0  0  0  0  0  0
   26.0418  -23.5832  -16.7616 C   0  0  1  0  0  0  0  0  0  0  0  0
   27.2490  -24.2535  -16.2906 C   0  0  0  0  0  0  0  0  0  0  0  0
   27.4950  -25.6362  -16.6480 C   0  0  0  0  0  0  0  0  0  0  0  0
   27.7912  -26.2590  -17.8081 C   0  0  0  0  0  0  0  0  0  0  0  0
   27.9472  -27.6045  -17.6165 N   0  0  0  0  0  0  0  0  0  0  0  0
   27.7350  -27.7709  -16.2998 C   0  0  0  0  0  0  0  0  0  0  0  0
   27.4655  -26.6244  -15.7009 N   0  0  0  0  0  0  0  0  0  0  0  0
   24.7913  -24.3482  -16.3953 C   0  0  0  0  0  0  0  0  0  0  0  0
   24.3357  -24.1463  -15.2477 O   0  0  0  0  0  0  0  0  0  0  0  0
   24.1527  -25.2390  -17.2634 N   0  0  0  0  0  0  0  0  0  0  0  0
   22.9665  -26.0068  -16.8986 C   0  0  1  0  0  0  0  0  0  0  0  0
   21.7144  -25.2195  -17.2100 C   0  0  0  0  0  0  0  0  0  0  0  0
   21.4316  -24.1204  -16.2460 C   0  0  0  0  0  0  0  0  0  0  0  0
   20.3840  -24.4610  -15.2225 C   0  0  0  0  0  0  0  0  0  0  0  0
   20.0925  -23.3260  -14.2842 C   0  0  0  0  0  0  0  0  0  0  0  0
   19.1319  -23.8175  -13.2889 N   0  0  0  0  0  0  0  0  0  0  0  0
   23.0235  -27.2871  -17.6230 C   0  0  0  0  0  0  0  0  0  0  0  0
   22.3562  -28.4108  -17.1759 O   0  0  0  0  0  0  0  0  0  0  0  0
   23.6947  -27.3682  -18.6768 O   0  0  0  0  0  0  0  0  0  0  0  0
  2  1  1  0
  2  3  1  0
  3  5  1  0
  3  4  1  1
  5  7  1  0
  5  6  1  6
  7  8  2  0
  9 10  1  0
  9  7  1  0
 10 11  1  1
 11 12  1  0
 12 16  1  0
 13 14  1  0
 13 12  2  0
 14 15  1  0
 15 16  2  0
 17 18  2  0
 17 10  1  0
 19 17  1  0
 20 19  1  0
 20 21  1  6
 22 21  1  0
 23 22  1  0
 24 23  1  0
 24 25  1  0
 26 20  1  0
 26 27  1  0
 28 26  2  0
M  END
$$$$
