ADI.pdb
     RDKit          3D

 22 21  0  0  1  0  0  0  0  0999 V2000
   16.5278  -13.0267  -16.8373 C   0  0  0  0  0  0  0  0  0  0  0  0
   17.9969  -12.8869  -17.2432 C   0  0  2  0  0  0  0  0  0  0  0  0
   18.6351  -14.1531  -16.8953 N   0  0  0  0  0  0  0  0  0  0  0  0
   18.6399  -11.7649  -16.5118 C   0  0  0  0  0  0  0  0  0  0  0  0
   18.3189  -11.5654  -15.3046 O   0  0  0  0  0  0  0  0  0  0  0  0
   19.5941  -10.9001  -17.0825 N   0  0  0  0  0  0  0  0  0  0  0  0
   20.1712   -9.8015  -16.2333 C   0  0  1  0  0  0  0  0  0  0  0  0
   21.6263   -9.8271  -16.6426 C   0  0  0  0  0  0  0  0  0  0  0  0
   22.5208  -10.7343  -15.9787 C   0  0  0  0  0  0  0  0  0  0  0  0
   22.4441  -11.2624  -14.8553 O   0  0  0  0  0  0  0  0  0  0  0  0
   19.5662   -8.5370  -16.6563 C   0  0  0  0  0  0  0  0  0  0  0  0
   19.4418   -8.3382  -17.9245 O   0  0  0  0  0  0  0  0  0  0  0  0
   23.6936  -11.1075  -16.6981 O   0  0  0  0  0  0  0  0  0  0  0  0
   14.8797   -4.9609  -16.8304 C   0  0  0  0  0  0  0  0  0  0  0  0
   16.3454   -4.9103  -16.6249 C   0  0  0  0  0  0  0  0  0  0  0  0
   17.0049   -6.1439  -16.1232 C   0  0  2  0  0  0  0  0  0  0  0  0
   16.6591   -6.4511  -14.6712 C   0  0  0  0  0  0  0  0  0  0  0  0
   18.4581   -6.2875  -16.4193 C   0  0  2  0  0  0  0  0  0  0  0  0
   19.0803   -7.4765  -15.8739 N   0  0  0  0  0  0  0  0  0  0  0  0
   19.1663   -5.0913  -15.8938 C   0  0  0  0  0  0  0  0  0  0  0  0
   19.1242   -3.8578  -16.5231 O   0  0  0  0  0  0  0  0  0  0  0  0
   19.8478   -5.1559  -14.8309 O   0  0  0  0  0  0  0  0  0  0  0  0
  2  1  1  1
  2  3  1  0
  4  2  1  0
  5  4  2  0
  6  4  1  0
  7  6  1  0
  7 11  1  0
  7  8  1  6
  9 10  2  0
  9  8  1  0
 11 12  2  0
 11 19  1  0
 13  9  1  0
 15 14  1  0
 16 15  1  0
 16 17  1  1
 18 16  1  0
 18 20  1  0
 18 19  1  1
 20 21  1  0
 22 20  2  0
M  END
$$$$
