ADI.pdb
     RDKit          3D

 22 21  0  0  1  0  0  0  0  0999 V2000
   27.4334  -19.6620  -16.4963 C   0  0  0  0  0  0  0  0  0  0  0  0
   27.7812  -20.4113  -15.2078 C   0  0  2  0  0  0  0  0  0  0  0  0
   27.6344  -21.8314  -15.5134 N   0  0  0  0  0  0  0  0  0  0  0  0
   26.8617  -20.0206  -14.1081 C   0  0  0  0  0  0  0  0  0  0  0  0
   26.8734  -18.8215  -13.7056 O   0  0  0  0  0  0  0  0  0  0  0  0
   25.9685  -20.9093  -13.4786 N   0  0  0  0  0  0  0  0  0  0  0  0
   25.0629  -20.3796  -12.4015 C   0  0  1  0  0  0  0  0  0  0  0  0
   23.7768  -21.1210  -12.6871 C   0  0  0  0  0  0  0  0  0  0  0  0
   22.9342  -20.6670  -13.7583 C   0  0  0  0  0  0  0  0  0  0  0  0
   22.6467  -21.2077  -14.8408 O   0  0  0  0  0  0  0  0  0  0  0  0
   25.5983  -20.8090  -11.1080 C   0  0  0  0  0  0  0  0  0  0  0  0
   25.8724  -22.0616  -10.9700 O   0  0  0  0  0  0  0  0  0  0  0  0
   22.3139  -19.3956  -13.5812 O   0  0  0  0  0  0  0  0  0  0  0  0
   28.8976  -19.8465   -6.0863 C   0  0  0  0  0  0  0  0  0  0  0  0
   27.5527  -20.2765   -6.5331 C   0  0  0  0  0  0  0  0  0  0  0  0
   27.0396  -19.6962   -7.8013 C   0  0  2  0  0  0  0  0  0  0  0  0
   26.3557  -18.3492   -7.6018 C   0  0  0  0  0  0  0  0  0  0  0  0
   26.2714  -20.6142   -8.6887 C   0  0  2  0  0  0  0  0  0  0  0  0
   25.8737  -20.0468   -9.9608 N   0  0  0  0  0  0  0  0  0  0  0  0
   25.0550  -21.0631   -7.9623 C   0  0  0  0  0  0  0  0  0  0  0  0
   23.7774  -20.6658   -8.3212 O   0  0  0  0  0  0  0  0  0  0  0  0
   25.1427  -21.8405   -6.9691 O   0  0  0  0  0  0  0  0  0  0  0  0
  2  1  1  6
  2  3  1  0
  4  2  1  0
  5  4  2  0
  6  4  1  0
  7  6  1  0
  7 11  1  0
  7  8  1  6
  9 10  2  0
  9  8  1  0
 11 12  2  0
 11 19  1  0
 13  9  1  0
 15 14  1  0
 16 15  1  0
 16 17  1  1
 18 16  1  0
 18 20  1  0
 18 19  1  6
 20 21  1  0
 22 20  2  0
M  END
$$$$
