ADI.pdb
     RDKit          3D

 22 21  0  0  1  0  0  0  0  0999 V2000
   20.5732  -12.8715  -21.6977 C   0  0  0  0  0  0  0  0  0  0  0  0
   19.9641  -12.5232  -20.3375 C   0  0  2  0  0  0  0  0  0  0  0  0
   18.5363  -12.3279  -20.5716 N   0  0  0  0  0  0  0  0  0  0  0  0
   20.5735  -11.2834  -19.7907 C   0  0  0  0  0  0  0  0  0  0  0  0
   21.7983  -11.2984  -19.4751 O   0  0  0  0  0  0  0  0  0  0  0  0
   19.8672  -10.0799  -19.5992 N   0  0  0  0  0  0  0  0  0  0  0  0
   20.6187   -8.8720  -19.1122 C   0  0  1  0  0  0  0  0  0  0  0  0
   19.8532   -7.7463  -19.7696 C   0  0  0  0  0  0  0  0  0  0  0  0
   20.2009   -6.3891  -19.4523 C   0  0  0  0  0  0  0  0  0  0  0  0
   21.3001   -5.8879  -19.1564 O   0  0  0  0  0  0  0  0  0  0  0  0
   20.4548   -8.7922  -17.6593 C   0  0  0  0  0  0  0  0  0  0  0  0
   19.3029   -9.1153  -17.1775 O   0  0  0  0  0  0  0  0  0  0  0  0
   19.1362   -5.4413  -19.4712 O   0  0  0  0  0  0  0  0  0  0  0  0
   23.6643  -11.2346  -14.6264 C   0  0  0  0  0  0  0  0  0  0  0  0
   22.3480  -10.6423  -14.9577 C   0  0  0  0  0  0  0  0  0  0  0  0
   22.0739   -9.2705  -14.4562 C   0  0  2  0  0  0  0  0  0  0  0  0
   21.7856   -9.2337  -12.9604 C   0  0  0  0  0  0  0  0  0  0  0  0
   21.1196   -8.4501  -15.2541 C   0  0  2  0  0  0  0  0  0  0  0  0
   21.3848   -8.4126  -16.6776 N   0  0  0  0  0  0  0  0  0  0  0  0
   21.1368   -7.0610  -14.7260 C   0  0  0  0  0  0  0  0  0  0  0  0
   20.3885   -6.6661  -13.6291 O   0  0  0  0  0  0  0  0  0  0  0  0
   21.8496   -6.1694  -15.2693 O   0  0  0  0  0  0  0  0  0  0  0  0
  2  1  1  6
  2  3  1  0
  4  2  1  0
  5  4  2  0
  6  4  1  0
  7  6  1  0
  7 11  1  0
  7  8  1  6
  9 10  2  0
  9  8  1  0
 11 12  2  0
 11 19  1  0
 13  9  1  0
 15 14  1  0
 16 15  1  0
 16 17  1  1
 18 16  1  0
 18 20  1  0
 18 19  1  6
 20 21  1  0
 22 20  2  0
M  END
$$$$
