ADI.pdb
     RDKit          3D

 22 21  0  0  1  0  0  0  0  0999 V2000
   24.1982  -26.7483  -16.6671 C   0  0  0  0  0  0  0  0  0  0  0  0
   25.3611  -26.0323  -17.3582 C   0  0  2  0  0  0  0  0  0  0  0  0
   26.5115  -26.9238  -17.2422 N   0  0  0  0  0  0  0  0  0  0  0  0
   25.6450  -24.7321  -16.6977 C   0  0  0  0  0  0  0  0  0  0  0  0
   26.7583  -24.5775  -16.1174 O   0  0  0  0  0  0  0  0  0  0  0  0
   24.7444  -23.6494  -16.6761 N   0  0  0  0  0  0  0  0  0  0  0  0
   25.2096  -22.3351  -16.1128 C   0  0  1  0  0  0  0  0  0  0  0  0
   24.4756  -21.3462  -16.9895 C   0  0  0  0  0  0  0  0  0  0  0  0
   24.4823  -19.9560  -16.6281 C   0  0  0  0  0  0  0  0  0  0  0  0
   25.4204  -19.2216  -16.2709 O   0  0  0  0  0  0  0  0  0  0  0  0
   24.7155  -22.2313  -14.7383 C   0  0  0  0  0  0  0  0  0  0  0  0
   23.5713  -22.7679  -14.4811 O   0  0  0  0  0  0  0  0  0  0  0  0
   23.2267  -19.2826  -16.6769 O   0  0  0  0  0  0  0  0  0  0  0  0
   25.7825  -20.4164   -8.7799 C   0  0  0  0  0  0  0  0  0  0  0  0
   24.9318  -20.9277   -9.8790 C   0  0  0  0  0  0  0  0  0  0  0  0
   25.5590  -21.0584  -11.2200 C   0  0  2  0  0  0  0  0  0  0  0  0
   26.4304  -19.8627  -11.5848 C   0  0  0  0  0  0  0  0  0  0  0  0
   24.6656  -21.4893  -12.3318 C   0  0  2  0  0  0  0  0  0  0  0  0
   25.3126  -21.6253  -13.6207 N   0  0  0  0  0  0  0  0  0  0  0  0
   23.5567  -20.5072  -12.4528 C   0  0  0  0  0  0  0  0  0  0  0  0
   23.5689  -19.4714  -13.3726 O   0  0  0  0  0  0  0  0  0  0  0  0
   22.5398  -20.5820  -11.7053 O   0  0  0  0  0  0  0  0  0  0  0  0
  2  1  1  1
  2  3  1  0
  4  2  1  0
  5  4  2  0
  6  4  1  0
  7  6  1  0
  7 11  1  0
  7  8  1  6
  9 10  2  0
  9  8  1  0
 11 12  2  0
 11 19  1  0
 13  9  1  0
 15 14  1  0
 16 15  1  0
 16 17  1  6
 18 16  1  0
 18 20  1  0
 18 19  1  6
 20 21  1  0
 22 20  2  0
M  END
$$$$
