ADI.pdb
     RDKit          3D

 22 21  0  0  1  0  0  0  0  0999 V2000
   17.0796  -12.4978  -14.4852 C   0  0  0  0  0  0  0  0  0  0  0  0
   16.0032  -11.5416  -13.9660 C   0  0  2  0  0  0  0  0  0  0  0  0
   15.2624  -11.0901  -15.1403 N   0  0  0  0  0  0  0  0  0  0  0  0
   16.6204  -10.3850  -13.2669 C   0  0  0  0  0  0  0  0  0  0  0  0
   17.2345  -10.5910  -12.1804 O   0  0  0  0  0  0  0  0  0  0  0  0
   16.5650   -9.0601  -13.7416 N   0  0  0  0  0  0  0  0  0  0  0  0
   17.1657   -7.9671  -12.9016 C   0  0  1  0  0  0  0  0  0  0  0  0
   17.5197   -6.9337  -13.9468 C   0  0  0  0  0  0  0  0  0  0  0  0
   18.0187   -5.6555  -13.5215 C   0  0  0  0  0  0  0  0  0  0  0  0
   18.3173   -4.6467  -14.1849 O   0  0  0  0  0  0  0  0  0  0  0  0
   16.1163   -7.4392  -12.0275 C   0  0  0  0  0  0  0  0  0  0  0  0
   14.9383   -7.3052  -12.5351 O   0  0  0  0  0  0  0  0  0  0  0  0
   18.2133   -5.4859  -12.1194 O   0  0  0  0  0  0  0  0  0  0  0  0
   12.3055   -7.7153   -7.6056 C   0  0  0  0  0  0  0  0  0  0  0  0
   13.1635   -6.7758   -8.3635 C   0  0  0  0  0  0  0  0  0  0  0  0
   14.3692   -7.3387   -9.0254 C   0  0  2  0  0  0  0  0  0  0  0  0
   15.2903   -8.0686   -8.0555 C   0  0  0  0  0  0  0  0  0  0  0  0
   15.1012   -6.4320   -9.9540 C   0  0  2  0  0  0  0  0  0  0  0  0
   16.1921   -7.0491  -10.6803 N   0  0  0  0  0  0  0  0  0  0  0  0
   15.6334   -5.2860   -9.1715 C   0  0  0  0  0  0  0  0  0  0  0  0
   14.8381   -4.2349   -8.7452 O   0  0  0  0  0  0  0  0  0  0  0  0
   16.8570   -5.2264   -8.8592 O   0  0  0  0  0  0  0  0  0  0  0  0
  2  1  1  6
  2  3  1  0
  4  2  1  0
  5  4  2  0
  6  4  1  0
  7  6  1  0
  7 11  1  0
  7  8  1  6
  9 10  2  0
  9  8  1  0
 11 12  2  0
 11 19  1  0
 13  9  1  0
 15 14  1  0
 16 15  1  0
 16 17  1  1
 18 16  1  0
 18 20  1  0
 18 19  1  1
 20 21  1  0
 22 20  2  0
M  END
$$$$
