ADI.pdb
     RDKit          3D

 22 21  0  0  1  0  0  0  0  0999 V2000
   13.6302   -8.0376  -15.2166 C   0  0  0  0  0  0  0  0  0  0  0  0
   15.0642   -8.4366  -14.8605 C   0  0  2  0  0  0  0  0  0  0  0  0
   14.9555   -9.6106  -13.9994 N   0  0  0  0  0  0  0  0  0  0  0  0
   15.7549   -7.3324  -14.1456 C   0  0  0  0  0  0  0  0  0  0  0  0
   15.9635   -6.2480  -14.7626 O   0  0  0  0  0  0  0  0  0  0  0  0
   16.1968   -7.4166  -12.8108 N   0  0  0  0  0  0  0  0  0  0  0  0
   16.9053   -6.2345  -12.2095 C   0  0  1  0  0  0  0  0  0  0  0  0
   16.5159   -6.3491  -10.7532 C   0  0  0  0  0  0  0  0  0  0  0  0
   17.1622   -5.5012   -9.7906 C   0  0  0  0  0  0  0  0  0  0  0  0
   17.9239   -4.5318   -9.9547 O   0  0  0  0  0  0  0  0  0  0  0  0
   18.3467   -6.4516  -12.3490 C   0  0  0  0  0  0  0  0  0  0  0  0
   18.8313   -7.5349  -11.8441 O   0  0  0  0  0  0  0  0  0  0  0  0
   16.9091   -5.7930   -8.4183 O   0  0  0  0  0  0  0  0  0  0  0  0
   22.6864   -8.6202  -13.8692 C   0  0  0  0  0  0  0  0  0  0  0  0
   22.3272   -7.3669  -14.5716 C   0  0  0  0  0  0  0  0  0  0  0  0
   20.9430   -6.8576  -14.3890 C   0  0  2  0  0  0  0  0  0  0  0  0
   20.3708   -6.2319  -15.6551 C   0  0  0  0  0  0  0  0  0  0  0  0
   20.6921   -6.0391  -13.1695 C   0  0  2  0  0  0  0  0  0  0  0  0
   19.3130   -5.6432  -12.9699 N   0  0  0  0  0  0  0  0  0  0  0  0
   21.5364   -4.8181  -13.2398 C   0  0  0  0  0  0  0  0  0  0  0  0
   21.0075   -3.5488  -13.4083 O   0  0  0  0  0  0  0  0  0  0  0  0
   22.7950   -4.8936  -13.1463 O   0  0  0  0  0  0  0  0  0  0  0  0
  2  1  1  1
  2  3  1  0
  4  2  1  0
  5  4  2  0
  6  4  1  0
  7  6  1  0
  7 11  1  0
  7  8  1  1
  9 10  2  0
  9  8  1  0
 11 12  2  0
 11 19  1  0
 13  9  1  0
 15 14  1  0
 16 15  1  0
 16 17  1  6
 18 16  1  0
 18 20  1  0
 18 19  1  6
 20 21  1  0
 22 20  2  0
M  END
$$$$
