ADI.pdb
     RDKit          3D

 22 21  0  0  1  0  0  0  0  0999 V2000
   17.7765  -11.8872  -16.4071 C   0  0  0  0  0  0  0  0  0  0  0  0
   17.9421  -10.3717  -16.5421 C   0  0  2  0  0  0  0  0  0  0  0  0
   18.0322  -10.1004  -17.9738 N   0  0  0  0  0  0  0  0  0  0  0  0
   19.1744   -9.9139  -15.8498 C   0  0  0  0  0  0  0  0  0  0  0  0
   19.2244   -9.9895  -14.5881 O   0  0  0  0  0  0  0  0  0  0  0  0
   20.3023   -9.3957  -16.5155 N   0  0  0  0  0  0  0  0  0  0  0  0
   21.5246   -9.0575  -15.7077 C   0  0  1  0  0  0  0  0  0  0  0  0
   22.6346   -9.5634  -16.6007 C   0  0  0  0  0  0  0  0  0  0  0  0
   23.0291  -10.9415  -16.5088 C   0  0  0  0  0  0  0  0  0  0  0  0
   22.7145  -11.8155  -15.6816 O   0  0  0  0  0  0  0  0  0  0  0  0
   21.6081   -7.5995  -15.6016 C   0  0  0  0  0  0  0  0  0  0  0  0
   21.8519   -6.9426  -16.6844 O   0  0  0  0  0  0  0  0  0  0  0  0
   23.9249  -11.4125  -17.5129 O   0  0  0  0  0  0  0  0  0  0  0  0
   20.0884   -2.5043  -15.9285 C   0  0  0  0  0  0  0  0  0  0  0  0
   20.2310   -3.1567  -14.6065 C   0  0  0  0  0  0  0  0  0  0  0  0
   20.2009   -4.6421  -14.5744 C   0  0  2  0  0  0  0  0  0  0  0  0
   19.1903   -5.1921  -13.5752 C   0  0  0  0  0  0  0  0  0  0  0  0
   21.5200   -5.3318  -14.5088 C   0  0  2  0  0  0  0  0  0  0  0  0
   21.4544   -6.7784  -14.4724 N   0  0  0  0  0  0  0  0  0  0  0  0
   22.2420   -4.8537  -13.3009 C   0  0  0  0  0  0  0  0  0  0  0  0
   22.4932   -5.6652  -12.2067 O   0  0  0  0  0  0  0  0  0  0  0  0
   22.6627   -3.6639  -13.2254 O   0  0  0  0  0  0  0  0  0  0  0  0
  2  1  1  6
  2  3  1  0
  4  2  1  0
  5  4  2  0
  6  4  1  0
  7  6  1  0
  7 11  1  0
  7  8  1  6
  9 10  2  0
  9  8  1  0
 11 12  2  0
 11 19  1  0
 13  9  1  0
 15 14  1  0
 16 15  1  0
 16 17  1  1
 18 16  1  0
 18 20  1  0
 18 19  1  1
 20 21  1  0
 22 20  2  0
M  END
$$$$
