ADI.pdb
     RDKit          3D

 22 21  0  0  1  0  0  0  0  0999 V2000
   22.2486  -13.9102  -19.9777 C   0  0  0  0  0  0  0  0  0  0  0  0
   21.3023  -13.1735  -19.0267 C   0  0  2  0  0  0  0  0  0  0  0  0
   20.0820  -12.9189  -19.7869 N   0  0  0  0  0  0  0  0  0  0  0  0
   21.9052  -11.8940  -18.5719 C   0  0  0  0  0  0  0  0  0  0  0  0
   22.7973  -11.9293  -17.6757 O   0  0  0  0  0  0  0  0  0  0  0  0
   21.5434  -10.6312  -19.0801 N   0  0  0  0  0  0  0  0  0  0  0  0
   22.2385   -9.4110  -18.5424 C   0  0  1  0  0  0  0  0  0  0  0  0
   22.0675   -8.4314  -19.6810 C   0  0  0  0  0  0  0  0  0  0  0  0
   22.9938   -8.4701  -20.7783 C   0  0  0  0  0  0  0  0  0  0  0  0
   24.2072   -8.7427  -20.7981 O   0  0  0  0  0  0  0  0  0  0  0  0
   21.4894   -8.9406  -17.3756 C   0  0  0  0  0  0  0  0  0  0  0  0
   20.2070   -8.8642  -17.4898 O   0  0  0  0  0  0  0  0  0  0  0  0
   22.4674   -8.1489  -22.0636 O   0  0  0  0  0  0  0  0  0  0  0  0
   20.4420   -9.5833  -11.4481 C   0  0  0  0  0  0  0  0  0  0  0  0
   20.3615   -8.7091  -12.6408 C   0  0  0  0  0  0  0  0  0  0  0  0
   21.1869   -9.0864  -13.8176 C   0  0  2  0  0  0  0  0  0  0  0  0
   22.6192   -9.4485  -13.4443 C   0  0  0  0  0  0  0  0  0  0  0  0
   21.1030   -8.1877  -15.0032 C   0  0  2  0  0  0  0  0  0  0  0  0
   21.9619   -8.5526  -16.1110 N   0  0  0  0  0  0  0  0  0  0  0  0
   21.4378   -6.8057  -14.5713 C   0  0  0  0  0  0  0  0  0  0  0  0
   20.5534   -6.0044  -13.8679 O   0  0  0  0  0  0  0  0  0  0  0  0
   22.5657   -6.2991  -14.8351 O   0  0  0  0  0  0  0  0  0  0  0  0
  2  1  1  6
  2  3  1  0
  4  2  1  0
  5  4  2  0
  6  4  1  0
  7  6  1  0
  7 11  1  0
  7  8  1  6
  9 10  2  0
  9  8  1  0
 11 12  2  0
 11 19  1  0
 13  9  1  0
 15 14  1  0
 16 15  1  0
 16 17  1  1
 18 16  1  0
 18 20  1  0
 18 19  1  6
 20 21  1  0
 22 20  2  0
M  END
$$$$
