ADI.pdb
     RDKit          3D

 22 21  0  0  1  0  0  0  0  0999 V2000
   15.3557  -12.8942  -18.4666 C   0  0  0  0  0  0  0  0  0  0  0  0
   16.6754  -13.0065  -17.6998 C   0  0  2  0  0  0  0  0  0  0  0  0
   16.3482  -13.6282  -16.4199 N   0  0  0  0  0  0  0  0  0  0  0  0
   17.2744  -11.6639  -17.4851 C   0  0  0  0  0  0  0  0  0  0  0  0
   18.3248  -11.3602  -18.1212 O   0  0  0  0  0  0  0  0  0  0  0  0
   16.7420  -10.6976  -16.6095 N   0  0  0  0  0  0  0  0  0  0  0  0
   17.3389   -9.3175  -16.6091 C   0  0  1  0  0  0  0  0  0  0  0  0
   16.2031   -8.4900  -16.0518 C   0  0  0  0  0  0  0  0  0  0  0  0
   16.4510   -7.1229  -15.6870 C   0  0  0  0  0  0  0  0  0  0  0  0
   15.9723   -6.4356  -14.7674 O   0  0  0  0  0  0  0  0  0  0  0  0
   18.4591   -9.3089  -15.6662 C   0  0  0  0  0  0  0  0  0  0  0  0
   18.2578   -9.8369  -14.5069 O   0  0  0  0  0  0  0  0  0  0  0  0
   17.3920   -6.4136  -16.4894 O   0  0  0  0  0  0  0  0  0  0  0  0
   23.9899  -10.9702  -14.2477 C   0  0  0  0  0  0  0  0  0  0  0  0
   22.9665   -9.9150  -14.0674 C   0  0  0  0  0  0  0  0  0  0  0  0
   21.8954   -9.8239  -15.0936 C   0  0  2  0  0  0  0  0  0  0  0  0
   22.4423   -9.7057  -16.5110 C   0  0  0  0  0  0  0  0  0  0  0  0
   20.7879   -8.8671  -14.8144 C   0  0  2  0  0  0  0  0  0  0  0  0
   19.7597   -8.8054  -15.8328 N   0  0  0  0  0  0  0  0  0  0  0  0
   21.3702   -7.5112  -14.6377 C   0  0  0  0  0  0  0  0  0  0  0  0
   21.2160   -6.5007  -15.5728 O   0  0  0  0  0  0  0  0  0  0  0  0
   22.0418   -7.2232  -13.6060 O   0  0  0  0  0  0  0  0  0  0  0  0
  2  1  1  6
  2  3  1  0
  4  2  1  0
  5  4  2  0
  6  4  1  0
  7  6  1  0
  7 11  1  0
  7  8  1  1
  9 10  2  0
  9  8  1  0
 11 12  2  0
 11 19  1  0
 13  9  1  0
 15 14  1  0
 16 15  1  0
 16 17  1  6
 18 16  1  0
 18 20  1  0
 18 19  1  6
 20 21  1  0
 22 20  2  0
M  END
$$$$
