ADI.pdb
     RDKit          3D

 22 21  0  0  1  0  0  0  0  0999 V2000
   17.0268  -13.4655  -17.2587 C   0  0  0  0  0  0  0  0  0  0  0  0
   16.1051  -12.3527  -16.7542 C   0  0  2  0  0  0  0  0  0  0  0  0
   14.8513  -12.5023  -17.4873 N   0  0  0  0  0  0  0  0  0  0  0  0
   16.7015  -11.0173  -17.0157 C   0  0  0  0  0  0  0  0  0  0  0  0
   16.3106  -10.3666  -18.0276 O   0  0  0  0  0  0  0  0  0  0  0  0
   17.6844  -10.4232  -16.2003 N   0  0  0  0  0  0  0  0  0  0  0  0
   18.1422   -9.0276  -16.5226 C   0  0  1  0  0  0  0  0  0  0  0  0
   16.8680   -8.2348  -16.3399 C   0  0  0  0  0  0  0  0  0  0  0  0
   16.9282   -6.8002  -16.3820 C   0  0  0  0  0  0  0  0  0  0  0  0
   17.0194   -6.0265  -17.3515 O   0  0  0  0  0  0  0  0  0  0  0  0
   19.1183   -8.6256  -15.5080 C   0  0  0  0  0  0  0  0  0  0  0  0
   18.8849   -8.9832  -14.2910 O   0  0  0  0  0  0  0  0  0  0  0  0
   16.8773   -6.1268  -15.1265 O   0  0  0  0  0  0  0  0  0  0  0  0
   23.8470  -10.4346  -13.8062 C   0  0  0  0  0  0  0  0  0  0  0  0
   23.7102   -9.0723  -14.3708 C   0  0  0  0  0  0  0  0  0  0  0  0
   22.5747   -8.8316  -15.2989 C   0  0  2  0  0  0  0  0  0  0  0  0
   23.0273   -8.3977  -16.6877 C   0  0  0  0  0  0  0  0  0  0  0  0
   21.4475   -8.0126  -14.7708 C   0  0  2  0  0  0  0  0  0  0  0  0
   20.3080   -7.8940  -15.6572 N   0  0  0  0  0  0  0  0  0  0  0  0
   21.9585   -6.6518  -14.4614 C   0  0  0  0  0  0  0  0  0  0  0  0
   21.5113   -5.5157  -15.1159 O   0  0  0  0  0  0  0  0  0  0  0  0
   22.8386   -6.4765  -13.5708 O   0  0  0  0  0  0  0  0  0  0  0  0
  2  1  1  6
  2  3  1  0
  4  2  1  0
  5  4  2  0
  6  4  1  0
  7  6  1  0
  7 11  1  0
  7  8  1  1
  9 10  2  0
  9  8  1  0
 11 12  2  0
 11 19  1  0
 13  9  1  0
 15 14  1  0
 16 15  1  0
 16 17  1  6
 18 16  1  0
 18 20  1  0
 18 19  1  6
 20 21  1  0
 22 20  2  0
M  END
$$$$
