ADI.pdb
     RDKit          3D

 22 21  0  0  1  0  0  0  0  0999 V2000
   18.1370  -10.7810  -20.0988 C   0  0  0  0  0  0  0  0  0  0  0  0
   19.4956  -10.4347  -19.4851 C   0  0  2  0  0  0  0  0  0  0  0  0
   20.0747  -11.7001  -19.0436 N   0  0  0  0  0  0  0  0  0  0  0  0
   19.3318   -9.5105  -18.3333 C   0  0  0  0  0  0  0  0  0  0  0  0
   18.2975   -9.6173  -17.6130 O   0  0  0  0  0  0  0  0  0  0  0  0
   20.2643   -8.5127  -17.9886 N   0  0  0  0  0  0  0  0  0  0  0  0
   20.0278   -7.7034  -16.7436 C   0  0  1  0  0  0  0  0  0  0  0  0
   21.3351   -7.8828  -16.0058 C   0  0  0  0  0  0  0  0  0  0  0  0
   21.4467   -8.9325  -15.0316 C   0  0  0  0  0  0  0  0  0  0  0  0
   20.5932   -9.7319  -14.6082 O   0  0  0  0  0  0  0  0  0  0  0  0
   19.8765   -6.3011  -17.1371 C   0  0  0  0  0  0  0  0  0  0  0  0
   20.6616   -5.8599  -18.0602 O   0  0  0  0  0  0  0  0  0  0  0  0
   22.7299   -9.1108  -14.4366 O   0  0  0  0  0  0  0  0  0  0  0  0
   17.4355   -1.9791  -19.7517 C   0  0  0  0  0  0  0  0  0  0  0  0
   17.4989   -2.2081  -18.2899 C   0  0  0  0  0  0  0  0  0  0  0  0
   17.6305   -3.6140  -17.8268 C   0  0  2  0  0  0  0  0  0  0  0  0
   16.4018   -4.1058  -17.0715 C   0  0  0  0  0  0  0  0  0  0  0  0
   18.9107   -3.9749  -17.1552 C   0  0  2  0  0  0  0  0  0  0  0  0
   18.9796   -5.3330  -16.6561 N   0  0  0  0  0  0  0  0  0  0  0  0
   19.1302   -3.0363  -16.0241 C   0  0  0  0  0  0  0  0  0  0  0  0
   19.6855   -1.7781  -16.1902 O   0  0  0  0  0  0  0  0  0  0  0  0
   18.8117   -3.3577  -14.8435 O   0  0  0  0  0  0  0  0  0  0  0  0
  2  1  1  1
  2  3  1  0
  4  2  1  0
  5  4  2  0
  6  4  1  0
  7  6  1  0
  7 11  1  0
  7  8  1  1
  9 10  2  0
  9  8  1  0
 11 12  2  0
 11 19  1  0
 13  9  1  0
 15 14  1  0
 16 15  1  0
 16 17  1  1
 18 16  1  0
 18 20  1  0
 18 19  1  1
 20 21  1  0
 22 20  2  0
M  END
$$$$
