ADI.pdb
     RDKit          3D

 22 21  0  0  1  0  0  0  0  0999 V2000
   16.5778  -12.9464  -19.8450 C   0  0  0  0  0  0  0  0  0  0  0  0
   17.3933  -12.9397  -18.5499 C   0  0  2  0  0  0  0  0  0  0  0  0
   16.5233  -13.5017  -17.5209 N   0  0  0  0  0  0  0  0  0  0  0  0
   17.7951  -11.5557  -18.1888 C   0  0  0  0  0  0  0  0  0  0  0  0
   18.7816  -11.0357  -18.7860 O   0  0  0  0  0  0  0  0  0  0  0  0
   17.1409  -10.7773  -17.2141 N   0  0  0  0  0  0  0  0  0  0  0  0
   17.6130   -9.3691  -16.9792 C   0  0  1  0  0  0  0  0  0  0  0  0
   16.3812   -8.7258  -16.3840 C   0  0  0  0  0  0  0  0  0  0  0  0
   16.4667   -7.3777  -15.8951 C   0  0  0  0  0  0  0  0  0  0  0  0
   17.3512   -6.5181  -16.0548 O   0  0  0  0  0  0  0  0  0  0  0  0
   18.6775   -9.4101  -15.9747 C   0  0  0  0  0  0  0  0  0  0  0  0
   18.4231  -10.0268  -14.8710 O   0  0  0  0  0  0  0  0  0  0  0  0
   15.3776   -6.9237  -15.0950 O   0  0  0  0  0  0  0  0  0  0  0  0
   24.1765  -11.0147  -14.3407 C   0  0  0  0  0  0  0  0  0  0  0  0
   23.0997  -10.0170  -14.1448 C   0  0  0  0  0  0  0  0  0  0  0  0
   22.0861   -9.8895  -15.2240 C   0  0  2  0  0  0  0  0  0  0  0  0
   22.7085   -9.6729  -16.5980 C   0  0  0  0  0  0  0  0  0  0  0  0
   20.9390   -8.9778  -14.9534 C   0  0  2  0  0  0  0  0  0  0  0  0
   19.9736   -8.8714  -16.0281 N   0  0  0  0  0  0  0  0  0  0  0  0
   21.4739   -7.6241  -14.6532 C   0  0  0  0  0  0  0  0  0  0  0  0
   21.3909   -6.5693  -15.5474 O   0  0  0  0  0  0  0  0  0  0  0  0
   22.0362   -7.3795  -13.5476 O   0  0  0  0  0  0  0  0  0  0  0  0
  2  1  1  6
  2  3  1  0
  4  2  1  0
  5  4  2  0
  6  4  1  0
  7  6  1  0
  7 11  1  0
  7  8  1  1
  9 10  2  0
  9  8  1  0
 11 12  2  0
 11 19  1  0
 13  9  1  0
 15 14  1  0
 16 15  1  0
 16 17  1  6
 18 16  1  0
 18 20  1  0
 18 19  1  6
 20 21  1  0
 22 20  2  0
M  END
$$$$
