ADI.pdb
     RDKit          3D

 22 21  0  0  1  0  0  0  0  0999 V2000
   15.2837   -8.5007  -19.2028 C   0  0  0  0  0  0  0  0  0  0  0  0
   16.7459   -8.0767  -19.0462 C   0  0  2  0  0  0  0  0  0  0  0  0
   17.5439   -9.1551  -19.6222 N   0  0  0  0  0  0  0  0  0  0  0  0
   17.0879   -7.8883  -17.6127 C   0  0  0  0  0  0  0  0  0  0  0  0
   16.6054   -6.8921  -17.0004 O   0  0  0  0  0  0  0  0  0  0  0  0
   17.9236   -8.7571  -16.8842 N   0  0  0  0  0  0  0  0  0  0  0  0
   18.1796   -8.4629  -15.4320 C   0  0  1  0  0  0  0  0  0  0  0  0
   18.2309   -9.8529  -14.8398 C   0  0  0  0  0  0  0  0  0  0  0  0
   16.9996  -10.5173  -14.5144 C   0  0  0  0  0  0  0  0  0  0  0  0
   15.9007  -10.0505  -14.1660 O   0  0  0  0  0  0  0  0  0  0  0  0
   19.4981   -7.8355  -15.3228 C   0  0  0  0  0  0  0  0  0  0  0  0
   20.5042   -8.4924  -15.7915 O   0  0  0  0  0  0  0  0  0  0  0  0
   17.0074  -11.9406  -14.5943 O   0  0  0  0  0  0  0  0  0  0  0  0
   20.5482   -3.9927  -17.8700 C   0  0  0  0  0  0  0  0  0  0  0  0
   21.1604   -5.1101  -17.1151 C   0  0  0  0  0  0  0  0  0  0  0  0
   21.4194   -4.8921  -15.6680 C   0  0  2  0  0  0  0  0  0  0  0  0
   22.7404   -4.1799  -15.4040 C   0  0  0  0  0  0  0  0  0  0  0  0
   21.1975   -6.0603  -14.7702 C   0  0  2  0  0  0  0  0  0  0  0  0
   19.8494   -6.5904  -14.7758 N   0  0  0  0  0  0  0  0  0  0  0  0
   21.5507   -5.6619  -13.3827 C   0  0  0  0  0  0  0  0  0  0  0  0
   22.8582   -5.6030  -12.9289 O   0  0  0  0  0  0  0  0  0  0  0  0
   20.6525   -5.3555  -12.5474 O   0  0  0  0  0  0  0  0  0  0  0  0
  2  1  1  1
  2  3  1  0
  4  2  1  0
  5  4  2  0
  6  4  1  0
  7  6  1  0
  7 11  1  0
  7  8  1  1
  9 10  2  0
  9  8  1  0
 11 12  2  0
 11 19  1  0
 13  9  1  0
 15 14  1  0
 16 15  1  0
 16 17  1  6
 18 16  1  0
 18 20  1  0
 18 19  1  1
 20 21  1  0
 22 20  2  0
M  END
$$$$
