ADI.pdb
     RDKit          3D

 22 21  0  0  1  0  0  0  0  0999 V2000
   16.3487  -11.7564  -16.0228 C   0  0  0  0  0  0  0  0  0  0  0  0
   16.0382  -11.8261  -14.5258 C   0  0  2  0  0  0  0  0  0  0  0  0
   14.5932  -11.6561  -14.4039 N   0  0  0  0  0  0  0  0  0  0  0  0
   16.7500  -10.7489  -13.7906 C   0  0  0  0  0  0  0  0  0  0  0  0
   18.0149  -10.7461  -13.7948 O   0  0  0  0  0  0  0  0  0  0  0  0
   16.0996   -9.7199  -13.0820 N   0  0  0  0  0  0  0  0  0  0  0  0
   16.9289   -8.6081  -12.5014 C   0  0  1  0  0  0  0  0  0  0  0  0
   17.3448   -7.8524  -13.7430 C   0  0  0  0  0  0  0  0  0  0  0  0
   18.0776   -6.6254  -13.5989 C   0  0  0  0  0  0  0  0  0  0  0  0
   17.9525   -5.5387  -14.1909 O   0  0  0  0  0  0  0  0  0  0  0  0
   16.0504   -7.7657  -11.6873 C   0  0  0  0  0  0  0  0  0  0  0  0
   14.9483   -7.3689  -12.2268 O   0  0  0  0  0  0  0  0  0  0  0  0
   19.1226   -6.6216  -12.6291 O   0  0  0  0  0  0  0  0  0  0  0  0
   12.2411   -6.5055   -7.6454 C   0  0  0  0  0  0  0  0  0  0  0  0
   13.6462   -6.0745   -7.8272 C   0  0  0  0  0  0  0  0  0  0  0  0
   14.5492   -6.9937   -8.5677 C   0  0  2  0  0  0  0  0  0  0  0  0
   15.4129   -7.8452   -7.6452 C   0  0  0  0  0  0  0  0  0  0  0  0
   15.3144   -6.4024   -9.7013 C   0  0  2  0  0  0  0  0  0  0  0  0
   16.2223   -7.3125  -10.3690 N   0  0  0  0  0  0  0  0  0  0  0  0
   16.0883   -5.2403   -9.1920 C   0  0  0  0  0  0  0  0  0  0  0  0
   17.4671   -5.2572   -9.0593 O   0  0  0  0  0  0  0  0  0  0  0  0
   15.5051   -4.1708   -8.8538 O   0  0  0  0  0  0  0  0  0  0  0  0
  2  1  1  6
  2  3  1  0
  4  2  1  0
  5  4  2  0
  6  4  1  0
  7  6  1  0
  7 11  1  0
  7  8  1  6
  9 10  2  0
  9  8  1  0
 11 12  2  0
 11 19  1  0
 13  9  1  0
 15 14  1  0
 16 15  1  0
 16 17  1  1
 18 16  1  0
 18 20  1  0
 18 19  1  1
 20 21  1  0
 22 20  2  0
M  END
$$$$
