ADI.pdb
     RDKit          3D

 22 21  0  0  1  0  0  0  0  0999 V2000
   17.7328  -12.0373  -15.2903 C   0  0  0  0  0  0  0  0  0  0  0  0
   16.6295  -11.5497  -14.3482 C   0  0  2  0  0  0  0  0  0  0  0  0
   15.4887  -11.2197  -15.1975 N   0  0  0  0  0  0  0  0  0  0  0  0
   17.0757  -10.3513  -13.5919 C   0  0  0  0  0  0  0  0  0  0  0  0
   17.7407  -10.5185  -12.5289 O   0  0  0  0  0  0  0  0  0  0  0  0
   16.8029   -9.0271  -13.9870 N   0  0  0  0  0  0  0  0  0  0  0  0
   17.2339   -7.9024  -13.0869 C   0  0  1  0  0  0  0  0  0  0  0  0
   17.5336   -6.8064  -14.0842 C   0  0  0  0  0  0  0  0  0  0  0  0
   17.8564   -5.4931  -13.5998 C   0  0  0  0  0  0  0  0  0  0  0  0
   17.8912   -5.0495  -12.4384 O   0  0  0  0  0  0  0  0  0  0  0  0
   16.0859   -7.5152  -12.2647 C   0  0  0  0  0  0  0  0  0  0  0  0
   14.9249   -7.5365  -12.8259 O   0  0  0  0  0  0  0  0  0  0  0  0
   18.1955   -4.5201  -14.5850 O   0  0  0  0  0  0  0  0  0  0  0  0
   12.6204   -8.1120   -7.4197 C   0  0  0  0  0  0  0  0  0  0  0  0
   13.1911   -7.1358   -8.3761 C   0  0  0  0  0  0  0  0  0  0  0  0
   14.4535   -7.5146   -9.0626 C   0  0  2  0  0  0  0  0  0  0  0  0
   15.6036   -7.7601   -8.0934 C   0  0  0  0  0  0  0  0  0  0  0  0
   14.8468   -6.6839  -10.2354 C   0  0  2  0  0  0  0  0  0  0  0  0
   16.0486   -7.1171  -10.9182 N   0  0  0  0  0  0  0  0  0  0  0  0
   15.0333   -5.2821   -9.7784 C   0  0  0  0  0  0  0  0  0  0  0  0
   16.2753   -4.6712   -9.7194 O   0  0  0  0  0  0  0  0  0  0  0  0
   14.0452   -4.5802   -9.4190 O   0  0  0  0  0  0  0  0  0  0  0  0
  2  1  1  6
  2  3  1  0
  4  2  1  0
  5  4  2  0
  6  4  1  0
  7  6  1  0
  7 11  1  0
  7  8  1  6
  9 10  2  0
  9  8  1  0
 11 12  2  0
 11 19  1  0
 13  9  1  0
 15 14  1  0
 16 15  1  0
 16 17  1  1
 18 16  1  0
 18 20  1  0
 18 19  1  1
 20 21  1  0
 22 20  2  0
M  END
$$$$
