ADI.pdb
     RDKit          3D

 22 21  0  0  1  0  0  0  0  0999 V2000
   27.8463  -17.9678  -16.2795 C   0  0  0  0  0  0  0  0  0  0  0  0
   28.0754  -19.0347  -15.2064 C   0  0  2  0  0  0  0  0  0  0  0  0
   28.0407  -20.3194  -15.8992 N   0  0  0  0  0  0  0  0  0  0  0  0
   27.0114  -18.9759  -14.1711 C   0  0  0  0  0  0  0  0  0  0  0  0
   26.9543  -17.9613  -13.4178 O   0  0  0  0  0  0  0  0  0  0  0  0
   26.0522  -19.9880  -13.9728 N   0  0  0  0  0  0  0  0  0  0  0  0
   25.0258  -19.8070  -12.8890 C   0  0  1  0  0  0  0  0  0  0  0  0
   23.8742  -20.6345  -13.4129 C   0  0  0  0  0  0  0  0  0  0  0  0
   22.6963  -20.7803  -12.6036 C   0  0  0  0  0  0  0  0  0  0  0  0
   22.2460  -20.0546  -11.6994 O   0  0  0  0  0  0  0  0  0  0  0  0
   25.5484  -20.4158  -11.6642 C   0  0  0  0  0  0  0  0  0  0  0  0
   26.2282  -21.5045  -11.7907 O   0  0  0  0  0  0  0  0  0  0  0  0
   21.8945  -21.9322  -12.8535 O   0  0  0  0  0  0  0  0  0  0  0  0
   28.4296  -19.8855   -6.3225 C   0  0  0  0  0  0  0  0  0  0  0  0
   27.5210  -20.6536   -7.2045 C   0  0  0  0  0  0  0  0  0  0  0  0
   26.8779  -19.9183   -8.3244 C   0  0  2  0  0  0  0  0  0  0  0  0
   26.2877  -18.5813   -7.8930 C   0  0  0  0  0  0  0  0  0  0  0  0
   25.9617  -20.7058   -9.1965 C   0  0  2  0  0  0  0  0  0  0  0  0
   25.4265  -19.9845  -10.3330 N   0  0  0  0  0  0  0  0  0  0  0  0
   24.8321  -21.2010   -8.3673 C   0  0  0  0  0  0  0  0  0  0  0  0
   23.5341  -20.7404   -8.5158 O   0  0  0  0  0  0  0  0  0  0  0  0
   25.0174  -22.0794   -7.4771 O   0  0  0  0  0  0  0  0  0  0  0  0
  2  1  1  6
  2  3  1  0
  4  2  1  0
  5  4  2  0
  6  4  1  0
  7  6  1  0
  7 11  1  0
  7  8  1  6
  9 10  2  0
  9  8  1  0
 11 12  2  0
 11 19  1  0
 13  9  1  0
 15 14  1  0
 16 15  1  0
 16 17  1  1
 18 16  1  0
 18 20  1  0
 18 19  1  6
 20 21  1  0
 22 20  2  0
M  END
$$$$
