ESM.pdb
     RDKit          3D

 24 23  0  0  1  0  0  0  0  0999 V2000
   18.9791  -12.7668  -18.7020 N   0  0  0  0  0  0  0  0  0  0  0  0
   18.3061  -11.7407  -17.9224 C   0  0  1  0  0  0  0  0  0  0  0  0
   17.6711  -12.3951  -16.7520 C   0  0  0  0  0  0  0  0  0  0  0  0
   16.6601  -13.4114  -17.1634 C   0  0  0  0  0  0  0  0  0  0  0  0
   16.0343  -14.1623  -16.0609 C   0  0  0  0  0  0  0  0  0  0  0  0
   16.4903  -14.1340  -14.8999 O   0  0  0  0  0  0  0  0  0  0  0  0
   19.2531  -10.6566  -17.5383 C   0  0  0  0  0  0  0  0  0  0  0  0
   20.1422  -10.8490  -16.6729 O   0  0  0  0  0  0  0  0  0  0  0  0
   14.8965  -14.9413  -16.2775 O   0  0  0  0  0  0  0  0  0  0  0  0
   18.7353   -6.4121  -18.5406 O   0  0  0  0  0  0  0  0  0  0  0  0
   19.9358   -7.0675  -18.6437 C   0  0  0  0  0  0  0  0  0  0  0  0
   20.0691   -8.2711  -17.7587 C   0  0  2  0  0  0  0  0  0  0  0  0
   19.1917   -9.3569  -18.1346 N   0  0  0  0  0  0  0  0  0  0  0  0
   20.0220   -7.9657  -16.3206 C   0  0  0  0  0  0  0  0  0  0  0  0
   18.9537   -8.0820  -15.6953 O   0  0  0  0  0  0  0  0  0  0  0  0
   23.2615   -8.9088   -9.4211 C   0  0  0  0  0  0  0  0  0  0  0  0
   23.1092   -9.1622  -11.1894 S   0  0  0  0  0  0  0  0  0  0  0  0
   22.1276   -7.9246  -12.0106 C   0  0  0  0  0  0  0  0  0  0  0  0
   21.9298   -8.1944  -13.4491 C   0  0  0  0  0  0  0  0  0  0  0  0
   21.1929   -7.1812  -14.2056 C   0  0  2  0  0  0  0  0  0  0  0  0
   21.1720   -7.5436  -15.6451 N   0  0  0  0  0  0  0  0  0  0  0  0
   21.7172   -5.8265  -14.1234 C   0  0  0  0  0  0  0  0  0  0  0  0
   22.4377   -5.2563  -14.9585 O   0  0  0  0  0  0  0  0  0  0  0  0
   21.3870   -5.0472  -12.9772 O   0  0  0  0  0  0  0  0  0  0  0  0
  2  1  1  1
  3  2  1  0
  4  3  1  0
  5  6  2  0
  5  4  1  0
  7  2  1  0
  8  7  2  0
  9  5  1  0
 11 10  1  0
 12 11  1  6
 12 14  1  0
 12 13  1  0
 13  7  1  0
 14 21  1  0
 15 14  2  0
 17 16  1  0
 18 17  1  0
 19 18  1  0
 20 19  1  1
 20 22  1  0
 21 20  1  0
 22 23  2  0
 22 24  1  0
M  END
$$$$
