ESM.pdb
     RDKit          3D

 24 23  0  0  1  0  0  0  0  0999 V2000
   19.0307  -12.2233  -16.9512 N   0  0  0  0  0  0  0  0  0  0  0  0
   19.6870  -11.0978  -17.5965 C   0  0  1  0  0  0  0  0  0  0  0  0
   19.1052  -10.9420  -18.9523 C   0  0  0  0  0  0  0  0  0  0  0  0
   19.4542  -12.0865  -19.8425 C   0  0  0  0  0  0  0  0  0  0  0  0
   20.8796  -12.1985  -20.1983 C   0  0  0  0  0  0  0  0  0  0  0  0
   21.4723  -11.3078  -20.8401 O   0  0  0  0  0  0  0  0  0  0  0  0
   19.5674   -9.8652  -16.7683 C   0  0  0  0  0  0  0  0  0  0  0  0
   19.4839   -8.7315  -17.3014 O   0  0  0  0  0  0  0  0  0  0  0  0
   21.6269  -13.3173  -19.8263 O   0  0  0  0  0  0  0  0  0  0  0  0
   19.0865   -7.9321  -12.2628 O   0  0  0  0  0  0  0  0  0  0  0  0
   19.0682   -9.0209  -13.0968 C   0  0  0  0  0  0  0  0  0  0  0  0
   19.5091   -8.7391  -14.5025 C   0  0  2  0  0  0  0  0  0  0  0  0
   19.5425   -9.9184  -15.3382 N   0  0  0  0  0  0  0  0  0  0  0  0
   20.7363   -7.9337  -14.5956 C   0  0  0  0  0  0  0  0  0  0  0  0
   21.8483   -8.4876  -14.5466 O   0  0  0  0  0  0  0  0  0  0  0  0
   24.7977   -2.7632  -18.4235 C   0  0  0  0  0  0  0  0  0  0  0  0
   23.4988   -3.9662  -18.1408 S   0  0  0  0  0  0  0  0  0  0  0  0
   23.2602   -4.3761  -16.4249 C   0  0  0  0  0  0  0  0  0  0  0  0
   22.1477   -5.3206  -16.1981 C   0  0  0  0  0  0  0  0  0  0  0  0
   21.8589   -5.6631  -14.8048 C   0  0  2  0  0  0  0  0  0  0  0  0
   20.6658   -6.5440  -14.7396 N   0  0  0  0  0  0  0  0  0  0  0  0
   21.5971   -4.5387  -13.9194 C   0  0  0  0  0  0  0  0  0  0  0  0
   20.4976   -4.2010  -13.4519 O   0  0  0  0  0  0  0  0  0  0  0  0
   22.6967   -3.7206  -13.5298 O   0  0  0  0  0  0  0  0  0  0  0  0
  2  1  1  1
  3  2  1  0
  4  3  1  0
  5  6  2  0
  5  4  1  0
  7  2  1  0
  8  7  2  0
  9  5  1  0
 11 10  1  0
 12 11  1  1
 12 14  1  0
 12 13  1  0
 13  7  1  0
 14 21  1  0
 15 14  2  0
 17 16  1  0
 18 17  1  0
 19 18  1  0
 20 19  1  6
 20 22  1  0
 21 20  1  0
 22 23  2  0
 22 24  1  0
M  END
$$$$
