ESM.pdb
     RDKit          3D

 24 23  0  0  1  0  0  0  0  0999 V2000
   25.8312  -22.1142  -11.6713 N   0  0  0  0  0  0  0  0  0  0  0  0
   25.0565  -20.8838  -11.6664 C   0  0  1  0  0  0  0  0  0  0  0  0
   25.7381  -19.9150  -10.7732 C   0  0  0  0  0  0  0  0  0  0  0  0
   25.2765  -20.0405   -9.3605 C   0  0  0  0  0  0  0  0  0  0  0  0
   25.1622  -21.4191   -8.8533 C   0  0  0  0  0  0  0  0  0  0  0  0
   26.1383  -22.1956   -8.8245 O   0  0  0  0  0  0  0  0  0  0  0  0
   24.8708  -20.3658  -13.0509 C   0  0  0  0  0  0  0  0  0  0  0  0
   25.8534  -20.1759  -13.8092 O   0  0  0  0  0  0  0  0  0  0  0  0
   23.9444  -21.9120   -8.3816 O   0  0  0  0  0  0  0  0  0  0  0  0
   20.9430  -19.6416  -15.0703 O   0  0  0  0  0  0  0  0  0  0  0  0
   22.1228  -20.1410  -15.5601 C   0  0  0  0  0  0  0  0  0  0  0  0
   23.3552  -19.5768  -14.9179 C   0  0  2  0  0  0  0  0  0  0  0  0
   23.5733  -20.0637  -13.5741 N   0  0  0  0  0  0  0  0  0  0  0  0
   23.4711  -18.1144  -15.0252 C   0  0  0  0  0  0  0  0  0  0  0  0
   23.0860  -17.3903  -14.0907 O   0  0  0  0  0  0  0  0  0  0  0  0
   27.8828  -12.0687  -16.5965 C   0  0  0  0  0  0  0  0  0  0  0  0
   27.5133  -13.7902  -16.2584 S   0  0  0  0  0  0  0  0  0  0  0  0
   25.7977  -14.2130  -16.4763 C   0  0  0  0  0  0  0  0  0  0  0  0
   25.5002  -15.6269  -16.1710 C   0  0  0  0  0  0  0  0  0  0  0  0
   24.1166  -16.0590  -16.3734 C   0  0  2  0  0  0  0  0  0  0  0  0
   24.0127  -17.5263  -16.1730 N   0  0  0  0  0  0  0  0  0  0  0  0
   23.5519  -15.7752  -17.6839 C   0  0  0  0  0  0  0  0  0  0  0  0
   23.6672  -16.4667  -18.7086 O   0  0  0  0  0  0  0  0  0  0  0  0
   22.7808  -14.5872  -17.8398 O   0  0  0  0  0  0  0  0  0  0  0  0
  2  1  1  6
  3  2  1  0
  4  3  1  0
  5  6  2  0
  5  4  1  0
  7  2  1  0
  8  7  2  0
  9  5  1  0
 11 10  1  0
 12 11  1  1
 12 14  1  0
 12 13  1  0
 13  7  1  0
 14 21  1  0
 15 14  2  0
 17 16  1  0
 18 17  1  0
 19 18  1  0
 20 19  1  6
 20 22  1  0
 21 20  1  0
 22 23  2  0
 22 24  1  0
M  END
$$$$
