ESM.pdb
     RDKit          3D

 24 23  0  0  1  0  0  0  0  0999 V2000
   23.8516  -22.5147  -16.2402 N   0  0  0  0  0  0  0  0  0  0  0  0
   23.8009  -21.4565  -15.2445 C   0  0  1  0  0  0  0  0  0  0  0  0
   22.5254  -21.5883  -14.4982 C   0  0  0  0  0  0  0  0  0  0  0  0
   21.3659  -21.0744  -15.2827 C   0  0  0  0  0  0  0  0  0  0  0  0
   21.2826  -19.6081  -15.4002 C   0  0  0  0  0  0  0  0  0  0  0  0
   21.8312  -18.9878  -16.3335 O   0  0  0  0  0  0  0  0  0  0  0  0
   24.9985  -21.5000  -14.3595 C   0  0  0  0  0  0  0  0  0  0  0  0
   25.5494  -22.5897  -14.0672 O   0  0  0  0  0  0  0  0  0  0  0  0
   20.5795  -18.8512  -14.4615 O   0  0  0  0  0  0  0  0  0  0  0  0
   27.0287  -18.1009  -13.6714 O   0  0  0  0  0  0  0  0  0  0  0  0
   27.4778  -19.0941  -12.8389 C   0  0  0  0  0  0  0  0  0  0  0  0
   26.6185  -20.3232  -12.8116 C   0  0  2  0  0  0  0  0  0  0  0  0
   25.5702  -20.3097  -13.8071 N   0  0  0  0  0  0  0  0  0  0  0  0
   26.1336  -20.6858  -11.4711 C   0  0  0  0  0  0  0  0  0  0  0  0
   24.9204  -20.6144  -11.2088 O   0  0  0  0  0  0  0  0  0  0  0  0
   28.2536  -19.3239   -4.1387 C   0  0  0  0  0  0  0  0  0  0  0  0
   28.4474  -19.2682   -5.9202 S   0  0  0  0  0  0  0  0  0  0  0  0
   27.3198  -20.3290   -6.7991 C   0  0  0  0  0  0  0  0  0  0  0  0
   27.5947  -20.4026   -8.2483 C   0  0  0  0  0  0  0  0  0  0  0  0
   26.6739  -21.2148   -9.0447 C   0  0  2  0  0  0  0  0  0  0  0  0
   27.0271  -21.1125  -10.4829 N   0  0  0  0  0  0  0  0  0  0  0  0
   25.2661  -20.8647   -8.9342 C   0  0  0  0  0  0  0  0  0  0  0  0
   24.3696  -21.5456   -8.4105 O   0  0  0  0  0  0  0  0  0  0  0  0
   24.8403  -19.6165   -9.4737 O   0  0  0  0  0  0  0  0  0  0  0  0
  2  1  1  6
  3  2  1  0
  4  3  1  0
  5  6  2  0
  5  4  1  0
  7  2  1  0
  8  7  2  0
  9  5  1  0
 11 10  1  0
 12 11  1  1
 12 14  1  0
 12 13  1  0
 13  7  1  0
 14 21  1  0
 15 14  2  0
 17 16  1  0
 18 17  1  0
 19 18  1  0
 20 19  1  1
 20 22  1  0
 21 20  1  0
 22 23  2  0
 22 24  1  0
M  END
$$$$
