ESM.pdb
     RDKit          3D

 24 23  0  0  1  0  0  0  0  0999 V2000
   27.2594  -21.3290  -13.0290 N   0  0  0  0  0  0  0  0  0  0  0  0
   26.4666  -20.1277  -12.8235 C   0  0  1  0  0  0  0  0  0  0  0  0
   26.5150  -19.7862  -11.3805 C   0  0  0  0  0  0  0  0  0  0  0  0
   25.1850  -19.9479  -10.7254 C   0  0  0  0  0  0  0  0  0  0  0  0
   24.3944  -21.1060  -11.1778 C   0  0  0  0  0  0  0  0  0  0  0  0
   24.5758  -22.2507  -10.7160 O   0  0  0  0  0  0  0  0  0  0  0  0
   26.9419  -19.0196  -13.6985 C   0  0  0  0  0  0  0  0  0  0  0  0
   28.0430  -18.4540  -13.4879 O   0  0  0  0  0  0  0  0  0  0  0  0
   23.4030  -20.9631  -12.1500 O   0  0  0  0  0  0  0  0  0  0  0  0
   25.5205  -18.4263  -17.7290 O   0  0  0  0  0  0  0  0  0  0  0  0
   26.7360  -18.1300  -17.1668 C   0  0  0  0  0  0  0  0  0  0  0  0
   26.6637  -17.5910  -15.7690 C   0  0  2  0  0  0  0  0  0  0  0  0
   26.1699  -18.5539  -14.8101 N   0  0  0  0  0  0  0  0  0  0  0  0
   25.9988  -16.2831  -15.6646 C   0  0  0  0  0  0  0  0  0  0  0  0
   24.7715  -16.2233  -15.4750 O   0  0  0  0  0  0  0  0  0  0  0  0
   25.2743  -10.2311  -13.9213 C   0  0  0  0  0  0  0  0  0  0  0  0
   26.8073  -10.3236  -14.8465 S   0  0  0  0  0  0  0  0  0  0  0  0
   26.7120  -11.3565  -16.2934 C   0  0  0  0  0  0  0  0  0  0  0  0
   27.1648  -12.7418  -16.0542 C   0  0  0  0  0  0  0  0  0  0  0  0
   26.1209  -13.7656  -15.9912 C   0  0  2  0  0  0  0  0  0  0  0  0
   26.7361  -15.0996  -15.7769 N   0  0  0  0  0  0  0  0  0  0  0  0
   25.2763  -13.8796  -17.1704 C   0  0  0  0  0  0  0  0  0  0  0  0
   24.1141  -13.4609  -17.2956 O   0  0  0  0  0  0  0  0  0  0  0  0
   25.8098  -14.5348  -18.3177 O   0  0  0  0  0  0  0  0  0  0  0  0
  2  1  1  1
  3  2  1  0
  4  3  1  0
  5  6  2  0
  5  4  1  0
  7  2  1  0
  8  7  2  0
  9  5  1  0
 11 10  1  0
 12 11  1  6
 12 14  1  0
 12 13  1  0
 13  7  1  0
 14 21  1  0
 15 14  2  0
 17 16  1  0
 18 17  1  0
 19 18  1  0
 20 19  1  6
 20 22  1  0
 21 20  1  0
 22 23  2  0
 22 24  1  0
M  END
$$$$
