ESM.pdb
     RDKit          3D

 24 23  0  0  1  0  0  0  0  0999 V2000
   19.5655  -19.2201  -18.1338 N   0  0  0  0  0  0  0  0  0  0  0  0
   19.4961  -18.0533  -17.2692 C   0  0  1  0  0  0  0  0  0  0  0  0
   19.8349  -18.4823  -15.8900 C   0  0  0  0  0  0  0  0  0  0  0  0
   18.8126  -19.4122  -15.3294 C   0  0  0  0  0  0  0  0  0  0  0  0
   19.2370  -20.8177  -15.2057 C   0  0  0  0  0  0  0  0  0  0  0  0
   20.3814  -21.1933  -15.5312 O   0  0  0  0  0  0  0  0  0  0  0  0
   20.3798  -16.9643  -17.7720 C   0  0  0  0  0  0  0  0  0  0  0  0
   21.5810  -17.1862  -18.0621 O   0  0  0  0  0  0  0  0  0  0  0  0
   18.3649  -21.7907  -14.7146 O   0  0  0  0  0  0  0  0  0  0  0  0
   19.0065  -12.8495  -18.6232 O   0  0  0  0  0  0  0  0  0  0  0  0
   19.9153  -13.5935  -19.3316 C   0  0  0  0  0  0  0  0  0  0  0  0
   20.7067  -14.5646  -18.5068 C   0  0  2  0  0  0  0  0  0  0  0  0
   19.9018  -15.6264  -17.9454 N   0  0  0  0  0  0  0  0  0  0  0  0
   21.5911  -13.9296  -17.5178 C   0  0  0  0  0  0  0  0  0  0  0  0
   21.2013  -13.7689  -16.3482 O   0  0  0  0  0  0  0  0  0  0  0  0
   29.0657  -12.5774  -15.4955 C   0  0  0  0  0  0  0  0  0  0  0  0
   27.7465  -13.4865  -16.3003 S   0  0  0  0  0  0  0  0  0  0  0  0
   26.1627  -12.6778  -16.2185 C   0  0  0  0  0  0  0  0  0  0  0  0
   25.1124  -13.3681  -16.9940 C   0  0  0  0  0  0  0  0  0  0  0  0
   23.7807  -12.7617  -16.9691 C   0  0  2  0  0  0  0  0  0  0  0  0
   22.8728  -13.5024  -17.8806 N   0  0  0  0  0  0  0  0  0  0  0  0
   23.7167  -11.3623  -17.3619 C   0  0  0  0  0  0  0  0  0  0  0  0
   23.5665  -10.9192  -18.5120 O   0  0  0  0  0  0  0  0  0  0  0  0
   23.8354  -10.3729  -16.3434 O   0  0  0  0  0  0  0  0  0  0  0  0
  2  1  1  6
  3  2  1  0
  4  3  1  0
  5  6  2  0
  5  4  1  0
  7  2  1  0
  8  7  2  0
  9  5  1  0
 11 10  1  0
 12 11  1  1
 12 14  1  0
 12 13  1  0
 13  7  1  0
 14 21  1  0
 15 14  2  0
 17 16  1  0
 18 17  1  0
 19 18  1  0
 20 19  1  6
 20 22  1  0
 21 20  1  0
 22 23  2  0
 22 24  1  0
M  END
$$$$
