ESM.pdb
     RDKit          3D

 24 23  0  0  1  0  0  0  0  0999 V2000
   17.2547  -11.9986  -18.2601 N   0  0  0  0  0  0  0  0  0  0  0  0
   16.8928  -11.1125  -17.1657 C   0  0  1  0  0  0  0  0  0  0  0  0
   16.9484  -11.8926  -15.9050 C   0  0  0  0  0  0  0  0  0  0  0  0
   15.9948  -13.0392  -15.9176 C   0  0  0  0  0  0  0  0  0  0  0  0
   16.0546  -13.9237  -14.7407 C   0  0  0  0  0  0  0  0  0  0  0  0
   15.0736  -14.0884  -13.9875 O   0  0  0  0  0  0  0  0  0  0  0  0
   17.7703   -9.9087  -17.1426 C   0  0  0  0  0  0  0  0  0  0  0  0
   18.8497   -9.8809  -17.7835 O   0  0  0  0  0  0  0  0  0  0  0  0
   17.2234  -14.6170  -14.4219 O   0  0  0  0  0  0  0  0  0  0  0  0
   16.9953   -6.4471  -14.5823 O   0  0  0  0  0  0  0  0  0  0  0  0
   17.5849   -6.3524  -15.8171 C   0  0  0  0  0  0  0  0  0  0  0  0
   18.2971   -7.5934  -16.2667 C   0  0  2  0  0  0  0  0  0  0  0  0
   17.4241   -8.7389  -16.3941 N   0  0  0  0  0  0  0  0  0  0  0  0
   19.5243   -7.8873  -15.5110 C   0  0  0  0  0  0  0  0  0  0  0  0
   19.5167   -8.7652  -14.6306 O   0  0  0  0  0  0  0  0  0  0  0  0
   26.1884  -10.6677  -14.8278 C   0  0  0  0  0  0  0  0  0  0  0  0
   24.6174  -10.2556  -15.5870 S   0  0  0  0  0  0  0  0  0  0  0  0
   24.2349   -8.5173  -15.5485 C   0  0  0  0  0  0  0  0  0  0  0  0
   22.8765   -8.2061  -16.0374 C   0  0  0  0  0  0  0  0  0  0  0  0
   22.0018   -7.4840  -15.1126 C   0  0  2  0  0  0  0  0  0  0  0  0
   20.7061   -7.1864  -15.7733 N   0  0  0  0  0  0  0  0  0  0  0  0
   22.5173   -6.2179  -14.6145 C   0  0  0  0  0  0  0  0  0  0  0  0
   23.4855   -6.0571  -13.8540 O   0  0  0  0  0  0  0  0  0  0  0  0
   21.8646   -5.0194  -15.0241 O   0  0  0  0  0  0  0  0  0  0  0  0
  2  1  1  6
  3  2  1  0
  4  3  1  0
  5  6  2  0
  5  4  1  0
  7  2  1  0
  8  7  2  0
  9  5  1  0
 11 10  1  0
 12 11  1  1
 12 14  1  0
 12 13  1  0
 13  7  1  0
 14 21  1  0
 15 14  2  0
 17 16  1  0
 18 17  1  0
 19 18  1  0
 20 19  1  6
 20 22  1  0
 21 20  1  0
 22 23  2  0
 22 24  1  0
M  END
$$$$
