ESM.pdb
     RDKit          3D

 24 23  0  0  1  0  0  0  0  0999 V2000
   16.2734  -11.5599  -16.7057 N   0  0  0  0  0  0  0  0  0  0  0  0
   17.2314  -11.6329  -15.6145 C   0  0  1  0  0  0  0  0  0  0  0  0
   18.4087  -12.4022  -16.0871 C   0  0  0  0  0  0  0  0  0  0  0  0
   18.0978  -13.8519  -16.2487 C   0  0  0  0  0  0  0  0  0  0  0  0
   19.2133  -14.6879  -16.7259 C   0  0  0  0  0  0  0  0  0  0  0  0
   19.5430  -15.7428  -16.1469 O   0  0  0  0  0  0  0  0  0  0  0  0
   17.5861  -10.2713  -15.1250 C   0  0  0  0  0  0  0  0  0  0  0  0
   17.8335   -9.3379  -15.9275 O   0  0  0  0  0  0  0  0  0  0  0  0
   19.9499  -14.3263  -17.8551 O   0  0  0  0  0  0  0  0  0  0  0  0
   18.1783   -7.2965  -11.2375 O   0  0  0  0  0  0  0  0  0  0  0  0
   17.7534   -8.4897  -11.7639 C   0  0  0  0  0  0  0  0  0  0  0  0
   18.0707   -8.6801  -13.2174 C   0  0  2  0  0  0  0  0  0  0  0  0
   17.6600   -9.9690  -13.7279 N   0  0  0  0  0  0  0  0  0  0  0  0
   19.4532   -8.3324  -13.5797 C   0  0  0  0  0  0  0  0  0  0  0  0
   20.3620   -9.1688  -13.4371 O   0  0  0  0  0  0  0  0  0  0  0  0
   24.5236   -6.1949  -18.7225 C   0  0  0  0  0  0  0  0  0  0  0  0
   22.8865   -6.6034  -18.1161 S   0  0  0  0  0  0  0  0  0  0  0  0
   22.6810   -6.3378  -16.3678 C   0  0  0  0  0  0  0  0  0  0  0  0
   21.3438   -6.7205  -15.8710 C   0  0  0  0  0  0  0  0  0  0  0  0
   21.1350   -6.6250  -14.4257 C   0  0  2  0  0  0  0  0  0  0  0  0
   19.7584   -7.0644  -14.0856 N   0  0  0  0  0  0  0  0  0  0  0  0
   21.3050   -5.2999  -13.8494 C   0  0  0  0  0  0  0  0  0  0  0  0
   20.4043   -4.5114  -13.5201 O   0  0  0  0  0  0  0  0  0  0  0  0
   22.6315   -4.8295  -13.6273 O   0  0  0  0  0  0  0  0  0  0  0  0
  2  1  1  6
  3  2  1  0
  4  3  1  0
  5  6  2  0
  5  4  1  0
  7  2  1  0
  8  7  2  0
  9  5  1  0
 11 10  1  0
 12 11  1  1
 12 14  1  0
 12 13  1  0
 13  7  1  0
 14 21  1  0
 15 14  2  0
 17 16  1  0
 18 17  1  0
 19 18  1  0
 20 19  1  6
 20 22  1  0
 21 20  1  0
 22 23  2  0
 22 24  1  0
M  END
$$$$
