ESM.pdb
     RDKit          3D

 24 23  0  0  1  0  0  0  0  0999 V2000
   22.5165  -15.8335  -17.4361 N   0  0  0  0  0  0  0  0  0  0  0  0
   23.6126  -14.9141  -17.6953 C   0  0  1  0  0  0  0  0  0  0  0  0
   23.8231  -14.8517  -19.1625 C   0  0  0  0  0  0  0  0  0  0  0  0
   23.1485  -15.9781  -19.8699 C   0  0  0  0  0  0  0  0  0  0  0  0
   23.2255  -15.9371  -21.3408 C   0  0  0  0  0  0  0  0  0  0  0  0
   22.4969  -15.1856  -22.0198 O   0  0  0  0  0  0  0  0  0  0  0  0
   23.3429  -13.5796  -17.0903 C   0  0  0  0  0  0  0  0  0  0  0  0
   22.1681  -13.1802  -16.8985 O   0  0  0  0  0  0  0  0  0  0  0  0
   24.1260  -16.7463  -22.0356 O   0  0  0  0  0  0  0  0  0  0  0  0
   25.9688  -11.3715  -14.5454 O   0  0  0  0  0  0  0  0  0  0  0  0
   25.4227  -10.7342  -15.6303 C   0  0  0  0  0  0  0  0  0  0  0  0
   24.1789  -11.3748  -16.1709 C   0  0  2  0  0  0  0  0  0  0  0  0
   24.4037  -12.7000  -16.7035 N   0  0  0  0  0  0  0  0  0  0  0  0
   23.4075  -10.5133  -17.0799 C   0  0  0  0  0  0  0  0  0  0  0  0
   23.6139  -10.5603  -18.3051 O   0  0  0  0  0  0  0  0  0  0  0  0
   17.2896  -10.5972  -17.8449 C   0  0  0  0  0  0  0  0  0  0  0  0
   17.5186   -8.8214  -17.7537 S   0  0  0  0  0  0  0  0  0  0  0  0
   19.2034   -8.3007  -17.9983 C   0  0  0  0  0  0  0  0  0  0  0  0
   20.1836   -9.1283  -17.2667 C   0  0  0  0  0  0  0  0  0  0  0  0
   21.5925   -8.7703  -17.4363 C   0  0  2  0  0  0  0  0  0  0  0  0
   22.4392   -9.6370  -16.5785 N   0  0  0  0  0  0  0  0  0  0  0  0
   21.9380   -7.3949  -17.1108 C   0  0  0  0  0  0  0  0  0  0  0  0
   22.5247   -6.9972  -16.0914 O   0  0  0  0  0  0  0  0  0  0  0  0
   21.5793   -6.3749  -18.0387 O   0  0  0  0  0  0  0  0  0  0  0  0
  2  1  1  6
  3  2  1  0
  4  3  1  0
  5  6  2  0
  5  4  1  0
  7  2  1  0
  8  7  2  0
  9  5  1  0
 11 10  1  0
 12 11  1  6
 12 14  1  0
 12 13  1  0
 13  7  1  0
 14 21  1  0
 15 14  2  0
 17 16  1  0
 18 17  1  0
 19 18  1  0
 20 19  1  1
 20 22  1  0
 21 20  1  0
 22 23  2  0
 22 24  1  0
M  END
$$$$
