ESM.pdb
     RDKit          3D

 24 23  0  0  1  0  0  0  0  0999 V2000
   15.7945  -12.9482  -17.6889 N   0  0  0  0  0  0  0  0  0  0  0  0
   16.3328  -12.4811  -16.4217 C   0  0  1  0  0  0  0  0  0  0  0  0
   17.1343  -13.5802  -15.8295 C   0  0  0  0  0  0  0  0  0  0  0  0
   16.2768  -14.7150  -15.3810 C   0  0  0  0  0  0  0  0  0  0  0  0
   16.9945  -15.8428  -14.7614 C   0  0  0  0  0  0  0  0  0  0  0  0
   17.5749  -15.7327  -13.6624 O   0  0  0  0  0  0  0  0  0  0  0  0
   17.1146  -11.2262  -16.6052 C   0  0  0  0  0  0  0  0  0  0  0  0
   17.9849  -11.1304  -17.5051 O   0  0  0  0  0  0  0  0  0  0  0  0
   17.0520  -17.0888  -15.3880 O   0  0  0  0  0  0  0  0  0  0  0  0
   16.4974   -7.5633  -14.2400 O   0  0  0  0  0  0  0  0  0  0  0  0
   16.9753   -7.6350  -15.5237 C   0  0  0  0  0  0  0  0  0  0  0  0
   17.7282   -8.8928  -15.8411 C   0  0  2  0  0  0  0  0  0  0  0  0
   16.9097  -10.0824  -15.7696 N   0  0  0  0  0  0  0  0  0  0  0  0
   19.0021   -9.0274  -15.1181 C   0  0  0  0  0  0  0  0  0  0  0  0
   19.0693   -9.7467  -14.1063 O   0  0  0  0  0  0  0  0  0  0  0  0
   26.3250  -10.8306  -14.7721 C   0  0  0  0  0  0  0  0  0  0  0  0
   24.7555  -10.5849  -15.6033 S   0  0  0  0  0  0  0  0  0  0  0  0
   23.6912   -9.4085  -14.7956 C   0  0  0  0  0  0  0  0  0  0  0  0
   22.3444   -9.3289  -15.3964 C   0  0  0  0  0  0  0  0  0  0  0  0
   21.4311   -8.3425  -14.8178 C   0  0  2  0  0  0  0  0  0  0  0  0
   20.1448   -8.3514  -15.5588 N   0  0  0  0  0  0  0  0  0  0  0  0
   21.9045   -6.9668  -14.8189 C   0  0  0  0  0  0  0  0  0  0  0  0
   21.6335   -6.0881  -15.6532 O   0  0  0  0  0  0  0  0  0  0  0  0
   22.7710   -6.5539  -13.7658 O   0  0  0  0  0  0  0  0  0  0  0  0
  2  1  1  6
  3  2  1  0
  4  3  1  0
  5  6  2  0
  5  4  1  0
  7  2  1  0
  8  7  2  0
  9  5  1  0
 11 10  1  0
 12 11  1  1
 12 14  1  0
 12 13  1  0
 13  7  1  0
 14 21  1  0
 15 14  2  0
 17 16  1  0
 18 17  1  0
 19 18  1  0
 20 19  1  6
 20 22  1  0
 21 20  1  0
 22 23  2  0
 22 24  1  0
M  END
$$$$
