ESM.pdb
     RDKit          3D

 24 23  0  0  1  0  0  0  0  0999 V2000
   17.5771  -12.6563  -14.4021 N   0  0  0  0  0  0  0  0  0  0  0  0
   17.0654  -11.3121  -14.6151 C   0  0  1  0  0  0  0  0  0  0  0  0
   15.6471  -11.4217  -15.0368 C   0  0  0  0  0  0  0  0  0  0  0  0
   14.8227  -12.1530  -14.0320 C   0  0  0  0  0  0  0  0  0  0  0  0
   13.9697  -13.2250  -14.5744 C   0  0  0  0  0  0  0  0  0  0  0  0
   13.0220  -12.9866  -15.3501 O   0  0  0  0  0  0  0  0  0  0  0  0
   17.2455  -10.4742  -13.3965 C   0  0  0  0  0  0  0  0  0  0  0  0
   16.9400  -10.9098  -12.2592 O   0  0  0  0  0  0  0  0  0  0  0  0
   14.1930  -14.5608  -14.2363 O   0  0  0  0  0  0  0  0  0  0  0  0
   18.8786   -6.3818  -13.4508 O   0  0  0  0  0  0  0  0  0  0  0  0
   19.1625   -7.3497  -12.5212 C   0  0  0  0  0  0  0  0  0  0  0  0
   18.0628   -8.3451  -12.2992 C   0  0  2  0  0  0  0  0  0  0  0  0
   17.7713   -9.1449  -13.4678 N   0  0  0  0  0  0  0  0  0  0  0  0
   16.8574   -7.7774  -11.6760 C   0  0  0  0  0  0  0  0  0  0  0  0
   15.8908   -7.4436  -12.3831 O   0  0  0  0  0  0  0  0  0  0  0  0
   11.6814   -7.3750   -6.3540 C   0  0  0  0  0  0  0  0  0  0  0  0
   13.0769   -8.0661   -7.2425 S   0  0  0  0  0  0  0  0  0  0  0  0
   14.4606   -6.9548   -7.3835 C   0  0  0  0  0  0  0  0  0  0  0  0
   15.5570   -7.4883   -8.2168 C   0  0  0  0  0  0  0  0  0  0  0  0
   15.6243   -6.9989   -9.5944 C   0  0  2  0  0  0  0  0  0  0  0  0
   16.7862   -7.6082  -10.2892 N   0  0  0  0  0  0  0  0  0  0  0  0
   15.7549   -5.5579   -9.7469 C   0  0  0  0  0  0  0  0  0  0  0  0
   16.8020   -4.9245   -9.9567 O   0  0  0  0  0  0  0  0  0  0  0  0
   14.5763   -4.7629   -9.6506 O   0  0  0  0  0  0  0  0  0  0  0  0
  2  1  1  1
  3  2  1  0
  4  3  1  0
  5  6  2  0
  5  4  1  0
  7  2  1  0
  8  7  2  0
  9  5  1  0
 11 10  1  0
 12 11  1  6
 12 14  1  0
 12 13  1  0
 13  7  1  0
 14 21  1  0
 15 14  2  0
 17 16  1  0
 18 17  1  0
 19 18  1  0
 20 19  1  1
 20 22  1  0
 21 20  1  0
 22 23  2  0
 22 24  1  0
M  END
$$$$
