ESM.pdb
     RDKit          3D

 24 23  0  0  1  0  0  0  0  0999 V2000
   24.1288  -18.8926  -17.5358 N   0  0  0  0  0  0  0  0  0  0  0  0
   23.7113  -18.9685  -16.1452 C   0  0  1  0  0  0  0  0  0  0  0  0
   22.3798  -19.6213  -16.0999 C   0  0  0  0  0  0  0  0  0  0  0  0
   21.2760  -18.6262  -15.9755 C   0  0  0  0  0  0  0  0  0  0  0  0
   20.6668  -18.1962  -17.2463 C   0  0  0  0  0  0  0  0  0  0  0  0
   20.8852  -18.7940  -18.3194 O   0  0  0  0  0  0  0  0  0  0  0  0
   24.7319  -19.6736  -15.3203 C   0  0  0  0  0  0  0  0  0  0  0  0
   25.0205  -20.8766  -15.5348 O   0  0  0  0  0  0  0  0  0  0  0  0
   19.8139  -17.0923  -17.2965 O   0  0  0  0  0  0  0  0  0  0  0  0
   28.2591  -18.6126  -14.3938 O   0  0  0  0  0  0  0  0  0  0  0  0
   27.6538  -18.9673  -13.2151 C   0  0  0  0  0  0  0  0  0  0  0  0
   26.3508  -19.6926  -13.3749 C   0  0  2  0  0  0  0  0  0  0  0  0
   25.4239  -19.0156  -14.2541 N   0  0  0  0  0  0  0  0  0  0  0  0
   25.7375  -20.1102  -12.1048 C   0  0  0  0  0  0  0  0  0  0  0  0
   24.7106  -19.5420  -11.6942 O   0  0  0  0  0  0  0  0  0  0  0  0
   28.2782  -19.1584   -5.2609 C   0  0  0  0  0  0  0  0  0  0  0  0
   28.3342  -19.2505   -7.0506 S   0  0  0  0  0  0  0  0  0  0  0  0
   27.0733  -20.2905   -7.7562 C   0  0  0  0  0  0  0  0  0  0  0  0
   27.1872  -20.4360   -9.2215 C   0  0  0  0  0  0  0  0  0  0  0  0
   26.1645  -21.2534   -9.8755 C   0  0  2  0  0  0  0  0  0  0  0  0
   26.2998  -21.1449  -11.3499 N   0  0  0  0  0  0  0  0  0  0  0  0
   24.7861  -20.9146   -9.5563 C   0  0  0  0  0  0  0  0  0  0  0  0
   24.1923  -19.8638   -9.8476 O   0  0  0  0  0  0  0  0  0  0  0  0
   24.0102  -21.8674   -8.8350 O   0  0  0  0  0  0  0  0  0  0  0  0
  2  1  1  6
  3  2  1  0
  4  3  1  0
  5  6  2  0
  5  4  1  0
  7  2  1  0
  8  7  2  0
  9  5  1  0
 11 10  1  0
 12 11  1  1
 12 14  1  0
 12 13  1  0
 13  7  1  0
 14 21  1  0
 15 14  2  0
 17 16  1  0
 18 17  1  0
 19 18  1  0
 20 19  1  1
 20 22  1  0
 21 20  1  0
 22 23  2  0
 22 24  1  0
M  END
$$$$
