ESM.pdb
     RDKit          3D

 24 23  0  0  1  0  0  0  0  0999 V2000
   18.9925  -22.9912  -13.4880 N   0  0  0  0  0  0  0  0  0  0  0  0
   19.7330  -21.7403  -13.5188 C   0  0  1  0  0  0  0  0  0  0  0  0
   19.1326  -20.8259  -12.5166 C   0  0  0  0  0  0  0  0  0  0  0  0
   17.8638  -20.2163  -13.0091 C   0  0  0  0  0  0  0  0  0  0  0  0
   17.8922  -18.7538  -13.1854 C   0  0  0  0  0  0  0  0  0  0  0  0
   17.6343  -18.2153  -14.2810 O   0  0  0  0  0  0  0  0  0  0  0  0
   21.1865  -21.9761  -13.2924 C   0  0  0  0  0  0  0  0  0  0  0  0
   21.5867  -22.6942  -12.3434 O   0  0  0  0  0  0  0  0  0  0  0  0
   18.2122  -17.9083  -12.1219 O   0  0  0  0  0  0  0  0  0  0  0  0
   24.4937  -19.9475  -15.4604 O   0  0  0  0  0  0  0  0  0  0  0  0
   24.4119  -21.2876  -15.1795 C   0  0  0  0  0  0  0  0  0  0  0  0
   23.6013  -21.6230  -13.9629 C   0  0  2  0  0  0  0  0  0  0  0  0
   22.1842  -21.3983  -14.1406 N   0  0  0  0  0  0  0  0  0  0  0  0
   24.1233  -21.0427  -12.7161 C   0  0  0  0  0  0  0  0  0  0  0  0
   23.5325  -20.0894  -12.1794 O   0  0  0  0  0  0  0  0  0  0  0  0
   27.6437  -19.8854   -6.0730 C   0  0  0  0  0  0  0  0  0  0  0  0
   26.5742  -20.7339   -7.2352 S   0  0  0  0  0  0  0  0  0  0  0  0
   26.9158  -20.3483   -8.9393 C   0  0  0  0  0  0  0  0  0  0  0  0
   25.9883  -21.0022   -9.8845 C   0  0  0  0  0  0  0  0  0  0  0  0
   26.2159  -20.7395  -11.3061 C   0  0  2  0  0  0  0  0  0  0  0  0
   25.2831  -21.5542  -12.1246 N   0  0  0  0  0  0  0  0  0  0  0  0
   27.5569  -21.0235  -11.7938 C   0  0  0  0  0  0  0  0  0  0  0  0
   28.6243  -20.5963  -11.3252 O   0  0  0  0  0  0  0  0  0  0  0  0
   27.6926  -21.8779  -12.9260 O   0  0  0  0  0  0  0  0  0  0  0  0
  2  1  1  1
  3  2  1  0
  4  3  1  0
  5  6  2  0
  5  4  1  0
  7  2  1  0
  8  7  2  0
  9  5  1  0
 11 10  1  0
 12 11  1  6
 12 14  1  0
 12 13  1  0
 13  7  1  0
 14 21  1  0
 15 14  2  0
 17 16  1  0
 18 17  1  0
 19 18  1  0
 20 19  1  1
 20 22  1  0
 21 20  1  0
 22 23  2  0
 22 24  1  0
M  END
$$$$
