ESM.pdb
     RDKit          3D

 24 23  0  0  1  0  0  0  0  0999 V2000
   17.9896  -11.3076  -18.0442 N   0  0  0  0  0  0  0  0  0  0  0  0
   17.2187  -10.2119  -17.4795 C   0  0  1  0  0  0  0  0  0  0  0  0
   16.4069  -10.7499  -16.3603 C   0  0  0  0  0  0  0  0  0  0  0  0
   17.2428  -11.4922  -15.3730 C   0  0  0  0  0  0  0  0  0  0  0  0
   16.6306  -12.7116  -14.8171 C   0  0  0  0  0  0  0  0  0  0  0  0
   15.4580  -12.7271  -14.3912 O   0  0  0  0  0  0  0  0  0  0  0  0
   18.1096   -9.0922  -17.0645 C   0  0  0  0  0  0  0  0  0  0  0  0
   19.3484   -9.2592  -16.9459 O   0  0  0  0  0  0  0  0  0  0  0  0
   17.3480  -13.9069  -14.7456 O   0  0  0  0  0  0  0  0  0  0  0  0
   16.8326   -5.3635  -15.1744 O   0  0  0  0  0  0  0  0  0  0  0  0
   17.6749   -5.3838  -16.2568 C   0  0  0  0  0  0  0  0  0  0  0  0
   18.4371   -6.6636  -16.4319 C   0  0  2  0  0  0  0  0  0  0  0  0
   17.5963   -7.7858  -16.7844 N   0  0  0  0  0  0  0  0  0  0  0  0
   19.3650   -6.9642  -15.3310 C   0  0  0  0  0  0  0  0  0  0  0  0
   19.2315   -8.0115  -14.6743 O   0  0  0  0  0  0  0  0  0  0  0  0
   25.7966   -9.9758  -14.1755 C   0  0  0  0  0  0  0  0  0  0  0  0
   24.2558   -9.4571  -14.9312 S   0  0  0  0  0  0  0  0  0  0  0  0
   23.5427   -8.0062  -14.1858 C   0  0  0  0  0  0  0  0  0  0  0  0
   22.2715   -7.5909  -14.8126 C   0  0  0  0  0  0  0  0  0  0  0  0
   21.5815   -6.4577  -14.1951 C   0  0  2  0  0  0  0  0  0  0  0  0
   20.4014   -6.0801  -15.0130 N   0  0  0  0  0  0  0  0  0  0  0  0
   22.3760   -5.2506  -14.0260 C   0  0  0  0  0  0  0  0  0  0  0  0
   23.0951   -4.9640  -13.0553 O   0  0  0  0  0  0  0  0  0  0  0  0
   22.3471   -4.2766  -15.0655 O   0  0  0  0  0  0  0  0  0  0  0  0
  2  1  1  1
  3  2  1  0
  4  3  1  0
  5  6  2  0
  5  4  1  0
  7  2  1  0
  8  7  2  0
  9  5  1  0
 11 10  1  0
 12 11  1  1
 12 14  1  0
 12 13  1  0
 13  7  1  0
 14 21  1  0
 15 14  2  0
 17 16  1  0
 18 17  1  0
 19 18  1  0
 20 19  1  6
 20 22  1  0
 21 20  1  0
 22 23  2  0
 22 24  1  0
M  END
$$$$
