SES.pdb
     RDKit          3D

 22 21  0  0  1  0  0  0  0  0999 V2000
    8.6813  -14.5963   18.1741 O   0  0  0  0  0  0  0  0  0  0  0  0
    7.9513  -15.5688   17.5340 C   0  0  0  0  0  0  0  0  0  0  0  0
    8.7388  -16.8340   17.2263 C   0  0  2  0  0  0  0  0  0  0  0  0
    7.7645  -17.7447   16.6279 N   0  0  0  0  0  0  0  0  0  0  0  0
    9.3184  -17.4208   18.4556 C   0  0  0  0  0  0  0  0  0  0  0  0
    8.5949  -18.1076   19.1985 O   0  0  0  0  0  0  0  0  0  0  0  0
   10.6683  -17.2122   18.7940 N   0  0  0  0  0  0  0  0  0  0  0  0
   11.3494  -17.6855   19.9410 C   0  0  1  0  0  0  0  0  0  0  0  0
   12.7488  -18.1407   19.7741 C   0  0  0  0  0  0  0  0  0  0  0  0
   13.3883  -18.8111   20.9423 C   0  0  0  0  0  0  0  0  0  0  0  0
   14.7905  -19.1524   20.5061 C   0  0  0  0  0  0  0  0  0  0  0  0
   15.2872  -20.2821   20.8095 O   0  0  0  0  0  0  0  0  0  0  0  0
   11.1990  -16.8625   21.1711 C   0  0  0  0  0  0  0  0  0  0  0  0
   11.7509  -15.7332   21.1773 O   0  0  0  0  0  0  0  0  0  0  0  0
   15.5767  -18.2630   19.7736 O   0  0  0  0  0  0  0  0  0  0  0  0
    8.1230  -15.6848   23.1047 O   0  0  0  0  0  0  0  0  0  0  0  0
    8.9663  -16.2921   24.0006 C   0  0  0  0  0  0  0  0  0  0  0  0
   10.3929  -16.3698   23.5088 C   0  0  2  0  0  0  0  0  0  0  0  0
   10.4951  -17.2358   22.3323 N   0  0  0  0  0  0  0  0  0  0  0  0
   11.2759  -16.8699   24.5977 C   0  0  0  0  0  0  0  0  0  0  0  0
   11.4905  -16.1973   25.7837 O   0  0  0  0  0  0  0  0  0  0  0  0
   11.8535  -17.9691   24.4165 O   0  0  0  0  0  0  0  0  0  0  0  0
  2  1  1  0
  3  2  1  0
  3  4  1  1
  5  3  1  0
  6  5  2  0
  7  5  1  0
  8  7  1  0
  8 13  1  0
  8  9  1  6
 10  9  1  0
 10 11  1  0
 11 12  2  0
 13 14  2  0
 13 19  1  0
 15 11  1  0
 16 17  1  0
 18 17  1  1
 18 20  1  0
 19 18  1  0
 20 21  1  0
 22 20  2  0
M  END
$$$$
