SES.pdb
     RDKit          3D

 22 21  0  0  1  0  0  0  0  0999 V2000
   -0.4280  -20.0260   21.8708 O   0  0  0  0  0  0  0  0  0  0  0  0
    0.6801  -20.7254   22.2846 C   0  0  0  0  0  0  0  0  0  0  0  0
    1.4130  -21.4468   21.1629 C   0  0  2  0  0  0  0  0  0  0  0  0
    0.5190  -22.5350   20.7713 N   0  0  0  0  0  0  0  0  0  0  0  0
    2.7152  -21.9788   21.6244 C   0  0  0  0  0  0  0  0  0  0  0  0
    2.7330  -22.9734   22.3710 O   0  0  0  0  0  0  0  0  0  0  0  0
    3.9258  -21.3774   21.2334 N   0  0  0  0  0  0  0  0  0  0  0  0
    5.2295  -21.7023   21.6786 C   0  0  1  0  0  0  0  0  0  0  0  0
    6.3754  -21.1740   20.9032 C   0  0  0  0  0  0  0  0  0  0  0  0
    7.7395  -21.5851   21.3430 C   0  0  0  0  0  0  0  0  0  0  0  0
    8.6981  -20.9345   20.3783 C   0  0  0  0  0  0  0  0  0  0  0  0
    9.3196  -19.8807   20.7221 O   0  0  0  0  0  0  0  0  0  0  0  0
    5.4679  -21.5694   23.1410 C   0  0  0  0  0  0  0  0  0  0  0  0
    5.2068  -20.4579   23.6666 O   0  0  0  0  0  0  0  0  0  0  0  0
    8.9317  -21.4501   19.1034 O   0  0  0  0  0  0  0  0  0  0  0  0
    5.5236  -23.3843   27.5512 O   0  0  0  0  0  0  0  0  0  0  0  0
    5.3480  -23.4631   26.1926 C   0  0  0  0  0  0  0  0  0  0  0  0
    6.1037  -22.3949   25.4370 C   0  0  2  0  0  0  0  0  0  0  0  0
    5.9631  -22.5773   23.9908 N   0  0  0  0  0  0  0  0  0  0  0  0
    7.5405  -22.4227   25.8249 C   0  0  0  0  0  0  0  0  0  0  0  0
    7.9952  -22.1948   27.1079 O   0  0  0  0  0  0  0  0  0  0  0  0
    8.3789  -22.6698   24.9245 O   0  0  0  0  0  0  0  0  0  0  0  0
  2  1  1  0
  3  2  1  0
  3  4  1  1
  5  3  1  0
  6  5  2  0
  7  5  1  0
  8  7  1  0
  8 13  1  0
  8  9  1  6
 10  9  1  0
 10 11  1  0
 11 12  2  0
 13 14  2  0
 13 19  1  0
 15 11  1  0
 16 17  1  0
 18 17  1  1
 18 20  1  0
 19 18  1  0
 20 21  1  0
 22 20  2  0
M  END
$$$$
