SES.pdb
     RDKit          3D

 22 21  0  0  1  0  0  0  0  0999 V2000
   -1.6019  -28.1840   29.0046 O   0  0  0  0  0  0  0  0  0  0  0  0
   -1.3064  -27.5000   27.8500 C   0  0  0  0  0  0  0  0  0  0  0  0
   -1.9442  -26.1209   27.7654 C   0  0  2  0  0  0  0  0  0  0  0  0
   -1.3403  -25.3619   28.8590 N   0  0  0  0  0  0  0  0  0  0  0  0
   -3.4137  -26.1955   27.9283 C   0  0  0  0  0  0  0  0  0  0  0  0
   -4.0910  -26.7730   27.0596 O   0  0  0  0  0  0  0  0  0  0  0  0
   -4.0511  -25.6242   29.0452 N   0  0  0  0  0  0  0  0  0  0  0  0
   -5.4326  -25.6503   29.3524 C   0  0  1  0  0  0  0  0  0  0  0  0
   -5.8577  -26.3980   30.5581 C   0  0  0  0  0  0  0  0  0  0  0  0
   -5.3754  -25.8925   31.8753 C   0  0  0  0  0  0  0  0  0  0  0  0
   -6.0536  -26.7441   32.9181 C   0  0  0  0  0  0  0  0  0  0  0  0
   -7.0881  -26.3071   33.5129 O   0  0  0  0  0  0  0  0  0  0  0  0
   -6.1443  -24.3477   29.2537 C   0  0  0  0  0  0  0  0  0  0  0  0
   -5.5944  -23.3512   29.7871 O   0  0  0  0  0  0  0  0  0  0  0  0
   -5.5822  -28.0110   33.2626 O   0  0  0  0  0  0  0  0  0  0  0  0
   -9.7942  -21.6220   27.4310 O   0  0  0  0  0  0  0  0  0  0  0  0
   -9.2524  -22.8597   27.6702 C   0  0  0  0  0  0  0  0  0  0  0  0
   -7.9765  -22.7993   28.4775 C   0  0  2  0  0  0  0  0  0  0  0  0
   -7.3818  -24.1301   28.6179 N   0  0  0  0  0  0  0  0  0  0  0  0
   -8.2538  -22.2124   29.8170 C   0  0  0  0  0  0  0  0  0  0  0  0
   -8.0557  -20.8829   30.1300 O   0  0  0  0  0  0  0  0  0  0  0  0
   -8.6941  -22.9806   30.7061 O   0  0  0  0  0  0  0  0  0  0  0  0
  2  1  1  0
  3  2  1  0
  3  4  1  1
  5  3  1  0
  6  5  2  0
  7  5  1  0
  8  7  1  0
  8 13  1  0
  8  9  1  1
 10  9  1  0
 10 11  1  0
 11 12  2  0
 13 14  2  0
 13 19  1  0
 15 11  1  0
 16 17  1  0
 18 17  1  6
 18 20  1  0
 19 18  1  0
 20 21  1  0
 22 20  2  0
M  END
$$$$
