SES.pdb
     RDKit          3D

 22 21  0  0  1  0  0  0  0  0999 V2000
   -2.6502  -21.2197   25.3064 O   0  0  0  0  0  0  0  0  0  0  0  0
   -2.3632  -22.2508   24.4446 C   0  0  0  0  0  0  0  0  0  0  0  0
   -2.0074  -23.5579   25.1377 C   0  0  2  0  0  0  0  0  0  0  0  0
   -1.6957  -24.4846   24.0511 N   0  0  0  0  0  0  0  0  0  0  0  0
   -3.1378  -24.0631   25.9492 C   0  0  0  0  0  0  0  0  0  0  0  0
   -4.0799  -24.6432   25.3810 O   0  0  0  0  0  0  0  0  0  0  0  0
   -3.1617  -23.8956   27.3462 N   0  0  0  0  0  0  0  0  0  0  0  0
   -4.1954  -24.2680   28.2385 C   0  0  1  0  0  0  0  0  0  0  0  0
   -3.8206  -25.0393   29.4460 C   0  0  0  0  0  0  0  0  0  0  0  0
   -4.9332  -25.5616   30.2901 C   0  0  0  0  0  0  0  0  0  0  0  0
   -4.2763  -26.2841   31.4386 C   0  0  0  0  0  0  0  0  0  0  0  0
   -4.4392  -25.8600   32.6255 O   0  0  0  0  0  0  0  0  0  0  0  0
   -5.1818  -23.2045   28.5693 C   0  0  0  0  0  0  0  0  0  0  0  0
   -4.7254  -22.0909   28.9318 O   0  0  0  0  0  0  0  0  0  0  0  0
   -3.4832  -27.4155   31.2470 O   0  0  0  0  0  0  0  0  0  0  0  0
   -9.3666  -23.7377   28.7516 O   0  0  0  0  0  0  0  0  0  0  0  0
   -8.8889  -22.5196   28.3386 C   0  0  0  0  0  0  0  0  0  0  0  0
   -7.4925  -22.2327   28.8397 C   0  0  2  0  0  0  0  0  0  0  0  0
   -6.5830  -23.3337   28.5155 N   0  0  0  0  0  0  0  0  0  0  0  0
   -7.5212  -22.0009   30.3097 C   0  0  0  0  0  0  0  0  0  0  0  0
   -8.1362  -20.9185   30.9057 O   0  0  0  0  0  0  0  0  0  0  0  0
   -6.9504  -22.8461   31.0407 O   0  0  0  0  0  0  0  0  0  0  0  0
  2  1  1  0
  3  2  1  0
  3  4  1  6
  5  3  1  0
  6  5  2  0
  7  5  1  0
  8  7  1  0
  8 13  1  0
  8  9  1  1
 10  9  1  0
 10 11  1  0
 11 12  2  0
 13 14  2  0
 13 19  1  0
 15 11  1  0
 16 17  1  0
 18 17  1  1
 18 20  1  0
 19 18  1  0
 20 21  1  0
 22 20  2  0
M  END
$$$$
