SES.pdb
     RDKit          3D

 22 21  0  0  1  0  0  0  0  0999 V2000
   11.5469  -15.6218   19.5852 O   0  0  0  0  0  0  0  0  0  0  0  0
   10.6440  -16.4317   18.9396 C   0  0  0  0  0  0  0  0  0  0  0  0
   11.1896  -17.8060   18.5801 C   0  0  2  0  0  0  0  0  0  0  0  0
   10.0650  -18.5045   17.9604 N   0  0  0  0  0  0  0  0  0  0  0  0
   11.6587  -18.5314   19.7824 C   0  0  0  0  0  0  0  0  0  0  0  0
   10.8272  -19.1115   20.5028 O   0  0  0  0  0  0  0  0  0  0  0  0
   13.0242  -18.5721   20.1201 N   0  0  0  0  0  0  0  0  0  0  0  0
   13.6104  -19.1799   21.2559 C   0  0  1  0  0  0  0  0  0  0  0  0
   15.0743  -19.4041   21.2407 C   0  0  0  0  0  0  0  0  0  0  0  0
   15.6567  -20.1624   22.3849 C   0  0  0  0  0  0  0  0  0  0  0  0
   17.1364  -20.2519   22.1106 C   0  0  0  0  0  0  0  0  0  0  0  0
   17.8419  -21.1061   22.7333 O   0  0  0  0  0  0  0  0  0  0  0  0
   13.1643  -18.6567   22.5752 C   0  0  0  0  0  0  0  0  0  0  0  0
   13.5151  -17.4883   22.8778 O   0  0  0  0  0  0  0  0  0  0  0  0
   17.7717  -19.4205   21.1882 O   0  0  0  0  0  0  0  0  0  0  0  0
    9.9834  -17.9717   23.7692 O   0  0  0  0  0  0  0  0  0  0  0  0
   10.5018  -18.5807   24.8841 C   0  0  0  0  0  0  0  0  0  0  0  0
   11.9981  -18.7769   24.8074 C   0  0  2  0  0  0  0  0  0  0  0  0
   12.3853  -19.3542   23.5185 N   0  0  0  0  0  0  0  0  0  0  0  0
   12.4504  -19.6520   25.9232 C   0  0  0  0  0  0  0  0  0  0  0  0
   13.1608  -20.8217   25.7437 O   0  0  0  0  0  0  0  0  0  0  0  0
   12.1643  -19.2953   27.0917 O   0  0  0  0  0  0  0  0  0  0  0  0
  2  1  1  0
  3  2  1  0
  3  4  1  1
  5  3  1  0
  6  5  2  0
  7  5  1  0
  8  7  1  0
  8 13  1  0
  8  9  1  6
 10  9  1  0
 10 11  1  0
 11 12  2  0
 13 14  2  0
 13 19  1  0
 15 11  1  0
 16 17  1  0
 18 17  1  6
 18 20  1  0
 19 18  1  0
 20 21  1  0
 22 20  2  0
M  END
$$$$
