SES.pdb
     RDKit          3D

 22 21  0  0  1  0  0  0  0  0999 V2000
   13.0934  -17.4524   14.6726 O   0  0  0  0  0  0  0  0  0  0  0  0
   12.5447  -17.4219   15.9321 C   0  0  0  0  0  0  0  0  0  0  0  0
   11.6260  -18.5960   16.2373 C   0  0  2  0  0  0  0  0  0  0  0  0
   10.4341  -18.3592   15.4249 N   0  0  0  0  0  0  0  0  0  0  0  0
   11.2781  -18.6489   17.6752 C   0  0  0  0  0  0  0  0  0  0  0  0
   10.1448  -18.2867   18.0380 O   0  0  0  0  0  0  0  0  0  0  0  0
   12.2068  -19.0993   18.6317 N   0  0  0  0  0  0  0  0  0  0  0  0
   11.9961  -19.2665   20.0213 C   0  0  1  0  0  0  0  0  0  0  0  0
   12.8096  -20.2843   20.7253 C   0  0  0  0  0  0  0  0  0  0  0  0
   12.5218  -20.5011   22.1722 C   0  0  0  0  0  0  0  0  0  0  0  0
   13.5040  -21.5462   22.6367 C   0  0  0  0  0  0  0  0  0  0  0  0
   14.6534  -21.1922   23.0473 O   0  0  0  0  0  0  0  0  0  0  0  0
   11.9011  -18.0142   20.8188 C   0  0  0  0  0  0  0  0  0  0  0  0
   12.8730  -17.2195   20.7577 O   0  0  0  0  0  0  0  0  0  0  0  0
   13.1972  -22.9070   22.6316 O   0  0  0  0  0  0  0  0  0  0  0  0
    8.7818  -15.6397   21.2865 O   0  0  0  0  0  0  0  0  0  0  0  0
    9.3791  -15.8533   22.5032 C   0  0  0  0  0  0  0  0  0  0  0  0
   10.7910  -16.3780   22.3834 C   0  0  2  0  0  0  0  0  0  0  0  0
   10.8199  -17.6391   21.6395 N   0  0  0  0  0  0  0  0  0  0  0  0
   11.3776  -16.5631   23.7388 C   0  0  0  0  0  0  0  0  0  0  0  0
   11.5740  -15.5352   24.6386 O   0  0  0  0  0  0  0  0  0  0  0  0
   11.7088  -17.7264   24.0728 O   0  0  0  0  0  0  0  0  0  0  0  0
  2  1  1  0
  3  2  1  0
  3  4  1  6
  5  3  1  0
  6  5  2  0
  7  5  1  0
  8  7  1  0
  8 13  1  0
  8  9  1  1
 10  9  1  0
 10 11  1  0
 11 12  2  0
 13 14  2  0
 13 19  1  0
 15 11  1  0
 16 17  1  0
 18 17  1  1
 18 20  1  0
 19 18  1  0
 20 21  1  0
 22 20  2  0
M  END
$$$$
