SES.pdb
     RDKit          3D

 22 21  0  0  1  0  0  0  0  0999 V2000
   12.8622  -15.1057   16.7791 O   0  0  0  0  0  0  0  0  0  0  0  0
   12.8762  -16.1507   15.8868 C   0  0  0  0  0  0  0  0  0  0  0  0
   11.5690  -16.9269   15.8198 C   0  0  2  0  0  0  0  0  0  0  0  0
   10.6298  -16.0215   15.1605 N   0  0  0  0  0  0  0  0  0  0  0  0
   11.0868  -17.2886   17.1720 C   0  0  0  0  0  0  0  0  0  0  0  0
   10.1002  -16.6949   17.6422 O   0  0  0  0  0  0  0  0  0  0  0  0
   11.7264  -18.2878   17.9286 N   0  0  0  0  0  0  0  0  0  0  0  0
   11.3964  -18.7190   19.2358 C   0  0  1  0  0  0  0  0  0  0  0  0
   11.7642  -20.1010   19.6204 C   0  0  0  0  0  0  0  0  0  0  0  0
   11.2306  -21.2060   18.7734 C   0  0  0  0  0  0  0  0  0  0  0  0
   11.7877  -22.4796   19.3568 C   0  0  0  0  0  0  0  0  0  0  0  0
   11.0458  -23.2210   20.0744 O   0  0  0  0  0  0  0  0  0  0  0  0
   11.7019  -17.7606   20.3319 C   0  0  0  0  0  0  0  0  0  0  0  0
   12.7487  -17.0741   20.2190 O   0  0  0  0  0  0  0  0  0  0  0  0
   13.1055  -22.8815   19.1385 O   0  0  0  0  0  0  0  0  0  0  0  0
   10.2591  -15.2052   24.2386 O   0  0  0  0  0  0  0  0  0  0  0  0
   10.0093  -16.1570   23.2824 C   0  0  0  0  0  0  0  0  0  0  0  0
   11.2349  -16.5199   22.4766 C   0  0  2  0  0  0  0  0  0  0  0  0
   10.9245  -17.5546   21.4879 N   0  0  0  0  0  0  0  0  0  0  0  0
   12.3187  -16.9818   23.3862 C   0  0  0  0  0  0  0  0  0  0  0  0
   13.1516  -16.1310   24.0842 O   0  0  0  0  0  0  0  0  0  0  0  0
   12.4748  -18.2198   23.5195 O   0  0  0  0  0  0  0  0  0  0  0  0
  2  1  1  0
  3  2  1  0
  3  4  1  1
  5  3  1  0
  6  5  2  0
  7  5  1  0
  8  7  1  0
  8 13  1  0
  8  9  1  1
 10  9  1  0
 10 11  1  0
 11 12  2  0
 13 14  2  0
 13 19  1  0
 15 11  1  0
 16 17  1  0
 18 17  1  1
 18 20  1  0
 19 18  1  0
 20 21  1  0
 22 20  2  0
M  END
$$$$
