SES.pdb
     RDKit          3D

 22 21  0  0  1  0  0  0  0  0999 V2000
    3.0389  -22.6329   25.3291 O   0  0  0  0  0  0  0  0  0  0  0  0
    4.4105  -22.5562   25.3624 C   0  0  0  0  0  0  0  0  0  0  0  0
    5.0210  -21.8379   24.1678 C   0  0  2  0  0  0  0  0  0  0  0  0
    4.8953  -22.7824   23.0593 N   0  0  0  0  0  0  0  0  0  0  0  0
    6.4419  -21.5003   24.4100 C   0  0  0  0  0  0  0  0  0  0  0  0
    7.3003  -22.3966   24.3266 O   0  0  0  0  0  0  0  0  0  0  0  0
    6.8322  -20.1875   24.7327 N   0  0  0  0  0  0  0  0  0  0  0  0
    8.1398  -19.7248   25.0148 C   0  0  1  0  0  0  0  0  0  0  0  0
    8.5951  -18.4877   24.3398 C   0  0  0  0  0  0  0  0  0  0  0  0
    9.9477  -17.9755   24.7018 C   0  0  0  0  0  0  0  0  0  0  0  0
   10.1376  -16.7105   23.9040 C   0  0  0  0  0  0  0  0  0  0  0  0
   11.2248  -16.0600   24.0036 O   0  0  0  0  0  0  0  0  0  0  0  0
    8.5334  -19.7258   26.4495 C   0  0  0  0  0  0  0  0  0  0  0  0
    7.7679  -19.1387   27.2552 O   0  0  0  0  0  0  0  0  0  0  0  0
    9.1515  -16.2173   23.0494 O   0  0  0  0  0  0  0  0  0  0  0  0
   10.2027  -21.8091   30.3127 O   0  0  0  0  0  0  0  0  0  0  0  0
    9.9570  -21.7491   28.9641 C   0  0  0  0  0  0  0  0  0  0  0  0
    9.9784  -20.3385   28.4227 C   0  0  2  0  0  0  0  0  0  0  0  0
    9.6894  -20.3239   26.9872 N   0  0  0  0  0  0  0  0  0  0  0  0
   11.3033  -19.7151   28.6903 C   0  0  0  0  0  0  0  0  0  0  0  0
   11.8382  -19.5577   29.9528 O   0  0  0  0  0  0  0  0  0  0  0  0
   11.9645  -19.3132   27.7024 O   0  0  0  0  0  0  0  0  0  0  0  0
  2  1  1  0
  3  2  1  0
  3  4  1  6
  5  3  1  0
  6  5  2  0
  7  5  1  0
  8  7  1  0
  8 13  1  0
  8  9  1  1
 10  9  1  0
 10 11  1  0
 11 12  2  0
 13 14  2  0
 13 19  1  0
 15 11  1  0
 16 17  1  0
 18 17  1  6
 18 20  1  0
 19 18  1  0
 20 21  1  0
 22 20  2  0
M  END
$$$$
