SES.pdb
     RDKit          3D

 22 21  0  0  1  0  0  0  0  0999 V2000
    7.5712  -13.1916   20.9402 O   0  0  0  0  0  0  0  0  0  0  0  0
    7.9784  -12.3068   19.9710 C   0  0  0  0  0  0  0  0  0  0  0  0
    8.3848  -12.9654   18.6608 C   0  0  2  0  0  0  0  0  0  0  0  0
    7.1382  -13.4833   18.1001 N   0  0  0  0  0  0  0  0  0  0  0  0
    9.3534  -14.0621   18.8862 C   0  0  0  0  0  0  0  0  0  0  0  0
    8.9560  -15.2399   18.8424 O   0  0  0  0  0  0  0  0  0  0  0  0
   10.7091  -13.7919   19.1493 N   0  0  0  0  0  0  0  0  0  0  0  0
   11.7390  -14.7298   19.4002 C   0  0  1  0  0  0  0  0  0  0  0  0
   12.9817  -14.6206   18.6019 C   0  0  0  0  0  0  0  0  0  0  0  0
   14.0355  -15.6476   18.8426 C   0  0  0  0  0  0  0  0  0  0  0  0
   15.1332  -15.3533   17.8521 C   0  0  0  0  0  0  0  0  0  0  0  0
   14.9876  -15.6840   16.6338 O   0  0  0  0  0  0  0  0  0  0  0  0
   12.0459  -14.9895   20.8325 C   0  0  0  0  0  0  0  0  0  0  0  0
   12.6588  -14.0897   21.4606 O   0  0  0  0  0  0  0  0  0  0  0  0
   16.3209  -14.7247   18.2261 O   0  0  0  0  0  0  0  0  0  0  0  0
    9.6896  -16.3425   23.5648 O   0  0  0  0  0  0  0  0  0  0  0  0
   10.8820  -17.0095   23.6915 C   0  0  0  0  0  0  0  0  0  0  0  0
   12.0203  -16.3253   22.9708 C   0  0  2  0  0  0  0  0  0  0  0  0
   11.7134  -16.1554   21.5490 N   0  0  0  0  0  0  0  0  0  0  0  0
   13.2714  -17.1138   23.1396 C   0  0  0  0  0  0  0  0  0  0  0  0
   13.8492  -17.3867   24.3629 O   0  0  0  0  0  0  0  0  0  0  0  0
   13.8244  -17.5520   22.1019 O   0  0  0  0  0  0  0  0  0  0  0  0
  2  1  1  0
  3  2  1  0
  3  4  1  1
  5  3  1  0
  6  5  2  0
  7  5  1  0
  8  7  1  0
  8 13  1  0
  8  9  1  6
 10  9  1  0
 10 11  1  0
 11 12  2  0
 13 14  2  0
 13 19  1  0
 15 11  1  0
 16 17  1  0
 18 17  1  1
 18 20  1  0
 19 18  1  0
 20 21  1  0
 22 20  2  0
M  END
$$$$
