SES.pdb
     RDKit          3D

 22 21  0  0  1  0  0  0  0  0999 V2000
    8.5091  -17.0770   20.3059 O   0  0  0  0  0  0  0  0  0  0  0  0
    9.2374  -16.2852   19.4510 C   0  0  0  0  0  0  0  0  0  0  0  0
   10.5527  -16.9041   19.0011 C   0  0  2  0  0  0  0  0  0  0  0  0
   10.1714  -17.9294   18.0316 N   0  0  0  0  0  0  0  0  0  0  0  0
   11.2831  -17.5054   20.1398 C   0  0  0  0  0  0  0  0  0  0  0  0
   10.9816  -18.6522   20.5152 O   0  0  0  0  0  0  0  0  0  0  0  0
   12.3066  -16.8010   20.8003 N   0  0  0  0  0  0  0  0  0  0  0  0
   13.0417  -17.2178   21.9358 C   0  0  1  0  0  0  0  0  0  0  0  0
   14.4138  -16.6861   22.1033 C   0  0  0  0  0  0  0  0  0  0  0  0
   14.5456  -15.2348   22.4186 C   0  0  0  0  0  0  0  0  0  0  0  0
   16.0256  -14.9487   22.4369 C   0  0  0  0  0  0  0  0  0  0  0  0
   16.5805  -14.5685   23.5151 O   0  0  0  0  0  0  0  0  0  0  0  0
   12.3033  -17.2058   23.2273 C   0  0  0  0  0  0  0  0  0  0  0  0
   11.6740  -16.1576   23.5191 O   0  0  0  0  0  0  0  0  0  0  0  0
   16.8216  -15.0849   21.2995 O   0  0  0  0  0  0  0  0  0  0  0  0
    9.6067  -19.2751   24.3230 O   0  0  0  0  0  0  0  0  0  0  0  0
   10.4143  -19.2729   25.4323 C   0  0  0  0  0  0  0  0  0  0  0  0
   11.4681  -18.1906   25.3929 C   0  0  2  0  0  0  0  0  0  0  0  0
   12.2478  -18.2635   24.1554 N   0  0  0  0  0  0  0  0  0  0  0  0
   12.3626  -18.3135   26.5761 C   0  0  0  0  0  0  0  0  0  0  0  0
   11.9231  -18.2452   27.8827 O   0  0  0  0  0  0  0  0  0  0  0  0
   13.5862  -18.4903   26.3615 O   0  0  0  0  0  0  0  0  0  0  0  0
  2  1  1  0
  3  2  1  0
  3  4  1  6
  5  3  1  0
  6  5  2  0
  7  5  1  0
  8  7  1  0
  8 13  1  0
  8  9  1  1
 10  9  1  0
 10 11  1  0
 11 12  2  0
 13 14  2  0
 13 19  1  0
 15 11  1  0
 16 17  1  0
 18 17  1  6
 18 20  1  0
 19 18  1  0
 20 21  1  0
 22 20  2  0
M  END
$$$$
