SES.pdb
     RDKit          3D

 22 21  0  0  1  0  0  0  0  0999 V2000
   10.8072  -13.1908   19.2169 O   0  0  0  0  0  0  0  0  0  0  0  0
   10.0349  -13.6676   18.1851 C   0  0  0  0  0  0  0  0  0  0  0  0
    8.5373  -13.5234   18.4130 C   0  0  2  0  0  0  0  0  0  0  0  0
    8.3063  -12.0815   18.4795 N   0  0  0  0  0  0  0  0  0  0  0  0
    8.1178  -14.1799   19.6718 C   0  0  0  0  0  0  0  0  0  0  0  0
    7.8716  -13.4778   20.6685 O   0  0  0  0  0  0  0  0  0  0  0  0
    7.9957  -15.5793   19.7560 N   0  0  0  0  0  0  0  0  0  0  0  0
    7.5562  -16.3379   20.8672 C   0  0  1  0  0  0  0  0  0  0  0  0
    7.2127  -17.7604   20.6396 C   0  0  0  0  0  0  0  0  0  0  0  0
    6.6910  -18.5277   21.8068 C   0  0  0  0  0  0  0  0  0  0  0  0
    6.3921  -19.9123   21.2906 C   0  0  0  0  0  0  0  0  0  0  0  0
    6.9831  -20.9156   21.7996 O   0  0  0  0  0  0  0  0  0  0  0  0
    8.3438  -16.1726   22.1185 C   0  0  0  0  0  0  0  0  0  0  0  0
    9.5909  -16.0673   22.0021 O   0  0  0  0  0  0  0  0  0  0  0  0
    5.4802  -20.1388   20.2596 O   0  0  0  0  0  0  0  0  0  0  0  0
    7.4971  -13.6113   24.7898 O   0  0  0  0  0  0  0  0  0  0  0  0
    7.8590  -14.7549   25.4561 C   0  0  0  0  0  0  0  0  0  0  0  0
    8.6169  -15.7302   24.5856 C   0  0  2  0  0  0  0  0  0  0  0  0
    7.8179  -16.1260   23.4240 N   0  0  0  0  0  0  0  0  0  0  0  0
    8.9990  -16.9274   25.3832 C   0  0  0  0  0  0  0  0  0  0  0  0
    9.7592  -16.8742   26.5339 O   0  0  0  0  0  0  0  0  0  0  0  0
    8.6003  -18.0456   24.9768 O   0  0  0  0  0  0  0  0  0  0  0  0
  2  1  1  0
  3  2  1  0
  3  4  1  1
  5  3  1  0
  6  5  2  0
  7  5  1  0
  8  7  1  0
  8 13  1  0
  8  9  1  6
 10  9  1  0
 10 11  1  0
 11 12  2  0
 13 14  2  0
 13 19  1  0
 15 11  1  0
 16 17  1  0
 18 17  1  1
 18 20  1  0
 19 18  1  0
 20 21  1  0
 22 20  2  0
M  END
$$$$
