SES.pdb
     RDKit          3D

 22 21  0  0  1  0  0  0  0  0999 V2000
   -2.2950  -28.2210   30.5201 O   0  0  0  0  0  0  0  0  0  0  0  0
   -3.3340  -27.3846   30.8507 C   0  0  0  0  0  0  0  0  0  0  0  0
   -3.3566  -26.0823   30.0639 C   0  0  2  0  0  0  0  0  0  0  0  0
   -2.1504  -25.3710   30.4833 N   0  0  0  0  0  0  0  0  0  0  0  0
   -4.5671  -25.2875   30.3712 C   0  0  0  0  0  0  0  0  0  0  0  0
   -4.8391  -25.0322   31.5578 O   0  0  0  0  0  0  0  0  0  0  0  0
   -5.4101  -24.8209   29.3456 N   0  0  0  0  0  0  0  0  0  0  0  0
   -6.6231  -24.1058   29.4893 C   0  0  1  0  0  0  0  0  0  0  0  0
   -6.9370  -23.0690   28.4794 C   0  0  0  0  0  0  0  0  0  0  0  0
   -8.2156  -22.3210   28.6496 C   0  0  0  0  0  0  0  0  0  0  0  0
   -8.2971  -21.3712   27.4817 C   0  0  0  0  0  0  0  0  0  0  0  0
   -8.9911  -20.3111   27.5791 O   0  0  0  0  0  0  0  0  0  0  0  0
   -7.8249  -24.9233   29.8063 C   0  0  0  0  0  0  0  0  0  0  0  0
   -8.1749  -25.7824   28.9582 O   0  0  0  0  0  0  0  0  0  0  0  0
   -7.6326  -21.6147   26.2796 O   0  0  0  0  0  0  0  0  0  0  0  0
   -8.6199  -26.7137   33.1958 O   0  0  0  0  0  0  0  0  0  0  0  0
   -9.7443  -26.0636   32.7533 C   0  0  0  0  0  0  0  0  0  0  0  0
   -9.7003  -25.7473   31.2764 C   0  0  2  0  0  0  0  0  0  0  0  0
   -8.6089  -24.8197   30.9715 N   0  0  0  0  0  0  0  0  0  0  0  0
  -11.0036  -25.1730   30.8440 C   0  0  0  0  0  0  0  0  0  0  0  0
  -12.1340  -25.9271   30.6024 O   0  0  0  0  0  0  0  0  0  0  0  0
  -11.0673  -23.9287   30.6942 O   0  0  0  0  0  0  0  0  0  0  0  0
  2  1  1  0
  3  2  1  0
  3  4  1  1
  5  3  1  0
  6  5  2  0
  7  5  1  0
  8  7  1  0
  8 13  1  0
  8  9  1  6
 10  9  1  0
 10 11  1  0
 11 12  2  0
 13 14  2  0
 13 19  1  0
 15 11  1  0
 16 17  1  0
 18 17  1  1
 18 20  1  0
 19 18  1  0
 20 21  1  0
 22 20  2  0
M  END
$$$$
