SES.pdb
     RDKit          3D

 22 21  0  0  1  0  0  0  0  0999 V2000
    7.2742  -12.8785   19.0783 O   0  0  0  0  0  0  0  0  0  0  0  0
    8.1769  -12.5468   18.0967 C   0  0  0  0  0  0  0  0  0  0  0  0
    8.7022  -13.7379   17.3087 C   0  0  2  0  0  0  0  0  0  0  0  0
    7.5802  -14.1558   16.4702 N   0  0  0  0  0  0  0  0  0  0  0  0
    9.1222  -14.8365   18.2077 C   0  0  0  0  0  0  0  0  0  0  0  0
    8.3122  -15.7405   18.4790 O   0  0  0  0  0  0  0  0  0  0  0  0
   10.4170  -14.8710   18.7576 N   0  0  0  0  0  0  0  0  0  0  0  0
   10.9685  -15.8702   19.5947 C   0  0  1  0  0  0  0  0  0  0  0  0
   12.2602  -16.4726   19.1920 C   0  0  0  0  0  0  0  0  0  0  0  0
   12.2069  -17.6193   18.2405 C   0  0  0  0  0  0  0  0  0  0  0  0
   13.6356  -18.0577   18.0415 C   0  0  0  0  0  0  0  0  0  0  0  0
   13.8987  -19.2894   17.8721 O   0  0  0  0  0  0  0  0  0  0  0  0
   10.9468  -15.5795   21.0536 C   0  0  0  0  0  0  0  0  0  0  0  0
   11.4420  -14.4868   21.4286 O   0  0  0  0  0  0  0  0  0  0  0  0
   14.6961  -17.1515   18.0381 O   0  0  0  0  0  0  0  0  0  0  0  0
    8.1444  -15.0441   23.2038 O   0  0  0  0  0  0  0  0  0  0  0  0
    8.8884  -15.9561   23.9091 C   0  0  0  0  0  0  0  0  0  0  0  0
   10.3296  -16.0163   23.4588 C   0  0  2  0  0  0  0  0  0  0  0  0
   10.4232  -16.4205   22.0544 N   0  0  0  0  0  0  0  0  0  0  0  0
   11.0889  -16.9624   24.3213 C   0  0  0  0  0  0  0  0  0  0  0  0
   11.2939  -16.7751   25.6733 O   0  0  0  0  0  0  0  0  0  0  0  0
   11.5656  -17.9876   23.7769 O   0  0  0  0  0  0  0  0  0  0  0  0
  2  1  1  0
  3  2  1  0
  3  4  1  6
  5  3  1  0
  6  5  2  0
  7  5  1  0
  8  7  1  0
  8 13  1  0
  8  9  1  6
 10  9  1  0
 10 11  1  0
 11 12  2  0
 13 14  2  0
 13 19  1  0
 15 11  1  0
 16 17  1  0
 18 17  1  1
 18 20  1  0
 19 18  1  0
 20 21  1  0
 22 20  2  0
M  END
$$$$
