SES.pdb
     RDKit          3D

 22 21  0  0  1  0  0  0  0  0999 V2000
   -2.2212  -24.1731   22.9981 O   0  0  0  0  0  0  0  0  0  0  0  0
   -3.2067  -24.2241   23.9544 C   0  0  0  0  0  0  0  0  0  0  0  0
   -3.4793  -25.6220   24.4903 C   0  0  2  0  0  0  0  0  0  0  0  0
   -4.0544  -26.3500   23.3607 N   0  0  0  0  0  0  0  0  0  0  0  0
   -4.4256  -25.5882   25.6283 C   0  0  0  0  0  0  0  0  0  0  0  0
   -5.6012  -25.9528   25.4497 O   0  0  0  0  0  0  0  0  0  0  0  0
   -4.0160  -25.1503   26.9013 N   0  0  0  0  0  0  0  0  0  0  0  0
   -4.7910  -25.1060   28.0849 C   0  0  1  0  0  0  0  0  0  0  0  0
   -4.1229  -25.4509   29.3609 C   0  0  0  0  0  0  0  0  0  0  0  0
   -3.6713  -26.8617   29.5308 C   0  0  0  0  0  0  0  0  0  0  0  0
   -2.9328  -26.9038   30.8444 C   0  0  0  0  0  0  0  0  0  0  0  0
   -1.6776  -27.1017   30.8553 O   0  0  0  0  0  0  0  0  0  0  0  0
   -5.6636  -23.9118   28.2451 C   0  0  0  0  0  0  0  0  0  0  0  0
   -5.1332  -22.7857   28.0706 O   0  0  0  0  0  0  0  0  0  0  0  0
   -3.5829  -26.7334   32.0667 O   0  0  0  0  0  0  0  0  0  0  0  0
   -9.6637  -23.6990   27.4610 O   0  0  0  0  0  0  0  0  0  0  0  0
   -9.3131  -23.0308   28.6070 C   0  0  0  0  0  0  0  0  0  0  0  0
   -7.8380  -22.7101   28.6753 C   0  0  2  0  0  0  0  0  0  0  0  0
   -7.0319  -23.9288   28.5778 N   0  0  0  0  0  0  0  0  0  0  0  0
   -7.5360  -21.9898   29.9423 C   0  0  0  0  0  0  0  0  0  0  0  0
   -7.9586  -20.7046   30.2158 O   0  0  0  0  0  0  0  0  0  0  0  0
   -6.8572  -22.5964   30.8059 O   0  0  0  0  0  0  0  0  0  0  0  0
  2  1  1  0
  3  2  1  0
  3  4  1  6
  5  3  1  0
  6  5  2  0
  7  5  1  0
  8  7  1  0
  8 13  1  0
  8  9  1  1
 10  9  1  0
 10 11  1  0
 11 12  2  0
 13 14  2  0
 13 19  1  0
 15 11  1  0
 16 17  1  0
 18 17  1  1
 18 20  1  0
 19 18  1  0
 20 21  1  0
 22 20  2  0
M  END
$$$$
