FPH.pdb
     RDKit          3D

 29 31  0  0  1  0  0  0  0  0999 V2000
    5.9685  -18.0880   25.2050 N   0  0  0  0  0  0  0  0  0  0  0  0
    6.5269  -16.7949   25.1424 C   0  0  1  0  0  0  0  0  0  0  0  0
    6.8090  -16.2935   26.5517 C   0  0  0  0  0  0  0  0  0  0  0  0
    6.8859  -14.8176   26.4909 C   0  0  0  0  0  0  0  0  0  0  0  0
    8.1395  -14.1993   26.4221 C   0  0  0  0  0  0  0  0  0  0  0  0
    8.1910  -12.8198   26.3741 C   0  0  0  0  0  0  0  0  0  0  0  0
    7.0339  -12.0755   26.3938 C   0  0  0  0  0  0  0  0  0  0  0  0
    5.7851  -12.6621   26.4615 C   0  0  0  0  0  0  0  0  0  0  0  0
    5.7541  -14.0450   26.5090 C   0  0  0  0  0  0  0  0  0  0  0  0
    7.6544  -16.5762   24.2353 C   0  0  0  0  0  0  0  0  0  0  0  0
    8.5649  -17.4968   24.2206 O   0  0  0  0  0  0  0  0  0  0  0  0
    7.8755  -15.4858   23.3731 N   0  0  0  0  0  0  0  0  0  0  0  0
    7.2174  -14.2111   23.2925 C   0  0  0  0  0  0  0  0  0  0  0  0
    7.0872  -14.0163   21.7816 C   0  0  0  0  0  0  0  0  0  0  0  0
    8.3216  -14.6819   21.2201 C   0  0  0  0  0  0  0  0  0  0  0  0
    8.9183  -15.4862   22.3300 C   0  0  1  0  0  0  0  0  0  0  0  0
   10.1732  -14.8810   22.8750 C   0  0  0  0  0  0  0  0  0  0  0  0
   10.1320  -13.8832   23.6615 O   0  0  0  0  0  0  0  0  0  0  0  0
   11.4444  -15.3934   22.5375 N   0  0  0  0  0  0  0  0  0  0  0  0
   12.3220  -16.0923   23.4818 C   0  0  1  0  0  0  0  0  0  0  0  0
   11.5207  -17.2624   23.9852 C   0  0  0  0  0  0  0  0  0  0  0  0
   12.1891  -18.0759   25.0045 C   0  0  0  0  0  0  0  0  0  0  0  0
   13.4507  -17.7844   25.4923 C   0  0  0  0  0  0  0  0  0  0  0  0
   13.7433  -18.7283   26.4005 N   0  0  0  0  0  0  0  0  0  0  0  0
   12.7125  -19.5833   26.4867 C   0  0  0  0  0  0  0  0  0  0  0  0
   11.7743  -19.1708   25.6292 N   0  0  0  0  0  0  0  0  0  0  0  0
   13.5138  -16.5376   22.7192 C   0  0  0  0  0  0  0  0  0  0  0  0
   13.3488  -17.3324   21.6019 O   0  0  0  0  0  0  0  0  0  0  0  0
   14.6958  -16.2386   23.0203 O   0  0  0  0  0  0  0  0  0  0  0  0
  2  1  1  1
  2 10  1  0
  2  3  1  0
  3  4  1  0
  4  5  2  0
  4  9  1  0
  5  6  1  0
  6  7  2  0
  8  7  1  0
  9  8  2  0
 10 12  1  0
 11 10  2  0
 12 16  1  0
 13 12  1  0
 13 14  1  0
 15 14  1  0
 16 15  1  0
 16 17  1  1
 18 17  2  0
 19 17  1  0
 20 21  1  6
 20 19  1  0
 21 22  1  0
 22 26  1  0
 22 23  2  0
 23 24  1  0
 25 24  1  0
 26 25  2  0
 27 28  1  0
 27 20  1  0
 29 27  2  0
M  END
$$$$
