FPH.pdb
     RDKit          3D

 29 31  0  0  1  0  0  0  0  0999 V2000
    6.5414  -16.6635   25.9279 N   0  0  0  0  0  0  0  0  0  0  0  0
    7.1015  -15.6854   25.0808 C   0  0  1  0  0  0  0  0  0  0  0  0
    8.1385  -14.8792   25.8500 C   0  0  0  0  0  0  0  0  0  0  0  0
    7.4499  -13.7029   26.4245 C   0  0  0  0  0  0  0  0  0  0  0  0
    6.1726  -13.3641   25.9635 C   0  0  0  0  0  0  0  0  0  0  0  0
    5.5491  -12.2577   26.5066 C   0  0  0  0  0  0  0  0  0  0  0  0
    6.1735  -11.5093   27.4778 C   0  0  0  0  0  0  0  0  0  0  0  0
    7.4335  -11.8230   27.9491 C   0  0  0  0  0  0  0  0  0  0  0  0
    8.0419  -12.9348   27.3929 C   0  0  0  0  0  0  0  0  0  0  0  0
    7.5860  -16.1100   23.7667 C   0  0  0  0  0  0  0  0  0  0  0  0
    7.7529  -17.3835   23.6018 O   0  0  0  0  0  0  0  0  0  0  0  0
    7.8957  -15.3051   22.6544 N   0  0  0  0  0  0  0  0  0  0  0  0
    7.5531  -13.9399   22.3657 C   0  0  0  0  0  0  0  0  0  0  0  0
    7.1976  -14.0095   20.8802 C   0  0  0  0  0  0  0  0  0  0  0  0
    8.1160  -15.0777   20.3349 C   0  0  0  0  0  0  0  0  0  0  0  0
    8.6997  -15.7858   21.5150 C   0  0  1  0  0  0  0  0  0  0  0  0
   10.1398  -15.4488   21.7396 C   0  0  0  0  0  0  0  0  0  0  0  0
   10.4911  -14.2830   22.1051 O   0  0  0  0  0  0  0  0  0  0  0  0
   11.1579  -16.4088   21.5548 N   0  0  0  0  0  0  0  0  0  0  0  0
   11.9863  -16.9426   22.6408 C   0  0  1  0  0  0  0  0  0  0  0  0
   11.0291  -17.6318   23.5755 C   0  0  0  0  0  0  0  0  0  0  0  0
   11.6606  -18.3644   24.6764 C   0  0  0  0  0  0  0  0  0  0  0  0
   13.0286  -18.3800   24.8835 C   0  0  0  0  0  0  0  0  0  0  0  0
   13.2483  -19.1406   25.9673 N   0  0  0  0  0  0  0  0  0  0  0  0
   12.0711  -19.5893   26.4296 C   0  0  0  0  0  0  0  0  0  0  0  0
   11.1144  -19.1067   25.6312 N   0  0  0  0  0  0  0  0  0  0  0  0
   12.9365  -17.9039   22.0301 C   0  0  0  0  0  0  0  0  0  0  0  0
   12.4529  -18.9388   21.2539 O   0  0  0  0  0  0  0  0  0  0  0  0
   14.1834  -17.8474   22.1687 O   0  0  0  0  0  0  0  0  0  0  0  0
  2  1  1  1
  2 10  1  0
  2  3  1  0
  3  4  1  0
  4  5  2  0
  4  9  1  0
  5  6  1  0
  6  7  2  0
  8  7  1  0
  9  8  2  0
 10 12  1  0
 11 10  2  0
 12 16  1  0
 13 12  1  0
 13 14  1  0
 15 14  1  0
 16 15  1  0
 16 17  1  1
 18 17  2  0
 19 17  1  0
 20 21  1  1
 20 19  1  0
 21 22  1  0
 22 26  1  0
 22 23  2  0
 23 24  1  0
 25 24  1  0
 26 25  2  0
 27 28  1  0
 27 20  1  0
 29 27  2  0
M  END
$$$$
