FPH.pdb
     RDKit          3D

 29 31  0  0  1  0  0  0  0  0999 V2000
    4.5245  -16.7262   23.3533 N   0  0  0  0  0  0  0  0  0  0  0  0
    5.4757  -15.8146   23.8554 C   0  0  1  0  0  0  0  0  0  0  0  0
    5.2795  -15.6489   25.3557 C   0  0  0  0  0  0  0  0  0  0  0  0
    6.1297  -14.5202   25.7928 C   0  0  0  0  0  0  0  0  0  0  0  0
    5.5906  -13.2291   25.8252 C   0  0  0  0  0  0  0  0  0  0  0  0
    6.4025  -12.1870   26.2287 C   0  0  0  0  0  0  0  0  0  0  0  0
    7.7100  -12.4182   26.5894 C   0  0  0  0  0  0  0  0  0  0  0  0
    8.2652  -13.6829   26.5657 C   0  0  0  0  0  0  0  0  0  0  0  0
    7.4362  -14.7138   26.1587 C   0  0  0  0  0  0  0  0  0  0  0  0
    6.8794  -16.0173   23.4942 C   0  0  0  0  0  0  0  0  0  0  0  0
    7.3272  -17.2283   23.5925 O   0  0  0  0  0  0  0  0  0  0  0  0
    7.8090  -15.0573   23.0522 N   0  0  0  0  0  0  0  0  0  0  0  0
    7.8014  -13.6255   23.1733 C   0  0  0  0  0  0  0  0  0  0  0  0
    8.2918  -13.1879   21.7928 C   0  0  0  0  0  0  0  0  0  0  0  0
    9.2567  -14.2768   21.3862 C   0  0  0  0  0  0  0  0  0  0  0  0
    9.0498  -15.4113   22.3376 C   0  0  1  0  0  0  0  0  0  0  0  0
   10.1697  -15.5569   23.3188 C   0  0  0  0  0  0  0  0  0  0  0  0
   10.3303  -14.7173   24.2597 O   0  0  0  0  0  0  0  0  0  0  0  0
   11.0858  -16.6276   23.2365 N   0  0  0  0  0  0  0  0  0  0  0  0
   12.2162  -16.8094   24.1528 C   0  0  1  0  0  0  0  0  0  0  0  0
   12.0902  -18.2160   24.6729 C   0  0  0  0  0  0  0  0  0  0  0  0
   10.8783  -18.4795   25.4536 C   0  0  0  0  0  0  0  0  0  0  0  0
   10.3579  -17.5766   26.3637 C   0  0  0  0  0  0  0  0  0  0  0  0
    9.2589  -18.1425   26.8867 N   0  0  0  0  0  0  0  0  0  0  0  0
    9.0877  -19.3530   26.3331 C   0  0  0  0  0  0  0  0  0  0  0  0
   10.0834  -19.5421   25.4622 N   0  0  0  0  0  0  0  0  0  0  0  0
   13.4544  -16.6339   23.3552 C   0  0  0  0  0  0  0  0  0  0  0  0
   14.6819  -16.6702   23.9872 O   0  0  0  0  0  0  0  0  0  0  0  0
   13.4729  -16.4493   22.1131 O   0  0  0  0  0  0  0  0  0  0  0  0
  2  1  1  1
  2 10  1  0
  2  3  1  0
  3  4  1  0
  4  5  2  0
  4  9  1  0
  5  6  1  0
  6  7  2  0
  8  7  1  0
  9  8  2  0
 10 12  1  0
 11 10  2  0
 12 16  1  0
 13 12  1  0
 13 14  1  0
 15 14  1  0
 16 15  1  0
 16 17  1  1
 18 17  2  0
 19 17  1  0
 20 21  1  6
 20 19  1  0
 21 22  1  0
 22 26  1  0
 22 23  2  0
 23 24  1  0
 25 24  1  0
 26 25  2  0
 27 28  1  0
 27 20  1  0
 29 27  2  0
M  END
$$$$
