FPH.pdb
     RDKit          3D

 29 31  0  0  1  0  0  0  0  0999 V2000
    5.3989  -17.1058   25.2903 N   0  0  0  0  0  0  0  0  0  0  0  0
    6.3311  -16.1576   24.8214 C   0  0  1  0  0  0  0  0  0  0  0  0
    7.3078  -15.8097   25.9359 C   0  0  0  0  0  0  0  0  0  0  0  0
    7.1581  -14.3665   26.2232 C   0  0  0  0  0  0  0  0  0  0  0  0
    8.2799  -13.5332   26.1481 C   0  0  0  0  0  0  0  0  0  0  0  0
    8.1216  -12.1898   26.4277 C   0  0  0  0  0  0  0  0  0  0  0  0
    6.8876  -11.6876   26.7715 C   0  0  0  0  0  0  0  0  0  0  0  0
    5.7656  -12.4893   26.8526 C   0  0  0  0  0  0  0  0  0  0  0  0
    5.9443  -13.8322   26.5691 C   0  0  0  0  0  0  0  0  0  0  0  0
    7.0058  -16.4270   23.5510 C   0  0  0  0  0  0  0  0  0  0  0  0
    7.0650  -17.6679   23.1855 O   0  0  0  0  0  0  0  0  0  0  0  0
    7.6021  -15.5033   22.6722 N   0  0  0  0  0  0  0  0  0  0  0  0
    7.6881  -14.0706   22.7413 C   0  0  0  0  0  0  0  0  0  0  0  0
    7.4181  -13.6664   21.2917 C   0  0  0  0  0  0  0  0  0  0  0  0
    8.0185  -14.7911   20.4813 C   0  0  0  0  0  0  0  0  0  0  0  0
    8.2994  -15.9063   21.4365 C   0  0  1  0  0  0  0  0  0  0  0  0
    9.7591  -16.0759   21.7167 C   0  0  0  0  0  0  0  0  0  0  0  0
   10.3867  -15.2479   22.4493 O   0  0  0  0  0  0  0  0  0  0  0  0
   10.4908  -17.1572   21.1802 N   0  0  0  0  0  0  0  0  0  0  0  0
   11.9088  -17.4049   21.4605 C   0  0  1  0  0  0  0  0  0  0  0  0
   11.9960  -18.8588   21.8393 C   0  0  0  0  0  0  0  0  0  0  0  0
   11.2147  -19.2373   23.0199 C   0  0  0  0  0  0  0  0  0  0  0  0
   11.4650  -18.7300   24.2827 C   0  0  0  0  0  0  0  0  0  0  0  0
   10.5680  -19.2889   25.1101 N   0  0  0  0  0  0  0  0  0  0  0  0
    9.7813  -20.1158   24.4042 C   0  0  0  0  0  0  0  0  0  0  0  0
   10.1894  -20.0722   23.1325 N   0  0  0  0  0  0  0  0  0  0  0  0
   12.6544  -17.1235   20.2095 C   0  0  0  0  0  0  0  0  0  0  0  0
   11.9606  -16.7729   19.0680 O   0  0  0  0  0  0  0  0  0  0  0  0
   13.9046  -17.1814   20.1055 O   0  0  0  0  0  0  0  0  0  0  0  0
  2  1  1  1
  2 10  1  0
  2  3  1  0
  3  4  1  0
  4  5  2  0
  4  9  1  0
  5  6  1  0
  6  7  2  0
  8  7  1  0
  9  8  2  0
 10 12  1  0
 11 10  2  0
 12 16  1  0
 13 12  1  0
 13 14  1  0
 15 14  1  0
 16 15  1  0
 16 17  1  1
 18 17  2  0
 19 17  1  0
 20 21  1  6
 20 19  1  0
 21 22  1  0
 22 26  1  0
 22 23  2  0
 23 24  1  0
 25 24  1  0
 26 25  2  0
 27 28  1  0
 27 20  1  0
 29 27  2  0
M  END
$$$$
