FPH.pdb
     RDKit          3D

 29 31  0  0  1  0  0  0  0  0999 V2000
    4.9300  -17.6542   24.8961 N   0  0  0  0  0  0  0  0  0  0  0  0
    5.7958  -16.5438   24.9699 C   0  0  1  0  0  0  0  0  0  0  0  0
    6.1129  -16.2417   26.4276 C   0  0  0  0  0  0  0  0  0  0  0  0
    6.6282  -14.8567   26.4922 C   0  0  0  0  0  0  0  0  0  0  0  0
    8.0083  -14.6353   26.4213 C   0  0  0  0  0  0  0  0  0  0  0  0
    8.4706  -13.3356   26.4913 C   0  0  0  0  0  0  0  0  0  0  0  0
    7.5909  -12.2866   26.6276 C   0  0  0  0  0  0  0  0  0  0  0  0
    6.2249  -12.4791   26.7000 C   0  0  0  0  0  0  0  0  0  0  0  0
    5.7809  -13.7881   26.6282 C   0  0  0  0  0  0  0  0  0  0  0  0
    6.9921  -16.5478   24.1269 C   0  0  0  0  0  0  0  0  0  0  0  0
    7.7166  -17.6203   24.1654 O   0  0  0  0  0  0  0  0  0  0  0  0
    7.4573  -15.5277   23.2759 N   0  0  0  0  0  0  0  0  0  0  0  0
    7.0263  -14.1648   23.1301 C   0  0  0  0  0  0  0  0  0  0  0  0
    7.0503  -13.9853   21.6119 C   0  0  0  0  0  0  0  0  0  0  0  0
    8.1991  -14.8558   21.1595 C   0  0  0  0  0  0  0  0  0  0  0  0
    8.5654  -15.7217   22.3219 C   0  0  1  0  0  0  0  0  0  0  0  0
    9.8554  -15.3173   22.9624 C   0  0  0  0  0  0  0  0  0  0  0  0
    9.9138  -14.3169   23.7445 O   0  0  0  0  0  0  0  0  0  0  0  0
   11.0508  -16.0288   22.7231 N   0  0  0  0  0  0  0  0  0  0  0  0
   12.3612  -15.6255   23.2434 C   0  0  1  0  0  0  0  0  0  0  0  0
   12.2503  -15.7335   24.7404 C   0  0  0  0  0  0  0  0  0  0  0  0
   11.7971  -17.0369   25.2336 C   0  0  0  0  0  0  0  0  0  0  0  0
   11.2778  -18.0162   24.4055 C   0  0  0  0  0  0  0  0  0  0  0  0
   10.9713  -19.0631   25.1874 N   0  0  0  0  0  0  0  0  0  0  0  0
   11.2821  -18.7628   26.4579 C   0  0  0  0  0  0  0  0  0  0  0  0
   11.7840  -17.5244   26.4678 N   0  0  0  0  0  0  0  0  0  0  0  0
   13.3568  -16.5823   22.7019 C   0  0  0  0  0  0  0  0  0  0  0  0
   12.9468  -17.5678   21.8254 O   0  0  0  0  0  0  0  0  0  0  0  0
   14.5796  -16.5648   22.9875 O   0  0  0  0  0  0  0  0  0  0  0  0
  2  1  1  1
  2 10  1  0
  2  3  1  0
  3  4  1  0
  4  5  2  0
  4  9  1  0
  5  6  1  0
  6  7  2  0
  8  7  1  0
  9  8  2  0
 10 12  1  0
 11 10  2  0
 12 16  1  0
 13 12  1  0
 13 14  1  0
 15 14  1  0
 16 15  1  0
 16 17  1  1
 18 17  2  0
 19 17  1  0
 20 21  1  1
 20 19  1  0
 21 22  1  0
 22 26  1  0
 22 23  2  0
 23 24  1  0
 25 24  1  0
 26 25  2  0
 27 28  1  0
 27 20  1  0
 29 27  2  0
M  END
$$$$
