FPH.pdb
     RDKit          3D

 29 31  0  0  1  0  0  0  0  0999 V2000
    5.5769  -17.4209   25.5100 N   0  0  0  0  0  0  0  0  0  0  0  0
    6.4914  -16.3936   25.1997 C   0  0  1  0  0  0  0  0  0  0  0  0
    7.2167  -15.9584   26.4651 C   0  0  0  0  0  0  0  0  0  0  0  0
    7.1108  -14.4858   26.5537 C   0  0  0  0  0  0  0  0  0  0  0  0
    8.2705  -13.7085   26.4566 C   0  0  0  0  0  0  0  0  0  0  0  0
    8.1521  -12.3355   26.5496 C   0  0  0  0  0  0  0  0  0  0  0  0
    6.9204  -11.7505   26.7335 C   0  0  0  0  0  0  0  0  0  0  0  0
    5.7615  -12.4957   26.8325 C   0  0  0  0  0  0  0  0  0  0  0  0
    5.9005  -13.8694   26.7370 C   0  0  0  0  0  0  0  0  0  0  0  0
    7.4050  -16.6030   24.0757 C   0  0  0  0  0  0  0  0  0  0  0  0
    7.6831  -17.8338   23.7850 O   0  0  0  0  0  0  0  0  0  0  0  0
    8.0232  -15.6307   23.2672 N   0  0  0  0  0  0  0  0  0  0  0  0
    8.0355  -14.1979   23.3746 C   0  0  0  0  0  0  0  0  0  0  0  0
    7.8599  -13.7691   21.9176 C   0  0  0  0  0  0  0  0  0  0  0  0
    8.5740  -14.8440   21.1322 C   0  0  0  0  0  0  0  0  0  0  0  0
    8.8326  -15.9695   22.0816 C   0  0  1  0  0  0  0  0  0  0  0  0
   10.2725  -16.0796   22.4719 C   0  0  0  0  0  0  0  0  0  0  0  0
   11.1955  -16.0053   21.6010 O   0  0  0  0  0  0  0  0  0  0  0  0
   10.6582  -16.2695   23.8164 N   0  0  0  0  0  0  0  0  0  0  0  0
   12.0525  -16.3216   24.2681 C   0  0  1  0  0  0  0  0  0  0  0  0
   11.9918  -16.7372   25.7133 C   0  0  0  0  0  0  0  0  0  0  0  0
   11.2334  -15.8349   26.5840 C   0  0  0  0  0  0  0  0  0  0  0  0
   11.2237  -14.4611   26.4191 C   0  0  0  0  0  0  0  0  0  0  0  0
   10.4343  -13.9603   27.3821 N   0  0  0  0  0  0  0  0  0  0  0  0
    9.9623  -14.9716   28.1274 C   0  0  0  0  0  0  0  0  0  0  0  0
   10.4592  -16.1067   27.6270 N   0  0  0  0  0  0  0  0  0  0  0  0
   12.7401  -17.3405   23.4381 C   0  0  0  0  0  0  0  0  0  0  0  0
   14.0793  -17.1838   23.1392 O   0  0  0  0  0  0  0  0  0  0  0  0
   12.1818  -18.3646   22.9726 O   0  0  0  0  0  0  0  0  0  0  0  0
  2  1  1  1
  2 10  1  0
  2  3  1  0
  3  4  1  0
  4  5  2  0
  4  9  1  0
  5  6  1  0
  6  7  2  0
  8  7  1  0
  9  8  2  0
 10 12  1  0
 11 10  2  0
 12 16  1  0
 13 12  1  0
 13 14  1  0
 15 14  1  0
 16 15  1  0
 16 17  1  1
 18 17  2  0
 19 17  1  0
 20 21  1  1
 20 19  1  0
 21 22  1  0
 22 26  1  0
 22 23  2  0
 23 24  1  0
 25 24  1  0
 26 25  2  0
 27 28  1  0
 27 20  1  0
 29 27  2  0
M  END
$$$$
