FPH.pdb
     RDKit          3D

 29 31  0  0  1  0  0  0  0  0999 V2000
    6.6910  -17.2369   26.1834 N   0  0  0  0  0  0  0  0  0  0  0  0
    6.2792  -16.7381   24.9306 C   0  0  1  0  0  0  0  0  0  0  0  0
    5.6218  -15.3778   25.1154 C   0  0  0  0  0  0  0  0  0  0  0  0
    6.5754  -14.5200   25.8521 C   0  0  0  0  0  0  0  0  0  0  0  0
    6.7766  -13.2007   25.4309 C   0  0  0  0  0  0  0  0  0  0  0  0
    7.6770  -12.4178   26.1269 C   0  0  0  0  0  0  0  0  0  0  0  0
    8.3577  -12.9279   27.2084 C   0  0  0  0  0  0  0  0  0  0  0  0
    8.1767  -14.2265   27.6434 C   0  0  0  0  0  0  0  0  0  0  0  0
    7.2708  -14.9951   26.9334 C   0  0  0  0  0  0  0  0  0  0  0  0
    7.2495  -16.7457   23.8350 C   0  0  0  0  0  0  0  0  0  0  0  0
    7.8564  -17.8682   23.6150 O   0  0  0  0  0  0  0  0  0  0  0  0
    7.6087  -15.6817   22.9866 N   0  0  0  0  0  0  0  0  0  0  0  0
    7.1090  -14.3364   22.9136 C   0  0  0  0  0  0  0  0  0  0  0  0
    7.0189  -14.1132   21.4037 C   0  0  0  0  0  0  0  0  0  0  0  0
    8.1704  -14.9166   20.8466 C   0  0  0  0  0  0  0  0  0  0  0  0
    8.6549  -15.7972   21.9533 C   0  0  1  0  0  0  0  0  0  0  0  0
    9.9674  -15.3520   22.5163 C   0  0  0  0  0  0  0  0  0  0  0  0
   10.0216  -14.6290   23.5605 O   0  0  0  0  0  0  0  0  0  0  0  0
   11.1895  -15.7168   21.9115 N   0  0  0  0  0  0  0  0  0  0  0  0
   12.2382  -16.4886   22.5862 C   0  0  1  0  0  0  0  0  0  0  0  0
   11.6669  -17.8687   22.7700 C   0  0  0  0  0  0  0  0  0  0  0  0
   11.2593  -18.1909   24.1402 C   0  0  0  0  0  0  0  0  0  0  0  0
   11.2999  -17.2717   25.1736 C   0  0  0  0  0  0  0  0  0  0  0  0
   10.8609  -17.9042   26.2730 N   0  0  0  0  0  0  0  0  0  0  0  0
   10.5544  -19.1709   25.9528 C   0  0  0  0  0  0  0  0  0  0  0  0
   10.8031  -19.3283   24.6494 N   0  0  0  0  0  0  0  0  0  0  0  0
   13.4152  -16.5034   21.6838 C   0  0  0  0  0  0  0  0  0  0  0  0
   13.2844  -17.0027   20.4028 O   0  0  0  0  0  0  0  0  0  0  0  0
   14.5550  -16.0846   22.0044 O   0  0  0  0  0  0  0  0  0  0  0  0
  2  1  1  1
  2 10  1  0
  2  3  1  0
  3  4  1  0
  4  5  2  0
  4  9  1  0
  5  6  1  0
  6  7  2  0
  8  7  1  0
  9  8  2  0
 10 12  1  0
 11 10  2  0
 12 16  1  0
 13 12  1  0
 13 14  1  0
 15 14  1  0
 16 15  1  0
 16 17  1  1
 18 17  2  0
 19 17  1  0
 20 21  1  6
 20 19  1  0
 21 22  1  0
 22 26  1  0
 22 23  2  0
 23 24  1  0
 25 24  1  0
 26 25  2  0
 27 28  1  0
 27 20  1  0
 29 27  2  0
M  END
$$$$
