FPH.pdb
     RDKit          3D

 29 31  0  0  1  0  0  0  0  0999 V2000
    6.2208  -17.3730   25.9936 N   0  0  0  0  0  0  0  0  0  0  0  0
    6.2066  -16.6548   24.7804 C   0  0  1  0  0  0  0  0  0  0  0  0
    5.5718  -15.2896   25.0044 C   0  0  0  0  0  0  0  0  0  0  0  0
    6.5417  -14.4673   25.7599 C   0  0  0  0  0  0  0  0  0  0  0  0
    7.0803  -13.3219   25.1627 C   0  0  0  0  0  0  0  0  0  0  0  0
    7.9905  -12.5714   25.8812 C   0  0  0  0  0  0  0  0  0  0  0  0
    8.3559  -12.9453   27.1539 C   0  0  0  0  0  0  0  0  0  0  0  0
    7.8387  -14.0712   27.7648 C   0  0  0  0  0  0  0  0  0  0  0  0
    6.9285  -14.8101   27.0292 C   0  0  0  0  0  0  0  0  0  0  0  0
    7.4515  -16.5734   24.0152 C   0  0  0  0  0  0  0  0  0  0  0  0
    8.3075  -17.5251   24.2108 O   0  0  0  0  0  0  0  0  0  0  0  0
    7.8381  -15.5861   23.0895 N   0  0  0  0  0  0  0  0  0  0  0  0
    7.3020  -14.2759   22.8436 C   0  0  0  0  0  0  0  0  0  0  0  0
    7.3171  -14.2085   21.3162 C   0  0  0  0  0  0  0  0  0  0  0  0
    8.5322  -15.0173   20.9272 C   0  0  0  0  0  0  0  0  0  0  0  0
    8.9613  -15.7629   22.1499 C   0  0  1  0  0  0  0  0  0  0  0  0
   10.2134  -15.2118   22.7555 C   0  0  0  0  0  0  0  0  0  0  0  0
   10.4474  -13.9623   22.7545 O   0  0  0  0  0  0  0  0  0  0  0  0
   11.1775  -16.0554   23.3482 N   0  0  0  0  0  0  0  0  0  0  0  0
   11.7132  -15.8629   24.6997 C   0  0  1  0  0  0  0  0  0  0  0  0
   10.5182  -15.8917   25.6139 C   0  0  0  0  0  0  0  0  0  0  0  0
   10.8207  -15.6824   27.0325 C   0  0  0  0  0  0  0  0  0  0  0  0
   12.0059  -15.1220   27.4748 C   0  0  0  0  0  0  0  0  0  0  0  0
   11.9407  -15.0836   28.8148 N   0  0  0  0  0  0  0  0  0  0  0  0
   10.7649  -15.5973   29.2079 C   0  0  0  0  0  0  0  0  0  0  0  0
   10.0950  -15.9571   28.1090 N   0  0  0  0  0  0  0  0  0  0  0  0
   12.6308  -16.9968   24.9687 C   0  0  0  0  0  0  0  0  0  0  0  0
   12.3125  -18.2560   24.4991 O   0  0  0  0  0  0  0  0  0  0  0  0
   13.7062  -16.8969   25.6095 O   0  0  0  0  0  0  0  0  0  0  0  0
  2  1  1  1
  2 10  1  0
  2  3  1  0
  3  4  1  0
  4  5  2  0
  4  9  1  0
  5  6  1  0
  6  7  2  0
  8  7  1  0
  9  8  2  0
 10 12  1  0
 11 10  2  0
 12 16  1  0
 13 12  1  0
 13 14  1  0
 15 14  1  0
 16 15  1  0
 16 17  1  1
 18 17  2  0
 19 17  1  0
 20 21  1  1
 20 19  1  0
 21 22  1  0
 22 26  1  0
 22 23  2  0
 23 24  1  0
 25 24  1  0
 26 25  2  0
 27 28  1  0
 27 20  1  0
 29 27  2  0
M  END
$$$$
