FPH.pdb
     RDKit          3D

 29 31  0  0  1  0  0  0  0  0999 V2000
    5.4956  -17.4431   25.5244 N   0  0  0  0  0  0  0  0  0  0  0  0
    6.4262  -16.4104   25.2891 C   0  0  1  0  0  0  0  0  0  0  0  0
    7.1023  -16.0264   26.5976 C   0  0  0  0  0  0  0  0  0  0  0  0
    7.2314  -14.5531   26.6153 C   0  0  0  0  0  0  0  0  0  0  0  0
    8.5026  -13.9756   26.5198 C   0  0  0  0  0  0  0  0  0  0  0  0
    8.6032  -12.5982   26.5460 C   0  0  0  0  0  0  0  0  0  0  0  0
    7.4770  -11.8167   26.6635 C   0  0  0  0  0  0  0  0  0  0  0  0
    6.2117  -12.3626   26.7594 C   0  0  0  0  0  0  0  0  0  0  0  0
    6.1312  -13.7440   26.7314 C   0  0  0  0  0  0  0  0  0  0  0  0
    7.3832  -16.5836   24.1954 C   0  0  0  0  0  0  0  0  0  0  0  0
    7.7844  -17.7942   23.9714 O   0  0  0  0  0  0  0  0  0  0  0  0
    7.9257  -15.5954   23.3525 N   0  0  0  0  0  0  0  0  0  0  0  0
    7.7033  -14.1764   23.3141 C   0  0  0  0  0  0  0  0  0  0  0  0
    7.6206  -13.9089   21.8110 C   0  0  0  0  0  0  0  0  0  0  0  0
    8.5734  -14.9144   21.2084 C   0  0  0  0  0  0  0  0  0  0  0  0
    8.9005  -15.8963   22.2872 C   0  0  1  0  0  0  0  0  0  0  0  0
   10.2897  -15.7334   22.8178 C   0  0  0  0  0  0  0  0  0  0  0  0
   10.6079  -14.7253   23.5240 O   0  0  0  0  0  0  0  0  0  0  0  0
   11.2948  -16.6890   22.5551 N   0  0  0  0  0  0  0  0  0  0  0  0
   12.6399  -16.6432   23.1376 C   0  0  1  0  0  0  0  0  0  0  0  0
   13.0442  -18.0800   23.3297 C   0  0  0  0  0  0  0  0  0  0  0  0
   12.1959  -18.8426   24.2497 C   0  0  0  0  0  0  0  0  0  0  0  0
   11.9105  -18.4201   25.5360 C   0  0  0  0  0  0  0  0  0  0  0  0
   11.1158  -19.3530   26.0834 N   0  0  0  0  0  0  0  0  0  0  0  0
   10.9049  -20.3266   25.1843 C   0  0  0  0  0  0  0  0  0  0  0  0
   11.5703  -19.9995   24.0727 N   0  0  0  0  0  0  0  0  0  0  0  0
   13.5155  -15.9589   22.1552 C   0  0  0  0  0  0  0  0  0  0  0  0
   13.1295  -15.8912   20.8308 O   0  0  0  0  0  0  0  0  0  0  0  0
   14.6129  -15.4207   22.4435 O   0  0  0  0  0  0  0  0  0  0  0  0
  2  1  1  1
  2 10  1  0
  2  3  1  0
  3  4  1  0
  4  5  2  0
  4  9  1  0
  5  6  1  0
  6  7  2  0
  8  7  1  0
  9  8  2  0
 10 12  1  0
 11 10  2  0
 12 16  1  0
 13 12  1  0
 13 14  1  0
 15 14  1  0
 16 15  1  0
 16 17  1  1
 18 17  2  0
 19 17  1  0
 20 21  1  6
 20 19  1  0
 21 22  1  0
 22 26  1  0
 22 23  2  0
 23 24  1  0
 25 24  1  0
 26 25  2  0
 27 28  1  0
 27 20  1  0
 29 27  2  0
M  END
$$$$
