FPH.pdb
     RDKit          3D

 29 31  0  0  1  0  0  0  0  0999 V2000
    9.6266  -15.0574   22.4424 N   0  0  0  0  0  0  0  0  0  0  0  0
    9.0662  -14.6840   23.6811 C   0  0  1  0  0  0  0  0  0  0  0  0
    7.5696  -14.4606   23.5162 C   0  0  0  0  0  0  0  0  0  0  0  0
    7.1011  -13.7018   24.6962 C   0  0  0  0  0  0  0  0  0  0  0  0
    6.4938  -14.3872   25.7545 C   0  0  0  0  0  0  0  0  0  0  0  0
    6.0558  -13.6602   26.8441 C   0  0  0  0  0  0  0  0  0  0  0  0
    6.2149  -12.2941   26.8833 C   0  0  0  0  0  0  0  0  0  0  0  0
    6.8108  -11.5948   25.8517 C   0  0  0  0  0  0  0  0  0  0  0  0
    7.2430  -12.3406   24.7688 C   0  0  0  0  0  0  0  0  0  0  0  0
    9.3835  -15.5008   24.8533 C   0  0  0  0  0  0  0  0  0  0  0  0
    9.5304  -16.7703   24.6443 O   0  0  0  0  0  0  0  0  0  0  0  0
    9.5492  -15.0789   26.1858 N   0  0  0  0  0  0  0  0  0  0  0  0
    8.9641  -13.9747   26.8950 C   0  0  0  0  0  0  0  0  0  0  0  0
   10.1547  -13.4444   27.6944 C   0  0  0  0  0  0  0  0  0  0  0  0
   10.9630  -14.6813   28.0090 C   0  0  0  0  0  0  0  0  0  0  0  0
   10.4253  -15.7768   27.1455 C   0  0  1  0  0  0  0  0  0  0  0  0
    9.6274  -16.7822   27.9139 C   0  0  0  0  0  0  0  0  0  0  0  0
    8.5395  -16.4573   28.4858 O   0  0  0  0  0  0  0  0  0  0  0  0
   10.0509  -18.1235   28.0319 N   0  0  0  0  0  0  0  0  0  0  0  0
    9.3479  -19.1368   28.8253 C   0  0  1  0  0  0  0  0  0  0  0  0
    9.1595  -20.3107   27.9026 C   0  0  0  0  0  0  0  0  0  0  0  0
    8.4771  -20.0027   26.6428 C   0  0  0  0  0  0  0  0  0  0  0  0
    7.4136  -19.1216   26.5586 C   0  0  0  0  0  0  0  0  0  0  0  0
    7.0426  -19.0833   25.2692 N   0  0  0  0  0  0  0  0  0  0  0  0
    7.8358  -19.9045   24.5639 C   0  0  0  0  0  0  0  0  0  0  0  0
    8.7041  -20.4565   25.4166 N   0  0  0  0  0  0  0  0  0  0  0  0
   10.2276  -19.4803   29.9690 C   0  0  0  0  0  0  0  0  0  0  0  0
    9.7063  -20.1718   31.0449 O   0  0  0  0  0  0  0  0  0  0  0  0
   11.4456  -19.1819   30.0363 O   0  0  0  0  0  0  0  0  0  0  0  0
  2  1  1  6
  2 10  1  0
  2  3  1  0
  3  4  1  0
  4  5  2  0
  4  9  1  0
  5  6  1  0
  6  7  2  0
  8  7  1  0
  9  8  2  0
 10 12  1  0
 11 10  2  0
 12 16  1  0
 13 12  1  0
 13 14  1  0
 15 14  1  0
 16 15  1  0
 16 17  1  1
 18 17  2  0
 19 17  1  0
 20 21  1  6
 20 19  1  0
 21 22  1  0
 22 26  1  0
 22 23  2  0
 23 24  1  0
 25 24  1  0
 26 25  2  0
 27 28  1  0
 27 20  1  0
 29 27  2  0
M  END
$$$$
