FPH.pdb
     RDKit          3D

 29 31  0  0  1  0  0  0  0  0999 V2000
    4.9378  -17.3960   24.6152 N   0  0  0  0  0  0  0  0  0  0  0  0
    5.9126  -16.3993   24.8256 C   0  0  1  0  0  0  0  0  0  0  0  0
    6.2106  -16.2848   26.3139 C   0  0  0  0  0  0  0  0  0  0  0  0
    6.8003  -14.9486   26.5473 C   0  0  0  0  0  0  0  0  0  0  0  0
    8.1925  -14.8109   26.5829 C   0  0  0  0  0  0  0  0  0  0  0  0
    8.7241  -13.5564   26.8100 C   0  0  0  0  0  0  0  0  0  0  0  0
    7.8998  -12.4706   26.9963 C   0  0  0  0  0  0  0  0  0  0  0  0
    6.5231  -12.5807   26.9658 C   0  0  0  0  0  0  0  0  0  0  0  0
    6.0095  -13.8454   26.7372 C   0  0  0  0  0  0  0  0  0  0  0  0
    7.1295  -16.4458   24.0139 C   0  0  0  0  0  0  0  0  0  0  0  0
    7.6796  -17.6095   23.8722 O   0  0  0  0  0  0  0  0  0  0  0  0
    7.7812  -15.3801   23.3653 N   0  0  0  0  0  0  0  0  0  0  0  0
    7.6146  -13.9598   23.5059 C   0  0  0  0  0  0  0  0  0  0  0  0
    7.6772  -13.4878   22.0529 C   0  0  0  0  0  0  0  0  0  0  0  0
    8.6435  -14.4473   21.3989 C   0  0  0  0  0  0  0  0  0  0  0  0
    8.8364  -15.5807   22.3545 C   0  0  1  0  0  0  0  0  0  0  0  0
   10.1771  -15.5582   23.0176 C   0  0  0  0  0  0  0  0  0  0  0  0
   10.4455  -14.7097   23.9254 O   0  0  0  0  0  0  0  0  0  0  0  0
   11.1899  -16.4746   22.6615 N   0  0  0  0  0  0  0  0  0  0  0  0
   12.5394  -16.4666   23.2354 C   0  0  1  0  0  0  0  0  0  0  0  0
   12.8506  -17.9047   23.5517 C   0  0  0  0  0  0  0  0  0  0  0  0
   12.0578  -18.4831   24.6401 C   0  0  0  0  0  0  0  0  0  0  0  0
   11.4723  -17.7185   25.6336 C   0  0  0  0  0  0  0  0  0  0  0  0
   10.8323  -18.5690   26.4513 N   0  0  0  0  0  0  0  0  0  0  0  0
   11.0034  -19.8203   25.9976 C   0  0  0  0  0  0  0  0  0  0  0  0
   11.7526  -19.7495   24.8933 N   0  0  0  0  0  0  0  0  0  0  0  0
   13.4505  -15.9295   22.1954 C   0  0  0  0  0  0  0  0  0  0  0  0
   14.7218  -15.5220   22.5490 O   0  0  0  0  0  0  0  0  0  0  0  0
   13.1457  -15.8135   20.9827 O   0  0  0  0  0  0  0  0  0  0  0  0
  2  1  1  1
  2 10  1  0
  2  3  1  0
  3  4  1  0
  4  5  2  0
  4  9  1  0
  5  6  1  0
  6  7  2  0
  8  7  1  0
  9  8  2  0
 10 12  1  0
 11 10  2  0
 12 16  1  0
 13 12  1  0
 13 14  1  0
 15 14  1  0
 16 15  1  0
 16 17  1  1
 18 17  2  0
 19 17  1  0
 20 21  1  6
 20 19  1  0
 21 22  1  0
 22 26  1  0
 22 23  2  0
 23 24  1  0
 25 24  1  0
 26 25  2  0
 27 28  1  0
 27 20  1  0
 29 27  2  0
M  END
$$$$
