FPH.pdb
     RDKit          3D

 29 31  0  0  1  0  0  0  0  0999 V2000
    8.9489  -14.4785   14.6635 N   0  0  0  0  0  0  0  0  0  0  0  0
    8.7345  -15.2683   15.8117 C   0  0  1  0  0  0  0  0  0  0  0  0
    9.0873  -16.7171   15.5061 C   0  0  0  0  0  0  0  0  0  0  0  0
    8.6182  -17.5379   16.6437 C   0  0  0  0  0  0  0  0  0  0  0  0
    7.2589  -17.8550   16.7451 C   0  0  0  0  0  0  0  0  0  0  0  0
    6.8391  -18.6158   17.8188 C   0  0  0  0  0  0  0  0  0  0  0  0
    7.7402  -19.0493   18.7639 C   0  0  0  0  0  0  0  0  0  0  0  0
    9.0864  -18.7496   18.6861 C   0  0  0  0  0  0  0  0  0  0  0  0
    9.4877  -17.9864   17.6035 C   0  0  0  0  0  0  0  0  0  0  0  0
    9.3061  -14.8091   17.0783 C   0  0  0  0  0  0  0  0  0  0  0  0
   10.5847  -14.6047   17.0892 O   0  0  0  0  0  0  0  0  0  0  0  0
    8.6384  -14.5611   18.2923 N   0  0  0  0  0  0  0  0  0  0  0  0
    7.2895  -14.8530   18.6924 C   0  0  0  0  0  0  0  0  0  0  0  0
    6.8980  -13.5786   19.4410 C   0  0  0  0  0  0  0  0  0  0  0  0
    8.1871  -13.1215   20.0824 C   0  0  0  0  0  0  0  0  0  0  0  0
    9.2865  -13.9097   19.4461 C   0  0  1  0  0  0  0  0  0  0  0  0
    9.8548  -14.9518   20.3566 C   0  0  0  0  0  0  0  0  0  0  0  0
    9.3510  -16.1176   20.4141 O   0  0  0  0  0  0  0  0  0  0  0  0
   10.9670  -14.6805   21.1823 N   0  0  0  0  0  0  0  0  0  0  0  0
   11.6751  -15.7006   21.9625 C   0  0  1  0  0  0  0  0  0  0  0  0
   13.1233  -15.2921   21.9384 C   0  0  0  0  0  0  0  0  0  0  0  0
   13.7253  -15.2300   20.6037 C   0  0  0  0  0  0  0  0  0  0  0  0
   13.7635  -16.3133   19.7438 C   0  0  0  0  0  0  0  0  0  0  0  0
   14.3803  -15.8998   18.6258 N   0  0  0  0  0  0  0  0  0  0  0  0
   14.7197  -14.6092   18.7683 C   0  0  0  0  0  0  0  0  0  0  0  0
   14.3130  -14.2171   19.9793 N   0  0  0  0  0  0  0  0  0  0  0  0
   11.1212  -15.6576   23.3378 C   0  0  0  0  0  0  0  0  0  0  0  0
   11.5665  -16.5644   24.2795 O   0  0  0  0  0  0  0  0  0  0  0  0
   10.2530  -14.8359   23.7230 O   0  0  0  0  0  0  0  0  0  0  0  0
  2  1  1  6
  2 10  1  0
  2  3  1  0
  3  4  1  0
  4  5  2  0
  4  9  1  0
  5  6  1  0
  6  7  2  0
  8  7  1  0
  9  8  2  0
 10 12  1  0
 11 10  2  0
 12 16  1  0
 13 12  1  0
 13 14  1  0
 15 14  1  0
 16 15  1  0
 16 17  1  1
 18 17  2  0
 19 17  1  0
 20 21  1  1
 20 19  1  0
 21 22  1  0
 22 26  1  0
 22 23  2  0
 23 24  1  0
 25 24  1  0
 26 25  2  0
 27 28  1  0
 27 20  1  0
 29 27  2  0
M  END
$$$$
