FPH.pdb
     RDKit          3D

 29 31  0  0  1  0  0  0  0  0999 V2000
    6.6054  -16.9839   25.9201 N   0  0  0  0  0  0  0  0  0  0  0  0
    7.0533  -15.9906   25.0254 C   0  0  1  0  0  0  0  0  0  0  0  0
    8.1802  -15.1957   25.6698 C   0  0  0  0  0  0  0  0  0  0  0  0
    7.5864  -13.9684   26.2433 C   0  0  0  0  0  0  0  0  0  0  0  0
    6.2569  -13.6474   25.9467 C   0  0  0  0  0  0  0  0  0  0  0  0
    5.7229  -12.4930   26.4854 C   0  0  0  0  0  0  0  0  0  0  0  0
    6.4843  -11.6810   27.2940 C   0  0  0  0  0  0  0  0  0  0  0  0
    7.7984  -11.9760   27.6014 C   0  0  0  0  0  0  0  0  0  0  0  0
    8.3156  -13.1364   27.0523 C   0  0  0  0  0  0  0  0  0  0  0  0
    7.3662  -16.3920   23.6532 C   0  0  0  0  0  0  0  0  0  0  0  0
    7.3324  -17.6626   23.4062 O   0  0  0  0  0  0  0  0  0  0  0  0
    7.7016  -15.5673   22.5630 N   0  0  0  0  0  0  0  0  0  0  0  0
    7.8285  -14.1386   22.4776 C   0  0  0  0  0  0  0  0  0  0  0  0
    7.1615  -13.8407   21.1344 C   0  0  0  0  0  0  0  0  0  0  0  0
    7.4850  -15.0508   20.2899 C   0  0  0  0  0  0  0  0  0  0  0  0
    8.0085  -16.0968   21.2210 C   0  0  1  0  0  0  0  0  0  0  0  0
    9.4841  -16.3045   21.0890 C   0  0  0  0  0  0  0  0  0  0  0  0
   10.1306  -15.8130   20.1110 O   0  0  0  0  0  0  0  0  0  0  0  0
   10.2105  -17.0509   22.0417 N   0  0  0  0  0  0  0  0  0  0  0  0
   11.6709  -17.1836   22.0367 C   0  0  1  0  0  0  0  0  0  0  0  0
   12.2026  -15.7763   21.9971 C   0  0  0  0  0  0  0  0  0  0  0  0
   12.5268  -15.2760   20.6584 C   0  0  0  0  0  0  0  0  0  0  0  0
   11.6119  -14.6113   19.8611 C   0  0  0  0  0  0  0  0  0  0  0  0
   12.2451  -14.3024   18.7187 N   0  0  0  0  0  0  0  0  0  0  0  0
   13.5080  -14.7512   18.7863 C   0  0  0  0  0  0  0  0  0  0  0  0
   13.6625  -15.3418   19.9750 N   0  0  0  0  0  0  0  0  0  0  0  0
   12.0489  -17.8721   23.2949 C   0  0  0  0  0  0  0  0  0  0  0  0
   13.2277  -18.5895   23.3505 O   0  0  0  0  0  0  0  0  0  0  0  0
   11.3591  -17.8523   24.3442 O   0  0  0  0  0  0  0  0  0  0  0  0
  2  1  1  1
  2 10  1  0
  2  3  1  0
  3  4  1  0
  4  5  2  0
  4  9  1  0
  5  6  1  0
  6  7  2  0
  8  7  1  0
  9  8  2  0
 10 12  1  0
 11 10  2  0
 12 16  1  0
 13 12  1  0
 13 14  1  0
 15 14  1  0
 16 15  1  0
 16 17  1  1
 18 17  2  0
 19 17  1  0
 20 21  1  1
 20 19  1  0
 21 22  1  0
 22 26  1  0
 22 23  2  0
 23 24  1  0
 25 24  1  0
 26 25  2  0
 27 28  1  0
 27 20  1  0
 29 27  2  0
M  END
$$$$
