FPH.pdb
     RDKit          3D

 29 31  0  0  1  0  0  0  0  0999 V2000
    5.3489  -17.7586   25.0107 N   0  0  0  0  0  0  0  0  0  0  0  0
    6.1581  -16.6040   25.0056 C   0  0  1  0  0  0  0  0  0  0  0  0
    6.5082  -16.2215   26.4367 C   0  0  0  0  0  0  0  0  0  0  0  0
    6.6386  -14.7488   26.4835 C   0  0  0  0  0  0  0  0  0  0  0  0
    5.4839  -13.9606   26.5474 C   0  0  0  0  0  0  0  0  0  0  0  0
    5.6260  -12.5871   26.5824 C   0  0  0  0  0  0  0  0  0  0  0  0
    6.8757  -12.0122   26.5550 C   0  0  0  0  0  0  0  0  0  0  0  0
    8.0301  -12.7683   26.4920 C   0  0  0  0  0  0  0  0  0  0  0  0
    7.8673  -14.1423   26.4575 C   0  0  0  0  0  0  0  0  0  0  0  0
    7.3240  -16.5857   24.1211 C   0  0  0  0  0  0  0  0  0  0  0  0
    7.9953  -17.6897   24.0351 O   0  0  0  0  0  0  0  0  0  0  0  0
    7.8106  -15.5142   23.3489 N   0  0  0  0  0  0  0  0  0  0  0  0
    7.4223  -14.1311   23.3220 C   0  0  0  0  0  0  0  0  0  0  0  0
    7.4315  -13.8282   21.8234 C   0  0  0  0  0  0  0  0  0  0  0  0
    8.5451  -14.6941   21.2829 C   0  0  0  0  0  0  0  0  0  0  0  0
    8.8987  -15.6637   22.3645 C   0  0  1  0  0  0  0  0  0  0  0  0
   10.2098  -15.3540   23.0149 C   0  0  0  0  0  0  0  0  0  0  0  0
   10.2601  -14.8356   24.1745 O   0  0  0  0  0  0  0  0  0  0  0  0
   11.4347  -15.6249   22.3679 N   0  0  0  0  0  0  0  0  0  0  0  0
   12.5645  -16.3070   23.0073 C   0  0  1  0  0  0  0  0  0  0  0  0
   12.0322  -17.6456   23.4427 C   0  0  0  0  0  0  0  0  0  0  0  0
   11.5985  -17.7126   24.8409 C   0  0  0  0  0  0  0  0  0  0  0  0
   11.7217  -16.6504   25.7191 C   0  0  0  0  0  0  0  0  0  0  0  0
   11.2289  -17.0622   26.8977 N   0  0  0  0  0  0  0  0  0  0  0  0
   10.8104  -18.3314   26.7745 C   0  0  0  0  0  0  0  0  0  0  0  0
   11.0432  -18.7118   25.5149 N   0  0  0  0  0  0  0  0  0  0  0  0
   13.6231  -16.4517   21.9784 C   0  0  0  0  0  0  0  0  0  0  0  0
   14.9267  -16.1204   22.2920 O   0  0  0  0  0  0  0  0  0  0  0  0
   13.4192  -16.8643   20.8100 O   0  0  0  0  0  0  0  0  0  0  0  0
  2  1  1  1
  2 10  1  0
  2  3  1  0
  3  4  1  0
  4  5  2  0
  4  9  1  0
  5  6  1  0
  6  7  2  0
  8  7  1  0
  9  8  2  0
 10 12  1  0
 11 10  2  0
 12 16  1  0
 13 12  1  0
 13 14  1  0
 15 14  1  0
 16 15  1  0
 16 17  1  1
 18 17  2  0
 19 17  1  0
 20 21  1  6
 20 19  1  0
 21 22  1  0
 22 26  1  0
 22 23  2  0
 23 24  1  0
 25 24  1  0
 26 25  2  0
 27 28  1  0
 27 20  1  0
 29 27  2  0
M  END
$$$$
