FPH.pdb
     RDKit          3D

 29 31  0  0  1  0  0  0  0  0999 V2000
    6.7972  -17.2481   26.2582 N   0  0  0  0  0  0  0  0  0  0  0  0
    6.3696  -16.8191   24.9850 C   0  0  1  0  0  0  0  0  0  0  0  0
    5.6017  -15.5118   25.1197 C   0  0  0  0  0  0  0  0  0  0  0  0
    6.4683  -14.5608   25.8493 C   0  0  0  0  0  0  0  0  0  0  0  0
    7.8099  -14.8900   26.0735 C   0  0  0  0  0  0  0  0  0  0  0  0
    8.6012  -13.9924   26.7636 C   0  0  0  0  0  0  0  0  0  0  0  0
    8.0778  -12.8038   27.2179 C   0  0  0  0  0  0  0  0  0  0  0  0
    6.7573  -12.4561   27.0093 C   0  0  0  0  0  0  0  0  0  0  0  0
    5.9805  -13.3682   26.3162 C   0  0  0  0  0  0  0  0  0  0  0  0
    7.3572  -16.7785   23.9057 C   0  0  0  0  0  0  0  0  0  0  0  0
    7.9694  -17.8899   23.6472 O   0  0  0  0  0  0  0  0  0  0  0  0
    7.7281  -15.6785   23.1098 N   0  0  0  0  0  0  0  0  0  0  0  0
    7.2480  -14.3242   23.1071 C   0  0  0  0  0  0  0  0  0  0  0  0
    7.1541  -14.0240   21.6108 C   0  0  0  0  0  0  0  0  0  0  0  0
    8.2911  -14.8151   21.0079 C   0  0  0  0  0  0  0  0  0  0  0  0
    8.7677  -15.7571   22.0664 C   0  0  1  0  0  0  0  0  0  0  0  0
   10.0892  -15.3598   22.6440 C   0  0  0  0  0  0  0  0  0  0  0  0
   10.1996  -14.3305   23.3817 O   0  0  0  0  0  0  0  0  0  0  0  0
   11.2580  -16.1102   22.3922 N   0  0  0  0  0  0  0  0  0  0  0  0
   12.5646  -15.8145   22.9888 C   0  0  1  0  0  0  0  0  0  0  0  0
   12.3745  -15.9740   24.4732 C   0  0  0  0  0  0  0  0  0  0  0  0
   12.0261  -17.3290   24.9091 C   0  0  0  0  0  0  0  0  0  0  0  0
   11.7283  -18.3510   24.0251 C   0  0  0  0  0  0  0  0  0  0  0  0
   11.4600  -19.4381   24.7651 N   0  0  0  0  0  0  0  0  0  0  0  0
   11.5818  -19.1214   26.0635 C   0  0  0  0  0  0  0  0  0  0  0  0
   11.9273  -17.8324   26.1330 N   0  0  0  0  0  0  0  0  0  0  0  0
   13.5225  -16.8124   22.4533 C   0  0  0  0  0  0  0  0  0  0  0  0
   13.0992  -17.7195   21.5018 O   0  0  0  0  0  0  0  0  0  0  0  0
   14.7238  -16.8983   22.8090 O   0  0  0  0  0  0  0  0  0  0  0  0
  2  1  1  1
  2 10  1  0
  2  3  1  0
  3  4  1  0
  4  5  2  0
  4  9  1  0
  5  6  1  0
  6  7  2  0
  8  7  1  0
  9  8  2  0
 10 12  1  0
 11 10  2  0
 12 16  1  0
 13 12  1  0
 13 14  1  0
 15 14  1  0
 16 15  1  0
 16 17  1  1
 18 17  2  0
 19 17  1  0
 20 21  1  1
 20 19  1  0
 21 22  1  0
 22 26  1  0
 22 23  2  0
 23 24  1  0
 25 24  1  0
 26 25  2  0
 27 28  1  0
 27 20  1  0
 29 27  2  0
M  END
$$$$
