THM.pdb
     RDKit          3D

 26 26  0  0  1  0  0  0  0  0999 V2000
   13.8765  -11.3759  -12.4685 C   0  0  0  0  0  0  0  0  0  0  0  0
   14.5520  -10.4659  -11.4782 C   0  0  1  0  0  0  0  0  0  0  0  0
   14.1812  -10.7579  -10.1664 O   0  0  0  0  0  0  0  0  0  0  0  0
   16.0625  -10.5930  -11.5353 C   0  0  2  0  0  0  0  0  0  0  0  0
   16.4086  -11.8980  -11.0236 N   0  0  0  0  0  0  0  0  0  0  0  0
   16.6949   -9.5112  -10.6742 C   0  0  0  0  0  0  0  0  0  0  0  0
   17.1382   -9.8449   -9.5482 O   0  0  0  0  0  0  0  0  0  0  0  0
   16.7790   -8.1945  -11.1207 N   0  0  0  0  0  0  0  0  0  0  0  0
   17.5391   -7.0956  -10.4457 C   0  0  1  0  0  0  0  0  0  0  0  0
   18.4364   -6.5608  -11.4661 C   0  0  0  0  0  0  0  0  0  0  0  0
   19.6712   -7.2358  -11.8185 C   0  0  0  0  0  0  0  0  0  0  0  0
   20.2950   -8.3870  -11.4309 C   0  0  0  0  0  0  0  0  0  0  0  0
   21.3947   -8.5390  -12.1917 N   0  0  0  0  0  0  0  0  0  0  0  0
   21.4781   -7.5199  -13.0434 C   0  0  0  0  0  0  0  0  0  0  0  0
   20.4476   -6.7284  -12.8302 N   0  0  0  0  0  0  0  0  0  0  0  0
   16.4326   -6.1215  -10.1087 C   0  0  0  0  0  0  0  0  0  0  0  0
   15.5035   -5.9154  -10.9929 O   0  0  0  0  0  0  0  0  0  0  0  0
   11.2428   -3.0103   -5.2442 C   0  0  0  0  0  0  0  0  0  0  0  0
   12.5724   -4.2168   -5.5291 S   0  0  0  0  0  0  0  0  0  0  0  0
   13.3343   -3.8382   -7.1464 C   0  0  0  0  0  0  0  0  0  0  0  0
   14.4988   -4.7465   -7.3918 C   0  0  0  0  0  0  0  0  0  0  0  0
   15.0761   -4.5129   -8.7618 C   0  0  2  0  0  0  0  0  0  0  0  0
   16.2679   -5.3924   -8.9393 N   0  0  0  0  0  0  0  0  0  0  0  0
   15.5528   -3.1275   -8.8754 C   0  0  0  0  0  0  0  0  0  0  0  0
   14.6256   -2.1248   -9.2191 O   0  0  0  0  0  0  0  0  0  0  0  0
   16.7391   -2.7433   -8.6904 O   0  0  0  0  0  0  0  0  0  0  0  0
  2  3  1  0
  2  1  1  6
  4  6  1  0
  4  2  1  0
  4  5  1  1
  6  7  2  0
  8  6  1  0
  8  9  1  0
  9 10  1  6
 11 15  1  0
 11 10  1  0
 12 11  2  0
 13 12  1  0
 13 14  1  0
 14 15  2  0
 16 23  1  0
 16  9  1  0
 17 16  2  0
 18 19  1  0
 19 20  1  0
 20 21  1  0
 22 21  1  1
 22 24  1  0
 22 23  1  0
 24 25  1  0
 26 24  2  0
M  END
$$$$
