THM.pdb
     RDKit          3D

 26 26  0  0  1  0  0  0  0  0999 V2000
   16.8760  -10.2994  -10.7497 C   0  0  0  0  0  0  0  0  0  0  0  0
   15.3899  -10.5067  -10.6337 C   0  0  1  0  0  0  0  0  0  0  0  0
   15.0715  -11.8284  -10.3246 O   0  0  0  0  0  0  0  0  0  0  0  0
   14.7858   -9.6521   -9.5356 C   0  0  2  0  0  0  0  0  0  0  0  0
   13.3769   -9.9607   -9.4698 N   0  0  0  0  0  0  0  0  0  0  0  0
   14.9821   -8.1823   -9.8716 C   0  0  0  0  0  0  0  0  0  0  0  0
   14.3098   -7.7039  -10.8176 O   0  0  0  0  0  0  0  0  0  0  0  0
   15.8781   -7.3940   -9.1533 N   0  0  0  0  0  0  0  0  0  0  0  0
   16.1594   -5.9461   -9.4094 C   0  0  1  0  0  0  0  0  0  0  0  0
   15.9290   -5.2744   -8.1335 C   0  0  0  0  0  0  0  0  0  0  0  0
   14.6126   -4.7960   -7.7559 C   0  0  0  0  0  0  0  0  0  0  0  0
   13.3662   -4.8377   -8.3122 C   0  0  0  0  0  0  0  0  0  0  0  0
   12.5022   -4.2940   -7.4351 N   0  0  0  0  0  0  0  0  0  0  0  0
   13.1685   -3.9143   -6.3474 C   0  0  0  0  0  0  0  0  0  0  0  0
   14.4389   -4.2105   -6.5267 N   0  0  0  0  0  0  0  0  0  0  0  0
   17.6287   -5.9792   -9.7660 C   0  0  0  0  0  0  0  0  0  0  0  0
   18.4601   -6.4822   -8.9040 O   0  0  0  0  0  0  0  0  0  0  0  0
   22.9780   -9.8001  -12.8858 C   0  0  0  0  0  0  0  0  0  0  0  0
   21.2274   -9.3592  -12.6724 S   0  0  0  0  0  0  0  0  0  0  0  0
   21.1557   -7.6566  -12.0126 C   0  0  0  0  0  0  0  0  0  0  0  0
   19.7383   -7.2813  -11.7100 C   0  0  0  0  0  0  0  0  0  0  0  0
   19.6573   -5.8609  -11.2193 C   0  0  2  0  0  0  0  0  0  0  0  0
   18.2312   -5.5302  -10.9329 N   0  0  0  0  0  0  0  0  0  0  0  0
   20.1008   -4.9397  -12.2749 C   0  0  0  0  0  0  0  0  0  0  0  0
   21.4823   -4.7198  -12.4369 O   0  0  0  0  0  0  0  0  0  0  0  0
   19.3450   -4.3140  -13.0664 O   0  0  0  0  0  0  0  0  0  0  0  0
  2  3  1  0
  2  1  1  1
  4  6  1  0
  4  2  1  0
  4  5  1  6
  6  7  2  0
  8  6  1  0
  8  9  1  0
  9 10  1  1
 11 15  1  0
 11 10  1  0
 12 11  2  0
 13 12  1  0
 13 14  1  0
 14 15  2  0
 16 23  1  0
 16  9  1  0
 17 16  2  0
 18 19  1  0
 19 20  1  0
 20 21  1  0
 22 21  1  6
 22 24  1  0
 22 23  1  0
 24 25  1  0
 26 24  2  0
M  END
$$$$
