THM.pdb
     RDKit          3D

 26 26  0  0  1  0  0  0  0  0999 V2000
   35.9022  -25.2732  -19.7347 C   0  0  0  0  0  0  0  0  0  0  0  0
   34.6981  -25.3385  -18.8343 C   0  0  1  0  0  0  0  0  0  0  0  0
   33.9198  -26.4671  -19.0873 O   0  0  0  0  0  0  0  0  0  0  0  0
   35.0918  -25.4083  -17.3710 C   0  0  2  0  0  0  0  0  0  0  0  0
   35.8203  -24.2015  -17.0586 N   0  0  0  0  0  0  0  0  0  0  0  0
   35.9753  -26.6244  -17.1416 C   0  0  0  0  0  0  0  0  0  0  0  0
   37.1764  -26.5502  -17.4987 O   0  0  0  0  0  0  0  0  0  0  0  0
   35.4678  -27.7813  -16.5550 N   0  0  0  0  0  0  0  0  0  0  0  0
   36.2739  -28.9780  -16.1561 C   0  0  1  0  0  0  0  0  0  0  0  0
   35.7071  -29.4219  -14.8857 C   0  0  0  0  0  0  0  0  0  0  0  0
   36.1721  -30.6290  -14.2291 C   0  0  0  0  0  0  0  0  0  0  0  0
   37.1747  -31.5301  -14.4470 C   0  0  0  0  0  0  0  0  0  0  0  0
   37.1701  -32.4099  -13.4286 N   0  0  0  0  0  0  0  0  0  0  0  0
   36.1969  -32.0873  -12.5800 C   0  0  0  0  0  0  0  0  0  0  0  0
   35.5887  -31.0177  -13.0490 N   0  0  0  0  0  0  0  0  0  0  0  0
   35.9599  -29.9445  -17.2760 C   0  0  0  0  0  0  0  0  0  0  0  0
   34.7211  -30.0808  -17.6422 O   0  0  0  0  0  0  0  0  0  0  0  0
   38.6958  -30.8888  -22.8815 C   0  0  0  0  0  0  0  0  0  0  0  0
   38.1329  -32.5994  -22.6338 S   0  0  0  0  0  0  0  0  0  0  0  0
   36.9116  -32.5953  -21.2745 C   0  0  0  0  0  0  0  0  0  0  0  0
   37.3501  -31.6592  -20.1916 C   0  0  0  0  0  0  0  0  0  0  0  0
   36.3514  -31.6428  -19.0660 C   0  0  2  0  0  0  0  0  0  0  0  0
   36.8486  -30.7332  -17.9933 N   0  0  0  0  0  0  0  0  0  0  0  0
   36.2464  -32.9817  -18.4693 C   0  0  0  0  0  0  0  0  0  0  0  0
   35.2510  -33.8544  -18.9498 O   0  0  0  0  0  0  0  0  0  0  0  0
   36.9790  -33.4328  -17.5480 O   0  0  0  0  0  0  0  0  0  0  0  0
  2  3  1  0
  2  1  1  6
  4  6  1  0
  4  2  1  0
  4  5  1  6
  6  7  2  0
  8  6  1  0
  8  9  1  0
  9 10  1  1
 11 15  1  0
 11 10  1  0
 12 11  2  0
 13 12  1  0
 13 14  1  0
 14 15  2  0
 16 23  1  0
 16  9  1  0
 17 16  2  0
 18 19  1  0
 19 20  1  0
 20 21  1  0
 22 21  1  6
 22 24  1  0
 22 23  1  0
 24 25  1  0
 26 24  2  0
M  END
$$$$
