THM.pdb
     RDKit          3D

 26 26  0  0  1  0  0  0  0  0999 V2000
   22.1076  -13.0544  -18.3982 C   0  0  0  0  0  0  0  0  0  0  0  0
   21.3799  -11.8136  -17.9554 C   0  0  1  0  0  0  0  0  0  0  0  0
   21.0331  -11.0011  -19.0339 O   0  0  0  0  0  0  0  0  0  0  0  0
   20.0868  -12.1456  -17.2352 C   0  0  2  0  0  0  0  0  0  0  0  0
   19.2034  -12.7681  -18.1926 N   0  0  0  0  0  0  0  0  0  0  0  0
   19.4604  -10.8664  -16.7031 C   0  0  0  0  0  0  0  0  0  0  0  0
   18.6997  -10.2254  -17.4689 O   0  0  0  0  0  0  0  0  0  0  0  0
   19.7225  -10.4215  -15.4095 N   0  0  0  0  0  0  0  0  0  0  0  0
   19.0856   -9.2364  -14.7531 C   0  0  1  0  0  0  0  0  0  0  0  0
   18.7220   -9.6845  -13.4118 C   0  0  0  0  0  0  0  0  0  0  0  0
   18.1761   -8.7680  -12.4287 C   0  0  0  0  0  0  0  0  0  0  0  0
   17.8561   -7.4406  -12.4088 C   0  0  0  0  0  0  0  0  0  0  0  0
   17.2894   -7.1685  -11.2188 N   0  0  0  0  0  0  0  0  0  0  0  0
   17.2439   -8.2837  -10.4940 C   0  0  0  0  0  0  0  0  0  0  0  0
   17.7738   -9.2537  -11.2096 N   0  0  0  0  0  0  0  0  0  0  0  0
   20.2331   -8.2519  -14.7212 C   0  0  0  0  0  0  0  0  0  0  0  0
   21.4241   -8.7029  -14.4650 O   0  0  0  0  0  0  0  0  0  0  0  0
   24.3515   -2.4882  -17.7515 C   0  0  0  0  0  0  0  0  0  0  0  0
   22.8254   -3.4754  -17.7811 S   0  0  0  0  0  0  0  0  0  0  0  0
   22.7298   -4.4050  -16.2107 C   0  0  0  0  0  0  0  0  0  0  0  0
   21.5345   -5.3063  -16.2182 C   0  0  0  0  0  0  0  0  0  0  0  0
   21.4385   -6.0733  -14.9270 C   0  0  2  0  0  0  0  0  0  0  0  0
   20.1850   -6.8819  -14.9384 N   0  0  0  0  0  0  0  0  0  0  0  0
   21.3291   -5.1406  -13.7967 C   0  0  0  0  0  0  0  0  0  0  0  0
   20.0530   -4.8843  -13.2592 O   0  0  0  0  0  0  0  0  0  0  0  0
   22.2905   -4.5349  -13.2508 O   0  0  0  0  0  0  0  0  0  0  0  0
  2  3  1  0
  2  1  1  6
  4  6  1  0
  4  2  1  0
  4  5  1  6
  6  7  2  0
  8  6  1  0
  8  9  1  0
  9 10  1  1
 11 15  1  0
 11 10  1  0
 12 11  2  0
 13 12  1  0
 13 14  1  0
 14 15  2  0
 16 23  1  0
 16  9  1  0
 17 16  2  0
 18 19  1  0
 19 20  1  0
 20 21  1  0
 22 21  1  6
 22 24  1  0
 22 23  1  0
 24 25  1  0
 26 24  2  0
M  END
$$$$
