THM.pdb
     RDKit          3D

 26 26  0  0  1  0  0  0  0  0999 V2000
   17.5628  -14.4741  -15.4313 C   0  0  0  0  0  0  0  0  0  0  0  0
   18.2567  -13.2255  -15.9054 C   0  0  1  0  0  0  0  0  0  0  0  0
   19.6344  -13.4069  -16.0181 O   0  0  0  0  0  0  0  0  0  0  0  0
   17.7675  -12.7945  -17.2751 C   0  0  2  0  0  0  0  0  0  0  0  0
   18.1682  -13.8105  -18.2195 N   0  0  0  0  0  0  0  0  0  0  0  0
   18.4008  -11.4621  -17.6432 C   0  0  0  0  0  0  0  0  0  0  0  0
   19.2776  -11.4599  -18.5415 O   0  0  0  0  0  0  0  0  0  0  0  0
   18.0202  -10.2843  -17.0044 N   0  0  0  0  0  0  0  0  0  0  0  0
   18.4793   -8.9084  -17.3746 C   0  0  1  0  0  0  0  0  0  0  0  0
   17.3165   -8.0463  -17.1819 C   0  0  0  0  0  0  0  0  0  0  0  0
   16.3854   -7.7775  -18.2614 C   0  0  0  0  0  0  0  0  0  0  0  0
   16.4515   -7.1381  -19.4662 C   0  0  0  0  0  0  0  0  0  0  0  0
   15.2667   -7.2959  -20.0849 N   0  0  0  0  0  0  0  0  0  0  0  0
   14.4619   -8.0144  -19.3058 C   0  0  0  0  0  0  0  0  0  0  0  0
   15.1220   -8.3112  -18.2058 N   0  0  0  0  0  0  0  0  0  0  0  0
   19.5442   -8.6512  -16.3321 C   0  0  0  0  0  0  0  0  0  0  0  0
   19.3077   -9.0153  -15.1078 O   0  0  0  0  0  0  0  0  0  0  0  0
   26.7537  -10.2092  -14.4301 C   0  0  0  0  0  0  0  0  0  0  0  0
   25.4930  -10.0223  -15.7264 S   0  0  0  0  0  0  0  0  0  0  0  0
   24.0807   -9.1132  -15.0065 C   0  0  0  0  0  0  0  0  0  0  0  0
   22.9655   -9.0236  -16.0013 C   0  0  0  0  0  0  0  0  0  0  0  0
   21.8393   -8.1827  -15.4635 C   0  0  2  0  0  0  0  0  0  0  0  0
   20.7863   -8.0589  -16.5129 N   0  0  0  0  0  0  0  0  0  0  0  0
   22.3189   -6.8220  -15.1839 C   0  0  0  0  0  0  0  0  0  0  0  0
   22.1484   -5.8339  -16.1727 O   0  0  0  0  0  0  0  0  0  0  0  0
   22.8807   -6.4474  -14.1194 O   0  0  0  0  0  0  0  0  0  0  0  0
  2  3  1  0
  2  1  1  6
  4  6  1  0
  4  2  1  0
  4  5  1  6
  6  7  2  0
  8  6  1  0
  8  9  1  0
  9 10  1  1
 11 15  1  0
 11 10  1  0
 12 11  2  0
 13 12  1  0
 13 14  1  0
 14 15  2  0
 16 23  1  0
 16  9  1  0
 17 16  2  0
 18 19  1  0
 19 20  1  0
 20 21  1  0
 22 21  1  6
 22 24  1  0
 22 23  1  0
 24 25  1  0
 26 24  2  0
M  END
$$$$
