THM.pdb
     RDKit          3D

 26 26  0  0  1  0  0  0  0  0999 V2000
   15.3049  -23.3423   -1.7770 C   0  0  0  0  0  0  0  0  0  0  0  0
   14.1041  -23.1049   -2.6526 C   0  0  1  0  0  0  0  0  0  0  0  0
   13.5378  -21.8505   -2.4301 O   0  0  0  0  0  0  0  0  0  0  0  0
   14.4614  -23.1589   -4.1259 C   0  0  2  0  0  0  0  0  0  0  0  0
   13.2416  -22.9750   -4.8761 N   0  0  0  0  0  0  0  0  0  0  0  0
   15.0731  -24.5128   -4.4496 C   0  0  0  0  0  0  0  0  0  0  0  0
   14.3065  -25.5061   -4.4902 O   0  0  0  0  0  0  0  0  0  0  0  0
   16.4382  -24.6453   -4.6926 N   0  0  0  0  0  0  0  0  0  0  0  0
   17.1333  -25.9158   -5.0717 C   0  0  1  0  0  0  0  0  0  0  0  0
   18.2067  -25.5156   -5.9772 C   0  0  0  0  0  0  0  0  0  0  0  0
   18.0016  -25.4464   -7.4116 C   0  0  0  0  0  0  0  0  0  0  0  0
   16.9408  -25.6277   -8.2522 C   0  0  0  0  0  0  0  0  0  0  0  0
   17.3457  -25.3308   -9.5009 N   0  0  0  0  0  0  0  0  0  0  0  0
   18.6259  -24.9686   -9.4679 C   0  0  0  0  0  0  0  0  0  0  0  0
   19.0331  -25.0333   -8.2174 N   0  0  0  0  0  0  0  0  0  0  0  0
   17.6722  -26.3788   -3.7367 C   0  0  0  0  0  0  0  0  0  0  0  0
   18.3889  -25.5486   -3.0408 O   0  0  0  0  0  0  0  0  0  0  0  0
   16.6958  -28.3088    3.4581 C   0  0  0  0  0  0  0  0  0  0  0  0
   16.0109  -28.0373    1.7963 S   0  0  0  0  0  0  0  0  0  0  0  0
   17.3818  -28.1782    0.5962 C   0  0  0  0  0  0  0  0  0  0  0  0
   16.9074  -27.8034   -0.7733 C   0  0  0  0  0  0  0  0  0  0  0  0
   18.0383  -27.8676   -1.7641 C   0  0  2  0  0  0  0  0  0  0  0  0
   17.4968  -27.6153   -3.1310 N   0  0  0  0  0  0  0  0  0  0  0  0
   18.6140  -29.2196   -1.7809 C   0  0  0  0  0  0  0  0  0  0  0  0
   18.2675  -30.0835   -2.8377 O   0  0  0  0  0  0  0  0  0  0  0  0
   19.4058  -29.6896   -0.9200 O   0  0  0  0  0  0  0  0  0  0  0  0
  2  3  1  0
  2  1  1  1
  4  6  1  0
  4  2  1  0
  4  5  1  6
  6  7  2  0
  8  6  1  0
  8  9  1  0
  9 10  1  6
 11 15  1  0
 11 10  1  0
 12 11  2  0
 13 12  1  0
 13 14  1  0
 14 15  2  0
 16 23  1  0
 16  9  1  0
 17 16  2  0
 18 19  1  0
 19 20  1  0
 20 21  1  0
 22 21  1  1
 22 24  1  0
 22 23  1  0
 24 25  1  0
 26 24  2  0
M  END
$$$$
