THM.pdb
     RDKit          3D

 26 26  0  0  1  0  0  0  0  0999 V2000
   15.1030   -7.7530  -13.3558 C   0  0  0  0  0  0  0  0  0  0  0  0
   15.0165   -8.3277  -11.9675 C   0  0  1  0  0  0  0  0  0  0  0  0
   13.7353   -8.7939  -11.6763 O   0  0  0  0  0  0  0  0  0  0  0  0
   15.9533   -9.5069  -11.7865 C   0  0  2  0  0  0  0  0  0  0  0  0
   15.8164   -9.9660  -10.4244 N   0  0  0  0  0  0  0  0  0  0  0  0
   17.3840   -9.0618  -12.0450 C   0  0  0  0  0  0  0  0  0  0  0  0
   17.9715   -8.4254  -11.1363 O   0  0  0  0  0  0  0  0  0  0  0  0
   18.0204   -9.3509  -13.2498 N   0  0  0  0  0  0  0  0  0  0  0  0
   19.4591   -9.0768  -13.5595 C   0  0  1  0  0  0  0  0  0  0  0  0
   19.9465  -10.2768  -14.2337 C   0  0  0  0  0  0  0  0  0  0  0  0
   21.2494  -10.3119  -14.8706 C   0  0  0  0  0  0  0  0  0  0  0  0
   22.3208   -9.4681  -14.9402 C   0  0  0  0  0  0  0  0  0  0  0  0
   23.3006  -10.0970  -15.6154 N   0  0  0  0  0  0  0  0  0  0  0  0
   22.8764  -11.3077  -15.9696 C   0  0  0  0  0  0  0  0  0  0  0  0
   21.6442  -11.4504  -15.5278 N   0  0  0  0  0  0  0  0  0  0  0  0
   19.3488   -7.9070  -14.5115 C   0  0  0  0  0  0  0  0  0  0  0  0
   18.4198   -7.9373  -15.4189 O   0  0  0  0  0  0  0  0  0  0  0  0
   18.1956   -0.7963  -16.8306 C   0  0  0  0  0  0  0  0  0  0  0  0
   18.4214   -1.9779  -15.4677 S   0  0  0  0  0  0  0  0  0  0  0  0
   19.2423   -3.4633  -16.1452 C   0  0  0  0  0  0  0  0  0  0  0  0
   19.3408   -4.5224  -15.0917 C   0  0  0  0  0  0  0  0  0  0  0  0
   19.9684   -5.7711  -15.6499 C   0  0  2  0  0  0  0  0  0  0  0  0
   20.1331   -6.7624  -14.5473 N   0  0  0  0  0  0  0  0  0  0  0  0
   21.3160   -5.4726  -16.1542 C   0  0  0  0  0  0  0  0  0  0  0  0
   21.4465   -4.9678  -17.4624 O   0  0  0  0  0  0  0  0  0  0  0  0
   22.3898   -5.6291  -15.5126 O   0  0  0  0  0  0  0  0  0  0  0  0
  2  3  1  0
  2  1  1  6
  4  6  1  0
  4  2  1  0
  4  5  1  1
  6  7  2  0
  8  6  1  0
  8  9  1  0
  9 10  1  6
 11 15  1  0
 11 10  1  0
 12 11  2  0
 13 12  1  0
 13 14  1  0
 14 15  2  0
 16 23  1  0
 16  9  1  0
 17 16  2  0
 18 19  1  0
 19 20  1  0
 20 21  1  0
 22 21  1  1
 22 24  1  0
 22 23  1  0
 24 25  1  0
 26 24  2  0
M  END
$$$$
