THM.pdb
     RDKit          3D

 26 26  0  0  1  0  0  0  0  0999 V2000
   23.6816  -25.6996  -16.3447 C   0  0  0  0  0  0  0  0  0  0  0  0
   24.8763  -24.9611  -15.8039 C   0  0  1  0  0  0  0  0  0  0  0  0
   26.0702  -25.4371  -16.3438 O   0  0  0  0  0  0  0  0  0  0  0  0
   24.8185  -23.4807  -16.1298 C   0  0  2  0  0  0  0  0  0  0  0  0
   25.1469  -23.3300  -17.5277 N   0  0  0  0  0  0  0  0  0  0  0  0
   25.8289  -22.7336  -15.2737 C   0  0  0  0  0  0  0  0  0  0  0  0
   27.0475  -22.9439  -15.4901 O   0  0  0  0  0  0  0  0  0  0  0  0
   25.4153  -21.8462  -14.2830 N   0  0  0  0  0  0  0  0  0  0  0  0
   26.3176  -20.9741  -13.4668 C   0  0  1  0  0  0  0  0  0  0  0  0
   26.0812  -19.6151  -13.9457 C   0  0  0  0  0  0  0  0  0  0  0  0
   26.9025  -19.0245  -14.9855 C   0  0  0  0  0  0  0  0  0  0  0  0
   27.9725  -19.4329  -15.7291 C   0  0  0  0  0  0  0  0  0  0  0  0
   28.2525  -18.4637  -16.6199 N   0  0  0  0  0  0  0  0  0  0  0  0
   27.3910  -17.4623  -16.4578 C   0  0  0  0  0  0  0  0  0  0  0  0
   26.5731  -17.7864  -15.4781 N   0  0  0  0  0  0  0  0  0  0  0  0
   25.7638  -21.1801  -12.0747 C   0  0  0  0  0  0  0  0  0  0  0  0
   24.4741  -21.2226  -11.9255 O   0  0  0  0  0  0  0  0  0  0  0  0
   28.9560  -20.2599   -6.5524 C   0  0  0  0  0  0  0  0  0  0  0  0
   27.3499  -19.5148   -6.1400 S   0  0  0  0  0  0  0  0  0  0  0  0
   26.1168  -20.1489   -7.3302 C   0  0  0  0  0  0  0  0  0  0  0  0
   26.7825  -20.4944   -8.6259 C   0  0  0  0  0  0  0  0  0  0  0  0
   25.8006  -21.1232   -9.5773 C   0  0  2  0  0  0  0  0  0  0  0  0
   26.4725  -21.3376  -10.8918 N   0  0  0  0  0  0  0  0  0  0  0  0
   24.6797  -20.2045   -9.8208 C   0  0  0  0  0  0  0  0  0  0  0  0
   24.8441  -19.1840  -10.7772 O   0  0  0  0  0  0  0  0  0  0  0  0
   23.5607  -20.2443   -9.2419 O   0  0  0  0  0  0  0  0  0  0  0  0
  2  3  1  0
  2  1  1  6
  4  6  1  0
  4  2  1  0
  4  5  1  6
  6  7  2  0
  8  6  1  0
  8  9  1  0
  9 10  1  6
 11 15  1  0
 11 10  1  0
 12 11  2  0
 13 12  1  0
 13 14  1  0
 14 15  2  0
 16 23  1  0
 16  9  1  0
 17 16  2  0
 18 19  1  0
 19 20  1  0
 20 21  1  0
 22 21  1  1
 22 24  1  0
 22 23  1  0
 24 25  1  0
 26 24  2  0
M  END
$$$$
