THM.pdb
     RDKit          3D

 26 26  0  0  1  0  0  0  0  0999 V2000
   23.8660  -16.9890  -15.5135 C   0  0  0  0  0  0  0  0  0  0  0  0
   23.4843  -15.5951  -15.9338 C   0  0  1  0  0  0  0  0  0  0  0  0
   24.5571  -14.9118  -16.5047 O   0  0  0  0  0  0  0  0  0  0  0  0
   22.3789  -15.6026  -16.9725 C   0  0  2  0  0  0  0  0  0  0  0  0
   22.9401  -16.1132  -18.2010 N   0  0  0  0  0  0  0  0  0  0  0  0
   21.8705  -14.1849  -17.1816 C   0  0  0  0  0  0  0  0  0  0  0  0
   22.3279  -13.5374  -18.1549 O   0  0  0  0  0  0  0  0  0  0  0  0
   20.9292  -13.6246  -16.3214 N   0  0  0  0  0  0  0  0  0  0  0  0
   20.3116  -12.2695  -16.4741 C   0  0  1  0  0  0  0  0  0  0  0  0
   19.0750  -12.3169  -15.6989 C   0  0  0  0  0  0  0  0  0  0  0  0
   18.2542  -11.1360  -15.5087 C   0  0  0  0  0  0  0  0  0  0  0  0
   18.3001   -9.8403  -15.9375 C   0  0  0  0  0  0  0  0  0  0  0  0
   17.1894   -9.2191  -15.4996 N   0  0  0  0  0  0  0  0  0  0  0  0
   16.4498  -10.0852  -14.8112 C   0  0  0  0  0  0  0  0  0  0  0  0
   17.0782  -11.2423  -14.8089 N   0  0  0  0  0  0  0  0  0  0  0  0
   21.3487  -11.3858  -15.8179 C   0  0  0  0  0  0  0  0  0  0  0  0
   21.8950  -11.7944  -14.7125 O   0  0  0  0  0  0  0  0  0  0  0  0
   27.2939  -10.9707  -16.2375 C   0  0  0  0  0  0  0  0  0  0  0  0
   26.8891   -9.2048  -16.3860 S   0  0  0  0  0  0  0  0  0  0  0  0
   25.3046   -8.9194  -15.5215 C   0  0  0  0  0  0  0  0  0  0  0  0
   24.1966   -9.6370  -16.2276 C   0  0  0  0  0  0  0  0  0  0  0  0
   22.8921   -9.4469  -15.5017 C   0  0  2  0  0  0  0  0  0  0  0  0
   21.8145  -10.1531  -16.2535 N   0  0  0  0  0  0  0  0  0  0  0  0
   22.5311   -8.0225  -15.4841 C   0  0  0  0  0  0  0  0  0  0  0  0
   22.8626   -7.2602  -14.3473 O   0  0  0  0  0  0  0  0  0  0  0  0
   21.9399   -7.4050  -16.4104 O   0  0  0  0  0  0  0  0  0  0  0  0
  2  3  1  0
  2  1  1  6
  4  6  1  0
  4  2  1  0
  4  5  1  6
  6  7  2  0
  8  6  1  0
  8  9  1  0
  9 10  1  1
 11 15  1  0
 11 10  1  0
 12 11  2  0
 13 12  1  0
 13 14  1  0
 14 15  2  0
 16 23  1  0
 16  9  1  0
 17 16  2  0
 18 19  1  0
 19 20  1  0
 20 21  1  0
 22 21  1  6
 22 24  1  0
 22 23  1  0
 24 25  1  0
 26 24  2  0
M  END
$$$$
