THM.pdb
     RDKit          3D

 26 26  0  0  1  0  0  0  0  0999 V2000
   26.8746  -24.6622  -17.6972 C   0  0  0  0  0  0  0  0  0  0  0  0
   25.4893  -24.6079  -17.1113 C   0  0  1  0  0  0  0  0  0  0  0  0
   24.7017  -25.6761  -17.5380 O   0  0  0  0  0  0  0  0  0  0  0  0
   25.5155  -24.6729  -15.5960 C   0  0  2  0  0  0  0  0  0  0  0  0
   24.1475  -24.7452  -15.1401 N   0  0  0  0  0  0  0  0  0  0  0  0
   26.1823  -23.4217  -15.0466 C   0  0  0  0  0  0  0  0  0  0  0  0
   27.3996  -23.2486  -15.3000 O   0  0  0  0  0  0  0  0  0  0  0  0
   25.4658  -22.4994  -14.2877 N   0  0  0  0  0  0  0  0  0  0  0  0
   25.9842  -21.1789  -13.8095 C   0  0  1  0  0  0  0  0  0  0  0  0
   25.1048  -20.1775  -14.4065 C   0  0  0  0  0  0  0  0  0  0  0  0
   25.3796  -18.7584  -14.2841 C   0  0  0  0  0  0  0  0  0  0  0  0
   26.3901  -18.0052  -13.7585 C   0  0  0  0  0  0  0  0  0  0  0  0
   26.1279  -16.7131  -14.0287 N   0  0  0  0  0  0  0  0  0  0  0  0
   24.9859  -16.6342  -14.7075 C   0  0  0  0  0  0  0  0  0  0  0  0
   24.5250  -17.8571  -14.8684 N   0  0  0  0  0  0  0  0  0  0  0  0
   25.7714  -21.2901  -12.3164 C   0  0  0  0  0  0  0  0  0  0  0  0
   24.8549  -22.1028  -11.8841 O   0  0  0  0  0  0  0  0  0  0  0  0
   27.4962  -19.6749   -4.7848 C   0  0  0  0  0  0  0  0  0  0  0  0
   27.8878  -19.3188   -6.5239 S   0  0  0  0  0  0  0  0  0  0  0  0
   26.6952  -20.2322   -7.5643 C   0  0  0  0  0  0  0  0  0  0  0  0
   27.0784  -20.1187   -9.0070 C   0  0  0  0  0  0  0  0  0  0  0  0
   26.0944  -20.8520   -9.8781 C   0  0  2  0  0  0  0  0  0  0  0  0
   26.4487  -20.6184  -11.3082 N   0  0  0  0  0  0  0  0  0  0  0  0
   24.7453  -20.3033   -9.6821 C   0  0  0  0  0  0  0  0  0  0  0  0
   23.9653  -20.8026   -8.6212 O   0  0  0  0  0  0  0  0  0  0  0  0
   24.2083  -19.4085  -10.3893 O   0  0  0  0  0  0  0  0  0  0  0  0
  2  3  1  0
  2  1  1  6
  4  6  1  0
  4  2  1  0
  4  5  1  1
  6  7  2  0
  8  6  1  0
  8  9  1  0
  9 10  1  6
 11 15  1  0
 11 10  1  0
 12 11  2  0
 13 12  1  0
 13 14  1  0
 14 15  2  0
 16 23  1  0
 16  9  1  0
 17 16  2  0
 18 19  1  0
 19 20  1  0
 20 21  1  0
 22 21  1  1
 22 24  1  0
 22 23  1  0
 24 25  1  0
 26 24  2  0
M  END
$$$$
