THM.pdb
     RDKit          3D

 26 26  0  0  1  0  0  0  0  0999 V2000
   25.9408  -17.1955  -14.8013 C   0  0  0  0  0  0  0  0  0  0  0  0
   26.5312  -18.1297  -15.8230 C   0  0  1  0  0  0  0  0  0  0  0  0
   27.8907  -17.8925  -16.0205 O   0  0  0  0  0  0  0  0  0  0  0  0
   26.4063  -19.5806  -15.3986 C   0  0  2  0  0  0  0  0  0  0  0  0
   27.0791  -20.3837  -16.3920 N   0  0  0  0  0  0  0  0  0  0  0  0
   24.9364  -19.9630  -15.3276 C   0  0  0  0  0  0  0  0  0  0  0  0
   24.2840  -19.9790  -16.4001 O   0  0  0  0  0  0  0  0  0  0  0  0
   24.3349  -20.2844  -14.1132 N   0  0  0  0  0  0  0  0  0  0  0  0
   22.9277  -20.7656  -13.9416 C   0  0  1  0  0  0  0  0  0  0  0  0
   22.8750  -21.3407  -12.6004 C   0  0  0  0  0  0  0  0  0  0  0  0
   21.6266  -21.7992  -12.0211 C   0  0  0  0  0  0  0  0  0  0  0  0
   20.3592  -22.0099  -12.4838 C   0  0  0  0  0  0  0  0  0  0  0  0
   19.6343  -22.5394  -11.4810 N   0  0  0  0  0  0  0  0  0  0  0  0
   20.4083  -22.6674  -10.4060 C   0  0  0  0  0  0  0  0  0  0  0  0
   21.6094  -22.2263  -10.7167 N   0  0  0  0  0  0  0  0  0  0  0  0
   22.1502  -19.4713  -14.0253 C   0  0  0  0  0  0  0  0  0  0  0  0
   22.5863  -18.4469  -13.3562 O   0  0  0  0  0  0  0  0  0  0  0  0
   20.0546  -14.0918  -13.8459 C   0  0  0  0  0  0  0  0  0  0  0  0
   20.8919  -14.5927  -15.3797 S   0  0  0  0  0  0  0  0  0  0  0  0
   19.8877  -15.9031  -16.1631 C   0  0  0  0  0  0  0  0  0  0  0  0
   20.6013  -17.2166  -16.0811 C   0  0  0  0  0  0  0  0  0  0  0  0
   20.3796  -17.8596  -14.7386 C   0  0  2  0  0  0  0  0  0  0  0  0
   20.9924  -19.2196  -14.7481 N   0  0  0  0  0  0  0  0  0  0  0  0
   18.9410  -18.0462  -14.5036 C   0  0  0  0  0  0  0  0  0  0  0  0
   18.3020  -19.1520  -15.0969 O   0  0  0  0  0  0  0  0  0  0  0  0
   18.2088  -17.2936  -13.8060 O   0  0  0  0  0  0  0  0  0  0  0  0
  2  3  1  0
  2  1  1  1
  4  6  1  0
  4  2  1  0
  4  5  1  6
  6  7  2  0
  8  6  1  0
  8  9  1  0
  9 10  1  1
 11 15  1  0
 11 10  1  0
 12 11  2  0
 13 12  1  0
 13 14  1  0
 14 15  2  0
 16 23  1  0
 16  9  1  0
 17 16  2  0
 18 19  1  0
 19 20  1  0
 20 21  1  0
 22 21  1  6
 22 24  1  0
 22 23  1  0
 24 25  1  0
 26 24  2  0
M  END
$$$$
