THM.pdb
     RDKit          3D

 26 26  0  0  1  0  0  0  0  0999 V2000
   29.0919  -23.0882  -16.4235 C   0  0  0  0  0  0  0  0  0  0  0  0
   28.1980  -22.3414  -15.4703 C   0  0  1  0  0  0  0  0  0  0  0  0
   28.9285  -21.6581  -14.4993 O   0  0  0  0  0  0  0  0  0  0  0  0
   27.3564  -21.3012  -16.1849 C   0  0  2  0  0  0  0  0  0  0  0  0
   28.2553  -20.4510  -16.9291 N   0  0  0  0  0  0  0  0  0  0  0  0
   26.5898  -20.4791  -15.1609 C   0  0  0  0  0  0  0  0  0  0  0  0
   26.9829  -19.3078  -14.9388 O   0  0  0  0  0  0  0  0  0  0  0  0
   25.4888  -21.0089  -14.4922 N   0  0  0  0  0  0  0  0  0  0  0  0
   24.6362  -20.2741  -13.5053 C   0  0  1  0  0  0  0  0  0  0  0  0
   23.2752  -20.7491  -13.7387 C   0  0  0  0  0  0  0  0  0  0  0  0
   22.1957  -20.4364  -12.8214 C   0  0  0  0  0  0  0  0  0  0  0  0
   21.3902  -21.1562  -11.9861 C   0  0  0  0  0  0  0  0  0  0  0  0
   20.6199  -20.2887  -11.3037 N   0  0  0  0  0  0  0  0  0  0  0  0
   20.9187  -19.0492  -11.6850 C   0  0  0  0  0  0  0  0  0  0  0  0
   21.8653  -19.1232  -12.5973 N   0  0  0  0  0  0  0  0  0  0  0  0
   25.1864  -20.7798  -12.1905 C   0  0  0  0  0  0  0  0  0  0  0  0
   25.5629  -22.0208  -12.1174 O   0  0  0  0  0  0  0  0  0  0  0  0
   28.7232  -20.1009   -5.2462 C   0  0  0  0  0  0  0  0  0  0  0  0
   28.1098  -19.2374   -6.7236 S   0  0  0  0  0  0  0  0  0  0  0  0
   27.0996  -20.4194   -7.6835 C   0  0  0  0  0  0  0  0  0  0  0  0
   26.6581  -19.7931   -8.9696 C   0  0  0  0  0  0  0  0  0  0  0  0
   25.8380  -20.7613   -9.7787 C   0  0  2  0  0  0  0  0  0  0  0  0
   25.3516  -20.0712  -11.0086 N   0  0  0  0  0  0  0  0  0  0  0  0
   24.6451  -21.1638   -9.0206 C   0  0  0  0  0  0  0  0  0  0  0  0
   24.7919  -22.1182   -7.9956 O   0  0  0  0  0  0  0  0  0  0  0  0
   23.4775  -20.7261   -9.2051 O   0  0  0  0  0  0  0  0  0  0  0  0
  2  3  1  0
  2  1  1  6
  4  6  1  0
  4  2  1  0
  4  5  1  1
  6  7  2  0
  8  6  1  0
  8  9  1  0
  9 10  1  6
 11 15  1  0
 11 10  1  0
 12 11  2  0
 13 12  1  0
 13 14  1  0
 14 15  2  0
 16 23  1  0
 16  9  1  0
 17 16  2  0
 18 19  1  0
 19 20  1  0
 20 21  1  0
 22 21  1  1
 22 24  1  0
 22 23  1  0
 24 25  1  0
 26 24  2  0
M  END
$$$$
