THM.pdb
     RDKit          3D

 26 26  0  0  1  0  0  0  0  0999 V2000
   29.5652  -20.2137  -13.4903 C   0  0  0  0  0  0  0  0  0  0  0  0
   29.2219  -19.5086  -14.7748 C   0  0  1  0  0  0  0  0  0  0  0  0
   30.0539  -19.9014  -15.8223 O   0  0  0  0  0  0  0  0  0  0  0  0
   27.8027  -19.8069  -15.2195 C   0  0  2  0  0  0  0  0  0  0  0  0
   27.5595  -19.0574  -16.4294 N   0  0  0  0  0  0  0  0  0  0  0  0
   26.8300  -19.3740  -14.1340 C   0  0  0  0  0  0  0  0  0  0  0  0
   26.7083  -18.1440  -13.9147 O   0  0  0  0  0  0  0  0  0  0  0  0
   26.0993  -20.3114  -13.4078 N   0  0  0  0  0  0  0  0  0  0  0  0
   25.0449  -19.9941  -12.3937 C   0  0  1  0  0  0  0  0  0  0  0  0
   23.8732  -20.7665  -12.7973 C   0  0  0  0  0  0  0  0  0  0  0  0
   22.6667  -20.7895  -11.9922 C   0  0  0  0  0  0  0  0  0  0  0  0
   22.2482  -20.1703  -10.8493 C   0  0  0  0  0  0  0  0  0  0  0  0
   20.9691  -20.5265  -10.6292 N   0  0  0  0  0  0  0  0  0  0  0  0
   20.5740  -21.3481  -11.5987 C   0  0  0  0  0  0  0  0  0  0  0  0
   21.5850  -21.5148  -12.4257 N   0  0  0  0  0  0  0  0  0  0  0  0
   25.6651  -20.5405  -11.1273 C   0  0  0  0  0  0  0  0  0  0  0  0
   26.1982  -21.7245  -11.1642 O   0  0  0  0  0  0  0  0  0  0  0  0
   29.8262  -19.0746   -6.3543 C   0  0  0  0  0  0  0  0  0  0  0  0
   28.3090  -19.4525   -5.4270 S   0  0  0  0  0  0  0  0  0  0  0  0
   27.2581  -20.5122   -6.4813 C   0  0  0  0  0  0  0  0  0  0  0  0
   26.9436  -19.8101   -7.7656 C   0  0  0  0  0  0  0  0  0  0  0  0
   26.1580  -20.7070   -8.6838 C   0  0  2  0  0  0  0  0  0  0  0  0
   25.7466  -19.9253   -9.8859 N   0  0  0  0  0  0  0  0  0  0  0  0
   24.9216  -21.1440   -8.0207 C   0  0  0  0  0  0  0  0  0  0  0  0
   24.9960  -22.1971   -7.0887 O   0  0  0  0  0  0  0  0  0  0  0  0
   23.7755  -20.6549   -8.2114 O   0  0  0  0  0  0  0  0  0  0  0  0
  2  3  1  0
  2  1  1  1
  4  6  1  0
  4  2  1  0
  4  5  1  6
  6  7  2  0
  8  6  1  0
  8  9  1  0
  9 10  1  6
 11 15  1  0
 11 10  1  0
 12 11  2  0
 13 12  1  0
 13 14  1  0
 14 15  2  0
 16 23  1  0
 16  9  1  0
 17 16  2  0
 18 19  1  0
 19 20  1  0
 20 21  1  0
 22 21  1  1
 22 24  1  0
 22 23  1  0
 24 25  1  0
 26 24  2  0
M  END
$$$$
