GAH.pdb
     RDKit          3D

 20 20  0  0  1  0  0  0  0  0999 V2000
    9.0704  -17.3066   16.8530 N   0  0  0  0  0  0  0  0  0  0  0  0
    8.3132  -16.9117   17.9991 C   0  0  0  0  0  0  0  0  0  0  0  0
    8.9245  -15.7311   18.6963 C   0  0  0  0  0  0  0  0  0  0  0  0
   10.1431  -15.6649   18.9724 O   0  0  0  0  0  0  0  0  0  0  0  0
    7.4050  -12.4698   19.7301 C   0  0  0  0  0  0  0  0  0  0  0  0
    8.5364  -13.4997   19.7945 C   0  0  2  0  0  0  0  0  0  0  0  0
    8.1058  -14.6448   19.0614 N   0  0  0  0  0  0  0  0  0  0  0  0
    8.9551  -13.7626   21.1610 C   0  0  0  0  0  0  0  0  0  0  0  0
    9.4877  -12.8638   21.8452 O   0  0  0  0  0  0  0  0  0  0  0  0
    8.7634  -15.0413   21.7312 N   0  0  0  0  0  0  0  0  0  0  0  0
    9.0942  -15.3411   23.1236 C   0  0  1  0  0  0  0  0  0  0  0  0
    7.8437  -15.6960   23.8997 C   0  0  0  0  0  0  0  0  0  0  0  0
    7.2812  -14.5112   24.5902 C   0  0  0  0  0  0  0  0  0  0  0  0
    7.8123  -13.2179   24.5974 C   0  0  0  0  0  0  0  0  0  0  0  0
    7.0317  -12.4045   25.3286 N   0  0  0  0  0  0  0  0  0  0  0  0
    6.0119  -13.1606   25.7869 C   0  0  0  0  0  0  0  0  0  0  0  0
    6.1612  -14.4203   25.3453 N   0  0  0  0  0  0  0  0  0  0  0  0
   10.1268  -16.3884   23.2155 C   0  0  0  0  0  0  0  0  0  0  0  0
   10.5579  -16.8301   24.3071 O   0  0  0  0  0  0  0  0  0  0  0  0
   10.6909  -16.9555   22.0599 O   0  0  0  0  0  0  0  0  0  0  0  0
  2  1  1  0
  3  2  1  0
  4  3  2  0
  6  5  1  1
  6  7  1  0
  7  3  1  0
  8  6  1  0
  8  9  2  0
 10  8  1  0
 11 10  1  0
 12 13  1  0
 11 12  1  1
 13 14  2  0
 14 15  1  0
 16 15  1  0
 17 13  1  0
 17 16  2  0
 18 11  1  0
 19 18  2  0
 20 18  1  0
M  END
$$$$
