GAH.pdb
     RDKit          3D

 20 20  0  0  1  0  0  0  0  0999 V2000
    6.7829  -18.2775   18.2935 N   0  0  0  0  0  0  0  0  0  0  0  0
    6.4211  -17.1979   19.1575 C   0  0  0  0  0  0  0  0  0  0  0  0
    7.5762  -16.2746   19.4160 C   0  0  0  0  0  0  0  0  0  0  0  0
    8.7671  -16.6147   19.2388 O   0  0  0  0  0  0  0  0  0  0  0  0
    7.6676  -12.6345   20.2069 C   0  0  0  0  0  0  0  0  0  0  0  0
    8.3251  -14.0171   20.2402 C   0  0  2  0  0  0  0  0  0  0  0  0
    7.3256  -14.9677   19.8776 N   0  0  0  0  0  0  0  0  0  0  0  0
    8.9901  -14.2726   21.5067 C   0  0  0  0  0  0  0  0  0  0  0  0
    9.9994  -13.6155   21.8370 O   0  0  0  0  0  0  0  0  0  0  0  0
    8.5003  -15.2698   22.3800 N   0  0  0  0  0  0  0  0  0  0  0  0
    9.0891  -15.5256   23.6938 C   0  0  1  0  0  0  0  0  0  0  0  0
    8.0047  -15.7821   24.7185 C   0  0  0  0  0  0  0  0  0  0  0  0
    7.3288  -14.5247   25.1172 C   0  0  0  0  0  0  0  0  0  0  0  0
    7.8994  -13.2494   25.1686 C   0  0  0  0  0  0  0  0  0  0  0  0
    6.9847  -12.3526   25.5744 N   0  0  0  0  0  0  0  0  0  0  0  0
    5.8406  -13.0380   25.7820 C   0  0  0  0  0  0  0  0  0  0  0  0
    6.0465  -14.3368   25.5085 N   0  0  0  0  0  0  0  0  0  0  0  0
   10.0749  -16.6194   23.6353 C   0  0  0  0  0  0  0  0  0  0  0  0
   10.2792  -17.3017   22.6032 O   0  0  0  0  0  0  0  0  0  0  0  0
   10.8507  -16.9585   24.7570 O   0  0  0  0  0  0  0  0  0  0  0  0
  2  1  1  0
  3  2  1  0
  4  3  2  0
  6  5  1  1
  6  7  1  0
  7  3  1  0
  8  6  1  0
  8  9  2  0
 10  8  1  0
 11 10  1  0
 12 13  1  0
 11 12  1  1
 13 14  2  0
 14 15  1  0
 16 15  1  0
 17 13  1  0
 17 16  2  0
 18 11  1  0
 19 18  2  0
 20 18  1  0
M  END
$$$$
