GAH.pdb
     RDKit          3D

 20 20  0  0  1  0  0  0  0  0999 V2000
    4.9925  -18.4650   20.4512 N   0  0  0  0  0  0  0  0  0  0  0  0
    5.2408  -17.6389   21.5909 C   0  0  0  0  0  0  0  0  0  0  0  0
    6.6003  -17.0044   21.5387 C   0  0  0  0  0  0  0  0  0  0  0  0
    7.6540  -17.6703   21.4302 O   0  0  0  0  0  0  0  0  0  0  0  0
    7.6477  -13.4339   21.3134 C   0  0  0  0  0  0  0  0  0  0  0  0
    7.9347  -14.8788   21.7318 C   0  0  2  0  0  0  0  0  0  0  0  0
    6.7113  -15.6024   21.6139 N   0  0  0  0  0  0  0  0  0  0  0  0
    8.5718  -14.9509   23.0358 C   0  0  0  0  0  0  0  0  0  0  0  0
    9.6867  -14.4217   23.2272 O   0  0  0  0  0  0  0  0  0  0  0  0
    7.9347  -15.6223   24.1037 N   0  0  0  0  0  0  0  0  0  0  0  0
    8.4878  -15.6539   25.4569 C   0  0  1  0  0  0  0  0  0  0  0  0
    7.3978  -15.4130   26.4796 C   0  0  0  0  0  0  0  0  0  0  0  0
    6.9836  -13.9900   26.5036 C   0  0  0  0  0  0  0  0  0  0  0  0
    7.8040  -12.8774   26.2945 C   0  0  0  0  0  0  0  0  0  0  0  0
    7.0814  -11.7487   26.3921 N   0  0  0  0  0  0  0  0  0  0  0  0
    5.8136  -12.1262   26.6602 C   0  0  0  0  0  0  0  0  0  0  0  0
    5.7553  -13.4664   26.7268 N   0  0  0  0  0  0  0  0  0  0  0  0
    9.2230  -16.9065   25.7061 C   0  0  0  0  0  0  0  0  0  0  0  0
    9.2946  -17.8361   24.8675 O   0  0  0  0  0  0  0  0  0  0  0  0
    9.8940  -17.1252   26.9215 O   0  0  0  0  0  0  0  0  0  0  0  0
  2  1  1  0
  3  2  1  0
  4  3  2  0
  6  5  1  1
  6  7  1  0
  7  3  1  0
  8  6  1  0
  8  9  2  0
 10  8  1  0
 11 10  1  0
 12 13  1  0
 11 12  1  1
 13 14  2  0
 14 15  1  0
 16 15  1  0
 17 13  1  0
 17 16  2  0
 18 11  1  0
 19 18  2  0
 20 18  1  0
M  END
$$$$
