GAH.pdb
     RDKit          3D

 20 20  0  0  1  0  0  0  0  0999 V2000
    6.4905  -18.6762   19.6137 N   0  0  0  0  0  0  0  0  0  0  0  0
    6.1270  -17.3805   20.0953 C   0  0  0  0  0  0  0  0  0  0  0  0
    7.3204  -16.4821   20.2450 C   0  0  0  0  0  0  0  0  0  0  0  0
    8.4960  -16.8929   20.1235 O   0  0  0  0  0  0  0  0  0  0  0  0
    7.6614  -12.8205   20.2092 C   0  0  0  0  0  0  0  0  0  0  0  0
    8.1651  -14.1641   20.7443 C   0  0  2  0  0  0  0  0  0  0  0  0
    7.1254  -15.1176   20.5341 N   0  0  0  0  0  0  0  0  0  0  0  0
    8.6406  -14.0603   22.1135 C   0  0  0  0  0  0  0  0  0  0  0  0
    8.3816  -13.0497   22.7999 O   0  0  0  0  0  0  0  0  0  0  0  0
    9.4031  -15.1045   22.6838 N   0  0  0  0  0  0  0  0  0  0  0  0
    9.3907  -15.3979   24.1162 C   0  0  1  0  0  0  0  0  0  0  0  0
    7.9809  -15.6902   24.5841 C   0  0  0  0  0  0  0  0  0  0  0  0
    7.3226  -14.4716   25.1119 C   0  0  0  0  0  0  0  0  0  0  0  0
    7.8932  -13.2014   25.2374 C   0  0  0  0  0  0  0  0  0  0  0  0
    6.9972  -12.3441   25.7549 N   0  0  0  0  0  0  0  0  0  0  0  0
    5.8650  -13.0496   25.9606 C   0  0  0  0  0  0  0  0  0  0  0  0
    6.0598  -14.3217   25.5761 N   0  0  0  0  0  0  0  0  0  0  0  0
   10.3282  -16.4853   24.4485 C   0  0  0  0  0  0  0  0  0  0  0  0
   10.4108  -17.5446   23.7825 O   0  0  0  0  0  0  0  0  0  0  0  0
   11.1938  -16.3863   25.5513 O   0  0  0  0  0  0  0  0  0  0  0  0
  2  1  1  0
  3  2  1  0
  4  3  2  0
  6  5  1  1
  6  7  1  0
  7  3  1  0
  8  6  1  0
  8  9  2  0
 10  8  1  0
 11 10  1  0
 12 13  1  0
 11 12  1  6
 13 14  2  0
 14 15  1  0
 16 15  1  0
 17 13  1  0
 17 16  2  0
 18 11  1  0
 19 18  2  0
 20 18  1  0
M  END
$$$$
