GAH.pdb
     RDKit          3D

 20 20  0  0  1  0  0  0  0  0999 V2000
    8.4251  -17.9000   18.1937 N   0  0  0  0  0  0  0  0  0  0  0  0
    8.3260  -18.5776   19.4483 C   0  0  0  0  0  0  0  0  0  0  0  0
    7.9025  -17.6538   20.5532 C   0  0  0  0  0  0  0  0  0  0  0  0
    8.0887  -16.4173   20.5100 O   0  0  0  0  0  0  0  0  0  0  0  0
    6.0845  -18.3579   23.7515 C   0  0  0  0  0  0  0  0  0  0  0  0
    6.9672  -17.4580   22.8819 C   0  0  2  0  0  0  0  0  0  0  0  0
    7.2679  -18.1856   21.6926 N   0  0  0  0  0  0  0  0  0  0  0  0
    8.1220  -16.9613   23.6108 C   0  0  0  0  0  0  0  0  0  0  0  0
    9.1931  -17.6032   23.6159 O   0  0  0  0  0  0  0  0  0  0  0  0
    8.0446  -15.7434   24.3234 N   0  0  0  0  0  0  0  0  0  0  0  0
    9.1622  -15.2142   25.1037 C   0  0  1  0  0  0  0  0  0  0  0  0
    9.0782  -13.7052   25.1919 C   0  0  0  0  0  0  0  0  0  0  0  0
    7.8069  -13.2699   25.8176 C   0  0  0  0  0  0  0  0  0  0  0  0
    6.8328  -12.4466   25.2449 C   0  0  0  0  0  0  0  0  0  0  0  0
    5.8176  -12.2677   26.1069 N   0  0  0  0  0  0  0  0  0  0  0  0
    6.1309  -12.9648   27.2194 C   0  0  0  0  0  0  0  0  0  0  0  0
    7.3205  -13.5640   27.0462 N   0  0  0  0  0  0  0  0  0  0  0  0
    9.2374  -15.8498   26.4311 C   0  0  0  0  0  0  0  0  0  0  0  0
    8.2788  -16.4727   26.9466 O   0  0  0  0  0  0  0  0  0  0  0  0
   10.4118  -15.7876   27.2006 O   0  0  0  0  0  0  0  0  0  0  0  0
  2  1  1  0
  3  2  1  0
  4  3  2  0
  6  5  1  1
  6  7  1  0
  7  3  1  0
  8  6  1  0
  8  9  2  0
 10  8  1  0
 11 10  1  0
 12 13  1  0
 11 12  1  1
 13 14  2  0
 14 15  1  0
 16 15  1  0
 17 13  1  0
 17 16  2  0
 18 11  1  0
 19 18  2  0
 20 18  1  0
M  END
$$$$
