GAH.pdb
     RDKit          3D

 20 20  0  0  1  0  0  0  0  0999 V2000
    9.4903  -17.1896   15.2066 N   0  0  0  0  0  0  0  0  0  0  0  0
    8.7710  -16.4951   16.2278 C   0  0  0  0  0  0  0  0  0  0  0  0
    9.5961  -15.4102   16.8568 C   0  0  0  0  0  0  0  0  0  0  0  0
   10.8318  -15.3144   16.6854 O   0  0  0  0  0  0  0  0  0  0  0  0
    8.5648  -12.3977   18.8100 C   0  0  0  0  0  0  0  0  0  0  0  0
    9.6350  -13.4033   18.3757 C   0  0  2  0  0  0  0  0  0  0  0  0
    8.9681  -14.4526   17.6767 N   0  0  0  0  0  0  0  0  0  0  0  0
   10.4625  -13.8320   19.4905 C   0  0  0  0  0  0  0  0  0  0  0  0
   11.3331  -13.0718   19.9634 O   0  0  0  0  0  0  0  0  0  0  0  0
   10.2902  -15.1171   20.0526 N   0  0  0  0  0  0  0  0  0  0  0  0
   10.9998  -15.5535   21.2543 C   0  0  1  0  0  0  0  0  0  0  0  0
   10.0688  -16.3206   22.1691 C   0  0  0  0  0  0  0  0  0  0  0  0
    8.8990  -15.4996   22.5622 C   0  0  0  0  0  0  0  0  0  0  0  0
    8.7924  -14.6847   23.6932 C   0  0  0  0  0  0  0  0  0  0  0  0
    7.5862  -14.0931   23.7213 N   0  0  0  0  0  0  0  0  0  0  0  0
    6.9237  -14.5192   22.6253 C   0  0  0  0  0  0  0  0  0  0  0  0
    7.7088  -15.3602   21.9323 N   0  0  0  0  0  0  0  0  0  0  0  0
   12.2093  -16.3229   20.9127 C   0  0  0  0  0  0  0  0  0  0  0  0
   12.4785  -16.6912   19.7446 O   0  0  0  0  0  0  0  0  0  0  0  0
   13.1399  -16.6894   21.9001 O   0  0  0  0  0  0  0  0  0  0  0  0
  2  1  1  0
  3  2  1  0
  4  3  2  0
  6  5  1  1
  6  7  1  0
  7  3  1  0
  8  6  1  0
  8  9  2  0
 10  8  1  0
 11 10  1  0
 12 13  1  0
 11 12  1  1
 13 14  2  0
 14 15  1  0
 16 15  1  0
 17 13  1  0
 17 16  2  0
 18 11  1  0
 19 18  2  0
 20 18  1  0
M  END
$$$$
