GAH.pdb
     RDKit          3D

 20 20  0  0  1  0  0  0  0  0999 V2000
    8.3396  -17.5326   14.8104 N   0  0  0  0  0  0  0  0  0  0  0  0
    9.3154  -18.1156   15.6769 C   0  0  0  0  0  0  0  0  0  0  0  0
    8.9920  -17.8821   17.1242 C   0  0  0  0  0  0  0  0  0  0  0  0
    8.2770  -16.9317   17.5129 O   0  0  0  0  0  0  0  0  0  0  0  0
    9.5468  -20.0533   20.0962 C   0  0  0  0  0  0  0  0  0  0  0  0
    9.2587  -18.6729   19.4989 C   0  0  2  0  0  0  0  0  0  0  0  0
    9.5073  -18.7604   18.0972 N   0  0  0  0  0  0  0  0  0  0  0  0
    9.9827  -17.6196   20.1902 C   0  0  0  0  0  0  0  0  0  0  0  0
   11.1640  -17.3551   19.8833 O   0  0  0  0  0  0  0  0  0  0  0  0
    9.3558  -16.8817   21.2195 N   0  0  0  0  0  0  0  0  0  0  0  0
    9.9788  -15.7163   21.8457 C   0  0  1  0  0  0  0  0  0  0  0  0
    8.9747  -14.5922   21.9875 C   0  0  0  0  0  0  0  0  0  0  0  0
    8.4093  -14.2030   20.6738 C   0  0  0  0  0  0  0  0  0  0  0  0
    8.9732  -13.3171   19.7508 C   0  0  0  0  0  0  0  0  0  0  0  0
    8.1782  -13.2087   18.6730 N   0  0  0  0  0  0  0  0  0  0  0  0
    7.1169  -14.0122   18.8961 C   0  0  0  0  0  0  0  0  0  0  0  0
    7.2552  -14.6067   20.0925 N   0  0  0  0  0  0  0  0  0  0  0  0
   10.6084  -16.0706   23.1300 C   0  0  0  0  0  0  0  0  0  0  0  0
   10.3532  -17.1320   23.7472 O   0  0  0  0  0  0  0  0  0  0  0  0
   11.5455  -15.2184   23.7390 O   0  0  0  0  0  0  0  0  0  0  0  0
  2  1  1  0
  3  2  1  0
  4  3  2  0
  6  5  1  1
  6  7  1  0
  7  3  1  0
  8  6  1  0
  8  9  2  0
 10  8  1  0
 11 10  1  0
 12 13  1  0
 11 12  1  1
 13 14  2  0
 14 15  1  0
 16 15  1  0
 17 13  1  0
 17 16  2  0
 18 11  1  0
 19 18  2  0
 20 18  1  0
M  END
$$$$
