GAH.pdb
     RDKit          3D

 20 20  0  0  1  0  0  0  0  0999 V2000
    6.4807  -18.3893   19.1611 N   0  0  0  0  0  0  0  0  0  0  0  0
    6.2167  -17.2159   19.9333 C   0  0  0  0  0  0  0  0  0  0  0  0
    7.3984  -16.2908   19.9704 C   0  0  0  0  0  0  0  0  0  0  0  0
    8.5547  -16.6575   19.6637 O   0  0  0  0  0  0  0  0  0  0  0  0
    7.6743  -12.6222   20.5466 C   0  0  0  0  0  0  0  0  0  0  0  0
    8.2616  -14.0313   20.6674 C   0  0  2  0  0  0  0  0  0  0  0  0
    7.2145  -14.9513   20.3649 N   0  0  0  0  0  0  0  0  0  0  0  0
    8.9162  -14.2396   21.9479 C   0  0  0  0  0  0  0  0  0  0  0  0
    9.9402  -13.5917   22.2495 O   0  0  0  0  0  0  0  0  0  0  0  0
    8.3993  -15.1800   22.8674 N   0  0  0  0  0  0  0  0  0  0  0  0
    9.0002  -15.4110   24.1803 C   0  0  1  0  0  0  0  0  0  0  0  0
    7.9243  -15.5921   25.2299 C   0  0  0  0  0  0  0  0  0  0  0  0
    7.2540  -14.3081   25.5445 C   0  0  0  0  0  0  0  0  0  0  0  0
    7.8640  -13.0568   25.6735 C   0  0  0  0  0  0  0  0  0  0  0  0
    6.9417  -12.1235   25.9634 N   0  0  0  0  0  0  0  0  0  0  0  0
    5.7540  -12.7621   26.0208 C   0  0  0  0  0  0  0  0  0  0  0  0
    5.9409  -14.0684   25.7704 N   0  0  0  0  0  0  0  0  0  0  0  0
    9.9451  -16.5413   24.1457 C   0  0  0  0  0  0  0  0  0  0  0  0
   10.1177  -17.2578   23.1311 O   0  0  0  0  0  0  0  0  0  0  0  0
   10.7153  -16.8788   25.2718 O   0  0  0  0  0  0  0  0  0  0  0  0
  2  1  1  0
  3  2  1  0
  4  3  2  0
  6  5  1  1
  6  7  1  0
  7  3  1  0
  8  6  1  0
  8  9  2  0
 10  8  1  0
 11 10  1  0
 12 13  1  0
 11 12  1  1
 13 14  2  0
 14 15  1  0
 16 15  1  0
 17 13  1  0
 17 16  2  0
 18 11  1  0
 19 18  2  0
 20 18  1  0
M  END
$$$$
