GAH.pdb
     RDKit          3D

 20 20  0  0  1  0  0  0  0  0999 V2000
    8.6826  -17.6554   18.1105 N   0  0  0  0  0  0  0  0  0  0  0  0
    7.6512  -16.8540   18.6909 C   0  0  0  0  0  0  0  0  0  0  0  0
    8.1847  -15.9327   19.7492 C   0  0  0  0  0  0  0  0  0  0  0  0
    9.1389  -16.2419   20.4972 O   0  0  0  0  0  0  0  0  0  0  0  0
    7.4036  -12.3542   20.4651 C   0  0  0  0  0  0  0  0  0  0  0  0
    7.9862  -13.7023   20.8990 C   0  0  2  0  0  0  0  0  0  0  0  0
    7.5977  -14.6638   19.9198 N   0  0  0  0  0  0  0  0  0  0  0  0
    7.6272  -14.0345   22.2674 C   0  0  0  0  0  0  0  0  0  0  0  0
    6.5483  -13.6368   22.7545 O   0  0  0  0  0  0  0  0  0  0  0  0
    8.4977  -14.8131   23.0630 N   0  0  0  0  0  0  0  0  0  0  0  0
    8.2151  -15.1297   24.4623 C   0  0  1  0  0  0  0  0  0  0  0  0
    6.8400  -15.7484   24.5974 C   0  0  0  0  0  0  0  0  0  0  0  0
    6.7085  -16.9628   23.7578 C   0  0  0  0  0  0  0  0  0  0  0  0
    7.6702  -17.4853   22.8878 C   0  0  0  0  0  0  0  0  0  0  0  0
    7.1992  -18.5956   22.2954 N   0  0  0  0  0  0  0  0  0  0  0  0
    5.9524  -18.7877   22.7753 C   0  0  0  0  0  0  0  0  0  0  0  0
    5.6591  -17.8112   23.6497 N   0  0  0  0  0  0  0  0  0  0  0  0
    9.2707  -15.9779   25.0435 C   0  0  0  0  0  0  0  0  0  0  0  0
    9.2602  -16.3615   26.2373 O   0  0  0  0  0  0  0  0  0  0  0  0
   10.3640  -16.4076   24.2720 O   0  0  0  0  0  0  0  0  0  0  0  0
  2  1  1  0
  3  2  1  0
  4  3  2  0
  6  5  1  6
  6  7  1  0
  7  3  1  0
  8  6  1  0
  8  9  2  0
 10  8  1  0
 11 10  1  0
 12 13  1  0
 11 12  1  6
 13 14  2  0
 14 15  1  0
 16 15  1  0
 17 13  1  0
 17 16  2  0
 18 11  1  0
 19 18  2  0
 20 18  1  0
M  END
$$$$
