GAH.pdb
     RDKit          3D

 20 20  0  0  1  0  0  0  0  0999 V2000
   10.4291  -17.1161   14.5738 N   0  0  0  0  0  0  0  0  0  0  0  0
   11.3247  -17.6177   15.5684 C   0  0  0  0  0  0  0  0  0  0  0  0
   10.6536  -17.7698   16.9026 C   0  0  0  0  0  0  0  0  0  0  0  0
    9.5142  -17.3121   17.1430 O   0  0  0  0  0  0  0  0  0  0  0  0
   11.5464  -19.8299   19.8671 C   0  0  0  0  0  0  0  0  0  0  0  0
   10.8302  -18.6169   19.2663 C   0  0  2  0  0  0  0  0  0  0  0  0
   11.3212  -18.4536   17.9372 N   0  0  0  0  0  0  0  0  0  0  0  0
   10.9434  -17.4431   20.1154 C   0  0  0  0  0  0  0  0  0  0  0  0
   11.9497  -16.7066   20.0484 O   0  0  0  0  0  0  0  0  0  0  0  0
    9.9134  -17.1222   21.0280 N   0  0  0  0  0  0  0  0  0  0  0  0
    9.9641  -15.9430   21.8912 C   0  0  1  0  0  0  0  0  0  0  0  0
    8.6373  -15.2142   21.8696 C   0  0  0  0  0  0  0  0  0  0  0  0
    8.4450  -14.4783   20.5974 C   0  0  0  0  0  0  0  0  0  0  0  0
    9.3756  -14.3403   19.5632 C   0  0  0  0  0  0  0  0  0  0  0  0
    8.8508  -13.6060   18.5677 N   0  0  0  0  0  0  0  0  0  0  0  0
    7.6004  -13.2746   18.9528 C   0  0  0  0  0  0  0  0  0  0  0  0
    7.3579  -13.7964   20.1665 N   0  0  0  0  0  0  0  0  0  0  0  0
   10.3867  -16.2971   23.2578 C   0  0  0  0  0  0  0  0  0  0  0  0
   10.6285  -15.4417   24.1423 O   0  0  0  0  0  0  0  0  0  0  0  0
   10.5428  -17.6391   23.6449 O   0  0  0  0  0  0  0  0  0  0  0  0
  2  1  1  0
  3  2  1  0
  4  3  2  0
  6  5  1  1
  6  7  1  0
  7  3  1  0
  8  6  1  0
  8  9  2  0
 10  8  1  0
 11 10  1  0
 12 13  1  0
 11 12  1  1
 13 14  2  0
 14 15  1  0
 16 15  1  0
 17 13  1  0
 17 16  2  0
 18 11  1  0
 19 18  2  0
 20 18  1  0
M  END
$$$$
