GAH.pdb
     RDKit          3D

 20 20  0  0  1  0  0  0  0  0999 V2000
    6.0492  -19.2063   21.0080 N   0  0  0  0  0  0  0  0  0  0  0  0
    5.8510  -17.9175   21.5933 C   0  0  0  0  0  0  0  0  0  0  0  0
    7.1106  -17.1008   21.5920 C   0  0  0  0  0  0  0  0  0  0  0  0
    8.2344  -17.5906   21.3417 O   0  0  0  0  0  0  0  0  0  0  0  0
    7.6585  -13.4318   21.7035 C   0  0  0  0  0  0  0  0  0  0  0  0
    8.1620  -14.8490   21.9920 C   0  0  2  0  0  0  0  0  0  0  0  0
    7.0413  -15.7244   21.8828 N   0  0  0  0  0  0  0  0  0  0  0  0
    8.8839  -14.9237   23.2509 C   0  0  0  0  0  0  0  0  0  0  0  0
    9.9483  -14.2904   23.4103 O   0  0  0  0  0  0  0  0  0  0  0  0
    8.3876  -15.7159   24.3107 N   0  0  0  0  0  0  0  0  0  0  0  0
    8.9739  -15.6976   25.6501 C   0  0  1  0  0  0  0  0  0  0  0  0
    7.8961  -15.5109   26.6967 C   0  0  0  0  0  0  0  0  0  0  0  0
    7.1738  -14.2306   26.5069 C   0  0  0  0  0  0  0  0  0  0  0  0
    7.6910  -12.9445   26.6888 C   0  0  0  0  0  0  0  0  0  0  0  0
    6.7454  -12.0271   26.4244 N   0  0  0  0  0  0  0  0  0  0  0  0
    5.6342  -12.7100   26.0769 C   0  0  0  0  0  0  0  0  0  0  0  0
    5.8905  -14.0276   26.1263 N   0  0  0  0  0  0  0  0  0  0  0  0
    9.7897  -16.9002   25.8943 C   0  0  0  0  0  0  0  0  0  0  0  0
    9.9184  -17.8219   25.0538 O   0  0  0  0  0  0  0  0  0  0  0  0
   10.4781  -17.0769   27.1068 O   0  0  0  0  0  0  0  0  0  0  0  0
  2  1  1  0
  3  2  1  0
  4  3  2  0
  6  5  1  1
  6  7  1  0
  7  3  1  0
  8  6  1  0
  8  9  2  0
 10  8  1  0
 11 10  1  0
 12 13  1  0
 11 12  1  1
 13 14  2  0
 14 15  1  0
 16 15  1  0
 17 13  1  0
 17 16  2  0
 18 11  1  0
 19 18  2  0
 20 18  1  0
M  END
$$$$
