GAH.pdb
     RDKit          3D

 20 20  0  0  1  0  0  0  0  0999 V2000
    6.7416  -17.9046   17.7529 N   0  0  0  0  0  0  0  0  0  0  0  0
    6.5720  -17.0867   18.9127 C   0  0  0  0  0  0  0  0  0  0  0  0
    7.7507  -16.1856   19.1413 C   0  0  0  0  0  0  0  0  0  0  0  0
    8.9333  -16.5707   19.0049 O   0  0  0  0  0  0  0  0  0  0  0  0
    7.9393  -12.5149   19.7702 C   0  0  0  0  0  0  0  0  0  0  0  0
    8.5546  -13.9138   19.8685 C   0  0  2  0  0  0  0  0  0  0  0  0
    7.5330  -14.8482   19.5259 N   0  0  0  0  0  0  0  0  0  0  0  0
    9.1911  -14.1386   21.1553 C   0  0  0  0  0  0  0  0  0  0  0  0
   10.1840  -13.4632   21.4984 O   0  0  0  0  0  0  0  0  0  0  0  0
    8.6920  -15.1263   22.0340 N   0  0  0  0  0  0  0  0  0  0  0  0
    9.1977  -15.2988   23.3951 C   0  0  1  0  0  0  0  0  0  0  0  0
    8.0793  -15.7171   24.3258 C   0  0  0  0  0  0  0  0  0  0  0  0
    7.1943  -14.5749   24.6557 C   0  0  0  0  0  0  0  0  0  0  0  0
    7.3841  -13.2384   24.2915 C   0  0  0  0  0  0  0  0  0  0  0  0
    6.3784  -12.4850   24.7674 N   0  0  0  0  0  0  0  0  0  0  0  0
    5.5515  -13.3218   25.4291 C   0  0  0  0  0  0  0  0  0  0  0  0
    6.0395  -14.5714   25.3622 N   0  0  0  0  0  0  0  0  0  0  0  0
   10.3351  -16.2351   23.4295 C   0  0  0  0  0  0  0  0  0  0  0  0
   10.5788  -17.0496   22.5077 O   0  0  0  0  0  0  0  0  0  0  0  0
   11.2212  -16.2616   24.5201 O   0  0  0  0  0  0  0  0  0  0  0  0
  2  1  1  0
  3  2  1  0
  4  3  2  0
  6  5  1  1
  6  7  1  0
  7  3  1  0
  8  6  1  0
  8  9  2  0
 10  8  1  0
 11 10  1  0
 12 13  1  0
 11 12  1  1
 13 14  2  0
 14 15  1  0
 16 15  1  0
 17 13  1  0
 17 16  2  0
 18 11  1  0
 19 18  2  0
 20 18  1  0
M  END
$$$$
