GAH.pdb
     RDKit          3D

 20 20  0  0  1  0  0  0  0  0999 V2000
    8.1015  -17.2765   14.2748 N   0  0  0  0  0  0  0  0  0  0  0  0
    9.1400  -17.9658   14.9743 C   0  0  0  0  0  0  0  0  0  0  0  0
    8.9274  -17.9420   16.4602 C   0  0  0  0  0  0  0  0  0  0  0  0
    8.2388  -17.0672   17.0313 O   0  0  0  0  0  0  0  0  0  0  0  0
    9.9319  -20.4081   19.0866 C   0  0  0  0  0  0  0  0  0  0  0  0
    9.4223  -19.0227   18.6790 C   0  0  2  0  0  0  0  0  0  0  0  0
    9.5211  -18.9389   17.2586 N   0  0  0  0  0  0  0  0  0  0  0  0
   10.0932  -17.9602   19.4087 C   0  0  0  0  0  0  0  0  0  0  0  0
   11.1718  -17.4881   18.9927 O   0  0  0  0  0  0  0  0  0  0  0  0
    9.5304  -17.4489   20.5999 N   0  0  0  0  0  0  0  0  0  0  0  0
   10.1039  -16.3114   21.3177 C   0  0  1  0  0  0  0  0  0  0  0  0
    9.0181  -15.3329   21.7121 C   0  0  0  0  0  0  0  0  0  0  0  0
    8.4866  -14.6104   20.5321 C   0  0  0  0  0  0  0  0  0  0  0  0
    8.9531  -14.7005   19.2172 C   0  0  0  0  0  0  0  0  0  0  0  0
    8.2276  -13.9017   18.4164 N   0  0  0  0  0  0  0  0  0  0  0  0
    7.3066  -13.3046   19.2018 C   0  0  0  0  0  0  0  0  0  0  0  0
    7.4616  -13.7285   20.4669 N   0  0  0  0  0  0  0  0  0  0  0  0
   10.9047  -16.7552   22.4725 C   0  0  0  0  0  0  0  0  0  0  0  0
   10.6815  -17.8237   23.0896 O   0  0  0  0  0  0  0  0  0  0  0  0
   11.9804  -15.9862   22.9488 O   0  0  0  0  0  0  0  0  0  0  0  0
  2  1  1  0
  3  2  1  0
  4  3  2  0
  6  5  1  1
  6  7  1  0
  7  3  1  0
  8  6  1  0
  8  9  2  0
 10  8  1  0
 11 10  1  0
 12 13  1  0
 11 12  1  1
 13 14  2  0
 14 15  1  0
 16 15  1  0
 17 13  1  0
 17 16  2  0
 18 11  1  0
 19 18  2  0
 20 18  1  0
M  END
$$$$
