RTG.pdb
     RDKit          3D

 23 22  0  0  1  0  0  0  0  0999 V2000
   16.5654  -23.9203   -8.4199 N   0  0  0  0  0  0  0  0  0  0  0  0
   17.7444  -24.6904   -8.6463 C   0  0  0  0  0  0  0  0  0  0  0  0
   18.5937  -24.9277   -7.6870 N   0  0  0  0  0  0  0  0  0  0  0  0
   18.0624  -25.2393   -9.9139 N   0  0  0  0  0  0  0  0  0  0  0  0
   18.5538  -24.4526  -11.0289 C   0  0  0  0  0  0  0  0  0  0  0  0
   19.3598  -23.2827  -10.5449 C   0  0  0  0  0  0  0  0  0  0  0  0
   20.0774  -22.5169  -11.5914 C   0  0  0  0  0  0  0  0  0  0  0  0
   19.4079  -22.4514  -12.9338 C   0  0  2  0  0  0  0  0  0  0  0  0
   19.2350  -23.7229  -13.5798 N   0  0  0  0  0  0  0  0  0  0  0  0
   20.1034  -21.5389  -13.8688 C   0  0  0  0  0  0  0  0  0  0  0  0
   20.7253  -22.0164  -14.8390 O   0  0  0  0  0  0  0  0  0  0  0  0
   19.4580  -25.4581   -7.9285 C   0  0  0  0  0  0  0  0  0  0  0  0
   20.5951  -16.9665  -15.6010 C   0  0  2  0  0  0  0  0  0  0  0  0
   19.9868  -17.8856  -14.5383 O   0  0  0  0  0  0  0  0  0  0  0  0
   18.6269  -18.0143  -14.6967 C   0  0  1  0  0  0  0  0  0  0  0  0
   20.6883  -19.2188  -14.6871 N   0  0  0  0  0  0  0  0  0  0  0  0
   20.0941  -20.1214  -13.7078 C   0  0  0  0  0  0  0  0  0  0  0  0
   22.1551  -19.1087  -14.4991 O   0  0  0  0  0  0  0  0  0  0  0  0
   22.5571  -18.8100  -13.3451 N   0  0  0  0  0  0  0  0  0  0  0  0
   23.1049  -19.3141  -15.5140 C   0  0  0  0  0  0  0  0  0  0  0  0
   24.5426  -19.2034  -15.2427 C   0  0  0  0  0  0  0  0  0  0  0  0
   25.2661  -18.9212  -16.4939 O   0  0  0  0  0  0  0  0  0  0  0  0
   24.6178  -18.8837  -17.5704 O   0  0  0  0  0  0  0  0  0  0  0  0
  2  1  1  0
  2  3  2  0
  4  2  1  0
  5  4  1  0
  6  5  1  0
  7  8  1  0
  7  6  1  0
  8 10  1  0
  8  9  1  6
 10 11  2  0
 10 16  1  0
 13 12  1  1
 14 13  1  0
 15 17  1  0
 15 13  1  0
 15 16  1  1
 17 18  2  0
 19 20  1  0
 19 17  1  0
 20 21  1  0
 21 22  2  0
 21 23  1  0
M  END
$$$$
