RTG.pdb
     RDKit          3D

 23 22  0  0  1  0  0  0  0  0999 V2000
   21.2463  -21.7845   -8.5639 N   0  0  0  0  0  0  0  0  0  0  0  0
   22.5467  -21.2918   -8.2463 C   0  0  0  0  0  0  0  0  0  0  0  0
   23.3021  -21.8890   -7.3685 N   0  0  0  0  0  0  0  0  0  0  0  0
   23.0922  -20.1355   -8.8584 N   0  0  0  0  0  0  0  0  0  0  0  0
   23.4484  -20.0627  -10.2624 C   0  0  0  0  0  0  0  0  0  0  0  0
   24.1450  -21.3168  -10.7039 C   0  0  0  0  0  0  0  0  0  0  0  0
   24.5280  -21.3721  -12.1345 C   0  0  0  0  0  0  0  0  0  0  0  0
   23.5553  -20.7585  -13.0999 C   0  0  2  0  0  0  0  0  0  0  0  0
   22.2973  -21.4448  -13.2006 N   0  0  0  0  0  0  0  0  0  0  0  0
   24.1227  -20.6134  -14.4591 C   0  0  0  0  0  0  0  0  0  0  0  0
   24.0553  -21.5720  -15.2545 O   0  0  0  0  0  0  0  0  0  0  0  0
   24.2558  -21.4997   -7.2087 C   0  0  0  0  0  0  0  0  0  0  0  0
   23.9663  -17.3882  -16.6979 C   0  0  2  0  0  0  0  0  0  0  0  0
   25.4261  -17.8282  -16.5585 O   0  0  0  0  0  0  0  0  0  0  0  0
   26.0849  -17.1033  -15.5933 C   0  0  2  0  0  0  0  0  0  0  0  0
   25.3877  -19.3014  -16.2120 N   0  0  0  0  0  0  0  0  0  0  0  0
   24.7503  -19.4124  -14.9051 C   0  0  0  0  0  0  0  0  0  0  0  0
   26.7375  -19.9155  -16.2080 O   0  0  0  0  0  0  0  0  0  0  0  0
   27.3137  -20.0087  -15.0936 N   0  0  0  0  0  0  0  0  0  0  0  0
   27.3989  -20.3905  -17.3531 C   0  0  0  0  0  0  0  0  0  0  0  0
   28.7531  -20.9493  -17.2714 C   0  0  0  0  0  0  0  0  0  0  0  0
   28.7466  -22.3440  -17.7441 O   0  0  0  0  0  0  0  0  0  0  0  0
   27.6470  -22.8738  -18.0453 O   0  0  0  0  0  0  0  0  0  0  0  0
  2  1  1  0
  2  3  2  0
  4  2  1  0
  5  4  1  0
  6  5  1  0
  7  8  1  0
  7  6  1  0
  8 10  1  0
  8  9  1  6
 10 11  2  0
 10 16  1  0
 13 12  1  6
 14 13  1  0
 15 17  1  0
 15 13  1  0
 15 16  1  6
 17 18  2  0
 19 20  1  0
 19 17  1  0
 20 21  1  0
 21 22  2  0
 21 23  1  0
M  END
$$$$
