RTG.pdb
     RDKit          3D

 23 22  0  0  1  0  0  0  0  0999 V2000
   16.5667  -29.7429   -6.0223 N   0  0  0  0  0  0  0  0  0  0  0  0
   16.9196  -29.1504   -4.7737 C   0  0  0  0  0  0  0  0  0  0  0  0
   17.2496  -29.8806   -3.7462 N   0  0  0  0  0  0  0  0  0  0  0  0
   16.9332  -27.7470   -4.5748 N   0  0  0  0  0  0  0  0  0  0  0  0
   16.7755  -26.7828   -5.6466 C   0  0  0  0  0  0  0  0  0  0  0  0
   17.6526  -27.1310   -6.8137 C   0  0  0  0  0  0  0  0  0  0  0  0
   17.4886  -26.2842   -8.0189 C   0  0  0  0  0  0  0  0  0  0  0  0
   18.5483  -25.2437   -8.2406 C   0  0  2  0  0  0  0  0  0  0  0  0
   18.9790  -24.5640   -7.0505 N   0  0  0  0  0  0  0  0  0  0  0  0
   18.1457  -24.2309   -9.2419 C   0  0  0  0  0  0  0  0  0  0  0  0
   17.6110  -23.1713   -8.8578 O   0  0  0  0  0  0  0  0  0  0  0  0
   17.4406  -29.3892   -2.8469 C   0  0  0  0  0  0  0  0  0  0  0  0
   20.0650  -22.1645  -11.2887 C   0  0  2  0  0  0  0  0  0  0  0  0
   19.2776  -22.9864  -12.3127 O   0  0  0  0  0  0  0  0  0  0  0  0
   19.9887  -24.0841  -12.7374 C   0  0  2  0  0  0  0  0  0  0  0  0
   17.9930  -23.3940  -11.6232 N   0  0  0  0  0  0  0  0  0  0  0  0
   18.3443  -24.4146  -10.6426 C   0  0  0  0  0  0  0  0  0  0  0  0
   16.9733  -23.8913  -12.5781 O   0  0  0  0  0  0  0  0  0  0  0  0
   16.5885  -25.0795  -12.4274 N   0  0  0  0  0  0  0  0  0  0  0  0
   16.4216  -23.1290  -13.6216 C   0  0  0  0  0  0  0  0  0  0  0  0
   15.4190  -23.6973  -14.5296 C   0  0  0  0  0  0  0  0  0  0  0  0
   14.1420  -22.9804  -14.3743 O   0  0  0  0  0  0  0  0  0  0  0  0
   13.9041  -22.4010  -13.2843 O   0  0  0  0  0  0  0  0  0  0  0  0
  2  1  1  0
  2  3  2  0
  4  2  1  0
  5  4  1  0
  6  5  1  0
  7  8  1  0
  7  6  1  0
  8 10  1  0
  8  9  1  1
 10 11  2  0
 10 16  1  0
 13 12  1  6
 14 13  1  0
 15 17  1  0
 15 13  1  0
 15 16  1  6
 17 18  2  0
 19 20  1  0
 19 17  1  0
 20 21  1  0
 21 22  2  0
 21 23  1  0
M  END
$$$$
