RTG.pdb
     RDKit          3D

 23 22  0  0  1  0  0  0  0  0999 V2000
   25.6144  -20.8087   -9.7072 N   0  0  0  0  0  0  0  0  0  0  0  0
   24.2064  -20.9237   -9.5103 C   0  0  0  0  0  0  0  0  0  0  0  0
   23.6912  -20.9761   -8.3146 N   0  0  0  0  0  0  0  0  0  0  0  0
   23.2902  -20.9875  -10.5901 N   0  0  0  0  0  0  0  0  0  0  0  0
   23.3972  -20.1695  -11.7829 C   0  0  0  0  0  0  0  0  0  0  0  0
   24.3239  -20.7981  -12.7823 C   0  0  0  0  0  0  0  0  0  0  0  0
   23.8781  -20.7493  -14.1948 C   0  0  0  0  0  0  0  0  0  0  0  0
   22.8301  -19.7238  -14.5185 C   0  0  2  0  0  0  0  0  0  0  0  0
   21.4905  -20.2377  -14.5890 N   0  0  0  0  0  0  0  0  0  0  0  0
   23.1212  -18.9943  -15.7729 C   0  0  0  0  0  0  0  0  0  0  0  0
   22.1976  -18.7811  -16.5839 O   0  0  0  0  0  0  0  0  0  0  0  0
   22.6528  -21.0281   -8.2389 C   0  0  0  0  0  0  0  0  0  0  0  0
   22.4117  -16.9150  -17.0950 C   0  0  2  0  0  0  0  0  0  0  0  0
   23.8723  -16.4644  -17.1830 O   0  0  0  0  0  0  0  0  0  0  0  0
   24.2420  -15.7235  -16.0850 C   0  0  2  0  0  0  0  0  0  0  0  0
   24.6945  -17.7303  -17.2968 N   0  0  0  0  0  0  0  0  0  0  0  0
   24.4259  -18.5185  -16.0995 C   0  0  0  0  0  0  0  0  0  0  0  0
   26.1433  -17.4509  -17.4451 O   0  0  0  0  0  0  0  0  0  0  0  0
   26.8640  -17.6461  -16.4326 N   0  0  0  0  0  0  0  0  0  0  0  0
   26.7477  -16.9898  -18.6267 C   0  0  0  0  0  0  0  0  0  0  0  0
   28.1891  -16.7229  -18.6886 C   0  0  0  0  0  0  0  0  0  0  0  0
   28.8988  -17.9234  -19.1616 O   0  0  0  0  0  0  0  0  0  0  0  0
   28.2363  -18.9694  -19.3794 O   0  0  0  0  0  0  0  0  0  0  0  0
  2  1  1  0
  2  3  2  0
  4  2  1  0
  5  4  1  0
  6  5  1  0
  7  8  1  0
  7  6  1  0
  8 10  1  0
  8  9  1  6
 10 11  2  0
 10 16  1  0
 13 12  1  6
 14 13  1  0
 15 17  1  0
 15 13  1  0
 15 16  1  6
 17 18  2  0
 19 20  1  0
 19 17  1  0
 20 21  1  0
 21 22  2  0
 21 23  1  0
M  END
$$$$
