RTG.pdb
     RDKit          3D

 23 22  0  0  1  0  0  0  0  0999 V2000
   20.5585  -22.5244   -9.4041 N   0  0  0  0  0  0  0  0  0  0  0  0
   21.0025  -22.3922   -8.0551 C   0  0  0  0  0  0  0  0  0  0  0  0
   20.4091  -23.0227   -7.0813 N   0  0  0  0  0  0  0  0  0  0  0  0
   22.1039  -21.5765   -7.6935 N   0  0  0  0  0  0  0  0  0  0  0  0
   22.9118  -20.8475   -8.6523 C   0  0  0  0  0  0  0  0  0  0  0  0
   24.3191  -21.3688   -8.6731 C   0  0  0  0  0  0  0  0  0  0  0  0
   25.2492  -20.6775   -9.5969 C   0  0  0  0  0  0  0  0  0  0  0  0
   24.9572  -20.8323  -11.0617 C   0  0  2  0  0  0  0  0  0  0  0  0
   25.4124  -22.0678  -11.6361 N   0  0  0  0  0  0  0  0  0  0  0  0
   25.4943  -19.7125  -11.8668 C   0  0  0  0  0  0  0  0  0  0  0  0
   25.4584  -18.5549  -11.4034 O   0  0  0  0  0  0  0  0  0  0  0  0
   20.7863  -22.8878   -6.1189 C   0  0  0  0  0  0  0  0  0  0  0  0
   28.7189  -19.5362  -13.4553 C   0  0  2  0  0  0  0  0  0  0  0  0
   27.7998  -19.1692  -14.6235 O   0  0  0  0  0  0  0  0  0  0  0  0
   27.6582  -20.2144  -15.5058 C   0  0  2  0  0  0  0  0  0  0  0  0
   26.4722  -18.7844  -14.0062 N   0  0  0  0  0  0  0  0  0  0  0  0
   26.0576  -19.9005  -13.1640 C   0  0  0  0  0  0  0  0  0  0  0  0
   25.4450  -18.4690  -15.0282 O   0  0  0  0  0  0  0  0  0  0  0  0
   24.6565  -19.3971  -15.3435 N   0  0  0  0  0  0  0  0  0  0  0  0
   25.3025  -17.2189  -15.6535 C   0  0  0  0  0  0  0  0  0  0  0  0
   24.2116  -16.9632  -16.6008 C   0  0  0  0  0  0  0  0  0  0  0  0
   24.7330  -16.9784  -17.9780 O   0  0  0  0  0  0  0  0  0  0  0  0
   25.6579  -17.7803  -18.2642 O   0  0  0  0  0  0  0  0  0  0  0  0
  2  1  1  0
  2  3  2  0
  4  2  1  0
  5  4  1  0
  6  5  1  0
  7  8  1  0
  7  6  1  0
  8 10  1  0
  8  9  1  6
 10 11  2  0
 10 16  1  0
 13 12  1  6
 14 13  1  0
 15 17  1  0
 15 13  1  0
 15 16  1  6
 17 18  2  0
 19 20  1  0
 19 17  1  0
 20 21  1  0
 21 22  2  0
 21 23  1  0
M  END
$$$$
