RTG.pdb
     RDKit          3D

 23 22  0  0  1  0  0  0  0  0999 V2000
   23.9415  -21.2020   -8.8792 N   0  0  0  0  0  0  0  0  0  0  0  0
   25.1966  -20.8701   -8.2885 C   0  0  0  0  0  0  0  0  0  0  0  0
   25.3908  -20.9769   -7.0045 N   0  0  0  0  0  0  0  0  0  0  0  0
   26.2981  -20.4086   -9.0521 N   0  0  0  0  0  0  0  0  0  0  0  0
   26.1925  -19.9736  -10.4316 C   0  0  0  0  0  0  0  0  0  0  0  0
   26.3886  -21.1259  -11.3731 C   0  0  0  0  0  0  0  0  0  0  0  0
   26.3635  -20.7907  -12.8165 C   0  0  0  0  0  0  0  0  0  0  0  0
   25.0260  -20.4034  -13.3785 C   0  0  2  0  0  0  0  0  0  0  0  0
   24.0246  -21.4307  -13.3043 N   0  0  0  0  0  0  0  0  0  0  0  0
   25.1157  -19.9334  -14.7791 C   0  0  0  0  0  0  0  0  0  0  0  0
   25.7484  -20.6130  -15.6120 O   0  0  0  0  0  0  0  0  0  0  0  0
   26.3344  -20.7288   -6.6373 C   0  0  0  0  0  0  0  0  0  0  0  0
   22.8160  -19.6009  -17.3822 C   0  0  2  0  0  0  0  0  0  0  0  0
   23.2684  -18.1515  -17.1852 O   0  0  0  0  0  0  0  0  0  0  0  0
   22.4059  -17.4569  -16.3700 C   0  0  2  0  0  0  0  0  0  0  0  0
   24.6564  -18.2244  -16.5854 N   0  0  0  0  0  0  0  0  0  0  0  0
   24.5036  -18.7239  -15.2239 C   0  0  0  0  0  0  0  0  0  0  0  0
   25.3489  -16.9132  -16.6046 O   0  0  0  0  0  0  0  0  0  0  0  0
   25.7142  -16.4823  -17.7286 N   0  0  0  0  0  0  0  0  0  0  0  0
   25.6164  -16.1380  -15.4636 C   0  0  0  0  0  0  0  0  0  0  0  0
   26.4046  -14.9036  -15.5515 C   0  0  0  0  0  0  0  0  0  0  0  0
   25.5591  -13.8063  -16.0511 O   0  0  0  0  0  0  0  0  0  0  0  0
   24.4116  -14.0790  -16.4862 O   0  0  0  0  0  0  0  0  0  0  0  0
  2  1  1  0
  2  3  2  0
  4  2  1  0
  5  4  1  0
  6  5  1  0
  7  8  1  0
  7  6  1  0
  8 10  1  0
  8  9  1  6
 10 11  2  0
 10 16  1  0
 13 12  1  6
 14 13  1  0
 15 17  1  0
 15 13  1  0
 15 16  1  6
 17 18  2  0
 19 20  1  0
 19 17  1  0
 20 21  1  0
 21 22  2  0
 21 23  1  0
M  END
$$$$
