RTG.pdb
     RDKit          3D

 23 22  0  0  1  0  0  0  0  0999 V2000
   14.9538  -21.7864   -9.7071 N   0  0  0  0  0  0  0  0  0  0  0  0
   14.9205  -23.2021   -9.8776 C   0  0  0  0  0  0  0  0  0  0  0  0
   13.8094  -23.8729   -9.7614 N   0  0  0  0  0  0  0  0  0  0  0  0
   16.0800  -23.9591  -10.1807 N   0  0  0  0  0  0  0  0  0  0  0  0
   17.4083  -23.3862  -10.2837 C   0  0  0  0  0  0  0  0  0  0  0  0
   17.7810  -23.1523  -11.7186 C   0  0  0  0  0  0  0  0  0  0  0  0
   19.1606  -22.6654  -11.9555 C   0  0  0  0  0  0  0  0  0  0  0  0
   19.5755  -22.5385  -13.3930 C   0  0  2  0  0  0  0  0  0  0  0  0
   19.4213  -23.7375  -14.1692 N   0  0  0  0  0  0  0  0  0  0  0  0
   20.9678  -22.0585  -13.5395 C   0  0  0  0  0  0  0  0  0  0  0  0
   21.9108  -22.8225  -13.2511 O   0  0  0  0  0  0  0  0  0  0  0  0
   13.8673  -24.9128   -9.8041 C   0  0  0  0  0  0  0  0  0  0  0  0
   23.1500  -22.6587  -14.4169 C   0  0  2  0  0  0  0  0  0  0  0  0
   23.3386  -21.2939  -15.0846 O   0  0  0  0  0  0  0  0  0  0  0  0
   22.8069  -21.2713  -16.3526 C   0  0  2  0  0  0  0  0  0  0  0  0
   22.6559  -20.2886  -14.1819 N   0  0  0  0  0  0  0  0  0  0  0  0
   21.2830  -20.7459  -14.0011 C   0  0  0  0  0  0  0  0  0  0  0  0
   22.6982  -18.9134  -14.7351 O   0  0  0  0  0  0  0  0  0  0  0  0
   21.7606  -18.5845  -15.5066 N   0  0  0  0  0  0  0  0  0  0  0  0
   23.7041  -17.9735  -14.4542 C   0  0  0  0  0  0  0  0  0  0  0  0
   23.6046  -16.5892  -14.9302 C   0  0  0  0  0  0  0  0  0  0  0  0
   24.2777  -16.4603  -16.2337 O   0  0  0  0  0  0  0  0  0  0  0  0
   24.5524  -17.5050  -16.8768 O   0  0  0  0  0  0  0  0  0  0  0  0
  2  1  1  0
  2  3  2  0
  4  2  1  0
  5  4  1  0
  6  5  1  0
  7  8  1  0
  7  6  1  0
  8 10  1  0
  8  9  1  1
 10 11  2  0
 10 16  1  0
 13 12  1  6
 14 13  1  0
 15 17  1  0
 15 13  1  0
 15 16  1  1
 17 18  2  0
 19 20  1  0
 19 17  1  0
 20 21  1  0
 21 22  2  0
 21 23  1  0
M  END
$$$$
