RTG.pdb
     RDKit          3D

 23 22  0  0  1  0  0  0  0  0999 V2000
   26.5505  -17.1260  -15.8866 N   0  0  0  0  0  0  0  0  0  0  0  0
   25.3129  -17.5525  -15.3201 C   0  0  0  0  0  0  0  0  0  0  0  0
   25.2340  -18.6371  -14.6022 N   0  0  0  0  0  0  0  0  0  0  0  0
   24.1056  -16.8319  -15.5004 N   0  0  0  0  0  0  0  0  0  0  0  0
   24.0507  -15.4665  -15.9862 C   0  0  0  0  0  0  0  0  0  0  0  0
   24.4079  -14.4962  -14.8982 C   0  0  0  0  0  0  0  0  0  0  0  0
   24.1684  -13.0662  -15.2053 C   0  0  0  0  0  0  0  0  0  0  0  0
   22.8330  -12.7379  -15.8083 C   0  0  2  0  0  0  0  0  0  0  0  0
   22.5095  -13.4860  -16.9913 N   0  0  0  0  0  0  0  0  0  0  0  0
   22.6872  -11.2959  -16.1085 C   0  0  0  0  0  0  0  0  0  0  0  0
   23.4125  -10.7773  -16.9809 O   0  0  0  0  0  0  0  0  0  0  0  0
   24.3185  -18.8522  -14.1527 C   0  0  0  0  0  0  0  0  0  0  0  0
   20.0433   -9.7605  -17.5908 C   0  0  2  0  0  0  0  0  0  0  0  0
   20.1093   -8.9486  -16.2944 O   0  0  0  0  0  0  0  0  0  0  0  0
   19.2140   -9.4119  -15.3591 C   0  0  2  0  0  0  0  0  0  0  0  0
   21.5350   -9.0663  -15.7993 N   0  0  0  0  0  0  0  0  0  0  0  0
   21.7433  -10.4634  -15.4368 C   0  0  0  0  0  0  0  0  0  0  0  0
   21.8110   -8.1649  -14.6545 O   0  0  0  0  0  0  0  0  0  0  0  0
   22.0096   -8.7113  -13.5389 N   0  0  0  0  0  0  0  0  0  0  0  0
   21.8630   -6.7634  -14.7400 C   0  0  0  0  0  0  0  0  0  0  0  0
   22.0919   -5.9376  -13.5490 C   0  0  0  0  0  0  0  0  0  0  0  0
   22.0535   -4.5119  -13.9156 O   0  0  0  0  0  0  0  0  0  0  0  0
   21.9077   -4.2038  -15.1256 O   0  0  0  0  0  0  0  0  0  0  0  0
  2  1  1  0
  2  3  2  0
  4  2  1  0
  5  4  1  0
  6  5  1  0
  7  8  1  0
  7  6  1  0
  8 10  1  0
  8  9  1  6
 10 11  2  0
 10 16  1  0
 13 12  1  6
 14 13  1  0
 15 17  1  0
 15 13  1  0
 15 16  1  6
 17 18  2  0
 19 20  1  0
 19 17  1  0
 20 21  1  0
 21 22  2  0
 21 23  1  0
M  END
$$$$
