RTG.pdb
     RDKit          3D

 23 22  0  0  1  0  0  0  0  0999 V2000
   27.3961  -20.1908  -19.5803 N   0  0  0  0  0  0  0  0  0  0  0  0
   28.8094  -20.0163  -19.6615 C   0  0  0  0  0  0  0  0  0  0  0  0
   29.3807  -19.6142  -20.7614 N   0  0  0  0  0  0  0  0  0  0  0  0
   29.6708  -20.2663  -18.5638 N   0  0  0  0  0  0  0  0  0  0  0  0
   29.3786  -21.2262  -17.5166 C   0  0  0  0  0  0  0  0  0  0  0  0
   28.1700  -22.0458  -17.8633 C   0  0  0  0  0  0  0  0  0  0  0  0
   26.9904  -21.8582  -16.9859 C   0  0  0  0  0  0  0  0  0  0  0  0
   26.9131  -22.7583  -15.7866 C   0  0  2  0  0  0  0  0  0  0  0  0
   27.3550  -24.1054  -16.0188 N   0  0  0  0  0  0  0  0  0  0  0  0
   25.5552  -22.8028  -15.1994 C   0  0  0  0  0  0  0  0  0  0  0  0
   24.7809  -23.7265  -15.5207 O   0  0  0  0  0  0  0  0  0  0  0  0
   30.4210  -19.5482  -20.7681 C   0  0  0  0  0  0  0  0  0  0  0  0
   24.9667  -23.0739  -11.8147 C   0  0  2  0  0  0  0  0  0  0  0  0
   24.0529  -21.8842  -12.1209 O   0  0  0  0  0  0  0  0  0  0  0  0
   24.6298  -20.6923  -11.7497 C   0  0  2  0  0  0  0  0  0  0  0  0
   23.7914  -21.9303  -13.6112 N   0  0  0  0  0  0  0  0  0  0  0  0
   25.0873  -21.8251  -14.2718 C   0  0  0  0  0  0  0  0  0  0  0  0
   22.8703  -20.8566  -14.0559 O   0  0  0  0  0  0  0  0  0  0  0  0
   23.3696  -19.7134  -14.2176 N   0  0  0  0  0  0  0  0  0  0  0  0
   21.4989  -21.0367  -14.3029 C   0  0  0  0  0  0  0  0  0  0  0  0
   20.6407  -19.9087  -14.6824 C   0  0  0  0  0  0  0  0  0  0  0  0
   19.2844  -20.1110  -14.1456 O   0  0  0  0  0  0  0  0  0  0  0  0
   19.0398  -21.1653  -13.5060 O   0  0  0  0  0  0  0  0  0  0  0  0
  2  1  1  0
  2  3  2  0
  4  2  1  0
  5  4  1  0
  6  5  1  0
  7  8  1  0
  7  6  1  0
  8 10  1  0
  8  9  1  6
 10 11  2  0
 10 16  1  0
 13 12  1  1
 14 13  1  0
 15 17  1  0
 15 13  1  0
 15 16  1  6
 17 18  2  0
 19 20  1  0
 19 17  1  0
 20 21  1  0
 21 22  2  0
 21 23  1  0
M  END
$$$$
