RTG.pdb
     RDKit          3D

 23 22  0  0  1  0  0  0  0  0999 V2000
   25.5894  -20.1293   -5.1136 N   0  0  0  0  0  0  0  0  0  0  0  0
   26.8502  -19.7088   -5.6315 C   0  0  0  0  0  0  0  0  0  0  0  0
   27.1972  -18.4529   -5.6340 N   0  0  0  0  0  0  0  0  0  0  0  0
   27.7933  -20.6200   -6.1696 N   0  0  0  0  0  0  0  0  0  0  0  0
   27.7293  -21.1352   -7.5238 C   0  0  0  0  0  0  0  0  0  0  0  0
   27.2698  -20.0733   -8.4798 C   0  0  0  0  0  0  0  0  0  0  0  0
   27.1943  -20.4766   -9.9039 C   0  0  0  0  0  0  0  0  0  0  0  0
   25.8277  -20.8308  -10.4155 C   0  0  2  0  0  0  0  0  0  0  0  0
   25.3069  -22.0751   -9.9214 N   0  0  0  0  0  0  0  0  0  0  0  0
   25.7642  -20.8477  -11.8941 C   0  0  0  0  0  0  0  0  0  0  0  0
   25.9922  -21.9122  -12.5031 O   0  0  0  0  0  0  0  0  0  0  0  0
   28.1250  -18.2099   -6.0425 C   0  0  0  0  0  0  0  0  0  0  0  0
   24.0536  -19.3901  -16.0901 C   0  0  2  0  0  0  0  0  0  0  0  0
   24.0464  -19.3300  -14.5602 O   0  0  0  0  0  0  0  0  0  0  0  0
   23.1161  -20.1884  -14.0229 C   0  0  1  0  0  0  0  0  0  0  0  0
   25.4493  -19.6913  -14.1208 N   0  0  0  0  0  0  0  0  0  0  0  0
   25.4503  -19.6874  -12.6625 C   0  0  0  0  0  0  0  0  0  0  0  0
   26.4680  -18.7604  -14.6637 O   0  0  0  0  0  0  0  0  0  0  0  0
   26.5097  -17.6094  -14.1577 N   0  0  0  0  0  0  0  0  0  0  0  0
   27.3723  -19.0811  -15.6901 C   0  0  0  0  0  0  0  0  0  0  0  0
   28.4348  -18.1495  -16.0851 C   0  0  0  0  0  0  0  0  0  0  0  0
   28.1266  -17.5715  -17.4039 O   0  0  0  0  0  0  0  0  0  0  0  0
   27.0777  -17.9372  -17.9928 O   0  0  0  0  0  0  0  0  0  0  0  0
  2  1  1  0
  2  3  2  0
  4  2  1  0
  5  4  1  0
  6  5  1  0
  7  8  1  0
  7  6  1  0
  8 10  1  0
  8  9  1  1
 10 11  2  0
 10 16  1  0
 13 12  1  6
 14 13  1  0
 15 17  1  0
 15 13  1  0
 15 16  1  1
 17 18  2  0
 19 20  1  0
 19 17  1  0
 20 21  1  0
 21 22  2  0
 21 23  1  0
M  END
$$$$
