RGT.pdb
     RDKit          3D

 23 22  0  0  1  0  0  0  0  0999 V2000
   23.8554  -21.2552  -15.7395 N   0  0  0  0  0  0  0  0  0  0  0  0
   23.2929  -20.1678  -16.4660 C   0  0  0  0  0  0  0  0  0  0  0  0
   23.3921  -20.1526  -17.7656 N   0  0  0  0  0  0  0  0  0  0  0  0
   22.6244  -19.0922  -15.8385 N   0  0  0  0  0  0  0  0  0  0  0  0
   22.3466  -19.0576  -14.4217 C   0  0  0  0  0  0  0  0  0  0  0  0
   21.0260  -19.8241  -14.1977 C   0  0  0  0  0  0  0  0  0  0  0  0
   20.6786  -19.7005  -12.7512 C   0  0  0  0  0  0  0  0  0  0  0  0
   20.0998  -20.9569  -12.1806 C   0  0  2  0  0  0  0  0  0  0  0  0
   18.6366  -20.9105  -12.2001 N   0  0  0  0  0  0  0  0  0  0  0  0
   20.6183  -21.3054  -10.8635 C   0  0  0  0  0  0  0  0  0  0  0  0
   21.8675  -21.2876  -10.6685 O   0  0  0  0  0  0  0  0  0  0  0  0
   23.1247  -19.2926  -18.3041 N   0  0  0  0  0  0  0  0  0  0  0  0
   19.7885  -21.6733   -9.7570 C   0  0  0  0  0  0  0  0  0  0  0  0
   20.2129  -22.6945   -8.8629 C   0  0  0  0  0  0  0  0  0  0  0  0
   19.1997  -23.7687   -8.6851 O   0  0  0  0  0  0  0  0  0  0  0  0
   18.6544  -24.3774   -9.6231 C   0  0  0  0  0  0  0  0  0  0  0  0
   16.9238  -26.6863   -5.3532 C   0  0  2  0  0  0  0  0  0  0  0  0
   17.8184  -25.4982   -5.6139 O   0  0  0  0  0  0  0  0  0  0  0  0
   19.1151  -25.8610   -5.2236 C   0  0  1  0  0  0  0  0  0  0  0  0
   17.8102  -25.1060   -7.0783 N   0  0  0  0  0  0  0  0  0  0  0  0
   18.8385  -24.1147   -7.3579 C   0  0  0  0  0  0  0  0  0  0  0  0
   16.4835  -24.6577   -7.5306 O   0  0  0  0  0  0  0  0  0  0  0  0
   15.6159  -25.5534   -8.1111 O   0  0  0  0  0  0  0  0  0  0  0  0
  2  4  1  0
  2  1  1  0
  3  2  2  0
  5  4  1  0
  6  5  1  0
  7  8  1  0
  7  6  1  0
  8  9  1  1
  8 10  1  0
 10 12  1  0
 10 11  2  0
 12 13  1  0
 14 13  1  0
 14 20  1  0
 15 14  2  0
 17 16  1  1
 18 17  1  0
 19 21  1  0
 19 20  1  1
 19 17  1  0
 21 22  1  0
 23 21  2  0
M  END
$$$$
