RGT.pdb
     RDKit          3D

 23 22  0  0  1  0  0  0  0  0999 V2000
   29.7924  -22.3212   -9.5447 N   0  0  0  0  0  0  0  0  0  0  0  0
   30.8765  -22.2009  -10.4594 C   0  0  0  0  0  0  0  0  0  0  0  0
   32.0330  -22.7137  -10.1454 N   0  0  0  0  0  0  0  0  0  0  0  0
   30.7574  -21.5449  -11.7057 N   0  0  0  0  0  0  0  0  0  0  0  0
   29.5562  -21.5885  -12.5062 C   0  0  0  0  0  0  0  0  0  0  0  0
   28.6098  -20.4952  -11.9672 C   0  0  0  0  0  0  0  0  0  0  0  0
   27.3915  -20.4953  -12.8299 C   0  0  0  0  0  0  0  0  0  0  0  0
   27.6339  -19.9021  -14.1821 C   0  0  2  0  0  0  0  0  0  0  0  0
   28.1635  -18.5421  -14.0656 N   0  0  0  0  0  0  0  0  0  0  0  0
   26.4828  -19.9662  -15.0742 C   0  0  0  0  0  0  0  0  0  0  0  0
   26.0136  -21.0957  -15.3947 O   0  0  0  0  0  0  0  0  0  0  0  0
   32.8696  -22.5382  -10.7540 N   0  0  0  0  0  0  0  0  0  0  0  0
   25.8382  -18.8110  -15.6204 C   0  0  0  0  0  0  0  0  0  0  0  0
   24.6713  -18.9629  -16.4189 C   0  0  0  0  0  0  0  0  0  0  0  0
   23.4121  -18.8339  -15.6378 O   0  0  0  0  0  0  0  0  0  0  0  0
   23.3518  -18.8818  -14.3962 C   0  0  0  0  0  0  0  0  0  0  0  0
   19.5902  -18.4318  -17.8040 C   0  0  2  0  0  0  0  0  0  0  0  0
   19.9694  -17.6715  -16.5558 O   0  0  0  0  0  0  0  0  0  0  0  0
   18.7861  -17.4190  -15.8476 C   0  0  1  0  0  0  0  0  0  0  0  0
   20.9300  -18.4642  -15.6914 N   0  0  0  0  0  0  0  0  0  0  0  0
   22.2083  -18.6444  -16.3634 C   0  0  0  0  0  0  0  0  0  0  0  0
   20.3593  -19.7476  -15.2520 O   0  0  0  0  0  0  0  0  0  0  0  0
   19.4006  -19.7723  -14.2660 O   0  0  0  0  0  0  0  0  0  0  0  0
  2  4  1  0
  2  1  1  0
  3  2  2  0
  5  4  1  0
  6  5  1  0
  7  8  1  0
  7  6  1  0
  8  9  1  1
  8 10  1  0
 10 12  1  0
 10 11  2  0
 12 13  1  0
 14 13  1  0
 14 20  1  0
 15 14  2  0
 17 16  1  6
 18 17  1  0
 19 21  1  0
 19 20  1  6
 19 17  1  0
 21 22  1  0
 23 21  2  0
M  END
$$$$
