RGT.pdb
     RDKit          3D

 23 22  0  0  1  0  0  0  0  0999 V2000
   28.2273  -13.6540  -17.9810 N   0  0  0  0  0  0  0  0  0  0  0  0
   27.9312  -14.7543  -17.1277 C   0  0  0  0  0  0  0  0  0  0  0  0
   28.3618  -15.9418  -17.4493 N   0  0  0  0  0  0  0  0  0  0  0  0
   27.1846  -14.6191  -15.9353 N   0  0  0  0  0  0  0  0  0  0  0  0
   26.7668  -13.3406  -15.4093 C   0  0  0  0  0  0  0  0  0  0  0  0
   25.5543  -12.8787  -16.2448 C   0  0  0  0  0  0  0  0  0  0  0  0
   24.6683  -12.0845  -15.3433 C   0  0  0  0  0  0  0  0  0  0  0  0
   23.4743  -11.5206  -16.0471 C   0  0  2  0  0  0  0  0  0  0  0  0
   23.8380  -11.0343  -17.3794 N   0  0  0  0  0  0  0  0  0  0  0  0
   22.7500  -10.5166  -15.2775 C   0  0  0  0  0  0  0  0  0  0  0  0
   22.3506  -10.8030  -14.1124 O   0  0  0  0  0  0  0  0  0  0  0  0
   28.0683  -16.7783  -16.8878 N   0  0  0  0  0  0  0  0  0  0  0  0
   22.4566   -9.2035  -15.7654 C   0  0  0  0  0  0  0  0  0  0  0  0
   21.8492   -8.2481  -14.9049 C   0  0  0  0  0  0  0  0  0  0  0  0
   21.7246   -6.9027  -15.5267 O   0  0  0  0  0  0  0  0  0  0  0  0
   22.2312   -6.5875  -16.6183 C   0  0  0  0  0  0  0  0  0  0  0  0
   18.2012   -5.0924  -15.1771 C   0  0  2  0  0  0  0  0  0  0  0  0
   19.3227   -4.1206  -14.8984 O   0  0  0  0  0  0  0  0  0  0  0  0
   19.3892   -3.9504  -13.5085 C   0  0  2  0  0  0  0  0  0  0  0  0
   20.6492   -4.6371  -15.4199 N   0  0  0  0  0  0  0  0  0  0  0  0
   20.9787   -5.9228  -14.8229 C   0  0  0  0  0  0  0  0  0  0  0  0
   21.7370   -3.6611  -15.2475 O   0  0  0  0  0  0  0  0  0  0  0  0
   21.7629   -2.5179  -16.0121 O   0  0  0  0  0  0  0  0  0  0  0  0
  2  4  1  0
  2  1  1  0
  3  2  2  0
  5  4  1  0
  6  5  1  0
  7  8  1  0
  7  6  1  0
  8  9  1  6
  8 10  1  0
 10 12  1  0
 10 11  2  0
 12 13  1  0
 14 13  1  0
 14 20  1  0
 15 14  2  0
 17 16  1  6
 18 17  1  0
 19 21  1  0
 19 20  1  6
 19 17  1  0
 21 22  1  0
 23 21  2  0
M  END
$$$$
