RGT.pdb
     RDKit          3D

 23 22  0  0  1  0  0  0  0  0999 V2000
   17.3670  -16.6584  -14.3588 N   0  0  0  0  0  0  0  0  0  0  0  0
   16.7343  -16.6350  -15.6338 C   0  0  0  0  0  0  0  0  0  0  0  0
   15.8181  -17.5216  -15.9052 N   0  0  0  0  0  0  0  0  0  0  0  0
   17.0556  -15.6858  -16.6306 N   0  0  0  0  0  0  0  0  0  0  0  0
   18.0384  -14.6452  -16.4384 C   0  0  0  0  0  0  0  0  0  0  0  0
   18.1176  -13.8449  -17.7556 C   0  0  0  0  0  0  0  0  0  0  0  0
   19.2282  -12.8578  -17.6113 C   0  0  0  0  0  0  0  0  0  0  0  0
   18.7422  -11.4653  -17.3589 C   0  0  2  0  0  0  0  0  0  0  0  0
   17.9627  -10.9727  -18.4961 N   0  0  0  0  0  0  0  0  0  0  0  0
   19.7914  -10.5312  -16.9694 C   0  0  0  0  0  0  0  0  0  0  0  0
   20.4932  -10.7833  -15.9483 O   0  0  0  0  0  0  0  0  0  0  0  0
   15.3476  -17.5225  -16.8431 N   0  0  0  0  0  0  0  0  0  0  0  0
   20.0831   -9.3248  -17.6821 C   0  0  0  0  0  0  0  0  0  0  0  0
   21.1353   -8.4774  -17.2383 C   0  0  0  0  0  0  0  0  0  0  0  0
   20.6639   -7.3842  -16.3467 O   0  0  0  0  0  0  0  0  0  0  0  0
   19.5133   -6.9117  -16.3683 C   0  0  0  0  0  0  0  0  0  0  0  0
   20.3157   -7.7740  -12.9491 C   0  0  2  0  0  0  0  0  0  0  0  0
   21.2217   -6.5678  -13.0118 O   0  0  0  0  0  0  0  0  0  0  0  0
   22.5215   -7.0094  -12.7271 C   0  0  2  0  0  0  0  0  0  0  0  0
   21.1856   -5.9149  -14.3795 N   0  0  0  0  0  0  0  0  0  0  0  0
   21.5923   -6.8528  -15.4154 C   0  0  0  0  0  0  0  0  0  0  0  0
   21.9738   -4.6731  -14.4283 O   0  0  0  0  0  0  0  0  0  0  0  0
   21.5782   -3.5783  -13.6958 O   0  0  0  0  0  0  0  0  0  0  0  0
  2  4  1  0
  2  1  1  0
  3  2  2  0
  5  4  1  0
  6  5  1  0
  7  8  1  0
  7  6  1  0
  8  9  1  6
  8 10  1  0
 10 12  1  0
 10 11  2  0
 12 13  1  0
 14 13  1  0
 14 20  1  0
 15 14  2  0
 17 16  1  1
 18 17  1  0
 19 21  1  0
 19 20  1  1
 19 17  1  0
 21 22  1  0
 23 21  2  0
M  END
$$$$
