RGT.pdb
     RDKit          3D

 23 22  0  0  1  0  0  0  0  0999 V2000
   24.0758  -27.2195  -15.7598 N   0  0  0  0  0  0  0  0  0  0  0  0
   23.6366  -27.4042  -17.1012 C   0  0  0  0  0  0  0  0  0  0  0  0
   23.7543  -28.5795  -17.6525 N   0  0  0  0  0  0  0  0  0  0  0  0
   23.0725  -26.3626  -17.8723 N   0  0  0  0  0  0  0  0  0  0  0  0
   23.1275  -24.9740  -17.4791 C   0  0  0  0  0  0  0  0  0  0  0  0
   24.0815  -24.2605  -18.4601 C   0  0  0  0  0  0  0  0  0  0  0  0
   24.7852  -23.1878  -17.6968 C   0  0  0  0  0  0  0  0  0  0  0  0
   25.6767  -23.7254  -16.6219 C   0  0  2  0  0  0  0  0  0  0  0  0
   26.2036  -22.6399  -15.7926 N   0  0  0  0  0  0  0  0  0  0  0  0
   26.7335  -24.6030  -17.1100 C   0  0  0  0  0  0  0  0  0  0  0  0
   26.4200  -25.6874  -17.6797 O   0  0  0  0  0  0  0  0  0  0  0  0
   23.3509  -28.7573  -18.6047 N   0  0  0  0  0  0  0  0  0  0  0  0
   28.1286  -24.3101  -16.9831 C   0  0  0  0  0  0  0  0  0  0  0  0
   29.0864  -25.1274  -17.6442 C   0  0  0  0  0  0  0  0  0  0  0  0
   29.3513  -26.4050  -16.9303 O   0  0  0  0  0  0  0  0  0  0  0  0
   29.3573  -26.5257  -15.6921 C   0  0  0  0  0  0  0  0  0  0  0  0
   27.6721  -29.6342  -18.4811 C   0  0  2  0  0  0  0  0  0  0  0  0
   28.2614  -29.4991  -17.0976 O   0  0  0  0  0  0  0  0  0  0  0  0
   28.3225  -30.7858  -16.5445 C   0  0  1  0  0  0  0  0  0  0  0  0
   29.6484  -28.8887  -17.1405 N   0  0  0  0  0  0  0  0  0  0  0  0
   29.6126  -27.5540  -17.7198 C   0  0  0  0  0  0  0  0  0  0  0  0
   30.6205  -29.7548  -17.8264 O   0  0  0  0  0  0  0  0  0  0  0  0
   31.1002  -29.4028  -19.0665 O   0  0  0  0  0  0  0  0  0  0  0  0
  2  4  1  0
  2  1  1  0
  3  2  2  0
  5  4  1  0
  6  5  1  0
  7  8  1  0
  7  6  1  0
  8  9  1  6
  8 10  1  0
 10 12  1  0
 10 11  2  0
 12 13  1  0
 14 13  1  0
 14 20  1  0
 15 14  2  0
 17 16  1  1
 18 17  1  0
 19 21  1  0
 19 20  1  1
 19 17  1  0
 21 22  1  0
 23 21  2  0
M  END
$$$$
