RGT.pdb
     RDKit          3D

 23 22  0  0  1  0  0  0  0  0999 V2000
   28.4918  -22.3297  -15.5726 N   0  0  0  0  0  0  0  0  0  0  0  0
   28.6293  -22.8568  -16.8878 C   0  0  0  0  0  0  0  0  0  0  0  0
   29.4029  -23.8879  -17.0817 N   0  0  0  0  0  0  0  0  0  0  0  0
   27.9596  -22.3097  -18.0057 N   0  0  0  0  0  0  0  0  0  0  0  0
   26.9287  -21.3048  -17.8911 C   0  0  0  0  0  0  0  0  0  0  0  0
   26.5289  -20.8970  -19.3247 C   0  0  0  0  0  0  0  0  0  0  0  0
   25.4112  -19.9138  -19.2132 C   0  0  0  0  0  0  0  0  0  0  0  0
   25.7773  -18.7020  -18.4154 C   0  0  2  0  0  0  0  0  0  0  0  0
   27.2230  -18.6447  -18.1912 N   0  0  0  0  0  0  0  0  0  0  0  0
   25.0254  -18.5578  -17.1749 C   0  0  0  0  0  0  0  0  0  0  0  0
   23.7625  -18.5152  -17.2210 O   0  0  0  0  0  0  0  0  0  0  0  0
   29.4894  -24.3087  -18.0390 N   0  0  0  0  0  0  0  0  0  0  0  0
   25.6367  -18.4593  -15.8845 C   0  0  0  0  0  0  0  0  0  0  0  0
   24.8254  -18.3014  -14.7273 C   0  0  0  0  0  0  0  0  0  0  0  0
   24.4191  -19.5976  -14.1215 O   0  0  0  0  0  0  0  0  0  0  0  0
   23.9329  -20.5467  -14.7622 C   0  0  0  0  0  0  0  0  0  0  0  0
   26.5564  -21.0614  -10.9756 C   0  0  2  0  0  0  0  0  0  0  0  0
   25.0654  -21.1183  -10.7447 O   0  0  0  0  0  0  0  0  0  0  0  0
   24.7349  -20.0505   -9.8985 C   0  0  2  0  0  0  0  0  0  0  0  0
   24.2958  -21.0037  -12.0458 N   0  0  0  0  0  0  0  0  0  0  0  0
   24.6014  -19.7525  -12.7235 C   0  0  0  0  0  0  0  0  0  0  0  0
   22.8472  -21.1819  -11.8573 O   0  0  0  0  0  0  0  0  0  0  0  0
   22.3392  -22.4275  -11.5701 O   0  0  0  0  0  0  0  0  0  0  0  0
  2  4  1  0
  2  1  1  0
  3  2  2  0
  5  4  1  0
  6  5  1  0
  7  8  1  0
  7  6  1  0
  8  9  1  1
  8 10  1  0
 10 12  1  0
 10 11  2  0
 12 13  1  0
 14 13  1  0
 14 20  1  0
 15 14  2  0
 17 16  1  1
 18 17  1  0
 19 21  1  0
 19 20  1  6
 19 17  1  0
 21 22  1  0
 23 21  2  0
M  END
$$$$
