RGT.pdb
     RDKit          3D

 23 22  0  0  1  0  0  0  0  0999 V2000
   26.2980  -20.6603   -8.3994 N   0  0  0  0  0  0  0  0  0  0  0  0
   25.0813  -20.9695   -9.0705 C   0  0  0  0  0  0  0  0  0  0  0  0
   23.9962  -21.1461   -8.3701 N   0  0  0  0  0  0  0  0  0  0  0  0
   24.9924  -21.0953  -10.4754 N   0  0  0  0  0  0  0  0  0  0  0  0
   26.1506  -21.2222  -11.3288 C   0  0  0  0  0  0  0  0  0  0  0  0
   25.6412  -21.2607  -12.7850 C   0  0  0  0  0  0  0  0  0  0  0  0
   26.8367  -21.3660  -13.6728 C   0  0  0  0  0  0  0  0  0  0  0  0
   27.6106  -20.0885  -13.7635 C   0  0  2  0  0  0  0  0  0  0  0  0
   27.9064  -19.5643  -12.4289 N   0  0  0  0  0  0  0  0  0  0  0  0
   26.9985  -19.0826  -14.6228 C   0  0  0  0  0  0  0  0  0  0  0  0
   26.8744  -19.3205  -15.8585 O   0  0  0  0  0  0  0  0  0  0  0  0
   23.0825  -21.3299   -8.8520 N   0  0  0  0  0  0  0  0  0  0  0  0
   26.5204  -17.8198  -14.1485 C   0  0  0  0  0  0  0  0  0  0  0  0
   25.9333  -16.8981  -15.0585 C   0  0  0  0  0  0  0  0  0  0  0  0
   24.5372  -17.2550  -15.4270 O   0  0  0  0  0  0  0  0  0  0  0  0
   23.8878  -18.1745  -14.8975 C   0  0  0  0  0  0  0  0  0  0  0  0
   21.8824  -14.3641  -16.8033 C   0  0  2  0  0  0  0  0  0  0  0  0
   21.9867  -15.5993  -17.6653 O   0  0  0  0  0  0  0  0  0  0  0  0
   22.8266  -15.2843  -18.7427 C   0  0  2  0  0  0  0  0  0  0  0  0
   22.5566  -16.7717  -16.8914 N   0  0  0  0  0  0  0  0  0  0  0  0
   23.9146  -16.4929  -16.4484 C   0  0  0  0  0  0  0  0  0  0  0  0
   22.4775  -18.0326  -17.6462 O   0  0  0  0  0  0  0  0  0  0  0  0
   23.6295  -18.6593  -18.0609 O   0  0  0  0  0  0  0  0  0  0  0  0
  2  4  1  0
  2  1  1  0
  3  2  2  0
  5  4  1  0
  6  5  1  0
  7  8  1  0
  7  6  1  0
  8  9  1  1
  8 10  1  0
 10 12  1  0
 10 11  2  0
 12 13  1  0
 14 13  1  0
 14 20  1  0
 15 14  2  0
 17 16  1  6
 18 17  1  0
 19 21  1  0
 19 20  1  6
 19 17  1  0
 21 22  1  0
 23 21  2  0
M  END
$$$$
