RGT.pdb
     RDKit          3D

 23 22  0  0  1  0  0  0  0  0999 V2000
   22.6505  -20.9087   -8.6845 N   0  0  0  0  0  0  0  0  0  0  0  0
   23.4338  -21.3210   -7.5697 C   0  0  0  0  0  0  0  0  0  0  0  0
   22.8625  -21.9781   -6.5997 N   0  0  0  0  0  0  0  0  0  0  0  0
   24.8167  -21.0490   -7.4632 N   0  0  0  0  0  0  0  0  0  0  0  0
   25.5480  -20.2919   -8.4520 C   0  0  0  0  0  0  0  0  0  0  0  0
   25.4203  -21.0485   -9.7909 C   0  0  0  0  0  0  0  0  0  0  0  0
   26.1548  -20.2573  -10.8219 C   0  0  0  0  0  0  0  0  0  0  0  0
   26.0541  -20.8489  -12.1926 C   0  0  2  0  0  0  0  0  0  0  0  0
   26.7196  -22.1519  -12.2465 N   0  0  0  0  0  0  0  0  0  0  0  0
   26.5036  -19.9608  -13.2577 C   0  0  0  0  0  0  0  0  0  0  0  0
   26.0329  -18.7891  -13.3228 O   0  0  0  0  0  0  0  0  0  0  0  0
   23.4215  -22.2711   -5.7614 N   0  0  0  0  0  0  0  0  0  0  0  0
   27.4612  -20.3376  -14.2524 C   0  0  0  0  0  0  0  0  0  0  0  0
   27.9406  -19.3685  -15.1762 C   0  0  0  0  0  0  0  0  0  0  0  0
   26.8559  -18.7489  -15.9835 O   0  0  0  0  0  0  0  0  0  0  0  0
   25.9249  -19.3854  -16.5087 C   0  0  0  0  0  0  0  0  0  0  0  0
   24.8423  -14.4309  -17.4359 C   0  0  2  0  0  0  0  0  0  0  0  0
   25.9862  -15.1482  -16.7601 O   0  0  0  0  0  0  0  0  0  0  0  0
   25.9078  -14.8578  -15.3908 C   0  0  1  0  0  0  0  0  0  0  0  0
   25.9087  -16.6468  -16.9758 N   0  0  0  0  0  0  0  0  0  0  0  0
   26.8933  -17.3422  -16.1603 C   0  0  0  0  0  0  0  0  0  0  0  0
   26.0198  -17.0146  -18.3964 O   0  0  0  0  0  0  0  0  0  0  0  0
   24.9050  -17.4254  -19.0896 O   0  0  0  0  0  0  0  0  0  0  0  0
  2  4  1  0
  2  1  1  0
  3  2  2  0
  5  4  1  0
  6  5  1  0
  7  8  1  0
  7  6  1  0
  8  9  1  1
  8 10  1  0
 10 12  1  0
 10 11  2  0
 12 13  1  0
 14 13  1  0
 14 20  1  0
 15 14  2  0
 17 16  1  6
 18 17  1  0
 19 21  1  0
 19 20  1  6
 19 17  1  0
 21 22  1  0
 23 21  2  0
M  END
$$$$
