RGT.pdb
     RDKit          3D

 23 22  0  0  1  0  0  0  0  0999 V2000
   32.2009  -24.3494  -10.2889 N   0  0  0  0  0  0  0  0  0  0  0  0
   32.6875  -23.1754  -10.9304 C   0  0  0  0  0  0  0  0  0  0  0  0
   33.5439  -23.2927  -11.9060 N   0  0  0  0  0  0  0  0  0  0  0  0
   32.2819  -21.8744  -10.5558 N   0  0  0  0  0  0  0  0  0  0  0  0
   30.8993  -21.5086  -10.3545 C   0  0  0  0  0  0  0  0  0  0  0  0
   30.4712  -20.6595  -11.5699 C   0  0  0  0  0  0  0  0  0  0  0  0
   29.0899  -20.1614  -11.3014 C   0  0  0  0  0  0  0  0  0  0  0  0
   28.0589  -21.2447  -11.3510 C   0  0  2  0  0  0  0  0  0  0  0  0
   28.0634  -21.9069  -12.6568 N   0  0  0  0  0  0  0  0  0  0  0  0
   26.7224  -20.8115  -10.9623 C   0  0  0  0  0  0  0  0  0  0  0  0
   26.5648  -20.2140   -9.8590 O   0  0  0  0  0  0  0  0  0  0  0  0
   33.9995  -22.4393  -12.3122 N   0  0  0  0  0  0  0  0  0  0  0  0
   25.5560  -21.0231  -11.7642 C   0  0  0  0  0  0  0  0  0  0  0  0
   24.3318  -20.3900  -11.4138 C   0  0  0  0  0  0  0  0  0  0  0  0
   23.2309  -20.6852  -12.3694 O   0  0  0  0  0  0  0  0  0  0  0  0
   23.4044  -21.1058  -13.5273 C   0  0  0  0  0  0  0  0  0  0  0  0
   19.2264  -19.2741  -11.4943 C   0  0  2  0  0  0  0  0  0  0  0  0
   19.4632  -20.6898  -11.9629 O   0  0  0  0  0  0  0  0  0  0  0  0
   18.3751  -21.0474  -12.7712 C   0  0  1  0  0  0  0  0  0  0  0  0
   20.7530  -20.8069  -12.7511 N   0  0  0  0  0  0  0  0  0  0  0  0
   21.9018  -20.4705  -11.9233 C   0  0  0  0  0  0  0  0  0  0  0  0
   20.7248  -20.0161  -13.9919 O   0  0  0  0  0  0  0  0  0  0  0  0
   20.1245  -20.5266  -15.1193 O   0  0  0  0  0  0  0  0  0  0  0  0
  2  4  1  0
  2  1  1  0
  3  2  2  0
  5  4  1  0
  6  5  1  0
  7  8  1  0
  7  6  1  0
  8  9  1  6
  8 10  1  0
 10 12  1  0
 10 11  2  0
 12 13  1  0
 14 13  1  0
 14 20  1  0
 15 14  2  0
 17 16  1  1
 18 17  1  0
 19 21  1  0
 19 20  1  1
 19 17  1  0
 21 22  1  0
 23 21  2  0
M  END
$$$$
