RGT.pdb
     RDKit          3D

 23 22  0  0  1  0  0  0  0  0999 V2000
   20.4980  -18.3616  -16.0950 N   0  0  0  0  0  0  0  0  0  0  0  0
   20.3700  -19.7124  -15.6644 C   0  0  0  0  0  0  0  0  0  0  0  0
   19.2985  -20.3825  -15.9837 N   0  0  0  0  0  0  0  0  0  0  0  0
   21.3601  -20.3689  -14.8988 N   0  0  0  0  0  0  0  0  0  0  0  0
   22.7395  -19.9424  -14.8644 C   0  0  0  0  0  0  0  0  0  0  0  0
   23.3744  -20.3451  -16.2121 C   0  0  0  0  0  0  0  0  0  0  0  0
   24.8053  -19.9214  -16.1751 C   0  0  0  0  0  0  0  0  0  0  0  0
   25.6963  -20.9311  -15.5228 C   0  0  2  0  0  0  0  0  0  0  0  0
   24.9502  -22.1472  -15.1941 N   0  0  0  0  0  0  0  0  0  0  0  0
   26.4373  -20.4178  -14.3772 C   0  0  0  0  0  0  0  0  0  0  0  0
   27.1434  -19.3781  -14.5156 O   0  0  0  0  0  0  0  0  0  0  0  0
   19.2171  -21.3974  -15.7302 N   0  0  0  0  0  0  0  0  0  0  0  0
   26.4162  -21.0268  -13.0822 C   0  0  0  0  0  0  0  0  0  0  0  0
   26.9647  -20.3365  -11.9664 C   0  0  0  0  0  0  0  0  0  0  0  0
   26.7239  -21.0350  -10.6756 O   0  0  0  0  0  0  0  0  0  0  0  0
   26.2975  -22.1997  -10.5800 C   0  0  0  0  0  0  0  0  0  0  0  0
   28.4389  -20.0319   -6.9408 C   0  0  2  0  0  0  0  0  0  0  0  0
   26.9474  -19.8431   -7.0813 O   0  0  0  0  0  0  0  0  0  0  0  0
   26.7229  -18.4826   -7.3341 C   0  0  2  0  0  0  0  0  0  0  0  0
   26.3847  -20.6789   -8.2141 N   0  0  0  0  0  0  0  0  0  0  0  0
   27.0012  -20.3197   -9.4826 C   0  0  0  0  0  0  0  0  0  0  0  0
   24.9163  -20.6122   -8.2833 O   0  0  0  0  0  0  0  0  0  0  0  0
   24.1526  -21.3147   -7.3804 O   0  0  0  0  0  0  0  0  0  0  0  0
  2  4  1  0
  2  1  1  0
  3  2  2  0
  5  4  1  0
  6  5  1  0
  7  8  1  0
  7  6  1  0
  8  9  1  1
  8 10  1  0
 10 12  1  0
 10 11  2  0
 12 13  1  0
 14 13  1  0
 14 20  1  0
 15 14  2  0
 17 16  1  1
 18 17  1  0
 19 21  1  0
 19 20  1  1
 19 17  1  0
 21 22  1  0
 23 21  2  0
M  END
$$$$
