RGT.pdb
     RDKit          3D

 23 22  0  0  1  0  0  0  0  0999 V2000
   32.0841  -23.4061  -12.0744 N   0  0  0  0  0  0  0  0  0  0  0  0
   31.8740  -22.6433  -10.8910 C   0  0  0  0  0  0  0  0  0  0  0  0
   32.7863  -22.6502   -9.9600 N   0  0  0  0  0  0  0  0  0  0  0  0
   30.7108  -21.8702  -10.6749 N   0  0  0  0  0  0  0  0  0  0  0  0
   29.5754  -21.8907  -11.5673 C   0  0  0  0  0  0  0  0  0  0  0  0
   29.5769  -20.5530  -12.3368 C   0  0  0  0  0  0  0  0  0  0  0  0
   28.1871  -20.0102  -12.2900 C   0  0  0  0  0  0  0  0  0  0  0  0
   27.1759  -20.9435  -12.8778 C   0  0  2  0  0  0  0  0  0  0  0  0
   27.3357  -21.0350  -14.3302 N   0  0  0  0  0  0  0  0  0  0  0  0
   25.8006  -20.6463  -12.4966 C   0  0  0  0  0  0  0  0  0  0  0  0
   25.5415  -20.3692  -11.2904 O   0  0  0  0  0  0  0  0  0  0  0  0
   32.6422  -22.1012   -9.0774 N   0  0  0  0  0  0  0  0  0  0  0  0
   24.7049  -20.6484  -13.4174 C   0  0  0  0  0  0  0  0  0  0  0  0
   23.4224  -20.2048  -12.9923 C   0  0  0  0  0  0  0  0  0  0  0  0
   22.3972  -20.2764  -14.0675 O   0  0  0  0  0  0  0  0  0  0  0  0
   22.4351  -19.6067  -15.1152 C   0  0  0  0  0  0  0  0  0  0  0  0
   20.2574  -23.8471  -14.6598 C   0  0  2  0  0  0  0  0  0  0  0  0
   19.4419  -22.5780  -14.5959 O   0  0  0  0  0  0  0  0  0  0  0  0
   18.9151  -22.4875  -13.2998 C   0  0  2  0  0  0  0  0  0  0  0  0
   20.2883  -21.3566  -14.8961 N   0  0  0  0  0  0  0  0  0  0  0  0
   21.3107  -21.1681  -13.8776 C   0  0  0  0  0  0  0  0  0  0  0  0
   19.4755  -20.1443  -15.0837 O   0  0  0  0  0  0  0  0  0  0  0  0
   19.4586  -19.1705  -14.1124 O   0  0  0  0  0  0  0  0  0  0  0  0
  2  4  1  0
  2  1  1  0
  3  2  2  0
  5  4  1  0
  6  5  1  0
  7  8  1  0
  7  6  1  0
  8  9  1  6
  8 10  1  0
 10 12  1  0
 10 11  2  0
 12 13  1  0
 14 13  1  0
 14 20  1  0
 15 14  2  0
 17 16  1  6
 18 17  1  0
 19 21  1  0
 19 20  1  6
 19 17  1  0
 21 22  1  0
 23 21  2  0
M  END
$$$$
