RGT.pdb
     RDKit          3D

 23 22  0  0  1  0  0  0  0  0999 V2000
   31.6636  -22.7711  -11.7447 N   0  0  0  0  0  0  0  0  0  0  0  0
   31.4405  -22.4088  -10.3863 C   0  0  0  0  0  0  0  0  0  0  0  0
   32.1635  -22.9628   -9.4538 N   0  0  0  0  0  0  0  0  0  0  0  0
   30.4619  -21.4667   -9.9960 N   0  0  0  0  0  0  0  0  0  0  0  0
   29.6662  -20.7207  -10.9426 C   0  0  0  0  0  0  0  0  0  0  0  0
   28.7659  -21.7346  -11.6796 C   0  0  0  0  0  0  0  0  0  0  0  0
   27.6135  -20.9758  -12.2491 C   0  0  0  0  0  0  0  0  0  0  0  0
   26.3001  -21.3754  -11.6538 C   0  0  2  0  0  0  0  0  0  0  0  0
   25.9937  -22.7735  -11.9622 N   0  0  0  0  0  0  0  0  0  0  0  0
   25.1972  -20.4856  -11.9957 C   0  0  0  0  0  0  0  0  0  0  0  0
   25.3059  -19.2490  -11.7554 O   0  0  0  0  0  0  0  0  0  0  0  0
   32.0508  -22.6655   -8.4538 N   0  0  0  0  0  0  0  0  0  0  0  0
   23.9771  -20.9306  -12.5969 C   0  0  0  0  0  0  0  0  0  0  0  0
   23.0824  -19.9835  -13.1670 C   0  0  0  0  0  0  0  0  0  0  0  0
   21.9036  -20.6161  -13.8169 O   0  0  0  0  0  0  0  0  0  0  0  0
   21.8704  -21.7968  -14.2073 C   0  0  0  0  0  0  0  0  0  0  0  0
   17.9913  -19.1871  -13.0436 C   0  0  2  0  0  0  0  0  0  0  0  0
   18.3911  -19.3649  -14.4887 O   0  0  0  0  0  0  0  0  0  0  0  0
   18.7651  -18.1041  -14.9744 C   0  0  2  0  0  0  0  0  0  0  0  0
   19.5457  -20.3370  -14.6313 N   0  0  0  0  0  0  0  0  0  0  0  0
   20.7479  -19.8143  -13.9991 C   0  0  0  0  0  0  0  0  0  0  0  0
   19.7877  -20.7174  -16.0321 O   0  0  0  0  0  0  0  0  0  0  0  0
   19.0276  -21.7024  -16.6184 O   0  0  0  0  0  0  0  0  0  0  0  0
  2  4  1  0
  2  1  1  0
  3  2  2  0
  5  4  1  0
  6  5  1  0
  7  8  1  0
  7  6  1  0
  8  9  1  6
  8 10  1  0
 10 12  1  0
 10 11  2  0
 12 13  1  0
 14 13  1  0
 14 20  1  0
 15 14  2  0
 17 16  1  6
 18 17  1  0
 19 21  1  0
 19 20  1  6
 19 17  1  0
 21 22  1  0
 23 21  2  0
M  END
$$$$
