LIT.pdb
     RDKit          3D

 24 23  0  0  1  0  0  0  0  0999 V2000
    6.6803  -14.0660   18.9678 C   0  0  0  0  0  0  0  0  0  0  0  0
    7.2582  -15.4079   19.4172 C   0  0  2  0  0  0  0  0  0  0  0  0
    6.2973  -16.5323   19.0576 C   0  0  0  0  0  0  0  0  0  0  0  0
    7.4106  -15.4309   20.9201 C   0  0  0  0  0  0  0  0  0  0  0  0
    8.2309  -14.2311   21.3177 C   0  0  2  0  0  0  0  0  0  0  0  0
    9.4060  -14.1081   20.4791 N   0  0  0  0  0  0  0  0  0  0  0  0
    8.6573  -14.3570   22.7607 C   0  0  0  0  0  0  0  0  0  0  0  0
    9.8349  -14.5791   23.0763 O   0  0  0  0  0  0  0  0  0  0  0  0
    5.9692  -11.2623   26.5131 C   0  0  0  0  0  0  0  0  0  0  0  0
    7.0900  -11.9961   25.7454 C   0  0  0  0  0  0  0  0  0  0  0  0
    7.0585  -13.4637   26.0506 C   0  0  2  0  0  0  0  0  0  0  0  0
    7.6728  -13.5764   27.4591 C   0  0  0  0  0  0  0  0  0  0  0  0
    7.9228  -14.3053   25.1486 C   0  0  2  0  0  0  0  0  0  0  0  0
    7.6890  -14.2175   23.7584 N   0  0  0  0  0  0  0  0  0  0  0  0
    7.9917  -15.6967   25.5576 C   0  0  0  0  0  0  0  0  0  0  0  0
    6.9786  -16.4104   25.6425 O   0  0  0  0  0  0  0  0  0  0  0  0
    9.4264  -18.5663   23.9757 C   0  0  0  0  0  0  0  0  0  0  0  0
   10.1716  -18.4740   25.2875 C   0  0  1  0  0  0  0  0  0  0  0  0
   11.4321  -17.9654   25.0968 O   0  0  0  0  0  0  0  0  0  0  0  0
    9.3590  -17.6676   26.2797 C   0  0  2  0  0  0  0  0  0  0  0  0
    9.2459  -16.2827   25.8758 N   0  0  0  0  0  0  0  0  0  0  0  0
    9.9460  -17.7217   27.6244 C   0  0  0  0  0  0  0  0  0  0  0  0
   10.3892  -16.7114   28.1812 O   0  0  0  0  0  0  0  0  0  0  0  0
   10.0106  -18.9370   28.2998 O   0  0  0  0  0  0  0  0  0  0  0  0
  2  1  1  1
  2  4  1  0
  3  2  1  0
  5  4  1  0
  5  6  1  6
  7  5  1  0
  8  7  2  0
  9 10  1  0
 11 10  1  0
 11 13  1  0
 11 12  1  1
 13 14  1  6
 14  7  1  0
 15 16  2  0
 15 13  1  0
 18 17  1  6
 18 20  1  0
 19 18  1  0
 20 21  1  6
 21 15  1  0
 22 20  1  0
 23 22  2  0
 24 22  1  0
M  END
$$$$
