LIT.pdb
     RDKit          3D

 24 23  0  0  1  0  0  0  0  0999 V2000
    6.4098  -13.9209   19.6641 C   0  0  0  0  0  0  0  0  0  0  0  0
    7.5237  -13.2762   20.4887 C   0  0  2  0  0  0  0  0  0  0  0  0
    8.0062  -12.0053   19.8037 C   0  0  0  0  0  0  0  0  0  0  0  0
    8.7133  -14.2039   20.5705 C   0  0  0  0  0  0  0  0  0  0  0  0
    8.3541  -15.3312   21.5036 C   0  0  2  0  0  0  0  0  0  0  0  0
    6.9226  -15.5546   21.5166 N   0  0  0  0  0  0  0  0  0  0  0  0
    8.8225  -15.0080   22.9022 C   0  0  0  0  0  0  0  0  0  0  0  0
    9.9898  -14.6644   23.1364 O   0  0  0  0  0  0  0  0  0  0  0  0
    5.8954  -11.9283   26.1980 C   0  0  0  0  0  0  0  0  0  0  0  0
    7.0450  -12.6650   25.4771 C   0  0  0  0  0  0  0  0  0  0  0  0
    7.2807  -14.0064   26.1037 C   0  0  2  0  0  0  0  0  0  0  0  0
    8.0123  -13.6911   27.4225 C   0  0  0  0  0  0  0  0  0  0  0  0
    8.1999  -14.9063   25.3200 C   0  0  2  0  0  0  0  0  0  0  0  0
    7.9059  -15.1025   23.9526 N   0  0  0  0  0  0  0  0  0  0  0  0
    8.4403  -16.1830   25.9685 C   0  0  0  0  0  0  0  0  0  0  0  0
    7.5161  -16.9620   26.2547 O   0  0  0  0  0  0  0  0  0  0  0  0
   10.4142  -18.8964   24.5875 C   0  0  0  0  0  0  0  0  0  0  0  0
   11.0425  -18.6362   25.9374 C   0  0  1  0  0  0  0  0  0  0  0  0
   12.2388  -17.9776   25.7989 O   0  0  0  0  0  0  0  0  0  0  0  0
   10.0628  -17.8909   26.8205 C   0  0  2  0  0  0  0  0  0  0  0  0
    9.7656  -16.5756   26.2956 N   0  0  0  0  0  0  0  0  0  0  0  0
   10.5741  -17.7495   28.1896 C   0  0  0  0  0  0  0  0  0  0  0  0
   10.8333  -16.6432   28.6754 O   0  0  0  0  0  0  0  0  0  0  0  0
   10.7762  -18.8839   28.9703 O   0  0  0  0  0  0  0  0  0  0  0  0
  2  1  1  6
  2  4  1  0
  3  2  1  0
  5  4  1  0
  5  6  1  1
  7  5  1  0
  8  7  2  0
  9 10  1  0
 11 10  1  0
 11 13  1  0
 11 12  1  1
 13 14  1  6
 14  7  1  0
 15 16  2  0
 15 13  1  0
 18 17  1  6
 18 20  1  0
 19 18  1  0
 20 21  1  6
 21 15  1  0
 22 20  1  0
 23 22  2  0
 24 22  1  0
M  END
$$$$
