LIT.pdb
     RDKit          3D

 24 23  0  0  1  0  0  0  0  0999 V2000
    5.4202  -16.6687   19.5322 C   0  0  0  0  0  0  0  0  0  0  0  0
    6.6558  -17.4320   20.0089 C   0  0  2  0  0  0  0  0  0  0  0  0
    6.3684  -18.9268   20.0218 C   0  0  0  0  0  0  0  0  0  0  0  0
    6.9918  -17.0420   21.4292 C   0  0  0  0  0  0  0  0  0  0  0  0
    7.2888  -15.5648   21.4427 C   0  0  2  0  0  0  0  0  0  0  0  0
    8.0275  -15.1759   20.2584 N   0  0  0  0  0  0  0  0  0  0  0  0
    8.0937  -15.2150   22.6713 C   0  0  0  0  0  0  0  0  0  0  0  0
    9.3211  -15.0514   22.6227 O   0  0  0  0  0  0  0  0  0  0  0  0
    5.8253  -11.7345   26.1871 C   0  0  0  0  0  0  0  0  0  0  0  0
    6.8835  -12.4782   25.3438 C   0  0  0  0  0  0  0  0  0  0  0  0
    7.2709  -13.7654   26.0075 C   0  0  2  0  0  0  0  0  0  0  0  0
    8.2547  -13.3450   27.1163 C   0  0  0  0  0  0  0  0  0  0  0  0
    8.0243  -14.7210   25.1198 C   0  0  2  0  0  0  0  0  0  0  0  0
    7.4256  -15.0745   23.8904 N   0  0  0  0  0  0  0  0  0  0  0  0
    8.4783  -15.9116   25.8160 C   0  0  0  0  0  0  0  0  0  0  0  0
    7.7087  -16.6145   26.4916 O   0  0  0  0  0  0  0  0  0  0  0  0
   10.5644  -18.6966   24.1670 C   0  0  0  0  0  0  0  0  0  0  0  0
   11.2808  -18.2632   25.4254 C   0  0  1  0  0  0  0  0  0  0  0  0
   12.3904  -17.5148   25.1209 O   0  0  0  0  0  0  0  0  0  0  0  0
   10.3148  -17.5338   26.3365 C   0  0  2  0  0  0  0  0  0  0  0  0
    9.8408  -16.3051   25.7369 N   0  0  0  0  0  0  0  0  0  0  0  0
   10.9305  -17.2211   27.6321 C   0  0  0  0  0  0  0  0  0  0  0  0
   11.1225  -16.0559   27.9962 O   0  0  0  0  0  0  0  0  0  0  0  0
   11.3124  -18.2558   28.4813 O   0  0  0  0  0  0  0  0  0  0  0  0
  2  1  1  1
  2  4  1  0
  3  2  1  0
  5  4  1  0
  5  6  1  6
  7  5  1  0
  8  7  2  0
  9 10  1  0
 11 10  1  0
 11 13  1  0
 11 12  1  1
 13 14  1  6
 14  7  1  0
 15 16  2  0
 15 13  1  0
 18 17  1  6
 18 20  1  0
 19 18  1  0
 20 21  1  6
 21 15  1  0
 22 20  1  0
 23 22  2  0
 24 22  1  0
M  END
$$$$
