LIT.pdb
     RDKit          3D

 24 23  0  0  1  0  0  0  0  0999 V2000
    8.2636  -15.7548   20.4288 C   0  0  0  0  0  0  0  0  0  0  0  0
    6.7657  -15.5124   20.2448 C   0  0  2  0  0  0  0  0  0  0  0  0
    6.5428  -14.3017   19.3495 C   0  0  0  0  0  0  0  0  0  0  0  0
    6.1237  -15.1932   21.5746 C   0  0  0  0  0  0  0  0  0  0  0  0
    6.5507  -16.2524   22.5576 C   0  0  2  0  0  0  0  0  0  0  0  0
    5.4238  -16.7110   23.3445 N   0  0  0  0  0  0  0  0  0  0  0  0
    7.6116  -15.6992   23.4787 C   0  0  0  0  0  0  0  0  0  0  0  0
    8.7739  -15.5070   23.0944 O   0  0  0  0  0  0  0  0  0  0  0  0
    5.9505  -11.9999   26.9464 C   0  0  0  0  0  0  0  0  0  0  0  0
    7.0303  -12.6538   26.0573 C   0  0  0  0  0  0  0  0  0  0  0  0
    7.6017  -13.8639   26.7331 C   0  0  2  0  0  0  0  0  0  0  0  0
    8.8164  -13.3290   27.5158 C   0  0  0  0  0  0  0  0  0  0  0  0
    8.1387  -14.9080   25.7896 C   0  0  2  0  0  0  0  0  0  0  0  0
    7.2614  -15.3996   24.7978 N   0  0  0  0  0  0  0  0  0  0  0  0
    8.7936  -16.0111   26.4697 C   0  0  0  0  0  0  0  0  0  0  0  0
    8.1853  -16.7560   27.2558 O   0  0  0  0  0  0  0  0  0  0  0  0
   12.8972  -16.8283   25.5402 C   0  0  0  0  0  0  0  0  0  0  0  0
   11.8754  -17.9338   25.6749 C   0  0  1  0  0  0  0  0  0  0  0  0
   12.4786  -19.1134   26.0338 O   0  0  0  0  0  0  0  0  0  0  0  0
   10.7921  -17.5112   26.6459 C   0  0  2  0  0  0  0  0  0  0  0  0
   10.1727  -16.2663   26.2451 N   0  0  0  0  0  0  0  0  0  0  0  0
   11.3205  -17.3598   28.0074 C   0  0  0  0  0  0  0  0  0  0  0  0
   11.3422  -16.2638   28.5779 O   0  0  0  0  0  0  0  0  0  0  0  0
   11.8127  -18.4725   28.6833 O   0  0  0  0  0  0  0  0  0  0  0  0
  2  1  1  1
  2  4  1  0
  3  2  1  0
  5  4  1  0
  5  6  1  1
  7  5  1  0
  8  7  2  0
  9 10  1  0
 11 10  1  0
 11 13  1  0
 11 12  1  1
 13 14  1  1
 14  7  1  0
 15 16  2  0
 15 13  1  0
 18 17  1  1
 18 20  1  0
 19 18  1  0
 20 21  1  6
 21 15  1  0
 22 20  1  0
 23 22  2  0
 24 22  1  0
M  END
$$$$
