LIT.pdb
     RDKit          3D

 24 23  0  0  1  0  0  0  0  0999 V2000
    8.4383  -14.5060   18.5094 C   0  0  0  0  0  0  0  0  0  0  0  0
    7.5649  -13.5665   19.3406 C   0  0  2  0  0  0  0  0  0  0  0  0
    7.5086  -12.1945   18.6836 C   0  0  0  0  0  0  0  0  0  0  0  0
    8.1719  -13.3678   20.7097 C   0  0  0  0  0  0  0  0  0  0  0  0
    8.1222  -14.6898   21.4312 C   0  0  2  0  0  0  0  0  0  0  0  0
    6.7671  -15.2004   21.4807 N   0  0  0  0  0  0  0  0  0  0  0  0
    8.6465  -14.5262   22.8376 C   0  0  0  0  0  0  0  0  0  0  0  0
    9.8179  -14.1902   23.0625 O   0  0  0  0  0  0  0  0  0  0  0  0
    5.8133  -11.7581   26.2403 C   0  0  0  0  0  0  0  0  0  0  0  0
    7.0578  -12.4076   25.5974 C   0  0  0  0  0  0  0  0  0  0  0  0
    7.2692  -13.7874   26.1445 C   0  0  2  0  0  0  0  0  0  0  0  0
    8.0705  -13.5674   27.4421 C   0  0  0  0  0  0  0  0  0  0  0  0
    8.1172  -14.6783   25.2750 C   0  0  2  0  0  0  0  0  0  0  0  0
    7.7782  -14.7629   23.9065 N   0  0  0  0  0  0  0  0  0  0  0  0
    8.3031  -16.0080   25.8277 C   0  0  0  0  0  0  0  0  0  0  0  0
    7.3447  -16.7204   26.1694 O   0  0  0  0  0  0  0  0  0  0  0  0
   10.0400  -18.7615   24.0739 C   0  0  0  0  0  0  0  0  0  0  0  0
   10.7414  -18.6269   25.4060 C   0  0  1  0  0  0  0  0  0  0  0  0
   11.9592  -18.0120   25.2552 O   0  0  0  0  0  0  0  0  0  0  0  0
    9.8392  -17.9062   26.3866 C   0  0  2  0  0  0  0  0  0  0  0  0
    9.6128  -16.5324   25.9925 N   0  0  0  0  0  0  0  0  0  0  0  0
   10.3993  -17.9228   27.7437 C   0  0  0  0  0  0  0  0  0  0  0  0
   10.7889  -16.8896   28.2987 O   0  0  0  0  0  0  0  0  0  0  0  0
   10.4993  -19.1277   28.4333 O   0  0  0  0  0  0  0  0  0  0  0  0
  2  1  1  6
  2  4  1  0
  3  2  1  0
  5  4  1  0
  5  6  1  1
  7  5  1  0
  8  7  2  0
  9 10  1  0
 11 10  1  0
 11 13  1  0
 11 12  1  1
 13 14  1  6
 14  7  1  0
 15 16  2  0
 15 13  1  0
 18 17  1  6
 18 20  1  0
 19 18  1  0
 20 21  1  6
 21 15  1  0
 22 20  1  0
 23 22  2  0
 24 22  1  0
M  END
$$$$
