LIT.pdb
     RDKit          3D

 24 23  0  0  1  0  0  0  0  0999 V2000
    6.5269  -14.8114   19.2120 C   0  0  0  0  0  0  0  0  0  0  0  0
    7.3204  -16.0193   19.7097 C   0  0  2  0  0  0  0  0  0  0  0  0
    6.5636  -17.3020   19.3947 C   0  0  0  0  0  0  0  0  0  0  0  0
    7.4689  -15.9604   21.2120 C   0  0  0  0  0  0  0  0  0  0  0  0
    8.0751  -14.6262   21.5624 C   0  0  2  0  0  0  0  0  0  0  0  0
    9.1793  -14.3125   20.6782 N   0  0  0  0  0  0  0  0  0  0  0  0
    8.5674  -14.6457   22.9896 C   0  0  0  0  0  0  0  0  0  0  0  0
    9.7624  -14.8234   23.2654 O   0  0  0  0  0  0  0  0  0  0  0  0
    6.0079  -11.3529   26.5674 C   0  0  0  0  0  0  0  0  0  0  0  0
    7.1658  -12.1243   25.8976 C   0  0  0  0  0  0  0  0  0  0  0  0
    7.1283  -13.5701   26.2924 C   0  0  2  0  0  0  0  0  0  0  0  0
    7.8125  -13.6093   27.6724 C   0  0  0  0  0  0  0  0  0  0  0  0
    7.9325  -14.4795   25.4007 C   0  0  2  0  0  0  0  0  0  0  0  0
    7.6413  -14.4574   24.0188 N   0  0  0  0  0  0  0  0  0  0  0  0
    7.9854  -15.8494   25.8791 C   0  0  0  0  0  0  0  0  0  0  0  0
    6.9689  -16.5583   25.9638 O   0  0  0  0  0  0  0  0  0  0  0  0
    8.9686  -18.8431   24.5787 C   0  0  0  0  0  0  0  0  0  0  0  0
    9.9093  -18.7158   25.7549 C   0  0  1  0  0  0  0  0  0  0  0  0
   11.1602  -18.3335   25.3388 O   0  0  0  0  0  0  0  0  0  0  0  0
    9.3187  -17.7693   26.7798 C   0  0  2  0  0  0  0  0  0  0  0  0
    9.2271  -16.4188   26.2682 N   0  0  0  0  0  0  0  0  0  0  0  0
   10.1108  -17.7541   28.0160 C   0  0  0  0  0  0  0  0  0  0  0  0
   10.6974  -16.7363   28.3995 O   0  0  0  0  0  0  0  0  0  0  0  0
   10.2111  -18.9103   28.7844 O   0  0  0  0  0  0  0  0  0  0  0  0
  2  1  1  1
  2  4  1  0
  3  2  1  0
  5  4  1  0
  5  6  1  6
  7  5  1  0
  8  7  2  0
  9 10  1  0
 11 10  1  0
 11 13  1  0
 11 12  1  1
 13 14  1  6
 14  7  1  0
 15 16  2  0
 15 13  1  0
 18 17  1  6
 18 20  1  0
 19 18  1  0
 20 21  1  6
 21 15  1  0
 22 20  1  0
 23 22  2  0
 24 22  1  0
M  END
$$$$
