LIT.pdb
     RDKit          3D

 24 23  0  0  1  0  0  0  0  0999 V2000
    9.3571  -13.2059   20.4881 C   0  0  0  0  0  0  0  0  0  0  0  0
    8.0457  -13.3464   19.7155 C   0  0  2  0  0  0  0  0  0  0  0  0
    7.6109  -11.9888   19.1815 C   0  0  0  0  0  0  0  0  0  0  0  0
    6.9476  -13.8223   20.6376 C   0  0  0  0  0  0  0  0  0  0  0  0
    7.4074  -15.1077   21.2754 C   0  0  2  0  0  0  0  0  0  0  0  0
    6.2836  -15.9824   21.5426 N   0  0  0  0  0  0  0  0  0  0  0  0
    8.1275  -14.8094   22.5685 C   0  0  0  0  0  0  0  0  0  0  0  0
    9.3018  -14.4140   22.5855 O   0  0  0  0  0  0  0  0  0  0  0  0
    5.8912  -11.7576   26.2424 C   0  0  0  0  0  0  0  0  0  0  0  0
    6.9330  -12.5064   25.3832 C   0  0  0  0  0  0  0  0  0  0  0  0
    7.2373  -13.8472   25.9809 C   0  0  2  0  0  0  0  0  0  0  0  0
    8.1989  -13.5396   27.1448 C   0  0  0  0  0  0  0  0  0  0  0  0
    7.9778  -14.7840   25.0627 C   0  0  2  0  0  0  0  0  0  0  0  0
    7.4409  -14.9878   23.7724 N   0  0  0  0  0  0  0  0  0  0  0  0
    8.2939  -16.0594   25.6805 C   0  0  0  0  0  0  0  0  0  0  0  0
    7.4117  -16.8212   26.1096 O   0  0  0  0  0  0  0  0  0  0  0  0
   10.0004  -18.8933   24.1532 C   0  0  0  0  0  0  0  0  0  0  0  0
   10.8285  -18.5737   25.3766 C   0  0  1  0  0  0  0  0  0  0  0  0
   11.9973  -17.9467   25.0233 O   0  0  0  0  0  0  0  0  0  0  0  0
   10.0020  -17.7635   26.3542 C   0  0  2  0  0  0  0  0  0  0  0  0
    9.6474  -16.4707   25.8093 N   0  0  0  0  0  0  0  0  0  0  0  0
   10.7141  -17.5631   27.6224 C   0  0  0  0  0  0  0  0  0  0  0  0
   11.1061  -16.4465   27.9783 O   0  0  0  0  0  0  0  0  0  0  0  0
   10.9601  -18.6517   28.4541 O   0  0  0  0  0  0  0  0  0  0  0  0
  2  1  1  1
  2  4  1  0
  3  2  1  0
  5  4  1  0
  5  6  1  1
  7  5  1  0
  8  7  2  0
  9 10  1  0
 11 10  1  0
 11 13  1  0
 11 12  1  1
 13 14  1  6
 14  7  1  0
 15 16  2  0
 15 13  1  0
 18 17  1  6
 18 20  1  0
 19 18  1  0
 20 21  1  6
 21 15  1  0
 22 20  1  0
 23 22  2  0
 24 22  1  0
M  END
$$$$
