LIT.pdb
     RDKit          3D

 24 23  0  0  1  0  0  0  0  0999 V2000
    8.2113  -14.5054   18.4059 C   0  0  0  0  0  0  0  0  0  0  0  0
    7.4728  -13.6026   19.3939 C   0  0  2  0  0  0  0  0  0  0  0  0
    7.3735  -12.1914   18.8320 C   0  0  0  0  0  0  0  0  0  0  0  0
    8.2489  -13.5019   20.6861 C   0  0  0  0  0  0  0  0  0  0  0  0
    8.1690  -14.8391   21.3761 C   0  0  2  0  0  0  0  0  0  0  0  0
    6.8062  -15.3310   21.3926 N   0  0  0  0  0  0  0  0  0  0  0  0
    8.6731  -14.7153   22.7940 C   0  0  0  0  0  0  0  0  0  0  0  0
    9.8434  -14.3944   23.0449 O   0  0  0  0  0  0  0  0  0  0  0  0
    5.8577  -11.8864   26.2778 C   0  0  0  0  0  0  0  0  0  0  0  0
    7.0230  -12.5922   25.5511 C   0  0  0  0  0  0  0  0  0  0  0  0
    7.1817  -13.9947   26.0566 C   0  0  2  0  0  0  0  0  0  0  0  0
    7.8832  -13.8348   27.4191 C   0  0  0  0  0  0  0  0  0  0  0  0
    8.0869  -14.8593   25.2188 C   0  0  2  0  0  0  0  0  0  0  0  0
    7.7867  -14.9718   23.8433 N   0  0  0  0  0  0  0  0  0  0  0  0
    8.3123  -16.1745   25.7911 C   0  0  0  0  0  0  0  0  0  0  0  0
    7.3752  -16.9142   26.1340 O   0  0  0  0  0  0  0  0  0  0  0  0
    9.8136  -19.1504   24.3437 C   0  0  0  0  0  0  0  0  0  0  0  0
   10.6820  -18.8254   25.5373 C   0  0  1  0  0  0  0  0  0  0  0  0
   11.8588  -18.2417   25.1390 O   0  0  0  0  0  0  0  0  0  0  0  0
    9.9048  -17.9677   26.5148 C   0  0  2  0  0  0  0  0  0  0  0  0
    9.6374  -16.6523   25.9744 N   0  0  0  0  0  0  0  0  0  0  0  0
   10.6220  -17.8195   27.7873 C   0  0  0  0  0  0  0  0  0  0  0  0
   11.0455  -16.7237   28.1708 O   0  0  0  0  0  0  0  0  0  0  0  0
   10.8366  -18.9351   28.5915 O   0  0  0  0  0  0  0  0  0  0  0  0
  2  1  1  6
  2  4  1  0
  3  2  1  0
  5  4  1  0
  5  6  1  1
  7  5  1  0
  8  7  2  0
  9 10  1  0
 11 10  1  0
 11 13  1  0
 11 12  1  1
 13 14  1  6
 14  7  1  0
 15 16  2  0
 15 13  1  0
 18 17  1  6
 18 20  1  0
 19 18  1  0
 20 21  1  6
 21 15  1  0
 22 20  1  0
 23 22  2  0
 24 22  1  0
M  END
$$$$
