LIT.pdb
     RDKit          3D

 24 23  0  0  1  0  0  0  0  0999 V2000
    5.6788  -15.5553   19.5099 C   0  0  0  0  0  0  0  0  0  0  0  0
    6.8927  -16.4753   19.6375 C   0  0  2  0  0  0  0  0  0  0  0  0
    6.4653  -17.9251   19.4573 C   0  0  0  0  0  0  0  0  0  0  0  0
    7.4842  -16.3660   21.0234 C   0  0  0  0  0  0  0  0  0  0  0  0
    7.7927  -14.9133   21.2786 C   0  0  2  0  0  0  0  0  0  0  0  0
    8.7128  -14.3986   20.2847 N   0  0  0  0  0  0  0  0  0  0  0  0
    8.3986  -14.7516   22.6521 C   0  0  0  0  0  0  0  0  0  0  0  0
    9.6243  -14.7786   22.8321 O   0  0  0  0  0  0  0  0  0  0  0  0
    5.9615  -11.4088   26.3602 C   0  0  0  0  0  0  0  0  0  0  0  0
    7.0437  -12.1601   25.5548 C   0  0  0  0  0  0  0  0  0  0  0  0
    7.1274  -13.5898   25.9984 C   0  0  2  0  0  0  0  0  0  0  0  0
    7.8855  -13.5322   27.3386 C   0  0  0  0  0  0  0  0  0  0  0  0
    7.9438  -14.4751   25.0936 C   0  0  2  0  0  0  0  0  0  0  0  0
    7.5440  -14.5672   23.7421 N   0  0  0  0  0  0  0  0  0  0  0  0
    8.1677  -15.8012   25.6408 C   0  0  0  0  0  0  0  0  0  0  0  0
    7.2317  -16.5791   25.8892 O   0  0  0  0  0  0  0  0  0  0  0  0
    9.7924  -18.6526   24.2075 C   0  0  0  0  0  0  0  0  0  0  0  0
   10.5869  -18.3916   25.4666 C   0  0  1  0  0  0  0  0  0  0  0  0
   11.7920  -17.8058   25.1693 O   0  0  0  0  0  0  0  0  0  0  0  0
    9.7579  -17.5682   26.4309 C   0  0  2  0  0  0  0  0  0  0  0  0
    9.4899  -16.2455   25.9090 N   0  0  0  0  0  0  0  0  0  0  0  0
   10.4222  -17.4370   27.7337 C   0  0  0  0  0  0  0  0  0  0  0  0
   10.8357  -16.3477   28.1456 O   0  0  0  0  0  0  0  0  0  0  0  0
   10.5966  -18.5619   28.5347 O   0  0  0  0  0  0  0  0  0  0  0  0
  2  1  1  1
  2  4  1  0
  3  2  1  0
  5  4  1  0
  5  6  1  6
  7  5  1  0
  8  7  2  0
  9 10  1  0
 11 10  1  0
 11 13  1  0
 11 12  1  1
 13 14  1  6
 14  7  1  0
 15 16  2  0
 15 13  1  0
 18 17  1  6
 18 20  1  0
 19 18  1  0
 20 21  1  6
 21 15  1  0
 22 20  1  0
 23 22  2  0
 24 22  1  0
M  END
$$$$
