LIT.pdb
     RDKit          3D

 24 23  0  0  1  0  0  0  0  0999 V2000
    8.0996  -14.4459   18.4739 C   0  0  0  0  0  0  0  0  0  0  0  0
    7.5024  -13.4411   19.4588 C   0  0  2  0  0  0  0  0  0  0  0  0
    7.6169  -12.0319   18.8947 C   0  0  0  0  0  0  0  0  0  0  0  0
    8.2818  -13.4556   20.7529 C   0  0  0  0  0  0  0  0  0  0  0  0
    8.0448  -14.7868   21.4179 C   0  0  2  0  0  0  0  0  0  0  0  0
    6.6289  -15.0887   21.4787 N   0  0  0  0  0  0  0  0  0  0  0  0
    8.6129  -14.7694   22.8167 C   0  0  0  0  0  0  0  0  0  0  0  0
    9.8242  -14.6144   23.0273 O   0  0  0  0  0  0  0  0  0  0  0  0
    5.8543  -11.8420   26.3083 C   0  0  0  0  0  0  0  0  0  0  0  0
    7.0054  -12.5493   25.5605 C   0  0  0  0  0  0  0  0  0  0  0  0
    7.2230  -13.9245   26.1165 C   0  0  2  0  0  0  0  0  0  0  0  0
    8.0110  -13.6917   27.4199 C   0  0  0  0  0  0  0  0  0  0  0  0
    8.0858  -14.8128   25.2589 C   0  0  2  0  0  0  0  0  0  0  0  0
    7.7394  -14.9334   23.8950 N   0  0  0  0  0  0  0  0  0  0  0  0
    8.3070  -16.1262   25.8371 C   0  0  0  0  0  0  0  0  0  0  0  0
    7.3744  -16.9180   26.0521 O   0  0  0  0  0  0  0  0  0  0  0  0
   11.2406  -19.9445   26.2045 C   0  0  0  0  0  0  0  0  0  0  0  0
   10.9507  -18.5467   25.7078 C   0  0  1  0  0  0  0  0  0  0  0  0
   10.5829  -18.5662   24.3856 O   0  0  0  0  0  0  0  0  0  0  0  0
    9.9095  -17.8961   26.5954 C   0  0  2  0  0  0  0  0  0  0  0  0
    9.6225  -16.5412   26.1759 N   0  0  0  0  0  0  0  0  0  0  0  0
   10.3378  -17.8757   27.9996 C   0  0  0  0  0  0  0  0  0  0  0  0
   10.8546  -16.8743   28.5070 O   0  0  0  0  0  0  0  0  0  0  0  0
   10.1625  -19.0079   28.7901 O   0  0  0  0  0  0  0  0  0  0  0  0
  2  1  1  6
  2  4  1  0
  3  2  1  0
  5  4  1  0
  5  6  1  1
  7  5  1  0
  8  7  2  0
  9 10  1  0
 11 10  1  0
 11 13  1  0
 11 12  1  1
 13 14  1  6
 14  7  1  0
 15 16  2  0
 15 13  1  0
 18 17  1  1
 18 20  1  0
 19 18  1  0
 20 21  1  6
 21 15  1  0
 22 20  1  0
 23 22  2  0
 24 22  1  0
M  END
$$$$
