LIT.pdb
     RDKit          3D

 24 23  0  0  1  0  0  0  0  0999 V2000
    8.6943  -20.6321   28.3736 C   0  0  0  0  0  0  0  0  0  0  0  0
    7.3768  -19.9074   28.6482 C   0  0  2  0  0  0  0  0  0  0  0  0
    6.2611  -20.9217   28.8566 C   0  0  0  0  0  0  0  0  0  0  0  0
    6.9851  -19.0704   27.4531 C   0  0  0  0  0  0  0  0  0  0  0  0
    8.1092  -18.1051   27.1791 C   0  0  2  0  0  0  0  0  0  0  0  0
    8.3885  -17.2931   28.3463 N   0  0  0  0  0  0  0  0  0  0  0  0
    7.7435  -17.2075   26.0214 C   0  0  0  0  0  0  0  0  0  0  0  0
    7.1327  -17.6352   25.0316 O   0  0  0  0  0  0  0  0  0  0  0  0
    6.5448  -12.1028   27.2297 C   0  0  0  0  0  0  0  0  0  0  0  0
    6.4033  -13.3320   26.3060 C   0  0  0  0  0  0  0  0  0  0  0  0
    7.6292  -13.4928   25.4580 C   0  0  2  0  0  0  0  0  0  0  0  0
    7.3004  -12.7315   24.1594 C   0  0  0  0  0  0  0  0  0  0  0  0
    7.9204  -14.9127   25.0484 C   0  0  2  0  0  0  0  0  0  0  0  0
    8.1089  -15.8601   26.0789 N   0  0  0  0  0  0  0  0  0  0  0  0
    8.9881  -15.0184   24.0701 C   0  0  0  0  0  0  0  0  0  0  0  0
   10.1095  -14.5194   24.2608 O   0  0  0  0  0  0  0  0  0  0  0  0
   11.0363  -17.7376   22.7502 C   0  0  0  0  0  0  0  0  0  0  0  0
   10.2037  -17.2438   21.5894 C   0  0  1  0  0  0  0  0  0  0  0  0
    9.1315  -18.0726   21.3718 O   0  0  0  0  0  0  0  0  0  0  0  0
    9.7924  -15.8061   21.8323 C   0  0  2  0  0  0  0  0  0  0  0  0
    8.7672  -15.7092   22.8488 N   0  0  0  0  0  0  0  0  0  0  0  0
    9.3003  -15.1732   20.6022 C   0  0  0  0  0  0  0  0  0  0  0  0
   10.0501  -14.9339   19.6495 O   0  0  0  0  0  0  0  0  0  0  0  0
    7.9559  -14.8291   20.4946 O   0  0  0  0  0  0  0  0  0  0  0  0
  2  1  1  6
  2  4  1  0
  3  2  1  0
  5  4  1  0
  5  6  1  1
  7  5  1  0
  8  7  2  0
  9 10  1  0
 11 10  1  0
 11 13  1  0
 11 12  1  6
 13 14  1  1
 14  7  1  0
 15 16  2  0
 15 13  1  0
 18 17  1  1
 18 20  1  0
 19 18  1  0
 20 21  1  1
 21 15  1  0
 22 20  1  0
 23 22  2  0
 24 22  1  0
M  END
$$$$
