LIT.pdb
     RDKit          3D

 24 23  0  0  1  0  0  0  0  0999 V2000
    7.8898  -12.6165   19.3365 C   0  0  0  0  0  0  0  0  0  0  0  0
    7.6093  -14.1110   19.4918 C   0  0  2  0  0  0  0  0  0  0  0  0
    6.2553  -14.4500   18.8846 C   0  0  0  0  0  0  0  0  0  0  0  0
    7.5325  -14.4760   20.9558 C   0  0  0  0  0  0  0  0  0  0  0  0
    8.8492  -14.1106   21.5907 C   0  0  2  0  0  0  0  0  0  0  0  0
    9.9547  -14.6995   20.8624 N   0  0  0  0  0  0  0  0  0  0  0  0
    8.8797  -14.5925   23.0213 C   0  0  0  0  0  0  0  0  0  0  0  0
    9.7948  -15.3105   23.4488 O   0  0  0  0  0  0  0  0  0  0  0  0
    6.1078  -11.1792   26.4479 C   0  0  0  0  0  0  0  0  0  0  0  0
    7.2566  -12.0490   25.8929 C   0  0  0  0  0  0  0  0  0  0  0  0
    6.9574  -13.5036   26.0983 C   0  0  2  0  0  0  0  0  0  0  0  0
    7.3378  -13.7703   27.5673 C   0  0  0  0  0  0  0  0  0  0  0  0
    7.8035  -14.4356   25.2711 C   0  0  2  0  0  0  0  0  0  0  0  0
    7.8426  -14.2121   23.8770 N   0  0  0  0  0  0  0  0  0  0  0  0
    7.5462  -15.8379   25.5461 C   0  0  0  0  0  0  0  0  0  0  0  0
    6.4100  -16.3310   25.4520 O   0  0  0  0  0  0  0  0  0  0  0  0
    8.2491  -18.7913   23.8600 C   0  0  0  0  0  0  0  0  0  0  0  0
    8.9943  -18.9852   25.1607 C   0  0  1  0  0  0  0  0  0  0  0  0
   10.3396  -18.7753   24.9871 O   0  0  0  0  0  0  0  0  0  0  0  0
    8.3957  -18.0934   26.2290 C   0  0  2  0  0  0  0  0  0  0  0  0
    8.6113  -16.6926   25.9366 N   0  0  0  0  0  0  0  0  0  0  0  0
    8.9554  -18.3917   27.5532 C   0  0  0  0  0  0  0  0  0  0  0  0
    9.6202  -17.5598   28.1803 O   0  0  0  0  0  0  0  0  0  0  0  0
    8.7382  -19.6408   28.1277 O   0  0  0  0  0  0  0  0  0  0  0  0
  2  1  1  1
  2  4  1  0
  3  2  1  0
  5  4  1  0
  5  6  1  6
  7  5  1  0
  8  7  2  0
  9 10  1  0
 11 10  1  0
 11 13  1  0
 11 12  1  1
 13 14  1  6
 14  7  1  0
 15 16  2  0
 15 13  1  0
 18 17  1  6
 18 20  1  0
 19 18  1  0
 20 21  1  6
 21 15  1  0
 22 20  1  0
 23 22  2  0
 24 22  1  0
M  END
$$$$
