LIT.pdb
     RDKit          3D

 24 23  0  0  1  0  0  0  0  0999 V2000
    8.3190  -14.5336   18.5250 C   0  0  0  0  0  0  0  0  0  0  0  0
    7.5320  -13.6470   19.4899 C   0  0  2  0  0  0  0  0  0  0  0  0
    7.4101  -12.2410   18.9195 C   0  0  0  0  0  0  0  0  0  0  0  0
    8.2720  -13.5211   20.8010 C   0  0  0  0  0  0  0  0  0  0  0  0
    8.2398  -14.8666   21.4786 C   0  0  2  0  0  0  0  0  0  0  0  0
    6.9009  -15.4204   21.4633 N   0  0  0  0  0  0  0  0  0  0  0  0
    8.7092  -14.7325   22.9073 C   0  0  0  0  0  0  0  0  0  0  0  0
    9.8775  -14.4262   23.1844 O   0  0  0  0  0  0  0  0  0  0  0  0
    5.8290  -11.8508   26.2737 C   0  0  0  0  0  0  0  0  0  0  0  0
    7.0135  -12.5700   25.5926 C   0  0  0  0  0  0  0  0  0  0  0  0
    7.1602  -13.9614   26.1315 C   0  0  2  0  0  0  0  0  0  0  0  0
    7.8567  -13.7745   27.4931 C   0  0  0  0  0  0  0  0  0  0  0  0
    8.0631  -14.8515   25.3182 C   0  0  2  0  0  0  0  0  0  0  0  0
    7.7924  -14.9624   23.9365 N   0  0  0  0  0  0  0  0  0  0  0  0
    8.2426  -16.1694   25.9004 C   0  0  0  0  0  0  0  0  0  0  0  0
    7.2855  -16.9313   26.1161 O   0  0  0  0  0  0  0  0  0  0  0  0
    9.8802  -19.0547   24.6106 C   0  0  0  0  0  0  0  0  0  0  0  0
   10.6159  -18.8020   25.9066 C   0  0  1  0  0  0  0  0  0  0  0  0
   11.8554  -18.2637   25.6659 O   0  0  0  0  0  0  0  0  0  0  0  0
    9.7673  -17.9347   26.8138 C   0  0  2  0  0  0  0  0  0  0  0  0
    9.5440  -16.6241   26.2425 N   0  0  0  0  0  0  0  0  0  0  0  0
   10.3851  -17.7754   28.1361 C   0  0  0  0  0  0  0  0  0  0  0  0
   10.7921  -16.6790   28.5355 O   0  0  0  0  0  0  0  0  0  0  0  0
   10.5215  -18.8809   28.9708 O   0  0  0  0  0  0  0  0  0  0  0  0
  2  1  1  6
  2  4  1  0
  3  2  1  0
  5  4  1  0
  5  6  1  1
  7  5  1  0
  8  7  2  0
  9 10  1  0
 11 10  1  0
 11 13  1  0
 11 12  1  1
 13 14  1  6
 14  7  1  0
 15 16  2  0
 15 13  1  0
 18 17  1  6
 18 20  1  0
 19 18  1  0
 20 21  1  6
 21 15  1  0
 22 20  1  0
 23 22  2  0
 24 22  1  0
M  END
$$$$
