LIT.pdb
     RDKit          3D

 24 23  0  0  1  0  0  0  0  0999 V2000
    5.6013  -16.2108   19.9464 C   0  0  0  0  0  0  0  0  0  0  0  0
    6.8426  -17.0962   20.0546 C   0  0  2  0  0  0  0  0  0  0  0  0
    6.4358  -18.5630   20.0393 C   0  0  0  0  0  0  0  0  0  0  0  0
    7.5411  -16.8530   21.3719 C   0  0  0  0  0  0  0  0  0  0  0  0
    7.7983  -15.3730   21.4899 C   0  0  2  0  0  0  0  0  0  0  0  0
    8.6947  -14.9198   20.4456 N   0  0  0  0  0  0  0  0  0  0  0  0
    8.4042  -15.0638   22.8379 C   0  0  0  0  0  0  0  0  0  0  0  0
    9.6304  -14.9883   23.0005 O   0  0  0  0  0  0  0  0  0  0  0  0
    5.9606  -11.4788   26.1119 C   0  0  0  0  0  0  0  0  0  0  0  0
    7.0914  -12.2974   25.4523 C   0  0  0  0  0  0  0  0  0  0  0  0
    7.1868  -13.6563   26.0783 C   0  0  2  0  0  0  0  0  0  0  0  0
    8.0078  -13.4308   27.3626 C   0  0  0  0  0  0  0  0  0  0  0  0
    7.9537  -14.6644   25.2631 C   0  0  2  0  0  0  0  0  0  0  0  0
    7.5492  -14.8594   23.9240 N   0  0  0  0  0  0  0  0  0  0  0  0
    8.1054  -15.9444   25.9315 C   0  0  0  0  0  0  0  0  0  0  0  0
    7.1347  -16.5659   26.3947 O   0  0  0  0  0  0  0  0  0  0  0  0
    9.6062  -19.0375   24.5484 C   0  0  0  0  0  0  0  0  0  0  0  0
   10.3805  -18.7528   25.8149 C   0  0  1  0  0  0  0  0  0  0  0  0
   11.6323  -18.2717   25.5226 O   0  0  0  0  0  0  0  0  0  0  0  0
    9.5846  -17.8147   26.6990 C   0  0  2  0  0  0  0  0  0  0  0  0
    9.3943  -16.5244   26.0723 N   0  0  0  0  0  0  0  0  0  0  0  0
   10.2385  -17.6175   27.9987 C   0  0  0  0  0  0  0  0  0  0  0  0
   10.6609  -16.5114   28.3525 O   0  0  0  0  0  0  0  0  0  0  0  0
   10.3925  -18.6972   28.8636 O   0  0  0  0  0  0  0  0  0  0  0  0
  2  1  1  1
  2  4  1  0
  3  2  1  0
  5  4  1  0
  5  6  1  6
  7  5  1  0
  8  7  2  0
  9 10  1  0
 11 10  1  0
 11 13  1  0
 11 12  1  1
 13 14  1  6
 14  7  1  0
 15 16  2  0
 15 13  1  0
 18 17  1  6
 18 20  1  0
 19 18  1  0
 20 21  1  6
 21 15  1  0
 22 20  1  0
 23 22  2  0
 24 22  1  0
M  END
$$$$
