CNV.pdb
     RDKit          3D

 22 21  0  0  1  0  0  0  0  0999 V2000
   18.7941  -15.0015  -17.0799 N   0  0  0  0  0  0  0  0  0  0  0  0
   18.3020  -13.6602  -17.0145 C   0  0  1  0  0  0  0  0  0  0  0  0
   16.9376  -13.5813  -16.3930 C   0  0  0  0  0  0  0  0  0  0  0  0
   15.6929  -14.3700  -17.4512 S   0  0  0  0  0  0  0  0  0  0  0  0
   19.2052  -12.7446  -16.2722 C   0  0  0  0  0  0  0  0  0  0  0  0
   18.8649  -12.4648  -15.0845 O   0  0  0  0  0  0  0  0  0  0  0  0
   24.9118  -11.4944  -15.1007 N   0  0  0  0  0  0  0  0  0  0  0  0
   23.6519  -10.9203  -15.4250 C   0  0  0  0  0  0  0  0  0  0  0  0
   23.4136   -9.7726  -14.9818 O   0  0  0  0  0  0  0  0  0  0  0  0
   22.7304  -11.7080  -16.2486 C   0  0  0  0  0  0  0  0  0  0  0  0
   21.2822  -11.3655  -16.0459 C   0  0  2  0  0  0  0  0  0  0  0  0
   20.3872  -12.1903  -16.8133 N   0  0  0  0  0  0  0  0  0  0  0  0
   21.0020   -9.9368  -16.3477 C   0  0  0  0  0  0  0  0  0  0  0  0
   21.2202   -9.4726  -17.5196 O   0  0  0  0  0  0  0  0  0  0  0  0
   18.1408   -7.4270  -14.4730 C   0  0  0  0  0  0  0  0  0  0  0  0
   18.8590   -7.2314  -15.7693 C   0  0  2  0  0  0  0  0  0  0  0  0
   18.1825   -7.9228  -16.9248 C   0  0  0  0  0  0  0  0  0  0  0  0
   20.3159   -7.6271  -15.7007 C   0  0  2  0  0  0  0  0  0  0  0  0
   20.4966   -9.0230  -15.4083 N   0  0  0  0  0  0  0  0  0  0  0  0
   21.0908   -6.7463  -14.8102 C   0  0  0  0  0  0  0  0  0  0  0  0
   21.6548   -7.2527  -13.6646 O   0  0  0  0  0  0  0  0  0  0  0  0
   21.2334   -5.5441  -15.0972 O   0  0  0  0  0  0  0  0  0  0  0  0
  2  1  1  1
  2  5  1  0
  2  3  1  0
  3  4  1  0
  5 12  1  0
  6  5  2  0
  7  8  1  0
  8 10  1  0
  9  8  2  0
 11 10  1  6
 11 13  1  0
 12 11  1  0
 13 14  2  0
 13 19  1  0
 16 15  1  1
 16 17  1  0
 18 16  1  0
 18 20  1  0
 18 19  1  1
 20 21  1  0
 22 20  2  0
M  END
$$$$
