CNV.pdb
     RDKit          3D

 22 21  0  0  1  0  0  0  0  0999 V2000
   22.3445  -13.7575  -19.4219 N   0  0  0  0  0  0  0  0  0  0  0  0
   22.1064  -12.3499  -19.5080 C   0  0  1  0  0  0  0  0  0  0  0  0
   20.8692  -12.0261  -20.2946 C   0  0  0  0  0  0  0  0  0  0  0  0
   21.0672  -12.4850  -22.0385 S   0  0  0  0  0  0  0  0  0  0  0  0
   21.9975  -11.6959  -18.1793 C   0  0  0  0  0  0  0  0  0  0  0  0
   21.1316  -12.1759  -17.3890 O   0  0  0  0  0  0  0  0  0  0  0  0
   23.8088  -12.3828  -15.5539 N   0  0  0  0  0  0  0  0  0  0  0  0
   24.5553  -11.2073  -15.2659 C   0  0  0  0  0  0  0  0  0  0  0  0
   25.6086  -11.3454  -14.6010 O   0  0  0  0  0  0  0  0  0  0  0  0
   24.0414   -9.9286  -15.7646 C   0  0  0  0  0  0  0  0  0  0  0  0
   22.7099  -10.0297  -16.4521 C   0  0  2  0  0  0  0  0  0  0  0  0
   22.7898  -10.5992  -17.7710 N   0  0  0  0  0  0  0  0  0  0  0  0
   22.0262   -8.7120  -16.5347 C   0  0  0  0  0  0  0  0  0  0  0  0
   22.4934   -7.7916  -17.2904 O   0  0  0  0  0  0  0  0  0  0  0  0
   17.8426   -7.9240  -15.8525 C   0  0  0  0  0  0  0  0  0  0  0  0
   18.8817   -7.1948  -16.6419 C   0  0  2  0  0  0  0  0  0  0  0  0
   19.0656   -7.7555  -18.0284 C   0  0  0  0  0  0  0  0  0  0  0  0
   20.2114   -7.1109  -15.9287 C   0  0  2  0  0  0  0  0  0  0  0  0
   20.8618   -8.3883  -15.8190 N   0  0  0  0  0  0  0  0  0  0  0  0
   20.1089   -6.4034  -14.6409 C   0  0  0  0  0  0  0  0  0  0  0  0
   20.3246   -7.0816  -13.4660 O   0  0  0  0  0  0  0  0  0  0  0  0
   19.8270   -5.1918  -14.6194 O   0  0  0  0  0  0  0  0  0  0  0  0
  2  1  1  1
  2  5  1  0
  2  3  1  0
  3  4  1  0
  5 12  1  0
  6  5  2  0
  7  8  1  0
  8 10  1  0
  9  8  2  0
 11 10  1  6
 11 13  1  0
 12 11  1  0
 13 14  2  0
 13 19  1  0
 16 15  1  1
 16 17  1  0
 18 16  1  0
 18 20  1  0
 18 19  1  1
 20 21  1  0
 22 20  2  0
M  END
$$$$
