CNV.pdb
     RDKit          3D

 22 21  0  0  1  0  0  0  0  0999 V2000
   27.1257  -31.0389  -16.3340 N   0  0  0  0  0  0  0  0  0  0  0  0
   25.7667  -30.7211  -16.6469 C   0  0  1  0  0  0  0  0  0  0  0  0
   24.8581  -31.9099  -16.5220 C   0  0  0  0  0  0  0  0  0  0  0  0
   23.5226  -31.8408  -17.7478 S   0  0  0  0  0  0  0  0  0  0  0  0
   25.2175  -29.6255  -15.8085 C   0  0  0  0  0  0  0  0  0  0  0  0
   25.2518  -29.8091  -14.5556 O   0  0  0  0  0  0  0  0  0  0  0  0
   26.2890  -25.1574  -17.4247 N   0  0  0  0  0  0  0  0  0  0  0  0
   25.8167  -25.6216  -16.1664 C   0  0  0  0  0  0  0  0  0  0  0  0
   26.6450  -25.6762  -15.2275 O   0  0  0  0  0  0  0  0  0  0  0  0
   24.4046  -25.9997  -16.0604 C   0  0  0  0  0  0  0  0  0  0  0  0
   24.1786  -27.3703  -15.4894 C   0  0  2  0  0  0  0  0  0  0  0  0
   24.6766  -28.4278  -16.3283 N   0  0  0  0  0  0  0  0  0  0  0  0
   22.7424  -27.6202  -15.1972 C   0  0  0  0  0  0  0  0  0  0  0  0
   21.9678  -28.0642  -16.1134 O   0  0  0  0  0  0  0  0  0  0  0  0
   20.4968  -26.7006  -11.3907 C   0  0  0  0  0  0  0  0  0  0  0  0
   20.5080  -27.9536  -12.2057 C   0  0  2  0  0  0  0  0  0  0  0  0
   21.4647  -28.9899  -11.6750 C   0  0  0  0  0  0  0  0  0  0  0  0
   20.7695  -27.6997  -13.6723 C   0  0  2  0  0  0  0  0  0  0  0  0
   22.1485  -27.3976  -13.9440 N   0  0  0  0  0  0  0  0  0  0  0  0
   19.8393  -26.7090  -14.2404 C   0  0  0  0  0  0  0  0  0  0  0  0
   18.5387  -27.0620  -14.5062 O   0  0  0  0  0  0  0  0  0  0  0  0
   20.2334  -25.5532  -14.4787 O   0  0  0  0  0  0  0  0  0  0  0  0
  2  1  1  1
  2  5  1  0
  2  3  1  0
  3  4  1  0
  5 12  1  0
  6  5  2  0
  7  8  1  0
  8 10  1  0
  9  8  2  0
 11 10  1  6
 11 13  1  0
 12 11  1  0
 13 14  2  0
 13 19  1  0
 16 15  1  1
 16 17  1  0
 18 16  1  0
 18 20  1  0
 18 19  1  1
 20 21  1  0
 22 20  2  0
M  END
$$$$
