CNV.pdb
     RDKit          3D

 22 21  0  0  1  0  0  0  0  0999 V2000
   17.1127  -15.4407  -18.5531 N   0  0  0  0  0  0  0  0  0  0  0  0
   17.5217  -14.6838  -17.4106 C   0  0  1  0  0  0  0  0  0  0  0  0
   18.6209  -15.3580  -16.6415 C   0  0  0  0  0  0  0  0  0  0  0  0
   18.0421  -16.9111  -15.9038 S   0  0  0  0  0  0  0  0  0  0  0  0
   17.9684  -13.3096  -17.7526 C   0  0  0  0  0  0  0  0  0  0  0  0
   17.7395  -12.9258  -18.9378 O   0  0  0  0  0  0  0  0  0  0  0  0
   18.3046   -8.3806  -19.0226 N   0  0  0  0  0  0  0  0  0  0  0  0
   17.9149   -8.8501  -17.7382 C   0  0  0  0  0  0  0  0  0  0  0  0
   17.7980   -7.9976  -16.8271 O   0  0  0  0  0  0  0  0  0  0  0  0
   17.6801  -10.2876  -17.5751 C   0  0  0  0  0  0  0  0  0  0  0  0
   18.8951  -11.0627  -17.1524 C   0  0  2  0  0  0  0  0  0  0  0  0
   18.6155  -12.4403  -16.8454 N   0  0  0  0  0  0  0  0  0  0  0  0
   19.5762  -10.4363  -15.9888 C   0  0  0  0  0  0  0  0  0  0  0  0
   19.0608  -10.5195  -14.8209 O   0  0  0  0  0  0  0  0  0  0  0  0
   23.6936   -9.0150  -16.0470 C   0  0  0  0  0  0  0  0  0  0  0  0
   22.9256   -9.5541  -14.8835 C   0  0  2  0  0  0  0  0  0  0  0  0
   23.0917  -11.0417  -14.7096 C   0  0  0  0  0  0  0  0  0  0  0  0
   21.4593   -9.1910  -14.9269 C   0  0  2  0  0  0  0  0  0  0  0  0
   20.7890   -9.7332  -16.0773 N   0  0  0  0  0  0  0  0  0  0  0  0
   21.2387   -7.7444  -14.7595 C   0  0  0  0  0  0  0  0  0  0  0  0
   21.4969   -7.1459  -13.5503 O   0  0  0  0  0  0  0  0  0  0  0  0
   20.8185   -7.0663  -15.7143 O   0  0  0  0  0  0  0  0  0  0  0  0
  2  1  1  6
  2  5  1  0
  2  3  1  0
  3  4  1  0
  5 12  1  0
  6  5  2  0
  7  8  1  0
  8 10  1  0
  9  8  2  0
 11 10  1  1
 11 13  1  0
 12 11  1  0
 13 14  2  0
 13 19  1  0
 16 15  1  6
 16 17  1  0
 18 16  1  0
 18 20  1  0
 18 19  1  6
 20 21  1  0
 22 20  2  0
M  END
$$$$
