CNV.pdb
     RDKit          3D

 22 21  0  0  1  0  0  0  0  0999 V2000
   14.4041  -13.7378  -12.5697 N   0  0  0  0  0  0  0  0  0  0  0  0
   14.0897  -12.3433  -12.6168 C   0  0  1  0  0  0  0  0  0  0  0  0
   12.7234  -12.0464  -12.0696 C   0  0  0  0  0  0  0  0  0  0  0  0
   11.4293  -12.7248  -13.1449 S   0  0  0  0  0  0  0  0  0  0  0  0
   15.0743  -11.5001  -11.8926 C   0  0  0  0  0  0  0  0  0  0  0  0
   15.5653  -11.9962  -10.8356 O   0  0  0  0  0  0  0  0  0  0  0  0
   18.5343   -8.1211  -10.3771 N   0  0  0  0  0  0  0  0  0  0  0  0
   18.7670   -8.4746  -11.7346 C   0  0  0  0  0  0  0  0  0  0  0  0
   19.8647   -8.1356  -12.2354 O   0  0  0  0  0  0  0  0  0  0  0  0
   17.7127   -9.2049  -12.4440 C   0  0  0  0  0  0  0  0  0  0  0  0
   16.4756   -9.4428  -11.6262 C   0  0  2  0  0  0  0  0  0  0  0  0
   15.4744  -10.2123  -12.3157 N   0  0  0  0  0  0  0  0  0  0  0  0
   15.8682   -8.1701  -11.1551 C   0  0  0  0  0  0  0  0  0  0  0  0
   15.2692   -7.3991  -11.9815 O   0  0  0  0  0  0  0  0  0  0  0  0
   13.6062   -5.3475   -7.9916 C   0  0  0  0  0  0  0  0  0  0  0  0
   14.2134   -6.6475   -8.4107 C   0  0  2  0  0  0  0  0  0  0  0  0
   14.6597   -7.4898   -7.2436 C   0  0  0  0  0  0  0  0  0  0  0  0
   15.3445   -6.4777   -9.3985 C   0  0  2  0  0  0  0  0  0  0  0  0
   15.9034   -7.7332   -9.8206 N   0  0  0  0  0  0  0  0  0  0  0  0
   16.3615   -5.5248   -8.9221 C   0  0  0  0  0  0  0  0  0  0  0  0
   17.5872   -5.9816   -8.5027 O   0  0  0  0  0  0  0  0  0  0  0  0
   16.1085   -4.3068   -8.9002 O   0  0  0  0  0  0  0  0  0  0  0  0
  2  1  1  1
  2  5  1  0
  2  3  1  0
  3  4  1  0
  5 12  1  0
  6  5  2  0
  7  8  1  0
  8 10  1  0
  9  8  2  0
 11 10  1  6
 11 13  1  0
 12 11  1  0
 13 14  2  0
 13 19  1  0
 16 15  1  1
 16 17  1  0
 18 16  1  0
 18 20  1  0
 18 19  1  1
 20 21  1  0
 22 20  2  0
M  END
$$$$
