CNV.pdb
     RDKit          3D

 22 21  0  0  1  0  0  0  0  0999 V2000
   28.9566  -21.1985  -16.0510 N   0  0  0  0  0  0  0  0  0  0  0  0
   28.0900  -20.3367  -15.3081 C   0  0  1  0  0  0  0  0  0  0  0  0
   27.3109  -19.4076  -16.1936 C   0  0  0  0  0  0  0  0  0  0  0  0
   26.0065  -20.2987  -17.0856 S   0  0  0  0  0  0  0  0  0  0  0  0
   27.1297  -21.0764  -14.4503 C   0  0  0  0  0  0  0  0  0  0  0  0
   27.5311  -22.1858  -13.9893 O   0  0  0  0  0  0  0  0  0  0  0  0
   25.8288  -22.2274  -10.5920 N   0  0  0  0  0  0  0  0  0  0  0  0
   26.4007  -20.9256  -10.6099 C   0  0  0  0  0  0  0  0  0  0  0  0
   27.1233  -20.6033   -9.6381 O   0  0  0  0  0  0  0  0  0  0  0  0
   26.1049  -20.0618  -11.7564 C   0  0  0  0  0  0  0  0  0  0  0  0
   25.2670  -20.7168  -12.8168 C   0  0  2  0  0  0  0  0  0  0  0  0
   25.8319  -20.6134  -14.1361 N   0  0  0  0  0  0  0  0  0  0  0  0
   23.8812  -20.1787  -12.8405 C   0  0  0  0  0  0  0  0  0  0  0  0
   23.6731  -18.9302  -12.6552 O   0  0  0  0  0  0  0  0  0  0  0  0
   20.3755  -20.3765  -15.9488 C   0  0  0  0  0  0  0  0  0  0  0  0
   21.4798  -21.0095  -15.1649 C   0  0  2  0  0  0  0  0  0  0  0  0
   21.4036  -22.5144  -15.1543 C   0  0  0  0  0  0  0  0  0  0  0  0
   21.5788  -20.4788  -13.7534 C   0  0  2  0  0  0  0  0  0  0  0  0
   22.7393  -20.9669  -13.0592 N   0  0  0  0  0  0  0  0  0  0  0  0
   20.3302  -20.6727  -12.9967 C   0  0  0  0  0  0  0  0  0  0  0  0
   20.3179  -21.4848  -11.8889 O   0  0  0  0  0  0  0  0  0  0  0  0
   19.2878  -20.1002  -13.3624 O   0  0  0  0  0  0  0  0  0  0  0  0
  2  1  1  6
  2  5  1  0
  2  3  1  0
  3  4  1  0
  5 12  1  0
  6  5  2  0
  7  8  1  0
  8 10  1  0
  9  8  2  0
 11 10  1  1
 11 13  1  0
 12 11  1  0
 13 14  2  0
 13 19  1  0
 16 15  1  1
 16 17  1  0
 18 16  1  0
 18 20  1  0
 18 19  1  1
 20 21  1  0
 22 20  2  0
M  END
$$$$
