TEK.pdb
     RDKit          3D

 26 25  0  0  1  0  0  0  0  0999 V2000
    8.1210  -12.2912   18.8021 C   0  0  0  0  0  0  0  0  0  0  0  0
    8.5461  -13.3757   19.7438 C   0  0  1  0  0  0  0  0  0  0  0  0
    8.4390  -12.9113   21.0437 O   0  0  0  0  0  0  0  0  0  0  0  0
    7.7093  -14.6363   19.5411 C   0  0  2  0  0  0  0  0  0  0  0  0
    6.3147  -14.3905   19.7738 N   0  0  0  0  0  0  0  0  0  0  0  0
    8.2502  -15.6659   20.4592 C   0  0  0  0  0  0  0  0  0  0  0  0
    7.6586  -15.9621   21.5185 O   0  0  0  0  0  0  0  0  0  0  0  0
    9.4596  -16.3315   20.1377 N   0  0  0  0  0  0  0  0  0  0  0  0
   10.0154  -17.2617   21.0692 C   0  0  1  0  0  0  0  0  0  0  0  0
   11.0835  -18.0955   20.3479 C   0  0  0  0  0  0  0  0  0  0  0  0
   10.3830  -19.0443   19.4086 C   0  0  0  0  0  0  0  0  0  0  0  0
   11.3888  -19.8208   18.6451 C   0  0  0  0  0  0  0  0  0  0  0  0
   11.3720  -19.8211   17.3926 O   0  0  0  0  0  0  0  0  0  0  0  0
   10.7298  -16.5839   22.1899 C   0  0  0  0  0  0  0  0  0  0  0  0
   11.4202  -15.5733   21.9057 O   0  0  0  0  0  0  0  0  0  0  0  0
   12.3528  -20.5498   19.3353 O   0  0  0  0  0  0  0  0  0  0  0  0
   10.6714  -17.0099   23.5237 N   0  0  0  0  0  0  0  0  0  0  0  0
   11.2880  -16.2683   24.6491 C   0  0  1  0  0  0  0  0  0  0  0  0
   10.3039  -16.0740   25.7444 C   0  0  0  0  0  0  0  0  0  0  0  0
   10.9531  -15.4628   26.9527 C   0  0  0  0  0  0  0  0  0  0  0  0
    9.9623  -15.1595   28.0480 C   0  0  0  0  0  0  0  0  0  0  0  0
   10.5943  -14.4971   29.2344 C   0  0  0  0  0  0  0  0  0  0  0  0
    9.5638  -14.0096   30.1417 N   0  0  0  0  0  0  0  0  0  0  0  0
   12.3892  -17.1359   25.1055 C   0  0  0  0  0  0  0  0  0  0  0  0
   12.4244  -18.4605   24.7274 O   0  0  0  0  0  0  0  0  0  0  0  0
   13.3278  -16.7324   25.8439 O   0  0  0  0  0  0  0  0  0  0  0  0
  2  1  1  6
  3  2  1  0
  4  2  1  0
  4  5  1  1
  4  6  1  0
  6  7  2  0
  8  6  1  0
  8  9  1  0
  9 14  1  0
  9 10  1  6
 11 10  1  0
 12 11  1  0
 13 12  2  0
 14 15  2  0
 16 12  1  0
 17 18  1  0
 17 14  1  0
 18 24  1  0
 18 19  1  1
 20 19  1  0
 20 21  1  0
 22 23  1  0
 22 21  1  0
 24 26  2  0
 24 25  1  0
M  END
$$$$
