TEK.pdb
     RDKit          3D

 26 25  0  0  1  0  0  0  0  0999 V2000
    7.6261  -12.3425   19.2193 C   0  0  0  0  0  0  0  0  0  0  0  0
    8.0530  -13.5804   19.9467 C   0  0  1  0  0  0  0  0  0  0  0  0
    6.9964  -14.0384   20.7153 O   0  0  0  0  0  0  0  0  0  0  0  0
    8.5263  -14.6539   18.9700 C   0  0  2  0  0  0  0  0  0  0  0  0
    7.4879  -15.0343   18.0556 N   0  0  0  0  0  0  0  0  0  0  0  0
    8.9952  -15.8007   19.7829 C   0  0  0  0  0  0  0  0  0  0  0  0
    8.3500  -16.8693   19.8252 O   0  0  0  0  0  0  0  0  0  0  0  0
   10.1956  -15.6921   20.5286 N   0  0  0  0  0  0  0  0  0  0  0  0
   10.7103  -16.8449   21.1980 C   0  0  1  0  0  0  0  0  0  0  0  0
   12.2436  -16.7967   21.1439 C   0  0  0  0  0  0  0  0  0  0  0  0
   12.7742  -18.0847   21.7208 C   0  0  0  0  0  0  0  0  0  0  0  0
   14.2559  -18.0777   21.6727 C   0  0  0  0  0  0  0  0  0  0  0  0
   14.8549  -17.6672   20.6521 O   0  0  0  0  0  0  0  0  0  0  0  0
   10.3639  -16.8601   22.6491 C   0  0  0  0  0  0  0  0  0  0  0  0
   10.6390  -15.8326   23.3180 O   0  0  0  0  0  0  0  0  0  0  0  0
   14.9746  -18.5325   22.7744 O   0  0  0  0  0  0  0  0  0  0  0  0
    9.7564  -17.9452   23.2951 N   0  0  0  0  0  0  0  0  0  0  0  0
    9.3316  -17.9211   24.7148 C   0  0  1  0  0  0  0  0  0  0  0  0
    8.5611  -19.1465   25.0475 C   0  0  0  0  0  0  0  0  0  0  0  0
    8.1202  -19.1352   26.4829 C   0  0  0  0  0  0  0  0  0  0  0  0
    7.4029  -20.4020   26.8756 C   0  0  0  0  0  0  0  0  0  0  0  0
    6.8310  -20.3393   28.2593 C   0  0  0  0  0  0  0  0  0  0  0  0
    6.2934  -21.6397   28.6366 N   0  0  0  0  0  0  0  0  0  0  0  0
   10.5926  -17.8928   25.4783 C   0  0  0  0  0  0  0  0  0  0  0  0
   11.6697  -18.6420   25.0573 O   0  0  0  0  0  0  0  0  0  0  0  0
   10.7529  -17.2086   26.5249 O   0  0  0  0  0  0  0  0  0  0  0  0
  2  1  1  6
  3  2  1  0
  4  2  1  0
  4  5  1  6
  4  6  1  0
  6  7  2  0
  8  6  1  0
  8  9  1  0
  9 14  1  0
  9 10  1  1
 11 10  1  0
 12 11  1  0
 13 12  2  0
 14 15  2  0
 16 12  1  0
 17 18  1  0
 17 14  1  0
 18 24  1  0
 18 19  1  1
 20 19  1  0
 20 21  1  0
 22 23  1  0
 22 21  1  0
 24 26  2  0
 24 25  1  0
M  END
$$$$
