TEK.pdb
     RDKit          3D

 26 25  0  0  1  0  0  0  0  0999 V2000
    7.2587  -12.4889   19.1656 C   0  0  0  0  0  0  0  0  0  0  0  0
    7.6579  -13.5542   18.1913 C   0  0  1  0  0  0  0  0  0  0  0  0
    7.5173  -13.0635   16.9043 O   0  0  0  0  0  0  0  0  0  0  0  0
    9.0885  -14.0218   18.4465 C   0  0  2  0  0  0  0  0  0  0  0  0
    9.6239  -14.7313   17.3199 N   0  0  0  0  0  0  0  0  0  0  0  0
    9.0567  -14.8632   19.6658 C   0  0  0  0  0  0  0  0  0  0  0  0
    8.6167  -14.4182   20.7467 O   0  0  0  0  0  0  0  0  0  0  0  0
    9.5317  -16.1976   19.6140 N   0  0  0  0  0  0  0  0  0  0  0  0
    9.4285  -17.0229   20.7760 C   0  0  1  0  0  0  0  0  0  0  0  0
    9.9720  -18.4171   20.4343 C   0  0  0  0  0  0  0  0  0  0  0  0
    9.7176  -19.3219   21.6133 C   0  0  0  0  0  0  0  0  0  0  0  0
   10.2583  -20.6726   21.3290 C   0  0  0  0  0  0  0  0  0  0  0  0
   11.4882  -20.8940   21.4148 O   0  0  0  0  0  0  0  0  0  0  0  0
   10.2772  -16.5295   21.8994 C   0  0  0  0  0  0  0  0  0  0  0  0
   11.4551  -16.1887   21.6250 O   0  0  0  0  0  0  0  0  0  0  0  0
    9.3841  -21.6928   20.9655 O   0  0  0  0  0  0  0  0  0  0  0  0
    9.8350  -16.4278   23.2253 N   0  0  0  0  0  0  0  0  0  0  0  0
   10.6412  -15.8284   24.3149 C   0  0  1  0  0  0  0  0  0  0  0  0
    9.8070  -15.6239   25.5265 C   0  0  0  0  0  0  0  0  0  0  0  0
   10.6346  -15.1224   26.6748 C   0  0  0  0  0  0  0  0  0  0  0  0
    9.8203  -14.9218   27.9279 C   0  0  0  0  0  0  0  0  0  0  0  0
   10.6407  -14.4239   29.0789 C   0  0  0  0  0  0  0  0  0  0  0  0
    9.7792  -14.1348   30.2177 N   0  0  0  0  0  0  0  0  0  0  0  0
   11.6944  -16.8237   24.5871 C   0  0  0  0  0  0  0  0  0  0  0  0
   11.3675  -18.1568   24.7080 O   0  0  0  0  0  0  0  0  0  0  0  0
   12.9113  -16.5241   24.7231 O   0  0  0  0  0  0  0  0  0  0  0  0
  2  1  1  1
  3  2  1  0
  4  2  1  0
  4  5  1  6
  4  6  1  0
  6  7  2  0
  8  6  1  0
  8  9  1  0
  9 14  1  0
  9 10  1  6
 11 10  1  0
 12 11  1  0
 13 12  2  0
 14 15  2  0
 16 12  1  0
 17 18  1  0
 17 14  1  0
 18 24  1  0
 18 19  1  1
 20 19  1  0
 20 21  1  0
 22 23  1  0
 22 21  1  0
 24 26  2  0
 24 25  1  0
M  END
$$$$
