TEK.pdb
     RDKit          3D

 26 25  0  0  1  0  0  0  0  0999 V2000
    9.4398  -12.3570   20.0504 C   0  0  0  0  0  0  0  0  0  0  0  0
    8.1068  -12.8006   19.5309 C   0  0  1  0  0  0  0  0  0  0  0  0
    7.3534  -11.6839   19.2111 O   0  0  0  0  0  0  0  0  0  0  0  0
    8.2679  -13.7181   18.3215 C   0  0  2  0  0  0  0  0  0  0  0  0
    6.9980  -14.1271   17.7928 N   0  0  0  0  0  0  0  0  0  0  0  0
    9.0820  -14.8750   18.7626 C   0  0  0  0  0  0  0  0  0  0  0  0
    8.5516  -15.9735   19.0310 O   0  0  0  0  0  0  0  0  0  0  0  0
   10.4877  -14.7419   18.8848 N   0  0  0  0  0  0  0  0  0  0  0  0
   11.2781  -15.8980   19.1685 C   0  0  1  0  0  0  0  0  0  0  0  0
   12.4999  -15.8941   18.2393 C   0  0  0  0  0  0  0  0  0  0  0  0
   13.3149  -17.1287   18.5305 C   0  0  0  0  0  0  0  0  0  0  0  0
   14.5278  -17.1361   17.6780 C   0  0  0  0  0  0  0  0  0  0  0  0
   14.4274  -17.0536   16.4322 O   0  0  0  0  0  0  0  0  0  0  0  0
   11.8320  -15.8806   20.5537 C   0  0  0  0  0  0  0  0  0  0  0  0
   12.5090  -14.8773   20.8910 O   0  0  0  0  0  0  0  0  0  0  0  0
   15.7800  -17.2357   18.2773 O   0  0  0  0  0  0  0  0  0  0  0  0
   11.6390  -16.9104   21.4845 N   0  0  0  0  0  0  0  0  0  0  0  0
   12.1178  -16.8494   22.8857 C   0  0  1  0  0  0  0  0  0  0  0  0
   11.7434  -18.0867   23.6170 C   0  0  0  0  0  0  0  0  0  0  0  0
   11.9682  -17.9313   25.0936 C   0  0  0  0  0  0  0  0  0  0  0  0
   11.4822  -19.1230   25.8792 C   0  0  0  0  0  0  0  0  0  0  0  0
   11.6086  -18.9318   27.3602 C   0  0  0  0  0  0  0  0  0  0  0  0
   11.1305  -20.1173   28.0591 N   0  0  0  0  0  0  0  0  0  0  0  0
   13.5847  -16.7525   22.7721 C   0  0  0  0  0  0  0  0  0  0  0  0
   14.2704  -15.8028   23.4978 O   0  0  0  0  0  0  0  0  0  0  0  0
   14.2725  -17.5035   22.0293 O   0  0  0  0  0  0  0  0  0  0  0  0
  2  1  1  6
  3  2  1  0
  4  2  1  0
  4  5  1  1
  4  6  1  0
  6  7  2  0
  8  6  1  0
  8  9  1  0
  9 14  1  0
  9 10  1  6
 11 10  1  0
 12 11  1  0
 13 12  2  0
 14 15  2  0
 16 12  1  0
 17 18  1  0
 17 14  1  0
 18 24  1  0
 18 19  1  1
 20 19  1  0
 20 21  1  0
 22 23  1  0
 22 21  1  0
 24 26  2  0
 24 25  1  0
M  END
$$$$
