TEK.pdb
     RDKit          3D

 26 25  0  0  1  0  0  0  0  0999 V2000
    9.4184  -12.8355   20.1109 C   0  0  0  0  0  0  0  0  0  0  0  0
    8.1871  -13.3730   19.4485 C   0  0  1  0  0  0  0  0  0  0  0  0
    7.5095  -12.3291   18.8419 O   0  0  0  0  0  0  0  0  0  0  0  0
    8.5398  -14.4596   18.4359 C   0  0  2  0  0  0  0  0  0  0  0  0
    7.3692  -14.9903   17.7977 N   0  0  0  0  0  0  0  0  0  0  0  0
    9.2923  -15.5048   19.1687 C   0  0  0  0  0  0  0  0  0  0  0  0
    8.7048  -16.4676   19.7053 O   0  0  0  0  0  0  0  0  0  0  0  0
   10.7035  -15.4187   19.2676 N   0  0  0  0  0  0  0  0  0  0  0  0
   11.4306  -16.4966   19.8604 C   0  0  1  0  0  0  0  0  0  0  0  0
   12.8276  -16.5501   19.2265 C   0  0  0  0  0  0  0  0  0  0  0  0
   12.8769  -17.7379   18.2991 C   0  0  0  0  0  0  0  0  0  0  0  0
   14.2400  -17.8687   17.7312 C   0  0  0  0  0  0  0  0  0  0  0  0
   14.9467  -18.8666   18.0030 O   0  0  0  0  0  0  0  0  0  0  0  0
   11.6636  -16.2891   21.3193 C   0  0  0  0  0  0  0  0  0  0  0  0
   11.9896  -15.1343   21.6923 O   0  0  0  0  0  0  0  0  0  0  0  0
   14.7264  -16.8703   16.8924 O   0  0  0  0  0  0  0  0  0  0  0  0
   11.5396  -17.3007   22.2812 N   0  0  0  0  0  0  0  0  0  0  0  0
   11.7507  -17.0831   23.7319 C   0  0  1  0  0  0  0  0  0  0  0  0
   11.2552  -18.2475   24.5095 C   0  0  0  0  0  0  0  0  0  0  0  0
   11.6201  -18.1235   25.9609 C   0  0  0  0  0  0  0  0  0  0  0  0
   11.1252  -19.2879   26.7811 C   0  0  0  0  0  0  0  0  0  0  0  0
   11.6051  -19.2430   28.2001 C   0  0  0  0  0  0  0  0  0  0  0  0
   11.2384  -20.4726   28.8902 N   0  0  0  0  0  0  0  0  0  0  0  0
   13.2126  -16.9607   23.8793 C   0  0  0  0  0  0  0  0  0  0  0  0
   13.7441  -15.9652   24.6700 O   0  0  0  0  0  0  0  0  0  0  0  0
   14.0326  -17.7298   23.3092 O   0  0  0  0  0  0  0  0  0  0  0  0
  2  1  1  6
  3  2  1  0
  4  2  1  0
  4  5  1  1
  4  6  1  0
  6  7  2  0
  8  6  1  0
  8  9  1  0
  9 14  1  0
  9 10  1  6
 11 10  1  0
 12 11  1  0
 13 12  2  0
 14 15  2  0
 16 12  1  0
 17 18  1  0
 17 14  1  0
 18 24  1  0
 18 19  1  1
 20 19  1  0
 20 21  1  0
 22 23  1  0
 22 21  1  0
 24 26  2  0
 24 25  1  0
M  END
$$$$
