TEK.pdb
     RDKit          3D

 26 25  0  0  1  0  0  0  0  0999 V2000
    8.6975  -12.2544   18.1115 C   0  0  0  0  0  0  0  0  0  0  0  0
    8.5555  -13.3007   19.1739 C   0  0  1  0  0  0  0  0  0  0  0  0
    7.2560  -13.2849   19.6512 O   0  0  0  0  0  0  0  0  0  0  0  0
    8.9255  -14.6808   18.6365 C   0  0  2  0  0  0  0  0  0  0  0  0
    8.0621  -15.0809   17.5624 N   0  0  0  0  0  0  0  0  0  0  0  0
    8.8590  -15.6214   19.7795 C   0  0  0  0  0  0  0  0  0  0  0  0
    7.7922  -16.1963   20.0819 O   0  0  0  0  0  0  0  0  0  0  0  0
   10.0212  -15.8793   20.5486 N   0  0  0  0  0  0  0  0  0  0  0  0
    9.9313  -16.7407   21.6852 C   0  0  1  0  0  0  0  0  0  0  0  0
   11.1562  -17.6657   21.6947 C   0  0  0  0  0  0  0  0  0  0  0  0
   10.9927  -18.6724   20.5843 C   0  0  0  0  0  0  0  0  0  0  0  0
   12.1666  -19.5774   20.5570 C   0  0  0  0  0  0  0  0  0  0  0  0
   12.3802  -20.3087   19.5628 O   0  0  0  0  0  0  0  0  0  0  0  0
    9.9905  -15.9892   22.9727 C   0  0  0  0  0  0  0  0  0  0  0  0
   10.8282  -15.0565   23.0574 O   0  0  0  0  0  0  0  0  0  0  0  0
   13.0294  -19.6056   21.6488 O   0  0  0  0  0  0  0  0  0  0  0  0
    9.1721  -16.2658   24.0762 N   0  0  0  0  0  0  0  0  0  0  0  0
    9.1901  -15.4744   25.3292 C   0  0  1  0  0  0  0  0  0  0  0  0
    7.8652  -14.8466   25.5662 C   0  0  0  0  0  0  0  0  0  0  0  0
    8.0097  -13.5268   26.2678 C   0  0  0  0  0  0  0  0  0  0  0  0
    6.6783  -12.8986   26.5942 C   0  0  0  0  0  0  0  0  0  0  0  0
    6.8143  -11.6096   27.3463 C   0  0  0  0  0  0  0  0  0  0  0  0
    5.4995  -11.1187   27.7373 N   0  0  0  0  0  0  0  0  0  0  0  0
    9.4797  -16.4606   26.3862 C   0  0  0  0  0  0  0  0  0  0  0  0
    9.8609  -16.0346   27.6399 O   0  0  0  0  0  0  0  0  0  0  0  0
    9.4013  -17.7065   26.2107 O   0  0  0  0  0  0  0  0  0  0  0  0
  2  1  1  6
  3  2  1  0
  4  2  1  0
  4  5  1  6
  4  6  1  0
  6  7  2  0
  8  6  1  0
  8  9  1  0
  9 14  1  0
  9 10  1  1
 11 10  1  0
 12 11  1  0
 13 12  2  0
 14 15  2  0
 16 12  1  0
 17 18  1  0
 17 14  1  0
 18 24  1  0
 18 19  1  1
 20 19  1  0
 20 21  1  0
 22 23  1  0
 22 21  1  0
 24 26  2  0
 24 25  1  0
M  END
$$$$
