TEK.pdb
     RDKit          3D

 26 25  0  0  1  0  0  0  0  0999 V2000
    9.1272  -12.3284   17.9612 C   0  0  0  0  0  0  0  0  0  0  0  0
    9.0500  -13.2482   19.1409 C   0  0  1  0  0  0  0  0  0  0  0  0
    8.0961  -12.7703   20.0232 O   0  0  0  0  0  0  0  0  0  0  0  0
    8.7266  -14.6744   18.7033 C   0  0  2  0  0  0  0  0  0  0  0  0
    7.4503  -14.7531   18.0521 N   0  0  0  0  0  0  0  0  0  0  0  0
    8.7812  -15.5216   19.9178 C   0  0  0  0  0  0  0  0  0  0  0  0
    7.7537  -15.7581   20.5873 O   0  0  0  0  0  0  0  0  0  0  0  0
   10.0166  -16.0774   20.3345 N   0  0  0  0  0  0  0  0  0  0  0  0
   10.0834  -16.7833   21.5751 C   0  0  1  0  0  0  0  0  0  0  0  0
   11.4022  -17.5675   21.6201 C   0  0  0  0  0  0  0  0  0  0  0  0
   11.4032  -18.4128   22.8686 C   0  0  0  0  0  0  0  0  0  0  0  0
   12.6767  -19.1665   22.9575 C   0  0  0  0  0  0  0  0  0  0  0  0
   12.8411  -20.0303   23.8496 O   0  0  0  0  0  0  0  0  0  0  0  0
   10.1272  -15.8640   22.7493 C   0  0  0  0  0  0  0  0  0  0  0  0
   10.9192  -14.8904   22.6895 O   0  0  0  0  0  0  0  0  0  0  0  0
   13.6884  -18.9037   22.0385 O   0  0  0  0  0  0  0  0  0  0  0  0
    9.3420  -16.0278   23.8985 N   0  0  0  0  0  0  0  0  0  0  0  0
    9.2847  -15.0382   25.0003 C   0  0  1  0  0  0  0  0  0  0  0  0
    7.9514  -14.3854   25.0436 C   0  0  0  0  0  0  0  0  0  0  0  0
    7.8570  -13.4238   26.1931 C   0  0  0  0  0  0  0  0  0  0  0  0
    6.5039  -12.7646   26.2835 C   0  0  0  0  0  0  0  0  0  0  0  0
    6.4017  -11.8055   27.4304 C   0  0  0  0  0  0  0  0  0  0  0  0
    5.0785  -11.1963   27.4554 N   0  0  0  0  0  0  0  0  0  0  0  0
    9.4997  -15.8328   26.2235 C   0  0  0  0  0  0  0  0  0  0  0  0
    9.6249  -17.2026   26.1418 O   0  0  0  0  0  0  0  0  0  0  0  0
    9.5759  -15.3246   27.3746 O   0  0  0  0  0  0  0  0  0  0  0  0
  2  1  1  6
  3  2  1  0
  4  2  1  0
  4  5  1  1
  4  6  1  0
  6  7  2  0
  8  6  1  0
  8  9  1  0
  9 14  1  0
  9 10  1  6
 11 10  1  0
 12 11  1  0
 13 12  2  0
 14 15  2  0
 16 12  1  0
 17 18  1  0
 17 14  1  0
 18 24  1  0
 18 19  1  1
 20 19  1  0
 20 21  1  0
 22 23  1  0
 22 21  1  0
 24 26  2  0
 24 25  1  0
M  END
$$$$
