TEK.pdb
     RDKit          3D

 26 25  0  0  1  0  0  0  0  0999 V2000
    7.2767  -13.1456   20.7554 C   0  0  0  0  0  0  0  0  0  0  0  0
    7.2167  -13.2063   19.2600 C   0  0  1  0  0  0  0  0  0  0  0  0
    6.7488  -11.9955   18.7783 O   0  0  0  0  0  0  0  0  0  0  0  0
    8.5845  -13.5395   18.6698 C   0  0  2  0  0  0  0  0  0  0  0  0
    8.5685  -13.4963   17.2356 N   0  0  0  0  0  0  0  0  0  0  0  0
    8.9594  -14.8797   19.1787 C   0  0  0  0  0  0  0  0  0  0  0  0
    9.1735  -15.8307   18.3979 O   0  0  0  0  0  0  0  0  0  0  0  0
    9.0795  -15.0955   20.5744 N   0  0  0  0  0  0  0  0  0  0  0  0
    9.7968  -16.2375   21.0468 C   0  0  1  0  0  0  0  0  0  0  0  0
   11.2761  -16.0749   20.6705 C   0  0  0  0  0  0  0  0  0  0  0  0
   12.0100  -17.3187   21.1036 C   0  0  0  0  0  0  0  0  0  0  0  0
   13.4167  -17.2523   20.6405 C   0  0  0  0  0  0  0  0  0  0  0  0
   13.8281  -16.2551   20.0039 O   0  0  0  0  0  0  0  0  0  0  0  0
    9.7746  -16.3458   22.5346 C   0  0  0  0  0  0  0  0  0  0  0  0
   10.1921  -15.3587   23.1905 O   0  0  0  0  0  0  0  0  0  0  0  0
   14.2759  -18.3108   20.9208 O   0  0  0  0  0  0  0  0  0  0  0  0
    9.3189  -17.4750   23.2283 N   0  0  0  0  0  0  0  0  0  0  0  0
    8.9929  -17.4729   24.6741 C   0  0  1  0  0  0  0  0  0  0  0  0
    8.2473  -18.7040   25.0404 C   0  0  0  0  0  0  0  0  0  0  0  0
    7.9707  -18.7502   26.5156 C   0  0  0  0  0  0  0  0  0  0  0  0
    7.3312  -20.0474   26.9419 C   0  0  0  0  0  0  0  0  0  0  0  0
    6.8774  -20.0283   28.3700 C   0  0  0  0  0  0  0  0  0  0  0  0
    6.0967  -21.2233   28.6617 N   0  0  0  0  0  0  0  0  0  0  0  0
   10.3035  -17.4546   25.3493 C   0  0  0  0  0  0  0  0  0  0  0  0
   10.4430  -16.8216   26.5652 O   0  0  0  0  0  0  0  0  0  0  0  0
   11.3366  -17.9950   24.8701 O   0  0  0  0  0  0  0  0  0  0  0  0
  2  1  1  1
  3  2  1  0
  4  2  1  0
  4  5  1  6
  4  6  1  0
  6  7  2  0
  8  6  1  0
  8  9  1  0
  9 14  1  0
  9 10  1  1
 11 10  1  0
 12 11  1  0
 13 12  2  0
 14 15  2  0
 16 12  1  0
 17 18  1  0
 17 14  1  0
 18 24  1  0
 18 19  1  1
 20 19  1  0
 20 21  1  0
 22 23  1  0
 22 21  1  0
 24 26  2  0
 24 25  1  0
M  END
$$$$
