TEK.pdb
     RDKit          3D

 26 25  0  0  1  0  0  0  0  0999 V2000
    9.1872  -12.7710   19.5942 C   0  0  0  0  0  0  0  0  0  0  0  0
    7.9951  -13.2610   18.8311 C   0  0  1  0  0  0  0  0  0  0  0  0
    7.2658  -12.1714   18.3863 O   0  0  0  0  0  0  0  0  0  0  0  0
    8.4188  -14.1503   17.6649 C   0  0  2  0  0  0  0  0  0  0  0  0
    7.2870  -14.6274   16.9229 N   0  0  0  0  0  0  0  0  0  0  0  0
    9.2141  -15.2622   18.2366 C   0  0  0  0  0  0  0  0  0  0  0  0
    8.6694  -16.3250   18.6021 O   0  0  0  0  0  0  0  0  0  0  0  0
   10.6181  -15.1262   18.3747 N   0  0  0  0  0  0  0  0  0  0  0  0
   11.3865  -16.2376   18.8398 C   0  0  1  0  0  0  0  0  0  0  0  0
   12.6765  -16.3198   18.0120 C   0  0  0  0  0  0  0  0  0  0  0  0
   13.3495  -17.6332   18.3209 C   0  0  0  0  0  0  0  0  0  0  0  0
   14.6137  -17.7364   17.5536 C   0  0  0  0  0  0  0  0  0  0  0  0
   15.6949  -17.9694   18.1417 O   0  0  0  0  0  0  0  0  0  0  0  0
   11.8314  -16.0677   20.2537 C   0  0  0  0  0  0  0  0  0  0  0  0
   12.3036  -14.9496   20.5787 O   0  0  0  0  0  0  0  0  0  0  0  0
   14.5864  -17.5716   16.1718 O   0  0  0  0  0  0  0  0  0  0  0  0
   11.7511  -17.0759   21.2237 N   0  0  0  0  0  0  0  0  0  0  0  0
   12.0575  -16.8604   22.6577 C   0  0  1  0  0  0  0  0  0  0  0  0
   11.4130  -17.9082   23.4899 C   0  0  0  0  0  0  0  0  0  0  0  0
   11.7579  -17.7345   24.9410 C   0  0  0  0  0  0  0  0  0  0  0  0
   11.1347  -18.7955   25.8126 C   0  0  0  0  0  0  0  0  0  0  0  0
   11.3457  -18.5424   27.2745 C   0  0  0  0  0  0  0  0  0  0  0  0
   10.5530  -19.4770   28.0623 N   0  0  0  0  0  0  0  0  0  0  0  0
   13.5248  -16.9760   22.7445 C   0  0  0  0  0  0  0  0  0  0  0  0
   14.2470  -16.0508   23.4665 O   0  0  0  0  0  0  0  0  0  0  0  0
   14.1814  -17.8929   22.1814 O   0  0  0  0  0  0  0  0  0  0  0  0
  2  1  1  6
  3  2  1  0
  4  2  1  0
  4  5  1  1
  4  6  1  0
  6  7  2  0
  8  6  1  0
  8  9  1  0
  9 14  1  0
  9 10  1  6
 11 10  1  0
 12 11  1  0
 13 12  2  0
 14 15  2  0
 16 12  1  0
 17 18  1  0
 17 14  1  0
 18 24  1  0
 18 19  1  1
 20 19  1  0
 20 21  1  0
 22 23  1  0
 22 21  1  0
 24 26  2  0
 24 25  1  0
M  END
$$$$
