TEK.pdb
     RDKit          3D

 26 25  0  0  1  0  0  0  0  0999 V2000
    7.5766  -12.6310   19.4616 C   0  0  0  0  0  0  0  0  0  0  0  0
    8.1418  -13.6657   18.5376 C   0  0  1  0  0  0  0  0  0  0  0  0
    8.1744  -13.1523   17.2522 O   0  0  0  0  0  0  0  0  0  0  0  0
    9.5331  -14.1021   18.9893 C   0  0  2  0  0  0  0  0  0  0  0  0
   10.2360  -14.7952   17.9478 N   0  0  0  0  0  0  0  0  0  0  0  0
    9.3509  -14.9485   20.1918 C   0  0  0  0  0  0  0  0  0  0  0  0
    8.3859  -14.7734   20.9651 O   0  0  0  0  0  0  0  0  0  0  0  0
   10.2832  -15.9771   20.4775 N   0  0  0  0  0  0  0  0  0  0  0  0
   10.0980  -16.7864   21.6405 C   0  0  1  0  0  0  0  0  0  0  0  0
   11.2187  -17.8341   21.6898 C   0  0  0  0  0  0  0  0  0  0  0  0
   10.9484  -18.7561   22.8518 C   0  0  0  0  0  0  0  0  0  0  0  0
   12.0206  -19.7763   22.9366 C   0  0  0  0  0  0  0  0  0  0  0  0
   12.8625  -19.7356   23.8632 O   0  0  0  0  0  0  0  0  0  0  0  0
   10.2299  -16.0032   22.9035 C   0  0  0  0  0  0  0  0  0  0  0  0
   11.2587  -15.2942   23.0369 O   0  0  0  0  0  0  0  0  0  0  0  0
   12.0819  -20.7805   21.9748 O   0  0  0  0  0  0  0  0  0  0  0  0
    9.2797  -16.0171   23.9334 N   0  0  0  0  0  0  0  0  0  0  0  0
    9.2545  -15.0306   25.0392 C   0  0  1  0  0  0  0  0  0  0  0  0
    7.9687  -14.2873   25.0432 C   0  0  0  0  0  0  0  0  0  0  0  0
    7.9113  -13.3120   26.1836 C   0  0  0  0  0  0  0  0  0  0  0  0
    6.6179  -12.5376   26.2152 C   0  0  0  0  0  0  0  0  0  0  0  0
    6.5988  -11.4841   27.2808 C   0  0  0  0  0  0  0  0  0  0  0  0
    5.2733  -10.8858   27.3675 N   0  0  0  0  0  0  0  0  0  0  0  0
    9.3736  -15.8434   26.2636 C   0  0  0  0  0  0  0  0  0  0  0  0
    9.4276  -17.2174   26.1755 O   0  0  0  0  0  0  0  0  0  0  0  0
    9.4282  -15.3473   27.4211 O   0  0  0  0  0  0  0  0  0  0  0  0
  2  1  1  1
  3  2  1  0
  4  2  1  0
  4  5  1  6
  4  6  1  0
  6  7  2  0
  8  6  1  0
  8  9  1  0
  9 14  1  0
  9 10  1  1
 11 10  1  0
 12 11  1  0
 13 12  2  0
 14 15  2  0
 16 12  1  0
 17 18  1  0
 17 14  1  0
 18 24  1  0
 18 19  1  1
 20 19  1  0
 20 21  1  0
 22 23  1  0
 22 21  1  0
 24 26  2  0
 24 25  1  0
M  END
$$$$
