TEK.pdb
     RDKit          3D

 26 25  0  0  1  0  0  0  0  0999 V2000
    7.5847  -11.9222   19.2508 C   0  0  0  0  0  0  0  0  0  0  0  0
    8.6711  -12.9140   19.5336 C   0  0  1  0  0  0  0  0  0  0  0  0
    8.2305  -13.8015   20.5006 O   0  0  0  0  0  0  0  0  0  0  0  0
    9.0857  -13.6498   18.2620 C   0  0  2  0  0  0  0  0  0  0  0  0
    7.9543  -14.2118   17.5813 N   0  0  0  0  0  0  0  0  0  0  0  0
   10.0621  -14.6895   18.6636 C   0  0  0  0  0  0  0  0  0  0  0  0
   10.0254  -15.8359   18.1693 O   0  0  0  0  0  0  0  0  0  0  0  0
   11.0587  -14.3867   19.6250 N   0  0  0  0  0  0  0  0  0  0  0  0
   12.1439  -15.2961   19.8182 C   0  0  1  0  0  0  0  0  0  0  0  0
   12.9912  -15.3239   18.5385 C   0  0  0  0  0  0  0  0  0  0  0  0
   14.1081  -16.3171   18.7367 C   0  0  0  0  0  0  0  0  0  0  0  0
   14.9843  -16.3249   17.5409 C   0  0  0  0  0  0  0  0  0  0  0  0
   15.3610  -15.2479   17.0241 O   0  0  0  0  0  0  0  0  0  0  0  0
   13.0709  -14.8515   20.8993 C   0  0  0  0  0  0  0  0  0  0  0  0
   14.2723  -14.6598   20.5854 O   0  0  0  0  0  0  0  0  0  0  0  0
   15.3840  -17.5427   16.9982 O   0  0  0  0  0  0  0  0  0  0  0  0
   12.6766  -14.6399   22.2274 N   0  0  0  0  0  0  0  0  0  0  0  0
   13.1305  -15.4796   23.3612 C   0  0  1  0  0  0  0  0  0  0  0  0
   12.1117  -16.5107   23.6845 C   0  0  0  0  0  0  0  0  0  0  0  0
   12.6388  -17.4961   24.6876 C   0  0  0  0  0  0  0  0  0  0  0  0
   11.6522  -18.5959   24.9886 C   0  0  0  0  0  0  0  0  0  0  0  0
   12.1354  -19.5325   26.0541 C   0  0  0  0  0  0  0  0  0  0  0  0
   11.1083  -20.5219   26.3521 N   0  0  0  0  0  0  0  0  0  0  0  0
   14.3652  -16.1223   22.8752 C   0  0  0  0  0  0  0  0  0  0  0  0
   15.5741  -15.8271   23.4667 O   0  0  0  0  0  0  0  0  0  0  0  0
   14.3872  -16.9477   21.9226 O   0  0  0  0  0  0  0  0  0  0  0  0
  2  1  1  6
  3  2  1  0
  4  2  1  0
  4  5  1  1
  4  6  1  0
  6  7  2  0
  8  6  1  0
  8  9  1  0
  9 14  1  0
  9 10  1  6
 11 10  1  0
 12 11  1  0
 13 12  2  0
 14 15  2  0
 16 12  1  0
 17 18  1  0
 17 14  1  0
 18 24  1  0
 18 19  1  6
 20 19  1  0
 20 21  1  0
 22 23  1  0
 22 21  1  0
 24 26  2  0
 24 25  1  0
M  END
$$$$
