TEK.pdb
     RDKit          3D

 26 25  0  0  1  0  0  0  0  0999 V2000
    9.2731  -12.4590   17.8922 C   0  0  0  0  0  0  0  0  0  0  0  0
    9.1632  -13.3569   19.0861 C   0  0  1  0  0  0  0  0  0  0  0  0
    8.5699  -12.6572   20.1231 O   0  0  0  0  0  0  0  0  0  0  0  0
    8.3710  -14.6183   18.7518 C   0  0  2  0  0  0  0  0  0  0  0  0
    7.0409  -14.3083   18.3114 N   0  0  0  0  0  0  0  0  0  0  0  0
    8.3679  -15.4618   19.9700 C   0  0  0  0  0  0  0  0  0  0  0  0
    7.3765  -15.4973   20.7289 O   0  0  0  0  0  0  0  0  0  0  0  0
    9.5055  -16.2454   20.2876 N   0  0  0  0  0  0  0  0  0  0  0  0
    9.5360  -16.9672   21.5205 C   0  0  1  0  0  0  0  0  0  0  0  0
   10.7693  -17.8810   21.5207 C   0  0  0  0  0  0  0  0  0  0  0  0
   10.8009  -18.6264   22.8310 C   0  0  0  0  0  0  0  0  0  0  0  0
   11.9908  -19.5097   22.8717 C   0  0  0  0  0  0  0  0  0  0  0  0
   12.1535  -20.3944   22.0001 O   0  0  0  0  0  0  0  0  0  0  0  0
    9.7063  -16.0691   22.6996 C   0  0  0  0  0  0  0  0  0  0  0  0
   10.6421  -15.2318   22.6557 O   0  0  0  0  0  0  0  0  0  0  0  0
   12.9258  -19.3452   23.8895 O   0  0  0  0  0  0  0  0  0  0  0  0
    8.8885  -16.1106   23.8368 N   0  0  0  0  0  0  0  0  0  0  0  0
    8.8912  -15.0651   24.8873 C   0  0  1  0  0  0  0  0  0  0  0  0
    7.5744  -14.3805   24.9424 C   0  0  0  0  0  0  0  0  0  0  0  0
    7.5639  -13.3121   25.9976 C   0  0  0  0  0  0  0  0  0  0  0  0
    6.2286  -12.6197   26.1036 C   0  0  0  0  0  0  0  0  0  0  0  0
    6.1983  -11.5811   27.1835 C   0  0  0  0  0  0  0  0  0  0  0  0
    4.8705  -10.9872   27.2676 N   0  0  0  0  0  0  0  0  0  0  0  0
    9.1324  -15.8011   26.1419 C   0  0  0  0  0  0  0  0  0  0  0  0
    9.7237  -15.1643   27.2112 O   0  0  0  0  0  0  0  0  0  0  0  0
    8.8256  -17.0131   26.3033 O   0  0  0  0  0  0  0  0  0  0  0  0
  2  1  1  6
  3  2  1  0
  4  2  1  0
  4  5  1  1
  4  6  1  0
  6  7  2  0
  8  6  1  0
  8  9  1  0
  9 14  1  0
  9 10  1  6
 11 10  1  0
 12 11  1  0
 13 12  2  0
 14 15  2  0
 16 12  1  0
 17 18  1  0
 17 14  1  0
 18 24  1  0
 18 19  1  1
 20 19  1  0
 20 21  1  0
 22 23  1  0
 22 21  1  0
 24 26  2  0
 24 25  1  0
M  END
$$$$
