TEK.pdb
     RDKit          3D

 26 25  0  0  1  0  0  0  0  0999 V2000
    9.1657  -12.1548   18.1433 C   0  0  0  0  0  0  0  0  0  0  0  0
    9.0862  -13.2024   19.2109 C   0  0  1  0  0  0  0  0  0  0  0  0
    8.0345  -12.9019   20.0597 O   0  0  0  0  0  0  0  0  0  0  0  0
    8.9200  -14.5927   18.6028 C   0  0  2  0  0  0  0  0  0  0  0  0
    7.7013  -14.7017   17.8530 N   0  0  0  0  0  0  0  0  0  0  0  0
    8.9694  -15.5623   19.7222 C   0  0  0  0  0  0  0  0  0  0  0  0
    7.9250  -16.0614   20.1913 O   0  0  0  0  0  0  0  0  0  0  0  0
   10.2193  -15.9358   20.2765 N   0  0  0  0  0  0  0  0  0  0  0  0
   10.2491  -16.7626   21.4416 C   0  0  1  0  0  0  0  0  0  0  0  0
   11.5704  -17.5438   21.4522 C   0  0  0  0  0  0  0  0  0  0  0  0
   11.4689  -18.6514   20.4342 C   0  0  0  0  0  0  0  0  0  0  0  0
   12.7198  -19.4469   20.4390 C   0  0  0  0  0  0  0  0  0  0  0  0
   12.7096  -20.6418   20.8147 O   0  0  0  0  0  0  0  0  0  0  0  0
   10.2481  -15.9658   22.7029 C   0  0  0  0  0  0  0  0  0  0  0  0
   11.0685  -15.0177   22.7861 O   0  0  0  0  0  0  0  0  0  0  0  0
   13.9065  -18.8515   20.0214 O   0  0  0  0  0  0  0  0  0  0  0  0
    9.3920  -16.2164   23.7837 N   0  0  0  0  0  0  0  0  0  0  0  0
    9.2397  -15.3001   24.9386 C   0  0  1  0  0  0  0  0  0  0  0  0
    7.9565  -14.5579   24.8474 C   0  0  0  0  0  0  0  0  0  0  0  0
    7.7965  -13.6103   26.0012 C   0  0  0  0  0  0  0  0  0  0  0  0
    6.5368  -12.7875   25.9010 C   0  0  0  0  0  0  0  0  0  0  0  0
    6.3791  -11.8277   27.0410 C   0  0  0  0  0  0  0  0  0  0  0  0
    5.0975  -11.1419   26.9423 N   0  0  0  0  0  0  0  0  0  0  0  0
    9.2292  -16.1871   26.1164 C   0  0  0  0  0  0  0  0  0  0  0  0
    9.3509  -15.6540   27.3812 O   0  0  0  0  0  0  0  0  0  0  0  0
    9.1152  -17.4401   26.0383 O   0  0  0  0  0  0  0  0  0  0  0  0
  2  1  1  6
  3  2  1  0
  4  2  1  0
  4  5  1  1
  4  6  1  0
  6  7  2  0
  8  6  1  0
  8  9  1  0
  9 14  1  0
  9 10  1  6
 11 10  1  0
 12 11  1  0
 13 12  2  0
 14 15  2  0
 16 12  1  0
 17 18  1  0
 17 14  1  0
 18 24  1  0
 18 19  1  6
 20 19  1  0
 20 21  1  0
 22 23  1  0
 22 21  1  0
 24 26  2  0
 24 25  1  0
M  END
$$$$
