FDK.pdb
     RDKit          3D

 29 29  0  0  1  0  0  0  0  0999 V2000
    6.5490  -15.5712   21.2189 N   0  0  0  0  0  0  0  0  0  0  0  0
    7.1864  -15.0967   22.4129 C   0  0  1  0  0  0  0  0  0  0  0  0
    6.1786  -14.8395   23.4822 C   0  0  0  0  0  0  0  0  0  0  0  0
    6.8621  -14.1668   24.6134 C   0  0  0  0  0  0  0  0  0  0  0  0
    7.0054  -14.8331   25.8140 C   0  0  0  0  0  0  0  0  0  0  0  0
    7.6390  -14.2446   26.9021 C   0  0  0  0  0  0  0  0  0  0  0  0
    8.1324  -12.9740   26.7796 C   0  0  0  0  0  0  0  0  0  0  0  0
    8.0042  -12.2857   25.5956 C   0  0  0  0  0  0  0  0  0  0  0  0
    7.3708  -12.8884   24.5252 C   0  0  0  0  0  0  0  0  0  0  0  0
    8.2835  -16.0172   22.8848 C   0  0  0  0  0  0  0  0  0  0  0  0
    8.0603  -17.1934   23.2064 O   0  0  0  0  0  0  0  0  0  0  0  0
    9.6072  -15.5203   22.9622 N   0  0  0  0  0  0  0  0  0  0  0  0
   10.7441  -16.3467   23.2847 C   0  0  1  0  0  0  0  0  0  0  0  0
   12.0004  -15.6866   22.7221 C   0  0  0  0  0  0  0  0  0  0  0  0
   13.1058  -16.6520   22.7586 C   0  0  0  0  0  0  0  0  0  0  0  0
   14.0636  -16.4094   23.5414 O   0  0  0  0  0  0  0  0  0  0  0  0
   10.9468  -16.4845   24.7400 C   0  0  0  0  0  0  0  0  0  0  0  0
   11.3616  -15.5050   25.3936 O   0  0  0  0  0  0  0  0  0  0  0  0
   13.0737  -17.7813   21.9515 O   0  0  0  0  0  0  0  0  0  0  0  0
   10.6804  -17.6973   25.3955 N   0  0  0  0  0  0  0  0  0  0  0  0
   11.0264  -17.9536   26.8084 C   0  0  1  0  0  0  0  0  0  0  0  0
   10.2871  -19.1582   27.2465 C   0  0  0  0  0  0  0  0  0  0  0  0
   10.5360  -19.6627   28.6175 C   0  0  0  0  0  0  0  0  0  0  0  0
    9.7613  -20.8611   29.0472 C   0  0  0  0  0  0  0  0  0  0  0  0
   10.0636  -21.2304   30.5042 C   0  0  0  0  0  0  0  0  0  0  0  0
    9.2958  -22.3926   30.8453 N   0  0  0  0  0  0  0  0  0  0  0  0
   12.4723  -17.9230   26.9889 C   0  0  0  0  0  0  0  0  0  0  0  0
   13.0020  -17.2245   27.9265 O   0  0  0  0  0  0  0  0  0  0  0  0
   13.3862  -18.6111   26.2113 O   0  0  0  0  0  0  0  0  0  0  0  0
  2  1  1  6
  2  3  1  0
  2 10  1  0
  3  4  1  0
  4  5  2  0
  5  6  1  0
  7  6  2  0
  8  7  1  0
  9  8  2  0
  9  4  1  0
 10 11  2  0
 12 10  1  0
 12 13  1  0
 13 14  1  6
 14 15  1  0
 15 16  2  0
 17 13  1  0
 17 18  2  0
 19 15  1  0
 20 17  1  0
 21 27  1  0
 21 20  1  0
 21 22  1  6
 23 22  1  0
 24 23  1  0
 25 26  1  0
 25 24  1  0
 27 29  1  0
 28 27  2  0
M  END
$$$$
