FDK.pdb
     RDKit          3D

 29 29  0  0  1  0  0  0  0  0999 V2000
    5.7381  -16.8513   25.2302 N   0  0  0  0  0  0  0  0  0  0  0  0
    6.8610  -16.0242   24.8959 C   0  0  1  0  0  0  0  0  0  0  0  0
    7.2992  -15.2268   26.0780 C   0  0  0  0  0  0  0  0  0  0  0  0
    6.8649  -13.8229   25.8790 C   0  0  0  0  0  0  0  0  0  0  0  0
    5.7276  -13.3667   26.5151 C   0  0  0  0  0  0  0  0  0  0  0  0
    5.2816  -12.0595   26.3602 C   0  0  0  0  0  0  0  0  0  0  0  0
    5.9873  -11.2045   25.5576 C   0  0  0  0  0  0  0  0  0  0  0  0
    7.1241  -11.6311   24.9112 C   0  0  0  0  0  0  0  0  0  0  0  0
    7.5512  -12.9349   25.0782 C   0  0  0  0  0  0  0  0  0  0  0  0
    7.9987  -16.8120   24.2970 C   0  0  0  0  0  0  0  0  0  0  0  0
    8.1987  -18.0003   24.5877 O   0  0  0  0  0  0  0  0  0  0  0  0
    8.8630  -16.1726   23.3754 N   0  0  0  0  0  0  0  0  0  0  0  0
    9.9912  -16.8295   22.7631 C   0  0  1  0  0  0  0  0  0  0  0  0
   10.3779  -16.0589   21.5033 C   0  0  0  0  0  0  0  0  0  0  0  0
   11.4393  -16.7908   20.8012 C   0  0  0  0  0  0  0  0  0  0  0  0
   11.1277  -17.8823   20.2530 O   0  0  0  0  0  0  0  0  0  0  0  0
   11.1791  -16.8441   23.6388 C   0  0  0  0  0  0  0  0  0  0  0  0
   11.7272  -15.7640   23.9414 O   0  0  0  0  0  0  0  0  0  0  0  0
   12.7292  -16.2790   20.7574 O   0  0  0  0  0  0  0  0  0  0  0  0
   11.6980  -18.0516   24.1332 N   0  0  0  0  0  0  0  0  0  0  0  0
   12.8226  -18.1254   25.0880 C   0  0  1  0  0  0  0  0  0  0  0  0
   12.6608  -19.3604   25.8868 C   0  0  0  0  0  0  0  0  0  0  0  0
   12.8129  -19.2586   27.3574 C   0  0  0  0  0  0  0  0  0  0  0  0
   12.5346  -20.4883   28.1519 C   0  0  0  0  0  0  0  0  0  0  0  0
   12.7313  -20.2420   29.6523 C   0  0  0  0  0  0  0  0  0  0  0  0
   12.2347  -21.3818   30.3671 N   0  0  0  0  0  0  0  0  0  0  0  0
   14.0875  -17.9059   24.3981 C   0  0  0  0  0  0  0  0  0  0  0  0
   14.9368  -17.0514   24.8406 O   0  0  0  0  0  0  0  0  0  0  0  0
   14.4927  -18.5635   23.2506 O   0  0  0  0  0  0  0  0  0  0  0  0
  2  1  1  1
  2  3  1  0
  2 10  1  0
  3  4  1  0
  4  5  2  0
  5  6  1  0
  7  6  2  0
  8  7  1  0
  9  8  2  0
  9  4  1  0
 10 11  2  0
 12 10  1  0
 12 13  1  0
 13 14  1  6
 14 15  1  0
 15 16  2  0
 17 13  1  0
 17 18  2  0
 19 15  1  0
 20 17  1  0
 21 27  1  0
 21 20  1  0
 21 22  1  6
 23 22  1  0
 24 23  1  0
 25 26  1  0
 25 24  1  0
 27 29  1  0
 28 27  2  0
M  END
$$$$
