FDK.pdb
     RDKit          3D

 29 29  0  0  1  0  0  0  0  0999 V2000
    5.7845  -17.3939   23.9888 N   0  0  0  0  0  0  0  0  0  0  0  0
    6.9168  -16.5323   24.1689 C   0  0  1  0  0  0  0  0  0  0  0  0
    7.2223  -16.3589   25.6187 C   0  0  0  0  0  0  0  0  0  0  0  0
    7.3112  -14.9065   25.9049 C   0  0  0  0  0  0  0  0  0  0  0  0
    8.5513  -14.3069   25.9983 C   0  0  0  0  0  0  0  0  0  0  0  0
    8.6852  -12.9493   26.2640 C   0  0  0  0  0  0  0  0  0  0  0  0
    7.5604  -12.1892   26.4371 C   0  0  0  0  0  0  0  0  0  0  0  0
    6.3116  -12.7593   26.3497 C   0  0  0  0  0  0  0  0  0  0  0  0
    6.1995  -14.1111   26.0848 C   0  0  0  0  0  0  0  0  0  0  0  0
    8.1231  -16.9965   23.3924 C   0  0  0  0  0  0  0  0  0  0  0  0
    8.4635  -18.1880   23.3593 O   0  0  0  0  0  0  0  0  0  0  0  0
    8.8881  -16.0405   22.6811 N   0  0  0  0  0  0  0  0  0  0  0  0
   10.1936  -16.3200   22.1362 C   0  0  1  0  0  0  0  0  0  0  0  0
   10.5790  -15.1853   21.1904 C   0  0  0  0  0  0  0  0  0  0  0  0
   10.0001  -15.4475   19.8670 C   0  0  0  0  0  0  0  0  0  0  0  0
    9.7275  -16.6440   19.5788 O   0  0  0  0  0  0  0  0  0  0  0  0
   11.2377  -16.3842   23.1772 C   0  0  0  0  0  0  0  0  0  0  0  0
   12.4123  -16.6495   22.8478 O   0  0  0  0  0  0  0  0  0  0  0  0
    9.7716  -14.4002   18.9847 O   0  0  0  0  0  0  0  0  0  0  0  0
   10.9280  -16.1518   24.5270 N   0  0  0  0  0  0  0  0  0  0  0  0
   11.9041  -16.3033   25.6251 C   0  0  1  0  0  0  0  0  0  0  0  0
   11.2118  -15.9921   26.8953 C   0  0  0  0  0  0  0  0  0  0  0  0
   11.9444  -16.2343   28.1605 C   0  0  0  0  0  0  0  0  0  0  0  0
   11.2207  -15.9341   29.4282 C   0  0  0  0  0  0  0  0  0  0  0  0
   12.0642  -16.3008   30.6548 C   0  0  0  0  0  0  0  0  0  0  0  0
   11.3372  -15.9258   31.8327 N   0  0  0  0  0  0  0  0  0  0  0  0
   12.6023  -17.5774   25.5095 C   0  0  0  0  0  0  0  0  0  0  0  0
   13.8846  -17.6225   25.4770 O   0  0  0  0  0  0  0  0  0  0  0  0
   11.9909  -18.8156   25.4295 O   0  0  0  0  0  0  0  0  0  0  0  0
  2  1  1  1
  2  3  1  0
  2 10  1  0
  3  4  1  0
  4  5  2  0
  5  6  1  0
  7  6  2  0
  8  7  1  0
  9  8  2  0
  9  4  1  0
 10 11  2  0
 12 10  1  0
 12 13  1  0
 13 14  1  6
 14 15  1  0
 15 16  2  0
 17 13  1  0
 17 18  2  0
 19 15  1  0
 20 17  1  0
 21 27  1  0
 21 20  1  0
 21 22  1  1
 23 22  1  0
 24 23  1  0
 25 26  1  0
 25 24  1  0
 27 29  1  0
 28 27  2  0
M  END
$$$$
