FDK.pdb
     RDKit          3D

 29 29  0  0  1  0  0  0  0  0999 V2000
    8.3985  -14.9804   23.4531 N   0  0  0  0  0  0  0  0  0  0  0  0
    8.1208  -16.1846   22.7254 C   0  0  1  0  0  0  0  0  0  0  0  0
    7.2055  -15.9097   21.5801 C   0  0  0  0  0  0  0  0  0  0  0  0
    7.4497  -14.5239   21.1117 C   0  0  0  0  0  0  0  0  0  0  0  0
    8.0447  -14.3167   19.8833 C   0  0  0  0  0  0  0  0  0  0  0  0
    8.2931  -13.0369   19.4015 C   0  0  0  0  0  0  0  0  0  0  0  0
    7.9390  -11.9567   20.1636 C   0  0  0  0  0  0  0  0  0  0  0  0
    7.3446  -12.1326   21.3915 C   0  0  0  0  0  0  0  0  0  0  0  0
    7.1060  -13.4134   21.8530 C   0  0  0  0  0  0  0  0  0  0  0  0
    9.3764  -16.8930   22.2834 C   0  0  0  0  0  0  0  0  0  0  0  0
    9.3519  -18.0391   21.8118 O   0  0  0  0  0  0  0  0  0  0  0  0
   10.6192  -16.2266   22.4125 N   0  0  0  0  0  0  0  0  0  0  0  0
   11.8576  -16.9107   22.6911 C   0  0  1  0  0  0  0  0  0  0  0  0
   13.0036  -15.9088   22.5746 C   0  0  0  0  0  0  0  0  0  0  0  0
   14.2724  -16.6413   22.4819 C   0  0  0  0  0  0  0  0  0  0  0  0
   14.2260  -17.8355   22.0808 O   0  0  0  0  0  0  0  0  0  0  0  0
   11.9040  -17.4583   24.0608 C   0  0  0  0  0  0  0  0  0  0  0  0
   11.9411  -16.6731   25.0308 O   0  0  0  0  0  0  0  0  0  0  0  0
   15.4645  -16.0200   22.8289 O   0  0  0  0  0  0  0  0  0  0  0  0
   11.9070  -18.8443   24.2856 N   0  0  0  0  0  0  0  0  0  0  0  0
   11.8664  -19.4521   25.6312 C   0  0  1  0  0  0  0  0  0  0  0  0
   11.0326  -20.6722   25.5543 C   0  0  0  0  0  0  0  0  0  0  0  0
    9.5907  -20.5075   25.2543 C   0  0  0  0  0  0  0  0  0  0  0  0
    8.7790  -21.7517   25.1366 C   0  0  0  0  0  0  0  0  0  0  0  0
    7.2998  -21.4338   24.8882 C   0  0  0  0  0  0  0  0  0  0  0  0
    6.5887  -22.6710   24.7458 N   0  0  0  0  0  0  0  0  0  0  0  0
   13.2134  -19.5653   26.1762 C   0  0  0  0  0  0  0  0  0  0  0  0
   14.2185  -19.7691   25.4046 O   0  0  0  0  0  0  0  0  0  0  0  0
   13.5404  -19.4672   27.5166 O   0  0  0  0  0  0  0  0  0  0  0  0
  2  1  1  6
  2  3  1  0
  2 10  1  0
  3  4  1  0
  4  5  2  0
  5  6  1  0
  7  6  2  0
  8  7  1  0
  9  8  2  0
  9  4  1  0
 10 11  2  0
 12 10  1  0
 12 13  1  0
 13 14  1  1
 14 15  1  0
 15 16  2  0
 17 13  1  0
 17 18  2  0
 19 15  1  0
 20 17  1  0
 21 27  1  0
 21 20  1  0
 21 22  1  6
 23 22  1  0
 24 23  1  0
 25 26  1  0
 25 24  1  0
 27 29  1  0
 28 27  2  0
M  END
$$$$
