FDK.pdb
     RDKit          3D

 29 29  0  0  1  0  0  0  0  0999 V2000
    5.4715  -17.3949   23.7799 N   0  0  0  0  0  0  0  0  0  0  0  0
    6.4538  -16.4720   24.2700 C   0  0  1  0  0  0  0  0  0  0  0  0
    6.1433  -16.0661   25.6715 C   0  0  0  0  0  0  0  0  0  0  0  0
    6.8857  -14.8174   25.9694 C   0  0  0  0  0  0  0  0  0  0  0  0
    6.3533  -13.6025   25.5865 C   0  0  0  0  0  0  0  0  0  0  0  0
    7.0113  -12.4057   25.8443 C   0  0  0  0  0  0  0  0  0  0  0  0
    8.2157  -12.4330   26.4934 C   0  0  0  0  0  0  0  0  0  0  0  0
    8.7705  -13.6286   26.8869 C   0  0  0  0  0  0  0  0  0  0  0  0
    8.1006  -14.8079   26.6212 C   0  0  0  0  0  0  0  0  0  0  0  0
    7.8591  -17.0022   24.1372 C   0  0  0  0  0  0  0  0  0  0  0  0
    8.2018  -18.0849   24.6341 O   0  0  0  0  0  0  0  0  0  0  0  0
    8.8139  -16.2380   23.4232 N   0  0  0  0  0  0  0  0  0  0  0  0
   10.1861  -16.6471   23.2526 C   0  0  1  0  0  0  0  0  0  0  0  0
   10.8906  -15.6269   22.3619 C   0  0  0  0  0  0  0  0  0  0  0  0
   12.0812  -16.2494   21.7701 C   0  0  0  0  0  0  0  0  0  0  0  0
   13.1784  -16.0919   22.3704 O   0  0  0  0  0  0  0  0  0  0  0  0
   10.9261  -16.6859   24.5289 C   0  0  0  0  0  0  0  0  0  0  0  0
   11.1881  -15.6152   25.1150 O   0  0  0  0  0  0  0  0  0  0  0  0
   11.9762  -16.9785   20.5932 O   0  0  0  0  0  0  0  0  0  0  0  0
   11.3372  -17.9060   25.0894 N   0  0  0  0  0  0  0  0  0  0  0  0
   12.1332  -18.0063   26.3296 C   0  0  1  0  0  0  0  0  0  0  0  0
   11.4553  -18.9661   27.2289 C   0  0  0  0  0  0  0  0  0  0  0  0
   12.1061  -19.2808   28.5226 C   0  0  0  0  0  0  0  0  0  0  0  0
   11.3795  -20.2071   29.4364 C   0  0  0  0  0  0  0  0  0  0  0  0
   12.1860  -20.4832   30.7107 C   0  0  0  0  0  0  0  0  0  0  0  0
   11.3615  -21.2307   31.6152 N   0  0  0  0  0  0  0  0  0  0  0  0
   13.5387  -18.2263   26.0124 C   0  0  0  0  0  0  0  0  0  0  0  0
   13.8795  -18.8984   24.9734 O   0  0  0  0  0  0  0  0  0  0  0  0
   14.6056  -17.7560   26.7566 O   0  0  0  0  0  0  0  0  0  0  0  0
  2  1  1  1
  2  3  1  0
  2 10  1  0
  3  4  1  0
  4  5  2  0
  5  6  1  0
  7  6  2  0
  8  7  1  0
  9  8  2  0
  9  4  1  0
 10 11  2  0
 12 10  1  0
 12 13  1  0
 13 14  1  6
 14 15  1  0
 15 16  2  0
 17 13  1  0
 17 18  2  0
 19 15  1  0
 20 17  1  0
 21 27  1  0
 21 20  1  0
 21 22  1  1
 23 22  1  0
 24 23  1  0
 25 26  1  0
 25 24  1  0
 27 29  1  0
 28 27  2  0
M  END
$$$$
