FDK.pdb
     RDKit          3D

 29 29  0  0  1  0  0  0  0  0999 V2000
    5.6021  -17.3352   24.2693 N   0  0  0  0  0  0  0  0  0  0  0  0
    6.6579  -16.3652   24.3068 C   0  0  1  0  0  0  0  0  0  0  0  0
    6.9494  -15.9571   25.7117 C   0  0  0  0  0  0  0  0  0  0  0  0
    6.9998  -14.4759   25.7649 C   0  0  0  0  0  0  0  0  0  0  0  0
    5.8863  -13.7724   26.1785 C   0  0  0  0  0  0  0  0  0  0  0  0
    5.8857  -12.3842   26.2456 C   0  0  0  0  0  0  0  0  0  0  0  0
    7.0166  -11.6988   25.8930 C   0  0  0  0  0  0  0  0  0  0  0  0
    8.1412  -12.3730   25.4772 C   0  0  0  0  0  0  0  0  0  0  0  0
    8.1216  -13.7537   25.4173 C   0  0  0  0  0  0  0  0  0  0  0  0
    7.8981  -16.8358   23.5899 C   0  0  0  0  0  0  0  0  0  0  0  0
    8.3100  -18.0009   23.6870 O   0  0  0  0  0  0  0  0  0  0  0  0
    8.6118  -15.9170   22.7828 N   0  0  0  0  0  0  0  0  0  0  0  0
    9.8464  -16.2453   22.1140 C   0  0  1  0  0  0  0  0  0  0  0  0
   10.1720  -15.1330   21.1203 C   0  0  0  0  0  0  0  0  0  0  0  0
   11.3488  -15.5229   20.3339 C   0  0  0  0  0  0  0  0  0  0  0  0
   12.3118  -14.7109   20.2876 O   0  0  0  0  0  0  0  0  0  0  0  0
   10.9868  -16.3349   23.0466 C   0  0  0  0  0  0  0  0  0  0  0  0
   12.1167  -16.6257   22.6024 O   0  0  0  0  0  0  0  0  0  0  0  0
   11.3751  -16.7449   19.6753 O   0  0  0  0  0  0  0  0  0  0  0  0
   10.8175  -16.0985   24.4203 N   0  0  0  0  0  0  0  0  0  0  0  0
   11.8761  -16.3305   25.4239 C   0  0  1  0  0  0  0  0  0  0  0  0
   11.2210  -16.5718   26.7286 C   0  0  0  0  0  0  0  0  0  0  0  0
   12.0666  -17.0411   27.8515 C   0  0  0  0  0  0  0  0  0  0  0  0
   11.3840  -17.2905   29.1526 C   0  0  0  0  0  0  0  0  0  0  0  0
   12.3468  -17.8903   30.1841 C   0  0  0  0  0  0  0  0  0  0  0  0
   11.6645  -17.9789   31.4423 N   0  0  0  0  0  0  0  0  0  0  0  0
   12.8308  -17.3167   24.9338 C   0  0  0  0  0  0  0  0  0  0  0  0
   14.0861  -17.0522   24.8951 O   0  0  0  0  0  0  0  0  0  0  0  0
   12.5058  -18.5833   24.4827 O   0  0  0  0  0  0  0  0  0  0  0  0
  2  1  1  1
  2  3  1  0
  2 10  1  0
  3  4  1  0
  4  5  2  0
  5  6  1  0
  7  6  2  0
  8  7  1  0
  9  8  2  0
  9  4  1  0
 10 11  2  0
 12 10  1  0
 12 13  1  0
 13 14  1  6
 14 15  1  0
 15 16  2  0
 17 13  1  0
 17 18  2  0
 19 15  1  0
 20 17  1  0
 21 27  1  0
 21 20  1  0
 21 22  1  1
 23 22  1  0
 24 23  1  0
 25 26  1  0
 25 24  1  0
 27 29  1  0
 28 27  2  0
M  END
$$$$
