FDK.pdb
     RDKit          3D

 29 29  0  0  1  0  0  0  0  0999 V2000
    7.7543  -14.7865   20.7557 N   0  0  0  0  0  0  0  0  0  0  0  0
    7.9516  -14.4800   22.1428 C   0  0  1  0  0  0  0  0  0  0  0  0
    6.6822  -14.0015   22.7630 C   0  0  0  0  0  0  0  0  0  0  0  0
    6.9674  -13.6120   24.1652 C   0  0  0  0  0  0  0  0  0  0  0  0
    6.5213  -14.4132   25.1972 C   0  0  0  0  0  0  0  0  0  0  0  0
    6.7647  -14.0903   26.5269 C   0  0  0  0  0  0  0  0  0  0  0  0
    7.4635  -12.9505   26.8195 C   0  0  0  0  0  0  0  0  0  0  0  0
    7.9203  -12.1329   25.8120 C   0  0  0  0  0  0  0  0  0  0  0  0
    7.6679  -12.4715   24.4960 C   0  0  0  0  0  0  0  0  0  0  0  0
    8.5506  -15.6331   22.9078 C   0  0  0  0  0  0  0  0  0  0  0  0
    8.0027  -16.7440   22.9560 O   0  0  0  0  0  0  0  0  0  0  0  0
    9.7754  -15.4380   23.5911 N   0  0  0  0  0  0  0  0  0  0  0  0
   10.4638  -16.4909   24.2960 C   0  0  1  0  0  0  0  0  0  0  0  0
   11.9332  -16.1018   24.4374 C   0  0  0  0  0  0  0  0  0  0  0  0
   12.6089  -16.3072   23.1503 C   0  0  0  0  0  0  0  0  0  0  0  0
   12.4546  -17.4230   22.5846 O   0  0  0  0  0  0  0  0  0  0  0  0
    9.9400  -16.6923   25.6609 C   0  0  0  0  0  0  0  0  0  0  0  0
    9.8949  -15.7229   26.4463 O   0  0  0  0  0  0  0  0  0  0  0  0
   13.3829  -15.2952   22.5986 O   0  0  0  0  0  0  0  0  0  0  0  0
    9.4940  -17.9544   26.0853 N   0  0  0  0  0  0  0  0  0  0  0  0
    8.9926  -18.2262   27.4477 C   0  0  1  0  0  0  0  0  0  0  0  0
    7.9374  -19.2587   27.3466 C   0  0  0  0  0  0  0  0  0  0  0  0
    7.2346  -19.4056   26.0502 C   0  0  0  0  0  0  0  0  0  0  0  0
    6.3657  -20.6050   25.8851 C   0  0  0  0  0  0  0  0  0  0  0  0
    5.6452  -20.5925   24.5319 C   0  0  0  0  0  0  0  0  0  0  0  0
    4.9403  -21.8325   24.3829 N   0  0  0  0  0  0  0  0  0  0  0  0
   10.1056  -18.4584   28.3597 C   0  0  0  0  0  0  0  0  0  0  0  0
    9.9112  -18.5361   29.6260 O   0  0  0  0  0  0  0  0  0  0  0  0
   11.4262  -18.6159   27.9797 O   0  0  0  0  0  0  0  0  0  0  0  0
  2  1  1  6
  2  3  1  0
  2 10  1  0
  3  4  1  0
  4  5  2  0
  5  6  1  0
  7  6  2  0
  8  7  1  0
  9  8  2  0
  9  4  1  0
 10 11  2  0
 12 10  1  0
 12 13  1  0
 13 14  1  1
 14 15  1  0
 15 16  2  0
 17 13  1  0
 17 18  2  0
 19 15  1  0
 20 17  1  0
 21 27  1  0
 21 20  1  0
 21 22  1  6
 23 22  1  0
 24 23  1  0
 25 26  1  0
 25 24  1  0
 27 29  1  0
 28 27  2  0
M  END
$$$$
