FDK.pdb
     RDKit          3D

 29 29  0  0  1  0  0  0  0  0999 V2000
    5.8198  -16.8677   25.0599 N   0  0  0  0  0  0  0  0  0  0  0  0
    6.9452  -16.0012   24.8616 C   0  0  1  0  0  0  0  0  0  0  0  0
    7.3615  -15.3741   26.1495 C   0  0  0  0  0  0  0  0  0  0  0  0
    6.9248  -13.9570   26.1395 C   0  0  0  0  0  0  0  0  0  0  0  0
    7.7474  -12.9962   25.5860 C   0  0  0  0  0  0  0  0  0  0  0  0
    7.3813  -11.6559   25.5527 C   0  0  0  0  0  0  0  0  0  0  0  0
    6.1762  -11.2802   26.0815 C   0  0  0  0  0  0  0  0  0  0  0  0
    5.3359  -12.2154   26.6396 C   0  0  0  0  0  0  0  0  0  0  0  0
    5.7182  -13.5433   26.6631 C   0  0  0  0  0  0  0  0  0  0  0  0
    8.0950  -16.6977   24.1786 C   0  0  0  0  0  0  0  0  0  0  0  0
    8.4146  -17.8629   24.4559 O   0  0  0  0  0  0  0  0  0  0  0  0
    8.8302  -15.9971   23.1918 N   0  0  0  0  0  0  0  0  0  0  0  0
    9.9984  -16.5393   22.5430 C   0  0  1  0  0  0  0  0  0  0  0  0
   10.4079  -15.5981   21.4129 C   0  0  0  0  0  0  0  0  0  0  0  0
   11.3670  -16.2866   20.5403 C   0  0  0  0  0  0  0  0  0  0  0  0
   11.1625  -16.2355   19.2975 O   0  0  0  0  0  0  0  0  0  0  0  0
   11.1538  -16.6423   23.4555 C   0  0  0  0  0  0  0  0  0  0  0  0
   11.6188  -15.6045   23.9707 O   0  0  0  0  0  0  0  0  0  0  0  0
   12.4497  -16.9616   21.0880 O   0  0  0  0  0  0  0  0  0  0  0  0
   11.7337  -17.8868   23.7499 N   0  0  0  0  0  0  0  0  0  0  0  0
   12.7462  -18.0847   24.8070 C   0  0  1  0  0  0  0  0  0  0  0  0
   12.3181  -19.2320   25.6378 C   0  0  0  0  0  0  0  0  0  0  0  0
   12.5952  -19.1749   27.0925 C   0  0  0  0  0  0  0  0  0  0  0  0
   12.0586  -20.2874   27.9263 C   0  0  0  0  0  0  0  0  0  0  0  0
   12.2840  -20.0263   29.4202 C   0  0  0  0  0  0  0  0  0  0  0  0
   11.5590  -21.0131   30.1666 N   0  0  0  0  0  0  0  0  0  0  0  0
   14.0839  -18.1075   24.2287 C   0  0  0  0  0  0  0  0  0  0  0  0
   14.2747  -18.5326   23.0329 O   0  0  0  0  0  0  0  0  0  0  0  0
   15.2359  -17.6914   24.8714 O   0  0  0  0  0  0  0  0  0  0  0  0
  2  1  1  1
  2  3  1  0
  2 10  1  0
  3  4  1  0
  4  5  2  0
  5  6  1  0
  7  6  2  0
  8  7  1  0
  9  8  2  0
  9  4  1  0
 10 11  2  0
 12 10  1  0
 12 13  1  0
 13 14  1  6
 14 15  1  0
 15 16  2  0
 17 13  1  0
 17 18  2  0
 19 15  1  0
 20 17  1  0
 21 27  1  0
 21 20  1  0
 21 22  1  6
 23 22  1  0
 24 23  1  0
 25 26  1  0
 25 24  1  0
 27 29  1  0
 28 27  2  0
M  END
$$$$
