FDK.pdb
     RDKit          3D

 29 29  0  0  1  0  0  0  0  0999 V2000
    5.8012  -17.3586   25.0218 N   0  0  0  0  0  0  0  0  0  0  0  0
    6.7802  -16.3184   24.8935 C   0  0  1  0  0  0  0  0  0  0  0  0
    7.1550  -15.7788   26.2327 C   0  0  0  0  0  0  0  0  0  0  0  0
    6.9069  -14.3167   26.2312 C   0  0  0  0  0  0  0  0  0  0  0  0
    7.8656  -13.4653   25.7194 C   0  0  0  0  0  0  0  0  0  0  0  0
    7.6784  -12.0883   25.6956 C   0  0  0  0  0  0  0  0  0  0  0  0
    6.5153  -11.5646   26.1916 C   0  0  0  0  0  0  0  0  0  0  0  0
    5.5423  -12.3885   26.7079 C   0  0  0  0  0  0  0  0  0  0  0  0
    5.7475  -13.7552   26.7225 C   0  0  0  0  0  0  0  0  0  0  0  0
    7.9890  -16.7591   24.1073 C   0  0  0  0  0  0  0  0  0  0  0  0
    8.5818  -17.8194   24.3543 O   0  0  0  0  0  0  0  0  0  0  0  0
    8.4591  -15.9349   23.0562 N   0  0  0  0  0  0  0  0  0  0  0  0
    9.6292  -16.2441   22.2721 C   0  0  1  0  0  0  0  0  0  0  0  0
    9.6813  -15.2919   21.0799 C   0  0  0  0  0  0  0  0  0  0  0  0
   10.7751  -15.6992   20.1894 C   0  0  0  0  0  0  0  0  0  0  0  0
   11.4864  -16.6749   20.5513 O   0  0  0  0  0  0  0  0  0  0  0  0
   10.8819  -16.0534   23.0286 C   0  0  0  0  0  0  0  0  0  0  0  0
   11.1819  -14.9114   23.4341 O   0  0  0  0  0  0  0  0  0  0  0  0
   10.9969  -15.0190   18.9996 O   0  0  0  0  0  0  0  0  0  0  0  0
   11.7363  -17.1350   23.2967 N   0  0  0  0  0  0  0  0  0  0  0  0
   12.8100  -17.0940   24.3102 C   0  0  1  0  0  0  0  0  0  0  0  0
   12.6478  -18.2708   25.1925 C   0  0  0  0  0  0  0  0  0  0  0  0
   13.6680  -18.4934   26.2442 C   0  0  0  0  0  0  0  0  0  0  0  0
   13.4695  -19.6678   27.1398 C   0  0  0  0  0  0  0  0  0  0  0  0
   14.4939  -19.6815   28.2804 C   0  0  0  0  0  0  0  0  0  0  0  0
   13.8985  -19.0667   29.4311 N   0  0  0  0  0  0  0  0  0  0  0  0
   14.1019  -16.8790   23.6706 C   0  0  0  0  0  0  0  0  0  0  0  0
   15.0748  -16.3489   24.3184 O   0  0  0  0  0  0  0  0  0  0  0  0
   14.4069  -17.2091   22.3624 O   0  0  0  0  0  0  0  0  0  0  0  0
  2  1  1  1
  2  3  1  0
  2 10  1  0
  3  4  1  0
  4  5  2  0
  5  6  1  0
  7  6  2  0
  8  7  1  0
  9  8  2  0
  9  4  1  0
 10 11  2  0
 12 10  1  0
 12 13  1  0
 13 14  1  6
 14 15  1  0
 15 16  2  0
 17 13  1  0
 17 18  2  0
 19 15  1  0
 20 17  1  0
 21 27  1  0
 21 20  1  0
 21 22  1  6
 23 22  1  0
 24 23  1  0
 25 26  1  0
 25 24  1  0
 27 29  1  0
 28 27  2  0
M  END
$$$$
