FDK.pdb
     RDKit          3D

 29 29  0  0  1  0  0  0  0  0999 V2000
    6.8982  -15.8448   24.0786 N   0  0  0  0  0  0  0  0  0  0  0  0
    8.1966  -15.2725   24.2869 C   0  0  1  0  0  0  0  0  0  0  0  0
    8.3063  -14.6990   25.6595 C   0  0  0  0  0  0  0  0  0  0  0  0
    7.4902  -13.4619   25.7134 C   0  0  0  0  0  0  0  0  0  0  0  0
    6.4223  -13.3897   26.5854 C   0  0  0  0  0  0  0  0  0  0  0  0
    5.6291  -12.2518   26.6722 C   0  0  0  0  0  0  0  0  0  0  0  0
    5.9142  -11.1773   25.8739 C   0  0  0  0  0  0  0  0  0  0  0  0
    6.9720  -11.2205   24.9957 C   0  0  0  0  0  0  0  0  0  0  0  0
    7.7488  -12.3614   24.9242 C   0  0  0  0  0  0  0  0  0  0  0  0
    9.3092  -16.2475   23.9951 C   0  0  0  0  0  0  0  0  0  0  0  0
    9.5248  -17.2324   24.7163 O   0  0  0  0  0  0  0  0  0  0  0  0
   10.1311  -16.0287   22.8629 N   0  0  0  0  0  0  0  0  0  0  0  0
   11.2948  -16.8264   22.5649 C   0  0  1  0  0  0  0  0  0  0  0  0
   11.8614  -16.3767   21.2205 C   0  0  0  0  0  0  0  0  0  0  0  0
   10.9942  -16.8734   20.1451 C   0  0  0  0  0  0  0  0  0  0  0  0
   10.7925  -16.1105   19.1622 O   0  0  0  0  0  0  0  0  0  0  0  0
   12.3683  -16.6531   23.5626 C   0  0  0  0  0  0  0  0  0  0  0  0
   12.7077  -15.4998   23.8994 O   0  0  0  0  0  0  0  0  0  0  0  0
   10.4297  -18.1389   20.2315 O   0  0  0  0  0  0  0  0  0  0  0  0
   13.0096  -17.7634   24.1349 N   0  0  0  0  0  0  0  0  0  0  0  0
   13.9855  -17.6617   25.2390 C   0  0  1  0  0  0  0  0  0  0  0  0
   13.9018  -18.9055   26.0362 C   0  0  0  0  0  0  0  0  0  0  0  0
   12.6369  -19.1816   26.7573 C   0  0  0  0  0  0  0  0  0  0  0  0
   12.5649  -20.4525   27.5323 C   0  0  0  0  0  0  0  0  0  0  0  0
   11.2281  -20.5825   28.2717 C   0  0  0  0  0  0  0  0  0  0  0  0
   11.2515  -21.7933   29.0398 N   0  0  0  0  0  0  0  0  0  0  0  0
   15.2873  -17.2516   24.7275 C   0  0  0  0  0  0  0  0  0  0  0  0
   15.5888  -17.4184   23.4912 O   0  0  0  0  0  0  0  0  0  0  0  0
   16.2888  -16.6643   25.4794 O   0  0  0  0  0  0  0  0  0  0  0  0
  2  1  1  1
  2  3  1  0
  2 10  1  0
  3  4  1  0
  4  5  2  0
  5  6  1  0
  7  6  2  0
  8  7  1  0
  9  8  2  0
  9  4  1  0
 10 11  2  0
 12 10  1  0
 12 13  1  0
 13 14  1  6
 14 15  1  0
 15 16  2  0
 17 13  1  0
 17 18  2  0
 19 15  1  0
 20 17  1  0
 21 27  1  0
 21 20  1  0
 21 22  1  6
 23 22  1  0
 24 23  1  0
 25 26  1  0
 25 24  1  0
 27 29  1  0
 28 27  2  0
M  END
$$$$
