FDK.pdb
     RDKit          3D

 29 29  0  0  1  0  0  0  0  0999 V2000
    5.7605  -17.2135   25.1858 N   0  0  0  0  0  0  0  0  0  0  0  0
    6.8328  -16.2986   24.9209 C   0  0  1  0  0  0  0  0  0  0  0  0
    7.2768  -15.6284   26.1774 C   0  0  0  0  0  0  0  0  0  0  0  0
    6.9878  -14.1788   26.0587 C   0  0  0  0  0  0  0  0  0  0  0  0
    7.9218  -13.3450   25.4770 C   0  0  0  0  0  0  0  0  0  0  0  0
    7.6959  -11.9802   25.3428 C   0  0  0  0  0  0  0  0  0  0  0  0
    6.5189  -11.4508   25.7985 C   0  0  0  0  0  0  0  0  0  0  0  0
    5.5698  -12.2572   26.3824 C   0  0  0  0  0  0  0  0  0  0  0  0
    5.8134  -13.6120   26.5067 C   0  0  0  0  0  0  0  0  0  0  0  0
    7.9823  -16.9527   24.1968 C   0  0  0  0  0  0  0  0  0  0  0  0
    8.3902  -18.0835   24.4993 O   0  0  0  0  0  0  0  0  0  0  0  0
    8.6131  -16.2517   23.1405 N   0  0  0  0  0  0  0  0  0  0  0  0
    9.7968  -16.7302   22.4701 C   0  0  1  0  0  0  0  0  0  0  0  0
    9.9467  -15.9767   21.1509 C   0  0  0  0  0  0  0  0  0  0  0  0
   10.4567  -16.8985   20.1284 C   0  0  0  0  0  0  0  0  0  0  0  0
    9.7716  -17.9270   19.8796 O   0  0  0  0  0  0  0  0  0  0  0  0
   11.0256  -16.4811   23.2486 C   0  0  0  0  0  0  0  0  0  0  0  0
   11.3814  -15.3045   23.4671 O   0  0  0  0  0  0  0  0  0  0  0  0
   11.6508  -16.6253   19.4750 O   0  0  0  0  0  0  0  0  0  0  0  0
   11.7959  -17.5456   23.7438 N   0  0  0  0  0  0  0  0  0  0  0  0
   13.0044  -17.3608   24.5727 C   0  0  1  0  0  0  0  0  0  0  0  0
   13.1666  -18.5662   25.4156 C   0  0  0  0  0  0  0  0  0  0  0  0
   12.2135  -18.7626   26.5333 C   0  0  0  0  0  0  0  0  0  0  0  0
   12.2108  -20.0996   27.1915 C   0  0  0  0  0  0  0  0  0  0  0  0
   11.2065  -20.1519   28.3488 C   0  0  0  0  0  0  0  0  0  0  0  0
   11.3485  -21.4141   29.0147 N   0  0  0  0  0  0  0  0  0  0  0  0
   14.1263  -16.9373   23.7443 C   0  0  0  0  0  0  0  0  0  0  0  0
   15.2062  -16.4947   24.2784 O   0  0  0  0  0  0  0  0  0  0  0  0
   14.1507  -16.9675   22.3616 O   0  0  0  0  0  0  0  0  0  0  0  0
  2  1  1  1
  2  3  1  0
  2 10  1  0
  3  4  1  0
  4  5  2  0
  5  6  1  0
  7  6  2  0
  8  7  1  0
  9  8  2  0
  9  4  1  0
 10 11  2  0
 12 10  1  0
 12 13  1  0
 13 14  1  6
 14 15  1  0
 15 16  2  0
 17 13  1  0
 17 18  2  0
 19 15  1  0
 20 17  1  0
 21 27  1  0
 21 20  1  0
 21 22  1  6
 23 22  1  0
 24 23  1  0
 25 26  1  0
 25 24  1  0
 27 29  1  0
 28 27  2  0
M  END
$$$$
