FDK.pdb
     RDKit          3D

 29 29  0  0  1  0  0  0  0  0999 V2000
    6.8861  -15.7606   21.5211 N   0  0  0  0  0  0  0  0  0  0  0  0
    7.3762  -15.1128   22.7031 C   0  0  1  0  0  0  0  0  0  0  0  0
    6.2519  -14.7710   23.6220 C   0  0  0  0  0  0  0  0  0  0  0  0
    6.7794  -13.8967   24.6974 C   0  0  0  0  0  0  0  0  0  0  0  0
    8.0061  -13.2845   24.5351 C   0  0  0  0  0  0  0  0  0  0  0  0
    8.5414  -12.4560   25.5143 C   0  0  0  0  0  0  0  0  0  0  0  0
    7.8349  -12.2424   26.6668 C   0  0  0  0  0  0  0  0  0  0  0  0
    6.6101  -12.8391   26.8562 C   0  0  0  0  0  0  0  0  0  0  0  0
    6.0949  -13.6596   25.8705 C   0  0  0  0  0  0  0  0  0  0  0  0
    8.4457  -15.9165   23.3989 C   0  0  0  0  0  0  0  0  0  0  0  0
    8.1831  -16.9498   24.0312 O   0  0  0  0  0  0  0  0  0  0  0  0
    9.7891  -15.4748   23.3264 N   0  0  0  0  0  0  0  0  0  0  0  0
   10.9138  -16.3025   23.6863 C   0  0  1  0  0  0  0  0  0  0  0  0
   12.1639  -15.7450   23.0103 C   0  0  0  0  0  0  0  0  0  0  0  0
   13.2677  -16.6971   23.1851 C   0  0  0  0  0  0  0  0  0  0  0  0
   13.0085  -17.7877   23.7616 O   0  0  0  0  0  0  0  0  0  0  0  0
   11.1742  -16.3000   25.1389 C   0  0  0  0  0  0  0  0  0  0  0  0
   11.5693  -15.2497   25.6862 O   0  0  0  0  0  0  0  0  0  0  0  0
   14.5395  -16.3842   22.7243 O   0  0  0  0  0  0  0  0  0  0  0  0
   10.9842  -17.4584   25.9094 N   0  0  0  0  0  0  0  0  0  0  0  0
   11.2261  -17.5179   27.3653 C   0  0  1  0  0  0  0  0  0  0  0  0
   10.5844  -18.7466   27.8832 C   0  0  0  0  0  0  0  0  0  0  0  0
   10.8500  -19.1256   29.2911 C   0  0  0  0  0  0  0  0  0  0  0  0
   10.3437  -20.4534   29.7401 C   0  0  0  0  0  0  0  0  0  0  0  0
   10.6710  -20.7074   31.2162 C   0  0  0  0  0  0  0  0  0  0  0  0
   10.0719  -21.9510   31.6052 N   0  0  0  0  0  0  0  0  0  0  0  0
   12.6378  -17.2981   27.6532 C   0  0  0  0  0  0  0  0  0  0  0  0
   12.9994  -16.5630   28.6413 O   0  0  0  0  0  0  0  0  0  0  0  0
   13.6899  -17.8332   26.9319 O   0  0  0  0  0  0  0  0  0  0  0  0
  2  1  1  6
  2  3  1  0
  2 10  1  0
  3  4  1  0
  4  5  2  0
  5  6  1  0
  7  6  2  0
  8  7  1  0
  9  8  2  0
  9  4  1  0
 10 11  2  0
 12 10  1  0
 12 13  1  0
 13 14  1  6
 14 15  1  0
 15 16  2  0
 17 13  1  0
 17 18  2  0
 19 15  1  0
 20 17  1  0
 21 27  1  0
 21 20  1  0
 21 22  1  6
 23 22  1  0
 24 23  1  0
 25 26  1  0
 25 24  1  0
 27 29  1  0
 28 27  2  0
M  END
$$$$
