FDK.pdb
     RDKit          3D

 29 29  0  0  1  0  0  0  0  0999 V2000
    5.6240  -17.3926   24.7714 N   0  0  0  0  0  0  0  0  0  0  0  0
    6.6275  -16.3680   24.7798 C   0  0  1  0  0  0  0  0  0  0  0  0
    6.8674  -15.8761   26.1674 C   0  0  0  0  0  0  0  0  0  0  0  0
    6.7751  -14.3960   26.1588 C   0  0  0  0  0  0  0  0  0  0  0  0
    7.8318  -13.6521   25.6730 C   0  0  0  0  0  0  0  0  0  0  0  0
    7.7916  -12.2631   25.6438 C   0  0  0  0  0  0  0  0  0  0  0  0
    6.6773  -11.6181   26.1079 C   0  0  0  0  0  0  0  0  0  0  0  0
    5.6092  -12.3331   26.5977 C   0  0  0  0  0  0  0  0  0  0  0  0
    5.6686  -13.7138   26.6183 C   0  0  0  0  0  0  0  0  0  0  0  0
    7.9054  -16.8080   24.1111 C   0  0  0  0  0  0  0  0  0  0  0  0
    8.5084  -17.8338   24.4585 O   0  0  0  0  0  0  0  0  0  0  0  0
    8.4300  -16.0236   23.0553 N   0  0  0  0  0  0  0  0  0  0  0  0
    9.6584  -16.3410   22.3699 C   0  0  1  0  0  0  0  0  0  0  0  0
    9.7973  -15.4129   21.1658 C   0  0  0  0  0  0  0  0  0  0  0  0
   10.9307  -15.8584   20.3460 C   0  0  0  0  0  0  0  0  0  0  0  0
   11.9701  -15.1452   20.3548 O   0  0  0  0  0  0  0  0  0  0  0  0
   10.8483  -16.1268   23.2162 C   0  0  0  0  0  0  0  0  0  0  0  0
   11.1093  -14.9752   23.6217 O   0  0  0  0  0  0  0  0  0  0  0  0
   10.8361  -17.0245   19.5983 O   0  0  0  0  0  0  0  0  0  0  0  0
   11.6865  -17.1966   23.5693 N   0  0  0  0  0  0  0  0  0  0  0  0
   12.8329  -17.0643   24.4912 C   0  0  1  0  0  0  0  0  0  0  0  0
   12.8317  -18.2396   25.3902 C   0  0  0  0  0  0  0  0  0  0  0  0
   13.8967  -18.3268   26.4170 C   0  0  0  0  0  0  0  0  0  0  0  0
   13.9311  -19.5613   27.2512 C   0  0  0  0  0  0  0  0  0  0  0  0
   15.0858  -19.5239   28.2591 C   0  0  0  0  0  0  0  0  0  0  0  0
   15.0078  -20.6968   29.0806 N   0  0  0  0  0  0  0  0  0  0  0  0
   14.0487  -16.7614   23.7466 C   0  0  0  0  0  0  0  0  0  0  0  0
   14.9643  -16.0217   24.2582 O   0  0  0  0  0  0  0  0  0  0  0  0
   14.3363  -17.2174   22.4728 O   0  0  0  0  0  0  0  0  0  0  0  0
  2  1  1  1
  2  3  1  0
  2 10  1  0
  3  4  1  0
  4  5  2  0
  5  6  1  0
  7  6  2  0
  8  7  1  0
  9  8  2  0
  9  4  1  0
 10 11  2  0
 12 10  1  0
 12 13  1  0
 13 14  1  6
 14 15  1  0
 15 16  2  0
 17 13  1  0
 17 18  2  0
 19 15  1  0
 20 17  1  0
 21 27  1  0
 21 20  1  0
 21 22  1  6
 23 22  1  0
 24 23  1  0
 25 26  1  0
 25 24  1  0
 27 29  1  0
 28 27  2  0
M  END
$$$$
