FDK.pdb
     RDKit          3D

 29 29  0  0  1  0  0  0  0  0999 V2000
    6.2029  -18.2602   19.5157 N   0  0  0  0  0  0  0  0  0  0  0  0
    6.9359  -17.0751   19.8549 C   0  0  1  0  0  0  0  0  0  0  0  0
    6.0782  -16.1259   20.6222 C   0  0  0  0  0  0  0  0  0  0  0  0
    6.8592  -14.8900   20.8707 C   0  0  0  0  0  0  0  0  0  0  0  0
    7.2849  -14.6012   22.1519 C   0  0  0  0  0  0  0  0  0  0  0  0
    8.0198  -13.4558   22.4339 C   0  0  0  0  0  0  0  0  0  0  0  0
    8.3287  -12.5940   21.4166 C   0  0  0  0  0  0  0  0  0  0  0  0
    7.9180  -12.8558   20.1301 C   0  0  0  0  0  0  0  0  0  0  0  0
    7.1880  -14.0002   19.8702 C   0  0  0  0  0  0  0  0  0  0  0  0
    8.2223  -17.3811   20.5796 C   0  0  0  0  0  0  0  0  0  0  0  0
    8.2416  -18.0245   21.6390 O   0  0  0  0  0  0  0  0  0  0  0  0
    9.4430  -16.9181   20.0314 N   0  0  0  0  0  0  0  0  0  0  0  0
   10.7352  -17.2948   20.5490 C   0  0  1  0  0  0  0  0  0  0  0  0
   11.7947  -16.9613   19.5017 C   0  0  0  0  0  0  0  0  0  0  0  0
   13.0471  -17.6413   19.8542 C   0  0  0  0  0  0  0  0  0  0  0  0
   13.0097  -18.4746   20.7993 O   0  0  0  0  0  0  0  0  0  0  0  0
   11.0918  -16.5503   21.7724 C   0  0  0  0  0  0  0  0  0  0  0  0
   11.3242  -15.3261   21.6956 O   0  0  0  0  0  0  0  0  0  0  0  0
   14.2147  -17.3594   19.1580 O   0  0  0  0  0  0  0  0  0  0  0  0
   11.1728  -17.1985   23.0153 N   0  0  0  0  0  0  0  0  0  0  0  0
   11.6172  -16.5307   24.2556 C   0  0  1  0  0  0  0  0  0  0  0  0
   10.9225  -17.1741   25.3927 C   0  0  0  0  0  0  0  0  0  0  0  0
   11.3146  -16.7679   26.7629 C   0  0  0  0  0  0  0  0  0  0  0  0
   10.5986  -17.4248   27.8929 C   0  0  0  0  0  0  0  0  0  0  0  0
   11.1537  -16.9694   29.2476 C   0  0  0  0  0  0  0  0  0  0  0  0
   10.4555  -17.6745   30.2830 N   0  0  0  0  0  0  0  0  0  0  0  0
   13.0717  -16.4438   24.2904 C   0  0  0  0  0  0  0  0  0  0  0  0
   13.6559  -15.4120   24.7817 O   0  0  0  0  0  0  0  0  0  0  0  0
   13.9384  -17.4159   23.8244 O   0  0  0  0  0  0  0  0  0  0  0  0
  2  1  1  1
  2  3  1  0
  2 10  1  0
  3  4  1  0
  4  5  2  0
  5  6  1  0
  7  6  2  0
  8  7  1  0
  9  8  2  0
  9  4  1  0
 10 11  2  0
 12 10  1  0
 12 13  1  0
 13 14  1  6
 14 15  1  0
 15 16  2  0
 17 13  1  0
 17 18  2  0
 19 15  1  0
 20 17  1  0
 21 27  1  0
 21 20  1  0
 21 22  1  1
 23 22  1  0
 24 23  1  0
 25 26  1  0
 25 24  1  0
 27 29  1  0
 28 27  2  0
M  END
$$$$
