FDK.pdb
     RDKit          3D

 29 29  0  0  1  0  0  0  0  0999 V2000
    5.7739  -15.7945   24.2008 N   0  0  0  0  0  0  0  0  0  0  0  0
    6.8306  -15.3967   23.3165 C   0  0  1  0  0  0  0  0  0  0  0  0
    7.0232  -13.9180   23.3565 C   0  0  0  0  0  0  0  0  0  0  0  0
    7.1618  -13.5051   24.7741 C   0  0  0  0  0  0  0  0  0  0  0  0
    8.3852  -13.0630   25.2366 C   0  0  0  0  0  0  0  0  0  0  0  0
    8.5639  -12.6648   26.5561 C   0  0  0  0  0  0  0  0  0  0  0  0
    7.5012  -12.7124   27.4171 C   0  0  0  0  0  0  0  0  0  0  0  0
    6.2704  -13.1485   26.9845 C   0  0  0  0  0  0  0  0  0  0  0  0
    6.1131  -13.5402   25.6684 C   0  0  0  0  0  0  0  0  0  0  0  0
    8.1159  -16.1379   23.5848 C   0  0  0  0  0  0  0  0  0  0  0  0
    8.2059  -16.9940   24.4768 O   0  0  0  0  0  0  0  0  0  0  0  0
    9.2527  -15.8448   22.7929 N   0  0  0  0  0  0  0  0  0  0  0  0
   10.3994  -16.7145   22.7037 C   0  0  1  0  0  0  0  0  0  0  0  0
   11.3149  -16.2002   21.5956 C   0  0  0  0  0  0  0  0  0  0  0  0
   12.4081  -17.1591   21.3941 C   0  0  0  0  0  0  0  0  0  0  0  0
   12.1105  -18.2884   20.9198 O   0  0  0  0  0  0  0  0  0  0  0  0
   11.1955  -16.7278   23.9464 C   0  0  0  0  0  0  0  0  0  0  0  0
   11.8398  -15.7083   24.2691 O   0  0  0  0  0  0  0  0  0  0  0  0
   13.7116  -16.8111   21.7219 O   0  0  0  0  0  0  0  0  0  0  0  0
   11.2371  -17.8671   24.7661 N   0  0  0  0  0  0  0  0  0  0  0  0
   12.0380  -17.9517   26.0043 C   0  0  1  0  0  0  0  0  0  0  0  0
   11.3134  -18.8227   26.9561 C   0  0  0  0  0  0  0  0  0  0  0  0
   11.9344  -19.0700   28.2788 C   0  0  0  0  0  0  0  0  0  0  0  0
   11.1633  -19.9068   29.2411 C   0  0  0  0  0  0  0  0  0  0  0  0
   11.9314  -20.1024   30.5535 C   0  0  0  0  0  0  0  0  0  0  0  0
   11.1718  -20.9797   31.3961 N   0  0  0  0  0  0  0  0  0  0  0  0
   13.4248  -18.2709   25.6892 C   0  0  0  0  0  0  0  0  0  0  0  0
   13.7098  -19.1801   24.8293 O   0  0  0  0  0  0  0  0  0  0  0  0
   14.5300  -17.6577   26.2511 O   0  0  0  0  0  0  0  0  0  0  0  0
  2  1  1  1
  2  3  1  0
  2 10  1  0
  3  4  1  0
  4  5  2  0
  5  6  1  0
  7  6  2  0
  8  7  1  0
  9  8  2  0
  9  4  1  0
 10 11  2  0
 12 10  1  0
 12 13  1  0
 13 14  1  6
 14 15  1  0
 15 16  2  0
 17 13  1  0
 17 18  2  0
 19 15  1  0
 20 17  1  0
 21 27  1  0
 21 20  1  0
 21 22  1  1
 23 22  1  0
 24 23  1  0
 25 26  1  0
 25 24  1  0
 27 29  1  0
 28 27  2  0
M  END
$$$$
