FDK.pdb
     RDKit          3D

 29 29  0  0  1  0  0  0  0  0999 V2000
    6.2067  -16.4892   25.1061 N   0  0  0  0  0  0  0  0  0  0  0  0
    7.3754  -15.7475   24.7306 C   0  0  1  0  0  0  0  0  0  0  0  0
    7.8811  -14.9425   25.8802 C   0  0  0  0  0  0  0  0  0  0  0  0
    7.2007  -13.6249   25.8605 C   0  0  0  0  0  0  0  0  0  0  0  0
    7.7519  -12.5862   25.1370 C   0  0  0  0  0  0  0  0  0  0  0  0
    7.1508  -11.3341   25.0877 C   0  0  0  0  0  0  0  0  0  0  0  0
    5.9845  -11.1265   25.7730 C   0  0  0  0  0  0  0  0  0  0  0  0
    5.4122  -12.1427   26.5024 C   0  0  0  0  0  0  0  0  0  0  0  0
    6.0255  -13.3808   26.5388 C   0  0  0  0  0  0  0  0  0  0  0  0
    8.4512  -16.6260   24.1439 C   0  0  0  0  0  0  0  0  0  0  0  0
    8.6421  -17.7844   24.5417 O   0  0  0  0  0  0  0  0  0  0  0  0
    9.2667  -16.1095   23.1078 N   0  0  0  0  0  0  0  0  0  0  0  0
   10.3980  -16.8193   22.5640 C   0  0  1  0  0  0  0  0  0  0  0  0
   10.8014  -16.1569   21.2491 C   0  0  0  0  0  0  0  0  0  0  0  0
    9.8630  -16.5687   20.1978 C   0  0  0  0  0  0  0  0  0  0  0  0
    9.5592  -17.7905   20.1362 O   0  0  0  0  0  0  0  0  0  0  0  0
   11.5766  -16.7662   23.4506 C   0  0  0  0  0  0  0  0  0  0  0  0
   12.0035  -15.6568   23.8322 O   0  0  0  0  0  0  0  0  0  0  0  0
    9.3444  -15.6288   19.3174 O   0  0  0  0  0  0  0  0  0  0  0  0
   12.2208  -17.9420   23.8681 N   0  0  0  0  0  0  0  0  0  0  0  0
   13.3303  -17.9616   24.8429 C   0  0  1  0  0  0  0  0  0  0  0  0
   13.1607  -19.1549   25.7013 C   0  0  0  0  0  0  0  0  0  0  0  0
   12.5468  -18.9655   27.0367 C   0  0  0  0  0  0  0  0  0  0  0  0
   12.4302  -20.1720   27.9037 C   0  0  0  0  0  0  0  0  0  0  0  0
   11.7850  -19.8321   29.2523 C   0  0  0  0  0  0  0  0  0  0  0  0
   11.5366  -21.0564   29.9567 N   0  0  0  0  0  0  0  0  0  0  0  0
   14.6052  -17.7717   24.1625 C   0  0  0  0  0  0  0  0  0  0  0  0
   14.7524  -18.1189   22.9357 O   0  0  0  0  0  0  0  0  0  0  0  0
   15.7381  -17.2213   24.7341 O   0  0  0  0  0  0  0  0  0  0  0  0
  2  1  1  1
  2  3  1  0
  2 10  1  0
  3  4  1  0
  4  5  2  0
  5  6  1  0
  7  6  2  0
  8  7  1  0
  9  8  2  0
  9  4  1  0
 10 11  2  0
 12 10  1  0
 12 13  1  0
 13 14  1  6
 14 15  1  0
 15 16  2  0
 17 13  1  0
 17 18  2  0
 19 15  1  0
 20 17  1  0
 21 27  1  0
 21 20  1  0
 21 22  1  6
 23 22  1  0
 24 23  1  0
 25 26  1  0
 25 24  1  0
 27 29  1  0
 28 27  2  0
M  END
$$$$
