STI.pdb
     RDKit          3D

 22 21  0  0  1  0  0  0  0  0999 V2000
   14.3676  -18.2377   22.8405 O   0  0  0  0  0  0  0  0  0  0  0  0
   13.4993  -18.5044   21.7822 C   0  0  0  0  0  0  0  0  0  0  0  0
   12.9504  -17.2455   21.1784 C   0  0  2  0  0  0  0  0  0  0  0  0
   14.0678  -16.4117   20.7889 N   0  0  0  0  0  0  0  0  0  0  0  0
   12.0337  -16.5182   22.0712 C   0  0  0  0  0  0  0  0  0  0  0  0
   12.4683  -15.5121   22.7004 O   0  0  0  0  0  0  0  0  0  0  0  0
    7.4029  -16.3280   23.9434 C   0  0  0  0  0  0  0  0  0  0  0  0
    8.4224  -16.8219   22.9811 C   0  0  1  0  0  0  0  0  0  0  0  0
    8.1263  -16.5422   21.6691 O   0  0  0  0  0  0  0  0  0  0  0  0
    9.8232  -16.2681   23.2804 C   0  0  2  0  0  0  0  0  0  0  0  0
   10.6906  -16.8635   22.2801 N   0  0  0  0  0  0  0  0  0  0  0  0
   10.2535  -16.5154   24.6431 C   0  0  0  0  0  0  0  0  0  0  0  0
   10.9247  -17.5338   24.9191 O   0  0  0  0  0  0  0  0  0  0  0  0
    9.4432  -12.4169   28.2584 C   0  0  0  0  0  0  0  0  0  0  0  0
   10.2137  -13.4508   27.4687 C   0  0  0  0  0  0  0  0  0  0  0  0
    9.8783  -14.8205   28.0122 C   0  0  2  0  0  0  0  0  0  0  0  0
   10.5795  -14.9979   29.3495 C   0  0  0  0  0  0  0  0  0  0  0  0
   10.2918  -15.9239   27.0754 C   0  0  2  0  0  0  0  0  0  0  0  0
    9.9411  -15.6345   25.6978 N   0  0  0  0  0  0  0  0  0  0  0  0
    9.6947  -17.1954   27.5394 C   0  0  0  0  0  0  0  0  0  0  0  0
    8.5395  -17.4903   27.1582 O   0  0  0  0  0  0  0  0  0  0  0  0
   10.3483  -18.0782   28.3750 O   0  0  0  0  0  0  0  0  0  0  0  0
  1  2  1  0
  2  3  1  0
  3  5  1  0
  3  4  1  1
  5  6  2  0
  8  7  1  1
  8 10  1  0
  9  8  1  0
 10 12  1  0
 10 11  1  6
 11  5  1  0
 12 19  1  0
 13 12  2  0
 15 14  1  0
 16 15  1  0
 16 17  1  1
 18 16  1  0
 18 19  1  6
 20 22  1  0
 20 18  1  0
 21 20  2  0
M  END
$$$$
