STI.pdb
     RDKit          3D

 22 21  0  0  1  0  0  0  0  0999 V2000
   13.3156  -17.2244   20.3858 O   0  0  0  0  0  0  0  0  0  0  0  0
   12.4927  -16.1660   20.0014 C   0  0  0  0  0  0  0  0  0  0  0  0
   11.0952  -16.6236   19.7043 C   0  0  2  0  0  0  0  0  0  0  0  0
   10.8355  -16.3864   18.3001 N   0  0  0  0  0  0  0  0  0  0  0  0
   10.0754  -15.9786   20.5471 C   0  0  0  0  0  0  0  0  0  0  0  0
    9.7755  -14.7716   20.3226 O   0  0  0  0  0  0  0  0  0  0  0  0
    6.5915  -17.1742   21.0230 C   0  0  0  0  0  0  0  0  0  0  0  0
    7.1939  -17.0300   22.3742 C   0  0  1  0  0  0  0  0  0  0  0  0
    7.6615  -18.2098   22.9004 O   0  0  0  0  0  0  0  0  0  0  0  0
    8.3438  -16.0123   22.3942 C   0  0  2  0  0  0  0  0  0  0  0  0
    9.3992  -16.6134   21.5990 N   0  0  0  0  0  0  0  0  0  0  0  0
    8.7614  -15.6519   23.7355 C   0  0  0  0  0  0  0  0  0  0  0  0
    9.8487  -16.0676   24.1922 O   0  0  0  0  0  0  0  0  0  0  0  0
    5.4181  -12.3806   27.0672 C   0  0  0  0  0  0  0  0  0  0  0  0
    6.1179  -13.5186   26.3592 C   0  0  0  0  0  0  0  0  0  0  0  0
    7.6102  -13.2972   26.4492 C   0  0  2  0  0  0  0  0  0  0  0  0
    7.9627  -12.0395   25.6710 C   0  0  0  0  0  0  0  0  0  0  0  0
    8.3944  -14.4622   25.9075 C   0  0  2  0  0  0  0  0  0  0  0  0
    7.9750  -14.8312   24.5686 N   0  0  0  0  0  0  0  0  0  0  0  0
    8.2815  -15.5961   26.8510 C   0  0  0  0  0  0  0  0  0  0  0  0
    8.7938  -15.4844   27.9876 O   0  0  0  0  0  0  0  0  0  0  0  0
    7.6374  -16.7770   26.5419 O   0  0  0  0  0  0  0  0  0  0  0  0
  1  2  1  0
  2  3  1  0
  3  5  1  0
  3  4  1  6
  5  6  2  0
  8  7  1  6
  8 10  1  0
  9  8  1  0
 10 12  1  0
 10 11  1  6
 11  5  1  0
 12 19  1  0
 13 12  2  0
 15 14  1  0
 16 15  1  0
 16 17  1  6
 18 16  1  0
 18 19  1  6
 20 22  1  0
 20 18  1  0
 21 20  2  0
M  END
$$$$
