STI.pdb
     RDKit          3D

 22 21  0  0  1  0  0  0  0  0999 V2000
   12.1622  -16.9499   18.4212 O   0  0  0  0  0  0  0  0  0  0  0  0
   11.1960  -16.1530   19.0347 C   0  0  0  0  0  0  0  0  0  0  0  0
    9.8334  -16.7774   18.9710 C   0  0  2  0  0  0  0  0  0  0  0  0
    9.2917  -16.5360   17.6505 N   0  0  0  0  0  0  0  0  0  0  0  0
    8.9167  -16.2925   20.0155 C   0  0  0  0  0  0  0  0  0  0  0  0
    8.1544  -15.3196   19.7519 O   0  0  0  0  0  0  0  0  0  0  0  0
    6.1980  -18.0970   21.4078 C   0  0  0  0  0  0  0  0  0  0  0  0
    7.0172  -17.6985   22.5823 C   0  0  1  0  0  0  0  0  0  0  0  0
    7.8644  -18.6847   23.0263 O   0  0  0  0  0  0  0  0  0  0  0  0
    7.8546  -16.4405   22.3092 C   0  0  2  0  0  0  0  0  0  0  0  0
    8.8238  -16.8380   21.3041 N   0  0  0  0  0  0  0  0  0  0  0  0
    8.4551  -15.8856   23.5071 C   0  0  0  0  0  0  0  0  0  0  0  0
    9.6711  -16.0576   23.7425 O   0  0  0  0  0  0  0  0  0  0  0  0
    5.8696  -11.7546   26.2164 C   0  0  0  0  0  0  0  0  0  0  0  0
    6.9204  -12.5601   25.4864 C   0  0  0  0  0  0  0  0  0  0  0  0
    7.3801  -13.6823   26.3883 C   0  0  2  0  0  0  0  0  0  0  0  0
    8.1080  -13.0810   27.5799 C   0  0  0  0  0  0  0  0  0  0  0  0
    8.2881  -14.6504   25.6782 C   0  0  2  0  0  0  0  0  0  0  0  0
    7.7088  -15.1405   24.4418 N   0  0  0  0  0  0  0  0  0  0  0  0
    8.6274  -15.7549   26.6021 C   0  0  0  0  0  0  0  0  0  0  0  0
    7.9026  -16.7754   26.6094 O   0  0  0  0  0  0  0  0  0  0  0  0
    9.7072  -15.7187   27.4610 O   0  0  0  0  0  0  0  0  0  0  0  0
  1  2  1  0
  2  3  1  0
  3  5  1  0
  3  4  1  6
  5  6  2  0
  8  7  1  6
  8 10  1  0
  9  8  1  0
 10 12  1  0
 10 11  1  6
 11  5  1  0
 12 19  1  0
 13 12  2  0
 15 14  1  0
 16 15  1  0
 16 17  1  1
 18 16  1  0
 18 19  1  6
 20 22  1  0
 20 18  1  0
 21 20  2  0
M  END
$$$$
