STI.pdb
     RDKit          3D

 22 21  0  0  1  0  0  0  0  0999 V2000
   11.1625  -12.6094   18.4645 O   0  0  0  0  0  0  0  0  0  0  0  0
    9.9804  -12.7048   19.1983 C   0  0  0  0  0  0  0  0  0  0  0  0
    9.2623  -13.9957   18.9365 C   0  0  2  0  0  0  0  0  0  0  0  0
    8.4858  -13.8383   17.7250 N   0  0  0  0  0  0  0  0  0  0  0  0
    8.4126  -14.4317   20.0565 C   0  0  0  0  0  0  0  0  0  0  0  0
    7.2328  -13.9853   20.1344 O   0  0  0  0  0  0  0  0  0  0  0  0
    7.1466  -17.6528   20.8590 C   0  0  0  0  0  0  0  0  0  0  0  0
    7.8753  -17.2421   22.0877 C   0  0  1  0  0  0  0  0  0  0  0  0
    9.1298  -17.7913   22.1967 O   0  0  0  0  0  0  0  0  0  0  0  0
    8.0132  -15.7167   22.2013 C   0  0  2  0  0  0  0  0  0  0  0  0
    8.8204  -15.3207   21.0615 N   0  0  0  0  0  0  0  0  0  0  0  0
    8.5578  -15.2880   23.4752 C   0  0  0  0  0  0  0  0  0  0  0  0
    9.7885  -15.1117   23.6093 O   0  0  0  0  0  0  0  0  0  0  0  0
    5.4537  -12.0335   26.5200 C   0  0  0  0  0  0  0  0  0  0  0  0
    6.5678  -12.6784   25.7270 C   0  0  0  0  0  0  0  0  0  0  0  0
    7.2374  -13.7187   26.5951 C   0  0  2  0  0  0  0  0  0  0  0  0
    7.9003  -13.0177   27.7701 C   0  0  0  0  0  0  0  0  0  0  0  0
    8.2650  -14.5180   25.8393 C   0  0  2  0  0  0  0  0  0  0  0  0
    7.7391  -15.0543   24.5982 N   0  0  0  0  0  0  0  0  0  0  0  0
    8.7866  -15.5845   26.7219 C   0  0  0  0  0  0  0  0  0  0  0  0
    8.2937  -16.7316   26.6331 O   0  0  0  0  0  0  0  0  0  0  0  0
    9.7939  -15.3796   27.6430 O   0  0  0  0  0  0  0  0  0  0  0  0
  1  2  1  0
  2  3  1  0
  3  5  1  0
  3  4  1  6
  5  6  2  0
  8  7  1  6
  8 10  1  0
  9  8  1  0
 10 12  1  0
 10 11  1  6
 11  5  1  0
 12 19  1  0
 13 12  2  0
 15 14  1  0
 16 15  1  0
 16 17  1  1
 18 16  1  0
 18 19  1  6
 20 22  1  0
 20 18  1  0
 21 20  2  0
M  END
$$$$
