STI.pdb
     RDKit          3D

 22 21  0  0  1  0  0  0  0  0999 V2000
   10.9555  -13.1911   19.6583 O   0  0  0  0  0  0  0  0  0  0  0  0
   10.4969  -14.2531   18.8793 C   0  0  0  0  0  0  0  0  0  0  0  0
    9.0034  -14.2387   18.7379 C   0  0  2  0  0  0  0  0  0  0  0  0
    8.6377  -13.0666   17.9710 N   0  0  0  0  0  0  0  0  0  0  0  0
    8.2921  -14.2711   20.0260 C   0  0  0  0  0  0  0  0  0  0  0  0
    7.8140  -13.1947   20.4840 O   0  0  0  0  0  0  0  0  0  0  0  0
    5.9057  -17.2901   21.0155 C   0  0  0  0  0  0  0  0  0  0  0  0
    6.8376  -16.9408   22.1196 C   0  0  1  0  0  0  0  0  0  0  0  0
    7.9370  -17.7612   22.1962 O   0  0  0  0  0  0  0  0  0  0  0  0
    7.3331  -15.4901   22.0274 C   0  0  2  0  0  0  0  0  0  0  0  0
    8.1013  -15.4268   20.7972 N   0  0  0  0  0  0  0  0  0  0  0  0
    8.0767  -15.0673   23.1985 C   0  0  0  0  0  0  0  0  0  0  0  0
    9.3265  -15.0330   23.1753 O   0  0  0  0  0  0  0  0  0  0  0  0
    5.6125  -12.1915   27.4749 C   0  0  0  0  0  0  0  0  0  0  0  0
    6.1330  -13.3916   26.7167 C   0  0  0  0  0  0  0  0  0  0  0  0
    7.5463  -13.1015   26.2670 C   0  0  2  0  0  0  0  0  0  0  0  0
    7.5217  -11.9074   25.3263 C   0  0  0  0  0  0  0  0  0  0  0  0
    8.1777  -14.2783   25.5723 C   0  0  2  0  0  0  0  0  0  0  0  0
    7.4357  -14.6823   24.3930 N   0  0  0  0  0  0  0  0  0  0  0  0
    8.3178  -15.3878   26.5406 C   0  0  0  0  0  0  0  0  0  0  0  0
    7.6557  -16.4338   26.3550 O   0  0  0  0  0  0  0  0  0  0  0  0
    9.1449  -15.3297   27.6441 O   0  0  0  0  0  0  0  0  0  0  0  0
  1  2  1  0
  2  3  1  0
  3  5  1  0
  3  4  1  1
  5  6  2  0
  8  7  1  6
  8 10  1  0
  9  8  1  0
 10 12  1  0
 10 11  1  6
 11  5  1  0
 12 19  1  0
 13 12  2  0
 15 14  1  0
 16 15  1  0
 16 17  1  6
 18 16  1  0
 18 19  1  6
 20 22  1  0
 20 18  1  0
 21 20  2  0
M  END
$$$$
