STI.pdb
     RDKit          3D

 22 21  0  0  1  0  0  0  0  0999 V2000
   11.2526  -15.1271   19.1849 O   0  0  0  0  0  0  0  0  0  0  0  0
   11.0062  -16.4948   19.3013 C   0  0  0  0  0  0  0  0  0  0  0  0
    9.5559  -16.8210   19.0992 C   0  0  2  0  0  0  0  0  0  0  0  0
    9.1385  -16.2431   17.8393 N   0  0  0  0  0  0  0  0  0  0  0  0
    8.6933  -16.3656   20.2015 C   0  0  0  0  0  0  0  0  0  0  0  0
    7.9552  -15.3562   20.0190 O   0  0  0  0  0  0  0  0  0  0  0  0
    6.1397  -18.4310   21.8785 C   0  0  0  0  0  0  0  0  0  0  0  0
    7.0189  -17.8926   22.9493 C   0  0  1  0  0  0  0  0  0  0  0  0
    7.9804  -18.7777   23.3729 O   0  0  0  0  0  0  0  0  0  0  0  0
    7.7214  -16.5935   22.5285 C   0  0  2  0  0  0  0  0  0  0  0  0
    8.6275  -16.9781   21.4614 N   0  0  0  0  0  0  0  0  0  0  0  0
    8.3774  -15.9183   23.6317 C   0  0  0  0  0  0  0  0  0  0  0  0
    9.6232  -15.9430   23.7371 O   0  0  0  0  0  0  0  0  0  0  0  0
    5.5638  -11.9292   26.2883 C   0  0  0  0  0  0  0  0  0  0  0  0
    6.6336  -12.6517   25.5011 C   0  0  0  0  0  0  0  0  0  0  0  0
    7.3655  -13.5908   26.4321 C   0  0  2  0  0  0  0  0  0  0  0  0
    8.1419  -12.7641   27.4446 C   0  0  0  0  0  0  0  0  0  0  0  0
    8.3091  -14.5041   25.6964 C   0  0  2  0  0  0  0  0  0  0  0  0
    7.6533  -15.2161   24.6160 N   0  0  0  0  0  0  0  0  0  0  0  0
    8.9331  -15.4305   26.6664 C   0  0  0  0  0  0  0  0  0  0  0  0
    8.3480  -16.5047   26.9322 O   0  0  0  0  0  0  0  0  0  0  0  0
   10.1331  -15.1709   27.2970 O   0  0  0  0  0  0  0  0  0  0  0  0
  1  2  1  0
  2  3  1  0
  3  5  1  0
  3  4  1  6
  5  6  2  0
  8  7  1  6
  8 10  1  0
  9  8  1  0
 10 12  1  0
 10 11  1  6
 11  5  1  0
 12 19  1  0
 13 12  2  0
 15 14  1  0
 16 15  1  0
 16 17  1  1
 18 16  1  0
 18 19  1  6
 20 22  1  0
 20 18  1  0
 21 20  2  0
M  END
$$$$
