STI.pdb
     RDKit          3D

 22 21  0  0  1  0  0  0  0  0999 V2000
   10.1421  -16.2450   19.9984 O   0  0  0  0  0  0  0  0  0  0  0  0
    9.1510  -16.5339   19.0607 C   0  0  0  0  0  0  0  0  0  0  0  0
    8.1525  -17.5213   19.5885 C   0  0  2  0  0  0  0  0  0  0  0  0
    7.1945  -17.7942   18.5381 N   0  0  0  0  0  0  0  0  0  0  0  0
    7.4771  -17.0726   20.8169 C   0  0  0  0  0  0  0  0  0  0  0  0
    6.4832  -16.2986   20.7164 O   0  0  0  0  0  0  0  0  0  0  0  0
    5.6876  -19.0004   23.2073 C   0  0  0  0  0  0  0  0  0  0  0  0
    6.7163  -18.2929   24.0139 C   0  0  1  0  0  0  0  0  0  0  0  0
    7.8146  -19.0636   24.3089 O   0  0  0  0  0  0  0  0  0  0  0  0
    7.2074  -17.0066   23.3336 C   0  0  2  0  0  0  0  0  0  0  0  0
    7.8600  -17.4456   22.1134 N   0  0  0  0  0  0  0  0  0  0  0  0
    8.0570  -16.1998   24.1882 C   0  0  0  0  0  0  0  0  0  0  0  0
    9.2897  -16.1461   23.9848 O   0  0  0  0  0  0  0  0  0  0  0  0
    5.7807  -11.8748   26.3892 C   0  0  0  0  0  0  0  0  0  0  0  0
    6.9029  -12.6198   25.7025 C   0  0  0  0  0  0  0  0  0  0  0  0
    7.6065  -13.4812   26.7258 C   0  0  2  0  0  0  0  0  0  0  0  0
    8.5505  -12.6041   27.5327 C   0  0  0  0  0  0  0  0  0  0  0  0
    8.3806  -14.6053   26.0910 C   0  0  2  0  0  0  0  0  0  0  0  0
    7.5407  -15.4529   25.2661 N   0  0  0  0  0  0  0  0  0  0  0  0
    9.0646  -15.3755   27.1528 C   0  0  0  0  0  0  0  0  0  0  0  0
   10.0202  -14.8420   27.7605 O   0  0  0  0  0  0  0  0  0  0  0  0
    8.7024  -16.6584   27.5104 O   0  0  0  0  0  0  0  0  0  0  0  0
  1  2  1  0
  2  3  1  0
  3  5  1  0
  3  4  1  6
  5  6  2  0
  8  7  1  6
  8 10  1  0
  9  8  1  0
 10 12  1  0
 10 11  1  6
 11  5  1  0
 12 19  1  0
 13 12  2  0
 15 14  1  0
 16 15  1  0
 16 17  1  6
 18 16  1  0
 18 19  1  1
 20 22  1  0
 20 18  1  0
 21 20  2  0
M  END
$$$$
