STI.pdb
     RDKit          3D

 22 21  0  0  1  0  0  0  0  0999 V2000
    6.4967  -19.8601   25.4494 O   0  0  0  0  0  0  0  0  0  0  0  0
    6.1001  -20.3092   24.1900 C   0  0  0  0  0  0  0  0  0  0  0  0
    5.7827  -19.1716   23.2650 C   0  0  2  0  0  0  0  0  0  0  0  0
    5.2434  -19.7265   22.0415 N   0  0  0  0  0  0  0  0  0  0  0  0
    6.9372  -18.3018   22.9875 C   0  0  0  0  0  0  0  0  0  0  0  0
    8.0702  -18.8330   22.8106 O   0  0  0  0  0  0  0  0  0  0  0  0
    7.3320  -16.1608   20.1665 C   0  0  0  0  0  0  0  0  0  0  0  0
    7.5623  -15.2641   21.3293 C   0  0  1  0  0  0  0  0  0  0  0  0
    6.4736  -14.4934   21.6580 O   0  0  0  0  0  0  0  0  0  0  0  0
    7.9939  -16.0364   22.5847 C   0  0  2  0  0  0  0  0  0  0  0  0
    6.8739  -16.9035   22.9030 N   0  0  0  0  0  0  0  0  0  0  0  0
    8.3863  -15.1696   23.6791 C   0  0  0  0  0  0  0  0  0  0  0  0
    8.4866  -13.9355   23.5034 O   0  0  0  0  0  0  0  0  0  0  0  0
    6.0465  -12.3446   25.8325 C   0  0  0  0  0  0  0  0  0  0  0  0
    7.2781  -13.0857   25.3633 C   0  0  0  0  0  0  0  0  0  0  0  0
    7.7677  -13.9676   26.4887 C   0  0  2  0  0  0  0  0  0  0  0  0
    8.1357  -13.0864   27.6718 C   0  0  0  0  0  0  0  0  0  0  0  0
    8.9580  -14.7972   26.0879 C   0  0  2  0  0  0  0  0  0  0  0  0
    8.6662  -15.6700   24.9665 N   0  0  0  0  0  0  0  0  0  0  0  0
    9.4321  -15.5558   27.2662 C   0  0  0  0  0  0  0  0  0  0  0  0
    9.9056  -14.9228   28.2367 O   0  0  0  0  0  0  0  0  0  0  0  0
    9.3793  -16.9323   27.3517 O   0  0  0  0  0  0  0  0  0  0  0  0
  1  2  1  0
  2  3  1  0
  3  5  1  0
  3  4  1  6
  5  6  2  0
  8  7  1  6
  8 10  1  0
  9  8  1  0
 10 12  1  0
 10 11  1  1
 11  5  1  0
 12 19  1  0
 13 12  2  0
 15 14  1  0
 16 15  1  0
 16 17  1  1
 18 16  1  0
 18 19  1  6
 20 22  1  0
 20 18  1  0
 21 20  2  0
M  END
$$$$
