STI.pdb
     RDKit          3D

 22 21  0  0  1  0  0  0  0  0999 V2000
    8.4531  -12.7757   19.9306 O   0  0  0  0  0  0  0  0  0  0  0  0
    9.0492  -13.9551   19.4849 C   0  0  0  0  0  0  0  0  0  0  0  0
    8.0890  -15.1077   19.5007 C   0  0  2  0  0  0  0  0  0  0  0  0
    6.9475  -14.7505   18.6854 N   0  0  0  0  0  0  0  0  0  0  0  0
    7.6689  -15.5024   20.8550 C   0  0  0  0  0  0  0  0  0  0  0  0
    6.5238  -15.1554   21.2619 O   0  0  0  0  0  0  0  0  0  0  0  0
    8.1605  -18.5860   24.6254 C   0  0  0  0  0  0  0  0  0  0  0  0
    8.4307  -18.0793   23.2544 C   0  0  1  0  0  0  0  0  0  0  0  0
    7.7716  -18.7726   22.2683 O   0  0  0  0  0  0  0  0  0  0  0  0
    8.0816  -16.5915   23.1033 C   0  0  2  0  0  0  0  0  0  0  0  0
    8.4572  -16.2475   21.7438 N   0  0  0  0  0  0  0  0  0  0  0  0
    8.7091  -15.7549   24.1081 C   0  0  0  0  0  0  0  0  0  0  0  0
    9.8759  -15.3363   23.9433 O   0  0  0  0  0  0  0  0  0  0  0  0
    5.9593  -11.9321   26.5975 C   0  0  0  0  0  0  0  0  0  0  0  0
    7.0639  -12.7094   25.9179 C   0  0  0  0  0  0  0  0  0  0  0  0
    7.7329  -13.5938   26.9447 C   0  0  2  0  0  0  0  0  0  0  0  0
    8.4871  -12.7126   27.9276 C   0  0  0  0  0  0  0  0  0  0  0  0
    8.6830  -14.5789   26.3181 C   0  0  2  0  0  0  0  0  0  0  0  0
    8.0438  -15.3824   25.2933 N   0  0  0  0  0  0  0  0  0  0  0  0
    9.2761  -15.4167   27.3833 C   0  0  0  0  0  0  0  0  0  0  0  0
   10.0673  -14.8850   28.1946 O   0  0  0  0  0  0  0  0  0  0  0  0
    9.0013  -16.7613   27.5302 O   0  0  0  0  0  0  0  0  0  0  0  0
  1  2  1  0
  2  3  1  0
  3  5  1  0
  3  4  1  6
  5  6  2  0
  8  7  1  1
  8 10  1  0
  9  8  1  0
 10 12  1  0
 10 11  1  6
 11  5  1  0
 12 19  1  0
 13 12  2  0
 15 14  1  0
 16 15  1  0
 16 17  1  1
 18 16  1  0
 18 19  1  6
 20 22  1  0
 20 18  1  0
 21 20  2  0
M  END
$$$$
