STI.pdb
     RDKit          3D

 22 21  0  0  1  0  0  0  0  0999 V2000
    9.4838  -12.1471   17.8148 O   0  0  0  0  0  0  0  0  0  0  0  0
    8.5146  -12.6854   18.6608 C   0  0  0  0  0  0  0  0  0  0  0  0
    8.5910  -14.1826   18.7175 C   0  0  2  0  0  0  0  0  0  0  0  0
    7.9868  -14.7076   17.5113 N   0  0  0  0  0  0  0  0  0  0  0  0
    7.9614  -14.7569   19.9176 C   0  0  0  0  0  0  0  0  0  0  0  0
    6.7053  -14.8948   19.9385 O   0  0  0  0  0  0  0  0  0  0  0  0
    7.5080  -17.7892   20.9412 C   0  0  0  0  0  0  0  0  0  0  0  0
    8.2179  -17.2436   22.1277 C   0  0  1  0  0  0  0  0  0  0  0  0
    9.5615  -17.5293   22.1484 O   0  0  0  0  0  0  0  0  0  0  0  0
    8.0538  -15.7221   22.2566 C   0  0  2  0  0  0  0  0  0  0  0  0
    8.6624  -15.1700   21.0597 N   0  0  0  0  0  0  0  0  0  0  0  0
    8.6088  -15.1922   23.4872 C   0  0  0  0  0  0  0  0  0  0  0  0
    9.8213  -14.8944   23.5571 O   0  0  0  0  0  0  0  0  0  0  0  0
    5.6767  -11.8701   26.6198 C   0  0  0  0  0  0  0  0  0  0  0  0
    6.7629  -12.5424   25.8110 C   0  0  0  0  0  0  0  0  0  0  0  0
    7.3669  -13.6505   26.6425 C   0  0  2  0  0  0  0  0  0  0  0  0
    8.0360  -13.0345   27.8608 C   0  0  0  0  0  0  0  0  0  0  0  0
    8.3729  -14.4611   25.8700 C   0  0  2  0  0  0  0  0  0  0  0  0
    7.8205  -14.9921   24.6382 N   0  0  0  0  0  0  0  0  0  0  0  0
    8.8978  -15.5329   26.7442 C   0  0  0  0  0  0  0  0  0  0  0  0
    8.4119  -16.6820   26.6427 O   0  0  0  0  0  0  0  0  0  0  0  0
    9.9005  -15.3309   27.6708 O   0  0  0  0  0  0  0  0  0  0  0  0
  1  2  1  0
  2  3  1  0
  3  5  1  0
  3  4  1  6
  5  6  2  0
  8  7  1  6
  8 10  1  0
  9  8  1  0
 10 12  1  0
 10 11  1  6
 11  5  1  0
 12 19  1  0
 13 12  2  0
 15 14  1  0
 16 15  1  0
 16 17  1  1
 18 16  1  0
 18 19  1  6
 20 22  1  0
 20 18  1  0
 21 20  2  0
M  END
$$$$
