STI.pdb
     RDKit          3D

 22 21  0  0  1  0  0  0  0  0999 V2000
   11.7361  -16.3448   18.0148 O   0  0  0  0  0  0  0  0  0  0  0  0
   10.4083  -16.0680   18.3392 C   0  0  0  0  0  0  0  0  0  0  0  0
    9.7319  -17.2446   18.9785 C   0  0  2  0  0  0  0  0  0  0  0  0
    9.0817  -18.0085   17.9349 N   0  0  0  0  0  0  0  0  0  0  0  0
    8.7761  -16.8697   20.0331 C   0  0  0  0  0  0  0  0  0  0  0  0
    7.6284  -16.4612   19.6967 O   0  0  0  0  0  0  0  0  0  0  0  0
    7.0711  -18.9526   21.9182 C   0  0  0  0  0  0  0  0  0  0  0  0
    7.7084  -18.1177   22.9699 C   0  0  1  0  0  0  0  0  0  0  0  0
    8.8392  -18.6787   23.5122 O   0  0  0  0  0  0  0  0  0  0  0  0
    8.0717  -16.7152   22.4603 C   0  0  2  0  0  0  0  0  0  0  0  0
    9.0474  -16.9326   21.4076 N   0  0  0  0  0  0  0  0  0  0  0  0
    8.5386  -15.8314   23.5110 C   0  0  0  0  0  0  0  0  0  0  0  0
    9.7623  -15.6258   23.6667 O   0  0  0  0  0  0  0  0  0  0  0  0
    6.6609  -10.9981   26.7612 C   0  0  0  0  0  0  0  0  0  0  0  0
    7.6062  -12.1773   26.7162 C   0  0  0  0  0  0  0  0  0  0  0  0
    7.1334  -13.1333   25.6454 C   0  0  2  0  0  0  0  0  0  0  0  0
    5.7918  -13.7108   26.0674 C   0  0  0  0  0  0  0  0  0  0  0  0
    8.1116  -14.2521   25.4061 C   0  0  2  0  0  0  0  0  0  0  0  0
    7.6504  -15.1758   24.3870 N   0  0  0  0  0  0  0  0  0  0  0  0
    8.3790  -14.9378   26.6894 C   0  0  0  0  0  0  0  0  0  0  0  0
    7.8946  -16.0772   26.8733 O   0  0  0  0  0  0  0  0  0  0  0  0
    9.1386  -14.3838   27.6998 O   0  0  0  0  0  0  0  0  0  0  0  0
  1  2  1  0
  2  3  1  0
  3  5  1  0
  3  4  1  6
  5  6  2  0
  8  7  1  6
  8 10  1  0
  9  8  1  0
 10 12  1  0
 10 11  1  6
 11  5  1  0
 12 19  1  0
 13 12  2  0
 15 14  1  0
 16 15  1  0
 16 17  1  1
 18 16  1  0
 18 19  1  6
 20 22  1  0
 20 18  1  0
 21 20  2  0
M  END
$$$$
