STI.pdb
     RDKit          3D

 22 21  0  0  1  0  0  0  0  0999 V2000
    9.9852  -12.0235   18.0702 O   0  0  0  0  0  0  0  0  0  0  0  0
    9.0609  -12.4851   19.0070 C   0  0  0  0  0  0  0  0  0  0  0  0
    8.7679  -13.9458   18.8308 C   0  0  2  0  0  0  0  0  0  0  0  0
    7.9793  -14.1020   17.6269 N   0  0  0  0  0  0  0  0  0  0  0  0
    8.0911  -14.5520   19.9887 C   0  0  0  0  0  0  0  0  0  0  0  0
    6.8593  -14.3270   20.1597 O   0  0  0  0  0  0  0  0  0  0  0  0
    7.5984  -18.0041   20.8456 C   0  0  0  0  0  0  0  0  0  0  0  0
    8.2692  -17.4268   22.0398 C   0  0  1  0  0  0  0  0  0  0  0  0
    9.6136  -17.7017   22.1062 O   0  0  0  0  0  0  0  0  0  0  0  0
    8.0909  -15.9041   22.1295 C   0  0  2  0  0  0  0  0  0  0  0  0
    8.7210  -15.3750   20.9334 N   0  0  0  0  0  0  0  0  0  0  0  0
    8.6149  -15.3413   23.3591 C   0  0  0  0  0  0  0  0  0  0  0  0
    9.8031  -14.9566   23.4221 O   0  0  0  0  0  0  0  0  0  0  0  0
    5.4977  -12.1188   26.3180 C   0  0  0  0  0  0  0  0  0  0  0  0
    6.6421  -12.7594   25.5656 C   0  0  0  0  0  0  0  0  0  0  0  0
    7.2807  -13.8008   26.4553 C   0  0  2  0  0  0  0  0  0  0  0  0
    7.9053  -13.1010   27.6518 C   0  0  0  0  0  0  0  0  0  0  0  0
    8.3315  -14.6017   25.7340 C   0  0  2  0  0  0  0  0  0  0  0  0
    7.8227  -15.2045   24.5165 N   0  0  0  0  0  0  0  0  0  0  0  0
    8.8819  -15.6150   26.6608 C   0  0  0  0  0  0  0  0  0  0  0  0
    9.5732  -15.2291   27.6303 O   0  0  0  0  0  0  0  0  0  0  0  0
    8.6718  -16.9709   26.5115 O   0  0  0  0  0  0  0  0  0  0  0  0
  1  2  1  0
  2  3  1  0
  3  5  1  0
  3  4  1  6
  5  6  2  0
  8  7  1  6
  8 10  1  0
  9  8  1  0
 10 12  1  0
 10 11  1  6
 11  5  1  0
 12 19  1  0
 13 12  2  0
 15 14  1  0
 16 15  1  0
 16 17  1  1
 18 16  1  0
 18 19  1  6
 20 22  1  0
 20 18  1  0
 21 20  2  0
M  END
$$$$
