GIT.pdb
     RDKit          3D

 20 19  0  0  1  0  0  0  0  0999 V2000
    8.8078  -18.0706   16.0875 N   0  0  0  0  0  0  0  0  0  0  0  0
    7.9493  -17.7258   17.1972 C   0  0  0  0  0  0  0  0  0  0  0  0
    8.7083  -16.9219   18.2097 C   0  0  0  0  0  0  0  0  0  0  0  0
    9.9665  -16.9569   18.1911 O   0  0  0  0  0  0  0  0  0  0  0  0
    6.8823  -12.0512   20.1131 C   0  0  0  0  0  0  0  0  0  0  0  0
    7.7801  -13.1729   19.6809 C   0  0  0  0  0  0  0  0  0  0  0  0
    7.9420  -14.2460   20.7345 C   0  0  2  0  0  0  0  0  0  0  0  0
    8.7276  -13.6344   21.8905 C   0  0  0  0  0  0  0  0  0  0  0  0
    8.7007  -15.4340   20.2431 C   0  0  2  0  0  0  0  0  0  0  0  0
    8.0329  -16.1327   19.1758 N   0  0  0  0  0  0  0  0  0  0  0  0
    8.8956  -16.3487   21.4289 C   0  0  0  0  0  0  0  0  0  0  0  0
    7.9160  -16.8133   22.0315 O   0  0  0  0  0  0  0  0  0  0  0  0
   10.2555  -19.7709   21.6206 C   0  0  0  0  0  0  0  0  0  0  0  0
   11.0815  -18.8867   22.5349 C   0  0  1  0  0  0  0  0  0  0  0  0
   12.2687  -18.5923   21.9071 O   0  0  0  0  0  0  0  0  0  0  0  0
   10.3183  -17.6470   22.9513 C   0  0  2  0  0  0  0  0  0  0  0  0
   10.1959  -16.6954   21.8778 N   0  0  0  0  0  0  0  0  0  0  0  0
   11.0972  -17.0225   24.0478 C   0  0  0  0  0  0  0  0  0  0  0  0
   11.6682  -15.9283   23.8299 O   0  0  0  0  0  0  0  0  0  0  0  0
   11.1907  -17.6418   25.2937 O   0  0  0  0  0  0  0  0  0  0  0  0
  2  1  1  0
  3 10  1  0
  3  2  1  0
  4  3  2  0
  5  6  1  0
  7  6  1  0
  7  8  1  1
  9  7  1  0
  9 10  1  6
 11  9  1  0
 11 17  1  0
 12 11  2  0
 14 13  1  6
 14 15  1  0
 16 17  1  6
 16 14  1  0
 18 16  1  0
 19 18  2  0
 20 18  1  0
M  END
$$$$
