GIT.pdb
     RDKit          3D

 20 19  0  0  1  0  0  0  0  0999 V2000
    4.8089  -17.9976   22.1605 N   0  0  0  0  0  0  0  0  0  0  0  0
    4.9085  -17.5907   23.5433 C   0  0  0  0  0  0  0  0  0  0  0  0
    6.0508  -16.6364   23.7220 C   0  0  0  0  0  0  0  0  0  0  0  0
    6.9002  -16.5288   22.7992 O   0  0  0  0  0  0  0  0  0  0  0  0
    5.6746  -12.0072   26.8647 C   0  0  0  0  0  0  0  0  0  0  0  0
    6.0964  -12.9428   25.7703 C   0  0  0  0  0  0  0  0  0  0  0  0
    7.0643  -14.0075   26.2368 C   0  0  2  0  0  0  0  0  0  0  0  0
    8.3852  -13.3139   26.5556 C   0  0  0  0  0  0  0  0  0  0  0  0
    7.3313  -15.0462   25.1985 C   0  0  2  0  0  0  0  0  0  0  0  0
    6.1830  -15.8634   24.9042 N   0  0  0  0  0  0  0  0  0  0  0  0
    8.4648  -15.8996   25.7159 C   0  0  0  0  0  0  0  0  0  0  0  0
    8.3110  -16.6034   26.7255 O   0  0  0  0  0  0  0  0  0  0  0  0
   12.5266  -18.3631   24.3348 C   0  0  0  0  0  0  0  0  0  0  0  0
   11.6330  -17.1527   24.1445 C   0  0  1  0  0  0  0  0  0  0  0  0
   11.1211  -17.1802   22.8688 O   0  0  0  0  0  0  0  0  0  0  0  0
   10.5543  -17.0830   25.2048 C   0  0  2  0  0  0  0  0  0  0  0  0
    9.7240  -15.9154   25.0626 N   0  0  0  0  0  0  0  0  0  0  0  0
   11.2529  -17.0081   26.5107 C   0  0  0  0  0  0  0  0  0  0  0  0
   11.5910  -15.8825   26.9461 O   0  0  0  0  0  0  0  0  0  0  0  0
   11.5266  -18.1669   27.2365 O   0  0  0  0  0  0  0  0  0  0  0  0
  2  1  1  0
  3 10  1  0
  3  2  1  0
  4  3  2  0
  5  6  1  0
  7  6  1  0
  7  8  1  6
  9  7  1  0
  9 10  1  1
 11  9  1  0
 11 17  1  0
 12 11  2  0
 14 13  1  1
 14 15  1  0
 16 17  1  6
 16 14  1  0
 18 16  1  0
 19 18  2  0
 20 18  1  0
M  END
$$$$
