GIT.pdb
     RDKit          3D

 20 19  0  0  1  0  0  0  0  0999 V2000
    4.5345  -18.6743   22.8819 N   0  0  0  0  0  0  0  0  0  0  0  0
    4.8687  -18.1017   24.1656 C   0  0  0  0  0  0  0  0  0  0  0  0
    5.9584  -17.0837   24.0114 C   0  0  0  0  0  0  0  0  0  0  0  0
    6.6518  -17.0931   22.9609 O   0  0  0  0  0  0  0  0  0  0  0  0
    5.9356  -12.2229   26.8531 C   0  0  0  0  0  0  0  0  0  0  0  0
    6.1319  -13.2503   25.7776 C   0  0  0  0  0  0  0  0  0  0  0  0
    7.2958  -14.1785   26.0457 C   0  0  2  0  0  0  0  0  0  0  0  0
    8.5725  -13.3502   25.9395 C   0  0  0  0  0  0  0  0  0  0  0  0
    7.3899  -15.2938   25.0580 C   0  0  2  0  0  0  0  0  0  0  0  0
    6.2131  -16.1227   25.0234 N   0  0  0  0  0  0  0  0  0  0  0  0
    8.5993  -16.1140   25.4395 C   0  0  0  0  0  0  0  0  0  0  0  0
    8.6638  -16.6579   26.5524 O   0  0  0  0  0  0  0  0  0  0  0  0
   10.4364  -18.3249   22.4764 C   0  0  0  0  0  0  0  0  0  0  0  0
   11.3665  -17.7493   23.5269 C   0  0  1  0  0  0  0  0  0  0  0  0
   12.0635  -16.7027   22.9712 O   0  0  0  0  0  0  0  0  0  0  0  0
   10.6150  -17.3504   24.7795 C   0  0  2  0  0  0  0  0  0  0  0  0
    9.6828  -16.2799   24.5389 N   0  0  0  0  0  0  0  0  0  0  0  0
   11.6337  -16.8791   25.7486 C   0  0  0  0  0  0  0  0  0  0  0  0
   12.3351  -17.7308   26.3430 O   0  0  0  0  0  0  0  0  0  0  0  0
   11.8053  -15.5166   25.9914 O   0  0  0  0  0  0  0  0  0  0  0  0
  2  1  1  0
  3 10  1  0
  3  2  1  0
  4  3  2  0
  5  6  1  0
  7  6  1  0
  7  8  1  6
  9  7  1  0
  9 10  1  1
 11  9  1  0
 11 17  1  0
 12 11  2  0
 14 13  1  6
 14 15  1  0
 16 17  1  6
 16 14  1  0
 18 16  1  0
 19 18  2  0
 20 18  1  0
M  END
$$$$
