GIT.pdb
     RDKit          3D

 20 19  0  0  1  0  0  0  0  0999 V2000
    6.8229  -14.8741   20.0173 N   0  0  0  0  0  0  0  0  0  0  0  0
    6.2139  -14.8955   21.3273 C   0  0  0  0  0  0  0  0  0  0  0  0
    7.2478  -14.6459   22.3839 C   0  0  0  0  0  0  0  0  0  0  0  0
    8.4609  -14.6151   22.0490 O   0  0  0  0  0  0  0  0  0  0  0  0
    5.8888  -11.6492   26.8943 C   0  0  0  0  0  0  0  0  0  0  0  0
    6.6253  -12.2287   25.7226 C   0  0  0  0  0  0  0  0  0  0  0  0
    7.2212  -13.5896   26.0074 C   0  0  2  0  0  0  0  0  0  0  0  0
    8.3282  -13.3951   27.0389 C   0  0  0  0  0  0  0  0  0  0  0  0
    7.8269  -14.2238   24.7994 C   0  0  2  0  0  0  0  0  0  0  0  0
    6.8787  -14.4466   23.7390 N   0  0  0  0  0  0  0  0  0  0  0  0
    8.4293  -15.5335   25.2495 C   0  0  0  0  0  0  0  0  0  0  0  0
    7.7205  -16.4006   25.7827 O   0  0  0  0  0  0  0  0  0  0  0  0
   12.0598  -18.8359   24.7477 C   0  0  0  0  0  0  0  0  0  0  0  0
   11.5644  -17.4220   24.5122 C   0  0  1  0  0  0  0  0  0  0  0  0
   11.4414  -17.2189   23.1581 O   0  0  0  0  0  0  0  0  0  0  0  0
   10.2777  -17.1492   25.2625 C   0  0  2  0  0  0  0  0  0  0  0  0
    9.8115  -15.8002   25.0738 N   0  0  0  0  0  0  0  0  0  0  0  0
   10.5801  -17.3463   26.7008 C   0  0  0  0  0  0  0  0  0  0  0  0
   10.2999  -18.4488   27.2269 O   0  0  0  0  0  0  0  0  0  0  0  0
   11.1638  -16.3249   27.4496 O   0  0  0  0  0  0  0  0  0  0  0  0
  2  1  1  0
  3 10  1  0
  3  2  1  0
  4  3  2  0
  5  6  1  0
  7  6  1  0
  7  8  1  1
  9  7  1  0
  9 10  1  6
 11  9  1  0
 11 17  1  0
 12 11  2  0
 14 13  1  6
 14 15  1  0
 16 17  1  1
 16 14  1  0
 18 16  1  0
 19 18  2  0
 20 18  1  0
M  END
$$$$
