GIT.pdb
     RDKit          3D

 20 19  0  0  1  0  0  0  0  0999 V2000
    7.1066  -14.5468   19.8887 N   0  0  0  0  0  0  0  0  0  0  0  0
    6.3729  -14.5259   21.1331 C   0  0  0  0  0  0  0  0  0  0  0  0
    7.3205  -14.4505   22.2924 C   0  0  0  0  0  0  0  0  0  0  0  0
    8.5538  -14.5791   22.0760 O   0  0  0  0  0  0  0  0  0  0  0  0
    5.8222  -11.3137   26.5914 C   0  0  0  0  0  0  0  0  0  0  0  0
    6.5756  -12.0066   25.4944 C   0  0  0  0  0  0  0  0  0  0  0  0
    7.0837  -13.3746   25.8926 C   0  0  2  0  0  0  0  0  0  0  0  0
    8.1488  -13.1701   26.9655 C   0  0  0  0  0  0  0  0  0  0  0  0
    7.7120  -14.1146   24.7587 C   0  0  2  0  0  0  0  0  0  0  0  0
    6.8484  -14.2385   23.6133 N   0  0  0  0  0  0  0  0  0  0  0  0
    8.0882  -15.4799   25.2833 C   0  0  0  0  0  0  0  0  0  0  0  0
    7.2142  -16.2560   25.6984 O   0  0  0  0  0  0  0  0  0  0  0  0
    9.7443  -18.2332   23.3289 C   0  0  0  0  0  0  0  0  0  0  0  0
   10.5527  -17.9653   24.5838 C   0  0  1  0  0  0  0  0  0  0  0  0
   11.6745  -17.2489   24.2396 O   0  0  0  0  0  0  0  0  0  0  0  0
    9.7227  -17.2756   25.6459 C   0  0  2  0  0  0  0  0  0  0  0  0
    9.4419  -15.9033   25.3131 N   0  0  0  0  0  0  0  0  0  0  0  0
   10.5269  -17.3032   26.8914 C   0  0  0  0  0  0  0  0  0  0  0  0
   11.0347  -16.2332   27.3011 O   0  0  0  0  0  0  0  0  0  0  0  0
   10.7125  -18.4959   27.5899 O   0  0  0  0  0  0  0  0  0  0  0  0
  2  1  1  0
  3 10  1  0
  3  2  1  0
  4  3  2  0
  5  6  1  0
  7  6  1  0
  7  8  1  1
  9  7  1  0
  9 10  1  6
 11  9  1  0
 11 17  1  0
 12 11  2  0
 14 13  1  6
 14 15  1  0
 16 17  1  6
 16 14  1  0
 18 16  1  0
 19 18  2  0
 20 18  1  0
M  END
$$$$
