GIT.pdb
     RDKit          3D

 20 19  0  0  1  0  0  0  0  0999 V2000
    4.3627  -19.1163   22.8966 N   0  0  0  0  0  0  0  0  0  0  0  0
    5.0039  -18.6623   24.1091 C   0  0  0  0  0  0  0  0  0  0  0  0
    5.8942  -17.4917   23.8178 C   0  0  0  0  0  0  0  0  0  0  0  0
    6.3301  -17.3389   22.6468 O   0  0  0  0  0  0  0  0  0  0  0  0
    7.2673  -11.8521   25.9973 C   0  0  0  0  0  0  0  0  0  0  0  0
    7.5859  -13.0320   25.1271 C   0  0  0  0  0  0  0  0  0  0  0  0
    6.7748  -14.2617   25.4704 C   0  0  2  0  0  0  0  0  0  0  0  0
    7.0867  -14.6230   26.9194 C   0  0  0  0  0  0  0  0  0  0  0  0
    7.1171  -15.4403   24.6207 C   0  0  2  0  0  0  0  0  0  0  0  0
    6.2459  -16.5666   24.8341 N   0  0  0  0  0  0  0  0  0  0  0  0
    8.5448  -15.8117   24.9439 C   0  0  0  0  0  0  0  0  0  0  0  0
    8.8080  -16.4671   25.9635 O   0  0  0  0  0  0  0  0  0  0  0  0
   12.6511  -16.9270   22.4080 C   0  0  0  0  0  0  0  0  0  0  0  0
   11.4543  -16.0127   22.5862 C   0  0  1  0  0  0  0  0  0  0  0  0
   10.7035  -16.0416   21.4350 O   0  0  0  0  0  0  0  0  0  0  0  0
   10.6509  -16.3784   23.8165 C   0  0  2  0  0  0  0  0  0  0  0  0
    9.6112  -15.4216   24.0935 N   0  0  0  0  0  0  0  0  0  0  0  0
   11.6024  -16.3826   24.9538 C   0  0  0  0  0  0  0  0  0  0  0  0
   12.3462  -17.3793   25.1096 O   0  0  0  0  0  0  0  0  0  0  0  0
   11.6660  -15.2995   25.8298 O   0  0  0  0  0  0  0  0  0  0  0  0
  2  1  1  0
  3 10  1  0
  3  2  1  0
  4  3  2  0
  5  6  1  0
  7  6  1  0
  7  8  1  1
  9  7  1  0
  9 10  1  1
 11  9  1  0
 11 17  1  0
 12 11  2  0
 14 13  1  6
 14 15  1  0
 16 17  1  1
 16 14  1  0
 18 16  1  0
 19 18  2  0
 20 18  1  0
M  END
$$$$
