GIT.pdb
     RDKit          3D

 20 19  0  0  1  0  0  0  0  0999 V2000
    7.3893  -15.1045   19.5431 N   0  0  0  0  0  0  0  0  0  0  0  0
    6.6737  -15.1026   20.7983 C   0  0  0  0  0  0  0  0  0  0  0  0
    7.5830  -14.6797   21.9128 C   0  0  0  0  0  0  0  0  0  0  0  0
    8.8275  -14.7226   21.7285 O   0  0  0  0  0  0  0  0  0  0  0  0
    7.4567  -11.8649   27.4979 C   0  0  0  0  0  0  0  0  0  0  0  0
    8.0955  -12.7982   26.5121 C   0  0  0  0  0  0  0  0  0  0  0  0
    7.2196  -13.0897   25.3138 C   0  0  2  0  0  0  0  0  0  0  0  0
    5.9685  -13.7969   25.8256 C   0  0  0  0  0  0  0  0  0  0  0  0
    7.8768  -13.9856   24.3170 C   0  0  2  0  0  0  0  0  0  0  0  0
    7.0629  -14.2377   23.1564 N   0  0  0  0  0  0  0  0  0  0  0  0
    8.1885  -15.2792   25.0313 C   0  0  0  0  0  0  0  0  0  0  0  0
    7.2862  -16.0938   25.2780 O   0  0  0  0  0  0  0  0  0  0  0  0
   11.3863  -18.8812   25.6215 C   0  0  0  0  0  0  0  0  0  0  0  0
   11.0585  -17.4750   25.1574 C   0  0  1  0  0  0  0  0  0  0  0  0
   10.9657  -17.4751   23.7857 O   0  0  0  0  0  0  0  0  0  0  0  0
    9.8086  -16.9435   25.8269 C   0  0  2  0  0  0  0  0  0  0  0  0
    9.5127  -15.5903   25.4341 N   0  0  0  0  0  0  0  0  0  0  0  0
   10.0726  -16.9635   27.2859 C   0  0  0  0  0  0  0  0  0  0  0  0
   10.4177  -15.8975   27.8475 O   0  0  0  0  0  0  0  0  0  0  0  0
    9.9388  -18.1446   28.0151 O   0  0  0  0  0  0  0  0  0  0  0  0
  2  1  1  0
  3 10  1  0
  3  2  1  0
  4  3  2  0
  5  6  1  0
  7  6  1  0
  7  8  1  1
  9  7  1  0
  9 10  1  6
 11  9  1  0
 11 17  1  0
 12 11  2  0
 14 13  1  1
 14 15  1  0
 16 17  1  6
 16 14  1  0
 18 16  1  0
 19 18  2  0
 20 18  1  0
M  END
$$$$
