GIT.pdb
     RDKit          3D

 20 19  0  0  1  0  0  0  0  0999 V2000
    4.3592  -18.7540   23.3135 N   0  0  0  0  0  0  0  0  0  0  0  0
    4.8954  -18.1837   24.5279 C   0  0  0  0  0  0  0  0  0  0  0  0
    5.8695  -17.0918   24.2019 C   0  0  0  0  0  0  0  0  0  0  0  0
    6.3273  -17.0179   23.0316 O   0  0  0  0  0  0  0  0  0  0  0  0
    5.9555  -12.2398   27.0062 C   0  0  0  0  0  0  0  0  0  0  0  0
    6.0636  -13.2488   25.9011 C   0  0  0  0  0  0  0  0  0  0  0  0
    7.3209  -14.0861   25.9797 C   0  0  2  0  0  0  0  0  0  0  0  0
    8.4995  -13.1678   25.6717 C   0  0  0  0  0  0  0  0  0  0  0  0
    7.3392  -15.2027   24.9891 C   0  0  2  0  0  0  0  0  0  0  0  0
    6.2756  -16.1533   25.1851 N   0  0  0  0  0  0  0  0  0  0  0  0
    8.6817  -15.8816   25.1212 C   0  0  0  0  0  0  0  0  0  0  0  0
    8.9868  -16.4720   26.1685 O   0  0  0  0  0  0  0  0  0  0  0  0
   10.1530  -17.8533   21.8606 C   0  0  0  0  0  0  0  0  0  0  0  0
   11.2037  -17.1342   22.6846 C   0  0  1  0  0  0  0  0  0  0  0  0
   11.6123  -16.0160   21.9970 O   0  0  0  0  0  0  0  0  0  0  0  0
   10.6985  -16.8122   24.0752 C   0  0  2  0  0  0  0  0  0  0  0  0
    9.6190  -15.8597   24.0565 N   0  0  0  0  0  0  0  0  0  0  0  0
   11.8403  -16.2158   24.8095 C   0  0  0  0  0  0  0  0  0  0  0  0
   11.7688  -15.0131   25.1549 O   0  0  0  0  0  0  0  0  0  0  0  0
   12.9685  -16.9792   25.1082 O   0  0  0  0  0  0  0  0  0  0  0  0
  2  1  1  0
  3 10  1  0
  3  2  1  0
  4  3  2  0
  5  6  1  0
  7  6  1  0
  7  8  1  6
  9  7  1  0
  9 10  1  1
 11  9  1  0
 11 17  1  0
 12 11  2  0
 14 13  1  6
 14 15  1  0
 16 17  1  6
 16 14  1  0
 18 16  1  0
 19 18  2  0
 20 18  1  0
M  END
$$$$
