GIT.pdb
     RDKit          3D

 20 19  0  0  1  0  0  0  0  0999 V2000
    4.6983  -18.1907   22.5454 N   0  0  0  0  0  0  0  0  0  0  0  0
    4.9478  -17.7416   23.8958 C   0  0  0  0  0  0  0  0  0  0  0  0
    6.1151  -16.8012   23.9221 C   0  0  0  0  0  0  0  0  0  0  0  0
    6.9366  -16.8286   22.9688 O   0  0  0  0  0  0  0  0  0  0  0  0
    5.9675  -11.9693   26.7720 C   0  0  0  0  0  0  0  0  0  0  0  0
    6.3299  -12.9541   25.6996 C   0  0  0  0  0  0  0  0  0  0  0  0
    7.3246  -13.9967   26.1597 C   0  0  2  0  0  0  0  0  0  0  0  0
    8.6731  -13.3010   26.3177 C   0  0  0  0  0  0  0  0  0  0  0  0
    7.4956  -15.1099   25.1800 C   0  0  2  0  0  0  0  0  0  0  0  0
    6.3012  -15.8927   24.9956 N   0  0  0  0  0  0  0  0  0  0  0  0
    8.6181  -15.9779   25.6970 C   0  0  0  0  0  0  0  0  0  0  0  0
    8.4576  -16.6751   26.7103 O   0  0  0  0  0  0  0  0  0  0  0  0
   12.6977  -18.4623   24.3918 C   0  0  0  0  0  0  0  0  0  0  0  0
   11.8193  -17.2433   24.1858 C   0  0  1  0  0  0  0  0  0  0  0  0
   11.3618  -17.2450   22.8893 O   0  0  0  0  0  0  0  0  0  0  0  0
   10.6970  -17.1861   25.2006 C   0  0  2  0  0  0  0  0  0  0  0  0
    9.8745  -16.0155   25.0392 N   0  0  0  0  0  0  0  0  0  0  0  0
   11.3400  -17.1295   26.5356 C   0  0  0  0  0  0  0  0  0  0  0  0
   11.5962  -16.0070   27.0307 O   0  0  0  0  0  0  0  0  0  0  0  0
   11.6519  -18.3019   27.2233 O   0  0  0  0  0  0  0  0  0  0  0  0
  2  1  1  0
  3 10  1  0
  3  2  1  0
  4  3  2  0
  5  6  1  0
  7  6  1  0
  7  8  1  6
  9  7  1  0
  9 10  1  1
 11  9  1  0
 11 17  1  0
 12 11  2  0
 14 13  1  1
 14 15  1  0
 16 17  1  6
 16 14  1  0
 18 16  1  0
 19 18  2  0
 20 18  1  0
M  END
$$$$
