GIT.pdb
     RDKit          3D

 20 19  0  0  1  0  0  0  0  0999 V2000
    6.8634  -15.6857   20.2991 N   0  0  0  0  0  0  0  0  0  0  0  0
    6.2623  -15.7149   21.6127 C   0  0  0  0  0  0  0  0  0  0  0  0
    7.2670  -15.3161   22.6515 C   0  0  0  0  0  0  0  0  0  0  0  0
    8.4910  -15.3709   22.3629 O   0  0  0  0  0  0  0  0  0  0  0  0
    6.0999  -11.6023   26.6320 C   0  0  0  0  0  0  0  0  0  0  0  0
    6.7726  -12.4450   25.5888 C   0  0  0  0  0  0  0  0  0  0  0  0
    7.2092  -13.7977   26.1062 C   0  0  2  0  0  0  0  0  0  0  0  0
    8.3086  -13.5580   27.1363 C   0  0  0  0  0  0  0  0  0  0  0  0
    7.7673  -14.6772   25.0369 C   0  0  2  0  0  0  0  0  0  0  0  0
    6.8584  -14.8835   23.9393 N   0  0  0  0  0  0  0  0  0  0  0  0
    8.1101  -15.9950   25.6901 C   0  0  0  0  0  0  0  0  0  0  0  0
    7.2309  -16.6641   26.2539 O   0  0  0  0  0  0  0  0  0  0  0  0
    9.5074  -19.0177   23.9322 C   0  0  0  0  0  0  0  0  0  0  0  0
   10.3974  -18.6816   25.1132 C   0  0  1  0  0  0  0  0  0  0  0  0
   11.5403  -18.0779   24.6448 O   0  0  0  0  0  0  0  0  0  0  0  0
    9.6695  -17.8375   26.1382 C   0  0  2  0  0  0  0  0  0  0  0  0
    9.4377  -16.4945   25.6738 N   0  0  0  0  0  0  0  0  0  0  0  0
   10.5461  -17.7782   27.3327 C   0  0  0  0  0  0  0  0  0  0  0  0
   10.7131  -18.8218   28.0063 O   0  0  0  0  0  0  0  0  0  0  0  0
   11.1701  -16.5852   27.6964 O   0  0  0  0  0  0  0  0  0  0  0  0
  2  1  1  0
  3 10  1  0
  3  2  1  0
  4  3  2  0
  5  6  1  0
  7  6  1  0
  7  8  1  1
  9  7  1  0
  9 10  1  6
 11  9  1  0
 11 17  1  0
 12 11  2  0
 14 13  1  6
 14 15  1  0
 16 17  1  6
 16 14  1  0
 18 16  1  0
 19 18  2  0
 20 18  1  0
M  END
$$$$
