GIT.pdb
     RDKit          3D

 20 19  0  0  1  0  0  0  0  0999 V2000
    7.3215  -14.9657   19.5443 N   0  0  0  0  0  0  0  0  0  0  0  0
    6.5412  -14.7611   20.7429 C   0  0  0  0  0  0  0  0  0  0  0  0
    7.4429  -14.6429   21.9347 C   0  0  0  0  0  0  0  0  0  0  0  0
    8.6502  -14.9793   21.8166 O   0  0  0  0  0  0  0  0  0  0  0  0
    7.5187  -11.6924   27.4436 C   0  0  0  0  0  0  0  0  0  0  0  0
    8.1053  -12.6750   26.4733 C   0  0  0  0  0  0  0  0  0  0  0  0
    7.1806  -12.9984   25.3207 C   0  0  2  0  0  0  0  0  0  0  0  0
    5.9507  -13.6880   25.9033 C   0  0  0  0  0  0  0  0  0  0  0  0
    7.7953  -13.9238   24.3237 C   0  0  2  0  0  0  0  0  0  0  0  0
    6.9567  -14.1625   23.1778 N   0  0  0  0  0  0  0  0  0  0  0  0
    8.0782  -15.2192   25.0467 C   0  0  0  0  0  0  0  0  0  0  0  0
    7.1454  -15.9365   25.4388 O   0  0  0  0  0  0  0  0  0  0  0  0
   10.0364  -17.9423   23.3854 C   0  0  0  0  0  0  0  0  0  0  0  0
   10.6185  -17.7115   24.7667 C   0  0  1  0  0  0  0  0  0  0  0  0
   11.8008  -17.0222   24.6361 O   0  0  0  0  0  0  0  0  0  0  0  0
    9.6325  -17.0117   25.6781 C   0  0  2  0  0  0  0  0  0  0  0  0
    9.4097  -15.6426   25.2924 N   0  0  0  0  0  0  0  0  0  0  0  0
   10.2302  -17.0275   27.0351 C   0  0  0  0  0  0  0  0  0  0  0  0
   10.3622  -18.1285   27.6194 O   0  0  0  0  0  0  0  0  0  0  0  0
   10.6360  -15.8413   27.6456 O   0  0  0  0  0  0  0  0  0  0  0  0
  2  1  1  0
  3 10  1  0
  3  2  1  0
  4  3  2  0
  5  6  1  0
  7  6  1  0
  7  8  1  1
  9  7  1  0
  9 10  1  6
 11  9  1  0
 11 17  1  0
 12 11  2  0
 14 13  1  6
 14 15  1  0
 16 17  1  6
 16 14  1  0
 18 16  1  0
 19 18  2  0
 20 18  1  0
M  END
$$$$
