GIT.pdb
     RDKit          3D

 20 19  0  0  1  0  0  0  0  0999 V2000
    7.0940  -14.8103   20.0143 N   0  0  0  0  0  0  0  0  0  0  0  0
    6.4085  -14.8570   21.2852 C   0  0  0  0  0  0  0  0  0  0  0  0
    7.3712  -14.5927   22.4036 C   0  0  0  0  0  0  0  0  0  0  0  0
    8.6027  -14.5521   22.1459 O   0  0  0  0  0  0  0  0  0  0  0  0
    5.8952  -11.5667   26.8597 C   0  0  0  0  0  0  0  0  0  0  0  0
    6.6219  -12.2046   25.7125 C   0  0  0  0  0  0  0  0  0  0  0  0
    7.1454  -13.5870   26.0336 C   0  0  2  0  0  0  0  0  0  0  0  0
    8.1981  -13.4326   27.1270 C   0  0  0  0  0  0  0  0  0  0  0  0
    7.7939  -14.2497   24.8637 C   0  0  2  0  0  0  0  0  0  0  0  0
    6.9153  -14.3904   23.7317 N   0  0  0  0  0  0  0  0  0  0  0  0
    8.2645  -15.6050   25.3353 C   0  0  0  0  0  0  0  0  0  0  0  0
    7.4540  -16.4313   25.7813 O   0  0  0  0  0  0  0  0  0  0  0  0
   10.2375  -18.1240   23.1723 C   0  0  0  0  0  0  0  0  0  0  0  0
   10.9440  -17.8827   24.4924 C   0  0  1  0  0  0  0  0  0  0  0  0
   12.0246  -17.0626   24.2694 O   0  0  0  0  0  0  0  0  0  0  0  0
    9.9987  -17.3310   25.5387 C   0  0  2  0  0  0  0  0  0  0  0  0
    9.6364  -15.9619   25.2791 N   0  0  0  0  0  0  0  0  0  0  0  0
   10.7223  -17.3897   26.8316 C   0  0  0  0  0  0  0  0  0  0  0  0
   11.0506  -16.3138   27.3844 O   0  0  0  0  0  0  0  0  0  0  0  0
   11.0297  -18.6172   27.4177 O   0  0  0  0  0  0  0  0  0  0  0  0
  2  1  1  0
  3 10  1  0
  3  2  1  0
  4  3  2  0
  5  6  1  0
  7  6  1  0
  7  8  1  1
  9  7  1  0
  9 10  1  6
 11  9  1  0
 11 17  1  0
 12 11  2  0
 14 13  1  6
 14 15  1  0
 16 17  1  6
 16 14  1  0
 18 16  1  0
 19 18  2  0
 20 18  1  0
M  END
$$$$
