RFI.pdb
     RDKit          3D

 31 31  0  0  1  0  0  0  0  0999 V2000
    9.1366  -12.5358   18.1587 N   0  0  0  0  0  0  0  0  0  0  0  0
    8.0580  -13.0728   17.4018 C   0  0  0  0  0  0  0  0  0  0  0  0
    7.9863  -12.8892   16.1198 N   0  0  0  0  0  0  0  0  0  0  0  0
    7.0759  -13.8124   18.1214 N   0  0  0  0  0  0  0  0  0  0  0  0
    7.3919  -14.3322   19.4515 C   0  0  0  0  0  0  0  0  0  0  0  0
    7.2998  -15.8321   19.4815 C   0  0  0  0  0  0  0  0  0  0  0  0
    8.6075  -16.5147   19.6067 C   0  0  0  0  0  0  0  0  0  0  0  0
    8.7327  -17.4296   20.7720 C   0  0  2  0  0  0  0  0  0  0  0  0
    7.6459  -18.3103   21.0270 N   0  0  0  0  0  0  0  0  0  0  0  0
    9.0928  -16.6168   21.9833 C   0  0  0  0  0  0  0  0  0  0  0  0
   10.0834  -15.8413   21.9423 O   0  0  0  0  0  0  0  0  0  0  0  0
    7.1175  -13.1198   15.5936 N   0  0  0  0  0  0  0  0  0  0  0  0
    8.3774  -16.6630   23.2012 C   0  0  1  0  0  0  0  0  0  0  0  0
    8.8298  -15.9707   24.4155 C   0  0  0  0  0  0  0  0  0  0  0  0
    7.7039  -15.6445   25.3193 C   0  0  0  0  0  0  0  0  0  0  0  0
    7.2335  -14.2626   25.3289 C   0  0  0  0  0  0  0  0  0  0  0  0
    8.0053  -13.2166   24.8438 C   0  0  0  0  0  0  0  0  0  0  0  0
    7.5343  -11.9199   24.8824 C   0  0  0  0  0  0  0  0  0  0  0  0
    6.2904  -11.6260   25.4009 C   0  0  0  0  0  0  0  0  0  0  0  0
    5.5052  -12.6494   25.8890 C   0  0  0  0  0  0  0  0  0  0  0  0
    5.9984  -13.9428   25.8399 C   0  0  0  0  0  0  0  0  0  0  0  0
    9.9787  -16.6793   25.0020 O   0  0  0  0  0  0  0  0  0  0  0  0
   11.0738  -16.7066   24.3404 C   0  0  0  0  0  0  0  0  0  0  0  0
   10.8892  -13.7284   29.4356 C   0  0  0  0  0  0  0  0  0  0  0  0
   11.4788  -14.9494   28.7723 C   0  0  2  0  0  0  0  0  0  0  0  0
   10.5527  -15.4541   27.6993 C   0  0  0  0  0  0  0  0  0  0  0  0
    9.1330  -15.3256   28.2330 C   0  0  2  0  0  0  0  0  0  0  0  0
   10.8145  -16.9125   27.3658 N   0  0  0  0  0  0  0  0  0  0  0  0
   10.0069  -17.3447   26.2502 C   0  0  0  0  0  0  0  0  0  0  0  0
   10.7947  -17.7727   28.5453 O   0  0  0  0  0  0  0  0  0  0  0  0
   11.7384  -17.7371   29.3635 O   0  0  0  0  0  0  0  0  0  0  0  0
  1  2  1  0
  2  3  2  0
  4  2  1  0
  4  5  1  0
  6  5  1  0
  7  6  1  0
  8  9  1  1
  8  7  1  0
 10 11  2  0
 10  8  1  0
 12 10  1  0
 13 21  1  0
 13 12  1  0
 13 14  1  1
 15 14  1  0
 16 15  2  0
 17 16  1  0
 18 19  1  0
 18 17  2  0
 19 20  2  0
 20 15  1  0
 21 28  1  0
 22 21  2  0
 23 24  1  0
 24 25  1  0
 25 26  1  6
 25 27  1  0
 27 29  1  0
 27 28  1  1
 29 30  2  0
 29 31  1  0
M  END
$$$$
