RFI.pdb
     RDKit          3D

 31 31  0  0  1  0  0  0  0  0999 V2000
    9.8398  -20.2258   16.6988 N   0  0  0  0  0  0  0  0  0  0  0  0
   11.2121  -20.6014   16.6906 C   0  0  0  0  0  0  0  0  0  0  0  0
   11.5677  -21.8237   16.4422 N   0  0  0  0  0  0  0  0  0  0  0  0
   12.1594  -19.5740   16.9671 N   0  0  0  0  0  0  0  0  0  0  0  0
   12.1381  -18.9001   18.2651 C   0  0  0  0  0  0  0  0  0  0  0  0
   10.9849  -17.9407   18.3571 C   0  0  0  0  0  0  0  0  0  0  0  0
   10.9664  -17.1367   19.6002 C   0  0  0  0  0  0  0  0  0  0  0  0
   10.2760  -17.7729   20.7530 C   0  0  2  0  0  0  0  0  0  0  0  0
    9.0796  -18.4908   20.4790 N   0  0  0  0  0  0  0  0  0  0  0  0
   10.0768  -16.7375   21.8235 C   0  0  0  0  0  0  0  0  0  0  0  0
   10.9895  -15.9045   22.0633 O   0  0  0  0  0  0  0  0  0  0  0  0
   12.5736  -22.0883   16.3874 N   0  0  0  0  0  0  0  0  0  0  0  0
    8.9032  -16.6299   22.6034 C   0  0  2  0  0  0  0  0  0  0  0  0
    8.7548  -15.6463   23.6846 C   0  0  0  0  0  0  0  0  0  0  0  0
    7.3808  -15.0999   23.7518 C   0  0  0  0  0  0  0  0  0  0  0  0
    7.1314  -14.0360   24.7197 C   0  0  0  0  0  0  0  0  0  0  0  0
    7.6833  -12.7702   24.5841 C   0  0  0  0  0  0  0  0  0  0  0  0
    7.4380  -11.7926   25.5269 C   0  0  0  0  0  0  0  0  0  0  0  0
    6.6422  -12.0422   26.6256 C   0  0  0  0  0  0  0  0  0  0  0  0
    6.0826  -13.2931   26.7816 C   0  0  0  0  0  0  0  0  0  0  0  0
    6.3425  -14.2585   25.8229 C   0  0  0  0  0  0  0  0  0  0  0  0
    9.3287  -16.1768   24.9317 O   0  0  0  0  0  0  0  0  0  0  0  0
    9.0355  -17.3757   25.2700 C   0  0  0  0  0  0  0  0  0  0  0  0
   10.1859  -13.9148   30.1189 C   0  0  0  0  0  0  0  0  0  0  0  0
    9.8046  -14.4836   28.7737 C   0  0  2  0  0  0  0  0  0  0  0  0
   11.0300  -14.9786   28.0545 C   0  0  0  0  0  0  0  0  0  0  0  0
   11.6270  -13.7911   27.3129 C   0  0  1  0  0  0  0  0  0  0  0  0
   10.6944  -16.0616   27.0441 N   0  0  0  0  0  0  0  0  0  0  0  0
   10.1947  -15.4912   25.8158 C   0  0  0  0  0  0  0  0  0  0  0  0
    9.9010  -17.1435   27.6201 O   0  0  0  0  0  0  0  0  0  0  0  0
   10.4037  -17.9035   28.4750 O   0  0  0  0  0  0  0  0  0  0  0  0
  1  2  1  0
  2  3  2  0
  4  2  1  0
  4  5  1  0
  6  5  1  0
  7  6  1  0
  8  9  1  6
  8  7  1  0
 10 11  2  0
 10  8  1  0
 12 10  1  0
 13 21  1  0
 13 12  1  0
 13 14  1  6
 15 14  1  0
 16 15  2  0
 17 16  1  0
 18 19  1  0
 18 17  2  0
 19 20  2  0
 20 15  1  0
 21 28  1  0
 22 21  2  0
 23 24  1  0
 24 25  1  0
 25 26  1  1
 25 27  1  0
 27 29  1  0
 27 28  1  6
 29 30  2  0
 29 31  1  0
M  END
$$$$
