RFI.pdb
     RDKit          3D

 31 31  0  0  1  0  0  0  0  0999 V2000
    8.2533  -12.4319   16.9472 N   0  0  0  0  0  0  0  0  0  0  0  0
    8.6948  -13.7670   16.7297 C   0  0  0  0  0  0  0  0  0  0  0  0
    8.8024  -14.2469   15.5296 N   0  0  0  0  0  0  0  0  0  0  0  0
    9.0071  -14.5353   17.8880 N   0  0  0  0  0  0  0  0  0  0  0  0
    8.6901  -15.9629   17.9167 C   0  0  0  0  0  0  0  0  0  0  0  0
    9.9357  -16.7901   18.0682 C   0  0  0  0  0  0  0  0  0  0  0  0
   10.6544  -16.5711   19.3438 C   0  0  0  0  0  0  0  0  0  0  0  0
   10.1520  -17.3656   20.4957 C   0  0  2  0  0  0  0  0  0  0  0  0
    9.0278  -18.2052   20.2656 N   0  0  0  0  0  0  0  0  0  0  0  0
    9.9322  -16.4390   21.6579 C   0  0  0  0  0  0  0  0  0  0  0  0
   10.7767  -15.5394   21.9070 O   0  0  0  0  0  0  0  0  0  0  0  0
    9.1847  -15.2019   15.3670 N   0  0  0  0  0  0  0  0  0  0  0  0
    8.8119  -16.5082   22.5166 C   0  0  1  0  0  0  0  0  0  0  0  0
    8.6064  -15.5743   23.6319 C   0  0  0  0  0  0  0  0  0  0  0  0
    7.2154  -15.0711   23.6842 C   0  0  0  0  0  0  0  0  0  0  0  0
    6.8818  -14.1392   24.7571 C   0  0  0  0  0  0  0  0  0  0  0  0
    7.1440  -12.7799   24.6625 C   0  0  0  0  0  0  0  0  0  0  0  0
    6.8286  -11.9299   25.7031 C   0  0  0  0  0  0  0  0  0  0  0  0
    6.2472  -12.4024   26.8613 C   0  0  0  0  0  0  0  0  0  0  0  0
    5.9772  -13.7499   26.9782 C   0  0  0  0  0  0  0  0  0  0  0  0
    6.3022  -14.5839   25.9212 C   0  0  0  0  0  0  0  0  0  0  0  0
    9.1639  -16.1384   24.8717 O   0  0  0  0  0  0  0  0  0  0  0  0
    8.9103  -17.3623   25.1464 C   0  0  0  0  0  0  0  0  0  0  0  0
   10.3513  -13.9638   29.6077 C   0  0  0  0  0  0  0  0  0  0  0  0
   10.7499  -13.8794   28.1542 C   0  0  2  0  0  0  0  0  0  0  0  0
   11.4497  -15.1436   27.7348 C   0  0  0  0  0  0  0  0  0  0  0  0
   12.5803  -14.7426   26.7979 C   0  0  1  0  0  0  0  0  0  0  0  0
   10.5183  -16.0870   26.9939 N   0  0  0  0  0  0  0  0  0  0  0  0
    9.9739  -15.4604   25.8129 C   0  0  0  0  0  0  0  0  0  0  0  0
    9.5560  -16.7384   27.8777 O   0  0  0  0  0  0  0  0  0  0  0  0
    8.3422  -16.4512   27.8040 O   0  0  0  0  0  0  0  0  0  0  0  0
  1  2  1  0
  2  3  2  0
  4  2  1  0
  4  5  1  0
  6  5  1  0
  7  6  1  0
  8  9  1  6
  8  7  1  0
 10 11  2  0
 10  8  1  0
 12 10  1  0
 13 21  1  0
 13 12  1  0
 13 14  1  1
 15 14  1  0
 16 15  2  0
 17 16  1  0
 18 19  1  0
 18 17  2  0
 19 20  2  0
 20 15  1  0
 21 28  1  0
 22 21  2  0
 23 24  1  0
 24 25  1  0
 25 26  1  6
 25 27  1  0
 27 29  1  0
 27 28  1  6
 29 30  2  0
 29 31  1  0
M  END
$$$$
