RFI.pdb
     RDKit          3D

 31 31  0  0  1  0  0  0  0  0999 V2000
    9.4290  -14.3381   14.9991 N   0  0  0  0  0  0  0  0  0  0  0  0
    8.1076  -14.1391   15.4880 C   0  0  0  0  0  0  0  0  0  0  0  0
    7.0901  -14.1503   14.6839 N   0  0  0  0  0  0  0  0  0  0  0  0
    7.9679  -13.9296   16.8901 N   0  0  0  0  0  0  0  0  0  0  0  0
    9.1507  -13.9705   17.7495 C   0  0  0  0  0  0  0  0  0  0  0  0
    9.6562  -15.3772   17.9067 C   0  0  0  0  0  0  0  0  0  0  0  0
   10.6416  -15.5460   18.9987 C   0  0  0  0  0  0  0  0  0  0  0  0
   10.2795  -16.5597   20.0242 C   0  0  2  0  0  0  0  0  0  0  0  0
    9.2048  -17.4390   19.7183 N   0  0  0  0  0  0  0  0  0  0  0  0
   10.0762  -15.8606   21.3386 C   0  0  0  0  0  0  0  0  0  0  0  0
   10.9424  -15.0466   21.7529 O   0  0  0  0  0  0  0  0  0  0  0  0
    6.1225  -14.0084   15.0424 N   0  0  0  0  0  0  0  0  0  0  0  0
    8.9486  -16.0583   22.1672 C   0  0  1  0  0  0  0  0  0  0  0  0
    8.7080  -15.2702   23.3835 C   0  0  0  0  0  0  0  0  0  0  0  0
    7.3117  -14.7853   23.4625 C   0  0  0  0  0  0  0  0  0  0  0  0
    6.9855  -13.8614   24.5445 C   0  0  0  0  0  0  0  0  0  0  0  0
    7.4393  -12.5502   24.5578 C   0  0  0  0  0  0  0  0  0  0  0  0
    7.1236  -11.7085   25.6050 C   0  0  0  0  0  0  0  0  0  0  0  0
    6.3526  -12.1420   26.6634 C   0  0  0  0  0  0  0  0  0  0  0  0
    5.8901  -13.4413   26.6721 C   0  0  0  0  0  0  0  0  0  0  0  0
    6.2193  -14.2679   25.6106 C   0  0  0  0  0  0  0  0  0  0  0  0
    9.2404  -15.9797   24.5580 O   0  0  0  0  0  0  0  0  0  0  0  0
    9.2059  -17.2590   24.5582 C   0  0  0  0  0  0  0  0  0  0  0  0
   10.8844  -12.9962   28.9528 C   0  0  0  0  0  0  0  0  0  0  0  0
   10.8623  -13.8737   27.7248 C   0  0  2  0  0  0  0  0  0  0  0  0
   10.3826  -15.2540   28.0830 C   0  0  0  0  0  0  0  0  0  0  0  0
   11.4199  -15.8631   29.0155 C   0  0  1  0  0  0  0  0  0  0  0  0
   10.2508  -16.1428   26.8586 N   0  0  0  0  0  0  0  0  0  0  0  0
    9.8048  -15.3875   25.7122 C   0  0  0  0  0  0  0  0  0  0  0  0
    9.5259  -17.3796   27.1353 O   0  0  0  0  0  0  0  0  0  0  0  0
    8.2770  -17.3955   27.1017 O   0  0  0  0  0  0  0  0  0  0  0  0
  1  2  1  0
  2  3  2  0
  4  2  1  0
  4  5  1  0
  6  5  1  0
  7  6  1  0
  8  9  1  6
  8  7  1  0
 10 11  2  0
 10  8  1  0
 12 10  1  0
 13 21  1  0
 13 12  1  0
 13 14  1  1
 15 14  1  0
 16 15  2  0
 17 16  1  0
 18 19  1  0
 18 17  2  0
 19 20  2  0
 20 15  1  0
 21 28  1  0
 22 21  2  0
 23 24  1  0
 24 25  1  0
 25 26  1  1
 25 27  1  0
 27 29  1  0
 27 28  1  6
 29 30  2  0
 29 31  1  0
M  END
$$$$
