RFI.pdb
     RDKit          3D

 31 31  0  0  1  0  0  0  0  0999 V2000
   10.0729  -20.0685   15.4916 N   0  0  0  0  0  0  0  0  0  0  0  0
   11.4725  -19.8481   15.6222 C   0  0  0  0  0  0  0  0  0  0  0  0
   12.3116  -20.3732   14.7840 N   0  0  0  0  0  0  0  0  0  0  0  0
   11.8937  -19.0302   16.7099 N   0  0  0  0  0  0  0  0  0  0  0  0
   11.1359  -19.0430   17.9609 C   0  0  0  0  0  0  0  0  0  0  0  0
   10.0636  -17.9899   17.9539 C   0  0  0  0  0  0  0  0  0  0  0  0
   10.1087  -17.0748   19.1169 C   0  0  0  0  0  0  0  0  0  0  0  0
    9.7143  -17.6836   20.4146 C   0  0  2  0  0  0  0  0  0  0  0  0
    8.6062  -18.5747   20.4047 N   0  0  0  0  0  0  0  0  0  0  0  0
    9.5433  -16.5863   21.4268 C   0  0  0  0  0  0  0  0  0  0  0  0
   10.4100  -15.6778   21.5144 O   0  0  0  0  0  0  0  0  0  0  0  0
   13.3391  -20.2689   14.9186 N   0  0  0  0  0  0  0  0  0  0  0  0
    8.4464  -16.4998   22.3136 C   0  0  1  0  0  0  0  0  0  0  0  0
    8.3552  -15.4808   23.3680 C   0  0  0  0  0  0  0  0  0  0  0  0
    6.9688  -14.9958   23.5514 C   0  0  0  0  0  0  0  0  0  0  0  0
    6.7511  -13.9587   24.5554 C   0  0  0  0  0  0  0  0  0  0  0  0
    7.2681  -12.6784   24.4184 C   0  0  0  0  0  0  0  0  0  0  0  0
    7.0548  -11.7269   25.3951 C   0  0  0  0  0  0  0  0  0  0  0  0
    6.3263  -12.0175   26.5298 C   0  0  0  0  0  0  0  0  0  0  0  0
    5.8026  -13.2836   26.6879 C   0  0  0  0  0  0  0  0  0  0  0  0
    6.0292  -14.2221   25.6948 C   0  0  0  0  0  0  0  0  0  0  0  0
    9.0735  -15.9331   24.5704 O   0  0  0  0  0  0  0  0  0  0  0  0
    8.9698  -17.1627   24.9096 C   0  0  0  0  0  0  0  0  0  0  0  0
   10.6841  -14.0150   30.1274 C   0  0  0  0  0  0  0  0  0  0  0  0
   10.9807  -15.0000   29.0227 C   0  0  2  0  0  0  0  0  0  0  0  0
   10.2879  -14.5803   27.7548 C   0  0  0  0  0  0  0  0  0  0  0  0
    8.8059  -14.4463   28.0748 C   0  0  2  0  0  0  0  0  0  0  0  0
   10.4539  -15.6107   26.6515 N   0  0  0  0  0  0  0  0  0  0  0  0
    9.8903  -15.1388   25.4091 C   0  0  0  0  0  0  0  0  0  0  0  0
   10.0572  -16.9523   27.0689 O   0  0  0  0  0  0  0  0  0  0  0  0
   10.9125  -17.7522   27.5047 O   0  0  0  0  0  0  0  0  0  0  0  0
  1  2  1  0
  2  3  2  0
  4  2  1  0
  4  5  1  0
  6  5  1  0
  7  6  1  0
  8  9  1  6
  8  7  1  0
 10 11  2  0
 10  8  1  0
 12 10  1  0
 13 21  1  0
 13 12  1  0
 13 14  1  1
 15 14  1  0
 16 15  2  0
 17 16  1  0
 18 19  1  0
 18 17  2  0
 19 20  2  0
 20 15  1  0
 21 28  1  0
 22 21  2  0
 23 24  1  0
 24 25  1  0
 25 26  1  6
 25 27  1  0
 27 29  1  0
 27 28  1  1
 29 30  2  0
 29 31  1  0
M  END
$$$$
