RFI.pdb
     RDKit          3D

 31 31  0  0  1  0  0  0  0  0999 V2000
    8.1750  -15.2837   15.3493 N   0  0  0  0  0  0  0  0  0  0  0  0
    8.0886  -14.4216   16.4779 C   0  0  0  0  0  0  0  0  0  0  0  0
    8.1943  -13.1358   16.3448 N   0  0  0  0  0  0  0  0  0  0  0  0
    7.8827  -15.0417   17.7438 N   0  0  0  0  0  0  0  0  0  0  0  0
    8.2475  -16.4458   17.9298 C   0  0  0  0  0  0  0  0  0  0  0  0
    9.7243  -16.6503   17.7403 C   0  0  0  0  0  0  0  0  0  0  0  0
   10.5253  -16.4391   18.9674 C   0  0  0  0  0  0  0  0  0  0  0  0
   10.0676  -17.2018   20.1587 C   0  0  2  0  0  0  0  0  0  0  0  0
    8.9198  -18.0262   20.0016 N   0  0  0  0  0  0  0  0  0  0  0  0
    9.9207  -16.2486   21.3109 C   0  0  0  0  0  0  0  0  0  0  0  0
   10.5470  -15.1567   21.3010 O   0  0  0  0  0  0  0  0  0  0  0  0
    8.1665  -12.5072   17.1748 N   0  0  0  0  0  0  0  0  0  0  0  0
    9.1057  -16.4986   22.4381 C   0  0  1  0  0  0  0  0  0  0  0  0
    8.9571  -15.5384   23.5401 C   0  0  0  0  0  0  0  0  0  0  0  0
    7.6385  -14.8663   23.5153 C   0  0  0  0  0  0  0  0  0  0  0  0
    7.3647  -13.8931   24.5683 C   0  0  0  0  0  0  0  0  0  0  0  0
    7.9205  -12.6218   24.5614 C   0  0  0  0  0  0  0  0  0  0  0  0
    7.6514  -11.7323   25.5818 C   0  0  0  0  0  0  0  0  0  0  0  0
    6.8273  -12.0775   26.6327 C   0  0  0  0  0  0  0  0  0  0  0  0
    6.2634  -13.3359   26.6611 C   0  0  0  0  0  0  0  0  0  0  0  0
    6.5475  -14.2117   25.6264 C   0  0  0  0  0  0  0  0  0  0  0  0
    9.3714  -16.1585   24.8090 O   0  0  0  0  0  0  0  0  0  0  0  0
    8.6922  -17.1506   25.2470 C   0  0  0  0  0  0  0  0  0  0  0  0
    9.3764  -14.0361   29.6526 C   0  0  0  0  0  0  0  0  0  0  0  0
    9.3520  -15.1024   28.5845 C   0  0  2  0  0  0  0  0  0  0  0  0
   10.7247  -15.2742   27.9927 C   0  0  0  0  0  0  0  0  0  0  0  0
   11.1158  -13.9422   27.3687 C   0  0  1  0  0  0  0  0  0  0  0  0
   10.7453  -16.3403   26.9113 N   0  0  0  0  0  0  0  0  0  0  0  0
   10.4688  -15.7715   25.6137 C   0  0  0  0  0  0  0  0  0  0  0  0
    9.9715  -17.5245   27.2723 O   0  0  0  0  0  0  0  0  0  0  0  0
    8.8461  -17.7172   26.7647 O   0  0  0  0  0  0  0  0  0  0  0  0
  1  2  1  0
  2  3  2  0
  4  2  1  0
  4  5  1  0
  6  5  1  0
  7  6  1  0
  8  9  1  6
  8  7  1  0
 10 11  2  0
 10  8  1  0
 12 10  1  0
 13 21  1  0
 13 12  1  0
 13 14  1  1
 15 14  1  0
 16 15  2  0
 17 16  1  0
 18 19  1  0
 18 17  2  0
 19 20  2  0
 20 15  1  0
 21 28  1  0
 22 21  2  0
 23 24  1  0
 24 25  1  0
 25 26  1  1
 25 27  1  0
 27 29  1  0
 27 28  1  6
 29 30  2  0
 29 31  1  0
M  END
$$$$
