RFI.pdb
     RDKit          3D

 31 31  0  0  1  0  0  0  0  0999 V2000
    7.8969  -14.3060   18.4279 N   0  0  0  0  0  0  0  0  0  0  0  0
    8.4507  -14.0983   17.1338 C   0  0  0  0  0  0  0  0  0  0  0  0
    8.0191  -13.1441   16.3687 N   0  0  0  0  0  0  0  0  0  0  0  0
    9.4906  -14.9851   16.7320 N   0  0  0  0  0  0  0  0  0  0  0  0
    9.7414  -16.2029   17.5023 C   0  0  0  0  0  0  0  0  0  0  0  0
   10.4674  -15.8935   18.7814 C   0  0  0  0  0  0  0  0  0  0  0  0
   10.9662  -17.0898   19.4969 C   0  0  0  0  0  0  0  0  0  0  0  0
   10.0297  -17.6611   20.5004 C   0  0  2  0  0  0  0  0  0  0  0  0
    8.7920  -18.1697   20.0192 N   0  0  0  0  0  0  0  0  0  0  0  0
    9.8342  -16.6563   21.6003 C   0  0  0  0  0  0  0  0  0  0  0  0
   10.6005  -15.6610   21.6795 O   0  0  0  0  0  0  0  0  0  0  0  0
    8.4486  -12.9696   15.4361 N   0  0  0  0  0  0  0  0  0  0  0  0
    8.8214  -16.7528   22.5813 C   0  0  1  0  0  0  0  0  0  0  0  0
    8.6598  -15.7649   23.6567 C   0  0  0  0  0  0  0  0  0  0  0  0
    7.2871  -15.2130   23.7004 C   0  0  0  0  0  0  0  0  0  0  0  0
    7.0185  -14.1666   24.6821 C   0  0  0  0  0  0  0  0  0  0  0  0
    7.4904  -12.8709   24.5279 C   0  0  0  0  0  0  0  0  0  0  0  0
    7.2299  -11.9103   25.4840 C   0  0  0  0  0  0  0  0  0  0  0  0
    6.4975  -12.2069   26.6146 C   0  0  0  0  0  0  0  0  0  0  0  0
    6.0181  -13.4882   26.7897 C   0  0  0  0  0  0  0  0  0  0  0  0
    6.2918  -14.4356   25.8171 C   0  0  0  0  0  0  0  0  0  0  0  0
    9.2120  -16.2933   24.9145 O   0  0  0  0  0  0  0  0  0  0  0  0
    8.9770  -17.5158   25.2113 C   0  0  0  0  0  0  0  0  0  0  0  0
    9.8091  -14.3704   30.1037 C   0  0  0  0  0  0  0  0  0  0  0  0
    9.8034  -14.3102   28.5955 C   0  0  2  0  0  0  0  0  0  0  0  0
   10.9642  -15.0910   28.0415 C   0  0  0  0  0  0  0  0  0  0  0  0
   11.8551  -14.1063   27.2977 C   0  0  1  0  0  0  0  0  0  0  0  0
   10.5107  -16.1648   27.0679 N   0  0  0  0  0  0  0  0  0  0  0  0
    9.9979  -15.5815   25.8511 C   0  0  0  0  0  0  0  0  0  0  0  0
    9.6710  -17.1791   27.6984 O   0  0  0  0  0  0  0  0  0  0  0  0
   10.1490  -17.9357   28.5703 O   0  0  0  0  0  0  0  0  0  0  0  0
  1  2  1  0
  2  3  2  0
  4  2  1  0
  4  5  1  0
  6  5  1  0
  7  6  1  0
  8  9  1  6
  8  7  1  0
 10 11  2  0
 10  8  1  0
 12 10  1  0
 13 21  1  0
 13 12  1  0
 13 14  1  1
 15 14  1  0
 16 15  2  0
 17 16  1  0
 18 19  1  0
 18 17  2  0
 19 20  2  0
 20 15  1  0
 21 28  1  0
 22 21  2  0
 23 24  1  0
 24 25  1  0
 25 26  1  6
 25 27  1  0
 27 29  1  0
 27 28  1  6
 29 30  2  0
 29 31  1  0
M  END
$$$$
