RFI.pdb
     RDKit          3D

 31 31  0  0  1  0  0  0  0  0999 V2000
    8.3895  -13.2074   16.6234 N   0  0  0  0  0  0  0  0  0  0  0  0
    7.7526  -13.0067   17.8799 C   0  0  0  0  0  0  0  0  0  0  0  0
    7.9527  -11.9228   18.5636 N   0  0  0  0  0  0  0  0  0  0  0  0
    6.8956  -14.0485   18.3375 N   0  0  0  0  0  0  0  0  0  0  0  0
    7.4436  -15.1291   19.1568 C   0  0  0  0  0  0  0  0  0  0  0  0
    8.2444  -16.0880   18.3213 C   0  0  0  0  0  0  0  0  0  0  0  0
    8.5397  -17.3735   18.9938 C   0  0  0  0  0  0  0  0  0  0  0  0
    9.6737  -17.3372   19.9545 C   0  0  2  0  0  0  0  0  0  0  0  0
   10.1167  -18.5800   20.4848 N   0  0  0  0  0  0  0  0  0  0  0  0
    9.3528  -16.3469   21.0380 C   0  0  0  0  0  0  0  0  0  0  0  0
    9.2613  -15.1232   20.7577 O   0  0  0  0  0  0  0  0  0  0  0  0
    7.5052  -11.7863   19.4941 N   0  0  0  0  0  0  0  0  0  0  0  0
    9.1405  -16.7024   22.3892 C   0  0  1  0  0  0  0  0  0  0  0  0
    8.8736  -15.7105   23.4396 C   0  0  0  0  0  0  0  0  0  0  0  0
    7.5993  -14.9925   23.2129 C   0  0  0  0  0  0  0  0  0  0  0  0
    7.1988  -14.0092   24.2147 C   0  0  0  0  0  0  0  0  0  0  0  0
    6.5302  -14.3688   25.3761 C   0  0  0  0  0  0  0  0  0  0  0  0
    6.1534  -13.4102   26.2947 C   0  0  0  0  0  0  0  0  0  0  0  0
    6.4280  -12.0744   26.0879 C   0  0  0  0  0  0  0  0  0  0  0  0
    7.0918  -11.6931   24.9406 C   0  0  0  0  0  0  0  0  0  0  0  0
    7.4602  -12.6723   24.0329 C   0  0  0  0  0  0  0  0  0  0  0  0
    9.0784  -16.3132   24.7666 O   0  0  0  0  0  0  0  0  0  0  0  0
    9.1428  -17.5888   24.8477 C   0  0  0  0  0  0  0  0  0  0  0  0
   11.4404  -14.1682   30.1263 C   0  0  0  0  0  0  0  0  0  0  0  0
   11.3671  -15.2541   29.0803 C   0  0  2  0  0  0  0  0  0  0  0  0
   10.3869  -14.8720   28.0048 C   0  0  0  0  0  0  0  0  0  0  0  0
    9.0689  -14.5451   28.6925 C   0  0  2  0  0  0  0  0  0  0  0  0
   10.1526  -16.0071   27.0234 N   0  0  0  0  0  0  0  0  0  0  0  0
    9.2210  -15.6192   25.9912 C   0  0  0  0  0  0  0  0  0  0  0  0
    9.8838  -17.2794   27.6870 O   0  0  0  0  0  0  0  0  0  0  0  0
    8.7202  -17.7331   27.7259 O   0  0  0  0  0  0  0  0  0  0  0  0
  1  2  1  0
  2  3  2  0
  4  2  1  0
  4  5  1  0
  6  5  1  0
  7  6  1  0
  8  9  1  1
  8  7  1  0
 10 11  2  0
 10  8  1  0
 12 10  1  0
 13 21  1  0
 13 12  1  0
 13 14  1  1
 15 14  1  0
 16 15  2  0
 17 16  1  0
 18 19  1  0
 18 17  2  0
 19 20  2  0
 20 15  1  0
 21 28  1  0
 22 21  2  0
 23 24  1  0
 24 25  1  0
 25 26  1  6
 25 27  1  0
 27 29  1  0
 27 28  1  1
 29 30  2  0
 29 31  1  0
M  END
$$$$
