RFI.pdb
     RDKit          3D

 31 31  0  0  1  0  0  0  0  0999 V2000
   14.8196  -19.6109   17.4152 N   0  0  0  0  0  0  0  0  0  0  0  0
   15.3688  -19.7621   18.7191 C   0  0  0  0  0  0  0  0  0  0  0  0
   16.6511  -19.8371   18.8983 N   0  0  0  0  0  0  0  0  0  0  0  0
   14.4437  -19.8258   19.8006 N   0  0  0  0  0  0  0  0  0  0  0  0
   13.0074  -19.8358   19.5249 C   0  0  0  0  0  0  0  0  0  0  0  0
   12.3976  -18.4871   19.7859 C   0  0  0  0  0  0  0  0  0  0  0  0
   11.2784  -18.5080   20.7548 C   0  0  0  0  0  0  0  0  0  0  0  0
   10.1532  -17.5889   20.4392 C   0  0  2  0  0  0  0  0  0  0  0  0
   10.2134  -16.8875   19.2038 N   0  0  0  0  0  0  0  0  0  0  0  0
    9.9519  -16.6600   21.6029 C   0  0  0  0  0  0  0  0  0  0  0  0
   10.8424  -15.8182   21.8905 O   0  0  0  0  0  0  0  0  0  0  0  0
   17.0507  -20.0046   19.8454 N   0  0  0  0  0  0  0  0  0  0  0  0
    8.8000  -16.6650   22.4217 C   0  0  1  0  0  0  0  0  0  0  0  0
    8.6120  -15.7248   23.5349 C   0  0  0  0  0  0  0  0  0  0  0  0
    7.2433  -15.1619   23.5597 C   0  0  0  0  0  0  0  0  0  0  0  0
    6.9119  -14.2588   24.6576 C   0  0  0  0  0  0  0  0  0  0  0  0
    6.1042  -14.6488   25.7162 C   0  0  0  0  0  0  0  0  0  0  0  0
    5.7993  -13.7634   26.7300 C   0  0  0  0  0  0  0  0  0  0  0  0
    6.2848  -12.4723   26.7220 C   0  0  0  0  0  0  0  0  0  0  0  0
    7.0898  -12.0620   25.6800 C   0  0  0  0  0  0  0  0  0  0  0  0
    7.3825  -12.9677   24.6737 C   0  0  0  0  0  0  0  0  0  0  0  0
    9.1188  -16.3145   24.7845 O   0  0  0  0  0  0  0  0  0  0  0  0
    8.9345  -17.5656   24.9807 C   0  0  0  0  0  0  0  0  0  0  0  0
    9.9602  -13.6583   29.8110 C   0  0  0  0  0  0  0  0  0  0  0  0
    9.5009  -14.6687   28.7880 C   0  0  2  0  0  0  0  0  0  0  0  0
   10.6856  -15.2471   28.0631 C   0  0  0  0  0  0  0  0  0  0  0  0
   11.3850  -14.0963   27.3537 C   0  0  1  0  0  0  0  0  0  0  0  0
   10.2678  -16.2737   27.0248 N   0  0  0  0  0  0  0  0  0  0  0  0
    9.8092  -15.6338   25.8148 C   0  0  0  0  0  0  0  0  0  0  0  0
    9.3972  -17.3090   27.5742 O   0  0  0  0  0  0  0  0  0  0  0  0
    9.8418  -18.1230   28.4115 O   0  0  0  0  0  0  0  0  0  0  0  0
  1  2  1  0
  2  3  2  0
  4  2  1  0
  4  5  1  0
  6  5  1  0
  7  6  1  0
  8  9  1  6
  8  7  1  0
 10 11  2  0
 10  8  1  0
 12 10  1  0
 13 21  1  0
 13 12  1  0
 13 14  1  1
 15 14  1  0
 16 15  2  0
 17 16  1  0
 18 19  1  0
 18 17  2  0
 19 20  2  0
 20 15  1  0
 21 28  1  0
 22 21  2  0
 23 24  1  0
 24 25  1  0
 25 26  1  1
 25 27  1  0
 27 29  1  0
 27 28  1  6
 29 30  2  0
 29 31  1  0
M  END
$$$$
