RFI.pdb
     RDKit          3D

 31 31  0  0  1  0  0  0  0  0999 V2000
    9.4124  -18.9945   14.6861 N   0  0  0  0  0  0  0  0  0  0  0  0
   10.4097  -19.7379   15.3770 C   0  0  0  0  0  0  0  0  0  0  0  0
   11.5595  -19.9820   14.8287 N   0  0  0  0  0  0  0  0  0  0  0  0
   10.0783  -20.1924   16.6858 N   0  0  0  0  0  0  0  0  0  0  0  0
   10.7761  -19.6348   17.8440 C   0  0  0  0  0  0  0  0  0  0  0  0
   10.1307  -18.3563   18.2999 C   0  0  0  0  0  0  0  0  0  0  0  0
   10.8634  -17.6633   19.3837 C   0  0  0  0  0  0  0  0  0  0  0  0
   10.6468  -18.2171   20.7464 C   0  0  2  0  0  0  0  0  0  0  0  0
    9.7478  -19.3120   20.8680 N   0  0  0  0  0  0  0  0  0  0  0  0
   10.2857  -17.0889   21.6707 C   0  0  0  0  0  0  0  0  0  0  0  0
   11.0204  -16.0683   21.7262 O   0  0  0  0  0  0  0  0  0  0  0  0
   12.3087  -20.4791   15.3543 N   0  0  0  0  0  0  0  0  0  0  0  0
    9.1464  -17.0927   22.5069 C   0  0  1  0  0  0  0  0  0  0  0  0
    8.8997  -16.0564   23.5188 C   0  0  0  0  0  0  0  0  0  0  0  0
    7.4784  -15.6447   23.5552 C   0  0  0  0  0  0  0  0  0  0  0  0
    7.1398  -14.4837   24.3726 C   0  0  0  0  0  0  0  0  0  0  0  0
    6.5543  -14.6075   25.6244 C   0  0  0  0  0  0  0  0  0  0  0  0
    6.2338  -13.4870   26.3636 C   0  0  0  0  0  0  0  0  0  0  0  0
    6.4838  -12.2182   25.8838 C   0  0  0  0  0  0  0  0  0  0  0  0
    7.0652  -12.0702   24.6419 C   0  0  0  0  0  0  0  0  0  0  0  0
    7.3783  -13.2088   23.9180 C   0  0  0  0  0  0  0  0  0  0  0  0
    9.5209  -16.4408   24.7965 O   0  0  0  0  0  0  0  0  0  0  0  0
    9.7464  -17.6823   25.0097 C   0  0  0  0  0  0  0  0  0  0  0  0
    9.9748  -12.7007   28.9134 C   0  0  0  0  0  0  0  0  0  0  0  0
   10.3362  -13.6156   27.7685 C   0  0  2  0  0  0  0  0  0  0  0  0
   10.2411  -15.0526   28.2040 C   0  0  0  0  0  0  0  0  0  0  0  0
   11.2843  -15.2633   29.2921 C   0  0  2  0  0  0  0  0  0  0  0  0
   10.5323  -16.0105   27.0620 N   0  0  0  0  0  0  0  0  0  0  0  0
    9.9105  -15.5656   25.8376 C   0  0  0  0  0  0  0  0  0  0  0  0
   10.3085  -17.4065   27.4263 O   0  0  0  0  0  0  0  0  0  0  0  0
    9.1532  -17.8822   27.4081 O   0  0  0  0  0  0  0  0  0  0  0  0
  1  2  1  0
  2  3  2  0
  4  2  1  0
  4  5  1  0
  6  5  1  0
  7  6  1  0
  8  9  1  6
  8  7  1  0
 10 11  2  0
 10  8  1  0
 12 10  1  0
 13 21  1  0
 13 12  1  0
 13 14  1  1
 15 14  1  0
 16 15  2  0
 17 16  1  0
 18 19  1  0
 18 17  2  0
 19 20  2  0
 20 15  1  0
 21 28  1  0
 22 21  2  0
 23 24  1  0
 24 25  1  0
 25 26  1  1
 25 27  1  0
 27 29  1  0
 27 28  1  6
 29 30  2  0
 29 31  1  0
M  END
$$$$
