RFI.pdb
     RDKit          3D

 31 31  0  0  1  0  0  0  0  0999 V2000
    9.4133  -13.5198   15.6471 N   0  0  0  0  0  0  0  0  0  0  0  0
    8.0368  -13.8489   15.7935 C   0  0  0  0  0  0  0  0  0  0  0  0
    7.2948  -14.0905   14.7576 N   0  0  0  0  0  0  0  0  0  0  0  0
    7.5274  -13.8970   17.1230 N   0  0  0  0  0  0  0  0  0  0  0  0
    8.4268  -13.6602   18.2519 C   0  0  0  0  0  0  0  0  0  0  0  0
    9.4195  -14.7793   18.3960 C   0  0  0  0  0  0  0  0  0  0  0  0
    8.8151  -16.0775   18.7720 C   0  0  0  0  0  0  0  0  0  0  0  0
    9.4825  -16.7816   19.8987 C   0  0  2  0  0  0  0  0  0  0  0  0
    9.1076  -18.1328   20.1344 N   0  0  0  0  0  0  0  0  0  0  0  0
    9.3518  -15.9387   21.1356 C   0  0  0  0  0  0  0  0  0  0  0  0
    9.7993  -14.7622   21.1390 O   0  0  0  0  0  0  0  0  0  0  0  0
    6.2884  -14.3362   14.8652 N   0  0  0  0  0  0  0  0  0  0  0  0
    8.7445  -16.3865   22.3306 C   0  0  1  0  0  0  0  0  0  0  0  0
    8.5978  -15.5316   23.5164 C   0  0  0  0  0  0  0  0  0  0  0  0
    7.2261  -14.9899   23.6427 C   0  0  0  0  0  0  0  0  0  0  0  0
    6.9596  -14.1015   24.7699 C   0  0  0  0  0  0  0  0  0  0  0  0
    7.3604  -12.7731   24.7737 C   0  0  0  0  0  0  0  0  0  0  0  0
    7.1046  -11.9657   25.8634 C   0  0  0  0  0  0  0  0  0  0  0  0
    6.4474  -12.4513   26.9747 C   0  0  0  0  0  0  0  0  0  0  0  0
    6.0394  -13.7686   26.9937 C   0  0  0  0  0  0  0  0  0  0  0  0
    6.3068  -14.5601   25.8889 C   0  0  0  0  0  0  0  0  0  0  0  0
    9.1663  -16.2031   24.6962 O   0  0  0  0  0  0  0  0  0  0  0  0
    9.1007  -17.4798   24.7550 C   0  0  0  0  0  0  0  0  0  0  0  0
   10.6442  -13.6303   29.6736 C   0  0  0  0  0  0  0  0  0  0  0  0
    9.9492  -14.5606   28.7093 C   0  0  2  0  0  0  0  0  0  0  0  0
   10.9644  -15.3538   27.9321 C   0  0  0  0  0  0  0  0  0  0  0  0
   11.8201  -14.3580   27.1621 C   0  0  1  0  0  0  0  0  0  0  0  0
   10.3066  -16.2963   26.9393 N   0  0  0  0  0  0  0  0  0  0  0  0
    9.7977  -15.5764   25.7963 C   0  0  0  0  0  0  0  0  0  0  0  0
    9.3813  -17.2292   27.5757 O   0  0  0  0  0  0  0  0  0  0  0  0
    8.1624  -17.1870   27.3044 O   0  0  0  0  0  0  0  0  0  0  0  0
  1  2  1  0
  2  3  2  0
  4  2  1  0
  4  5  1  0
  6  5  1  0
  7  6  1  0
  8  9  1  1
  8  7  1  0
 10 11  2  0
 10  8  1  0
 12 10  1  0
 13 21  1  0
 13 12  1  0
 13 14  1  1
 15 14  1  0
 16 15  2  0
 17 16  1  0
 18 19  1  0
 18 17  2  0
 19 20  2  0
 20 15  1  0
 21 28  1  0
 22 21  2  0
 23 24  1  0
 24 25  1  0
 25 26  1  1
 25 27  1  0
 27 29  1  0
 27 28  1  6
 29 30  2  0
 29 31  1  0
M  END
$$$$
