RFI.pdb
     RDKit          3D

 31 31  0  0  1  0  0  0  0  0999 V2000
    8.9121  -13.1325   15.4218 N   0  0  0  0  0  0  0  0  0  0  0  0
    8.6103  -14.5196   15.5196 C   0  0  0  0  0  0  0  0  0  0  0  0
    7.4740  -14.9860   15.1030 N   0  0  0  0  0  0  0  0  0  0  0  0
    9.6121  -15.3545   16.0928 N   0  0  0  0  0  0  0  0  0  0  0  0
    9.6505  -15.5486   17.5420 C   0  0  0  0  0  0  0  0  0  0  0  0
   10.8672  -16.3307   17.9505 C   0  0  0  0  0  0  0  0  0  0  0  0
   11.1582  -16.2801   19.4012 C   0  0  0  0  0  0  0  0  0  0  0  0
   10.1999  -17.0209   20.2633 C   0  0  2  0  0  0  0  0  0  0  0  0
    8.9651  -17.4115   19.6764 N   0  0  0  0  0  0  0  0  0  0  0  0
    9.9970  -16.2433   21.5329 C   0  0  0  0  0  0  0  0  0  0  0  0
   10.9398  -15.5510   21.9979 O   0  0  0  0  0  0  0  0  0  0  0  0
    7.2580  -16.0031   15.1636 N   0  0  0  0  0  0  0  0  0  0  0  0
    8.7874  -16.2344   22.2636 C   0  0  1  0  0  0  0  0  0  0  0  0
    8.5692  -15.3669   23.4291 C   0  0  0  0  0  0  0  0  0  0  0  0
    7.2047  -14.7937   23.4456 C   0  0  0  0  0  0  0  0  0  0  0  0
    6.8814  -13.8688   24.5277 C   0  0  0  0  0  0  0  0  0  0  0  0
    6.3190  -14.2971   25.7217 C   0  0  0  0  0  0  0  0  0  0  0  0
    6.0124  -13.3923   26.7177 C   0  0  0  0  0  0  0  0  0  0  0  0
    6.2539  -12.0437   26.5580 C   0  0  0  0  0  0  0  0  0  0  0  0
    6.8125  -11.5945   25.3796 C   0  0  0  0  0  0  0  0  0  0  0  0
    7.1119  -12.5205   24.3941 C   0  0  0  0  0  0  0  0  0  0  0  0
    9.0294  -16.0417   24.6535 O   0  0  0  0  0  0  0  0  0  0  0  0
    8.7737  -17.2883   24.7892 C   0  0  0  0  0  0  0  0  0  0  0  0
   10.8742  -13.4199   29.4578 C   0  0  0  0  0  0  0  0  0  0  0  0
   10.0726  -14.2644   28.4972 C   0  0  2  0  0  0  0  0  0  0  0  0
   10.9627  -15.2791   27.8325 C   0  0  0  0  0  0  0  0  0  0  0  0
   12.0015  -14.5093   27.0295 C   0  0  1  0  0  0  0  0  0  0  0  0
   10.1872  -16.1781   26.8854 N   0  0  0  0  0  0  0  0  0  0  0  0
    9.7458  -15.4495   25.7201 C   0  0  0  0  0  0  0  0  0  0  0  0
    9.1718  -16.9742   27.5686 O   0  0  0  0  0  0  0  0  0  0  0  0
    7.9630  -16.8191   27.2933 O   0  0  0  0  0  0  0  0  0  0  0  0
  1  2  1  0
  2  3  2  0
  4  2  1  0
  4  5  1  0
  6  5  1  0
  7  6  1  0
  8  9  1  6
  8  7  1  0
 10 11  2  0
 10  8  1  0
 12 10  1  0
 13 21  1  0
 13 12  1  0
 13 14  1  6
 15 14  1  0
 16 15  2  0
 17 16  1  0
 18 19  1  0
 18 17  2  0
 19 20  2  0
 20 15  1  0
 21 28  1  0
 22 21  2  0
 23 24  1  0
 24 25  1  0
 25 26  1  1
 25 27  1  0
 27 29  1  0
 27 28  1  6
 29 30  2  0
 29 31  1  0
M  END
$$$$
