RFI.pdb
     RDKit          3D

 31 31  0  0  1  0  0  0  0  0999 V2000
    9.7881  -13.9394   13.9345 N   0  0  0  0  0  0  0  0  0  0  0  0
    8.6039  -14.4253   14.5560 C   0  0  0  0  0  0  0  0  0  0  0  0
    7.4325  -14.1148   14.0941 N   0  0  0  0  0  0  0  0  0  0  0  0
    8.7756  -15.2597   15.6978 N   0  0  0  0  0  0  0  0  0  0  0  0
   10.1245  -15.5883   16.1580 C   0  0  0  0  0  0  0  0  0  0  0  0
   10.0809  -16.4776   17.3688 C   0  0  0  0  0  0  0  0  0  0  0  0
    9.3270  -15.9085   18.5088 C   0  0  0  0  0  0  0  0  0  0  0  0
    9.2653  -16.7711   19.7182 C   0  0  2  0  0  0  0  0  0  0  0  0
    8.2462  -17.7619   19.7588 N   0  0  0  0  0  0  0  0  0  0  0  0
    9.2405  -15.8899   20.9349 C   0  0  0  0  0  0  0  0  0  0  0  0
    9.3431  -14.6423   20.8039 O   0  0  0  0  0  0  0  0  0  0  0  0
    6.5687  -14.5306   14.5012 N   0  0  0  0  0  0  0  0  0  0  0  0
    9.1066  -16.3771   22.2548 C   0  0  2  0  0  0  0  0  0  0  0  0
    8.8611  -15.4974   23.4056 C   0  0  0  0  0  0  0  0  0  0  0  0
    7.5112  -14.8916   23.3620 C   0  0  0  0  0  0  0  0  0  0  0  0
    7.1554  -13.9741   24.4402 C   0  0  0  0  0  0  0  0  0  0  0  0
    6.3671  -14.3657   25.5128 C   0  0  0  0  0  0  0  0  0  0  0  0
    6.0378  -13.4671   26.5072 C   0  0  0  0  0  0  0  0  0  0  0  0
    6.4792  -12.1609   26.4655 C   0  0  0  0  0  0  0  0  0  0  0  0
    7.2641  -11.7487   25.4089 C   0  0  0  0  0  0  0  0  0  0  0  0
    7.5819  -12.6678   24.4227 C   0  0  0  0  0  0  0  0  0  0  0  0
    9.2534  -16.1752   24.6517 O   0  0  0  0  0  0  0  0  0  0  0  0
    9.0082  -17.4264   24.7622 C   0  0  0  0  0  0  0  0  0  0  0  0
   10.4158  -13.7303   29.7182 C   0  0  0  0  0  0  0  0  0  0  0  0
    9.8290  -14.6308   28.6583 C   0  0  2  0  0  0  0  0  0  0  0  0
   10.9220  -15.4069   27.9749 C   0  0  0  0  0  0  0  0  0  0  0  0
   11.8491  -14.3947   27.3171 C   0  0  1  0  0  0  0  0  0  0  0  0
   10.3738  -16.3307   26.9014 N   0  0  0  0  0  0  0  0  0  0  0  0
    9.8926  -15.5813   25.7654 C   0  0  0  0  0  0  0  0  0  0  0  0
    9.4655  -17.3406   27.4368 O   0  0  0  0  0  0  0  0  0  0  0  0
    8.2568  -17.3280   27.1205 O   0  0  0  0  0  0  0  0  0  0  0  0
  1  2  1  0
  2  3  2  0
  4  2  1  0
  4  5  1  0
  6  5  1  0
  7  6  1  0
  8  9  1  6
  8  7  1  0
 10 11  2  0
 10  8  1  0
 12 10  1  0
 13 21  1  0
 13 12  1  0
 13 14  1  6
 15 14  1  0
 16 15  2  0
 17 16  1  0
 18 19  1  0
 18 17  2  0
 19 20  2  0
 20 15  1  0
 21 28  1  0
 22 21  2  0
 23 24  1  0
 24 25  1  0
 25 26  1  1
 25 27  1  0
 27 29  1  0
 27 28  1  6
 29 30  2  0
 29 31  1  0
M  END
$$$$
