RFI.pdb
     RDKit          3D

 31 31  0  0  1  0  0  0  0  0999 V2000
   14.9805  -20.3089   19.0211 N   0  0  0  0  0  0  0  0  0  0  0  0
   14.2028  -21.2300   19.7769 C   0  0  0  0  0  0  0  0  0  0  0  0
   14.3659  -22.5095   19.6411 N   0  0  0  0  0  0  0  0  0  0  0  0
   13.2488  -20.6752   20.6777 N   0  0  0  0  0  0  0  0  0  0  0  0
   12.8449  -19.2769   20.5335 C   0  0  0  0  0  0  0  0  0  0  0  0
   11.5211  -19.1664   19.8305 C   0  0  0  0  0  0  0  0  0  0  0  0
   10.4586  -18.5292   20.6410 C   0  0  0  0  0  0  0  0  0  0  0  0
   10.1510  -17.1195   20.2822 C   0  0  2  0  0  0  0  0  0  0  0  0
   11.0145  -16.4827   19.3491 N   0  0  0  0  0  0  0  0  0  0  0  0
   10.0069  -16.3230   21.5481 C   0  0  0  0  0  0  0  0  0  0  0  0
   10.9467  -15.5754   21.9252 O   0  0  0  0  0  0  0  0  0  0  0  0
   13.7984  -23.1837   20.1963 N   0  0  0  0  0  0  0  0  0  0  0  0
    8.8573  -16.3550   22.3696 C   0  0  1  0  0  0  0  0  0  0  0  0
    8.6616  -15.4358   23.4988 C   0  0  0  0  0  0  0  0  0  0  0  0
    7.3072  -14.8388   23.4989 C   0  0  0  0  0  0  0  0  0  0  0  0
    6.9571  -13.9765   24.6236 C   0  0  0  0  0  0  0  0  0  0  0  0
    6.1822  -14.4242   25.6839 C   0  0  0  0  0  0  0  0  0  0  0  0
    5.8580  -13.5766   26.7237 C   0  0  0  0  0  0  0  0  0  0  0  0
    6.2913  -12.2671   26.7405 C   0  0  0  0  0  0  0  0  0  0  0  0
    7.0628  -11.7996   25.6972 C   0  0  0  0  0  0  0  0  0  0  0  0
    7.3758  -12.6682   24.6647 C   0  0  0  0  0  0  0  0  0  0  0  0
    9.1180  -16.0666   24.7478 O   0  0  0  0  0  0  0  0  0  0  0  0
    8.8544  -17.3054   24.9308 C   0  0  0  0  0  0  0  0  0  0  0  0
    9.7750  -13.5864   29.7986 C   0  0  0  0  0  0  0  0  0  0  0  0
    9.3974  -14.5058   28.6625 C   0  0  2  0  0  0  0  0  0  0  0  0
   10.6291  -15.1487   28.0851 C   0  0  0  0  0  0  0  0  0  0  0  0
   11.4870  -14.0348   27.5020 C   0  0  1  0  0  0  0  0  0  0  0  0
   10.2889  -16.1290   26.9762 N   0  0  0  0  0  0  0  0  0  0  0  0
    9.8387  -15.4388   25.7910 C   0  0  0  0  0  0  0  0  0  0  0  0
    9.4494  -17.2313   27.4362 O   0  0  0  0  0  0  0  0  0  0  0  0
    9.8874  -18.0444   28.2778 O   0  0  0  0  0  0  0  0  0  0  0  0
  1  2  1  0
  2  3  2  0
  4  2  1  0
  4  5  1  0
  6  5  1  0
  7  6  1  0
  8  9  1  6
  8  7  1  0
 10 11  2  0
 10  8  1  0
 12 10  1  0
 13 21  1  0
 13 12  1  0
 13 14  1  1
 15 14  1  0
 16 15  2  0
 17 16  1  0
 18 19  1  0
 18 17  2  0
 19 20  2  0
 20 15  1  0
 21 28  1  0
 22 21  2  0
 23 24  1  0
 24 25  1  0
 25 26  1  1
 25 27  1  0
 27 29  1  0
 27 28  1  6
 29 30  2  0
 29 31  1  0
M  END
$$$$
