RFI.pdb
     RDKit          3D

 31 31  0  0  1  0  0  0  0  0999 V2000
    9.2798  -13.1286   14.8289 N   0  0  0  0  0  0  0  0  0  0  0  0
    8.4936  -14.2452   15.2283 C   0  0  0  0  0  0  0  0  0  0  0  0
    7.1981  -14.1970   15.1893 N   0  0  0  0  0  0  0  0  0  0  0  0
    9.1997  -15.4019   15.6673 N   0  0  0  0  0  0  0  0  0  0  0  0
    9.8696  -15.3910   16.9675 C   0  0  0  0  0  0  0  0  0  0  0  0
    8.8717  -15.3199   18.0891 C   0  0  0  0  0  0  0  0  0  0  0  0
    8.5464  -16.6325   18.6917 C   0  0  0  0  0  0  0  0  0  0  0  0
    9.5370  -17.1363   19.6793 C   0  0  2  0  0  0  0  0  0  0  0  0
    9.4819  -18.5185   20.0084 N   0  0  0  0  0  0  0  0  0  0  0  0
    9.4802  -16.2653   20.9024 C   0  0  0  0  0  0  0  0  0  0  0  0
   10.1020  -15.1710   20.9184 O   0  0  0  0  0  0  0  0  0  0  0  0
    6.6264  -15.0608   15.2985 N   0  0  0  0  0  0  0  0  0  0  0  0
    8.7573  -16.5976   22.0704 C   0  0  1  0  0  0  0  0  0  0  0  0
    8.6106  -15.6746   23.2039 C   0  0  0  0  0  0  0  0  0  0  0  0
    7.2185  -15.1935   23.3501 C   0  0  0  0  0  0  0  0  0  0  0  0
    6.9744  -14.1431   24.3340 C   0  0  0  0  0  0  0  0  0  0  0  0
    7.3030  -12.8165   24.0946 C   0  0  0  0  0  0  0  0  0  0  0  0
    7.0717  -11.8516   25.0539 C   0  0  0  0  0  0  0  0  0  0  0  0
    6.5105  -12.1744   26.2720 C   0  0  0  0  0  0  0  0  0  0  0  0
    6.1755  -13.4867   26.5326 C   0  0  0  0  0  0  0  0  0  0  0  0
    6.4167  -14.4378   25.5550 C   0  0  0  0  0  0  0  0  0  0  0  0
    9.2559  -16.2383   24.4006 O   0  0  0  0  0  0  0  0  0  0  0  0
    9.2097  -17.5057   24.5718 C   0  0  0  0  0  0  0  0  0  0  0  0
   10.4009  -13.7608   29.5566 C   0  0  0  0  0  0  0  0  0  0  0  0
   10.0016  -14.9171   28.6722 C   0  0  2  0  0  0  0  0  0  0  0  0
   11.0042  -15.0919   27.5640 C   0  0  0  0  0  0  0  0  0  0  0  0
   11.1290  -13.7512   26.8543 C   0  0  1  0  0  0  0  0  0  0  0  0
   10.5559  -16.1343   26.5546 N   0  0  0  0  0  0  0  0  0  0  0  0
    9.9433  -15.5150   25.4035 C   0  0  0  0  0  0  0  0  0  0  0  0
    9.8106  -17.2294   27.1684 O   0  0  0  0  0  0  0  0  0  0  0  0
    8.5731  -17.3096   27.0147 O   0  0  0  0  0  0  0  0  0  0  0  0
  1  2  1  0
  2  3  2  0
  4  2  1  0
  4  5  1  0
  6  5  1  0
  7  6  1  0
  8  9  1  1
  8  7  1  0
 10 11  2  0
 10  8  1  0
 12 10  1  0
 13 21  1  0
 13 12  1  0
 13 14  1  6
 15 14  1  0
 16 15  2  0
 17 16  1  0
 18 19  1  0
 18 17  2  0
 19 20  2  0
 20 15  1  0
 21 28  1  0
 22 21  2  0
 23 24  1  0
 24 25  1  0
 25 26  1  1
 25 27  1  0
 27 29  1  0
 27 28  1  6
 29 30  2  0
 29 31  1  0
M  END
$$$$
