GGN.pdb
     RDKit          3D

 17 16  0  0  1  0  0  0  0  0999 V2000
   25.6156  -24.9522  -15.6054 N   0  0  0  0  0  0  0  0  0  0  0  0
   25.1256  -23.5918  -15.7200 C   0  0  0  0  0  0  0  0  0  0  0  0
   24.5149  -23.2167  -14.3897 C   0  0  0  0  0  0  0  0  0  0  0  0
   23.6379  -23.9299  -13.8327 O   0  0  0  0  0  0  0  0  0  0  0  0
   24.9100  -22.0349  -13.7119 N   0  0  0  0  0  0  0  0  0  0  0  0
   24.3883  -21.6108  -12.4427 C   0  0  0  0  0  0  0  0  0  0  0  0
   23.0572  -20.9610  -12.5777 C   0  0  0  0  0  0  0  0  0  0  0  0
   22.5353  -20.4202  -11.5695 O   0  0  0  0  0  0  0  0  0  0  0  0
   22.7345  -18.1793  -16.2652 N   0  0  0  0  0  0  0  0  0  0  0  0
   21.6234  -18.3725  -15.4131 C   0  0  0  0  0  0  0  0  0  0  0  0
   21.1808  -17.4186  -14.7518 O   0  0  0  0  0  0  0  0  0  0  0  0
   20.9938  -19.6937  -15.3108 C   0  0  0  0  0  0  0  0  0  0  0  0
   21.0332  -20.3023  -13.9316 C   0  0  2  0  0  0  0  0  0  0  0  0
   22.3498  -20.9278  -13.8079 N   0  0  0  0  0  0  0  0  0  0  0  0
   19.9486  -21.2670  -13.6673 C   0  0  0  0  0  0  0  0  0  0  0  0
   18.6731  -20.8776  -13.2971 O   0  0  0  0  0  0  0  0  0  0  0  0
   20.2129  -22.4988  -13.7877 O   0  0  0  0  0  0  0  0  0  0  0  0
  1  2  1  0
  3  5  1  0
  3  2  1  0
  4  3  2  0
  6  5  1  0
  7  6  1  0
  8  7  2  0
  9 10  1  0
 10 12  1  0
 11 10  2  0
 13 12  1  6
 13 15  1  0
 13 14  1  0
 14  7  1  0
 15 16  1  0
 17 15  2  0
M  END
$$$$
