GGN.pdb
     RDKit          3D

 17 16  0  0  1  0  0  0  0  0999 V2000
   27.2630  -17.9225  -17.8347 N   0  0  0  0  0  0  0  0  0  0  0  0
   26.9850  -17.7991  -16.4164 C   0  0  0  0  0  0  0  0  0  0  0  0
   27.5308  -19.0344  -15.7386 C   0  0  0  0  0  0  0  0  0  0  0  0
   27.4435  -20.1773  -16.2624 O   0  0  0  0  0  0  0  0  0  0  0  0
   28.1678  -18.9524  -14.4738 N   0  0  0  0  0  0  0  0  0  0  0  0
   28.7159  -20.0740  -13.7637 C   0  0  0  0  0  0  0  0  0  0  0  0
   27.6799  -20.7933  -12.9753 C   0  0  0  0  0  0  0  0  0  0  0  0
   28.0342  -21.7140  -12.1955 O   0  0  0  0  0  0  0  0  0  0  0  0
   25.1089  -21.6643   -8.7225 N   0  0  0  0  0  0  0  0  0  0  0  0
   24.7694  -20.6853   -9.6841 C   0  0  0  0  0  0  0  0  0  0  0  0
   23.6845  -20.0864   -9.5970 O   0  0  0  0  0  0  0  0  0  0  0  0
   25.6947  -20.3762  -10.7798 C   0  0  0  0  0  0  0  0  0  0  0  0
   25.3184  -20.9820  -12.1085 C   0  0  2  0  0  0  0  0  0  0  0  0
   26.2991  -20.4781  -13.0699 N   0  0  0  0  0  0  0  0  0  0  0  0
   23.9382  -20.6852  -12.5371 C   0  0  0  0  0  0  0  0  0  0  0  0
   22.8652  -21.5027  -12.2272 O   0  0  0  0  0  0  0  0  0  0  0  0
   23.7448  -19.6353  -13.2167 O   0  0  0  0  0  0  0  0  0  0  0  0
  1  2  1  0
  3  5  1  0
  3  2  1  0
  4  3  2  0
  6  5  1  0
  7  6  1  0
  8  7  2  0
  9 10  1  0
 10 12  1  0
 11 10  2  0
 13 12  1  1
 13 15  1  0
 13 14  1  0
 14  7  1  0
 15 16  1  0
 17 15  2  0
M  END
$$$$
