GGN.pdb
     RDKit          3D

 17 16  0  0  1  0  0  0  0  0999 V2000
   21.2170  -18.9258  -15.4856 N   0  0  0  0  0  0  0  0  0  0  0  0
   20.6419  -17.6137  -15.2583 C   0  0  0  0  0  0  0  0  0  0  0  0
   21.6264  -16.5915  -15.7769 C   0  0  0  0  0  0  0  0  0  0  0  0
   22.6904  -16.9266  -16.3631 O   0  0  0  0  0  0  0  0  0  0  0  0
   21.3870  -15.2020  -15.6208 N   0  0  0  0  0  0  0  0  0  0  0  0
   22.2334  -14.1660  -16.1433 C   0  0  0  0  0  0  0  0  0  0  0  0
   21.6871  -12.8101  -15.8686 C   0  0  0  0  0  0  0  0  0  0  0  0
   20.4759  -12.6913  -15.5518 O   0  0  0  0  0  0  0  0  0  0  0  0
   24.1438  -10.8028  -13.2790 N   0  0  0  0  0  0  0  0  0  0  0  0
   23.1179   -9.8995  -13.6392 C   0  0  0  0  0  0  0  0  0  0  0  0
   22.3624   -9.4444  -12.7643 O   0  0  0  0  0  0  0  0  0  0  0  0
   22.9464   -9.4994  -15.0403 C   0  0  0  0  0  0  0  0  0  0  0  0
   21.9179  -10.2991  -15.7997 C   0  0  2  0  0  0  0  0  0  0  0  0
   22.4850  -11.6390  -15.9508 N   0  0  0  0  0  0  0  0  0  0  0  0
   21.5458   -9.7185  -17.1040 C   0  0  0  0  0  0  0  0  0  0  0  0
   21.8947  -10.3006  -18.3103 O   0  0  0  0  0  0  0  0  0  0  0  0
   20.8803   -8.6421  -17.1018 O   0  0  0  0  0  0  0  0  0  0  0  0
  1  2  1  0
  3  5  1  0
  3  2  1  0
  4  3  2  0
  6  5  1  0
  7  6  1  0
  8  7  2  0
  9 10  1  0
 10 12  1  0
 11 10  2  0
 13 12  1  6
 13 15  1  0
 13 14  1  0
 14  7  1  0
 15 16  1  0
 17 15  2  0
M  END
$$$$
