GGN.pdb
     RDKit          3D

 17 16  0  0  1  0  0  0  0  0999 V2000
   26.9518  -18.8454  -14.0163 N   0  0  0  0  0  0  0  0  0  0  0  0
   26.9923  -18.1644  -15.2964 C   0  0  0  0  0  0  0  0  0  0  0  0
   26.7929  -16.6901  -15.0319 C   0  0  0  0  0  0  0  0  0  0  0  0
   27.3432  -16.1056  -14.0604 O   0  0  0  0  0  0  0  0  0  0  0  0
   25.9698  -15.9014  -15.8760 N   0  0  0  0  0  0  0  0  0  0  0  0
   25.9003  -14.4673  -15.8369 C   0  0  0  0  0  0  0  0  0  0  0  0
   24.9724  -13.9273  -16.8663 C   0  0  0  0  0  0  0  0  0  0  0  0
   24.8563  -14.5319  -17.9628 O   0  0  0  0  0  0  0  0  0  0  0  0
   21.1371  -11.9354  -19.4742 N   0  0  0  0  0  0  0  0  0  0  0  0
   20.9545  -12.8957  -18.4531 C   0  0  0  0  0  0  0  0  0  0  0  0
   19.8935  -13.5392  -18.3951 O   0  0  0  0  0  0  0  0  0  0  0  0
   22.0140  -13.1332  -17.4664 C   0  0  0  0  0  0  0  0  0  0  0  0
   23.2367  -12.2675  -17.6381 C   0  0  2  0  0  0  0  0  0  0  0  0
   24.2088  -12.7491  -16.6568 N   0  0  0  0  0  0  0  0  0  0  0  0
   22.9795  -10.8231  -17.4814 C   0  0  0  0  0  0  0  0  0  0  0  0
   22.7376   -9.9842  -18.5554 O   0  0  0  0  0  0  0  0  0  0  0  0
   22.9848  -10.3472  -16.3088 O   0  0  0  0  0  0  0  0  0  0  0  0
  1  2  1  0
  3  5  1  0
  3  2  1  0
  4  3  2  0
  6  5  1  0
  7  6  1  0
  8  7  2  0
  9 10  1  0
 10 12  1  0
 11 10  2  0
 13 12  1  1
 13 15  1  0
 13 14  1  0
 14  7  1  0
 15 16  1  0
 17 15  2  0
M  END
$$$$
