GGN.pdb
     RDKit          3D

 17 16  0  0  1  0  0  0  0  0999 V2000
   26.6946  -25.2400  -16.7058 N   0  0  0  0  0  0  0  0  0  0  0  0
   25.4494  -24.5138  -16.5446 C   0  0  0  0  0  0  0  0  0  0  0  0
   25.5053  -23.8096  -15.2089 C   0  0  0  0  0  0  0  0  0  0  0  0
   25.6577  -24.4391  -14.1279 O   0  0  0  0  0  0  0  0  0  0  0  0
   25.3864  -22.3987  -15.1215 N   0  0  0  0  0  0  0  0  0  0  0  0
   25.4704  -21.6484  -13.8997 C   0  0  0  0  0  0  0  0  0  0  0  0
   24.1592  -21.0596  -13.5173 C   0  0  0  0  0  0  0  0  0  0  0  0
   24.0804  -20.3714  -12.4678 O   0  0  0  0  0  0  0  0  0  0  0  0
   18.5046  -20.3888  -15.6180 N   0  0  0  0  0  0  0  0  0  0  0  0
   19.6039  -19.8283  -14.9284 C   0  0  0  0  0  0  0  0  0  0  0  0
   19.4217  -18.8826  -14.1437 O   0  0  0  0  0  0  0  0  0  0  0  0
   20.9546  -20.3616  -15.1370 C   0  0  0  0  0  0  0  0  0  0  0  0
   21.6822  -20.7395  -13.8714 C   0  0  2  0  0  0  0  0  0  0  0  0
   22.9873  -21.2457  -14.2963 N   0  0  0  0  0  0  0  0  0  0  0  0
   20.9666  -21.7221  -13.0352 C   0  0  0  0  0  0  0  0  0  0  0  0
   21.2573  -23.0752  -13.0543 O   0  0  0  0  0  0  0  0  0  0  0  0
   20.0505  -21.2930  -12.2748 O   0  0  0  0  0  0  0  0  0  0  0  0
  1  2  1  0
  3  5  1  0
  3  2  1  0
  4  3  2  0
  6  5  1  0
  7  6  1  0
  8  7  2  0
  9 10  1  0
 10 12  1  0
 11 10  2  0
 13 12  1  6
 13 15  1  0
 13 14  1  0
 14  7  1  0
 15 16  1  0
 17 15  2  0
M  END
$$$$
