GGN.pdb
     RDKit          3D

 17 16  0  0  1  0  0  0  0  0999 V2000
   12.9825   -9.5479   -7.6176 N   0  0  0  0  0  0  0  0  0  0  0  0
   14.3652   -9.1115   -7.6581 C   0  0  0  0  0  0  0  0  0  0  0  0
   14.4967   -8.1281   -8.7978 C   0  0  0  0  0  0  0  0  0  0  0  0
   13.5039   -7.7628   -9.4825 O   0  0  0  0  0  0  0  0  0  0  0  0
   15.7563   -7.5743   -9.1430 N   0  0  0  0  0  0  0  0  0  0  0  0
   15.9604   -6.5942  -10.1729 C   0  0  0  0  0  0  0  0  0  0  0  0
   17.4048   -6.3390  -10.4193 C   0  0  0  0  0  0  0  0  0  0  0  0
   18.2357   -6.6007   -9.5124 O   0  0  0  0  0  0  0  0  0  0  0  0
   22.0402   -5.7633  -12.5304 N   0  0  0  0  0  0  0  0  0  0  0  0
   21.3498   -6.9793  -12.3229 C   0  0  0  0  0  0  0  0  0  0  0  0
   21.9533   -8.0585  -12.4423 O   0  0  0  0  0  0  0  0  0  0  0  0
   19.9267   -6.9675  -11.9664 C   0  0  0  0  0  0  0  0  0  0  0  0
   19.3087   -5.5938  -11.8969 C   0  0  2  0  0  0  0  0  0  0  0  0
   17.8836   -5.8086  -11.6458 N   0  0  0  0  0  0  0  0  0  0  0  0
   19.5281   -4.7724  -13.1028 C   0  0  0  0  0  0  0  0  0  0  0  0
   18.5497   -4.5720  -14.0611 O   0  0  0  0  0  0  0  0  0  0  0  0
   20.6647   -4.2365  -13.2522 O   0  0  0  0  0  0  0  0  0  0  0  0
  1  2  1  0
  3  5  1  0
  3  2  1  0
  4  3  2  0
  6  5  1  0
  7  6  1  0
  8  7  2  0
  9 10  1  0
 10 12  1  0
 11 10  2  0
 13 12  1  6
 13 15  1  0
 13 14  1  0
 14  7  1  0
 15 16  1  0
 17 15  2  0
M  END
$$$$
