GGN.pdb
     RDKit          3D

 17 16  0  0  1  0  0  0  0  0999 V2000
   21.4469  -17.9601  -15.4765 N   0  0  0  0  0  0  0  0  0  0  0  0
   21.5277  -16.5132  -15.4141 C   0  0  0  0  0  0  0  0  0  0  0  0
   20.9872  -15.9726  -16.7175 C   0  0  0  0  0  0  0  0  0  0  0  0
   19.7897  -16.1490  -17.0682 O   0  0  0  0  0  0  0  0  0  0  0  0
   21.8169  -15.2392  -17.6041 N   0  0  0  0  0  0  0  0  0  0  0  0
   21.3758  -14.6639  -18.8440 C   0  0  0  0  0  0  0  0  0  0  0  0
   20.8158  -13.2989  -18.6556 C   0  0  0  0  0  0  0  0  0  0  0  0
   20.4518  -12.6424  -19.6645 O   0  0  0  0  0  0  0  0  0  0  0  0
   17.5082   -9.6281  -16.2770 N   0  0  0  0  0  0  0  0  0  0  0  0
   18.6107  -10.1803  -15.5859 C   0  0  0  0  0  0  0  0  0  0  0  0
   19.0918   -9.5779  -14.6118 O   0  0  0  0  0  0  0  0  0  0  0  0
   19.1842  -11.4605  -16.0157 C   0  0  0  0  0  0  0  0  0  0  0  0
   20.1213  -11.3644  -17.1932 C   0  0  2  0  0  0  0  0  0  0  0  0
   20.6759  -12.7060  -17.3735 N   0  0  0  0  0  0  0  0  0  0  0  0
   21.1860  -10.3552  -17.0354 C   0  0  0  0  0  0  0  0  0  0  0  0
   22.5254  -10.6887  -16.9336 O   0  0  0  0  0  0  0  0  0  0  0  0
   20.8427   -9.1379  -16.9922 O   0  0  0  0  0  0  0  0  0  0  0  0
  1  2  1  0
  3  5  1  0
  3  2  1  0
  4  3  2  0
  6  5  1  0
  7  6  1  0
  8  7  2  0
  9 10  1  0
 10 12  1  0
 11 10  2  0
 13 12  1  1
 13 15  1  0
 13 14  1  0
 14  7  1  0
 15 16  1  0
 17 15  2  0
M  END
$$$$
