GGN.pdb
     RDKit          3D

 17 16  0  0  1  0  0  0  0  0999 V2000
   25.9005  -24.4237  -15.6816 N   0  0  0  0  0  0  0  0  0  0  0  0
   25.1783  -23.1830  -15.8886 C   0  0  0  0  0  0  0  0  0  0  0  0
   24.5435  -22.8029  -14.5711 C   0  0  0  0  0  0  0  0  0  0  0  0
   23.6096  -23.4776  -14.0606 O   0  0  0  0  0  0  0  0  0  0  0  0
   24.9798  -21.6601  -13.8529 N   0  0  0  0  0  0  0  0  0  0  0  0
   24.4426  -21.2380  -12.5895 C   0  0  0  0  0  0  0  0  0  0  0  0
   23.0844  -20.6488  -12.7317 C   0  0  0  0  0  0  0  0  0  0  0  0
   22.5080  -20.1876  -11.7136 O   0  0  0  0  0  0  0  0  0  0  0  0
   20.1117  -17.3935  -14.1035 N   0  0  0  0  0  0  0  0  0  0  0  0
   20.5688  -17.9130  -15.3361 C   0  0  0  0  0  0  0  0  0  0  0  0
   20.5724  -17.1898  -16.3462 O   0  0  0  0  0  0  0  0  0  0  0  0
   21.0388  -19.3001  -15.4227 C   0  0  0  0  0  0  0  0  0  0  0  0
   21.0604  -20.0384  -14.1080 C   0  0  2  0  0  0  0  0  0  0  0  0
   22.4105  -20.5868  -13.9795 N   0  0  0  0  0  0  0  0  0  0  0  0
   20.0346  -21.0925  -13.9917 C   0  0  0  0  0  0  0  0  0  0  0  0
   20.3006  -22.4277  -14.2414 O   0  0  0  0  0  0  0  0  0  0  0  0
   18.8673  -20.7439  -13.6492 O   0  0  0  0  0  0  0  0  0  0  0  0
  1  2  1  0
  3  5  1  0
  3  2  1  0
  4  3  2  0
  6  5  1  0
  7  6  1  0
  8  7  2  0
  9 10  1  0
 10 12  1  0
 11 10  2  0
 13 12  1  6
 13 15  1  0
 13 14  1  0
 14  7  1  0
 15 16  1  0
 17 15  2  0
M  END
$$$$
