GGN.pdb
     RDKit          3D

 17 16  0  0  1  0  0  0  0  0999 V2000
   15.6205  -14.8125  -14.7807 N   0  0  0  0  0  0  0  0  0  0  0  0
   15.2217  -13.4316  -14.9756 C   0  0  0  0  0  0  0  0  0  0  0  0
   16.3124  -12.7531  -15.7713 C   0  0  0  0  0  0  0  0  0  0  0  0
   16.8122  -13.2782  -16.8021 O   0  0  0  0  0  0  0  0  0  0  0  0
   16.8200  -11.4867  -15.3827 N   0  0  0  0  0  0  0  0  0  0  0  0
   17.7866  -10.7323  -16.1307 C   0  0  0  0  0  0  0  0  0  0  0  0
   18.1037   -9.4335  -15.4788 C   0  0  0  0  0  0  0  0  0  0  0  0
   17.3804   -9.0317  -14.5318 O   0  0  0  0  0  0  0  0  0  0  0  0
   20.6022   -5.2153  -13.7752 N   0  0  0  0  0  0  0  0  0  0  0  0
   21.4654   -6.2922  -14.0805 C   0  0  0  0  0  0  0  0  0  0  0  0
   22.6561   -6.2460  -13.7295 O   0  0  0  0  0  0  0  0  0  0  0  0
   20.9574   -7.4608  -14.8077 C   0  0  0  0  0  0  0  0  0  0  0  0
   19.5143   -7.3568  -15.2327 C   0  0  2  0  0  0  0  0  0  0  0  0
   19.1976   -8.6262  -15.8870 N   0  0  0  0  0  0  0  0  0  0  0  0
   19.2263   -6.2078  -16.1123 C   0  0  0  0  0  0  0  0  0  0  0  0
   18.8432   -4.9697  -15.6263 O   0  0  0  0  0  0  0  0  0  0  0  0
   19.3381   -6.3788  -17.3611 O   0  0  0  0  0  0  0  0  0  0  0  0
  1  2  1  0
  3  5  1  0
  3  2  1  0
  4  3  2  0
  6  5  1  0
  7  6  1  0
  8  7  2  0
  9 10  1  0
 10 12  1  0
 11 10  2  0
 13 12  1  6
 13 15  1  0
 13 14  1  0
 14  7  1  0
 15 16  1  0
 17 15  2  0
M  END
$$$$
