GGN.pdb
     RDKit          3D

 17 16  0  0  1  0  0  0  0  0999 V2000
   27.1700  -20.5583  -19.1795 N   0  0  0  0  0  0  0  0  0  0  0  0
   28.1106  -20.6417  -18.0785 C   0  0  0  0  0  0  0  0  0  0  0  0
   27.4655  -19.9843  -16.8806 C   0  0  0  0  0  0  0  0  0  0  0  0
   26.2156  -19.9683  -16.7202 O   0  0  0  0  0  0  0  0  0  0  0  0
   28.2513  -19.3538  -15.8820 N   0  0  0  0  0  0  0  0  0  0  0  0
   27.7266  -18.7808  -14.6740 C   0  0  0  0  0  0  0  0  0  0  0  0
   27.2521  -19.8229  -13.7246 C   0  0  0  0  0  0  0  0  0  0  0  0
   28.0678  -20.6805  -13.2999 O   0  0  0  0  0  0  0  0  0  0  0  0
   25.0948  -21.8123   -9.5752 N   0  0  0  0  0  0  0  0  0  0  0  0
   25.9684  -20.7033   -9.6463 C   0  0  0  0  0  0  0  0  0  0  0  0
   26.5056  -20.2748   -8.6114 O   0  0  0  0  0  0  0  0  0  0  0  0
   26.2411  -20.0613  -10.9370 C   0  0  0  0  0  0  0  0  0  0  0  0
   25.5117  -20.6709  -12.1075 C   0  0  2  0  0  0  0  0  0  0  0  0
   25.9064  -19.8863  -13.2774 N   0  0  0  0  0  0  0  0  0  0  0  0
   24.0451  -20.7083  -11.9506 C   0  0  0  0  0  0  0  0  0  0  0  0
   23.3830  -21.7620  -11.3446 O   0  0  0  0  0  0  0  0  0  0  0  0
   23.3794  -19.7282  -12.3952 O   0  0  0  0  0  0  0  0  0  0  0  0
  1  2  1  0
  3  5  1  0
  3  2  1  0
  4  3  2  0
  6  5  1  0
  7  6  1  0
  8  7  2  0
  9 10  1  0
 10 12  1  0
 11 10  2  0
 13 12  1  1
 13 15  1  0
 13 14  1  0
 14  7  1  0
 15 16  1  0
 17 15  2  0
M  END
$$$$
