GGN.pdb
     RDKit          3D

 17 16  0  0  1  0  0  0  0  0999 V2000
   28.6573  -22.6624  -16.5312 N   0  0  0  0  0  0  0  0  0  0  0  0
   28.4859  -21.2744  -16.9161 C   0  0  0  0  0  0  0  0  0  0  0  0
   27.0009  -21.0037  -16.9861 C   0  0  0  0  0  0  0  0  0  0  0  0
   26.2024  -21.8014  -17.5465 O   0  0  0  0  0  0  0  0  0  0  0  0
   26.4452  -19.8287  -16.4180 N   0  0  0  0  0  0  0  0  0  0  0  0
   25.0398  -19.5378  -16.3609 C   0  0  0  0  0  0  0  0  0  0  0  0
   24.3464  -20.3458  -15.3224 C   0  0  0  0  0  0  0  0  0  0  0  0
   24.0854  -21.5529  -15.5597 O   0  0  0  0  0  0  0  0  0  0  0  0
   25.4909  -21.6247  -10.3297 N   0  0  0  0  0  0  0  0  0  0  0  0
   24.1905  -21.2531  -10.7406 C   0  0  0  0  0  0  0  0  0  0  0  0
   23.2031  -21.8357  -10.2621 O   0  0  0  0  0  0  0  0  0  0  0  0
   24.0067  -20.1829  -11.7272 C   0  0  0  0  0  0  0  0  0  0  0  0
   23.3608  -20.6225  -13.0169 C   0  0  2  0  0  0  0  0  0  0  0  0
   23.9662  -19.8035  -14.0669 N   0  0  0  0  0  0  0  0  0  0  0  0
   21.8897  -20.5102  -13.0232 C   0  0  0  0  0  0  0  0  0  0  0  0
   21.2304  -19.3158  -13.2570 O   0  0  0  0  0  0  0  0  0  0  0  0
   21.2174  -21.5594  -12.8028 O   0  0  0  0  0  0  0  0  0  0  0  0
  1  2  1  0
  3  5  1  0
  3  2  1  0
  4  3  2  0
  6  5  1  0
  7  6  1  0
  8  7  2  0
  9 10  1  0
 10 12  1  0
 11 10  2  0
 13 12  1  1
 13 15  1  0
 13 14  1  0
 14  7  1  0
 15 16  1  0
 17 15  2  0
M  END
$$$$
