GGN.pdb
     RDKit          3D

 17 16  0  0  1  0  0  0  0  0999 V2000
   28.2146  -20.5783  -18.1515 N   0  0  0  0  0  0  0  0  0  0  0  0
   28.3704  -19.5908  -17.1005 C   0  0  0  0  0  0  0  0  0  0  0  0
   27.5528  -20.0551  -15.9176 C   0  0  0  0  0  0  0  0  0  0  0  0
   28.0895  -20.5118  -14.8729 O   0  0  0  0  0  0  0  0  0  0  0  0
   26.1358  -19.9940  -15.9400 N   0  0  0  0  0  0  0  0  0  0  0  0
   25.2716  -21.1407  -15.9763 C   0  0  0  0  0  0  0  0  0  0  0  0
   24.8654  -21.5742  -14.6127 C   0  0  0  0  0  0  0  0  0  0  0  0
   24.0305  -22.5066  -14.4907 O   0  0  0  0  0  0  0  0  0  0  0  0
   25.7003  -19.9782   -8.7578 N   0  0  0  0  0  0  0  0  0  0  0  0
   25.5529  -21.0033   -9.7198 C   0  0  0  0  0  0  0  0  0  0  0  0
   25.1515  -22.1251   -9.3682 O   0  0  0  0  0  0  0  0  0  0  0  0
   25.8712  -20.7439  -11.1283 C   0  0  0  0  0  0  0  0  0  0  0  0
   24.8530  -21.2692  -12.1087 C   0  0  2  0  0  0  0  0  0  0  0  0
   25.3873  -20.9725  -13.4378 N   0  0  0  0  0  0  0  0  0  0  0  0
   23.5000  -20.7079  -11.9315 C   0  0  0  0  0  0  0  0  0  0  0  0
   23.1571  -19.4332  -12.3480 O   0  0  0  0  0  0  0  0  0  0  0  0
   22.6286  -21.4354  -11.3723 O   0  0  0  0  0  0  0  0  0  0  0  0
  1  2  1  0
  3  5  1  0
  3  2  1  0
  4  3  2  0
  6  5  1  0
  7  6  1  0
  8  7  2  0
  9 10  1  0
 10 12  1  0
 11 10  2  0
 13 12  1  1
 13 15  1  0
 13 14  1  0
 14  7  1  0
 15 16  1  0
 17 15  2  0
M  END
$$$$
