GGN.pdb
     RDKit          3D

 17 16  0  0  1  0  0  0  0  0999 V2000
   19.1731  -21.8453  -14.1049 N   0  0  0  0  0  0  0  0  0  0  0  0
   19.5375  -20.4421  -14.0603 C   0  0  0  0  0  0  0  0  0  0  0  0
   20.8556  -20.2930  -14.7839 C   0  0  0  0  0  0  0  0  0  0  0  0
   21.4065  -21.2605  -15.3741 O   0  0  0  0  0  0  0  0  0  0  0  0
   21.5289  -19.0451  -14.8255 N   0  0  0  0  0  0  0  0  0  0  0  0
   22.7369  -18.7956  -15.5614 C   0  0  0  0  0  0  0  0  0  0  0  0
   23.1916  -17.3863  -15.4225 C   0  0  0  0  0  0  0  0  0  0  0  0
   22.4408  -16.5547  -14.8514 O   0  0  0  0  0  0  0  0  0  0  0  0
   26.3221  -13.1602  -15.4336 N   0  0  0  0  0  0  0  0  0  0  0  0
   27.0322  -14.2665  -15.9532 C   0  0  0  0  0  0  0  0  0  0  0  0
   28.2351  -14.1470  -16.2398 O   0  0  0  0  0  0  0  0  0  0  0  0
   26.3525  -15.5513  -16.1522 C   0  0  0  0  0  0  0  0  0  0  0  0
   24.8961  -15.5578  -15.7614 C   0  0  2  0  0  0  0  0  0  0  0  0
   24.4476  -16.9420  -15.9125 N   0  0  0  0  0  0  0  0  0  0  0  0
   24.0581  -14.6288  -16.5434 C   0  0  0  0  0  0  0  0  0  0  0  0
   23.6897  -13.3787  -16.0772 O   0  0  0  0  0  0  0  0  0  0  0  0
   23.6673  -15.0069  -17.6861 O   0  0  0  0  0  0  0  0  0  0  0  0
  1  2  1  0
  3  5  1  0
  3  2  1  0
  4  3  2  0
  6  5  1  0
  7  6  1  0
  8  7  2  0
  9 10  1  0
 10 12  1  0
 11 10  2  0
 13 12  1  6
 13 15  1  0
 13 14  1  0
 14  7  1  0
 15 16  1  0
 17 15  2  0
M  END
$$$$
