GGN.pdb
     RDKit          3D

 17 16  0  0  1  0  0  0  0  0999 V2000
   24.4425  -18.5913  -16.8844 N   0  0  0  0  0  0  0  0  0  0  0  0
   25.7612  -18.2575  -17.3880 C   0  0  0  0  0  0  0  0  0  0  0  0
   26.7291  -19.2774  -16.8345 C   0  0  0  0  0  0  0  0  0  0  0  0
   27.7228  -18.9440  -16.1350 O   0  0  0  0  0  0  0  0  0  0  0  0
   26.5532  -20.6625  -17.0852 N   0  0  0  0  0  0  0  0  0  0  0  0
   27.1576  -21.7128  -16.3143 C   0  0  0  0  0  0  0  0  0  0  0  0
   26.3847  -22.0114  -15.0791 C   0  0  0  0  0  0  0  0  0  0  0  0
   26.7190  -22.9955  -14.3712 O   0  0  0  0  0  0  0  0  0  0  0  0
   25.1292  -21.9138  -10.0430 N   0  0  0  0  0  0  0  0  0  0  0  0
   24.5994  -21.0320  -11.0124 C   0  0  0  0  0  0  0  0  0  0  0  0
   23.5791  -20.3724  -10.7533 O   0  0  0  0  0  0  0  0  0  0  0  0
   25.2523  -20.8945  -12.3191 C   0  0  0  0  0  0  0  0  0  0  0  0
   24.5072  -21.5347  -13.4632 C   0  0  2  0  0  0  0  0  0  0  0  0
   25.2784  -21.2235  -14.6667 N   0  0  0  0  0  0  0  0  0  0  0  0
   23.1046  -21.0951  -13.5902 C   0  0  0  0  0  0  0  0  0  0  0  0
   22.0677  -21.6859  -12.8890 O   0  0  0  0  0  0  0  0  0  0  0  0
   22.8562  -20.1368  -14.3785 O   0  0  0  0  0  0  0  0  0  0  0  0
  1  2  1  0
  3  5  1  0
  3  2  1  0
  4  3  2  0
  6  5  1  0
  7  6  1  0
  8  7  2  0
  9 10  1  0
 10 12  1  0
 11 10  2  0
 13 12  1  1
 13 15  1  0
 13 14  1  0
 14  7  1  0
 15 16  1  0
 17 15  2  0
M  END
$$$$
