GGA.pdb
     RDKit          3D

 14 13  0  0  1  0  0  0  0  0999 V2000
   19.1644   -9.5306  -15.1517 N   0  0  0  0  0  0  0  0  0  0  0  0
   19.8359   -8.5106  -15.9327 C   0  0  0  0  0  0  0  0  0  0  0  0
   20.8851   -7.8930  -15.0862 C   0  0  0  0  0  0  0  0  0  0  0  0
   21.6095   -8.5850  -14.3511 O   0  0  0  0  0  0  0  0  0  0  0  0
   21.0986   -6.4888  -15.0861 N   0  0  0  0  0  0  0  0  0  0  0  0
   22.3549   -5.9063  -14.6863 C   0  0  0  0  0  0  0  0  0  0  0  0
   22.2906   -4.4196  -14.7927 C   0  0  0  0  0  0  0  0  0  0  0  0
   23.2862   -3.7265  -14.4589 O   0  0  0  0  0  0  0  0  0  0  0  0
   19.8736   -1.8896  -16.0563 C   0  0  0  0  0  0  0  0  0  0  0  0
   21.1096   -2.2980  -15.2489 C   0  0  2  0  0  0  0  0  0  0  0  0
   21.1529   -3.7294  -15.2563 N   0  0  0  0  0  0  0  0  0  0  0  0
   20.9532   -1.7155  -13.9088 C   0  0  0  0  0  0  0  0  0  0  0  0
   21.0337   -0.4764  -13.7714 O   0  0  0  0  0  0  0  0  0  0  0  0
   20.7196   -2.4862  -12.7891 O   0  0  0  0  0  0  0  0  0  0  0  0
  2  1  1  0
  3  2  1  0
  4  3  2  0
  5  3  1  0
  6  5  1  0
  7  8  2  0
  7  6  1  0
 10  9  1  6
 10 11  1  0
 11  7  1  0
 12 10  1  0
 13 12  2  0
 14 12  1  0
M  END
$$$$
