GGA.pdb
     RDKit          3D

 14 13  0  0  1  0  0  0  0  0999 V2000
   27.1286  -19.9517  -17.1610 N   0  0  0  0  0  0  0  0  0  0  0  0
   26.9750  -18.5489  -17.4922 C   0  0  0  0  0  0  0  0  0  0  0  0
   26.5263  -17.8306  -16.2751 C   0  0  0  0  0  0  0  0  0  0  0  0
   27.0082  -18.0903  -15.1595 O   0  0  0  0  0  0  0  0  0  0  0  0
   25.5299  -16.8206  -16.3418 N   0  0  0  0  0  0  0  0  0  0  0  0
   25.1876  -16.0076  -15.2019 C   0  0  0  0  0  0  0  0  0  0  0  0
   25.8113  -14.6580  -15.3256 C   0  0  0  0  0  0  0  0  0  0  0  0
   25.5412  -13.7660  -14.4803 O   0  0  0  0  0  0  0  0  0  0  0  0
   28.7552  -13.1392  -16.6446 C   0  0  0  0  0  0  0  0  0  0  0  0
   27.2424  -12.9909  -16.4554 C   0  0  2  0  0  0  0  0  0  0  0  0
   26.7067  -14.3154  -16.3583 N   0  0  0  0  0  0  0  0  0  0  0  0
   26.7424  -12.2313  -17.6098 C   0  0  0  0  0  0  0  0  0  0  0  0
   26.0295  -12.8110  -18.4563 O   0  0  0  0  0  0  0  0  0  0  0  0
   27.0300  -10.8955  -17.7982 O   0  0  0  0  0  0  0  0  0  0  0  0
  2  1  1  0
  3  2  1  0
  4  3  2  0
  5  3  1  0
  6  5  1  0
  7  8  2  0
  7  6  1  0
 10  9  1  6
 10 11  1  0
 11  7  1  0
 12 10  1  0
 13 12  2  0
 14 12  1  0
M  END
$$$$
