GGA.pdb
     RDKit          3D

 14 13  0  0  1  0  0  0  0  0999 V2000
   25.8073  -32.8829   -9.5688 N   0  0  0  0  0  0  0  0  0  0  0  0
   26.1945  -33.6628   -8.4098 C   0  0  0  0  0  0  0  0  0  0  0  0
   26.1417  -32.7818   -7.2183 C   0  0  0  0  0  0  0  0  0  0  0  0
   26.9045  -31.8077   -7.1032 O   0  0  0  0  0  0  0  0  0  0  0  0
   25.2172  -33.0207   -6.1667 N   0  0  0  0  0  0  0  0  0  0  0  0
   25.1650  -32.1889   -4.9908 C   0  0  0  0  0  0  0  0  0  0  0  0
   25.4168  -33.0075   -3.7691 C   0  0  0  0  0  0  0  0  0  0  0  0
   25.4361  -32.4532   -2.6397 O   0  0  0  0  0  0  0  0  0  0  0  0
   25.2700  -36.5712   -2.9103 C   0  0  0  0  0  0  0  0  0  0  0  0
   25.7618  -35.1547   -2.5969 C   0  0  2  0  0  0  0  0  0  0  0  0
   25.6396  -34.3983   -3.8068 N   0  0  0  0  0  0  0  0  0  0  0  0
   27.1437  -35.2822   -2.1132 C   0  0  0  0  0  0  0  0  0  0  0  0
   28.0796  -34.8727   -2.8323 O   0  0  0  0  0  0  0  0  0  0  0  0
   27.4515  -35.8392   -0.8895 O   0  0  0  0  0  0  0  0  0  0  0  0
  2  1  1  0
  3  2  1  0
  4  3  2  0
  5  3  1  0
  6  5  1  0
  7  8  2  0
  7  6  1  0
 10  9  1  6
 10 11  1  0
 11  7  1  0
 12 10  1  0
 13 12  2  0
 14 12  1  0
M  END
$$$$
