GGA.pdb
     RDKit          3D

 14 13  0  0  1  0  0  0  0  0999 V2000
   17.1863  -11.0717  -16.5462 N   0  0  0  0  0  0  0  0  0  0  0  0
   18.2225  -10.0609  -16.6211 C   0  0  0  0  0  0  0  0  0  0  0  0
   18.9921  -10.0895  -15.3540 C   0  0  0  0  0  0  0  0  0  0  0  0
   18.9307  -11.0638  -14.5851 O   0  0  0  0  0  0  0  0  0  0  0  0
   19.8263   -9.0044  -14.9748 N   0  0  0  0  0  0  0  0  0  0  0  0
   20.6827   -9.0663  -13.8172 C   0  0  0  0  0  0  0  0  0  0  0  0
   21.4874   -7.8151  -13.7040 C   0  0  0  0  0  0  0  0  0  0  0  0
   22.0964   -7.5597  -12.6330 O   0  0  0  0  0  0  0  0  0  0  0  0
   22.7505   -5.2084  -16.0012 C   0  0  0  0  0  0  0  0  0  0  0  0
   22.4028   -5.6994  -14.5925 C   0  0  2  0  0  0  0  0  0  0  0  0
   21.6083   -6.8801  -14.7513 N   0  0  0  0  0  0  0  0  0  0  0  0
   21.7009   -4.5973  -13.9198 C   0  0  0  0  0  0  0  0  0  0  0  0
   20.4520   -4.5733  -13.9342 O   0  0  0  0  0  0  0  0  0  0  0  0
   22.3694   -3.5815  -13.2688 O   0  0  0  0  0  0  0  0  0  0  0  0
  2  1  1  0
  3  2  1  0
  4  3  2  0
  5  3  1  0
  6  5  1  0
  7  8  2  0
  7  6  1  0
 10  9  1  6
 10 11  1  0
 11  7  1  0
 12 10  1  0
 13 12  2  0
 14 12  1  0
M  END
$$$$
