GGA.pdb
     RDKit          3D

 14 13  0  0  1  0  0  0  0  0999 V2000
   21.8401  -15.4773  -16.7239 N   0  0  0  0  0  0  0  0  0  0  0  0
   20.8522  -16.1046  -15.8684 C   0  0  0  0  0  0  0  0  0  0  0  0
   21.4040  -17.3951  -15.3901 C   0  0  0  0  0  0  0  0  0  0  0  0
   22.6268  -17.6163  -15.4011 O   0  0  0  0  0  0  0  0  0  0  0  0
   20.5543  -18.4234  -14.9025 N   0  0  0  0  0  0  0  0  0  0  0  0
   21.0742  -19.6078  -14.2667 C   0  0  0  0  0  0  0  0  0  0  0  0
   19.9637  -20.5531  -13.9516 C   0  0  0  0  0  0  0  0  0  0  0  0
   18.7777  -20.2366  -14.2278 O   0  0  0  0  0  0  0  0  0  0  0  0
   19.6444  -24.0559  -12.7654 C   0  0  0  0  0  0  0  0  0  0  0  0
   19.0642  -22.6644  -13.0369 C   0  0  2  0  0  0  0  0  0  0  0  0
   20.1702  -21.8097  -13.3484 N   0  0  0  0  0  0  0  0  0  0  0  0
   18.3291  -22.2675  -11.8278 C   0  0  0  0  0  0  0  0  0  0  0  0
   18.8635  -21.4739  -11.0246 O   0  0  0  0  0  0  0  0  0  0  0  0
   17.0647  -22.7387  -11.5419 O   0  0  0  0  0  0  0  0  0  0  0  0
  2  1  1  0
  3  2  1  0
  4  3  2  0
  5  3  1  0
  6  5  1  0
  7  8  2  0
  7  6  1  0
 10  9  1  1
 10 11  1  0
 11  7  1  0
 12 10  1  0
 13 12  2  0
 14 12  1  0
M  END
$$$$
