GGA.pdb
     RDKit          3D

 14 13  0  0  1  0  0  0  0  0999 V2000
   19.7677  -13.6222  -16.2999 N   0  0  0  0  0  0  0  0  0  0  0  0
   20.2294  -12.3905  -16.9090 C   0  0  0  0  0  0  0  0  0  0  0  0
   19.5663  -11.2557  -16.2226 C   0  0  0  0  0  0  0  0  0  0  0  0
   18.4102  -11.3583  -15.7786 O   0  0  0  0  0  0  0  0  0  0  0  0
   20.2293  -10.0117  -16.0487 N   0  0  0  0  0  0  0  0  0  0  0  0
   19.6312   -8.9218  -15.3195 C   0  0  0  0  0  0  0  0  0  0  0  0
   20.5456   -7.7429  -15.3132 C   0  0  0  0  0  0  0  0  0  0  0  0
   21.7463   -7.8828  -15.6627 O   0  0  0  0  0  0  0  0  0  0  0  0
   20.2236   -4.0777  -14.7861 C   0  0  0  0  0  0  0  0  0  0  0  0
   21.0555   -5.3551  -14.9361 C   0  0  2  0  0  0  0  0  0  0  0  0
   20.1338   -6.4511  -14.9297 N   0  0  0  0  0  0  0  0  0  0  0  0
   22.0091   -5.3747  -13.8181 C   0  0  0  0  0  0  0  0  0  0  0  0
   21.7569   -6.0771  -12.8162 O   0  0  0  0  0  0  0  0  0  0  0  0
   23.1791   -4.6443  -13.8299 O   0  0  0  0  0  0  0  0  0  0  0  0
  2  1  1  0
  3  2  1  0
  4  3  2  0
  5  3  1  0
  6  5  1  0
  7  8  2  0
  7  6  1  0
 10  9  1  1
 10 11  1  0
 11  7  1  0
 12 10  1  0
 13 12  2  0
 14 12  1  0
M  END
$$$$
