GGA.pdb
     RDKit          3D

 14 13  0  0  1  0  0  0  0  0999 V2000
   18.7247  -11.8401  -17.6812 N   0  0  0  0  0  0  0  0  0  0  0  0
   18.8669  -10.4111  -17.4832 C   0  0  0  0  0  0  0  0  0  0  0  0
   18.7548  -10.1298  -16.0316 C   0  0  0  0  0  0  0  0  0  0  0  0
   18.0379  -10.8269  -15.2940 O   0  0  0  0  0  0  0  0  0  0  0  0
   19.4630   -9.0536  -15.4337 N   0  0  0  0  0  0  0  0  0  0  0  0
   19.3331   -8.7367  -14.0336 C   0  0  0  0  0  0  0  0  0  0  0  0
   20.2596   -7.6257  -13.6687 C   0  0  0  0  0  0  0  0  0  0  0  0
   20.1978   -7.1132  -12.5212 O   0  0  0  0  0  0  0  0  0  0  0  0
   23.3280   -6.1083  -15.0438 C   0  0  0  0  0  0  0  0  0  0  0  0
   22.0827   -6.0309  -14.1551 C   0  0  2  0  0  0  0  0  0  0  0  0
   21.2229   -7.1041  -14.5550 N   0  0  0  0  0  0  0  0  0  0  0  0
   21.5000   -4.6968  -14.3558 C   0  0  0  0  0  0  0  0  0  0  0  0
   20.5442   -4.5641  -15.1493 O   0  0  0  0  0  0  0  0  0  0  0  0
   21.9683   -3.5778  -13.6995 O   0  0  0  0  0  0  0  0  0  0  0  0
  2  1  1  0
  3  2  1  0
  4  3  2  0
  5  3  1  0
  6  5  1  0
  7  8  2  0
  7  6  1  0
 10  9  1  6
 10 11  1  0
 11  7  1  0
 12 10  1  0
 13 12  2  0
 14 12  1  0
M  END
$$$$
