GGA.pdb
     RDKit          3D

 14 13  0  0  1  0  0  0  0  0999 V2000
   15.7765  -13.3853  -18.9200 N   0  0  0  0  0  0  0  0  0  0  0  0
   16.1008  -12.1145  -18.3026 C   0  0  0  0  0  0  0  0  0  0  0  0
   17.5717  -11.9345  -18.3549 C   0  0  0  0  0  0  0  0  0  0  0  0
   18.2266  -12.2713  -19.3558 O   0  0  0  0  0  0  0  0  0  0  0  0
   18.2835  -11.3707  -17.2627 N   0  0  0  0  0  0  0  0  0  0  0  0
   19.6968  -11.0961  -17.3310 C   0  0  0  0  0  0  0  0  0  0  0  0
   20.1754  -10.5330  -16.0350 C   0  0  0  0  0  0  0  0  0  0  0  0
   19.3624  -10.3652  -15.0894 O   0  0  0  0  0  0  0  0  0  0  0  0
   23.4562   -9.9332  -14.4441 C   0  0  0  0  0  0  0  0  0  0  0  0
   21.9410   -9.7188  -14.5106 C   0  0  2  0  0  0  0  0  0  0  0  0
   21.5167  -10.1693  -15.8021 N   0  0  0  0  0  0  0  0  0  0  0  0
   21.7036   -8.2881  -14.2732 C   0  0  0  0  0  0  0  0  0  0  0  0
   21.6408   -7.5120  -15.2502 O   0  0  0  0  0  0  0  0  0  0  0  0
   21.5463   -7.7636  -13.0073 O   0  0  0  0  0  0  0  0  0  0  0  0
  2  1  1  0
  3  2  1  0
  4  3  2  0
  5  3  1  0
  6  5  1  0
  7  8  2  0
  7  6  1  0
 10  9  1  6
 10 11  1  0
 11  7  1  0
 12 10  1  0
 13 12  2  0
 14 12  1  0
M  END
$$$$
