NMF.pdb
     RDKit          3D

 28 28  0  0  1  0  0  0  0  0999 V2000
   31.3544  -21.6878  -18.8974 N   0  0  0  0  0  0  0  0  0  0  0  0
   30.3760  -20.6802  -19.0194 C   0  0  0  0  0  0  0  0  0  0  0  0
   30.6899  -19.4742  -19.1586 O   0  0  0  0  0  0  0  0  0  0  0  0
   28.9376  -21.0389  -18.9844 C   0  0  0  0  0  0  0  0  0  0  0  0
   28.7847  -22.5537  -18.8473 C   0  0  2  0  0  0  0  0  0  0  0  0
   29.0777  -23.1087  -20.1296 N   0  0  0  0  0  0  0  0  0  0  0  0
   27.4034  -22.8891  -18.3792 C   0  0  0  0  0  0  0  0  0  0  0  0
   26.4784  -22.5087  -19.1193 O   0  0  0  0  0  0  0  0  0  0  0  0
   28.0511  -27.9953  -15.8928 C   0  0  0  0  0  0  0  0  0  0  0  0
   26.3697  -27.9370  -16.5148 S   0  0  0  0  0  0  0  0  0  0  0  0
   26.0114  -26.2549  -17.1108 C   0  0  0  0  0  0  0  0  0  0  0  0
   25.9239  -25.2806  -15.9625 C   0  0  0  0  0  0  0  0  0  0  0  0
   25.9621  -23.8769  -16.5361 C   0  0  2  0  0  0  0  0  0  0  0  0
   27.1908  -23.5909  -17.1759 N   0  0  0  0  0  0  0  0  0  0  0  0
   25.4329  -22.8409  -15.6475 C   0  0  0  0  0  0  0  0  0  0  0  0
   25.9595  -22.7008  -14.5169 O   0  0  0  0  0  0  0  0  0  0  0  0
   24.3628  -21.9814  -15.9770 N   0  0  0  0  0  0  0  0  0  0  0  0
   23.8642  -20.9117  -15.1244 C   0  0  1  0  0  0  0  0  0  0  0  0
   24.2506  -19.5684  -15.6260 C   0  0  0  0  0  0  0  0  0  0  0  0
   25.7207  -19.4267  -15.6528 C   0  0  0  0  0  0  0  0  0  0  0  0
   26.5025  -19.6141  -16.7747 C   0  0  0  0  0  0  0  0  0  0  0  0
   27.8690  -19.4568  -16.7220 C   0  0  0  0  0  0  0  0  0  0  0  0
   28.5087  -19.1075  -15.5518 C   0  0  0  0  0  0  0  0  0  0  0  0
   27.7185  -18.9210  -14.4291 C   0  0  0  0  0  0  0  0  0  0  0  0
   26.3549  -19.0737  -14.4646 C   0  0  0  0  0  0  0  0  0  0  0  0
   22.4266  -21.0861  -14.9724 C   0  0  0  0  0  0  0  0  0  0  0  0
   21.8170  -21.9697  -15.6246 O   0  0  0  0  0  0  0  0  0  0  0  0
   21.7014  -20.2700  -14.0954 O   0  0  0  0  0  0  0  0  0  0  0  0
  2  1  1  0
  2  3  2  0
  4  2  1  0
  5  6  1  6
  5  4  1  0
  7  5  1  0
  8  7  2  0
 10  9  1  0
 11 10  1  0
 11 12  1  0
 13 12  1  1
 13 14  1  0
 14  7  1  0
 15 17  1  0
 15 13  1  0
 16 15  2  0
 18 19  1  6
 18 17  1  0
 20 19  1  0
 20 21  2  0
 22 21  1  0
 23 22  2  0
 24 25  2  0
 24 23  1  0
 25 20  1  0
 26 18  1  0
 26 28  1  0
 27 26  2  0
M  END
$$$$
