NMF.pdb
     RDKit          3D

 28 28  0  0  1  0  0  0  0  0999 V2000
   28.9133  -20.0671  -21.0185 N   0  0  0  0  0  0  0  0  0  0  0  0
   29.7927  -20.5939  -20.0507 C   0  0  0  0  0  0  0  0  0  0  0  0
   30.6190  -21.4931  -20.3352 O   0  0  0  0  0  0  0  0  0  0  0  0
   29.7519  -20.0831  -18.6592 C   0  0  0  0  0  0  0  0  0  0  0  0
   28.4945  -19.2381  -18.4544 C   0  0  2  0  0  0  0  0  0  0  0  0
   28.6740  -18.0502  -19.2257 N   0  0  0  0  0  0  0  0  0  0  0  0
   28.3006  -18.9525  -16.9982 C   0  0  0  0  0  0  0  0  0  0  0  0
   29.0898  -18.1280  -16.5029 O   0  0  0  0  0  0  0  0  0  0  0  0
   25.5008  -14.8371  -15.9887 C   0  0  0  0  0  0  0  0  0  0  0  0
   26.8079  -15.0406  -14.7772 S   0  0  0  0  0  0  0  0  0  0  0  0
   27.2766  -16.7974  -14.6939 C   0  0  0  0  0  0  0  0  0  0  0  0
   26.1759  -17.6779  -15.2314 C   0  0  0  0  0  0  0  0  0  0  0  0
   26.6239  -19.1209  -15.0981 C   0  0  2  0  0  0  0  0  0  0  0  0
   27.2834  -19.5883  -16.2589 N   0  0  0  0  0  0  0  0  0  0  0  0
   25.6271  -20.0165  -14.5091 C   0  0  0  0  0  0  0  0  0  0  0  0
   24.6796  -20.4101  -15.2321 O   0  0  0  0  0  0  0  0  0  0  0  0
   25.6579  -20.4720  -13.1733 N   0  0  0  0  0  0  0  0  0  0  0  0
   24.7558  -21.4692  -12.6151 C   0  0  1  0  0  0  0  0  0  0  0  0
   25.3500  -22.1738  -11.4507 C   0  0  0  0  0  0  0  0  0  0  0  0
   25.7073  -21.2118  -10.3882 C   0  0  0  0  0  0  0  0  0  0  0  0
   26.9169  -20.5520  -10.3074 C   0  0  0  0  0  0  0  0  0  0  0  0
   27.1737  -19.6627   -9.2885 C   0  0  0  0  0  0  0  0  0  0  0  0
   26.2373  -19.3966   -8.3123 C   0  0  0  0  0  0  0  0  0  0  0  0
   25.0252  -20.0622   -8.3989 C   0  0  0  0  0  0  0  0  0  0  0  0
   24.7532  -20.9518   -9.4082 C   0  0  0  0  0  0  0  0  0  0  0  0
   23.4881  -20.8175  -12.3176 C   0  0  0  0  0  0  0  0  0  0  0  0
   23.4199  -19.5673  -12.2165 O   0  0  0  0  0  0  0  0  0  0  0  0
   22.3246  -21.5762  -12.1396 O   0  0  0  0  0  0  0  0  0  0  0  0
  2  1  1  0
  2  3  2  0
  4  2  1  0
  5  6  1  6
  5  4  1  0
  7  5  1  0
  8  7  2  0
 10  9  1  0
 11 10  1  0
 11 12  1  0
 13 12  1  6
 13 14  1  0
 14  7  1  0
 15 17  1  0
 15 13  1  0
 16 15  2  0
 18 19  1  1
 18 17  1  0
 20 19  1  0
 20 21  2  0
 22 21  1  0
 23 22  2  0
 24 25  2  0
 24 23  1  0
 25 20  1  0
 26 18  1  0
 26 28  1  0
 27 26  2  0
M  END
$$$$
