NMF.pdb
     RDKit          3D

 28 28  0  0  1  0  0  0  0  0999 V2000
   29.3505  -21.5245  -18.6986 N   0  0  0  0  0  0  0  0  0  0  0  0
   28.3350  -20.8726  -17.9697 C   0  0  0  0  0  0  0  0  0  0  0  0
   28.1441  -19.6374  -18.0713 O   0  0  0  0  0  0  0  0  0  0  0  0
   27.4637  -21.6519  -17.0574 C   0  0  0  0  0  0  0  0  0  0  0  0
   27.3346  -20.9255  -15.7185 C   0  0  2  0  0  0  0  0  0  0  0  0
   28.6582  -20.7907  -15.2007 N   0  0  0  0  0  0  0  0  0  0  0  0
   26.4361  -21.6955  -14.8023 C   0  0  0  0  0  0  0  0  0  0  0  0
   26.7172  -22.8993  -14.6610 O   0  0  0  0  0  0  0  0  0  0  0  0
   26.2991  -21.0533   -7.5743 C   0  0  0  0  0  0  0  0  0  0  0  0
   26.9723  -20.9241   -9.2318 S   0  0  0  0  0  0  0  0  0  0  0  0
   25.6314  -21.1553  -10.4407 C   0  0  0  0  0  0  0  0  0  0  0  0
   26.1354  -20.9713  -11.8506 C   0  0  0  0  0  0  0  0  0  0  0  0
   24.9674  -21.1786  -12.7958 C   0  0  2  0  0  0  0  0  0  0  0  0
   25.3499  -21.0749  -14.1537 N   0  0  0  0  0  0  0  0  0  0  0  0
   23.7395  -20.4818  -12.4092 C   0  0  0  0  0  0  0  0  0  0  0  0
   23.8416  -19.4042  -11.7737 O   0  0  0  0  0  0  0  0  0  0  0  0
   22.4378  -20.9415  -12.7040 N   0  0  0  0  0  0  0  0  0  0  0  0
   21.5287  -20.3100  -13.6498 C   0  0  1  0  0  0  0  0  0  0  0  0
   22.1442  -20.1383  -14.9903 C   0  0  0  0  0  0  0  0  0  0  0  0
   21.1984  -19.4828  -15.9164 C   0  0  0  0  0  0  0  0  0  0  0  0
   21.0730  -18.1164  -16.0659 C   0  0  0  0  0  0  0  0  0  0  0  0
   20.1712  -17.5796  -16.9568 C   0  0  0  0  0  0  0  0  0  0  0  0
   19.3607  -18.3816  -17.7317 C   0  0  0  0  0  0  0  0  0  0  0  0
   19.4911  -19.7522  -17.5768 C   0  0  0  0  0  0  0  0  0  0  0  0
   20.3853  -20.3036  -16.6933 C   0  0  0  0  0  0  0  0  0  0  0  0
   20.2913  -21.0775  -13.6702 C   0  0  0  0  0  0  0  0  0  0  0  0
   19.1832  -20.5087  -13.5081 O   0  0  0  0  0  0  0  0  0  0  0  0
   20.3188  -22.4631  -13.8712 O   0  0  0  0  0  0  0  0  0  0  0  0
  2  1  1  0
  2  3  2  0
  4  2  1  0
  5  6  1  1
  5  4  1  0
  7  5  1  0
  8  7  2  0
 10  9  1  0
 11 10  1  0
 11 12  1  0
 13 12  1  1
 13 14  1  0
 14  7  1  0
 15 17  1  0
 15 13  1  0
 16 15  2  0
 18 19  1  6
 18 17  1  0
 20 19  1  0
 20 21  2  0
 22 21  1  0
 23 22  2  0
 24 25  2  0
 24 23  1  0
 25 20  1  0
 26 18  1  0
 26 28  1  0
 27 26  2  0
M  END
$$$$
