NMF.pdb
     RDKit          3D

 28 28  0  0  1  0  0  0  0  0999 V2000
   19.6180  -20.4368  -12.4032 N   0  0  0  0  0  0  0  0  0  0  0  0
   20.8645  -19.7956  -12.5539 C   0  0  0  0  0  0  0  0  0  0  0  0
   20.9580  -18.5461  -12.6017 O   0  0  0  0  0  0  0  0  0  0  0  0
   22.1032  -20.6038  -12.6598 C   0  0  0  0  0  0  0  0  0  0  0  0
   23.2519  -19.7279  -13.1597 C   0  0  2  0  0  0  0  0  0  0  0  0
   22.9975  -19.4747  -14.5415 N   0  0  0  0  0  0  0  0  0  0  0  0
   24.5596  -20.4201  -12.9349 C   0  0  0  0  0  0  0  0  0  0  0  0
   24.4871  -21.6368  -12.6851 O   0  0  0  0  0  0  0  0  0  0  0  0
   30.3271  -18.7072  -15.5768 C   0  0  0  0  0  0  0  0  0  0  0  0
   28.6542  -18.2616  -16.0460 S   0  0  0  0  0  0  0  0  0  0  0  0
   27.4784  -19.1299  -14.9613 C   0  0  0  0  0  0  0  0  0  0  0  0
   28.1189  -19.4853  -13.6426 C   0  0  0  0  0  0  0  0  0  0  0  0
   27.0876  -20.2150  -12.8031 C   0  0  2  0  0  0  0  0  0  0  0  0
   25.7792  -19.7179  -13.0074 N   0  0  0  0  0  0  0  0  0  0  0  0
   27.4870  -20.4487  -11.4144 C   0  0  0  0  0  0  0  0  0  0  0  0
   28.7103  -20.4244  -11.1348 O   0  0  0  0  0  0  0  0  0  0  0  0
   26.5841  -20.7014  -10.3591 N   0  0  0  0  0  0  0  0  0  0  0  0
   26.9540  -20.7931   -8.9539 C   0  0  1  0  0  0  0  0  0  0  0  0
   27.7999  -19.6519   -8.5210 C   0  0  0  0  0  0  0  0  0  0  0  0
   28.0934  -19.7413   -7.0761 C   0  0  0  0  0  0  0  0  0  0  0  0
   27.3276  -19.1584   -6.0867 C   0  0  0  0  0  0  0  0  0  0  0  0
   27.6625  -19.2926   -4.7582 C   0  0  0  0  0  0  0  0  0  0  0  0
   28.7713  -20.0110   -4.3644 C   0  0  0  0  0  0  0  0  0  0  0  0
   29.5359  -20.5935   -5.3623 C   0  0  0  0  0  0  0  0  0  0  0  0
   29.2159  -20.4696   -6.6913 C   0  0  0  0  0  0  0  0  0  0  0  0
   25.7342  -20.9440   -8.1732 C   0  0  0  0  0  0  0  0  0  0  0  0
   24.6552  -20.4365   -8.5680 O   0  0  0  0  0  0  0  0  0  0  0  0
   25.7462  -21.6584   -6.9688 O   0  0  0  0  0  0  0  0  0  0  0  0
  2  1  1  0
  2  3  2  0
  4  2  1  0
  5  6  1  6
  5  4  1  0
  7  5  1  0
  8  7  2  0
 10  9  1  0
 11 10  1  0
 11 12  1  0
 13 12  1  1
 13 14  1  0
 14  7  1  0
 15 17  1  0
 15 13  1  0
 16 15  2  0
 18 19  1  1
 18 17  1  0
 20 19  1  0
 20 21  2  0
 22 21  1  0
 23 22  2  0
 24 25  2  0
 24 23  1  0
 25 20  1  0
 26 18  1  0
 26 28  1  0
 27 26  2  0
M  END
$$$$
