NMF.pdb
     RDKit          3D

 28 28  0  0  1  0  0  0  0  0999 V2000
   22.7806  -12.4857  -22.1371 N   0  0  0  0  0  0  0  0  0  0  0  0
   22.3453  -12.4999  -20.7962 C   0  0  0  0  0  0  0  0  0  0  0  0
   22.4316  -13.5320  -20.0894 O   0  0  0  0  0  0  0  0  0  0  0  0
   21.7697  -11.2737  -20.1931 C   0  0  0  0  0  0  0  0  0  0  0  0
   20.3928  -11.5829  -19.6053 C   0  0  2  0  0  0  0  0  0  0  0  0
   19.5028  -11.7294  -20.7119 N   0  0  0  0  0  0  0  0  0  0  0  0
   19.9752  -10.4878  -18.6746 C   0  0  0  0  0  0  0  0  0  0  0  0
   19.4615   -9.4913  -19.2141 O   0  0  0  0  0  0  0  0  0  0  0  0
   15.1804  -11.7837  -14.8459 C   0  0  0  0  0  0  0  0  0  0  0  0
   16.8094  -11.3528  -14.2310 S   0  0  0  0  0  0  0  0  0  0  0  0
   17.7859  -10.6267  -15.5846 C   0  0  0  0  0  0  0  0  0  0  0  0
   19.1518  -10.2061  -15.1020 C   0  0  0  0  0  0  0  0  0  0  0  0
   19.9095   -9.6324  -16.2842 C   0  0  2  0  0  0  0  0  0  0  0  0
   20.1619  -10.6021  -17.2826 N   0  0  0  0  0  0  0  0  0  0  0  0
   21.0284   -8.7595  -15.9254 C   0  0  0  0  0  0  0  0  0  0  0  0
   22.1946   -9.1603  -16.1591 O   0  0  0  0  0  0  0  0  0  0  0  0
   20.8855   -7.4876  -15.3299 N   0  0  0  0  0  0  0  0  0  0  0  0
   21.9219   -6.4657  -15.2955 C   0  0  1  0  0  0  0  0  0  0  0  0
   22.4292   -6.1355  -16.6516 C   0  0  0  0  0  0  0  0  0  0  0  0
   23.4438   -5.0643  -16.5803 C   0  0  0  0  0  0  0  0  0  0  0  0
   23.1577   -3.7146  -16.6179 C   0  0  0  0  0  0  0  0  0  0  0  0
   24.1598   -2.7741  -16.5391 C   0  0  0  0  0  0  0  0  0  0  0  0
   25.4834   -3.1408  -16.4203 C   0  0  0  0  0  0  0  0  0  0  0  0
   25.7641   -4.4971  -16.3833 C   0  0  0  0  0  0  0  0  0  0  0  0
   24.7769   -5.4476  -16.4605 C   0  0  0  0  0  0  0  0  0  0  0  0
   21.3998   -5.3150  -14.5719 C   0  0  0  0  0  0  0  0  0  0  0  0
   20.2445   -4.8819  -14.8071 O   0  0  0  0  0  0  0  0  0  0  0  0
   22.1795   -4.6733  -13.6017 O   0  0  0  0  0  0  0  0  0  0  0  0
  2  1  1  0
  2  3  2  0
  4  2  1  0
  5  6  1  6
  5  4  1  0
  7  5  1  0
  8  7  2  0
 10  9  1  0
 11 10  1  0
 11 12  1  0
 13 12  1  1
 13 14  1  0
 14  7  1  0
 15 17  1  0
 15 13  1  0
 16 15  2  0
 18 19  1  6
 18 17  1  0
 20 19  1  0
 20 21  2  0
 22 21  1  0
 23 22  2  0
 24 25  2  0
 24 23  1  0
 25 20  1  0
 26 18  1  0
 26 28  1  0
 27 26  2  0
M  END
$$$$
