NMF.pdb
     RDKit          3D

 28 28  0  0  1  0  0  0  0  0999 V2000
   25.4157  -24.4368  -15.5863 N   0  0  0  0  0  0  0  0  0  0  0  0
   24.8944  -25.6110  -16.1668 C   0  0  0  0  0  0  0  0  0  0  0  0
   23.6963  -25.9452  -16.0081 O   0  0  0  0  0  0  0  0  0  0  0  0
   25.7706  -26.4818  -16.9870 C   0  0  0  0  0  0  0  0  0  0  0  0
   27.1936  -25.9235  -16.9958 C   0  0  2  0  0  0  0  0  0  0  0  0
   27.1292  -24.6586  -17.6548 N   0  0  0  0  0  0  0  0  0  0  0  0
   28.1158  -26.8815  -17.6825 C   0  0  0  0  0  0  0  0  0  0  0  0
   28.5612  -26.5041  -18.7812 O   0  0  0  0  0  0  0  0  0  0  0  0
   34.4711  -30.0925  -19.0923 C   0  0  0  0  0  0  0  0  0  0  0  0
   33.4056  -28.8083  -18.4343 S   0  0  0  0  0  0  0  0  0  0  0  0
   31.7224  -29.4721  -18.2363 C   0  0  0  0  0  0  0  0  0  0  0  0
   30.7910  -28.4277  -17.6732 C   0  0  0  0  0  0  0  0  0  0  0  0
   29.4184  -29.0560  -17.5248 C   0  0  2  0  0  0  0  0  0  0  0  0
   28.4431  -28.1230  -17.1017 N   0  0  0  0  0  0  0  0  0  0  0  0
   29.4127  -30.3558  -16.8516 C   0  0  0  0  0  0  0  0  0  0  0  0
   29.6224  -30.3862  -15.6145 O   0  0  0  0  0  0  0  0  0  0  0  0
   29.1857  -31.5876  -17.5027 N   0  0  0  0  0  0  0  0  0  0  0  0
   28.9049  -32.8454  -16.8254 C   0  0  1  0  0  0  0  0  0  0  0  0
   27.4672  -32.9890  -16.4822 C   0  0  0  0  0  0  0  0  0  0  0  0
   27.2129  -34.2977  -15.8462 C   0  0  0  0  0  0  0  0  0  0  0  0
   27.3801  -34.5573  -14.5009 C   0  0  0  0  0  0  0  0  0  0  0  0
   27.1152  -35.8038  -13.9803 C   0  0  0  0  0  0  0  0  0  0  0  0
   26.6747  -36.8382  -14.7780 C   0  0  0  0  0  0  0  0  0  0  0  0
   26.5091  -36.5714  -16.1274 C   0  0  0  0  0  0  0  0  0  0  0  0
   26.7685  -35.3343  -16.6625 C   0  0  0  0  0  0  0  0  0  0  0  0
   29.4184  -33.9292  -17.6513 C   0  0  0  0  0  0  0  0  0  0  0  0
   29.2050  -33.9466  -18.8890 O   0  0  0  0  0  0  0  0  0  0  0  0
   30.1589  -34.9697  -17.0768 O   0  0  0  0  0  0  0  0  0  0  0  0
  2  1  1  0
  2  3  2  0
  4  2  1  0
  5  6  1  6
  5  4  1  0
  7  5  1  0
  8  7  2  0
 10  9  1  0
 11 10  1  0
 11 12  1  0
 13 12  1  1
 13 14  1  0
 14  7  1  0
 15 17  1  0
 15 13  1  0
 16 15  2  0
 18 19  1  6
 18 17  1  0
 20 19  1  0
 20 21  2  0
 22 21  1  0
 23 22  2  0
 24 25  2  0
 24 23  1  0
 25 20  1  0
 26 18  1  0
 26 28  1  0
 27 26  2  0
M  END
$$$$
