NMF.pdb
     RDKit          3D

 28 28  0  0  1  0  0  0  0  0999 V2000
   17.4977  -11.8237  -19.7669 N   0  0  0  0  0  0  0  0  0  0  0  0
   17.4931  -10.4408  -19.4929 C   0  0  0  0  0  0  0  0  0  0  0  0
   16.8712   -9.6301  -20.2196 O   0  0  0  0  0  0  0  0  0  0  0  0
   18.2363   -9.9171  -18.3214 C   0  0  0  0  0  0  0  0  0  0  0  0
   18.9421  -11.0655  -17.6004 C   0  0  2  0  0  0  0  0  0  0  0  0
   17.9400  -11.7484  -16.8469 N   0  0  0  0  0  0  0  0  0  0  0  0
   20.0423  -10.5303  -16.7385 C   0  0  0  0  0  0  0  0  0  0  0  0
   19.6779   -9.9657  -15.6914 O   0  0  0  0  0  0  0  0  0  0  0  0
   27.7250  -10.7395  -15.0944 C   0  0  0  0  0  0  0  0  0  0  0  0
   26.4099  -11.4554  -16.0820 S   0  0  0  0  0  0  0  0  0  0  0  0
   24.9121  -10.4354  -15.9117 C   0  0  0  0  0  0  0  0  0  0  0  0
   23.7782  -10.9966  -16.7332 C   0  0  0  0  0  0  0  0  0  0  0  0
   22.5394  -10.1694  -16.4476 C   0  0  2  0  0  0  0  0  0  0  0  0
   21.3944  -10.6698  -17.1104 N   0  0  0  0  0  0  0  0  0  0  0  0
   22.7465   -8.7215  -16.5069 C   0  0  0  0  0  0  0  0  0  0  0  0
   23.1262   -8.2186  -17.5924 O   0  0  0  0  0  0  0  0  0  0  0  0
   22.5468   -7.8445  -15.4190 N   0  0  0  0  0  0  0  0  0  0  0  0
   22.4978   -6.3929  -15.5208 C   0  0  1  0  0  0  0  0  0  0  0  0
   21.5893   -5.9369  -16.6034 C   0  0  0  0  0  0  0  0  0  0  0  0
   21.6038   -4.4636  -16.7079 C   0  0  0  0  0  0  0  0  0  0  0  0
   22.6569   -3.7273  -17.2118 C   0  0  0  0  0  0  0  0  0  0  0  0
   22.5929   -2.3541  -17.2834 C   0  0  0  0  0  0  0  0  0  0  0  0
   21.4795   -1.6622  -16.8564 C   0  0  0  0  0  0  0  0  0  0  0  0
   20.4259   -2.4070  -16.3515 C   0  0  0  0  0  0  0  0  0  0  0  0
   20.4735   -3.7765  -16.2734 C   0  0  0  0  0  0  0  0  0  0  0  0
   22.1573   -5.8580  -14.2099 C   0  0  0  0  0  0  0  0  0  0  0  0
   22.2504   -4.6271  -13.9775 O   0  0  0  0  0  0  0  0  0  0  0  0
   21.7205   -6.7095  -13.1875 O   0  0  0  0  0  0  0  0  0  0  0  0
  2  1  1  0
  2  3  2  0
  4  2  1  0
  5  6  1  1
  5  4  1  0
  7  5  1  0
  8  7  2  0
 10  9  1  0
 11 10  1  0
 11 12  1  0
 13 12  1  6
 13 14  1  0
 14  7  1  0
 15 17  1  0
 15 13  1  0
 16 15  2  0
 18 19  1  6
 18 17  1  0
 20 19  1  0
 20 21  2  0
 22 21  1  0
 23 22  2  0
 24 25  2  0
 24 23  1  0
 25 20  1  0
 26 18  1  0
 26 28  1  0
 27 26  2  0
M  END
$$$$
