NMF.pdb
     RDKit          3D

 28 28  0  0  1  0  0  0  0  0999 V2000
   29.1456  -36.2015   -5.8399 N   0  0  0  0  0  0  0  0  0  0  0  0
   28.4831  -35.0119   -5.4746 C   0  0  0  0  0  0  0  0  0  0  0  0
   28.6247  -33.9536   -6.1320 O   0  0  0  0  0  0  0  0  0  0  0  0
   27.5944  -34.9956   -4.2877 C   0  0  0  0  0  0  0  0  0  0  0  0
   27.5986  -36.3702   -3.6187 C   0  0  2  0  0  0  0  0  0  0  0  0
   26.7239  -37.1975   -4.3860 N   0  0  0  0  0  0  0  0  0  0  0  0
   27.1659  -36.2468   -2.1914 C   0  0  0  0  0  0  0  0  0  0  0  0
   25.9461  -36.0788   -2.0127 O   0  0  0  0  0  0  0  0  0  0  0  0
   30.2579  -39.2476    2.7470 C   0  0  0  0  0  0  0  0  0  0  0  0
   29.6424  -37.7831    3.5799 S   0  0  0  0  0  0  0  0  0  0  0  0
   28.4302  -36.9509    2.5070 C   0  0  0  0  0  0  0  0  0  0  0  0
   28.9263  -36.8777    1.0843 C   0  0  0  0  0  0  0  0  0  0  0  0
   27.8591  -36.1937    0.2513 C   0  0  2  0  0  0  0  0  0  0  0  0
   28.0980  -36.3200   -1.1371 N   0  0  0  0  0  0  0  0  0  0  0  0
   27.4723  -34.8649    0.7283 C   0  0  0  0  0  0  0  0  0  0  0  0
   28.2235  -33.8952    0.4621 O   0  0  0  0  0  0  0  0  0  0  0  0
   26.3035  -34.5963    1.4727 N   0  0  0  0  0  0  0  0  0  0  0  0
   25.8694  -33.2698    1.8869 C   0  0  1  0  0  0  0  0  0  0  0  0
   24.5238  -32.9295    1.3586 C   0  0  0  0  0  0  0  0  0  0  0  0
   24.5957  -32.6153   -0.0829 C   0  0  0  0  0  0  0  0  0  0  0  0
   24.2274  -33.4840   -1.0903 C   0  0  0  0  0  0  0  0  0  0  0  0
   24.3168  -33.1152   -2.4135 C   0  0  0  0  0  0  0  0  0  0  0  0
   24.7758  -31.8691   -2.7840 C   0  0  0  0  0  0  0  0  0  0  0  0
   25.1441  -31.0018   -1.7682 C   0  0  0  0  0  0  0  0  0  0  0  0
   25.0610  -31.3538   -0.4441 C   0  0  0  0  0  0  0  0  0  0  0  0
   25.9620  -33.1953    3.3382 C   0  0  0  0  0  0  0  0  0  0  0  0
   26.3282  -34.1930    4.0078 O   0  0  0  0  0  0  0  0  0  0  0  0
   25.6436  -32.0084    4.0098 O   0  0  0  0  0  0  0  0  0  0  0  0
  2  1  1  0
  2  3  2  0
  4  2  1  0
  5  6  1  6
  5  4  1  0
  7  5  1  0
  8  7  2  0
 10  9  1  0
 11 10  1  0
 11 12  1  0
 13 12  1  1
 13 14  1  0
 14  7  1  0
 15 17  1  0
 15 13  1  0
 16 15  2  0
 18 19  1  1
 18 17  1  0
 20 19  1  0
 20 21  2  0
 22 21  1  0
 23 22  2  0
 24 25  2  0
 24 23  1  0
 25 20  1  0
 26 18  1  0
 26 28  1  0
 27 26  2  0
M  END
$$$$
