NMF.pdb
     RDKit          3D

 28 28  0  0  1  0  0  0  0  0999 V2000
   29.2092  -18.3622  -16.6959 N   0  0  0  0  0  0  0  0  0  0  0  0
   27.8794  -18.4547  -17.1548 C   0  0  0  0  0  0  0  0  0  0  0  0
   27.4370  -17.6878  -18.0427 O   0  0  0  0  0  0  0  0  0  0  0  0
   26.9702  -19.4776  -16.5839 C   0  0  0  0  0  0  0  0  0  0  0  0
   27.7440  -20.3796  -15.6226 C   0  0  2  0  0  0  0  0  0  0  0  0
   28.3444  -21.4011  -16.4191 N   0  0  0  0  0  0  0  0  0  0  0  0
   26.8204  -20.9321  -14.5826 C   0  0  0  0  0  0  0  0  0  0  0  0
   25.9669  -21.7376  -14.9957 O   0  0  0  0  0  0  0  0  0  0  0  0
   28.1161  -21.1674   -8.1403 C   0  0  0  0  0  0  0  0  0  0  0  0
   26.3583  -20.8151   -8.0846 S   0  0  0  0  0  0  0  0  0  0  0  0
   25.6611  -20.9893   -9.7569 C   0  0  0  0  0  0  0  0  0  0  0  0
   26.6941  -20.6740  -10.8100 C   0  0  0  0  0  0  0  0  0  0  0  0
   26.0373  -20.8232  -12.1691 C   0  0  2  0  0  0  0  0  0  0  0  0
   26.9309  -20.5497  -13.2309 N   0  0  0  0  0  0  0  0  0  0  0  0
   24.7034  -20.2287  -12.2699 C   0  0  0  0  0  0  0  0  0  0  0  0
   24.5944  -18.9853  -12.1379 O   0  0  0  0  0  0  0  0  0  0  0  0
   23.5214  -20.9631  -12.5073 N   0  0  0  0  0  0  0  0  0  0  0  0
   22.2023  -20.3757  -12.6940 C   0  0  1  0  0  0  0  0  0  0  0  0
   22.2025  -19.3155  -13.7339 C   0  0  0  0  0  0  0  0  0  0  0  0
   22.4998  -19.8902  -15.0618 C   0  0  0  0  0  0  0  0  0  0  0  0
   23.6803  -19.6954  -15.7498 C   0  0  0  0  0  0  0  0  0  0  0  0
   23.8865  -20.2714  -16.9830 C   0  0  0  0  0  0  0  0  0  0  0  0
   22.9265  -21.0621  -17.5777 C   0  0  0  0  0  0  0  0  0  0  0  0
   21.7437  -21.2537  -16.8820 C   0  0  0  0  0  0  0  0  0  0  0  0
   21.5222  -20.6869  -15.6517 C   0  0  0  0  0  0  0  0  0  0  0  0
   21.2599  -21.4534  -12.9599 C   0  0  0  0  0  0  0  0  0  0  0  0
   21.6627  -22.6345  -13.1033 O   0  0  0  0  0  0  0  0  0  0  0  0
   19.8885  -21.1884  -13.0599 O   0  0  0  0  0  0  0  0  0  0  0  0
  2  1  1  0
  2  3  2  0
  4  2  1  0
  5  6  1  6
  5  4  1  0
  7  5  1  0
  8  7  2  0
 10  9  1  0
 11 10  1  0
 11 12  1  0
 13 12  1  1
 13 14  1  0
 14  7  1  0
 15 17  1  0
 15 13  1  0
 16 15  2  0
 18 19  1  6
 18 17  1  0
 20 19  1  0
 20 21  2  0
 22 21  1  0
 23 22  2  0
 24 25  2  0
 24 23  1  0
 25 20  1  0
 26 18  1  0
 26 28  1  0
 27 26  2  0
M  END
$$$$
