NMF.pdb
     RDKit          3D

 28 28  0  0  1  0  0  0  0  0999 V2000
   28.4909  -19.4850  -16.6531 N   0  0  0  0  0  0  0  0  0  0  0  0
   28.3974  -18.1874  -16.1098 C   0  0  0  0  0  0  0  0  0  0  0  0
   29.1154  -17.2480  -16.5273 O   0  0  0  0  0  0  0  0  0  0  0  0
   27.4323  -17.9111  -15.0185 C   0  0  0  0  0  0  0  0  0  0  0  0
   26.7479  -19.2095  -14.5913 C   0  0  2  0  0  0  0  0  0  0  0  0
   25.8095  -19.5304  -15.6183 N   0  0  0  0  0  0  0  0  0  0  0  0
   26.0971  -19.0304  -13.2556 C   0  0  0  0  0  0  0  0  0  0  0  0
   25.7005  -17.8788  -13.0015 O   0  0  0  0  0  0  0  0  0  0  0  0
   20.9288  -21.3656  -11.4016 C   0  0  0  0  0  0  0  0  0  0  0  0
   21.6370  -21.3092   -9.7546 S   0  0  0  0  0  0  0  0  0  0  0  0
   23.2573  -20.4834   -9.8293 C   0  0  0  0  0  0  0  0  0  0  0  0
   23.9234  -20.7169  -11.1625 C   0  0  0  0  0  0  0  0  0  0  0  0
   25.3176  -20.1229  -11.0994 C   0  0  2  0  0  0  0  0  0  0  0  0
   25.9544  -20.1109  -12.3624 N   0  0  0  0  0  0  0  0  0  0  0  0
   26.1242  -20.5802   -9.9667 C   0  0  0  0  0  0  0  0  0  0  0  0
   26.7439  -21.6661  -10.0774 O   0  0  0  0  0  0  0  0  0  0  0  0
   26.2545  -19.8788   -8.7487 N   0  0  0  0  0  0  0  0  0  0  0  0
   27.1087  -20.2873   -7.6426 C   0  0  1  0  0  0  0  0  0  0  0  0
   27.8451  -19.1419   -7.0501 C   0  0  0  0  0  0  0  0  0  0  0  0
   28.5803  -19.5662   -5.8413 C   0  0  0  0  0  0  0  0  0  0  0  0
   29.6942  -20.3812   -5.8512 C   0  0  0  0  0  0  0  0  0  0  0  0
   30.3305  -20.7280   -4.6808 C   0  0  0  0  0  0  0  0  0  0  0  0
   29.8826  -20.2774   -3.4573 C   0  0  0  0  0  0  0  0  0  0  0  0
   28.7640  -19.4598   -3.4539 C   0  0  0  0  0  0  0  0  0  0  0  0
   28.1181  -19.1045   -4.6118 C   0  0  0  0  0  0  0  0  0  0  0  0
   26.2900  -21.0138   -6.6823 C   0  0  0  0  0  0  0  0  0  0  0  0
   25.0619  -20.7724   -6.5767 O   0  0  0  0  0  0  0  0  0  0  0  0
   26.8609  -21.9939   -5.8610 O   0  0  0  0  0  0  0  0  0  0  0  0
  2  1  1  0
  2  3  2  0
  4  2  1  0
  5  6  1  6
  5  4  1  0
  7  5  1  0
  8  7  2  0
 10  9  1  0
 11 10  1  0
 11 12  1  0
 13 12  1  6
 13 14  1  0
 14  7  1  0
 15 17  1  0
 15 13  1  0
 16 15  2  0
 18 19  1  1
 18 17  1  0
 20 19  1  0
 20 21  2  0
 22 21  1  0
 23 22  2  0
 24 25  2  0
 24 23  1  0
 25 20  1  0
 26 18  1  0
 26 28  1  0
 27 26  2  0
M  END
$$$$
