NMF.pdb
     RDKit          3D

 28 28  0  0  1  0  0  0  0  0999 V2000
   27.8794  -22.6777  -16.7012 N   0  0  0  0  0  0  0  0  0  0  0  0
   28.8422  -22.2556  -15.7619 C   0  0  0  0  0  0  0  0  0  0  0  0
   30.0152  -22.6984  -15.7805 O   0  0  0  0  0  0  0  0  0  0  0  0
   28.4747  -21.2652  -14.7213 C   0  0  0  0  0  0  0  0  0  0  0  0
   26.9930  -20.9101  -14.8446 C   0  0  2  0  0  0  0  0  0  0  0  0
   26.8897  -19.9644  -15.9092 N   0  0  0  0  0  0  0  0  0  0  0  0
   26.4860  -20.3681  -13.5451 C   0  0  0  0  0  0  0  0  0  0  0  0
   26.8704  -19.2209  -13.2551 O   0  0  0  0  0  0  0  0  0  0  0  0
   20.1471  -19.6781  -13.3735 C   0  0  0  0  0  0  0  0  0  0  0  0
   21.0651  -20.8161  -12.3344 S   0  0  0  0  0  0  0  0  0  0  0  0
   22.8292  -20.3698  -12.3734 C   0  0  0  0  0  0  0  0  0  0  0  0
   23.6119  -21.1660  -11.3590 C   0  0  0  0  0  0  0  0  0  0  0  0
   25.0704  -20.7655  -11.4742 C   0  0  2  0  0  0  0  0  0  0  0  0
   25.6300  -21.1268  -12.7220 N   0  0  0  0  0  0  0  0  0  0  0  0
   25.8778  -21.0568  -10.2885 C   0  0  0  0  0  0  0  0  0  0  0  0
   26.4363  -22.1780  -10.2095 O   0  0  0  0  0  0  0  0  0  0  0  0
   26.0736  -20.1565   -9.2190 N   0  0  0  0  0  0  0  0  0  0  0  0
   26.9019  -20.4218   -8.0514 C   0  0  1  0  0  0  0  0  0  0  0  0
   27.7411  -19.2537   -7.6819 C   0  0  0  0  0  0  0  0  0  0  0  0
   28.3924  -19.4744   -6.3746 C   0  0  0  0  0  0  0  0  0  0  0  0
   29.5435  -20.2135   -6.1910 C   0  0  0  0  0  0  0  0  0  0  0  0
   30.0955  -20.3685   -4.9395 C   0  0  0  0  0  0  0  0  0  0  0  0
   29.5233  -19.7945   -3.8243 C   0  0  0  0  0  0  0  0  0  0  0  0
   28.3679  -19.0541   -4.0151 C   0  0  0  0  0  0  0  0  0  0  0  0
   27.8047  -18.8896   -5.2561 C   0  0  0  0  0  0  0  0  0  0  0  0
   26.0346  -20.8805   -6.9753 C   0  0  0  0  0  0  0  0  0  0  0  0
   24.8309  -20.5248   -6.9284 O   0  0  0  0  0  0  0  0  0  0  0  0
   26.5307  -21.7263   -5.9756 O   0  0  0  0  0  0  0  0  0  0  0  0
  2  1  1  0
  2  3  2  0
  4  2  1  0
  5  6  1  6
  5  4  1  0
  7  5  1  0
  8  7  2  0
 10  9  1  0
 11 10  1  0
 11 12  1  0
 13 12  1  1
 13 14  1  0
 14  7  1  0
 15 17  1  0
 15 13  1  0
 16 15  2  0
 18 19  1  1
 18 17  1  0
 20 19  1  0
 20 21  2  0
 22 21  1  0
 23 22  2  0
 24 25  2  0
 24 23  1  0
 25 20  1  0
 26 18  1  0
 26 28  1  0
 27 26  2  0
M  END
$$$$
