NMF.pdb
     RDKit          3D

 28 28  0  0  1  0  0  0  0  0999 V2000
   27.5721  -19.3512  -18.7671 N   0  0  0  0  0  0  0  0  0  0  0  0
   27.5291  -19.2063  -17.3654 C   0  0  0  0  0  0  0  0  0  0  0  0
   28.3048  -18.4275  -16.7622 O   0  0  0  0  0  0  0  0  0  0  0  0
   26.5490  -19.9863  -16.5717 C   0  0  0  0  0  0  0  0  0  0  0  0
   27.2857  -20.9554  -15.6470 C   0  0  2  0  0  0  0  0  0  0  0  0
   27.7130  -22.0475  -16.4613 N   0  0  0  0  0  0  0  0  0  0  0  0
   26.3831  -21.3884  -14.5346 C   0  0  0  0  0  0  0  0  0  0  0  0
   25.5556  -22.2704  -14.8268 O   0  0  0  0  0  0  0  0  0  0  0  0
   27.7013  -20.9234   -8.1522 C   0  0  0  0  0  0  0  0  0  0  0  0
   25.9295  -20.6492   -8.1019 S   0  0  0  0  0  0  0  0  0  0  0  0
   25.2289  -20.9667   -9.7515 C   0  0  0  0  0  0  0  0  0  0  0  0
   26.2200  -20.6242  -10.8360 C   0  0  0  0  0  0  0  0  0  0  0  0
   25.5706  -20.9212  -12.1742 C   0  0  2  0  0  0  0  0  0  0  0  0
   26.4841  -20.8197  -13.2493 N   0  0  0  0  0  0  0  0  0  0  0  0
   24.2620  -20.2946  -12.3689 C   0  0  0  0  0  0  0  0  0  0  0  0
   24.2094  -19.0443  -12.4659 O   0  0  0  0  0  0  0  0  0  0  0  0
   23.0453  -21.0050  -12.4561 N   0  0  0  0  0  0  0  0  0  0  0  0
   21.7512  -20.4031  -12.7438 C   0  0  1  0  0  0  0  0  0  0  0  0
   21.7803  -19.5719  -13.9741 C   0  0  0  0  0  0  0  0  0  0  0  0
   22.1302  -20.3954  -15.1494 C   0  0  0  0  0  0  0  0  0  0  0  0
   21.3875  -21.4682  -15.5996 C   0  0  0  0  0  0  0  0  0  0  0  0
   21.7756  -22.1844  -16.7094 C   0  0  0  0  0  0  0  0  0  0  0  0
   22.9165  -21.8605  -17.4123 C   0  0  0  0  0  0  0  0  0  0  0  0
   23.6577  -20.7828  -16.9552 C   0  0  0  0  0  0  0  0  0  0  0  0
   23.2847  -20.0582  -15.8507 C   0  0  0  0  0  0  0  0  0  0  0  0
   20.7557  -21.4651  -12.7808 C   0  0  0  0  0  0  0  0  0  0  0  0
   21.0946  -22.6650  -12.6291 O   0  0  0  0  0  0  0  0  0  0  0  0
   19.4037  -21.1637  -12.9866 O   0  0  0  0  0  0  0  0  0  0  0  0
  2  1  1  0
  2  3  2  0
  4  2  1  0
  5  6  1  6
  5  4  1  0
  7  5  1  0
  8  7  2  0
 10  9  1  0
 11 10  1  0
 11 12  1  0
 13 12  1  1
 13 14  1  0
 14  7  1  0
 15 17  1  0
 15 13  1  0
 16 15  2  0
 18 19  1  6
 18 17  1  0
 20 19  1  0
 20 21  2  0
 22 21  1  0
 23 22  2  0
 24 25  2  0
 24 23  1  0
 25 20  1  0
 26 18  1  0
 26 28  1  0
 27 26  2  0
M  END
$$$$
