KFG.pdb
     RDKit          3D

 25 25  0  0  1  0  0  0  0  0999 V2000
    7.0401  -17.7348   19.8047 N   0  0  0  0  0  0  0  0  0  0  0  0
    6.8603  -18.0721   21.1890 C   0  0  1  0  0  0  0  0  0  0  0  0
    7.4754  -19.3760   21.5742 C   0  0  0  0  0  0  0  0  0  0  0  0
    6.8209  -20.5869   20.9988 C   0  0  0  0  0  0  0  0  0  0  0  0
    7.4097  -21.8941   21.4192 C   0  0  0  0  0  0  0  0  0  0  0  0
    6.7136  -23.0433   20.7375 C   0  0  0  0  0  0  0  0  0  0  0  0
    6.9895  -23.0241   19.3204 N   0  0  0  0  0  0  0  0  0  0  0  0
    7.4061  -16.9763   22.0281 C   0  0  0  0  0  0  0  0  0  0  0  0
    8.2576  -16.2120   21.5427 O   0  0  0  0  0  0  0  0  0  0  0  0
    7.0093  -16.7481   23.3630 N   0  0  0  0  0  0  0  0  0  0  0  0
    7.5320  -15.6429   24.0965 C   0  0  1  0  0  0  0  0  0  0  0  0
    6.4917  -15.0478   25.0161 C   0  0  0  0  0  0  0  0  0  0  0  0
    6.9132  -13.8184   25.6917 C   0  0  0  0  0  0  0  0  0  0  0  0
    6.6786  -12.5472   25.2266 C   0  0  0  0  0  0  0  0  0  0  0  0
    7.0971  -11.4383   25.9117 C   0  0  0  0  0  0  0  0  0  0  0  0
    7.7667  -11.5794   27.0898 C   0  0  0  0  0  0  0  0  0  0  0  0
    8.0268  -12.8326   27.5986 C   0  0  0  0  0  0  0  0  0  0  0  0
    7.5950  -13.9264   26.8897 C   0  0  0  0  0  0  0  0  0  0  0  0
    8.7762  -16.0232   24.7616 C   0  0  0  0  0  0  0  0  0  0  0  0
    8.8349  -16.6244   25.8731 O   0  0  0  0  0  0  0  0  0  0  0  0
   10.0244  -15.7115   24.1448 N   0  0  0  0  0  0  0  0  0  0  0  0
   11.2651  -15.9790   24.8426 C   0  0  0  0  0  0  0  0  0  0  0  0
   12.4500  -15.6914   24.0022 C   0  0  0  0  0  0  0  0  0  0  0  0
   12.4078  -15.5756   22.7516 O   0  0  0  0  0  0  0  0  0  0  0  0
   13.6849  -15.5381   24.6133 O   0  0  0  0  0  0  0  0  0  0  0  0
  2  3  1  0
  2  1  1  6
  4  3  1  0
  5  4  1  0
  6  7  1  0
  6  5  1  0
  8  2  1  0
  9  8  2  0
 10  8  1  0
 11 10  1  0
 11 12  1  1
 12 13  1  0
 13 18  2  0
 14 13  1  0
 14 15  2  0
 15 16  1  0
 16 17  2  0
 18 17  1  0
 19 20  2  0
 19 11  1  0
 21 19  1  0
 22 21  1  0
 23 22  1  0
 23 25  1  0
 24 23  2  0
M  END
$$$$
