KFG.pdb
     RDKit          3D

 25 25  0  0  1  0  0  0  0  0999 V2000
    7.6631  -16.3309   21.1022 N   0  0  0  0  0  0  0  0  0  0  0  0
    8.6014  -15.2507   21.2247 C   0  0  1  0  0  0  0  0  0  0  0  0
    8.1538  -13.9888   20.5659 C   0  0  0  0  0  0  0  0  0  0  0  0
    7.5557  -14.1528   19.2091 C   0  0  0  0  0  0  0  0  0  0  0  0
    8.3063  -13.4993   18.0948 C   0  0  0  0  0  0  0  0  0  0  0  0
    7.5439  -13.5995   16.7992 C   0  0  0  0  0  0  0  0  0  0  0  0
    8.2937  -12.9835   15.7301 N   0  0  0  0  0  0  0  0  0  0  0  0
    8.8776  -15.0116   22.6633 C   0  0  0  0  0  0  0  0  0  0  0  0
    9.5937  -14.0490   22.9880 O   0  0  0  0  0  0  0  0  0  0  0  0
    8.3677  -15.8243   23.6982 N   0  0  0  0  0  0  0  0  0  0  0  0
    8.6496  -15.5231   25.0630 C   0  0  1  0  0  0  0  0  0  0  0  0
    7.3825  -15.2805   25.8489 C   0  0  0  0  0  0  0  0  0  0  0  0
    7.0329  -13.8676   26.0127 C   0  0  0  0  0  0  0  0  0  0  0  0
    6.0803  -13.2044   25.2779 C   0  0  0  0  0  0  0  0  0  0  0  0
    5.7992  -11.8808   25.4858 C   0  0  0  0  0  0  0  0  0  0  0  0
    6.4728  -11.1850   26.4442 C   0  0  0  0  0  0  0  0  0  0  0  0
    7.4372  -11.8045   27.2077 C   0  0  0  0  0  0  0  0  0  0  0  0
    7.6978  -13.1327   26.9769 C   0  0  0  0  0  0  0  0  0  0  0  0
    9.5254  -16.5441   25.6335 C   0  0  0  0  0  0  0  0  0  0  0  0
    9.6281  -16.7838   26.8714 O   0  0  0  0  0  0  0  0  0  0  0  0
   10.3309  -17.3408   24.7664 N   0  0  0  0  0  0  0  0  0  0  0  0
   11.1917  -18.3677   25.3161 C   0  0  0  0  0  0  0  0  0  0  0  0
   11.8273  -19.1866   24.2586 C   0  0  0  0  0  0  0  0  0  0  0  0
   11.7878  -18.9010   23.0355 O   0  0  0  0  0  0  0  0  0  0  0  0
   12.5094  -20.3380   24.6205 O   0  0  0  0  0  0  0  0  0  0  0  0
  2  3  1  0
  2  1  1  1
  4  3  1  0
  5  4  1  0
  6  7  1  0
  6  5  1  0
  8  2  1  0
  9  8  2  0
 10  8  1  0
 11 10  1  0
 11 12  1  1
 12 13  1  0
 13 18  2  0
 14 13  1  0
 14 15  2  0
 15 16  1  0
 16 17  2  0
 18 17  1  0
 19 20  2  0
 19 11  1  0
 21 19  1  0
 22 21  1  0
 23 22  1  0
 23 25  1  0
 24 23  2  0
M  END
$$$$
