KFG.pdb
     RDKit          3D

 25 25  0  0  1  0  0  0  0  0999 V2000
    8.7268  -12.5030   18.6012 N   0  0  0  0  0  0  0  0  0  0  0  0
    8.2126  -13.6846   19.2350 C   0  0  1  0  0  0  0  0  0  0  0  0
    8.7037  -14.9551   18.6257 C   0  0  0  0  0  0  0  0  0  0  0  0
    8.0140  -15.3708   17.3699 C   0  0  0  0  0  0  0  0  0  0  0  0
    8.4069  -16.7098   16.8362 C   0  0  0  0  0  0  0  0  0  0  0  0
    7.7151  -16.9934   15.5282 C   0  0  0  0  0  0  0  0  0  0  0  0
    8.0456  -18.3209   15.0665 N   0  0  0  0  0  0  0  0  0  0  0  0
    8.5478  -13.6423   20.6803 C   0  0  0  0  0  0  0  0  0  0  0  0
    9.6113  -13.1073   21.0373 O   0  0  0  0  0  0  0  0  0  0  0  0
    7.7181  -14.1812   21.6867 N   0  0  0  0  0  0  0  0  0  0  0  0
    7.9247  -13.8421   23.0561 C   0  0  1  0  0  0  0  0  0  0  0  0
    6.6547  -13.3351   23.6979 C   0  0  0  0  0  0  0  0  0  0  0  0
    6.7824  -13.0137   25.1213 C   0  0  0  0  0  0  0  0  0  0  0  0
    6.1939  -13.7208   26.1415 C   0  0  0  0  0  0  0  0  0  0  0  0
    6.3583  -13.3680   27.4539 C   0  0  0  0  0  0  0  0  0  0  0  0
    7.1235  -12.2880   27.7770 C   0  0  0  0  0  0  0  0  0  0  0  0
    7.7349  -11.5462   26.7907 C   0  0  0  0  0  0  0  0  0  0  0  0
    7.5522  -11.9237   25.4833 C   0  0  0  0  0  0  0  0  0  0  0  0
    8.5521  -14.9571   23.7618 C   0  0  0  0  0  0  0  0  0  0  0  0
    8.7509  -14.9883   25.0107 O   0  0  0  0  0  0  0  0  0  0  0  0
    8.9801  -16.1013   23.0248 N   0  0  0  0  0  0  0  0  0  0  0  0
    9.5393  -17.2433   23.7184 C   0  0  0  0  0  0  0  0  0  0  0  0
   11.0033  -17.1199   23.9043 C   0  0  0  0  0  0  0  0  0  0  0  0
   11.7203  -18.0155   24.4171 O   0  0  0  0  0  0  0  0  0  0  0  0
   11.6359  -15.9561   23.4950 O   0  0  0  0  0  0  0  0  0  0  0  0
  2  3  1  0
  2  1  1  6
  4  3  1  0
  5  4  1  0
  6  7  1  0
  6  5  1  0
  8  2  1  0
  9  8  2  0
 10  8  1  0
 11 10  1  0
 11 12  1  1
 12 13  1  0
 13 18  2  0
 14 13  1  0
 14 15  2  0
 15 16  1  0
 16 17  2  0
 18 17  1  0
 19 20  2  0
 19 11  1  0
 21 19  1  0
 22 21  1  0
 23 22  1  0
 23 25  1  0
 24 23  2  0
M  END
$$$$
