KFG.pdb
     RDKit          3D

 25 25  0  0  1  0  0  0  0  0999 V2000
    6.1989  -17.1543   20.0544 N   0  0  0  0  0  0  0  0  0  0  0  0
    7.1762  -16.1803   20.4525 C   0  0  1  0  0  0  0  0  0  0  0  0
    7.2973  -15.0307   19.5089 C   0  0  0  0  0  0  0  0  0  0  0  0
    7.7165  -15.3835   18.1213 C   0  0  0  0  0  0  0  0  0  0  0  0
    7.7865  -14.2396   17.1629 C   0  0  0  0  0  0  0  0  0  0  0  0
    8.1825  -14.7113   15.7879 C   0  0  0  0  0  0  0  0  0  0  0  0
    8.3546  -13.5831   14.9036 N   0  0  0  0  0  0  0  0  0  0  0  0
    6.8476  -15.6958   21.8164 C   0  0  0  0  0  0  0  0  0  0  0  0
    5.8229  -15.0124   21.9830 O   0  0  0  0  0  0  0  0  0  0  0  0
    7.6412  -15.9695   22.9508 N   0  0  0  0  0  0  0  0  0  0  0  0
    7.8567  -14.9696   23.9440 C   0  0  1  0  0  0  0  0  0  0  0  0
    6.9702  -15.1858   25.1479 C   0  0  0  0  0  0  0  0  0  0  0  0
    7.0389  -14.1194   26.1496 C   0  0  0  0  0  0  0  0  0  0  0  0
    7.8400  -14.1409   27.2653 C   0  0  0  0  0  0  0  0  0  0  0  0
    7.8593  -13.1060   28.1613 C   0  0  0  0  0  0  0  0  0  0  0  0
    7.0684  -12.0154   27.9576 C   0  0  0  0  0  0  0  0  0  0  0  0
    6.2473  -11.9456   26.8540 C   0  0  0  0  0  0  0  0  0  0  0  0
    6.2490  -12.9984   25.9726 C   0  0  0  0  0  0  0  0  0  0  0  0
    9.2806  -14.8680   24.2556 C   0  0  0  0  0  0  0  0  0  0  0  0
    9.8268  -13.8484   24.7679 O   0  0  0  0  0  0  0  0  0  0  0  0
   10.1397  -15.9725   23.9770 N   0  0  0  0  0  0  0  0  0  0  0  0
   11.5526  -15.8881   24.2843 C   0  0  0  0  0  0  0  0  0  0  0  0
   12.2944  -17.0857   23.8277 C   0  0  0  0  0  0  0  0  0  0  0  0
   11.7680  -18.0331   23.1919 O   0  0  0  0  0  0  0  0  0  0  0  0
   13.6483  -17.1840   24.1092 O   0  0  0  0  0  0  0  0  0  0  0  0
  2  3  1  0
  2  1  1  6
  4  3  1  0
  5  4  1  0
  6  7  1  0
  6  5  1  0
  8  2  1  0
  9  8  2  0
 10  8  1  0
 11 10  1  0
 11 12  1  1
 12 13  1  0
 13 18  2  0
 14 13  1  0
 14 15  2  0
 15 16  1  0
 16 17  2  0
 18 17  1  0
 19 20  2  0
 19 11  1  0
 21 19  1  0
 22 21  1  0
 23 22  1  0
 23 25  1  0
 24 23  2  0
M  END
$$$$
