KFG.pdb
     RDKit          3D

 25 25  0  0  1  0  0  0  0  0999 V2000
    7.2786  -16.5078   21.3992 N   0  0  0  0  0  0  0  0  0  0  0  0
    8.2955  -15.4964   21.3255 C   0  0  1  0  0  0  0  0  0  0  0  0
    7.8377  -14.2304   20.6818 C   0  0  0  0  0  0  0  0  0  0  0  0
    7.5483  -14.3236   19.2213 C   0  0  0  0  0  0  0  0  0  0  0  0
    8.1410  -13.2403   18.3803 C   0  0  0  0  0  0  0  0  0  0  0  0
    7.7321  -13.3921   16.9382 C   0  0  0  0  0  0  0  0  0  0  0  0
    8.2882  -12.3205   16.1464 N   0  0  0  0  0  0  0  0  0  0  0  0
    8.8065  -15.2247   22.6923 C   0  0  0  0  0  0  0  0  0  0  0  0
    9.7172  -14.3921   22.8410 O   0  0  0  0  0  0  0  0  0  0  0  0
    8.3121  -15.8650   23.8485 N   0  0  0  0  0  0  0  0  0  0  0  0
    8.8690  -15.5805   25.1298 C   0  0  1  0  0  0  0  0  0  0  0  0
    7.7921  -15.2929   26.1494 C   0  0  0  0  0  0  0  0  0  0  0  0
    7.3513  -13.8966   26.1868 C   0  0  0  0  0  0  0  0  0  0  0  0
    8.0769  -12.8314   25.7113 C   0  0  0  0  0  0  0  0  0  0  0  0
    7.6027  -11.5487   25.7732 C   0  0  0  0  0  0  0  0  0  0  0  0
    6.3787  -11.3018   26.3184 C   0  0  0  0  0  0  0  0  0  0  0  0
    5.6123  -12.3356   26.8091 C   0  0  0  0  0  0  0  0  0  0  0  0
    6.1137  -13.6116   26.7335 C   0  0  0  0  0  0  0  0  0  0  0  0
    9.8004  -16.6366   25.5199 C   0  0  0  0  0  0  0  0  0  0  0  0
   10.3455  -16.7211   26.6583 O   0  0  0  0  0  0  0  0  0  0  0  0
   10.1388  -17.6551   24.5798 N   0  0  0  0  0  0  0  0  0  0  0  0
   10.9404  -18.7879   24.9947 C   0  0  0  0  0  0  0  0  0  0  0  0
   12.3796  -18.5856   24.7106 C   0  0  0  0  0  0  0  0  0  0  0  0
   13.2419  -19.4963   24.7890 O   0  0  0  0  0  0  0  0  0  0  0  0
   12.8187  -17.3254   24.3350 O   0  0  0  0  0  0  0  0  0  0  0  0
  2  3  1  0
  2  1  1  1
  4  3  1  0
  5  4  1  0
  6  7  1  0
  6  5  1  0
  8  2  1  0
  9  8  2  0
 10  8  1  0
 11 10  1  0
 11 12  1  1
 12 13  1  0
 13 18  2  0
 14 13  1  0
 14 15  2  0
 15 16  1  0
 16 17  2  0
 18 17  1  0
 19 20  2  0
 19 11  1  0
 21 19  1  0
 22 21  1  0
 23 22  1  0
 23 25  1  0
 24 23  2  0
M  END
$$$$
