KFG.pdb
     RDKit          3D

 25 25  0  0  1  0  0  0  0  0999 V2000
    8.7750  -15.8303   19.2480 N   0  0  0  0  0  0  0  0  0  0  0  0
    8.2337  -16.5645   20.3572 C   0  0  1  0  0  0  0  0  0  0  0  0
    8.6671  -17.9917   20.4016 C   0  0  0  0  0  0  0  0  0  0  0  0
    8.7201  -18.6856   19.0820 C   0  0  0  0  0  0  0  0  0  0  0  0
    9.1445  -20.1173   19.1277 C   0  0  0  0  0  0  0  0  0  0  0  0
    9.1500  -20.7225   17.7480 C   0  0  0  0  0  0  0  0  0  0  0  0
    9.6320  -22.0825   17.8016 N   0  0  0  0  0  0  0  0  0  0  0  0
    8.6010  -15.8743   21.6188 C   0  0  0  0  0  0  0  0  0  0  0  0
    9.7631  -15.4573   21.7617 O   0  0  0  0  0  0  0  0  0  0  0  0
    7.6956  -15.6605   22.6799 N   0  0  0  0  0  0  0  0  0  0  0  0
    8.1266  -15.0356   23.8868 C   0  0  1  0  0  0  0  0  0  0  0  0
    6.9798  -14.3567   24.5981 C   0  0  0  0  0  0  0  0  0  0  0  0
    7.3584  -13.6620   25.8308 C   0  0  0  0  0  0  0  0  0  0  0  0
    7.4789  -12.2995   25.9586 C   0  0  0  0  0  0  0  0  0  0  0  0
    7.8329  -11.7134   27.1440 C   0  0  0  0  0  0  0  0  0  0  0  0
    8.0767  -12.4868   28.2389 C   0  0  0  0  0  0  0  0  0  0  0  0
    7.9693  -13.8577   28.1624 C   0  0  0  0  0  0  0  0  0  0  0  0
    7.6125  -14.4176   26.9605 C   0  0  0  0  0  0  0  0  0  0  0  0
    8.8663  -15.9887   24.7110 C   0  0  0  0  0  0  0  0  0  0  0  0
    8.3684  -17.0432   25.2013 O   0  0  0  0  0  0  0  0  0  0  0  0
   10.2418  -15.7449   25.0012 N   0  0  0  0  0  0  0  0  0  0  0  0
   10.9855  -16.6757   25.8248 C   0  0  0  0  0  0  0  0  0  0  0  0
   12.4028  -16.2748   25.9776 C   0  0  0  0  0  0  0  0  0  0  0  0
   12.9164  -15.2877   25.3938 O   0  0  0  0  0  0  0  0  0  0  0  0
   13.2250  -17.0200   26.8087 O   0  0  0  0  0  0  0  0  0  0  0  0
  2  3  1  0
  2  1  1  6
  4  3  1  0
  5  4  1  0
  6  7  1  0
  6  5  1  0
  8  2  1  0
  9  8  2  0
 10  8  1  0
 11 10  1  0
 11 12  1  1
 12 13  1  0
 13 18  2  0
 14 13  1  0
 14 15  2  0
 15 16  1  0
 16 17  2  0
 18 17  1  0
 19 20  2  0
 19 11  1  0
 21 19  1  0
 22 21  1  0
 23 22  1  0
 23 25  1  0
 24 23  2  0
M  END
$$$$
