KFG.pdb
     RDKit          3D

 25 25  0  0  1  0  0  0  0  0999 V2000
    7.3625  -19.0031   21.7277 N   0  0  0  0  0  0  0  0  0  0  0  0
    7.7719  -17.8819   20.9292 C   0  0  1  0  0  0  0  0  0  0  0  0
    6.8311  -17.5620   19.8160 C   0  0  0  0  0  0  0  0  0  0  0  0
    6.4381  -18.7178   18.9585 C   0  0  0  0  0  0  0  0  0  0  0  0
    5.6033  -18.3769   17.7673 C   0  0  0  0  0  0  0  0  0  0  0  0
    5.2537  -19.6141   16.9818 C   0  0  0  0  0  0  0  0  0  0  0  0
    3.9472  -20.0954   17.3642 N   0  0  0  0  0  0  0  0  0  0  0  0
    7.9495  -16.7006   21.8101 C   0  0  0  0  0  0  0  0  0  0  0  0
    8.3161  -15.6241   21.3086 O   0  0  0  0  0  0  0  0  0  0  0  0
    7.7231  -16.7284   23.2027 N   0  0  0  0  0  0  0  0  0  0  0  0
    7.9938  -15.5813   24.0050 C   0  0  1  0  0  0  0  0  0  0  0  0
    6.8477  -15.2782   24.9412 C   0  0  0  0  0  0  0  0  0  0  0  0
    6.9406  -13.9789   25.6110 C   0  0  0  0  0  0  0  0  0  0  0  0
    6.4682  -12.7955   25.0975 C   0  0  0  0  0  0  0  0  0  0  0  0
    6.5838  -11.6144   25.7798 C   0  0  0  0  0  0  0  0  0  0  0  0
    7.1813  -11.5919   27.0041 C   0  0  0  0  0  0  0  0  0  0  0  0
    7.6712  -12.7517   27.5624 C   0  0  0  0  0  0  0  0  0  0  0  0
    7.5411  -13.9214   26.8551 C   0  0  0  0  0  0  0  0  0  0  0  0
    9.2892  -15.7232   24.6658 C   0  0  0  0  0  0  0  0  0  0  0  0
    9.4432  -15.8256   25.9172 O   0  0  0  0  0  0  0  0  0  0  0  0
   10.4785  -15.7520   23.8782 N   0  0  0  0  0  0  0  0  0  0  0  0
   11.7719  -15.5964   24.5114 C   0  0  0  0  0  0  0  0  0  0  0  0
   12.8869  -15.8181   23.5625 C   0  0  0  0  0  0  0  0  0  0  0  0
   12.7256  -16.0864   22.3455 O   0  0  0  0  0  0  0  0  0  0  0  0
   14.1904  -15.7283   24.0260 O   0  0  0  0  0  0  0  0  0  0  0  0
  2  3  1  0
  2  1  1  1
  4  3  1  0
  5  4  1  0
  6  7  1  0
  6  5  1  0
  8  2  1  0
  9  8  2  0
 10  8  1  0
 11 10  1  0
 11 12  1  1
 12 13  1  0
 13 18  2  0
 14 13  1  0
 14 15  2  0
 15 16  1  0
 16 17  2  0
 18 17  1  0
 19 20  2  0
 19 11  1  0
 21 19  1  0
 22 21  1  0
 23 22  1  0
 23 25  1  0
 24 23  2  0
M  END
$$$$
