KFG.pdb
     RDKit          3D

 25 25  0  0  1  0  0  0  0  0999 V2000
    7.8026  -12.9854   18.3426 N   0  0  0  0  0  0  0  0  0  0  0  0
    7.7058  -14.1827   19.1297 C   0  0  1  0  0  0  0  0  0  0  0  0
    8.5341  -15.3106   18.6114 C   0  0  0  0  0  0  0  0  0  0  0  0
    7.7771  -16.3973   17.9246 C   0  0  0  0  0  0  0  0  0  0  0  0
    8.6053  -17.5315   17.4149 C   0  0  0  0  0  0  0  0  0  0  0  0
    7.7549  -18.5294   16.6726 C   0  0  0  0  0  0  0  0  0  0  0  0
    8.5805  -19.5810   16.1276 N   0  0  0  0  0  0  0  0  0  0  0  0
    8.0790  -13.8706   20.5319 C   0  0  0  0  0  0  0  0  0  0  0  0
    8.9115  -12.9737   20.7490 O   0  0  0  0  0  0  0  0  0  0  0  0
    7.5361  -14.5416   21.6484 N   0  0  0  0  0  0  0  0  0  0  0  0
    7.8114  -14.0882   22.9718 C   0  0  1  0  0  0  0  0  0  0  0  0
    6.5961  -13.4487   23.6013 C   0  0  0  0  0  0  0  0  0  0  0  0
    6.8023  -12.9768   24.9726 C   0  0  0  0  0  0  0  0  0  0  0  0
    6.3613  -13.6253   26.1005 C   0  0  0  0  0  0  0  0  0  0  0  0
    6.5925  -13.1303   27.3557 C   0  0  0  0  0  0  0  0  0  0  0  0
    7.2775  -11.9627   27.5106 C   0  0  0  0  0  0  0  0  0  0  0  0
    7.7406  -11.2746   26.4112 C   0  0  0  0  0  0  0  0  0  0  0  0
    7.4939  -11.7951   25.1648 C   0  0  0  0  0  0  0  0  0  0  0  0
    8.4007  -15.1671   23.7614 C   0  0  0  0  0  0  0  0  0  0  0  0
    7.7994  -16.2378   24.0654 O   0  0  0  0  0  0  0  0  0  0  0  0
    9.7397  -15.0374   24.2364 N   0  0  0  0  0  0  0  0  0  0  0  0
   10.2878  -16.0275   25.1405 C   0  0  0  0  0  0  0  0  0  0  0  0
   11.2618  -16.9174   24.4678 C   0  0  0  0  0  0  0  0  0  0  0  0
   11.5339  -16.8558   23.2425 O   0  0  0  0  0  0  0  0  0  0  0  0
   11.9207  -17.8796   25.2175 O   0  0  0  0  0  0  0  0  0  0  0  0
  2  3  1  0
  2  1  1  6
  4  3  1  0
  5  4  1  0
  6  7  1  0
  6  5  1  0
  8  2  1  0
  9  8  2  0
 10  8  1  0
 11 10  1  0
 11 12  1  1
 12 13  1  0
 13 18  2  0
 14 13  1  0
 14 15  2  0
 15 16  1  0
 16 17  2  0
 18 17  1  0
 19 20  2  0
 19 11  1  0
 21 19  1  0
 22 21  1  0
 23 22  1  0
 23 25  1  0
 24 23  2  0
M  END
$$$$
