KFG.pdb
     RDKit          3D

 25 25  0  0  1  0  0  0  0  0999 V2000
    7.4192  -15.8064   21.2505 N   0  0  0  0  0  0  0  0  0  0  0  0
    8.4913  -14.8542   21.3284 C   0  0  1  0  0  0  0  0  0  0  0  0
    8.1155  -13.4872   20.8627 C   0  0  0  0  0  0  0  0  0  0  0  0
    7.5192  -13.4180   19.4970 C   0  0  0  0  0  0  0  0  0  0  0  0
    8.4954  -13.4816   18.3678 C   0  0  0  0  0  0  0  0  0  0  0  0
    7.7908  -13.3852   17.0395 C   0  0  0  0  0  0  0  0  0  0  0  0
    8.7137  -13.6609   15.9640 N   0  0  0  0  0  0  0  0  0  0  0  0
    8.9924  -14.8039   22.7246 C   0  0  0  0  0  0  0  0  0  0  0  0
    9.8872  -13.9918   23.0152 O   0  0  0  0  0  0  0  0  0  0  0  0
    8.5054  -15.6353   23.7556 N   0  0  0  0  0  0  0  0  0  0  0  0
    9.0108  -15.5164   25.0835 C   0  0  1  0  0  0  0  0  0  0  0  0
    7.8943  -15.3501   26.0873 C   0  0  0  0  0  0  0  0  0  0  0  0
    7.4512  -13.9669   26.2763 C   0  0  0  0  0  0  0  0  0  0  0  0
    8.2493  -12.9407   26.7204 C   0  0  0  0  0  0  0  0  0  0  0  0
    7.7715  -11.6667   26.8708 C   0  0  0  0  0  0  0  0  0  0  0  0
    6.4703  -11.3893   26.5766 C   0  0  0  0  0  0  0  0  0  0  0  0
    5.6294  -12.3834   26.1278 C   0  0  0  0  0  0  0  0  0  0  0  0
    6.1364  -13.6517   25.9867 C   0  0  0  0  0  0  0  0  0  0  0  0
    9.9234  -16.6194   25.3756 C   0  0  0  0  0  0  0  0  0  0  0  0
   10.4054  -16.8612   26.5200 O   0  0  0  0  0  0  0  0  0  0  0  0
   10.3171  -17.5006   24.3248 N   0  0  0  0  0  0  0  0  0  0  0  0
   11.1307  -18.6623   24.6189 C   0  0  0  0  0  0  0  0  0  0  0  0
   11.4575  -19.4364   23.3995 C   0  0  0  0  0  0  0  0  0  0  0  0
   10.9236  -19.2347   22.2800 O   0  0  0  0  0  0  0  0  0  0  0  0
   12.4047  -20.4456   23.4792 O   0  0  0  0  0  0  0  0  0  0  0  0
  2  3  1  0
  2  1  1  1
  4  3  1  0
  5  4  1  0
  6  7  1  0
  6  5  1  0
  8  2  1  0
  9  8  2  0
 10  8  1  0
 11 10  1  0
 11 12  1  1
 12 13  1  0
 13 18  2  0
 14 13  1  0
 14 15  2  0
 15 16  1  0
 16 17  2  0
 18 17  1  0
 19 20  2  0
 19 11  1  0
 21 19  1  0
 22 21  1  0
 23 22  1  0
 23 25  1  0
 24 23  2  0
M  END
$$$$
