KFG.pdb
     RDKit          3D

 25 25  0  0  1  0  0  0  0  0999 V2000
    8.9601  -16.8087   19.6339 N   0  0  0  0  0  0  0  0  0  0  0  0
    8.7140  -17.3712   20.9320 C   0  0  1  0  0  0  0  0  0  0  0  0
    9.6308  -18.4951   21.2832 C   0  0  0  0  0  0  0  0  0  0  0  0
   10.2441  -19.2063   20.1241 C   0  0  0  0  0  0  0  0  0  0  0  0
   11.1141  -20.3695   20.4737 C   0  0  0  0  0  0  0  0  0  0  0  0
   11.7517  -20.9560   19.2410 C   0  0  0  0  0  0  0  0  0  0  0  0
   12.5291  -22.1222   19.5880 N   0  0  0  0  0  0  0  0  0  0  0  0
    8.8040  -16.2948   21.9500 C   0  0  0  0  0  0  0  0  0  0  0  0
    9.6081  -15.3636   21.7735 O   0  0  0  0  0  0  0  0  0  0  0  0
    8.0191  -16.2662   23.1224 N   0  0  0  0  0  0  0  0  0  0  0  0
    8.1080  -15.1689   24.0285 C   0  0  1  0  0  0  0  0  0  0  0  0
    6.8033  -14.9458   24.7564 C   0  0  0  0  0  0  0  0  0  0  0  0
    6.7817  -13.7549   25.6089 C   0  0  0  0  0  0  0  0  0  0  0  0
    7.3468  -13.6738   26.8584 C   0  0  0  0  0  0  0  0  0  0  0  0
    7.2943  -12.5257   27.6021 C   0  0  0  0  0  0  0  0  0  0  0  0
    6.6681  -11.4220   27.1059 C   0  0  0  0  0  0  0  0  0  0  0  0
    6.0859  -11.4524   25.8581 C   0  0  0  0  0  0  0  0  0  0  0  0
    6.1543  -12.6176   25.1349 C   0  0  0  0  0  0  0  0  0  0  0  0
    9.2657  -15.3320   24.9048 C   0  0  0  0  0  0  0  0  0  0  0  0
    9.7244  -14.4232   25.6558 O   0  0  0  0  0  0  0  0  0  0  0  0
    9.9469  -16.5851   24.9405 N   0  0  0  0  0  0  0  0  0  0  0  0
   11.0656  -16.7773   25.8402 C   0  0  0  0  0  0  0  0  0  0  0  0
   10.6546  -17.4164   27.1113 C   0  0  0  0  0  0  0  0  0  0  0  0
   11.4480  -17.6782   28.0500 O   0  0  0  0  0  0  0  0  0  0  0  0
    9.3218  -17.7519   27.2934 O   0  0  0  0  0  0  0  0  0  0  0  0
  2  3  1  0
  2  1  1  6
  4  3  1  0
  5  4  1  0
  6  7  1  0
  6  5  1  0
  8  2  1  0
  9  8  2  0
 10  8  1  0
 11 10  1  0
 11 12  1  1
 12 13  1  0
 13 18  2  0
 14 13  1  0
 14 15  2  0
 15 16  1  0
 16 17  2  0
 18 17  1  0
 19 20  2  0
 19 11  1  0
 21 19  1  0
 22 21  1  0
 23 22  1  0
 23 25  1  0
 24 23  2  0
M  END
$$$$
