KFG.pdb
     RDKit          3D

 25 25  0  0  1  0  0  0  0  0999 V2000
    7.3084  -16.4593   21.2815 N   0  0  0  0  0  0  0  0  0  0  0  0
    8.3812  -15.5054   21.2453 C   0  0  1  0  0  0  0  0  0  0  0  0
    8.0350  -14.2387   20.5364 C   0  0  0  0  0  0  0  0  0  0  0  0
    7.6577  -14.3915   19.1012 C   0  0  0  0  0  0  0  0  0  0  0  0
    8.2024  -13.3480   18.1811 C   0  0  0  0  0  0  0  0  0  0  0  0
    7.7481  -13.5874   16.7647 C   0  0  0  0  0  0  0  0  0  0  0  0
    8.2120  -12.5240   15.9053 N   0  0  0  0  0  0  0  0  0  0  0  0
    8.8179  -15.2165   22.6341 C   0  0  0  0  0  0  0  0  0  0  0  0
    9.7078  -14.3695   22.8226 O   0  0  0  0  0  0  0  0  0  0  0  0
    8.2743  -15.8557   23.7687 N   0  0  0  0  0  0  0  0  0  0  0  0
    8.7122  -15.5041   25.0792 C   0  0  1  0  0  0  0  0  0  0  0  0
    7.5478  -15.1570   25.9768 C   0  0  0  0  0  0  0  0  0  0  0  0
    7.2797  -13.7217   26.0929 C   0  0  0  0  0  0  0  0  0  0  0  0
    8.2011  -12.7298   25.8598 C   0  0  0  0  0  0  0  0  0  0  0  0
    7.8824  -11.4041   25.9823 C   0  0  0  0  0  0  0  0  0  0  0  0
    6.6208  -11.0387   26.3447 C   0  0  0  0  0  0  0  0  0  0  0  0
    5.6607  -11.9954   26.5893 C   0  0  0  0  0  0  0  0  0  0  0  0
    6.0092  -13.3171   26.4586 C   0  0  0  0  0  0  0  0  0  0  0  0
    9.5936  -16.5411   25.6108 C   0  0  0  0  0  0  0  0  0  0  0  0
    9.2970  -17.3016   26.5772 O   0  0  0  0  0  0  0  0  0  0  0  0
   10.8799  -16.7358   25.0249 N   0  0  0  0  0  0  0  0  0  0  0  0
   11.7673  -17.7553   25.5455 C   0  0  0  0  0  0  0  0  0  0  0  0
   12.1426  -18.7475   24.5122 C   0  0  0  0  0  0  0  0  0  0  0  0
   11.3186  -19.5001   23.9345 O   0  0  0  0  0  0  0  0  0  0  0  0
   13.4752  -18.8665   24.1488 O   0  0  0  0  0  0  0  0  0  0  0  0
  2  3  1  0
  2  1  1  1
  4  3  1  0
  5  4  1  0
  6  7  1  0
  6  5  1  0
  8  2  1  0
  9  8  2  0
 10  8  1  0
 11 10  1  0
 11 12  1  1
 12 13  1  0
 13 18  2  0
 14 13  1  0
 14 15  2  0
 15 16  1  0
 16 17  2  0
 18 17  1  0
 19 20  2  0
 19 11  1  0
 21 19  1  0
 22 21  1  0
 23 22  1  0
 23 25  1  0
 24 23  2  0
M  END
$$$$
