KFG.pdb
     RDKit          3D

 25 25  0  0  1  0  0  0  0  0999 V2000
    7.8514  -13.9258   20.2711 N   0  0  0  0  0  0  0  0  0  0  0  0
    7.4331  -15.1026   20.9799 C   0  0  1  0  0  0  0  0  0  0  0  0
    7.8733  -16.3770   20.3404 C   0  0  0  0  0  0  0  0  0  0  0  0
    7.2176  -16.7001   19.0399 C   0  0  0  0  0  0  0  0  0  0  0  0
    7.6238  -17.9987   18.4229 C   0  0  0  0  0  0  0  0  0  0  0  0
    7.0397  -18.1457   17.0419 C   0  0  0  0  0  0  0  0  0  0  0  0
    7.5170  -19.3608   16.4250 N   0  0  0  0  0  0  0  0  0  0  0  0
    7.9300  -15.0277   22.3764 C   0  0  0  0  0  0  0  0  0  0  0  0
    8.9997  -14.4376   22.6050 O   0  0  0  0  0  0  0  0  0  0  0  0
    7.2495  -15.5947   23.4750 N   0  0  0  0  0  0  0  0  0  0  0  0
    7.8385  -15.5918   24.7734 C   0  0  1  0  0  0  0  0  0  0  0  0
    6.8661  -15.1024   25.8208 C   0  0  0  0  0  0  0  0  0  0  0  0
    6.8859  -13.6536   26.0352 C   0  0  0  0  0  0  0  0  0  0  0  0
    5.7756  -12.8446   26.0336 C   0  0  0  0  0  0  0  0  0  0  0  0
    5.8644  -11.4951   26.2456 C   0  0  0  0  0  0  0  0  0  0  0  0
    7.0796  -10.9199   26.4662 C   0  0  0  0  0  0  0  0  0  0  0  0
    8.2230  -11.6878   26.4776 C   0  0  0  0  0  0  0  0  0  0  0  0
    8.1033  -13.0385   26.2620 C   0  0  0  0  0  0  0  0  0  0  0  0
    8.4272  -16.8976   25.0622 C   0  0  0  0  0  0  0  0  0  0  0  0
    7.7626  -17.9198   25.3995 O   0  0  0  0  0  0  0  0  0  0  0  0
    9.8408  -17.0657   24.9671 N   0  0  0  0  0  0  0  0  0  0  0  0
   10.4263  -18.3821   25.1158 C   0  0  0  0  0  0  0  0  0  0  0  0
   11.1223  -18.5387   26.4135 C   0  0  0  0  0  0  0  0  0  0  0  0
   10.5377  -18.5253   27.5258 O   0  0  0  0  0  0  0  0  0  0  0  0
   12.4979  -18.7112   26.4207 O   0  0  0  0  0  0  0  0  0  0  0  0
  2  3  1  0
  2  1  1  6
  4  3  1  0
  5  4  1  0
  6  7  1  0
  6  5  1  0
  8  2  1  0
  9  8  2  0
 10  8  1  0
 11 10  1  0
 11 12  1  1
 12 13  1  0
 13 18  2  0
 14 13  1  0
 14 15  2  0
 15 16  1  0
 16 17  2  0
 18 17  1  0
 19 20  2  0
 19 11  1  0
 21 19  1  0
 22 21  1  0
 23 22  1  0
 23 25  1  0
 24 23  2  0
M  END
$$$$
