KFG.pdb
     RDKit          3D

 25 25  0  0  1  0  0  0  0  0999 V2000
    7.5023  -16.5176   22.0701 N   0  0  0  0  0  0  0  0  0  0  0  0
    8.6985  -15.7354   21.9304 C   0  0  1  0  0  0  0  0  0  0  0  0
    8.5117  -14.4902   21.1295 C   0  0  0  0  0  0  0  0  0  0  0  0
    8.0961  -14.6977   19.7118 C   0  0  0  0  0  0  0  0  0  0  0  0
    8.2247  -13.5022   18.8250 C   0  0  0  0  0  0  0  0  0  0  0  0
    7.7574  -13.8147   17.4272 C   0  0  0  0  0  0  0  0  0  0  0  0
    7.7839  -12.6221   16.6139 N   0  0  0  0  0  0  0  0  0  0  0  0
    9.2215  -15.4071   23.2801 C   0  0  0  0  0  0  0  0  0  0  0  0
   10.1863  -14.6300   23.3803 O   0  0  0  0  0  0  0  0  0  0  0  0
    8.6799  -15.9326   24.4725 N   0  0  0  0  0  0  0  0  0  0  0  0
    9.1703  -15.5066   25.7417 C   0  0  1  0  0  0  0  0  0  0  0  0
    8.0409  -15.1580   26.6824 C   0  0  0  0  0  0  0  0  0  0  0  0
    7.4846  -13.8168   26.4895 C   0  0  0  0  0  0  0  0  0  0  0  0
    8.1724  -12.6451   26.6928 C   0  0  0  0  0  0  0  0  0  0  0  0
    7.5923  -11.4220   26.4890 C   0  0  0  0  0  0  0  0  0  0  0  0
    6.2972  -11.3444   26.0727 C   0  0  0  0  0  0  0  0  0  0  0  0
    5.5649  -12.4903   25.8547 C   0  0  0  0  0  0  0  0  0  0  0  0
    6.1729  -13.7029   26.0673 C   0  0  0  0  0  0  0  0  0  0  0  0
   10.1140  -16.4880   26.2721 C   0  0  0  0  0  0  0  0  0  0  0  0
   10.7685  -16.3398   27.3445 O   0  0  0  0  0  0  0  0  0  0  0  0
   10.3356  -17.7038   25.5592 N   0  0  0  0  0  0  0  0  0  0  0  0
   11.2506  -18.6962   26.0844 C   0  0  0  0  0  0  0  0  0  0  0  0
   10.6786  -19.4250   27.2397 C   0  0  0  0  0  0  0  0  0  0  0  0
    9.5271  -19.2157   27.6971 O   0  0  0  0  0  0  0  0  0  0  0  0
   11.4436  -20.3976   27.8650 O   0  0  0  0  0  0  0  0  0  0  0  0
  2  3  1  0
  2  1  1  1
  4  3  1  0
  5  4  1  0
  6  7  1  0
  6  5  1  0
  8  2  1  0
  9  8  2  0
 10  8  1  0
 11 10  1  0
 11 12  1  1
 12 13  1  0
 13 18  2  0
 14 13  1  0
 14 15  2  0
 15 16  1  0
 16 17  2  0
 18 17  1  0
 19 20  2  0
 19 11  1  0
 21 19  1  0
 22 21  1  0
 23 22  1  0
 23 25  1  0
 24 23  2  0
M  END
$$$$
