KLE.pdb
     RDKit          3D

 27 26  0  0  1  0  0  0  0  0999 V2000
    6.6990  -16.1942   21.4784 N   0  0  0  0  0  0  0  0  0  0  0  0
    8.1062  -15.8902   21.3459 C   0  0  1  0  0  0  0  0  0  0  0  0
    8.2736  -14.8746   20.2533 C   0  0  0  0  0  0  0  0  0  0  0  0
    8.9239  -15.4677   19.0391 C   0  0  0  0  0  0  0  0  0  0  0  0
    7.9805  -16.3004   18.2170 C   0  0  0  0  0  0  0  0  0  0  0  0
    8.6820  -16.8195   16.9693 C   0  0  0  0  0  0  0  0  0  0  0  0
    7.7567  -17.6264   16.2282 N   0  0  0  0  0  0  0  0  0  0  0  0
    8.6771  -15.4202   22.6363 C   0  0  0  0  0  0  0  0  0  0  0  0
    9.8727  -15.1271   22.7961 O   0  0  0  0  0  0  0  0  0  0  0  0
    5.7692  -12.2843   26.2592 C   0  0  0  0  0  0  0  0  0  0  0  0
    6.9518  -12.7502   25.3448 C   0  0  1  0  0  0  0  0  0  0  0  0
    8.0857  -11.8301   25.8084 C   0  0  0  0  0  0  0  0  0  0  0  0
    7.2367  -14.1455   25.7708 C   0  0  0  0  0  0  0  0  0  0  0  0
    8.3216  -14.8707   25.0791 C   0  0  2  0  0  0  0  0  0  0  0  0
    7.8109  -15.3000   23.7444 N   0  0  0  0  0  0  0  0  0  0  0  0
    8.7279  -16.1156   25.7209 C   0  0  0  0  0  0  0  0  0  0  0  0
    7.8337  -17.0101   25.8861 O   0  0  0  0  0  0  0  0  0  0  0  0
   10.0279  -16.4676   26.1819 N   0  0  0  0  0  0  0  0  0  0  0  0
   10.1932  -17.7479   26.8338 C   0  0  1  0  0  0  0  0  0  0  0  0
   11.1251  -18.5884   25.9271 C   0  0  0  0  0  0  0  0  0  0  0  0
   12.3669  -17.7587   25.7259 C   0  0  0  0  0  0  0  0  0  0  0  0
   13.2975  -18.5304   24.8651 C   0  0  0  0  0  0  0  0  0  0  0  0
   14.2534  -19.1352   25.4360 O   0  0  0  0  0  0  0  0  0  0  0  0
   10.7783  -17.5855   28.1542 C   0  0  0  0  0  0  0  0  0  0  0  0
   11.0568  -16.4004   28.5442 O   0  0  0  0  0  0  0  0  0  0  0  0
   13.1494  -18.6011   23.5047 O   0  0  0  0  0  0  0  0  0  0  0  0
   11.0597  -18.5990   29.0296 O   0  0  0  0  0  0  0  0  0  0  0  0
  2  1  1  1
  3  2  1  0
  4  3  1  0
  4  5  1  0
  5  6  1  0
  7  6  1  0
  8  2  1  0
  8  9  2  0
 11 10  1  1
 11 13  1  0
 11 12  1  0
 14 13  1  1
 14 15  1  0
 15  8  1  0
 16 14  1  0
 17 16  2  0
 18 16  1  0
 19 18  1  0
 19 24  1  0
 19 20  1  6
 21 20  1  0
 22 21  1  0
 22 23  2  0
 24 27  1  0
 25 24  2  0
 26 22  1  0
M  END
$$$$
