KLE.pdb
     RDKit          3D

 27 26  0  0  1  0  0  0  0  0999 V2000
    6.8461  -15.0213   20.7411 N   0  0  0  0  0  0  0  0  0  0  0  0
    7.9074  -15.8680   21.2376 C   0  0  1  0  0  0  0  0  0  0  0  0
    8.9603  -15.9857   20.1742 C   0  0  0  0  0  0  0  0  0  0  0  0
    8.4124  -16.5884   18.9150 C   0  0  0  0  0  0  0  0  0  0  0  0
    9.4723  -16.8527   17.8825 C   0  0  0  0  0  0  0  0  0  0  0  0
    8.8663  -17.5361   16.6643 C   0  0  0  0  0  0  0  0  0  0  0  0
    8.3155  -18.7950   17.0746 N   0  0  0  0  0  0  0  0  0  0  0  0
    8.4605  -15.3420   22.5140 C   0  0  0  0  0  0  0  0  0  0  0  0
    9.6375  -14.9741   22.6568 O   0  0  0  0  0  0  0  0  0  0  0  0
    5.5967  -12.1039   25.9713 C   0  0  0  0  0  0  0  0  0  0  0  0
    6.7955  -12.6339   25.1147 C   0  0  1  0  0  0  0  0  0  0  0  0
    7.9357  -11.7200   25.5749 C   0  0  0  0  0  0  0  0  0  0  0  0
    7.0349  -14.0158   25.6072 C   0  0  0  0  0  0  0  0  0  0  0  0
    8.1021  -14.8045   24.9591 C   0  0  2  0  0  0  0  0  0  0  0  0
    7.5988  -15.2553   23.6287 N   0  0  0  0  0  0  0  0  0  0  0  0
    8.4468  -16.0436   25.6466 C   0  0  0  0  0  0  0  0  0  0  0  0
    7.8432  -17.1059   25.2804 O   0  0  0  0  0  0  0  0  0  0  0  0
    9.4028  -16.2192   26.6867 N   0  0  0  0  0  0  0  0  0  0  0  0
   10.1370  -17.4645   26.7305 C   0  0  1  0  0  0  0  0  0  0  0  0
   10.9902  -17.5200   25.4398 C   0  0  0  0  0  0  0  0  0  0  0  0
   11.7626  -18.8122   25.5082 C   0  0  0  0  0  0  0  0  0  0  0  0
   12.5878  -18.9168   24.2792 C   0  0  0  0  0  0  0  0  0  0  0  0
   12.0539  -18.5607   23.1868 O   0  0  0  0  0  0  0  0  0  0  0  0
   10.9885  -17.5231   27.9068 C   0  0  0  0  0  0  0  0  0  0  0  0
   11.2712  -16.4248   28.4967 O   0  0  0  0  0  0  0  0  0  0  0  0
   13.8783  -19.3773   24.2998 O   0  0  0  0  0  0  0  0  0  0  0  0
   11.5199  -18.6621   28.4479 O   0  0  0  0  0  0  0  0  0  0  0  0
  2  1  1  6
  3  2  1  0
  4  3  1  0
  4  5  1  0
  5  6  1  0
  7  6  1  0
  8  2  1  0
  8  9  2  0
 11 10  1  1
 11 13  1  0
 11 12  1  0
 14 13  1  1
 14 15  1  0
 15  8  1  0
 16 14  1  0
 17 16  2  0
 18 16  1  0
 19 18  1  0
 19 24  1  0
 19 20  1  6
 21 20  1  0
 22 21  1  0
 22 23  2  0
 24 27  1  0
 25 24  2  0
 26 22  1  0
M  END
$$$$
