KLE.pdb
     RDKit          3D

 27 26  0  0  1  0  0  0  0  0999 V2000
    6.9975  -16.8900   21.5593 N   0  0  0  0  0  0  0  0  0  0  0  0
    7.8279  -15.8640   20.9697 C   0  0  1  0  0  0  0  0  0  0  0  0
    7.0645  -15.2177   19.8505 C   0  0  0  0  0  0  0  0  0  0  0  0
    7.7078  -15.4728   18.5201 C   0  0  0  0  0  0  0  0  0  0  0  0
    7.0607  -16.5983   17.7625 C   0  0  0  0  0  0  0  0  0  0  0  0
    7.8326  -16.8879   16.4824 C   0  0  0  0  0  0  0  0  0  0  0  0
    7.3033  -18.0824   15.8911 N   0  0  0  0  0  0  0  0  0  0  0  0
    8.2644  -14.8748   21.9909 C   0  0  0  0  0  0  0  0  0  0  0  0
    9.2079  -14.0848   21.8277 O   0  0  0  0  0  0  0  0  0  0  0  0
    7.1954  -11.3763   25.8323 C   0  0  0  0  0  0  0  0  0  0  0  0
    6.9453  -12.8235   26.3751 C   0  0  1  0  0  0  0  0  0  0  0  0
    5.5964  -12.6622   27.0833 C   0  0  0  0  0  0  0  0  0  0  0  0
    6.7729  -13.6623   25.1601 C   0  0  0  0  0  0  0  0  0  0  0  0
    7.9464  -13.8601   24.2855 C   0  0  2  0  0  0  0  0  0  0  0  0
    7.5667  -14.8303   23.2173 N   0  0  0  0  0  0  0  0  0  0  0  0
    9.0940  -14.4808   24.9371 C   0  0  0  0  0  0  0  0  0  0  0  0
    9.5455  -13.9203   25.9902 O   0  0  0  0  0  0  0  0  0  0  0  0
    9.7766  -15.6661   24.5428 N   0  0  0  0  0  0  0  0  0  0  0  0
   11.0063  -16.0005   25.2268 C   0  0  1  0  0  0  0  0  0  0  0  0
   10.6024  -16.5729   26.6074 C   0  0  0  0  0  0  0  0  0  0  0  0
   10.1742  -17.9960   26.3574 C   0  0  0  0  0  0  0  0  0  0  0  0
   10.0521  -18.6740   27.6719 C   0  0  0  0  0  0  0  0  0  0  0  0
    8.9087  -19.1122   27.9975 O   0  0  0  0  0  0  0  0  0  0  0  0
   11.7690  -16.9809   24.4723 C   0  0  0  0  0  0  0  0  0  0  0  0
   12.9567  -17.2459   24.8636 O   0  0  0  0  0  0  0  0  0  0  0  0
   11.1190  -18.8318   28.5172 O   0  0  0  0  0  0  0  0  0  0  0  0
   11.3242  -17.6561   23.3683 O   0  0  0  0  0  0  0  0  0  0  0  0
  2  1  1  1
  3  2  1  0
  4  3  1  0
  4  5  1  0
  5  6  1  0
  7  6  1  0
  8  2  1  0
  8  9  2  0
 11 10  1  6
 11 13  1  0
 11 12  1  0
 14 13  1  1
 14 15  1  0
 15  8  1  0
 16 14  1  0
 17 16  2  0
 18 16  1  0
 19 18  1  0
 19 24  1  0
 19 20  1  1
 21 20  1  0
 22 21  1  0
 22 23  2  0
 24 27  1  0
 25 24  2  0
 26 22  1  0
M  END
$$$$
