KLE.pdb
     RDKit          3D

 27 26  0  0  1  0  0  0  0  0999 V2000
    8.0975  -15.6234   19.8654 N   0  0  0  0  0  0  0  0  0  0  0  0
    8.5979  -16.3114   21.0342 C   0  0  1  0  0  0  0  0  0  0  0  0
    9.7237  -17.2104   20.6127 C   0  0  0  0  0  0  0  0  0  0  0  0
    9.2680  -18.2466   19.6292 C   0  0  0  0  0  0  0  0  0  0  0  0
    8.2609  -19.2008   20.2077 C   0  0  0  0  0  0  0  0  0  0  0  0
    7.9332  -20.2979   19.2040 C   0  0  0  0  0  0  0  0  0  0  0  0
    6.8684  -21.0985   19.7349 N   0  0  0  0  0  0  0  0  0  0  0  0
    9.0183  -15.3468   22.0853 C   0  0  0  0  0  0  0  0  0  0  0  0
   10.1308  -14.7967   22.1124 O   0  0  0  0  0  0  0  0  0  0  0  0
    7.6281  -11.6325   25.8873 C   0  0  0  0  0  0  0  0  0  0  0  0
    7.4240  -13.1250   26.3146 C   0  0  1  0  0  0  0  0  0  0  0  0
    6.0769  -13.0599   27.0413 C   0  0  0  0  0  0  0  0  0  0  0  0
    7.2659  -13.8693   25.0377 C   0  0  0  0  0  0  0  0  0  0  0  0
    8.4792  -14.1357   24.2390 C   0  0  2  0  0  0  0  0  0  0  0  0
    8.1005  -15.0377   23.1123 N   0  0  0  0  0  0  0  0  0  0  0  0
    9.5242  -14.8686   24.9445 C   0  0  0  0  0  0  0  0  0  0  0  0
   10.3854  -14.1859   25.5920 O   0  0  0  0  0  0  0  0  0  0  0  0
    9.6963  -16.2801   25.0124 N   0  0  0  0  0  0  0  0  0  0  0  0
   10.7591  -16.7947   25.8474 C   0  0  1  0  0  0  0  0  0  0  0  0
   10.4249  -16.3721   27.2988 C   0  0  0  0  0  0  0  0  0  0  0  0
   11.4495  -17.0469   28.1739 C   0  0  0  0  0  0  0  0  0  0  0  0
   11.1118  -16.7467   29.5875 C   0  0  0  0  0  0  0  0  0  0  0  0
   10.8142  -15.5488   29.8737 O   0  0  0  0  0  0  0  0  0  0  0  0
   10.8439  -18.2420   25.7451 C   0  0  0  0  0  0  0  0  0  0  0  0
   11.8132  -18.8285   26.3372 O   0  0  0  0  0  0  0  0  0  0  0  0
   11.1148  -17.7097   30.5623 O   0  0  0  0  0  0  0  0  0  0  0  0
    9.9677  -19.0439   25.0656 O   0  0  0  0  0  0  0  0  0  0  0  0
  2  1  1  6
  3  2  1  0
  4  3  1  0
  4  5  1  0
  5  6  1  0
  7  6  1  0
  8  2  1  0
  8  9  2  0
 11 10  1  6
 11 13  1  0
 11 12  1  0
 14 13  1  1
 14 15  1  0
 15  8  1  0
 16 14  1  0
 17 16  2  0
 18 16  1  0
 19 18  1  0
 19 24  1  0
 19 20  1  1
 21 20  1  0
 22 21  1  0
 22 23  2  0
 24 27  1  0
 25 24  2  0
 26 22  1  0
M  END
$$$$
