KLE.pdb
     RDKit          3D

 27 26  0  0  1  0  0  0  0  0999 V2000
    8.8296  -14.9280   20.4847 N   0  0  0  0  0  0  0  0  0  0  0  0
    8.0159  -15.4694   21.5499 C   0  0  1  0  0  0  0  0  0  0  0  0
    7.8647  -16.9466   21.3307 C   0  0  0  0  0  0  0  0  0  0  0  0
    7.3386  -17.2533   19.9602 C   0  0  0  0  0  0  0  0  0  0  0  0
    7.1566  -18.7256   19.7183 C   0  0  0  0  0  0  0  0  0  0  0  0
    6.6082  -18.9686   18.3188 C   0  0  0  0  0  0  0  0  0  0  0  0
    6.4237  -20.3795   18.1400 N   0  0  0  0  0  0  0  0  0  0  0  0
    8.6011  -15.1604   22.8818 C   0  0  0  0  0  0  0  0  0  0  0  0
    9.8212  -15.1069   23.1042 O   0  0  0  0  0  0  0  0  0  0  0  0
    5.8054  -12.1228   26.9114 C   0  0  0  0  0  0  0  0  0  0  0  0
    6.8828  -12.5169   25.8458 C   0  0  1  0  0  0  0  0  0  0  0  0
    8.0901  -11.6919   26.3029 C   0  0  0  0  0  0  0  0  0  0  0  0
    7.1461  -13.9601   26.0851 C   0  0  0  0  0  0  0  0  0  0  0  0
    8.2363  -14.5990   25.3206 C   0  0  2  0  0  0  0  0  0  0  0  0
    7.7197  -14.9135   23.9565 N   0  0  0  0  0  0  0  0  0  0  0  0
    8.6705  -15.8899   25.8420 C   0  0  0  0  0  0  0  0  0  0  0  0
    7.7776  -16.7847   26.0129 O   0  0  0  0  0  0  0  0  0  0  0  0
    9.9960  -16.2867   26.1767 N   0  0  0  0  0  0  0  0  0  0  0  0
   10.1851  -17.5951   26.7632 C   0  0  1  0  0  0  0  0  0  0  0  0
   11.2307  -18.3257   25.8856 C   0  0  0  0  0  0  0  0  0  0  0  0
   11.8326  -17.2712   24.9930 C   0  0  0  0  0  0  0  0  0  0  0  0
   12.8556  -17.9249   24.1393 C   0  0  0  0  0  0  0  0  0  0  0  0
   13.0159  -19.1744   24.2752 O   0  0  0  0  0  0  0  0  0  0  0  0
   10.6574  -17.4856   28.1333 C   0  0  0  0  0  0  0  0  0  0  0  0
   10.8370  -16.3145   28.6131 O   0  0  0  0  0  0  0  0  0  0  0  0
   13.6091  -17.2261   23.2329 O   0  0  0  0  0  0  0  0  0  0  0  0
   10.9286  -18.5361   28.9673 O   0  0  0  0  0  0  0  0  0  0  0  0
  2  1  1  6
  3  2  1  0
  4  3  1  0
  4  5  1  0
  5  6  1  0
  7  6  1  0
  8  2  1  0
  8  9  2  0
 11 10  1  1
 11 13  1  0
 11 12  1  0
 14 13  1  1
 14 15  1  0
 15  8  1  0
 16 14  1  0
 17 16  2  0
 18 16  1  0
 19 18  1  0
 19 24  1  0
 19 20  1  6
 21 20  1  0
 22 21  1  0
 22 23  2  0
 24 27  1  0
 25 24  2  0
 26 22  1  0
M  END
$$$$
