KLE.pdb
     RDKit          3D

 27 26  0  0  1  0  0  0  0  0999 V2000
    7.3424  -15.8035   21.5104 N   0  0  0  0  0  0  0  0  0  0  0  0
    8.5435  -15.0109   21.3720 C   0  0  1  0  0  0  0  0  0  0  0  0
    8.2854  -13.9257   20.3675 C   0  0  0  0  0  0  0  0  0  0  0  0
    7.6143  -14.4573   19.1363 C   0  0  0  0  0  0  0  0  0  0  0  0
    8.4409  -14.2767   17.8940 C   0  0  0  0  0  0  0  0  0  0  0  0
    7.6297  -14.6462   16.6596 C   0  0  0  0  0  0  0  0  0  0  0  0
    8.4623  -14.4886   15.5027 N   0  0  0  0  0  0  0  0  0  0  0  0
    8.9791  -14.4637   22.6845 C   0  0  0  0  0  0  0  0  0  0  0  0
   10.0787  -13.9200   22.8751 O   0  0  0  0  0  0  0  0  0  0  0  0
    5.4438  -11.9726   26.2988 C   0  0  0  0  0  0  0  0  0  0  0  0
    6.6952  -12.1964   25.3846 C   0  0  1  0  0  0  0  0  0  0  0  0
    7.6548  -11.1193   25.9003 C   0  0  0  0  0  0  0  0  0  0  0  0
    7.2067  -13.5406   25.7603 C   0  0  0  0  0  0  0  0  0  0  0  0
    8.4493  -14.0113   25.1156 C   0  0  2  0  0  0  0  0  0  0  0  0
    8.0923  -14.5676   23.7779 N   0  0  0  0  0  0  0  0  0  0  0  0
    9.1066  -15.1205   25.7972 C   0  0  0  0  0  0  0  0  0  0  0  0
    9.0055  -15.1717   27.0678 O   0  0  0  0  0  0  0  0  0  0  0  0
    9.8498  -16.1811   25.2064 N   0  0  0  0  0  0  0  0  0  0  0  0
   10.2906  -17.2601   26.0627 C   0  0  1  0  0  0  0  0  0  0  0  0
    9.0203  -18.0412   26.4787 C   0  0  0  0  0  0  0  0  0  0  0  0
    9.4969  -19.1747   27.3501 C   0  0  0  0  0  0  0  0  0  0  0  0
    8.3166  -19.9959   27.7176 C   0  0  0  0  0  0  0  0  0  0  0  0
    7.2261  -19.7481   27.1220 O   0  0  0  0  0  0  0  0  0  0  0  0
   11.2181  -18.1323   25.3617 C   0  0  0  0  0  0  0  0  0  0  0  0
   11.3337  -17.9904   24.0966 O   0  0  0  0  0  0  0  0  0  0  0  0
    8.3791  -20.9883   28.6603 O   0  0  0  0  0  0  0  0  0  0  0  0
   11.9899  -19.1023   25.9412 O   0  0  0  0  0  0  0  0  0  0  0  0
  2  1  1  1
  3  2  1  0
  4  3  1  0
  4  5  1  0
  5  6  1  0
  7  6  1  0
  8  2  1  0
  8  9  2  0
 11 10  1  1
 11 13  1  0
 11 12  1  0
 14 13  1  1
 14 15  1  0
 15  8  1  0
 16 14  1  0
 17 16  2  0
 18 16  1  0
 19 18  1  0
 19 24  1  0
 19 20  1  6
 21 20  1  0
 22 21  1  0
 22 23  2  0
 24 27  1  0
 25 24  2  0
 26 22  1  0
M  END
$$$$
