KLE.pdb
     RDKit          3D

 27 26  0  0  1  0  0  0  0  0999 V2000
    9.0073  -15.6928   20.0205 N   0  0  0  0  0  0  0  0  0  0  0  0
    8.2916  -16.2363   21.1530 C   0  0  1  0  0  0  0  0  0  0  0  0
    8.5179  -17.7196   21.1928 C   0  0  0  0  0  0  0  0  0  0  0  0
    7.9777  -18.3965   19.9684 C   0  0  0  0  0  0  0  0  0  0  0  0
    8.1252  -19.8917   20.0123 C   0  0  0  0  0  0  0  0  0  0  0  0
    7.5550  -20.5175   18.7467 C   0  0  0  0  0  0  0  0  0  0  0  0
    7.7931  -21.9311   18.7898 N   0  0  0  0  0  0  0  0  0  0  0  0
    8.7078  -15.5746   22.4182 C   0  0  0  0  0  0  0  0  0  0  0  0
    9.8798  -15.2601   22.6796 O   0  0  0  0  0  0  0  0  0  0  0  0
    5.4108  -12.3705   26.3574 C   0  0  0  0  0  0  0  0  0  0  0  0
    6.7380  -12.5342   25.5430 C   0  0  1  0  0  0  0  0  0  0  0  0
    7.7978  -12.2730   26.6180 C   0  0  0  0  0  0  0  0  0  0  0  0
    6.7701  -13.9674   25.1497 C   0  0  0  0  0  0  0  0  0  0  0  0
    8.0344  -14.5070   24.6097 C   0  0  2  0  0  0  0  0  0  0  0  0
    7.7140  -15.2869   23.3786 N   0  0  0  0  0  0  0  0  0  0  0  0
    8.7046  -15.4702   25.4756 C   0  0  0  0  0  0  0  0  0  0  0  0
    8.0529  -16.5157   25.8061 O   0  0  0  0  0  0  0  0  0  0  0  0
   10.0273  -15.3924   25.9959 N   0  0  0  0  0  0  0  0  0  0  0  0
   10.4795  -16.4584   26.8625 C   0  0  1  0  0  0  0  0  0  0  0  0
   11.9521  -16.7445   26.4795 C   0  0  0  0  0  0  0  0  0  0  0  0
   11.9209  -17.2498   25.0600 C   0  0  0  0  0  0  0  0  0  0  0  0
   13.3090  -17.6011   24.6696 C   0  0  0  0  0  0  0  0  0  0  0  0
   14.2218  -17.4090   25.5270 O   0  0  0  0  0  0  0  0  0  0  0  0
   10.3833  -16.0672   28.2589 C   0  0  0  0  0  0  0  0  0  0  0  0
   10.0260  -14.8684   28.5217 O   0  0  0  0  0  0  0  0  0  0  0  0
   13.6159  -18.1143   23.4367 O   0  0  0  0  0  0  0  0  0  0  0  0
   10.6417  -16.8771   29.3312 O   0  0  0  0  0  0  0  0  0  0  0  0
  2  1  1  6
  3  2  1  0
  4  3  1  0
  4  5  1  0
  5  6  1  0
  7  6  1  0
  8  2  1  0
  8  9  2  0
 11 10  1  1
 11 13  1  0
 11 12  1  0
 14 13  1  1
 14 15  1  0
 15  8  1  0
 16 14  1  0
 17 16  2  0
 18 16  1  0
 19 18  1  0
 19 24  1  0
 19 20  1  6
 21 20  1  0
 22 21  1  0
 22 23  2  0
 24 27  1  0
 25 24  2  0
 26 22  1  0
M  END
$$$$
