KLE.pdb
     RDKit          3D

 27 26  0  0  1  0  0  0  0  0999 V2000
    8.5074  -14.7870   20.4177 N   0  0  0  0  0  0  0  0  0  0  0  0
    8.0446  -15.6148   21.5088 C   0  0  1  0  0  0  0  0  0  0  0  0
    8.4477  -17.0344   21.2344 C   0  0  0  0  0  0  0  0  0  0  0  0
    7.5319  -17.6899   20.2441 C   0  0  0  0  0  0  0  0  0  0  0  0
    7.8867  -19.1263   19.9795 C   0  0  0  0  0  0  0  0  0  0  0  0
    6.9710  -19.7101   18.9122 C   0  0  0  0  0  0  0  0  0  0  0  0
    7.4159  -21.0387   18.6066 N   0  0  0  0  0  0  0  0  0  0  0  0
    8.5705  -15.1278   22.8119 C   0  0  0  0  0  0  0  0  0  0  0  0
    9.7730  -14.9155   23.0351 O   0  0  0  0  0  0  0  0  0  0  0  0
    5.5736  -11.8355   26.3689 C   0  0  0  0  0  0  0  0  0  0  0  0
    6.7457  -12.3157   25.4484 C   0  0  1  0  0  0  0  0  0  0  0  0
    7.9020  -11.4337   25.9302 C   0  0  0  0  0  0  0  0  0  0  0  0
    6.9934  -13.7253   25.8500 C   0  0  0  0  0  0  0  0  0  0  0  0
    8.1108  -14.4415   25.2022 C   0  0  2  0  0  0  0  0  0  0  0  0
    7.6505  -14.8928   23.8565 N   0  0  0  0  0  0  0  0  0  0  0  0
    8.5140  -15.6732   25.8709 C   0  0  0  0  0  0  0  0  0  0  0  0
    7.9527  -16.7557   25.4962 O   0  0  0  0  0  0  0  0  0  0  0  0
    9.4858  -15.8209   26.9005 N   0  0  0  0  0  0  0  0  0  0  0  0
    9.7929  -17.1584   27.3571 C   0  0  1  0  0  0  0  0  0  0  0  0
   10.5764  -17.8469   26.2129 C   0  0  0  0  0  0  0  0  0  0  0  0
   11.8287  -17.0314   26.0183 C   0  0  0  0  0  0  0  0  0  0  0  0
   12.6349  -17.6793   24.9540 C   0  0  0  0  0  0  0  0  0  0  0  0
   12.3045  -18.8516   24.6049 O   0  0  0  0  0  0  0  0  0  0  0  0
   10.5916  -17.1211   28.5708 C   0  0  0  0  0  0  0  0  0  0  0  0
   10.9275  -18.2346   29.1010 O   0  0  0  0  0  0  0  0  0  0  0  0
   13.6988  -17.0547   24.3577 O   0  0  0  0  0  0  0  0  0  0  0  0
   11.0238  -15.9875   29.2038 O   0  0  0  0  0  0  0  0  0  0  0  0
  2  1  1  6
  3  2  1  0
  4  3  1  0
  4  5  1  0
  5  6  1  0
  7  6  1  0
  8  2  1  0
  8  9  2  0
 11 10  1  1
 11 13  1  0
 11 12  1  0
 14 13  1  1
 14 15  1  0
 15  8  1  0
 16 14  1  0
 17 16  2  0
 18 16  1  0
 19 18  1  0
 19 24  1  0
 19 20  1  6
 21 20  1  0
 22 21  1  0
 22 23  2  0
 24 27  1  0
 25 24  2  0
 26 22  1  0
M  END
$$$$
