KLE.pdb
     RDKit          3D

 27 26  0  0  1  0  0  0  0  0999 V2000
    8.4886  -16.0049   19.9433 N   0  0  0  0  0  0  0  0  0  0  0  0
    7.9284  -16.3590   21.2281 C   0  0  1  0  0  0  0  0  0  0  0  0
    8.1871  -17.8167   21.4756 C   0  0  0  0  0  0  0  0  0  0  0  0
    7.7854  -18.6588   20.3015 C   0  0  0  0  0  0  0  0  0  0  0  0
    8.0094  -20.1275   20.5298 C   0  0  0  0  0  0  0  0  0  0  0  0
    6.9576  -20.9447   19.7920 C   0  0  0  0  0  0  0  0  0  0  0  0
    7.2275  -22.3365   20.0077 N   0  0  0  0  0  0  0  0  0  0  0  0
    8.4839  -15.5027   22.3099 C   0  0  0  0  0  0  0  0  0  0  0  0
    9.6396  -15.0497   22.3069 O   0  0  0  0  0  0  0  0  0  0  0  0
    7.9396  -11.6005   25.9749 C   0  0  0  0  0  0  0  0  0  0  0  0
    7.1335  -12.8849   26.3649 C   0  0  1  0  0  0  0  0  0  0  0  0
    5.7945  -12.2892   26.8114 C   0  0  0  0  0  0  0  0  0  0  0  0
    6.9494  -13.6225   25.0875 C   0  0  0  0  0  0  0  0  0  0  0  0
    8.1264  -14.2974   24.5042 C   0  0  2  0  0  0  0  0  0  0  0  0
    7.6501  -15.1856   23.4039 N   0  0  0  0  0  0  0  0  0  0  0  0
    8.8231  -15.2006   25.4130 C   0  0  0  0  0  0  0  0  0  0  0  0
    8.2251  -16.2779   25.7430 O   0  0  0  0  0  0  0  0  0  0  0  0
   10.1192  -15.0312   25.9767 N   0  0  0  0  0  0  0  0  0  0  0  0
   10.6970  -16.1446   26.6966 C   0  0  1  0  0  0  0  0  0  0  0  0
   12.2134  -16.1333   26.3848 C   0  0  0  0  0  0  0  0  0  0  0  0
   12.3455  -16.5780   24.9509 C   0  0  0  0  0  0  0  0  0  0  0  0
   13.7858  -16.5495   24.5945 C   0  0  0  0  0  0  0  0  0  0  0  0
   14.4052  -17.6547   24.5831 O   0  0  0  0  0  0  0  0  0  0  0  0
   10.4699  -16.0114   28.1260 C   0  0  0  0  0  0  0  0  0  0  0  0
    9.9864  -14.9087   28.5553 O   0  0  0  0  0  0  0  0  0  0  0  0
   14.4417  -15.3865   24.2863 O   0  0  0  0  0  0  0  0  0  0  0  0
   10.7283  -16.9725   29.0651 O   0  0  0  0  0  0  0  0  0  0  0  0
  2  1  1  6
  3  2  1  0
  4  3  1  0
  4  5  1  0
  5  6  1  0
  7  6  1  0
  8  2  1  0
  8  9  2  0
 11 10  1  6
 11 13  1  0
 11 12  1  0
 14 13  1  1
 14 15  1  0
 15  8  1  0
 16 14  1  0
 17 16  2  0
 18 16  1  0
 19 18  1  0
 19 24  1  0
 19 20  1  1
 21 20  1  0
 22 21  1  0
 22 23  2  0
 24 27  1  0
 25 24  2  0
 26 22  1  0
M  END
$$$$
