KLE.pdb
     RDKit          3D

 27 26  0  0  1  0  0  0  0  0999 V2000
    7.6862  -15.0836   19.8272 N   0  0  0  0  0  0  0  0  0  0  0  0
    7.3042  -15.7301   21.0625 C   0  0  1  0  0  0  0  0  0  0  0  0
    7.5207  -17.2080   20.9140 C   0  0  0  0  0  0  0  0  0  0  0  0
    7.8002  -17.5876   19.4904 C   0  0  0  0  0  0  0  0  0  0  0  0
    7.9292  -19.0723   19.2943 C   0  0  0  0  0  0  0  0  0  0  0  0
    8.1779  -19.3932   17.8269 C   0  0  0  0  0  0  0  0  0  0  0  0
    8.2162  -20.8184   17.6718 N   0  0  0  0  0  0  0  0  0  0  0  0
    8.0569  -15.1695   22.2163 C   0  0  0  0  0  0  0  0  0  0  0  0
    9.2453  -14.8156   22.1589 O   0  0  0  0  0  0  0  0  0  0  0  0
    5.8697  -11.8892   26.4915 C   0  0  0  0  0  0  0  0  0  0  0  0
    6.9778  -12.2606   25.4494 C   0  0  1  0  0  0  0  0  0  0  0  0
    8.2392  -11.7181   26.1287 C   0  0  0  0  0  0  0  0  0  0  0  0
    7.0144  -13.7466   25.4445 C   0  0  0  0  0  0  0  0  0  0  0  0
    8.0518  -14.4089   24.6282 C   0  0  2  0  0  0  0  0  0  0  0  0
    7.3825  -15.0311   23.4487 N   0  0  0  0  0  0  0  0  0  0  0  0
    8.7233  -15.5246   25.2847 C   0  0  0  0  0  0  0  0  0  0  0  0
    8.0190  -16.5502   25.5665 O   0  0  0  0  0  0  0  0  0  0  0  0
   10.0976  -15.6174   25.6441 N   0  0  0  0  0  0  0  0  0  0  0  0
   10.6215  -16.9196   25.9927 C   0  0  1  0  0  0  0  0  0  0  0  0
   12.0065  -17.0357   25.3107 C   0  0  0  0  0  0  0  0  0  0  0  0
   12.5759  -18.3599   25.7504 C   0  0  0  0  0  0  0  0  0  0  0  0
   13.9224  -18.5026   25.1429 C   0  0  0  0  0  0  0  0  0  0  0  0
   14.8353  -17.7301   25.5614 O   0  0  0  0  0  0  0  0  0  0  0  0
   10.7502  -17.0577   27.4338 C   0  0  0  0  0  0  0  0  0  0  0  0
   10.5160  -16.0301   28.1570 O   0  0  0  0  0  0  0  0  0  0  0  0
   14.1920  -19.4258   24.1669 O   0  0  0  0  0  0  0  0  0  0  0  0
   11.1017  -18.2032   28.0946 O   0  0  0  0  0  0  0  0  0  0  0  0
  2  1  1  6
  3  2  1  0
  4  3  1  0
  4  5  1  0
  5  6  1  0
  7  6  1  0
  8  2  1  0
  8  9  2  0
 11 10  1  1
 11 13  1  0
 11 12  1  0
 14 13  1  1
 14 15  1  0
 15  8  1  0
 16 14  1  0
 17 16  2  0
 18 16  1  0
 19 18  1  0
 19 24  1  0
 19 20  1  6
 21 20  1  0
 22 21  1  0
 22 23  2  0
 24 27  1  0
 25 24  2  0
 26 22  1  0
M  END
$$$$
