KLE.pdb
     RDKit          3D

 27 26  0  0  1  0  0  0  0  0999 V2000
    7.1433  -15.7615   20.0858 N   0  0  0  0  0  0  0  0  0  0  0  0
    7.1894  -16.2219   21.4554 C   0  0  1  0  0  0  0  0  0  0  0  0
    7.9086  -17.5389   21.4918 C   0  0  0  0  0  0  0  0  0  0  0  0
    7.3830  -18.4871   20.4556 C   0  0  0  0  0  0  0  0  0  0  0  0
    8.0596  -19.8288   20.4920 C   0  0  0  0  0  0  0  0  0  0  0  0
    7.5141  -20.7272   19.3903 C   0  0  0  0  0  0  0  0  0  0  0  0
    8.1573  -22.0055   19.4841 N   0  0  0  0  0  0  0  0  0  0  0  0
    7.8303  -15.2120   22.3394 C   0  0  0  0  0  0  0  0  0  0  0  0
    8.8858  -14.6213   22.0607 O   0  0  0  0  0  0  0  0  0  0  0  0
    7.4688  -11.1833   25.8975 C   0  0  0  0  0  0  0  0  0  0  0  0
    7.1299  -12.5661   26.5490 C   0  0  1  0  0  0  0  0  0  0  0  0
    5.8904  -12.2233   27.3816 C   0  0  0  0  0  0  0  0  0  0  0  0
    6.7397  -13.4389   25.4107 C   0  0  0  0  0  0  0  0  0  0  0  0
    7.8100  -13.9325   24.5207 C   0  0  2  0  0  0  0  0  0  0  0  0
    7.2034  -14.9064   23.5667 N   0  0  0  0  0  0  0  0  0  0  0  0
    8.8556  -14.6966   25.1911 C   0  0  0  0  0  0  0  0  0  0  0  0
    9.5198  -14.1058   26.1060 O   0  0  0  0  0  0  0  0  0  0  0  0
    9.2240  -16.0513   24.9553 N   0  0  0  0  0  0  0  0  0  0  0  0
   10.3782  -16.5722   25.6539 C   0  0  1  0  0  0  0  0  0  0  0  0
    9.9521  -17.9323   26.2584 C   0  0  0  0  0  0  0  0  0  0  0  0
   11.1783  -18.4877   26.9360 C   0  0  0  0  0  0  0  0  0  0  0  0
   10.7387  -19.2107   28.1552 C   0  0  0  0  0  0  0  0  0  0  0  0
    9.5912  -19.7474   28.1323 O   0  0  0  0  0  0  0  0  0  0  0  0
   11.4987  -16.7475   24.7449 C   0  0  0  0  0  0  0  0  0  0  0  0
   11.2411  -16.9745   23.5136 O   0  0  0  0  0  0  0  0  0  0  0  0
   11.5247  -19.3076   29.2733 O   0  0  0  0  0  0  0  0  0  0  0  0
   12.8210  -16.6887   25.0921 O   0  0  0  0  0  0  0  0  0  0  0  0
  2  1  1  6
  3  2  1  0
  4  3  1  0
  4  5  1  0
  5  6  1  0
  7  6  1  0
  8  2  1  0
  8  9  2  0
 11 10  1  6
 11 13  1  0
 11 12  1  0
 14 13  1  1
 14 15  1  0
 15  8  1  0
 16 14  1  0
 17 16  2  0
 18 16  1  0
 19 18  1  0
 19 24  1  0
 19 20  1  6
 21 20  1  0
 22 21  1  0
 22 23  2  0
 24 27  1  0
 25 24  2  0
 26 22  1  0
M  END
$$$$
