KLE.pdb
     RDKit          3D

 27 26  0  0  1  0  0  0  0  0999 V2000
   10.0659  -18.4821   16.8558 N   0  0  0  0  0  0  0  0  0  0  0  0
    9.2343  -18.3778   18.0338 C   0  0  1  0  0  0  0  0  0  0  0  0
    9.0887  -19.7445   18.6371 C   0  0  0  0  0  0  0  0  0  0  0  0
   10.4123  -20.3083   19.0602 C   0  0  0  0  0  0  0  0  0  0  0  0
   10.3290  -21.7503   19.4761 C   0  0  0  0  0  0  0  0  0  0  0  0
   11.7074  -22.2715   19.8594 C   0  0  0  0  0  0  0  0  0  0  0  0
   11.5743  -23.6281   20.3050 N   0  0  0  0  0  0  0  0  0  0  0  0
    9.7959  -17.3981   19.0016 C   0  0  0  0  0  0  0  0  0  0  0  0
   10.9903  -17.0612   19.0283 O   0  0  0  0  0  0  0  0  0  0  0  0
    6.3304  -13.3415   20.9787 C   0  0  0  0  0  0  0  0  0  0  0  0
    7.4672  -14.0767   20.1920 C   0  0  1  0  0  0  0  0  0  0  0  0
    8.3817  -12.9108   19.8031 C   0  0  0  0  0  0  0  0  0  0  0  0
    8.1459  -14.9254   21.2062 C   0  0  0  0  0  0  0  0  0  0  0  0
    9.3543  -15.6655   20.7901 C   0  0  2  0  0  0  0  0  0  0  0  0
    8.9216  -16.8166   19.9451 N   0  0  0  0  0  0  0  0  0  0  0  0
   10.0950  -16.2858   21.8826 C   0  0  0  0  0  0  0  0  0  0  0  0
    9.6395  -17.3802   22.3539 O   0  0  0  0  0  0  0  0  0  0  0  0
   11.2946  -15.8185   22.4900 N   0  0  0  0  0  0  0  0  0  0  0  0
   11.8757  -16.6167   23.5469 C   0  0  1  0  0  0  0  0  0  0  0  0
   13.3213  -16.0999   23.7469 C   0  0  0  0  0  0  0  0  0  0  0  0
   14.1843  -16.9098   22.8139 C   0  0  0  0  0  0  0  0  0  0  0  0
   15.4997  -16.2314   22.7037 C   0  0  0  0  0  0  0  0  0  0  0  0
   16.2665  -16.2799   23.7112 O   0  0  0  0  0  0  0  0  0  0  0  0
   11.1124  -16.4834   24.7765 C   0  0  0  0  0  0  0  0  0  0  0  0
   11.5414  -17.0904   25.8164 O   0  0  0  0  0  0  0  0  0  0  0  0
   15.8916  -15.5724   21.5681 O   0  0  0  0  0  0  0  0  0  0  0  0
    9.9629  -15.7559   24.9239 O   0  0  0  0  0  0  0  0  0  0  0  0
  2  1  1  6
  3  2  1  0
  4  3  1  0
  4  5  1  0
  5  6  1  0
  7  6  1  0
  8  2  1  0
  8  9  2  0
 11 10  1  1
 11 13  1  0
 11 12  1  0
 14 13  1  1
 14 15  1  0
 15  8  1  0
 16 14  1  0
 17 16  2  0
 18 16  1  0
 19 18  1  0
 19 24  1  0
 19 20  1  1
 21 20  1  0
 22 21  1  0
 22 23  2  0
 24 27  1  0
 25 24  2  0
 26 22  1  0
M  END
$$$$
