MAY.pdb
     RDKit          3D

 26 26  0  0  1  0  0  0  0  0999 V2000
   51.0536  -19.1366  -10.0029 C   0  0  0  0  0  0  0  0  0  0  0  0
   50.2805  -17.5080  -10.1959 S   0  0  0  0  0  0  0  0  0  0  0  0
   48.5429  -17.7933  -10.6747 C   0  0  0  0  0  0  0  0  0  0  0  0
   47.9333  -18.8951   -9.8451 C   0  0  0  0  0  0  0  0  0  0  0  0
   46.5110  -19.1066  -10.3173 C   0  0  2  0  0  0  0  0  0  0  0  0
   46.4848  -19.3760  -11.7175 N   0  0  0  0  0  0  0  0  0  0  0  0
   45.6130  -18.0300   -9.8642 C   0  0  0  0  0  0  0  0  0  0  0  0
   45.3886  -17.0895  -10.6646 O   0  0  0  0  0  0  0  0  0  0  0  0
   43.4845  -17.3288   -6.8071 C   0  0  0  0  0  0  0  0  0  0  0  0
   44.1595  -16.9573   -8.1097 C   0  0  2  0  0  0  0  0  0  0  0  0
   45.0154  -18.0271   -8.5927 N   0  0  0  0  0  0  0  0  0  0  0  0
   44.8729  -15.6856   -7.9637 C   0  0  0  0  0  0  0  0  0  0  0  0
   46.1051  -15.6793   -7.8420 O   0  0  0  0  0  0  0  0  0  0  0  0
   46.7873   -7.1741   -8.6885 O   0  0  0  0  0  0  0  0  0  0  0  0
   46.2041   -8.4403   -8.7807 C   0  0  0  0  0  0  0  0  0  0  0  0
   46.7930   -9.5315   -8.1672 C   0  0  0  0  0  0  0  0  0  0  0  0
   46.2453  -10.7911   -8.2381 C   0  0  0  0  0  0  0  0  0  0  0  0
   45.0616  -11.0121   -8.9408 C   0  0  0  0  0  0  0  0  0  0  0  0
   44.4598  -12.3375   -9.0446 C   0  0  0  0  0  0  0  0  0  0  0  0
   44.8394  -13.2081   -7.8581 C   0  0  2  0  0  0  0  0  0  0  0  0
   44.1188  -14.4852   -7.9663 N   0  0  0  0  0  0  0  0  0  0  0  0
   44.4997  -12.6277   -6.5583 C   0  0  0  0  0  0  0  0  0  0  0  0
   45.4597  -12.0321   -5.7409 O   0  0  0  0  0  0  0  0  0  0  0  0
   44.4759   -9.9261   -9.5515 C   0  0  0  0  0  0  0  0  0  0  0  0
   45.0326   -8.6526   -9.4778 C   0  0  0  0  0  0  0  0  0  0  0  0
   43.3292  -12.6353   -6.1089 O   0  0  0  0  0  0  0  0  0  0  0  0
  2  1  1  0
  3  2  1  0
  4  3  1  0
  4  5  1  0
  5  6  1  6
  5  7  1  0
  7  8  2  0
 10  9  1  1
 11  7  1  0
 11 10  1  0
 12 10  1  0
 12 21  1  0
 13 12  2  0
 15 14  1  0
 16 15  2  0
 17 16  1  0
 18 24  1  0
 18 17  2  0
 19 18  1  0
 20 22  1  0
 20 21  1  0
 20 19  1  6
 22 23  1  0
 24 25  2  0
 25 15  1  0
 26 22  2  0
M  END
$$$$
