MAY.pdb
     RDKit          3D

 26 26  0  0  1  0  0  0  0  0999 V2000
   26.9580  -15.0803  -15.2887 C   0  0  0  0  0  0  0  0  0  0  0  0
   28.0840  -15.9013  -16.4486 S   0  0  0  0  0  0  0  0  0  0  0  0
   27.0565  -16.9119  -17.5680 C   0  0  0  0  0  0  0  0  0  0  0  0
   26.5612  -18.1514  -16.8665 C   0  0  0  0  0  0  0  0  0  0  0  0
   27.7525  -19.0437  -16.5922 C   0  0  2  0  0  0  0  0  0  0  0  0
   28.2343  -19.6196  -17.8047 N   0  0  0  0  0  0  0  0  0  0  0  0
   27.4882  -19.9977  -15.5010 C   0  0  0  0  0  0  0  0  0  0  0  0
   26.5488  -20.8144  -15.6624 O   0  0  0  0  0  0  0  0  0  0  0  0
   28.9462  -20.7596  -12.0847 C   0  0  0  0  0  0  0  0  0  0  0  0
   27.8523  -20.7656  -13.1305 C   0  0  2  0  0  0  0  0  0  0  0  0
   28.2401  -20.0183  -14.3144 N   0  0  0  0  0  0  0  0  0  0  0  0
   26.5949  -20.2886  -12.5483 C   0  0  0  0  0  0  0  0  0  0  0  0
   26.3867  -19.0729  -12.4399 O   0  0  0  0  0  0  0  0  0  0  0  0
   18.2993  -19.6901   -9.9861 O   0  0  0  0  0  0  0  0  0  0  0  0
   19.5111  -20.1272  -10.5266 C   0  0  0  0  0  0  0  0  0  0  0  0
   20.1567  -21.2323  -10.0017 C   0  0  0  0  0  0  0  0  0  0  0  0
   21.3504  -21.6890  -10.5099 C   0  0  0  0  0  0  0  0  0  0  0  0
   21.9570  -21.0434  -11.5865 C   0  0  0  0  0  0  0  0  0  0  0  0
   23.2282  -21.4955  -12.1428 C   0  0  0  0  0  0  0  0  0  0  0  0
   24.3987  -20.7687  -11.5013 C   0  0  2  0  0  0  0  0  0  0  0  0
   25.6427  -21.2481  -12.1214 N   0  0  0  0  0  0  0  0  0  0  0  0
   24.5206  -20.9882  -10.0596 C   0  0  0  0  0  0  0  0  0  0  0  0
   23.8914  -20.1610   -9.1299 O   0  0  0  0  0  0  0  0  0  0  0  0
   21.3146  -19.9435  -12.1086 C   0  0  0  0  0  0  0  0  0  0  0  0
   20.1066  -19.4839  -11.5920 C   0  0  0  0  0  0  0  0  0  0  0  0
   25.1972  -21.9298   -9.5823 O   0  0  0  0  0  0  0  0  0  0  0  0
  2  1  1  0
  3  2  1  0
  4  3  1  0
  4  5  1  0
  5  6  1  6
  5  7  1  0
  7  8  2  0
 10  9  1  1
 11  7  1  0
 11 10  1  0
 12 10  1  0
 12 21  1  0
 13 12  2  0
 15 14  1  0
 16 15  2  0
 17 16  1  0
 18 24  1  0
 18 17  2  0
 19 18  1  0
 20 22  1  0
 20 21  1  0
 20 19  1  6
 22 23  1  0
 24 25  2  0
 25 15  1  0
 26 22  2  0
M  END
$$$$
