MAY.pdb
     RDKit          3D

 26 26  0  0  1  0  0  0  0  0999 V2000
   32.4593  -21.1234  -11.9435 C   0  0  0  0  0  0  0  0  0  0  0  0
   32.7038  -22.8279  -12.5112 S   0  0  0  0  0  0  0  0  0  0  0  0
   31.5830  -23.0865  -13.9279 C   0  0  0  0  0  0  0  0  0  0  0  0
   30.4249  -22.1221  -13.8769 C   0  0  0  0  0  0  0  0  0  0  0  0
   29.6080  -22.3020  -15.1383 C   0  0  2  0  0  0  0  0  0  0  0  0
   30.4301  -22.1415  -16.2925 N   0  0  0  0  0  0  0  0  0  0  0  0
   28.3787  -21.4900  -15.1203 C   0  0  0  0  0  0  0  0  0  0  0  0
   28.5070  -20.2451  -15.2161 O   0  0  0  0  0  0  0  0  0  0  0  0
   24.8251  -21.5445  -15.7697 C   0  0  0  0  0  0  0  0  0  0  0  0
   25.8987  -21.2823  -14.7357 C   0  0  2  0  0  0  0  0  0  0  0  0
   27.0985  -22.0567  -15.0023 N   0  0  0  0  0  0  0  0  0  0  0  0
   25.3679  -21.5089  -13.3887 C   0  0  0  0  0  0  0  0  0  0  0  0
   25.1303  -22.6617  -13.0045 O   0  0  0  0  0  0  0  0  0  0  0  0
   28.8498  -20.8445   -6.5605 O   0  0  0  0  0  0  0  0  0  0  0  0
   27.8647  -20.4874   -7.4844 C   0  0  0  0  0  0  0  0  0  0  0  0
   27.4458  -21.3872   -8.4480 C   0  0  0  0  0  0  0  0  0  0  0  0
   26.4784  -21.0681   -9.3721 C   0  0  0  0  0  0  0  0  0  0  0  0
   25.8799  -19.8089   -9.3674 C   0  0  0  0  0  0  0  0  0  0  0  0
   24.8585  -19.4344  -10.3400 C   0  0  0  0  0  0  0  0  0  0  0  0
   24.5077  -20.6029  -11.2464 C   0  0  2  0  0  0  0  0  0  0  0  0
   25.1400  -20.3846  -12.5558 N   0  0  0  0  0  0  0  0  0  0  0  0
   23.0725  -20.7676  -11.4803 C   0  0  0  0  0  0  0  0  0  0  0  0
   22.2959  -21.6443  -10.7237 O   0  0  0  0  0  0  0  0  0  0  0  0
   26.2970  -18.9134   -8.4085 C   0  0  0  0  0  0  0  0  0  0  0  0
   27.2762  -19.2395   -7.4746 C   0  0  0  0  0  0  0  0  0  0  0  0
   22.4640  -20.1313  -12.3731 O   0  0  0  0  0  0  0  0  0  0  0  0
  2  1  1  0
  3  2  1  0
  4  3  1  0
  4  5  1  0
  5  6  1  6
  5  7  1  0
  7  8  2  0
 10  9  1  6
 11  7  1  0
 11 10  1  0
 12 10  1  0
 12 21  1  0
 13 12  2  0
 15 14  1  0
 16 15  2  0
 17 16  1  0
 18 24  1  0
 18 17  2  0
 19 18  1  0
 20 22  1  0
 20 21  1  0
 20 19  1  1
 22 23  1  0
 24 25  2  0
 25 15  1  0
 26 22  2  0
M  END
$$$$
