MAY.pdb
     RDKit          3D

 26 26  0  0  1  0  0  0  0  0999 V2000
   28.4010  -14.5528  -16.5929 C   0  0  0  0  0  0  0  0  0  0  0  0
   29.2988  -15.9177  -17.3793 S   0  0  0  0  0  0  0  0  0  0  0  0
   28.0980  -16.8239  -18.4122 C   0  0  0  0  0  0  0  0  0  0  0  0
   26.9330  -17.3026  -17.5831 C   0  0  0  0  0  0  0  0  0  0  0  0
   27.4035  -18.4688  -16.7409 C   0  0  2  0  0  0  0  0  0  0  0  0
   28.2624  -19.3178  -17.4994 N   0  0  0  0  0  0  0  0  0  0  0  0
   26.2852  -19.1459  -16.0616 C   0  0  0  0  0  0  0  0  0  0  0  0
   25.5010  -18.4332  -15.3888 O   0  0  0  0  0  0  0  0  0  0  0  0
   24.5410  -22.4457  -16.1765 C   0  0  0  0  0  0  0  0  0  0  0  0
   25.0334  -21.2334  -15.4161 C   0  0  2  0  0  0  0  0  0  0  0  0
   26.0771  -20.5329  -16.1442 N   0  0  0  0  0  0  0  0  0  0  0  0
   25.4491  -21.6198  -14.0650 C   0  0  0  0  0  0  0  0  0  0  0  0
   26.5541  -22.1493  -13.8868 O   0  0  0  0  0  0  0  0  0  0  0  0
   28.1941  -19.7651   -6.2765 O   0  0  0  0  0  0  0  0  0  0  0  0
   27.7371  -19.9331   -7.5859 C   0  0  0  0  0  0  0  0  0  0  0  0
   26.6608  -19.2007   -8.0539 C   0  0  0  0  0  0  0  0  0  0  0  0
   26.1859  -19.3415   -9.3370 C   0  0  0  0  0  0  0  0  0  0  0  0
   26.7826  -20.2400  -10.2203 C   0  0  0  0  0  0  0  0  0  0  0  0
   26.2970  -20.4214  -11.5845 C   0  0  0  0  0  0  0  0  0  0  0  0
   25.1037  -21.3619  -11.6228 C   0  0  2  0  0  0  0  0  0  0  0  0
   24.5602  -21.3715  -12.9890 N   0  0  0  0  0  0  0  0  0  0  0  0
   24.0129  -20.9798  -10.7252 C   0  0  0  0  0  0  0  0  0  0  0  0
   23.0653  -20.0202  -11.0799 O   0  0  0  0  0  0  0  0  0  0  0  0
   27.8536  -20.9689   -9.7544 C   0  0  0  0  0  0  0  0  0  0  0  0
   28.3319  -20.8241   -8.4553 C   0  0  0  0  0  0  0  0  0  0  0  0
   23.8715  -21.4927   -9.5898 O   0  0  0  0  0  0  0  0  0  0  0  0
  2  1  1  0
  3  2  1  0
  4  3  1  0
  4  5  1  0
  5  6  1  6
  5  7  1  0
  7  8  2  0
 10  9  1  6
 11  7  1  0
 11 10  1  0
 12 10  1  0
 12 21  1  0
 13 12  2  0
 15 14  1  0
 16 15  2  0
 17 16  1  0
 18 24  1  0
 18 17  2  0
 19 18  1  0
 20 22  1  0
 20 21  1  0
 20 19  1  6
 22 23  1  0
 24 25  2  0
 25 15  1  0
 26 22  2  0
M  END
$$$$
