MAY.pdb
     RDKit          3D

 26 26  0  0  1  0  0  0  0  0999 V2000
   35.2455  -31.2591  -20.9804 C   0  0  0  0  0  0  0  0  0  0  0  0
   33.7377  -30.4218  -20.4212 S   0  0  0  0  0  0  0  0  0  0  0  0
   32.6049  -31.7131  -19.8052 C   0  0  0  0  0  0  0  0  0  0  0  0
   31.3120  -31.1051  -19.3231 C   0  0  0  0  0  0  0  0  0  0  0  0
   31.4724  -30.7609  -17.8580 C   0  0  2  0  0  0  0  0  0  0  0  0
   31.7517  -31.9345  -17.0972 N   0  0  0  0  0  0  0  0  0  0  0  0
   30.3584  -29.9353  -17.3597 C   0  0  0  0  0  0  0  0  0  0  0  0
   29.5138  -30.4922  -16.6167 O   0  0  0  0  0  0  0  0  0  0  0  0
   29.2521  -26.3209  -17.7069 C   0  0  0  0  0  0  0  0  0  0  0  0
   29.1071  -27.7533  -17.2405 C   0  0  2  0  0  0  0  0  0  0  0  0
   30.2191  -28.5757  -17.6848 N   0  0  0  0  0  0  0  0  0  0  0  0
   27.8075  -28.2895  -17.6539 C   0  0  0  0  0  0  0  0  0  0  0  0
   27.7023  -28.8917  -18.7306 O   0  0  0  0  0  0  0  0  0  0  0  0
   19.5190  -31.0948  -17.4285 O   0  0  0  0  0  0  0  0  0  0  0  0
   20.8032  -30.6596  -17.0920 C   0  0  0  0  0  0  0  0  0  0  0  0
   20.9798  -29.5665  -16.2626 C   0  0  0  0  0  0  0  0  0  0  0  0
   22.2296  -29.1121  -15.9115 C   0  0  0  0  0  0  0  0  0  0  0  0
   23.3756  -29.7479  -16.3872 C   0  0  0  0  0  0  0  0  0  0  0  0
   24.7161  -29.2852  -16.0428 C   0  0  0  0  0  0  0  0  0  0  0  0
   25.3853  -28.6081  -17.2275 C   0  0  2  0  0  0  0  0  0  0  0  0
   26.6954  -28.0990  -16.7957 N   0  0  0  0  0  0  0  0  0  0  0  0
   24.6363  -27.4731  -17.7683 C   0  0  0  0  0  0  0  0  0  0  0  0
   23.6820  -27.6283  -18.7731 O   0  0  0  0  0  0  0  0  0  0  0  0
   23.1996  -30.8355  -17.2127 C   0  0  0  0  0  0  0  0  0  0  0  0
   21.9334  -31.2929  -17.5661 C   0  0  0  0  0  0  0  0  0  0  0  0
   24.8122  -26.3010  -17.3593 O   0  0  0  0  0  0  0  0  0  0  0  0
  2  1  1  0
  3  2  1  0
  4  3  1  0
  4  5  1  0
  5  6  1  1
  5  7  1  0
  7  8  2  0
 10  9  1  6
 11  7  1  0
 11 10  1  0
 12 10  1  0
 12 21  1  0
 13 12  2  0
 15 14  1  0
 16 15  2  0
 17 16  1  0
 18 24  1  0
 18 17  2  0
 19 18  1  0
 20 22  1  0
 20 21  1  0
 20 19  1  1
 22 23  1  0
 24 25  2  0
 25 15  1  0
 26 22  2  0
M  END
$$$$
