MAY.pdb
     RDKit          3D

 26 26  0  0  1  0  0  0  0  0999 V2000
   19.8810  -10.2317  -22.5341 C   0  0  0  0  0  0  0  0  0  0  0  0
   19.4934  -11.7624  -21.6430 S   0  0  0  0  0  0  0  0  0  0  0  0
   20.9457  -12.1656  -20.6142 C   0  0  0  0  0  0  0  0  0  0  0  0
   21.2531  -11.0407  -19.6582 C   0  0  0  0  0  0  0  0  0  0  0  0
   22.5142  -11.3985  -18.9019 C   0  0  2  0  0  0  0  0  0  0  0  0
   22.3894  -12.6877  -18.3048 N   0  0  0  0  0  0  0  0  0  0  0  0
   22.9374  -10.3194  -17.9923 C   0  0  0  0  0  0  0  0  0  0  0  0
   22.5032  -10.3523  -16.8151 O   0  0  0  0  0  0  0  0  0  0  0  0
   25.4743   -7.5330  -18.0248 C   0  0  0  0  0  0  0  0  0  0  0  0
   24.2123   -8.1995  -17.5212 C   0  0  2  0  0  0  0  0  0  0  0  0
   23.7927   -9.2805  -18.3962 N   0  0  0  0  0  0  0  0  0  0  0  0
   23.1612   -7.1994  -17.3151 C   0  0  0  0  0  0  0  0  0  0  0  0
   22.3073   -7.0115  -18.1917 O   0  0  0  0  0  0  0  0  0  0  0  0
   18.0186  -10.1586  -14.4756 O   0  0  0  0  0  0  0  0  0  0  0  0
   18.8671   -9.0490  -14.4967 C   0  0  0  0  0  0  0  0  0  0  0  0
   20.0511   -9.0561  -13.7812 C   0  0  0  0  0  0  0  0  0  0  0  0
   20.9089   -7.9810  -13.7803 C   0  0  0  0  0  0  0  0  0  0  0  0
   20.6084   -6.8325  -14.5114 C   0  0  0  0  0  0  0  0  0  0  0  0
   21.4913   -5.6706  -14.5236 C   0  0  0  0  0  0  0  0  0  0  0  0
   22.1040   -5.4600  -15.8984 C   0  0  2  0  0  0  0  0  0  0  0  0
   23.1552   -6.4679  -16.1008 N   0  0  0  0  0  0  0  0  0  0  0  0
   22.7222   -4.1463  -16.0821 C   0  0  0  0  0  0  0  0  0  0  0  0
   21.9784   -2.9674  -16.0448 O   0  0  0  0  0  0  0  0  0  0  0  0
   19.4301   -6.8255  -15.2233 C   0  0  0  0  0  0  0  0  0  0  0  0
   18.5642   -7.9152  -15.2222 C   0  0  0  0  0  0  0  0  0  0  0  0
   23.9521   -4.0093  -16.2837 O   0  0  0  0  0  0  0  0  0  0  0  0
  2  1  1  0
  3  2  1  0
  4  3  1  0
  4  5  1  0
  5  6  1  1
  5  7  1  0
  7  8  2  0
 10  9  1  6
 11  7  1  0
 11 10  1  0
 12 10  1  0
 12 21  1  0
 13 12  2  0
 15 14  1  0
 16 15  2  0
 17 16  1  0
 18 24  1  0
 18 17  2  0
 19 18  1  0
 20 22  1  0
 20 21  1  0
 20 19  1  1
 22 23  1  0
 24 25  2  0
 25 15  1  0
 26 22  2  0
M  END
$$$$
