MAY.pdb
     RDKit          3D

 26 26  0  0  1  0  0  0  0  0999 V2000
   16.9745  -10.7391  -20.8009 C   0  0  0  0  0  0  0  0  0  0  0  0
   16.7275  -10.5550  -19.0141 S   0  0  0  0  0  0  0  0  0  0  0  0
   18.2443  -11.1589  -18.1988 C   0  0  0  0  0  0  0  0  0  0  0  0
   19.0669  -10.0072  -17.6785 C   0  0  0  0  0  0  0  0  0  0  0  0
   20.5271  -10.3290  -17.9133 C   0  0  2  0  0  0  0  0  0  0  0  0
   20.8616  -11.5855  -17.3274 N   0  0  0  0  0  0  0  0  0  0  0  0
   21.4062   -9.2058  -17.5442 C   0  0  0  0  0  0  0  0  0  0  0  0
   21.7485   -9.1113  -16.3403 O   0  0  0  0  0  0  0  0  0  0  0  0
   23.1977   -6.3981  -19.3522 C   0  0  0  0  0  0  0  0  0  0  0  0
   22.6549   -7.0975  -18.1248 C   0  0  2  0  0  0  0  0  0  0  0  0
   21.8611   -8.2613  -18.4795 N   0  0  0  0  0  0  0  0  0  0  0  0
   21.9199   -6.1468  -17.2860 C   0  0  0  0  0  0  0  0  0  0  0  0
   20.7234   -5.9214  -17.5111 O   0  0  0  0  0  0  0  0  0  0  0  0
   18.3965   -9.5051  -13.2729 O   0  0  0  0  0  0  0  0  0  0  0  0
   19.2691   -8.4256  -13.4315 C   0  0  0  0  0  0  0  0  0  0  0  0
   18.8029   -7.2071  -13.8915 C   0  0  0  0  0  0  0  0  0  0  0  0
   19.6346   -6.1244  -14.0588 C   0  0  0  0  0  0  0  0  0  0  0  0
   20.9941   -6.2217  -13.7657 C   0  0  0  0  0  0  0  0  0  0  0  0
   21.9056   -5.0957  -13.9421 C   0  0  0  0  0  0  0  0  0  0  0  0
   21.8658   -4.5743  -15.3691 C   0  0  2  0  0  0  0  0  0  0  0  0
   22.6120   -5.5058  -16.2278 N   0  0  0  0  0  0  0  0  0  0  0  0
   22.4682   -3.2515  -15.5388 C   0  0  0  0  0  0  0  0  0  0  0  0
   23.5770   -3.0436  -16.3584 O   0  0  0  0  0  0  0  0  0  0  0  0
   21.4579   -7.4344  -13.3081 C   0  0  0  0  0  0  0  0  0  0  0  0
   20.6136   -8.5281  -13.1398 C   0  0  0  0  0  0  0  0  0  0  0  0
   22.0218   -2.2346  -14.9566 O   0  0  0  0  0  0  0  0  0  0  0  0
  2  1  1  0
  3  2  1  0
  4  3  1  0
  4  5  1  0
  5  6  1  1
  5  7  1  0
  7  8  2  0
 10  9  1  6
 11  7  1  0
 11 10  1  0
 12 10  1  0
 12 21  1  0
 13 12  2  0
 15 14  1  0
 16 15  2  0
 17 16  1  0
 18 24  1  0
 18 17  2  0
 19 18  1  0
 20 22  1  0
 20 21  1  0
 20 19  1  1
 22 23  1  0
 24 25  2  0
 25 15  1  0
 26 22  2  0
M  END
$$$$
