MAY.pdb
     RDKit          3D

 26 26  0  0  1  0  0  0  0  0999 V2000
   24.4144  -18.2784  -16.6786 C   0  0  0  0  0  0  0  0  0  0  0  0
   25.6315  -16.9387  -16.5736 S   0  0  0  0  0  0  0  0  0  0  0  0
   25.4107  -16.1408  -14.9473 C   0  0  0  0  0  0  0  0  0  0  0  0
   24.1415  -15.3271  -14.9184 C   0  0  0  0  0  0  0  0  0  0  0  0
   24.2364  -14.2702  -15.9976 C   0  0  2  0  0  0  0  0  0  0  0  0
   25.1673  -13.2567  -15.6231 N   0  0  0  0  0  0  0  0  0  0  0  0
   22.9088  -13.7858  -16.4142 C   0  0  0  0  0  0  0  0  0  0  0  0
   22.0908  -14.6369  -16.8407 O   0  0  0  0  0  0  0  0  0  0  0  0
   20.1395  -12.4817  -15.8539 C   0  0  0  0  0  0  0  0  0  0  0  0
   21.2354  -11.9327  -16.7415 C   0  0  2  0  0  0  0  0  0  0  0  0
   22.5421  -12.4312  -16.3485 N   0  0  0  0  0  0  0  0  0  0  0  0
   21.1749  -10.4688  -16.7712 C   0  0  0  0  0  0  0  0  0  0  0  0
   21.6383   -9.8125  -15.8291 O   0  0  0  0  0  0  0  0  0  0  0  0
   19.8650   -2.2846  -19.7557 O   0  0  0  0  0  0  0  0  0  0  0  0
   19.9396   -3.6756  -19.6501 C   0  0  0  0  0  0  0  0  0  0  0  0
   21.1196   -4.3396  -19.9340 C   0  0  0  0  0  0  0  0  0  0  0  0
   21.2273   -5.7075  -19.8400 C   0  0  0  0  0  0  0  0  0  0  0  0
   20.1345   -6.4805  -19.4498 C   0  0  0  0  0  0  0  0  0  0  0  0
   20.2118   -7.9344  -19.3503 C   0  0  0  0  0  0  0  0  0  0  0  0
   20.5378   -8.3718  -17.9318 C   0  0  2  0  0  0  0  0  0  0  0  0
   20.5789   -9.8411  -17.8939 N   0  0  0  0  0  0  0  0  0  0  0  0
   19.5587   -7.9399  -16.9335 C   0  0  0  0  0  0  0  0  0  0  0  0
   19.7430   -6.7904  -16.1661 O   0  0  0  0  0  0  0  0  0  0  0  0
   18.9603   -5.8196  -19.1675 C   0  0  0  0  0  0  0  0  0  0  0  0
   18.8546   -4.4351  -19.2635 C   0  0  0  0  0  0  0  0  0  0  0  0
   18.5029   -8.5795  -16.7133 O   0  0  0  0  0  0  0  0  0  0  0  0
  2  1  1  0
  3  2  1  0
  4  3  1  0
  4  5  1  0
  5  6  1  1
  5  7  1  0
  7  8  2  0
 10  9  1  1
 11  7  1  0
 11 10  1  0
 12 10  1  0
 12 21  1  0
 13 12  2  0
 15 14  1  0
 16 15  2  0
 17 16  1  0
 18 24  1  0
 18 17  2  0
 19 18  1  0
 20 22  1  0
 20 21  1  0
 20 19  1  6
 22 23  1  0
 24 25  2  0
 25 15  1  0
 26 22  2  0
M  END
$$$$
