MAY.pdb
     RDKit          3D

 26 26  0  0  1  0  0  0  0  0999 V2000
   17.1346  -15.9809  -12.2436 C   0  0  0  0  0  0  0  0  0  0  0  0
   15.7874  -15.8332  -13.4480 S   0  0  0  0  0  0  0  0  0  0  0  0
   16.5524  -15.4802  -15.0667 C   0  0  0  0  0  0  0  0  0  0  0  0
   17.6031  -14.4062  -14.9391 C   0  0  0  0  0  0  0  0  0  0  0  0
   18.1789  -14.1467  -16.3145 C   0  0  2  0  0  0  0  0  0  0  0  0
   19.3857  -14.8843  -16.4977 N   0  0  0  0  0  0  0  0  0  0  0  0
   18.2673  -12.7066  -16.6132 C   0  0  0  0  0  0  0  0  0  0  0  0
   19.4107  -12.1891  -16.6303 O   0  0  0  0  0  0  0  0  0  0  0  0
   15.8346   -9.9513  -17.5564 C   0  0  0  0  0  0  0  0  0  0  0  0
   17.2017  -10.5078  -17.2224 C   0  0  2  0  0  0  0  0  0  0  0  0
   17.1352  -11.9163  -16.8734 N   0  0  0  0  0  0  0  0  0  0  0  0
   17.8356   -9.6968  -16.1794 C   0  0  0  0  0  0  0  0  0  0  0  0
   17.7284  -10.0261  -14.9907 O   0  0  0  0  0  0  0  0  0  0  0  0
   22.4924   -2.4968  -13.9132 O   0  0  0  0  0  0  0  0  0  0  0  0
   22.0263   -3.7228  -14.3942 C   0  0  0  0  0  0  0  0  0  0  0  0
   22.2386   -4.8860  -13.6760 C   0  0  0  0  0  0  0  0  0  0  0  0
   21.7931   -6.1089  -14.1206 C   0  0  0  0  0  0  0  0  0  0  0  0
   21.1030   -6.2173  -15.3272 C   0  0  0  0  0  0  0  0  0  0  0  0
   20.6262   -7.5005  -15.8327 C   0  0  0  0  0  0  0  0  0  0  0  0
   19.1528   -7.7019  -15.5190 C   0  0  2  0  0  0  0  0  0  0  0  0
   18.5623   -8.5439  -16.5699 N   0  0  0  0  0  0  0  0  0  0  0  0
   18.3773   -6.4618  -15.4707 C   0  0  0  0  0  0  0  0  0  0  0  0
   18.2510   -5.7139  -14.3006 O   0  0  0  0  0  0  0  0  0  0  0  0
   20.8919   -5.0597  -16.0419 C   0  0  0  0  0  0  0  0  0  0  0  0
   21.3440   -3.8236  -15.5891 C   0  0  0  0  0  0  0  0  0  0  0  0
   17.7843   -6.0053  -16.4767 O   0  0  0  0  0  0  0  0  0  0  0  0
  2  1  1  0
  3  2  1  0
  4  3  1  0
  4  5  1  0
  5  6  1  1
  5  7  1  0
  7  8  2  0
 10  9  1  1
 11  7  1  0
 11 10  1  0
 12 10  1  0
 12 21  1  0
 13 12  2  0
 15 14  1  0
 16 15  2  0
 17 16  1  0
 18 24  1  0
 18 17  2  0
 19 18  1  0
 20 22  1  0
 20 21  1  0
 20 19  1  6
 22 23  1  0
 24 25  2  0
 25 15  1  0
 26 22  2  0
M  END
$$$$
