MAY.pdb
     RDKit          3D

 26 26  0  0  1  0  0  0  0  0999 V2000
   25.0833   -0.9440  -19.7920 C   0  0  0  0  0  0  0  0  0  0  0  0
   23.5799   -0.7411  -20.7850 S   0  0  0  0  0  0  0  0  0  0  0  0
   22.1795   -1.2992  -19.7568 C   0  0  0  0  0  0  0  0  0  0  0  0
   22.4670   -2.6484  -19.1479 C   0  0  0  0  0  0  0  0  0  0  0  0
   21.2663   -3.0566  -18.3219 C   0  0  2  0  0  0  0  0  0  0  0  0
   20.6982   -1.9213  -17.6722 N   0  0  0  0  0  0  0  0  0  0  0  0
   21.5630   -4.2032  -17.4456 C   0  0  0  0  0  0  0  0  0  0  0  0
   22.0070   -5.2449  -17.9872 O   0  0  0  0  0  0  0  0  0  0  0  0
   21.5655   -4.9179  -13.7284 C   0  0  0  0  0  0  0  0  0  0  0  0
   21.5313   -5.3178  -15.1876 C   0  0  2  0  0  0  0  0  0  0  0  0
   21.3680   -4.1638  -16.0548 N   0  0  0  0  0  0  0  0  0  0  0  0
   20.5036   -6.3391  -15.4070 C   0  0  0  0  0  0  0  0  0  0  0  0
   19.3600   -6.0024  -15.7414 O   0  0  0  0  0  0  0  0  0  0  0  0
   16.7221  -14.2193  -16.4541 O   0  0  0  0  0  0  0  0  0  0  0  0
   17.6466  -13.2032  -16.1998 C   0  0  0  0  0  0  0  0  0  0  0  0
   18.1021  -12.3948  -17.2259 C   0  0  0  0  0  0  0  0  0  0  0  0
   19.0116  -11.3859  -17.0101 C   0  0  0  0  0  0  0  0  0  0  0  0
   19.5111  -11.1418  -15.7316 C   0  0  0  0  0  0  0  0  0  0  0  0
   20.4847  -10.0866  -15.4702 C   0  0  0  0  0  0  0  0  0  0  0  0
   19.8171   -8.7221  -15.4218 C   0  0  2  0  0  0  0  0  0  0  0  0
   20.8562   -7.7003  -15.2269 N   0  0  0  0  0  0  0  0  0  0  0  0
   18.8493   -8.5687  -14.3348 C   0  0  0  0  0  0  0  0  0  0  0  0
   17.4797   -8.7376  -14.5349 O   0  0  0  0  0  0  0  0  0  0  0  0
   19.0578  -11.9464  -14.7106 C   0  0  0  0  0  0  0  0  0  0  0  0
   18.1373  -12.9667  -14.9323 C   0  0  0  0  0  0  0  0  0  0  0  0
   19.1981   -8.2765  -13.1664 O   0  0  0  0  0  0  0  0  0  0  0  0
  2  1  1  0
  3  2  1  0
  4  3  1  0
  4  5  1  0
  5  6  1  1
  5  7  1  0
  7  8  2  0
 10  9  1  1
 11  7  1  0
 11 10  1  0
 12 10  1  0
 12 21  1  0
 13 12  2  0
 15 14  1  0
 16 15  2  0
 17 16  1  0
 18 24  1  0
 18 17  2  0
 19 18  1  0
 20 22  1  0
 20 21  1  0
 20 19  1  1
 22 23  1  0
 24 25  2  0
 25 15  1  0
 26 22  2  0
M  END
$$$$
