MAY.pdb
     RDKit          3D

 26 26  0  0  1  0  0  0  0  0999 V2000
   28.3140  -19.7094   -6.6527 C   0  0  0  0  0  0  0  0  0  0  0  0
   28.3177  -21.4901   -6.9935 S   0  0  0  0  0  0  0  0  0  0  0  0
   28.7681  -21.6984   -8.7496 C   0  0  0  0  0  0  0  0  0  0  0  0
   27.7091  -21.1093   -9.6470 C   0  0  0  0  0  0  0  0  0  0  0  0
   28.1996  -21.2017  -11.0758 C   0  0  2  0  0  0  0  0  0  0  0  0
   29.5156  -20.6635  -11.1875 N   0  0  0  0  0  0  0  0  0  0  0  0
   27.2153  -20.6675  -12.0331 C   0  0  0  0  0  0  0  0  0  0  0  0
   26.8765  -19.4659  -11.9036 O   0  0  0  0  0  0  0  0  0  0  0  0
   25.7785  -21.4580  -15.3516 C   0  0  0  0  0  0  0  0  0  0  0  0
   25.5857  -20.9877  -13.9261 C   0  0  2  0  0  0  0  0  0  0  0  0
   26.6593  -21.4465  -13.0617 N   0  0  0  0  0  0  0  0  0  0  0  0
   24.2610  -21.3824  -13.4394 C   0  0  0  0  0  0  0  0  0  0  0  0
   24.1115  -22.4720  -12.8707 O   0  0  0  0  0  0  0  0  0  0  0  0
   16.0175  -20.7678  -10.5353 O   0  0  0  0  0  0  0  0  0  0  0  0
   17.3424  -20.5516  -10.9219 C   0  0  0  0  0  0  0  0  0  0  0  0
   18.3602  -21.3384  -10.4131 C   0  0  0  0  0  0  0  0  0  0  0  0
   19.6746  -21.1525  -10.7727 C   0  0  0  0  0  0  0  0  0  0  0  0
   20.0289  -20.1502  -11.6747 C   0  0  0  0  0  0  0  0  0  0  0  0
   21.4148  -19.9193  -12.0691 C   0  0  0  0  0  0  0  0  0  0  0  0
   21.8468  -20.8915  -13.1546 C   0  0  2  0  0  0  0  0  0  0  0  0
   23.1766  -20.4912  -13.6379 N   0  0  0  0  0  0  0  0  0  0  0  0
   20.9561  -20.9253  -14.3152 C   0  0  0  0  0  0  0  0  0  0  0  0
   19.8814  -21.8100  -14.3969 O   0  0  0  0  0  0  0  0  0  0  0  0
   19.0160  -19.3671  -12.1808 C   0  0  0  0  0  0  0  0  0  0  0  0
   17.6867  -19.5579  -11.8149 C   0  0  0  0  0  0  0  0  0  0  0  0
   21.1110  -20.1628  -15.2984 O   0  0  0  0  0  0  0  0  0  0  0  0
  2  1  1  0
  3  2  1  0
  4  3  1  0
  4  5  1  0
  5  6  1  1
  5  7  1  0
  7  8  2  0
 10  9  1  6
 11  7  1  0
 11 10  1  0
 12 10  1  0
 12 21  1  0
 13 12  2  0
 15 14  1  0
 16 15  2  0
 17 16  1  0
 18 24  1  0
 18 17  2  0
 19 18  1  0
 20 22  1  0
 20 21  1  0
 20 19  1  1
 22 23  1  0
 24 25  2  0
 25 15  1  0
 26 22  2  0
M  END
$$$$
