MAY.pdb
     RDKit          3D

 26 26  0  0  1  0  0  0  0  0999 V2000
   23.4607  -19.7893  -18.2579 C   0  0  0  0  0  0  0  0  0  0  0  0
   24.0065  -19.8818  -19.9844 S   0  0  0  0  0  0  0  0  0  0  0  0
   25.6916  -20.5821  -19.9767 C   0  0  0  0  0  0  0  0  0  0  0  0
   26.0813  -21.0233  -18.5884 C   0  0  0  0  0  0  0  0  0  0  0  0
   27.2237  -20.1477  -18.1206 C   0  0  2  0  0  0  0  0  0  0  0  0
   28.4261  -20.4861  -18.8088 N   0  0  0  0  0  0  0  0  0  0  0  0
   27.3256  -20.1115  -16.6512 C   0  0  0  0  0  0  0  0  0  0  0  0
   27.7454  -21.1448  -16.0754 O   0  0  0  0  0  0  0  0  0  0  0  0
   26.8600  -17.5175  -13.9290 C   0  0  0  0  0  0  0  0  0  0  0  0
   27.0529  -18.9268  -14.4458 C   0  0  2  0  0  0  0  0  0  0  0  0
   26.9750  -18.9802  -15.8955 N   0  0  0  0  0  0  0  0  0  0  0  0
   26.1061  -19.8368  -13.7955 C   0  0  0  0  0  0  0  0  0  0  0  0
   24.9938  -20.0356  -14.3017 O   0  0  0  0  0  0  0  0  0  0  0  0
   27.6795  -18.9629   -6.4017 O   0  0  0  0  0  0  0  0  0  0  0  0
   27.3465  -19.7512   -7.5060 C   0  0  0  0  0  0  0  0  0  0  0  0
   26.0243  -20.0490   -7.7836 C   0  0  0  0  0  0  0  0  0  0  0  0
   25.6620  -20.8217   -8.8621 C   0  0  0  0  0  0  0  0  0  0  0  0
   26.6298  -21.3373   -9.7231 C   0  0  0  0  0  0  0  0  0  0  0  0
   26.2802  -22.1691  -10.8701 C   0  0  0  0  0  0  0  0  0  0  0  0
   25.5400  -21.3657  -11.9267 C   0  0  2  0  0  0  0  0  0  0  0  0
   26.4993  -20.4701  -12.5897 N   0  0  0  0  0  0  0  0  0  0  0  0
   24.4626  -20.5299  -11.3957 C   0  0  0  0  0  0  0  0  0  0  0  0
   24.6346  -19.1674  -11.1536 O   0  0  0  0  0  0  0  0  0  0  0  0
   27.9455  -21.0410   -9.4466 C   0  0  0  0  0  0  0  0  0  0  0  0
   28.3089  -20.2587   -8.3543 C   0  0  0  0  0  0  0  0  0  0  0  0
   23.3281  -20.9925  -11.1288 O   0  0  0  0  0  0  0  0  0  0  0  0
  2  1  1  0
  3  2  1  0
  4  3  1  0
  4  5  1  0
  5  6  1  6
  5  7  1  0
  7  8  2  0
 10  9  1  1
 11  7  1  0
 11 10  1  0
 12 10  1  0
 12 21  1  0
 13 12  2  0
 15 14  1  0
 16 15  2  0
 17 16  1  0
 18 24  1  0
 18 17  2  0
 19 18  1  0
 20 22  1  0
 20 21  1  0
 20 19  1  1
 22 23  1  0
 24 25  2  0
 25 15  1  0
 26 22  2  0
M  END
$$$$
