MAY.pdb
     RDKit          3D

 26 26  0  0  1  0  0  0  0  0999 V2000
   26.7517  -20.9186   -7.9033 C   0  0  0  0  0  0  0  0  0  0  0  0
   28.4718  -21.4343   -7.6529 S   0  0  0  0  0  0  0  0  0  0  0  0
   29.2770  -21.4266   -9.2905 C   0  0  0  0  0  0  0  0  0  0  0  0
   28.3130  -20.9754  -10.3586 C   0  0  0  0  0  0  0  0  0  0  0  0
   29.0114  -21.0820  -11.6971 C   0  0  2  0  0  0  0  0  0  0  0  0
   30.3085  -20.4926  -11.6316 N   0  0  0  0  0  0  0  0  0  0  0  0
   28.1592  -20.6124  -12.8034 C   0  0  0  0  0  0  0  0  0  0  0  0
   27.9443  -19.3784  -12.8837 O   0  0  0  0  0  0  0  0  0  0  0  0
   26.5834  -21.8457  -15.9541 C   0  0  0  0  0  0  0  0  0  0  0  0
   26.5010  -21.1175  -14.6300 C   0  0  2  0  0  0  0  0  0  0  0  0
   27.5948  -21.4860  -13.7479 N   0  0  0  0  0  0  0  0  0  0  0  0
   25.1862  -21.3297  -14.0185 C   0  0  0  0  0  0  0  0  0  0  0  0
   25.1000  -21.5657  -12.8061 O   0  0  0  0  0  0  0  0  0  0  0  0
   17.8306  -17.7277  -11.6773 O   0  0  0  0  0  0  0  0  0  0  0  0
   19.0616  -18.1627  -12.1744 C   0  0  0  0  0  0  0  0  0  0  0  0
   19.8307  -19.0619  -11.4576 C   0  0  0  0  0  0  0  0  0  0  0  0
   21.0467  -19.5105  -11.9180 C   0  0  0  0  0  0  0  0  0  0  0  0
   21.5507  -19.0669  -13.1399 C   0  0  0  0  0  0  0  0  0  0  0  0
   22.8417  -19.5147  -13.6523 C   0  0  0  0  0  0  0  0  0  0  0  0
   22.7490  -20.9198  -14.2240 C   0  0  2  0  0  0  0  0  0  0  0  0
   24.0378  -21.2569  -14.8464 N   0  0  0  0  0  0  0  0  0  0  0  0
   21.7173  -21.0807  -15.2494 C   0  0  0  0  0  0  0  0  0  0  0  0
   20.4859  -21.6736  -14.9727 O   0  0  0  0  0  0  0  0  0  0  0  0
   20.7853  -18.1720  -13.8530 C   0  0  0  0  0  0  0  0  0  0  0  0
   19.5551  -17.7200  -13.3843 C   0  0  0  0  0  0  0  0  0  0  0  0
   21.8845  -20.6960  -16.4310 O   0  0  0  0  0  0  0  0  0  0  0  0
  2  1  1  0
  3  2  1  0
  4  3  1  0
  4  5  1  0
  5  6  1  1
  5  7  1  0
  7  8  2  0
 10  9  1  6
 11  7  1  0
 11 10  1  0
 12 10  1  0
 12 21  1  0
 13 12  2  0
 15 14  1  0
 16 15  2  0
 17 16  1  0
 18 24  1  0
 18 17  2  0
 19 18  1  0
 20 22  1  0
 20 21  1  0
 20 19  1  6
 22 23  1  0
 24 25  2  0
 25 15  1  0
 26 22  2  0
M  END
$$$$
