MAY.pdb
     RDKit          3D

 26 26  0  0  1  0  0  0  0  0999 V2000
   23.5615  -13.5625    8.6349 C   0  0  0  0  0  0  0  0  0  0  0  0
   23.0299  -12.0829    9.5378 S   0  0  0  0  0  0  0  0  0  0  0  0
   21.6041  -11.3881    8.6354 C   0  0  0  0  0  0  0  0  0  0  0  0
   20.4806  -12.3907    8.5567 C   0  0  0  0  0  0  0  0  0  0  0  0
   19.3349  -11.7539    7.7999 C   0  0  2  0  0  0  0  0  0  0  0  0
   18.7613  -10.6938    8.5622 N   0  0  0  0  0  0  0  0  0  0  0  0
   18.3811  -12.7572    7.2955 C   0  0  0  0  0  0  0  0  0  0  0  0
   17.8021  -13.4809    8.1420 O   0  0  0  0  0  0  0  0  0  0  0  0
   16.7503  -13.6246    4.0085 C   0  0  0  0  0  0  0  0  0  0  0  0
   17.2395  -13.9604    5.4006 C   0  0  2  0  0  0  0  0  0  0  0  0
   18.1082  -12.9219    5.9272 N   0  0  0  0  0  0  0  0  0  0  0  0
   17.8712  -15.2827    5.4083 C   0  0  0  0  0  0  0  0  0  0  0  0
   19.0186  -15.4214    4.9642 O   0  0  0  0  0  0  0  0  0  0  0  0
   20.2400  -23.4184    7.2980 O   0  0  0  0  0  0  0  0  0  0  0  0
   19.7382  -22.1147    7.2836 C   0  0  0  0  0  0  0  0  0  0  0  0
   20.4707  -21.0861    6.7187 C   0  0  0  0  0  0  0  0  0  0  0  0
   20.0062  -19.7918    6.6878 C   0  0  0  0  0  0  0  0  0  0  0  0
   18.7639  -19.4702    7.2328 C   0  0  0  0  0  0  0  0  0  0  0  0
   18.2463  -18.1058    7.2260 C   0  0  0  0  0  0  0  0  0  0  0  0
   17.7329  -17.7193    5.8487 C   0  0  2  0  0  0  0  0  0  0  0  0
   17.1379  -16.3773    5.9316 N   0  0  0  0  0  0  0  0  0  0  0  0
   16.7049  -18.6171    5.3207 C   0  0  0  0  0  0  0  0  0  0  0  0
   15.3455  -18.3221    5.4167 O   0  0  0  0  0  0  0  0  0  0  0  0
   18.0351  -20.4940    7.7951 C   0  0  0  0  0  0  0  0  0  0  0  0
   18.5080  -21.8027    7.8247 C   0  0  0  0  0  0  0  0  0  0  0  0
   16.9898  -19.6993    4.7551 O   0  0  0  0  0  0  0  0  0  0  0  0
  2  1  1  0
  3  2  1  0
  4  3  1  0
  4  5  1  0
  5  6  1  1
  5  7  1  0
  7  8  2  0
 10  9  1  6
 11  7  1  0
 11 10  1  0
 12 10  1  0
 12 21  1  0
 13 12  2  0
 15 14  1  0
 16 15  2  0
 17 16  1  0
 18 24  1  0
 18 17  2  0
 19 18  1  0
 20 22  1  0
 20 21  1  0
 20 19  1  1
 22 23  1  0
 24 25  2  0
 25 15  1  0
 26 22  2  0
M  END
$$$$
