MAY.pdb
     RDKit          3D

 26 26  0  0  1  0  0  0  0  0999 V2000
   22.8803  -20.1826  -19.4486 C   0  0  0  0  0  0  0  0  0  0  0  0
   24.1860  -19.5156  -20.5152 S   0  0  0  0  0  0  0  0  0  0  0  0
   25.7797  -20.0760  -19.8251 C   0  0  0  0  0  0  0  0  0  0  0  0
   25.6567  -20.3477  -18.3470 C   0  0  0  0  0  0  0  0  0  0  0  0
   27.0328  -20.6863  -17.8156 C   0  0  2  0  0  0  0  0  0  0  0  0
   27.6392  -21.7023  -18.6118 N   0  0  0  0  0  0  0  0  0  0  0  0
   27.0161  -20.9461  -16.3654 C   0  0  0  0  0  0  0  0  0  0  0  0
   26.9059  -22.1398  -15.9933 O   0  0  0  0  0  0  0  0  0  0  0  0
   27.7045  -19.0109  -13.2090 C   0  0  0  0  0  0  0  0  0  0  0  0
   27.0674  -20.1485  -13.9773 C   0  0  2  0  0  0  0  0  0  0  0  0
   27.1180  -19.9200  -15.4111 N   0  0  0  0  0  0  0  0  0  0  0  0
   25.7056  -20.3857  -13.4909 C   0  0  0  0  0  0  0  0  0  0  0  0
   25.5167  -20.6796  -12.3030 O   0  0  0  0  0  0  0  0  0  0  0  0
   22.4862  -16.4088  -18.7997 O   0  0  0  0  0  0  0  0  0  0  0  0
   22.5117  -17.0576  -17.5627 C   0  0  0  0  0  0  0  0  0  0  0  0
   23.6462  -17.0184  -16.7720 C   0  0  0  0  0  0  0  0  0  0  0  0
   23.7048  -17.6460  -15.5495 C   0  0  0  0  0  0  0  0  0  0  0  0
   22.6066  -18.3521  -15.0606 C   0  0  0  0  0  0  0  0  0  0  0  0
   22.6391  -19.0379  -13.7729 C   0  0  0  0  0  0  0  0  0  0  0  0
   23.2600  -20.4192  -13.9011 C   0  0  2  0  0  0  0  0  0  0  0  0
   24.6317  -20.2694  -14.4090 N   0  0  0  0  0  0  0  0  0  0  0  0
   22.5519  -21.3094  -14.8218 C   0  0  0  0  0  0  0  0  0  0  0  0
   21.2905  -21.8258  -14.5275 O   0  0  0  0  0  0  0  0  0  0  0  0
   21.4777  -18.3912  -15.8477 C   0  0  0  0  0  0  0  0  0  0  0  0
   21.4216  -17.7550  -17.0844 C   0  0  0  0  0  0  0  0  0  0  0  0
   23.0403  -21.6567  -15.9232 O   0  0  0  0  0  0  0  0  0  0  0  0
  2  1  1  0
  3  2  1  0
  4  3  1  0
  4  5  1  0
  5  6  1  6
  5  7  1  0
  7  8  2  0
 10  9  1  1
 11  7  1  0
 11 10  1  0
 12 10  1  0
 12 21  1  0
 13 12  2  0
 15 14  1  0
 16 15  2  0
 17 16  1  0
 18 24  1  0
 18 17  2  0
 19 18  1  0
 20 22  1  0
 20 21  1  0
 20 19  1  6
 22 23  1  0
 24 25  2  0
 25 15  1  0
 26 22  2  0
M  END
$$$$
