NEK.pdb
     RDKit          3D

 27 26  0  0  1  0  0  0  0  0999 V2000
   18.9402  -13.5661  -17.6531 N   0  0  0  0  0  0  0  0  0  0  0  0
   18.7426  -13.4943  -16.2666 C   0  0  0  0  0  0  0  0  0  0  0  0
   18.4403  -14.4765  -15.5334 O   0  0  0  0  0  0  0  0  0  0  0  0
   18.8912  -12.1835  -15.5837 C   0  0  0  0  0  0  0  0  0  0  0  0
   19.1979  -11.0607  -16.5597 C   0  0  2  0  0  0  0  0  0  0  0  0
   20.5917  -11.0975  -16.9727 N   0  0  0  0  0  0  0  0  0  0  0  0
   18.9417   -9.7825  -15.8195 C   0  0  0  0  0  0  0  0  0  0  0  0
   17.7666   -9.5661  -15.3798 O   0  0  0  0  0  0  0  0  0  0  0  0
   20.0120   -8.8389  -15.6208 N   0  0  0  0  0  0  0  0  0  0  0  0
   19.7202   -7.6212  -14.9629 C   0  0  1  0  0  0  0  0  0  0  0  0
   21.0435   -6.8976  -14.7138 C   0  0  0  0  0  0  0  0  0  0  0  0
   20.8403   -5.6905  -13.8242 C   0  0  0  0  0  0  0  0  0  0  0  0
   22.1551   -5.0647  -13.5964 C   0  0  0  0  0  0  0  0  0  0  0  0
   23.1977   -5.7324  -13.7899 O   0  0  0  0  0  0  0  0  0  0  0  0
   18.8439   -6.6787  -15.6353 C   0  0  0  0  0  0  0  0  0  0  0  0
   19.0680   -6.4800  -16.8785 O   0  0  0  0  0  0  0  0  0  0  0  0
   22.2379   -3.7585  -13.1780 O   0  0  0  0  0  0  0  0  0  0  0  0
   17.7864   -5.9652  -15.0834 N   0  0  0  0  0  0  0  0  0  0  0  0
   16.9148   -5.1048  -15.9748 C   0  0  1  0  0  0  0  0  0  0  0  0
   15.5530   -5.5769  -15.6363 C   0  0  0  0  0  0  0  0  0  0  0  0
   14.3339   -4.8462  -15.9343 C   0  0  0  0  0  0  0  0  0  0  0  0
   13.0480   -5.4747  -15.5823 C   0  0  0  0  0  0  0  0  0  0  0  0
   11.8566   -4.5890  -16.0054 C   0  0  0  0  0  0  0  0  0  0  0  0
   10.6241   -5.2937  -15.7272 N   0  0  0  0  0  0  0  0  0  0  0  0
   17.2794   -3.7463  -15.5046 C   0  0  0  0  0  0  0  0  0  0  0  0
   17.2449   -2.7177  -16.2168 O   0  0  0  0  0  0  0  0  0  0  0  0
   17.7033   -3.5111  -14.1782 O   0  0  0  0  0  0  0  0  0  0  0  0
  2  1  1  0
  3  2  2  0
  4  5  1  0
  4  2  1  0
  5  6  1  1
  7  8  2  0
  7  5  1  0
  9  7  1  0
 10  9  1  0
 10 11  1  6
 11 12  1  0
 12 13  1  0
 13 17  1  0
 14 13  2  0
 15 10  1  0
 16 15  2  0
 18 15  1  0
 19 20  1  1
 19 18  1  0
 20 21  1  0
 22 21  1  0
 23 22  1  0
 24 23  1  0
 25 27  1  0
 25 19  1  0
 26 25  2  0
M  END
$$$$
