NEK.pdb
     RDKit          3D

 27 26  0  0  1  0  0  0  0  0999 V2000
   26.4867  -22.8955  -11.3903 N   0  0  0  0  0  0  0  0  0  0  0  0
   25.8407  -21.6975  -11.7280 C   0  0  0  0  0  0  0  0  0  0  0  0
   26.1247  -20.5676  -11.2417 O   0  0  0  0  0  0  0  0  0  0  0  0
   24.7395  -21.7279  -12.7245 C   0  0  0  0  0  0  0  0  0  0  0  0
   23.6115  -20.7779  -12.3609 C   0  0  2  0  0  0  0  0  0  0  0  0
   23.0812  -21.0818  -11.0414 N   0  0  0  0  0  0  0  0  0  0  0  0
   22.5358  -20.9969  -13.3817 C   0  0  0  0  0  0  0  0  0  0  0  0
   22.8219  -20.8098  -14.6081 O   0  0  0  0  0  0  0  0  0  0  0  0
   21.2203  -21.4101  -12.9638 N   0  0  0  0  0  0  0  0  0  0  0  0
   20.2030  -21.5026  -13.9423 C   0  0  1  0  0  0  0  0  0  0  0  0
   19.0057  -22.2069  -13.3042 C   0  0  0  0  0  0  0  0  0  0  0  0
   18.0189  -22.6578  -14.3590 C   0  0  0  0  0  0  0  0  0  0  0  0
   16.8597  -23.2566  -13.6735 C   0  0  0  0  0  0  0  0  0  0  0  0
   16.2159  -22.5756  -12.8416 O   0  0  0  0  0  0  0  0  0  0  0  0
   19.7059  -20.2686  -14.5242 C   0  0  0  0  0  0  0  0  0  0  0  0
   19.3621  -19.3501  -13.7035 O   0  0  0  0  0  0  0  0  0  0  0  0
   16.4854  -24.5503  -13.9460 O   0  0  0  0  0  0  0  0  0  0  0  0
   19.5599  -19.9685  -15.8735 N   0  0  0  0  0  0  0  0  0  0  0  0
   19.0439  -18.6060  -16.2881 C   0  0  1  0  0  0  0  0  0  0  0  0
   19.9877  -18.2241  -17.3628 C   0  0  0  0  0  0  0  0  0  0  0  0
   19.8723  -17.0197  -18.1661 C   0  0  0  0  0  0  0  0  0  0  0  0
   20.9202  -16.7543  -19.1681 C   0  0  0  0  0  0  0  0  0  0  0  0
   20.6320  -15.4549  -19.9500 C   0  0  0  0  0  0  0  0  0  0  0  0
   21.7447  -15.1803  -20.8330 N   0  0  0  0  0  0  0  0  0  0  0  0
   17.6620  -18.9408  -16.7100 C   0  0  0  0  0  0  0  0  0  0  0  0
   17.2218  -20.1060  -16.8322 O   0  0  0  0  0  0  0  0  0  0  0  0
   16.7164  -17.9363  -17.0115 O   0  0  0  0  0  0  0  0  0  0  0  0
  2  1  1  0
  3  2  2  0
  4  5  1  0
  4  2  1  0
  5  6  1  1
  7  8  2  0
  7  5  1  0
  9  7  1  0
 10  9  1  0
 10 11  1  1
 11 12  1  0
 12 13  1  0
 13 17  1  0
 14 13  2  0
 15 10  1  0
 16 15  2  0
 18 15  1  0
 19 20  1  6
 19 18  1  0
 20 21  1  0
 22 21  1  0
 23 22  1  0
 24 23  1  0
 25 27  1  0
 25 19  1  0
 26 25  2  0
M  END
$$$$
