NEK.pdb
     RDKit          3D

 27 26  0  0  1  0  0  0  0  0999 V2000
   18.4499  -17.4501  -15.9531 N   0  0  0  0  0  0  0  0  0  0  0  0
   18.2469  -16.1617  -16.4682 C   0  0  0  0  0  0  0  0  0  0  0  0
   17.4477  -15.8811  -17.4043 O   0  0  0  0  0  0  0  0  0  0  0  0
   19.0127  -15.0261  -15.8932 C   0  0  0  0  0  0  0  0  0  0  0  0
   19.1814  -13.8882  -16.8851 C   0  0  2  0  0  0  0  0  0  0  0  0
   19.8992  -14.3330  -18.0689 N   0  0  0  0  0  0  0  0  0  0  0  0
   19.9950  -12.8415  -16.1853 C   0  0  0  0  0  0  0  0  0  0  0  0
   19.5966  -12.4288  -15.0487 O   0  0  0  0  0  0  0  0  0  0  0  0
   21.1938  -12.3314  -16.8004 N   0  0  0  0  0  0  0  0  0  0  0  0
   21.9318  -11.3399  -16.1126 C   0  0  1  0  0  0  0  0  0  0  0  0
   23.3940  -11.4674  -16.5397 C   0  0  0  0  0  0  0  0  0  0  0  0
   24.0285  -12.7003  -15.9340 C   0  0  0  0  0  0  0  0  0  0  0  0
   25.4639  -12.6860  -16.2679 C   0  0  0  0  0  0  0  0  0  0  0  0
   25.9253  -11.7536  -16.9665 O   0  0  0  0  0  0  0  0  0  0  0  0
   21.5538   -9.9520  -16.3106 C   0  0  0  0  0  0  0  0  0  0  0  0
   21.1798   -9.6263  -17.4893 O   0  0  0  0  0  0  0  0  0  0  0  0
   26.2910  -13.6854  -15.8148 O   0  0  0  0  0  0  0  0  0  0  0  0
   21.5508   -8.9331  -15.3652 N   0  0  0  0  0  0  0  0  0  0  0  0
   21.0677   -7.5507  -15.7526 C   0  0  1  0  0  0  0  0  0  0  0  0
   19.6334   -7.7848  -16.0356 C   0  0  0  0  0  0  0  0  0  0  0  0
   18.8185   -6.9426  -16.8932 C   0  0  0  0  0  0  0  0  0  0  0  0
   17.3926   -7.2841  -17.0438 C   0  0  0  0  0  0  0  0  0  0  0  0
   16.6949   -6.3463  -18.0521 C   0  0  0  0  0  0  0  0  0  0  0  0
   15.3334   -6.7949  -18.2478 N   0  0  0  0  0  0  0  0  0  0  0  0
   21.3822   -6.7836  -14.5229 C   0  0  0  0  0  0  0  0  0  0  0  0
   21.5566   -7.2958  -13.3943 O   0  0  0  0  0  0  0  0  0  0  0  0
   21.5122   -5.3776  -14.5406 O   0  0  0  0  0  0  0  0  0  0  0  0
  2  1  1  0
  3  2  2  0
  4  5  1  0
  4  2  1  0
  5  6  1  6
  7  8  2  0
  7  5  1  0
  9  7  1  0
 10  9  1  0
 10 11  1  6
 11 12  1  0
 12 13  1  0
 13 17  1  0
 14 13  2  0
 15 10  1  0
 16 15  2  0
 18 15  1  0
 19 20  1  1
 19 18  1  0
 20 21  1  0
 22 21  1  0
 23 22  1  0
 24 23  1  0
 25 27  1  0
 25 19  1  0
 26 25  2  0
M  END
$$$$
