NEK.pdb
     RDKit          3D

 27 26  0  0  1  0  0  0  0  0999 V2000
   14.8412  -10.6325  -16.7201 N   0  0  0  0  0  0  0  0  0  0  0  0
   14.8658  -11.4250  -15.5634 C   0  0  0  0  0  0  0  0  0  0  0  0
   14.3345  -12.5659  -15.4642 O   0  0  0  0  0  0  0  0  0  0  0  0
   15.5572  -10.9126  -14.3526 C   0  0  0  0  0  0  0  0  0  0  0  0
   17.0566  -10.7863  -14.5595 C   0  0  2  0  0  0  0  0  0  0  0  0
   17.6853  -12.0961  -14.6186 N   0  0  0  0  0  0  0  0  0  0  0  0
   17.5818  -10.0460  -13.3664 C   0  0  0  0  0  0  0  0  0  0  0  0
   17.4728  -10.5931  -12.2219 O   0  0  0  0  0  0  0  0  0  0  0  0
   18.1918   -8.7516  -13.5337 N   0  0  0  0  0  0  0  0  0  0  0  0
   18.6040   -8.0489  -12.3774 C   0  0  1  0  0  0  0  0  0  0  0  0
   19.7684   -7.1414  -12.7740 C   0  0  0  0  0  0  0  0  0  0  0  0
   20.2942   -6.3818  -11.5756 C   0  0  0  0  0  0  0  0  0  0  0  0
   21.4130   -5.5351  -12.0267 C   0  0  0  0  0  0  0  0  0  0  0  0
   21.3786   -4.3012  -11.8106 O   0  0  0  0  0  0  0  0  0  0  0  0
   17.6257   -7.2113  -11.7066 C   0  0  0  0  0  0  0  0  0  0  0  0
   16.9742   -6.3946  -12.4441 O   0  0  0  0  0  0  0  0  0  0  0  0
   22.4870   -6.0938  -12.6766 O   0  0  0  0  0  0  0  0  0  0  0  0
   17.3139   -7.1939  -10.3522 N   0  0  0  0  0  0  0  0  0  0  0  0
   16.1870   -6.3137   -9.8524 C   0  0  1  0  0  0  0  0  0  0  0  0
   15.4044   -7.2484   -9.0124 C   0  0  0  0  0  0  0  0  0  0  0  0
   13.9804   -7.1245   -8.7556 C   0  0  0  0  0  0  0  0  0  0  0  0
   13.3418   -8.1397   -7.8987 C   0  0  0  0  0  0  0  0  0  0  0  0
   11.8510   -7.8163   -7.6621 C   0  0  0  0  0  0  0  0  0  0  0  0
   11.2274   -8.9359   -6.9909 N   0  0  0  0  0  0  0  0  0  0  0  0
   16.9451   -5.2586   -9.1371 C   0  0  0  0  0  0  0  0  0  0  0  0
   16.4632   -4.1608   -8.7779 O   0  0  0  0  0  0  0  0  0  0  0  0
   18.3063   -5.4250   -8.7997 O   0  0  0  0  0  0  0  0  0  0  0  0
  2  1  1  0
  3  2  2  0
  4  5  1  0
  4  2  1  0
  5  6  1  1
  7  8  2  0
  7  5  1  0
  9  7  1  0
 10  9  1  0
 10 11  1  6
 11 12  1  0
 12 13  1  0
 13 17  1  0
 14 13  2  0
 15 10  1  0
 16 15  2  0
 18 15  1  0
 19 20  1  1
 19 18  1  0
 20 21  1  0
 22 21  1  0
 23 22  1  0
 24 23  1  0
 25 27  1  0
 25 19  1  0
 26 25  2  0
M  END
$$$$
