NEK.pdb
     RDKit          3D

 27 26  0  0  1  0  0  0  0  0999 V2000
   17.0695  -14.0122  -15.9254 N   0  0  0  0  0  0  0  0  0  0  0  0
   18.2777  -13.4464  -15.4932 C   0  0  0  0  0  0  0  0  0  0  0  0
   19.3013  -14.1071  -15.1621 O   0  0  0  0  0  0  0  0  0  0  0  0
   18.3917  -11.9678  -15.4072 C   0  0  0  0  0  0  0  0  0  0  0  0
   19.3482  -11.4057  -16.4447 C   0  0  2  0  0  0  0  0  0  0  0  0
   20.7099  -11.8472  -16.1893 N   0  0  0  0  0  0  0  0  0  0  0  0
   19.2845   -9.9144  -16.3067 C   0  0  0  0  0  0  0  0  0  0  0  0
   18.1753   -9.3345  -16.5399 O   0  0  0  0  0  0  0  0  0  0  0  0
   20.4592   -9.1768  -15.9173 N   0  0  0  0  0  0  0  0  0  0  0  0
   20.3721   -7.7671  -15.8401 C   0  0  1  0  0  0  0  0  0  0  0  0
   21.3263   -7.3009  -14.7406 C   0  0  0  0  0  0  0  0  0  0  0  0
   21.2763   -5.7968  -14.5836 C   0  0  0  0  0  0  0  0  0  0  0  0
   22.2464   -5.4140  -13.5421 C   0  0  0  0  0  0  0  0  0  0  0  0
   22.4629   -4.2004  -13.3170 O   0  0  0  0  0  0  0  0  0  0  0  0
   20.6933   -7.0003  -17.0306 C   0  0  0  0  0  0  0  0  0  0  0  0
   21.8638   -7.1686  -17.5176 O   0  0  0  0  0  0  0  0  0  0  0  0
   22.9066   -6.3796  -12.8212 O   0  0  0  0  0  0  0  0  0  0  0  0
   19.8743   -6.1022  -17.7048 N   0  0  0  0  0  0  0  0  0  0  0  0
   20.3694   -5.4419  -18.9749 C   0  0  1  0  0  0  0  0  0  0  0  0
   19.2151   -5.6061  -19.8873 C   0  0  0  0  0  0  0  0  0  0  0  0
   19.0551   -6.7101  -20.8172 C   0  0  0  0  0  0  0  0  0  0  0  0
   17.7031   -6.9871  -21.3348 C   0  0  0  0  0  0  0  0  0  0  0  0
   17.6986   -8.2251  -22.2569 C   0  0  0  0  0  0  0  0  0  0  0  0
   16.3589   -8.4300  -22.7632 N   0  0  0  0  0  0  0  0  0  0  0  0
   20.6412   -4.0657  -18.4937 C   0  0  0  0  0  0  0  0  0  0  0  0
   21.3774   -3.2423  -19.0825 O   0  0  0  0  0  0  0  0  0  0  0  0
   20.0694   -3.5724  -17.3004 O   0  0  0  0  0  0  0  0  0  0  0  0
  2  1  1  0
  3  2  2  0
  4  5  1  0
  4  2  1  0
  5  6  1  1
  7  8  2  0
  7  5  1  0
  9  7  1  0
 10  9  1  0
 10 11  1  1
 11 12  1  0
 12 13  1  0
 13 17  1  0
 14 13  2  0
 15 10  1  0
 16 15  2  0
 18 15  1  0
 19 20  1  6
 19 18  1  0
 20 21  1  0
 22 21  1  0
 23 22  1  0
 24 23  1  0
 25 27  1  0
 25 19  1  0
 26 25  2  0
M  END
$$$$
