NEK.pdb
     RDKit          3D

 27 26  0  0  1  0  0  0  0  0999 V2000
   13.5829  -11.2206  -16.5260 N   0  0  0  0  0  0  0  0  0  0  0  0
   14.9500  -10.9344  -16.4014 C   0  0  0  0  0  0  0  0  0  0  0  0
   15.7437  -10.7883  -17.3722 O   0  0  0  0  0  0  0  0  0  0  0  0
   15.5355  -10.7881  -15.0440 C   0  0  0  0  0  0  0  0  0  0  0  0
   17.0338  -10.5432  -15.0897 C   0  0  2  0  0  0  0  0  0  0  0  0
   17.7647  -11.7997  -15.1311 N   0  0  0  0  0  0  0  0  0  0  0  0
   17.3775   -9.8200  -13.8224 C   0  0  0  0  0  0  0  0  0  0  0  0
   17.2060  -10.4272  -12.7166 O   0  0  0  0  0  0  0  0  0  0  0  0
   17.8889   -8.4742  -13.8778 N   0  0  0  0  0  0  0  0  0  0  0  0
   18.2344   -7.8366  -12.6634 C   0  0  1  0  0  0  0  0  0  0  0  0
   19.2191   -6.7141  -12.9903 C   0  0  0  0  0  0  0  0  0  0  0  0
   20.6004   -7.2690  -13.2618 C   0  0  0  0  0  0  0  0  0  0  0  0
   21.5744   -6.4574  -12.5102 C   0  0  0  0  0  0  0  0  0  0  0  0
   22.0393   -5.4154  -13.0284 O   0  0  0  0  0  0  0  0  0  0  0  0
   17.1654   -7.2449  -11.8787 C   0  0  0  0  0  0  0  0  0  0  0  0
   16.3286   -6.5162  -12.5144 O   0  0  0  0  0  0  0  0  0  0  0  0
   21.9679   -6.8380  -11.2499 O   0  0  0  0  0  0  0  0  0  0  0  0
   16.9450   -7.3790  -10.5129 N   0  0  0  0  0  0  0  0  0  0  0  0
   15.8265   -6.5994   -9.8528 C   0  0  1  0  0  0  0  0  0  0  0  0
   14.9681   -7.6765   -9.3097 C   0  0  0  0  0  0  0  0  0  0  0  0
   13.6091   -7.4821   -8.8360 C   0  0  0  0  0  0  0  0  0  0  0  0
   12.8825   -8.6561   -8.3200 C   0  0  0  0  0  0  0  0  0  0  0  0
   11.4963   -8.2597   -7.7685 C   0  0  0  0  0  0  0  0  0  0  0  0
   10.8494   -9.4370   -7.2312 N   0  0  0  0  0  0  0  0  0  0  0  0
   16.5844   -5.7958   -8.8632 C   0  0  0  0  0  0  0  0  0  0  0  0
   17.7734   -6.0120   -8.5373 O   0  0  0  0  0  0  0  0  0  0  0  0
   15.9993   -4.6952   -8.1996 O   0  0  0  0  0  0  0  0  0  0  0  0
  2  1  1  0
  3  2  2  0
  4  5  1  0
  4  2  1  0
  5  6  1  1
  7  8  2  0
  7  5  1  0
  9  7  1  0
 10  9  1  0
 10 11  1  6
 11 12  1  0
 12 13  1  0
 13 17  1  0
 14 13  2  0
 15 10  1  0
 16 15  2  0
 18 15  1  0
 19 20  1  1
 19 18  1  0
 20 21  1  0
 22 21  1  0
 23 22  1  0
 24 23  1  0
 25 27  1  0
 25 19  1  0
 26 25  2  0
M  END
$$$$
