NEK.pdb
     RDKit          3D

 27 26  0  0  1  0  0  0  0  0999 V2000
   17.9863  -14.6143  -15.8635 N   0  0  0  0  0  0  0  0  0  0  0  0
   17.6108  -13.9297  -17.0283 C   0  0  0  0  0  0  0  0  0  0  0  0
   17.0585  -14.4658  -18.0289 O   0  0  0  0  0  0  0  0  0  0  0  0
   17.8691  -12.4698  -17.1218 C   0  0  0  0  0  0  0  0  0  0  0  0
   18.4932  -11.9161  -15.8525 C   0  0  2  0  0  0  0  0  0  0  0  0
   17.6144  -12.1160  -14.7113 N   0  0  0  0  0  0  0  0  0  0  0  0
   18.6694  -10.4451  -16.0813 C   0  0  0  0  0  0  0  0  0  0  0  0
   19.1638  -10.0628  -17.1905 O   0  0  0  0  0  0  0  0  0  0  0  0
   18.2809   -9.5062  -15.0598 N   0  0  0  0  0  0  0  0  0  0  0  0
   18.4603   -8.1261  -15.3129 C   0  0  1  0  0  0  0  0  0  0  0  0
   17.4290   -7.3624  -14.4823 C   0  0  0  0  0  0  0  0  0  0  0  0
   17.4191   -5.8945  -14.8497 C   0  0  0  0  0  0  0  0  0  0  0  0
   16.4160   -5.2196  -14.0068 C   0  0  0  0  0  0  0  0  0  0  0  0
   16.7579   -4.2369  -13.3084 O   0  0  0  0  0  0  0  0  0  0  0  0
   19.7567   -7.5438  -15.0153 C   0  0  0  0  0  0  0  0  0  0  0  0
   20.3470   -7.9744  -13.9658 O   0  0  0  0  0  0  0  0  0  0  0  0
   15.1153   -5.6621  -13.9884 O   0  0  0  0  0  0  0  0  0  0  0  0
   20.4330   -6.5699  -15.7407 N   0  0  0  0  0  0  0  0  0  0  0  0
   21.8301   -6.1584  -15.3245 C   0  0  1  0  0  0  0  0  0  0  0  0
   22.4044   -5.6596  -16.5946 C   0  0  0  0  0  0  0  0  0  0  0  0
   23.7680   -5.9043  -17.0303 C   0  0  0  0  0  0  0  0  0  0  0  0
   24.2014   -5.3135  -18.3092 C   0  0  0  0  0  0  0  0  0  0  0  0
   25.6041   -5.8162  -18.7123 C   0  0  0  0  0  0  0  0  0  0  0  0
   25.9408   -5.2790  -20.0128 N   0  0  0  0  0  0  0  0  0  0  0  0
   21.5308   -5.1396  -14.2891 C   0  0  0  0  0  0  0  0  0  0  0  0
   20.4731   -4.4724  -14.2374 O   0  0  0  0  0  0  0  0  0  0  0  0
   22.4469   -4.8428  -13.2562 O   0  0  0  0  0  0  0  0  0  0  0  0
  2  1  1  0
  3  2  2  0
  4  5  1  0
  4  2  1  0
  5  6  1  1
  7  8  2  0
  7  5  1  0
  9  7  1  0
 10  9  1  0
 10 11  1  1
 11 12  1  0
 12 13  1  0
 13 17  1  0
 14 13  2  0
 15 10  1  0
 16 15  2  0
 18 15  1  0
 19 20  1  6
 19 18  1  0
 20 21  1  0
 22 21  1  0
 23 22  1  0
 24 23  1  0
 25 27  1  0
 25 19  1  0
 26 25  2  0
M  END
$$$$
