NEK.pdb
     RDKit          3D

 27 26  0  0  1  0  0  0  0  0999 V2000
   17.7925  -12.9388  -17.4496 N   0  0  0  0  0  0  0  0  0  0  0  0
   17.9825  -13.0257  -16.0629 C   0  0  0  0  0  0  0  0  0  0  0  0
   17.5666  -13.9734  -15.3399 O   0  0  0  0  0  0  0  0  0  0  0  0
   18.7203  -11.9407  -15.3666 C   0  0  0  0  0  0  0  0  0  0  0  0
   19.1146  -10.8184  -16.3112 C   0  0  2  0  0  0  0  0  0  0  0  0
   20.5207  -10.9108  -16.6698 N   0  0  0  0  0  0  0  0  0  0  0  0
   18.8850   -9.5411  -15.5609 C   0  0  0  0  0  0  0  0  0  0  0  0
   17.7036   -9.2786  -15.1653 O   0  0  0  0  0  0  0  0  0  0  0  0
   19.9871   -8.6495  -15.3035 N   0  0  0  0  0  0  0  0  0  0  0  0
   19.7099   -7.3884  -14.7261 C   0  0  1  0  0  0  0  0  0  0  0  0
   21.0458   -6.7309  -14.3797 C   0  0  0  0  0  0  0  0  0  0  0  0
   20.8317   -5.4388  -13.6219 C   0  0  0  0  0  0  0  0  0  0  0  0
   22.1533   -4.9066  -13.2443 C   0  0  0  0  0  0  0  0  0  0  0  0
   22.5852   -3.8729  -13.8057 O   0  0  0  0  0  0  0  0  0  0  0  0
   18.9600   -6.4291  -15.5171 C   0  0  0  0  0  0  0  0  0  0  0  0
   19.2898   -6.3245  -16.7482 O   0  0  0  0  0  0  0  0  0  0  0  0
   22.9053   -5.5369  -12.2824 O   0  0  0  0  0  0  0  0  0  0  0  0
   17.9220   -5.6088  -15.0908 N   0  0  0  0  0  0  0  0  0  0  0  0
   17.2549   -4.6695  -16.0742 C   0  0  1  0  0  0  0  0  0  0  0  0
   15.8374   -5.0905  -16.0017 C   0  0  0  0  0  0  0  0  0  0  0  0
   14.7187   -4.2878  -16.4636 C   0  0  0  0  0  0  0  0  0  0  0  0
   13.3721   -4.8850  -16.4128 C   0  0  0  0  0  0  0  0  0  0  0  0
   12.3308   -3.9797  -17.1048 C   0  0  0  0  0  0  0  0  0  0  0  0
   11.0877   -4.7079  -17.2369 N   0  0  0  0  0  0  0  0  0  0  0  0
   17.5845   -3.3519  -15.4785 C   0  0  0  0  0  0  0  0  0  0  0  0
   17.2141   -2.2513  -15.9456 O   0  0  0  0  0  0  0  0  0  0  0  0
   18.3628   -3.2439  -14.3052 O   0  0  0  0  0  0  0  0  0  0  0  0
  2  1  1  0
  3  2  2  0
  4  5  1  0
  4  2  1  0
  5  6  1  1
  7  8  2  0
  7  5  1  0
  9  7  1  0
 10  9  1  0
 10 11  1  6
 11 12  1  0
 12 13  1  0
 13 17  1  0
 14 13  2  0
 15 10  1  0
 16 15  2  0
 18 15  1  0
 19 20  1  1
 19 18  1  0
 20 21  1  0
 22 21  1  0
 23 22  1  0
 24 23  1  0
 25 27  1  0
 25 19  1  0
 26 25  2  0
M  END
$$$$
