NEK.pdb
     RDKit          3D

 27 26  0  0  1  0  0  0  0  0999 V2000
   28.9437  -20.4613  -18.1650 N   0  0  0  0  0  0  0  0  0  0  0  0
   28.7239  -21.7938  -17.7871 C   0  0  0  0  0  0  0  0  0  0  0  0
   29.2761  -22.7927  -18.3265 O   0  0  0  0  0  0  0  0  0  0  0  0
   27.7791  -22.0824  -16.6778 C   0  0  0  0  0  0  0  0  0  0  0  0
   27.1806  -20.8157  -16.0909 C   0  0  2  0  0  0  0  0  0  0  0  0
   28.1964  -20.0271  -15.4122 N   0  0  0  0  0  0  0  0  0  0  0  0
   26.1587  -21.2620  -15.0890 C   0  0  0  0  0  0  0  0  0  0  0  0
   25.2112  -22.0128  -15.4884 O   0  0  0  0  0  0  0  0  0  0  0  0
   26.2666  -20.8420  -13.7151 N   0  0  0  0  0  0  0  0  0  0  0  0
   25.2067  -21.1547  -12.8321 C   0  0  1  0  0  0  0  0  0  0  0  0
   25.6910  -20.8822  -11.4081 C   0  0  0  0  0  0  0  0  0  0  0  0
   24.6933  -21.3922  -10.3911 C   0  0  0  0  0  0  0  0  0  0  0  0
   25.2325  -21.1206   -9.0466 C   0  0  0  0  0  0  0  0  0  0  0  0
   26.2084  -20.3449   -8.9186 O   0  0  0  0  0  0  0  0  0  0  0  0
   23.9532  -20.4402  -12.9955 C   0  0  0  0  0  0  0  0  0  0  0  0
   24.0343  -19.1708  -13.1273 O   0  0  0  0  0  0  0  0  0  0  0  0
   24.6683  -21.7105   -7.9413 O   0  0  0  0  0  0  0  0  0  0  0  0
   22.6714  -20.9769  -13.0257 N   0  0  0  0  0  0  0  0  0  0  0  0
   21.4871  -20.0772  -13.3128 C   0  0  1  0  0  0  0  0  0  0  0  0
   21.5323  -19.9559  -14.7876 C   0  0  0  0  0  0  0  0  0  0  0  0
   20.5409  -19.2543  -15.5837 C   0  0  0  0  0  0  0  0  0  0  0  0
   20.6667  -19.3112  -17.0512 C   0  0  0  0  0  0  0  0  0  0  0  0
   19.5864  -18.4504  -17.7403 C   0  0  0  0  0  0  0  0  0  0  0  0
   19.8250  -18.4494  -19.1673 N   0  0  0  0  0  0  0  0  0  0  0  0
   20.3752  -20.8809  -12.7494 C   0  0  0  0  0  0  0  0  0  0  0  0
   19.2316  -20.4344  -12.5059 O   0  0  0  0  0  0  0  0  0  0  0  0
   20.5341  -22.2495  -12.4397 O   0  0  0  0  0  0  0  0  0  0  0  0
  2  1  1  0
  3  2  2  0
  4  5  1  0
  4  2  1  0
  5  6  1  1
  7  8  2  0
  7  5  1  0
  9  7  1  0
 10  9  1  0
 10 11  1  1
 11 12  1  0
 12 13  1  0
 13 17  1  0
 14 13  2  0
 15 10  1  0
 16 15  2  0
 18 15  1  0
 19 20  1  6
 19 18  1  0
 20 21  1  0
 22 21  1  0
 23 22  1  0
 24 23  1  0
 25 27  1  0
 25 19  1  0
 26 25  2  0
M  END
$$$$
