NEK.pdb
     RDKit          3D

 27 26  0  0  1  0  0  0  0  0999 V2000
   21.7435  -29.6465  -11.6024 N   0  0  0  0  0  0  0  0  0  0  0  0
   20.4710  -29.9586  -11.1024 C   0  0  0  0  0  0  0  0  0  0  0  0
   20.0781  -31.1240  -10.8179 O   0  0  0  0  0  0  0  0  0  0  0  0
   19.4936  -28.8617  -10.8826 C   0  0  0  0  0  0  0  0  0  0  0  0
   20.0701  -27.5015  -11.2354 C   0  0  2  0  0  0  0  0  0  0  0  0
   21.1302  -27.1309  -10.3116 N   0  0  0  0  0  0  0  0  0  0  0  0
   18.9424  -26.5228  -11.1025 C   0  0  0  0  0  0  0  0  0  0  0  0
   17.9334  -26.6588  -11.8669 O   0  0  0  0  0  0  0  0  0  0  0  0
   19.0186  -25.4650  -10.1272 N   0  0  0  0  0  0  0  0  0  0  0  0
   17.9437  -24.5493  -10.0444 C   0  0  1  0  0  0  0  0  0  0  0  0
   17.6971  -24.2530   -8.5652 C   0  0  0  0  0  0  0  0  0  0  0  0
   17.2106  -25.4889   -7.8402 C   0  0  0  0  0  0  0  0  0  0  0  0
   16.9398  -25.1195   -6.4393 C   0  0  0  0  0  0  0  0  0  0  0  0
   16.4993  -25.9851   -5.6474 O   0  0  0  0  0  0  0  0  0  0  0  0
   18.0892  -23.2686  -10.7128 C   0  0  0  0  0  0  0  0  0  0  0  0
   19.2210  -22.6865  -10.5879 O   0  0  0  0  0  0  0  0  0  0  0  0
   17.1711  -23.8371   -6.0035 O   0  0  0  0  0  0  0  0  0  0  0  0
   17.1389  -22.5995  -11.4751 N   0  0  0  0  0  0  0  0  0  0  0  0
   17.4996  -21.2892  -12.1440 C   0  0  1  0  0  0  0  0  0  0  0  0
   17.7506  -21.7066  -13.5421 C   0  0  0  0  0  0  0  0  0  0  0  0
   18.1783  -20.8100  -14.6015 C   0  0  0  0  0  0  0  0  0  0  0  0
   18.3406  -21.3685  -15.9559 C   0  0  0  0  0  0  0  0  0  0  0  0
   18.9251  -20.3213  -16.9279 C   0  0  0  0  0  0  0  0  0  0  0  0
   19.2822  -20.9770  -18.1671 N   0  0  0  0  0  0  0  0  0  0  0  0
   16.2696  -20.4970  -11.9013 C   0  0  0  0  0  0  0  0  0  0  0  0
   15.1451  -20.9913  -11.6606 O   0  0  0  0  0  0  0  0  0  0  0  0
   16.2819  -19.0851  -11.9245 O   0  0  0  0  0  0  0  0  0  0  0  0
  2  1  1  0
  3  2  2  0
  4  5  1  0
  4  2  1  0
  5  6  1  1
  7  8  2  0
  7  5  1  0
  9  7  1  0
 10  9  1  0
 10 11  1  1
 11 12  1  0
 12 13  1  0
 13 17  1  0
 14 13  2  0
 15 10  1  0
 16 15  2  0
 18 15  1  0
 19 20  1  6
 19 18  1  0
 20 21  1  0
 22 21  1  0
 23 22  1  0
 24 23  1  0
 25 27  1  0
 25 19  1  0
 26 25  2  0
M  END
$$$$
