NEK.pdb
     RDKit          3D

 27 26  0  0  1  0  0  0  0  0999 V2000
   14.6214  -13.8118  -15.3836 N   0  0  0  0  0  0  0  0  0  0  0  0
   15.4998  -13.9441  -14.2985 C   0  0  0  0  0  0  0  0  0  0  0  0
   15.6906  -15.0141  -13.6562 O   0  0  0  0  0  0  0  0  0  0  0  0
   16.2738  -12.7587  -13.8485 C   0  0  0  0  0  0  0  0  0  0  0  0
   15.8636  -11.4941  -14.5831 C   0  0  2  0  0  0  0  0  0  0  0  0
   16.4502  -11.4521  -15.9130 N   0  0  0  0  0  0  0  0  0  0  0  0
   16.4000  -10.3500  -13.7765 C   0  0  0  0  0  0  0  0  0  0  0  0
   16.1317  -10.3118  -12.5325 O   0  0  0  0  0  0  0  0  0  0  0  0
   17.1976   -9.3326  -14.4125 N   0  0  0  0  0  0  0  0  0  0  0  0
   17.6039   -8.2184  -13.6416 C   0  0  1  0  0  0  0  0  0  0  0  0
   18.6955   -7.4856  -14.4215 C   0  0  0  0  0  0  0  0  0  0  0  0
   20.0708   -7.9182  -13.9622 C   0  0  0  0  0  0  0  0  0  0  0  0
   21.0679   -7.0906  -14.6645 C   0  0  0  0  0  0  0  0  0  0  0  0
   21.9525   -6.4976  -14.0040 O   0  0  0  0  0  0  0  0  0  0  0  0
   16.5986   -7.2304  -13.2931 C   0  0  0  0  0  0  0  0  0  0  0  0
   15.6969   -7.0016  -14.1706 O   0  0  0  0  0  0  0  0  0  0  0  0
   21.0304   -6.9722  -16.0329 O   0  0  0  0  0  0  0  0  0  0  0  0
   16.5016   -6.5022  -12.1132 N   0  0  0  0  0  0  0  0  0  0  0  0
   15.3298   -5.5656  -11.9029 C   0  0  1  0  0  0  0  0  0  0  0  0
   14.9652   -5.8273  -10.4921 C   0  0  0  0  0  0  0  0  0  0  0  0
   13.9666   -5.0777   -9.7504 C   0  0  0  0  0  0  0  0  0  0  0  0
   13.8168   -5.3619   -8.3118 C   0  0  0  0  0  0  0  0  0  0  0  0
   12.7432   -4.4569   -7.6704 C   0  0  0  0  0  0  0  0  0  0  0  0
   12.5768   -4.8344   -6.2837 N   0  0  0  0  0  0  0  0  0  0  0  0
   15.9582   -4.2535  -12.1908 C   0  0  0  0  0  0  0  0  0  0  0  0
   17.1914   -4.0669  -12.2957 O   0  0  0  0  0  0  0  0  0  0  0  0
   15.1843   -3.0865  -12.3737 O   0  0  0  0  0  0  0  0  0  0  0  0
  2  1  1  0
  3  2  2  0
  4  5  1  0
  4  2  1  0
  5  6  1  6
  7  8  2  0
  7  5  1  0
  9  7  1  0
 10  9  1  0
 10 11  1  6
 11 12  1  0
 12 13  1  0
 13 17  1  0
 14 13  2  0
 15 10  1  0
 16 15  2  0
 18 15  1  0
 19 20  1  1
 19 18  1  0
 20 21  1  0
 22 21  1  0
 23 22  1  0
 24 23  1  0
 25 27  1  0
 25 19  1  0
 26 25  2  0
M  END
$$$$
