NEK.pdb
     RDKit          3D

 27 26  0  0  1  0  0  0  0  0999 V2000
   20.1451  -11.0611  -19.6028 N   0  0  0  0  0  0  0  0  0  0  0  0
   19.7239  -11.6583  -18.4060 C   0  0  0  0  0  0  0  0  0  0  0  0
   18.6466  -12.3013  -18.2654 O   0  0  0  0  0  0  0  0  0  0  0  0
   20.5840  -11.5425  -17.2004 C   0  0  0  0  0  0  0  0  0  0  0  0
   19.7864  -11.1764  -15.9607 C   0  0  2  0  0  0  0  0  0  0  0  0
   18.5166  -11.8845  -15.9318 N   0  0  0  0  0  0  0  0  0  0  0  0
   19.5220   -9.7037  -16.0541 C   0  0  0  0  0  0  0  0  0  0  0  0
   18.3139   -9.3133  -16.1485 O   0  0  0  0  0  0  0  0  0  0  0  0
   20.6212   -8.7725  -16.0337 N   0  0  0  0  0  0  0  0  0  0  0  0
   20.3355   -7.4006  -15.8413 C   0  0  1  0  0  0  0  0  0  0  0  0
   21.4032   -6.8288  -14.9087 C   0  0  0  0  0  0  0  0  0  0  0  0
   21.1100   -5.3825  -14.5740 C   0  0  0  0  0  0  0  0  0  0  0  0
   22.1302   -4.9196  -13.6163 C   0  0  0  0  0  0  0  0  0  0  0  0
   21.7717   -4.4652  -12.5049 O   0  0  0  0  0  0  0  0  0  0  0  0
   20.2962   -6.5440  -17.0131 C   0  0  0  0  0  0  0  0  0  0  0  0
   21.2944   -6.6214  -17.8088 O   0  0  0  0  0  0  0  0  0  0  0  0
   23.4644   -4.9881  -13.9378 O   0  0  0  0  0  0  0  0  0  0  0  0
   19.2968   -5.6472  -17.3720 N   0  0  0  0  0  0  0  0  0  0  0  0
   19.4310   -4.8454  -18.6502 C   0  0  1  0  0  0  0  0  0  0  0  0
   18.0328   -4.7838  -19.1330 C   0  0  0  0  0  0  0  0  0  0  0  0
   17.6022   -4.0455  -20.3071 C   0  0  0  0  0  0  0  0  0  0  0  0
   16.1628   -4.0292  -20.6238 C   0  0  0  0  0  0  0  0  0  0  0  0
   15.8657   -3.1210  -21.8361 C   0  0  0  0  0  0  0  0  0  0  0  0
   14.4336   -2.9597  -21.9637 N   0  0  0  0  0  0  0  0  0  0  0  0
   20.0086   -3.5806  -18.1342 C   0  0  0  0  0  0  0  0  0  0  0  0
   20.8210   -2.8653  -18.7625 O   0  0  0  0  0  0  0  0  0  0  0  0
   19.6706   -3.0790  -16.8582 O   0  0  0  0  0  0  0  0  0  0  0  0
  2  1  1  0
  3  2  2  0
  4  5  1  0
  4  2  1  0
  5  6  1  6
  7  8  2  0
  7  5  1  0
  9  7  1  0
 10  9  1  0
 10 11  1  1
 11 12  1  0
 12 13  1  0
 13 17  1  0
 14 13  2  0
 15 10  1  0
 16 15  2  0
 18 15  1  0
 19 20  1  1
 19 18  1  0
 20 21  1  0
 22 21  1  0
 23 22  1  0
 24 23  1  0
 25 27  1  0
 25 19  1  0
 26 25  2  0
M  END
$$$$
