NEK.pdb
     RDKit          3D

 27 26  0  0  1  0  0  0  0  0999 V2000
   18.6733  -13.5741  -17.9540 N   0  0  0  0  0  0  0  0  0  0  0  0
   17.8466  -13.4752  -16.8255 C   0  0  0  0  0  0  0  0  0  0  0  0
   16.9796  -14.3310  -16.4942 O   0  0  0  0  0  0  0  0  0  0  0  0
   17.9758  -12.2907  -15.9384 C   0  0  0  0  0  0  0  0  0  0  0  0
   19.0298  -11.3159  -16.4342 C   0  0  2  0  0  0  0  0  0  0  0  0
   20.3683  -11.8261  -16.1838 N   0  0  0  0  0  0  0  0  0  0  0  0
   18.8336  -10.0539  -15.6494 C   0  0  0  0  0  0  0  0  0  0  0  0
   17.9200  -10.0316  -14.7629 O   0  0  0  0  0  0  0  0  0  0  0  0
   19.6695   -8.9090  -15.9067 N   0  0  0  0  0  0  0  0  0  0  0  0
   19.4497   -7.7337  -15.1510 C   0  0  1  0  0  0  0  0  0  0  0  0
   20.7963   -7.0307  -14.9808 C   0  0  0  0  0  0  0  0  0  0  0  0
   20.6777   -5.8580  -14.0318 C   0  0  0  0  0  0  0  0  0  0  0  0
   22.0110   -5.2452  -13.8944 C   0  0  0  0  0  0  0  0  0  0  0  0
   23.0261   -5.8927  -14.2418 O   0  0  0  0  0  0  0  0  0  0  0  0
   18.5235   -6.7488  -15.6806 C   0  0  0  0  0  0  0  0  0  0  0  0
   18.6139   -6.4967  -16.9311 O   0  0  0  0  0  0  0  0  0  0  0  0
   22.1406   -3.9728  -13.3921 O   0  0  0  0  0  0  0  0  0  0  0  0
   17.5469   -6.0460  -14.9847 N   0  0  0  0  0  0  0  0  0  0  0  0
   16.6882   -5.0328  -15.7130 C   0  0  1  0  0  0  0  0  0  0  0  0
   15.4672   -4.9937  -14.8767 C   0  0  0  0  0  0  0  0  0  0  0  0
   14.3507   -4.0914  -15.0969 C   0  0  0  0  0  0  0  0  0  0  0  0
   13.1839   -4.2050  -14.2035 C   0  0  0  0  0  0  0  0  0  0  0  0
   12.0386   -3.2743  -14.6560 C   0  0  0  0  0  0  0  0  0  0  0  0
   10.8387   -3.6134  -13.9223 N   0  0  0  0  0  0  0  0  0  0  0  0
   17.5601   -3.8340  -15.6665 C   0  0  0  0  0  0  0  0  0  0  0  0
   17.5661   -2.9290  -16.5311 O   0  0  0  0  0  0  0  0  0  0  0  0
   18.4721   -3.6227  -14.6093 O   0  0  0  0  0  0  0  0  0  0  0  0
  2  1  1  0
  3  2  2  0
  4  5  1  0
  4  2  1  0
  5  6  1  1
  7  8  2  0
  7  5  1  0
  9  7  1  0
 10  9  1  0
 10 11  1  6
 11 12  1  0
 12 13  1  0
 13 17  1  0
 14 13  2  0
 15 10  1  0
 16 15  2  0
 18 15  1  0
 19 20  1  1
 19 18  1  0
 20 21  1  0
 22 21  1  0
 23 22  1  0
 24 23  1  0
 25 27  1  0
 25 19  1  0
 26 25  2  0
M  END
$$$$
