NEK.pdb
     RDKit          3D

 27 26  0  0  1  0  0  0  0  0999 V2000
   28.9531  -20.5385  -16.9858 N   0  0  0  0  0  0  0  0  0  0  0  0
   28.0446  -21.1365  -16.1007 C   0  0  0  0  0  0  0  0  0  0  0  0
   28.1481  -22.3120  -15.6521 O   0  0  0  0  0  0  0  0  0  0  0  0
   26.8661  -20.3575  -15.6413 C   0  0  0  0  0  0  0  0  0  0  0  0
   25.5568  -20.9726  -16.1045 C   0  0  2  0  0  0  0  0  0  0  0  0
   25.4845  -21.0086  -17.5564 N   0  0  0  0  0  0  0  0  0  0  0  0
   24.4696  -20.0818  -15.5834 C   0  0  0  0  0  0  0  0  0  0  0  0
   24.3333  -19.9720  -14.3223 O   0  0  0  0  0  0  0  0  0  0  0  0
   23.6141  -19.3766  -16.5034 N   0  0  0  0  0  0  0  0  0  0  0  0
   22.5437  -18.6164  -15.9770 C   0  0  1  0  0  0  0  0  0  0  0  0
   22.3759  -17.3771  -16.8561 C   0  0  0  0  0  0  0  0  0  0  0  0
   21.2831  -16.4782  -16.3200 C   0  0  0  0  0  0  0  0  0  0  0  0
   21.1206  -15.3501  -17.2545 C   0  0  0  0  0  0  0  0  0  0  0  0
   19.9842  -15.0879  -17.7130 O   0  0  0  0  0  0  0  0  0  0  0  0
   21.2402  -19.2498  -15.8874 C   0  0  0  0  0  0  0  0  0  0  0  0
   20.9249  -20.0413  -16.8411 O   0  0  0  0  0  0  0  0  0  0  0  0
   22.2056  -14.5895  -17.6183 O   0  0  0  0  0  0  0  0  0  0  0  0
   20.2922  -19.0957  -14.8826 N   0  0  0  0  0  0  0  0  0  0  0  0
   19.0004  -19.8845  -14.9417 C   0  0  1  0  0  0  0  0  0  0  0  0
   19.2122  -20.9165  -13.9015 C   0  0  0  0  0  0  0  0  0  0  0  0
   18.2703  -21.9789  -13.5963 C   0  0  0  0  0  0  0  0  0  0  0  0
   18.6710  -22.9942  -12.6058 C   0  0  0  0  0  0  0  0  0  0  0  0
   17.5647  -24.0526  -12.4089 C   0  0  0  0  0  0  0  0  0  0  0  0
   17.8764  -24.8476  -11.2409 N   0  0  0  0  0  0  0  0  0  0  0  0
   18.0067  -18.8280  -14.6320 C   0  0  0  0  0  0  0  0  0  0  0  0
   18.2333  -17.8340  -13.9060 O   0  0  0  0  0  0  0  0  0  0  0  0
   16.6946  -18.8706  -15.1522 O   0  0  0  0  0  0  0  0  0  0  0  0
  2  1  1  0
  3  2  2  0
  4  5  1  0
  4  2  1  0
  5  6  1  6
  7  8  2  0
  7  5  1  0
  9  7  1  0
 10  9  1  0
 10 11  1  6
 11 12  1  0
 12 13  1  0
 13 17  1  0
 14 13  2  0
 15 10  1  0
 16 15  2  0
 18 15  1  0
 19 20  1  1
 19 18  1  0
 20 21  1  0
 22 21  1  0
 23 22  1  0
 24 23  1  0
 25 27  1  0
 25 19  1  0
 26 25  2  0
M  END
$$$$
