KYR.pdb
     RDKit          3D

 33 33  0  0  1  0  0  0  0  0999 V2000
   23.8958  -24.6913  -17.1248 N   0  0  0  0  0  0  0  0  0  0  0  0
   24.2455  -23.3348  -16.8051 C   0  0  1  0  0  0  0  0  0  0  0  0
   25.2705  -22.8161  -17.7397 C   0  0  0  0  0  0  0  0  0  0  0  0
   26.6183  -23.4060  -17.5340 C   0  0  0  0  0  0  0  0  0  0  0  0
   26.8383  -24.7647  -18.1075 C   0  0  0  0  0  0  0  0  0  0  0  0
   28.3005  -25.1972  -17.9238 C   0  0  0  0  0  0  0  0  0  0  0  0
   29.0816  -24.5245  -18.9594 N   0  0  0  0  0  0  0  0  0  0  0  0
   23.0200  -22.4745  -16.7677 C   0  0  0  0  0  0  0  0  0  0  0  0
   23.1516  -21.2790  -16.4296 O   0  0  0  0  0  0  0  0  0  0  0  0
   23.0127  -17.1581  -20.4255 O   0  0  0  0  0  0  0  0  0  0  0  0
   22.3924  -18.3072  -19.9629 C   0  0  0  0  0  0  0  0  0  0  0  0
   22.8734  -19.5436  -20.2943 C   0  0  0  0  0  0  0  0  0  0  0  0
   22.1918  -20.6362  -19.7886 C   0  0  0  0  0  0  0  0  0  0  0  0
   21.0759  -20.5297  -18.9848 C   0  0  0  0  0  0  0  0  0  0  0  0
   20.3701  -21.7050  -18.5124 C   0  0  0  0  0  0  0  0  0  0  0  0
   20.5247  -22.1283  -17.1105 C   0  0  2  0  0  0  0  0  0  0  0  0
   21.7482  -22.9860  -17.1017 N   0  0  0  0  0  0  0  0  0  0  0  0
   19.4442  -22.8327  -16.4394 C   0  0  0  0  0  0  0  0  0  0  0  0
   19.1301  -24.0443  -16.7901 O   0  0  0  0  0  0  0  0  0  0  0  0
   20.6315  -19.2685  -18.6799 C   0  0  0  0  0  0  0  0  0  0  0  0
   21.2875  -18.1524  -19.1675 C   0  0  0  0  0  0  0  0  0  0  0  0
   16.7057  -26.7575  -10.1574 N   0  0  0  0  0  0  0  0  0  0  0  0
   17.8989  -27.3176  -10.6751 C   0  0  0  0  0  0  0  0  0  0  0  0
   18.1129  -28.5701  -10.5280 N   0  0  0  0  0  0  0  0  0  0  0  0
   18.8517  -26.5258  -11.3451 N   0  0  0  0  0  0  0  0  0  0  0  0
   18.6452  -25.0870  -11.5872 C   0  0  0  0  0  0  0  0  0  0  0  0
   18.1701  -24.8450  -12.9631 C   0  0  0  0  0  0  0  0  0  0  0  0
   17.9958  -23.5000  -13.4764 C   0  0  0  0  0  0  0  0  0  0  0  0
   17.5213  -23.1702  -14.8464 C   0  0  2  0  0  0  0  0  0  0  0  0
   18.6563  -22.3287  -15.3887 N   0  0  0  0  0  0  0  0  0  0  0  0
   16.3768  -22.2609  -14.9004 C   0  0  0  0  0  0  0  0  0  0  0  0
   15.1871  -22.6330  -14.8438 O   0  0  0  0  0  0  0  0  0  0  0  0
   16.5710  -20.8943  -15.0180 O   0  0  0  0  0  0  0  0  0  0  0  0
  2  3  1  0
  2  1  1  6
  3  4  1  0
  5  4  1  0
  6  5  1  0
  7  6  1  0
  8  9  2  0
  8  2  1  0
 10 11  1  0
 11 21  2  0
 12 11  1  0
 12 13  2  0
 13 14  1  0
 14 20  2  0
 14 15  1  0
 16 15  1  6
 16 17  1  0
 17  8  1  0
 18 19  2  0
 18 16  1  0
 21 20  1  0
 23 24  2  0
 23 22  1  0
 25 23  1  0
 26 25  1  0
 27 26  1  0
 28 27  1  0
 29 28  1  1
 29 30  1  0
 30 18  1  0
 31 29  1  0
 32 31  2  0
 33 31  1  0
M  END
$$$$
