KYR.pdb
     RDKit          3D

 33 33  0  0  1  0  0  0  0  0999 V2000
   27.2371  -21.6219  -17.3936 N   0  0  0  0  0  0  0  0  0  0  0  0
   27.0207  -22.8723  -16.7195 C   0  0  1  0  0  0  0  0  0  0  0  0
   28.3041  -23.5630  -16.4566 C   0  0  0  0  0  0  0  0  0  0  0  0
   29.3095  -23.3842  -17.5355 C   0  0  0  0  0  0  0  0  0  0  0  0
   30.2962  -24.4888  -17.7073 C   0  0  0  0  0  0  0  0  0  0  0  0
   31.2671  -24.1708  -18.8541 C   0  0  0  0  0  0  0  0  0  0  0  0
   32.2283  -25.2693  -18.9213 N   0  0  0  0  0  0  0  0  0  0  0  0
   26.2205  -22.6610  -15.4711 C   0  0  0  0  0  0  0  0  0  0  0  0
   25.8844  -23.6672  -14.8115 O   0  0  0  0  0  0  0  0  0  0  0  0
   30.8711  -20.8503  -10.6799 O   0  0  0  0  0  0  0  0  0  0  0  0
   29.6624  -20.6324  -11.3207 C   0  0  0  0  0  0  0  0  0  0  0  0
   29.6143  -19.9753  -12.5189 C   0  0  0  0  0  0  0  0  0  0  0  0
   28.3651  -19.8015  -13.0875 C   0  0  0  0  0  0  0  0  0  0  0  0
   27.1976  -20.2532  -12.5083 C   0  0  0  0  0  0  0  0  0  0  0  0
   25.9065  -20.0109  -13.1225 C   0  0  0  0  0  0  0  0  0  0  0  0
   25.1717  -21.1324  -13.7312 C   0  0  2  0  0  0  0  0  0  0  0  0
   25.8501  -21.3692  -15.0412 N   0  0  0  0  0  0  0  0  0  0  0  0
   23.7377  -21.0306  -13.9486 C   0  0  0  0  0  0  0  0  0  0  0  0
   23.2734  -20.5132  -15.0470 O   0  0  0  0  0  0  0  0  0  0  0  0
   27.2969  -20.9069  -11.3066 C   0  0  0  0  0  0  0  0  0  0  0  0
   28.5291  -21.0990  -10.7080 C   0  0  0  0  0  0  0  0  0  0  0  0
   16.9904  -26.1895  -11.1500 N   0  0  0  0  0  0  0  0  0  0  0  0
   16.4829  -25.2320  -12.0616 C   0  0  0  0  0  0  0  0  0  0  0  0
   15.3213  -25.4092  -12.5670 N   0  0  0  0  0  0  0  0  0  0  0  0
   17.2294  -24.0935  -12.4226 N   0  0  0  0  0  0  0  0  0  0  0  0
   18.6993  -24.0560  -12.3250 C   0  0  0  0  0  0  0  0  0  0  0  0
   19.2323  -22.7868  -12.8564 C   0  0  0  0  0  0  0  0  0  0  0  0
   20.6540  -22.5010  -12.8448 C   0  0  0  0  0  0  0  0  0  0  0  0
   21.2819  -21.2978  -13.4522 C   0  0  2  0  0  0  0  0  0  0  0  0
   22.7347  -21.4572  -13.0595 N   0  0  0  0  0  0  0  0  0  0  0  0
   20.9064  -20.0271  -12.8326 C   0  0  0  0  0  0  0  0  0  0  0  0
   21.5633  -19.4705  -11.9296 O   0  0  0  0  0  0  0  0  0  0  0  0
   19.7630  -19.3588  -13.2391 O   0  0  0  0  0  0  0  0  0  0  0  0
  2  3  1  0
  2  1  1  1
  3  4  1  0
  5  4  1  0
  6  5  1  0
  7  6  1  0
  8  9  2  0
  8  2  1  0
 10 11  1  0
 11 21  2  0
 12 11  1  0
 12 13  2  0
 13 14  1  0
 14 20  2  0
 14 15  1  0
 16 15  1  6
 16 17  1  0
 17  8  1  0
 18 19  2  0
 18 16  1  0
 21 20  1  0
 23 24  2  0
 23 22  1  0
 25 23  1  0
 26 25  1  0
 27 26  1  0
 28 27  1  0
 29 28  1  1
 29 30  1  0
 30 18  1  0
 31 29  1  0
 32 31  2  0
 33 31  1  0
M  END
$$$$
