KYR.pdb
     RDKit          3D

 33 33  0  0  1  0  0  0  0  0999 V2000
   27.2677  -22.8564  -17.1692 N   0  0  0  0  0  0  0  0  0  0  0  0
   27.2610  -21.6199  -16.4374 C   0  0  1  0  0  0  0  0  0  0  0  0
   26.6894  -20.5235  -17.2524 C   0  0  0  0  0  0  0  0  0  0  0  0
   27.5334  -20.1411  -18.4135 C   0  0  0  0  0  0  0  0  0  0  0  0
   28.9369  -19.7424  -18.1061 C   0  0  0  0  0  0  0  0  0  0  0  0
   29.6538  -19.2685  -19.3790 C   0  0  0  0  0  0  0  0  0  0  0  0
   30.9945  -18.8421  -18.9843 N   0  0  0  0  0  0  0  0  0  0  0  0
   26.5491  -21.7902  -15.1306 C   0  0  0  0  0  0  0  0  0  0  0  0
   25.5188  -22.4965  -15.1106 O   0  0  0  0  0  0  0  0  0  0  0  0
   25.5533  -19.9678   -6.3585 O   0  0  0  0  0  0  0  0  0  0  0  0
   25.9462  -20.2198   -7.6628 C   0  0  0  0  0  0  0  0  0  0  0  0
   25.8903  -21.4850   -8.1783 C   0  0  0  0  0  0  0  0  0  0  0  0
   26.3024  -21.6454   -9.4892 C   0  0  0  0  0  0  0  0  0  0  0  0
   26.7554  -20.6064  -10.2754 C   0  0  0  0  0  0  0  0  0  0  0  0
   27.2162  -20.8306  -11.6319 C   0  0  0  0  0  0  0  0  0  0  0  0
   26.2502  -21.2325  -12.6682 C   0  0  2  0  0  0  0  0  0  0  0  0
   27.0171  -21.1768  -13.9493 N   0  0  0  0  0  0  0  0  0  0  0  0
   25.0048  -20.4991  -12.8260 C   0  0  0  0  0  0  0  0  0  0  0  0
   24.9743  -19.3919  -13.5063 O   0  0  0  0  0  0  0  0  0  0  0  0
   26.7930  -19.3556   -9.7140 C   0  0  0  0  0  0  0  0  0  0  0  0
   26.3889  -19.1570   -8.4060 C   0  0  0  0  0  0  0  0  0  0  0  0
   19.3800  -21.0739  -18.5218 N   0  0  0  0  0  0  0  0  0  0  0  0
   18.7579  -20.1498  -17.6475 C   0  0  0  0  0  0  0  0  0  0  0  0
   17.6580  -19.6018  -18.0021 N   0  0  0  0  0  0  0  0  0  0  0  0
   19.3248  -19.8224  -16.4004 N   0  0  0  0  0  0  0  0  0  0  0  0
   20.6423  -20.3313  -15.9798 C   0  0  0  0  0  0  0  0  0  0  0  0
   20.9446  -19.9328  -14.5916 C   0  0  0  0  0  0  0  0  0  0  0  0
   22.1799  -20.3297  -13.9439 C   0  0  0  0  0  0  0  0  0  0  0  0
   22.5543  -19.9830  -12.5473 C   0  0  2  0  0  0  0  0  0  0  0  0
   23.7537  -20.8729  -12.3028 N   0  0  0  0  0  0  0  0  0  0  0  0
   21.6015  -20.4198  -11.5269 C   0  0  0  0  0  0  0  0  0  0  0  0
   21.7343  -21.4577  -10.8473 O   0  0  0  0  0  0  0  0  0  0  0  0
   20.4682  -19.6698  -11.2579 O   0  0  0  0  0  0  0  0  0  0  0  0
  2  3  1  0
  2  1  1  6
  3  4  1  0
  5  4  1  0
  6  5  1  0
  7  6  1  0
  8  9  2  0
  8  2  1  0
 10 11  1  0
 11 21  2  0
 12 11  1  0
 12 13  2  0
 13 14  1  0
 14 20  2  0
 14 15  1  0
 16 15  1  1
 16 17  1  0
 17  8  1  0
 18 19  2  0
 18 16  1  0
 21 20  1  0
 23 24  2  0
 23 22  1  0
 25 23  1  0
 26 25  1  0
 27 26  1  0
 28 27  1  0
 29 28  1  6
 29 30  1  0
 30 18  1  0
 31 29  1  0
 32 31  2  0
 33 31  1  0
M  END
$$$$
