KYR.pdb
     RDKit          3D

 33 33  0  0  1  0  0  0  0  0999 V2000
   28.0348  -20.0480  -16.3571 N   0  0  0  0  0  0  0  0  0  0  0  0
   27.3288  -21.2936  -16.2356 C   0  0  1  0  0  0  0  0  0  0  0  0
   28.1025  -22.4035  -16.8379 C   0  0  0  0  0  0  0  0  0  0  0  0
   28.6998  -22.0677  -18.1559 C   0  0  0  0  0  0  0  0  0  0  0  0
   29.4842  -23.1483  -18.8193 C   0  0  0  0  0  0  0  0  0  0  0  0
   30.1413  -22.6258  -20.1054 C   0  0  0  0  0  0  0  0  0  0  0  0
   30.9299  -23.7227  -20.6621 N   0  0  0  0  0  0  0  0  0  0  0  0
   26.9750  -21.5559  -14.8040 C   0  0  0  0  0  0  0  0  0  0  0  0
   26.3109  -22.5809  -14.5414 O   0  0  0  0  0  0  0  0  0  0  0  0
   27.6040  -19.5587   -6.0473 O   0  0  0  0  0  0  0  0  0  0  0  0
   27.7502  -19.7919   -7.4050 C   0  0  0  0  0  0  0  0  0  0  0  0
   28.6263  -20.7370   -7.8622 C   0  0  0  0  0  0  0  0  0  0  0  0
   28.7082  -20.9031   -9.2332 C   0  0  0  0  0  0  0  0  0  0  0  0
   27.9605  -20.1721  -10.1328 C   0  0  0  0  0  0  0  0  0  0  0  0
   28.1112  -20.3531  -11.5637 C   0  0  0  0  0  0  0  0  0  0  0  0
   26.9938  -20.9086  -12.3455 C   0  0  2  0  0  0  0  0  0  0  0  0
   27.3732  -20.6796  -13.7724 N   0  0  0  0  0  0  0  0  0  0  0  0
   25.6409  -20.4225  -12.1282 C   0  0  0  0  0  0  0  0  0  0  0  0
   25.1774  -19.4301  -12.8281 O   0  0  0  0  0  0  0  0  0  0  0  0
   27.0954  -19.2361   -9.6262 C   0  0  0  0  0  0  0  0  0  0  0  0
   26.9867  -19.0420   -8.2609 C   0  0  0  0  0  0  0  0  0  0  0  0
   20.0312  -17.8872  -15.5583 N   0  0  0  0  0  0  0  0  0  0  0  0
   20.8779  -18.9297  -16.0072 C   0  0  0  0  0  0  0  0  0  0  0  0
   21.2409  -18.9516  -17.2335 N   0  0  0  0  0  0  0  0  0  0  0  0
   21.3254  -19.9400  -15.1339 N   0  0  0  0  0  0  0  0  0  0  0  0
   20.8705  -20.0257  -13.7349 C   0  0  0  0  0  0  0  0  0  0  0  0
   21.4701  -21.1896  -13.0542 C   0  0  0  0  0  0  0  0  0  0  0  0
   22.8351  -21.1581  -12.5656 C   0  0  0  0  0  0  0  0  0  0  0  0
   23.2656  -20.5207  -11.2931 C   0  0  2  0  0  0  0  0  0  0  0  0
   24.7181  -20.9348  -11.1983 N   0  0  0  0  0  0  0  0  0  0  0  0
   22.6753  -21.0960  -10.0847 C   0  0  0  0  0  0  0  0  0  0  0  0
   23.1416  -22.0848   -9.4834 O   0  0  0  0  0  0  0  0  0  0  0  0
   21.5307  -20.5450   -9.5319 O   0  0  0  0  0  0  0  0  0  0  0  0
  2  3  1  0
  2  1  1  1
  3  4  1  0
  5  4  1  0
  6  5  1  0
  7  6  1  0
  8  9  2  0
  8  2  1  0
 10 11  1  0
 11 21  2  0
 12 11  1  0
 12 13  2  0
 13 14  1  0
 14 20  2  0
 14 15  1  0
 16 15  1  1
 16 17  1  0
 17  8  1  0
 18 19  2  0
 18 16  1  0
 21 20  1  0
 23 24  2  0
 23 22  1  0
 25 23  1  0
 26 25  1  0
 27 26  1  0
 28 27  1  0
 29 28  1  6
 29 30  1  0
 30 18  1  0
 31 29  1  0
 32 31  2  0
 33 31  1  0
M  END
$$$$
