KYR.pdb
     RDKit          3D

 33 33  0  0  1  0  0  0  0  0999 V2000
   27.5467  -22.8764  -18.1203 N   0  0  0  0  0  0  0  0  0  0  0  0
   26.3611  -23.3818  -17.4851 C   0  0  1  0  0  0  0  0  0  0  0  0
   26.7015  -24.1920  -16.2931 C   0  0  0  0  0  0  0  0  0  0  0  0
   27.7353  -25.2271  -16.5508 C   0  0  0  0  0  0  0  0  0  0  0  0
   27.2520  -26.5112  -17.1345 C   0  0  0  0  0  0  0  0  0  0  0  0
   28.3886  -27.5431  -17.1828 C   0  0  0  0  0  0  0  0  0  0  0  0
   27.8097  -28.7993  -17.6537 N   0  0  0  0  0  0  0  0  0  0  0  0
   25.4224  -22.2599  -17.1633 C   0  0  0  0  0  0  0  0  0  0  0  0
   25.6120  -21.6199  -16.1073 O   0  0  0  0  0  0  0  0  0  0  0  0
   19.2686  -16.1643  -19.4512 O   0  0  0  0  0  0  0  0  0  0  0  0
   20.2839  -17.0934  -19.2935 C   0  0  0  0  0  0  0  0  0  0  0  0
   21.5205  -16.7105  -18.8532 C   0  0  0  0  0  0  0  0  0  0  0  0
   22.4745  -17.7042  -18.7251 C   0  0  0  0  0  0  0  0  0  0  0  0
   22.2332  -19.0307  -19.0165 C   0  0  0  0  0  0  0  0  0  0  0  0
   23.2776  -20.0306  -18.9062 C   0  0  0  0  0  0  0  0  0  0  0  0
   23.3753  -20.8445  -17.6829 C   0  0  2  0  0  0  0  0  0  0  0  0
   24.3512  -21.9251  -18.0184 N   0  0  0  0  0  0  0  0  0  0  0  0
   22.1807  -21.4425  -17.1092 C   0  0  0  0  0  0  0  0  0  0  0  0
   21.8336  -22.6543  -17.4264 O   0  0  0  0  0  0  0  0  0  0  0  0
   20.9774  -19.3659  -19.4544 C   0  0  0  0  0  0  0  0  0  0  0  0
   19.9980  -18.3992  -19.5949 C   0  0  0  0  0  0  0  0  0  0  0  0
   18.7357  -24.5109  -10.3590 N   0  0  0  0  0  0  0  0  0  0  0  0
   19.2463  -25.4732  -11.2638 C   0  0  0  0  0  0  0  0  0  0  0  0
   18.8193  -26.6771  -11.1975 N   0  0  0  0  0  0  0  0  0  0  0  0
   20.2121  -25.1327  -12.2307 N   0  0  0  0  0  0  0  0  0  0  0  0
   20.7305  -23.7606  -12.3722 C   0  0  0  0  0  0  0  0  0  0  0  0
   20.0338  -23.0412  -13.4560 C   0  0  0  0  0  0  0  0  0  0  0  0
   20.7685  -22.3369  -14.4891 C   0  0  0  0  0  0  0  0  0  0  0  0
   20.1458  -21.6211  -15.6339 C   0  0  2  0  0  0  0  0  0  0  0  0
   21.3083  -20.8290  -16.1920 N   0  0  0  0  0  0  0  0  0  0  0  0
   19.1833  -20.5840  -15.2629 C   0  0  0  0  0  0  0  0  0  0  0  0
   19.4834  -19.3866  -15.0816 O   0  0  0  0  0  0  0  0  0  0  0  0
   17.8445  -20.8973  -15.0931 O   0  0  0  0  0  0  0  0  0  0  0  0
  2  3  1  0
  2  1  1  1
  3  4  1  0
  5  4  1  0
  6  5  1  0
  7  6  1  0
  8  9  2  0
  8  2  1  0
 10 11  1  0
 11 21  2  0
 12 11  1  0
 12 13  2  0
 13 14  1  0
 14 20  2  0
 14 15  1  0
 16 15  1  6
 16 17  1  0
 17  8  1  0
 18 19  2  0
 18 16  1  0
 21 20  1  0
 23 24  2  0
 23 22  1  0
 25 23  1  0
 26 25  1  0
 27 26  1  0
 28 27  1  0
 29 28  1  1
 29 30  1  0
 30 18  1  0
 31 29  1  0
 32 31  2  0
 33 31  1  0
M  END
$$$$
