KYR.pdb
     RDKit          3D

 33 33  0  0  1  0  0  0  0  0999 V2000
   26.6124  -23.2420  -17.8346 N   0  0  0  0  0  0  0  0  0  0  0  0
   26.7940  -22.1691  -16.8963 C   0  0  1  0  0  0  0  0  0  0  0  0
   26.3559  -20.8780  -17.4745 C   0  0  0  0  0  0  0  0  0  0  0  0
   27.0013  -20.5565  -18.7733 C   0  0  0  0  0  0  0  0  0  0  0  0
   28.4051  -20.0582  -18.7068 C   0  0  0  0  0  0  0  0  0  0  0  0
   28.9093  -19.6787  -20.1071 C   0  0  0  0  0  0  0  0  0  0  0  0
   30.2967  -19.2438  -19.9616 N   0  0  0  0  0  0  0  0  0  0  0  0
   26.1006  -22.4808  -15.6058 C   0  0  0  0  0  0  0  0  0  0  0  0
   26.5975  -23.3590  -14.8692 O   0  0  0  0  0  0  0  0  0  0  0  0
   25.1644  -20.4919   -7.5320 O   0  0  0  0  0  0  0  0  0  0  0  0
   25.2756  -20.6279   -8.9061 C   0  0  0  0  0  0  0  0  0  0  0  0
   24.9068  -19.6106   -9.7420 C   0  0  0  0  0  0  0  0  0  0  0  0
   25.0512  -19.8330  -11.0998 C   0  0  0  0  0  0  0  0  0  0  0  0
   25.5397  -21.0094  -11.6290 C   0  0  0  0  0  0  0  0  0  0  0  0
   25.6341  -21.2116  -13.0618 C   0  0  0  0  0  0  0  0  0  0  0  0
   24.4738  -21.7428  -13.7967 C   0  0  2  0  0  0  0  0  0  0  0  0
   24.9203  -21.8103  -15.2210 N   0  0  0  0  0  0  0  0  0  0  0  0
   23.1938  -21.0565  -13.7305 C   0  0  0  0  0  0  0  0  0  0  0  0
   23.1363  -19.7607  -13.8161 O   0  0  0  0  0  0  0  0  0  0  0  0
   25.8966  -22.0004  -10.7505 C   0  0  0  0  0  0  0  0  0  0  0  0
   25.7660  -21.8140   -9.3861 C   0  0  0  0  0  0  0  0  0  0  0  0
   20.1066  -24.4827   -9.2187 N   0  0  0  0  0  0  0  0  0  0  0  0
   19.5761  -23.6513   -8.2025 C   0  0  0  0  0  0  0  0  0  0  0  0
   18.6575  -24.1104   -7.4399 N   0  0  0  0  0  0  0  0  0  0  0  0
   20.0371  -22.3336   -8.0163 N   0  0  0  0  0  0  0  0  0  0  0  0
   21.1559  -21.7764   -8.7969 C   0  0  0  0  0  0  0  0  0  0  0  0
   20.6808  -21.2170  -10.0771 C   0  0  0  0  0  0  0  0  0  0  0  0
   21.2768  -21.6085  -11.3398 C   0  0  0  0  0  0  0  0  0  0  0  0
   20.9115  -21.0369  -12.6630 C   0  0  2  0  0  0  0  0  0  0  0  0
   21.9354  -21.6672  -13.5821 N   0  0  0  0  0  0  0  0  0  0  0  0
   21.1697  -19.6045  -12.8085 C   0  0  0  0  0  0  0  0  0  0  0  0
   22.2394  -19.0518  -12.4812 O   0  0  0  0  0  0  0  0  0  0  0  0
   20.2020  -18.7672  -13.3394 O   0  0  0  0  0  0  0  0  0  0  0  0
  2  3  1  0
  2  1  1  6
  3  4  1  0
  5  4  1  0
  6  5  1  0
  7  6  1  0
  8  9  2  0
  8  2  1  0
 10 11  1  0
 11 21  2  0
 12 11  1  0
 12 13  2  0
 13 14  1  0
 14 20  2  0
 14 15  1  0
 16 15  1  1
 16 17  1  0
 17  8  1  0
 18 19  2  0
 18 16  1  0
 21 20  1  0
 23 24  2  0
 23 22  1  0
 25 23  1  0
 26 25  1  0
 27 26  1  0
 28 27  1  0
 29 28  1  1
 29 30  1  0
 30 18  1  0
 31 29  1  0
 32 31  2  0
 33 31  1  0
M  END
$$$$
