KYR.pdb
     RDKit          3D

 33 33  0  0  1  0  0  0  0  0999 V2000
   27.1758  -22.4598  -17.0680 N   0  0  0  0  0  0  0  0  0  0  0  0
   27.1215  -21.2762  -16.2551 C   0  0  1  0  0  0  0  0  0  0  0  0
   26.5269  -20.1449  -17.0032 C   0  0  0  0  0  0  0  0  0  0  0  0
   27.5061  -19.4001  -17.8359 C   0  0  0  0  0  0  0  0  0  0  0  0
   28.1976  -20.1830  -18.9000 C   0  0  0  0  0  0  0  0  0  0  0  0
   29.4036  -19.4038  -19.4451 C   0  0  0  0  0  0  0  0  0  0  0  0
   28.8927  -18.4559  -20.4327 N   0  0  0  0  0  0  0  0  0  0  0  0
   26.3984  -21.5555  -14.9735 C   0  0  0  0  0  0  0  0  0  0  0  0
   25.3670  -22.2587  -15.0222 O   0  0  0  0  0  0  0  0  0  0  0  0
   25.0867  -19.9791   -6.1982 O   0  0  0  0  0  0  0  0  0  0  0  0
   25.5309  -20.2004   -7.4916 C   0  0  0  0  0  0  0  0  0  0  0  0
   25.3696  -21.4205   -8.0875 C   0  0  0  0  0  0  0  0  0  0  0  0
   25.8433  -21.5528   -9.3806 C   0  0  0  0  0  0  0  0  0  0  0  0
   26.4555  -20.5292  -10.0736 C   0  0  0  0  0  0  0  0  0  0  0  0
   26.9733  -20.7278  -11.4134 C   0  0  0  0  0  0  0  0  0  0  0  0
   26.0670  -21.1851  -12.4801 C   0  0  2  0  0  0  0  0  0  0  0  0
   26.8573  -21.0457  -13.7405 N   0  0  0  0  0  0  0  0  0  0  0  0
   24.7716  -20.5491  -12.6571 C   0  0  0  0  0  0  0  0  0  0  0  0
   24.6886  -19.3518  -13.1562 O   0  0  0  0  0  0  0  0  0  0  0  0
   26.5942  -19.3239   -9.4338 C   0  0  0  0  0  0  0  0  0  0  0  0
   26.1328  -19.1545   -8.1408 C   0  0  0  0  0  0  0  0  0  0  0  0
   19.3370  -23.0545  -17.8430 N   0  0  0  0  0  0  0  0  0  0  0  0
   20.6338  -22.9472  -17.2842 C   0  0  0  0  0  0  0  0  0  0  0  0
   21.6164  -23.5080  -17.8809 N   0  0  0  0  0  0  0  0  0  0  0  0
   20.8620  -22.2391  -16.0883 N   0  0  0  0  0  0  0  0  0  0  0  0
   19.7891  -21.5051  -15.3944 C   0  0  0  0  0  0  0  0  0  0  0  0
   20.3217  -20.7566  -14.2396 C   0  0  0  0  0  0  0  0  0  0  0  0
   21.6740  -20.9687  -13.7608 C   0  0  0  0  0  0  0  0  0  0  0  0
   22.2653  -20.3048  -12.5689 C   0  0  2  0  0  0  0  0  0  0  0  0
   23.5234  -21.1137  -12.3381 N   0  0  0  0  0  0  0  0  0  0  0  0
   21.5173  -20.4896  -11.3256 C   0  0  0  0  0  0  0  0  0  0  0  0
   20.6413  -19.7016  -10.9150 O   0  0  0  0  0  0  0  0  0  0  0  0
   21.7555  -21.5913  -10.5202 O   0  0  0  0  0  0  0  0  0  0  0  0
  2  3  1  0
  2  1  1  6
  3  4  1  0
  5  4  1  0
  6  5  1  0
  7  6  1  0
  8  9  2  0
  8  2  1  0
 10 11  1  0
 11 21  2  0
 12 11  1  0
 12 13  2  0
 13 14  1  0
 14 20  2  0
 14 15  1  0
 16 15  1  1
 16 17  1  0
 17  8  1  0
 18 19  2  0
 18 16  1  0
 21 20  1  0
 23 24  2  0
 23 22  1  0
 25 23  1  0
 26 25  1  0
 27 26  1  0
 28 27  1  0
 29 28  1  6
 29 30  1  0
 30 18  1  0
 31 29  1  0
 32 31  2  0
 33 31  1  0
M  END
$$$$
