KYR.pdb
     RDKit          3D

 33 33  0  0  1  0  0  0  0  0999 V2000
   20.6086  -26.0997  -13.3839 N   0  0  0  0  0  0  0  0  0  0  0  0
   21.7473  -25.8649  -14.2281 C   0  0  1  0  0  0  0  0  0  0  0  0
   21.4527  -26.2333  -15.6319 C   0  0  0  0  0  0  0  0  0  0  0  0
   21.3003  -27.6955  -15.8454 C   0  0  0  0  0  0  0  0  0  0  0  0
   22.4954  -28.5345  -15.5436 C   0  0  0  0  0  0  0  0  0  0  0  0
   22.2219  -30.0061  -15.8877 C   0  0  0  0  0  0  0  0  0  0  0  0
   23.4262  -30.7592  -15.5450 N   0  0  0  0  0  0  0  0  0  0  0  0
   22.2121  -24.4472  -14.0959 C   0  0  0  0  0  0  0  0  0  0  0  0
   21.3660  -23.5767  -13.8009 O   0  0  0  0  0  0  0  0  0  0  0  0
   28.7691  -18.3049  -14.8312 O   0  0  0  0  0  0  0  0  0  0  0  0
   27.9270  -19.3783  -14.5913 C   0  0  0  0  0  0  0  0  0  0  0  0
   27.1046  -19.3918  -13.4989 C   0  0  0  0  0  0  0  0  0  0  0  0
   26.2974  -20.5036  -13.3371 C   0  0  0  0  0  0  0  0  0  0  0  0
   26.2901  -21.5705  -14.2114 C   0  0  0  0  0  0  0  0  0  0  0  0
   25.4559  -22.7334  -13.9774 C   0  0  0  0  0  0  0  0  0  0  0  0
   24.0181  -22.6681  -14.2884 C   0  0  2  0  0  0  0  0  0  0  0  0
   23.5626  -24.0912  -14.2960 N   0  0  0  0  0  0  0  0  0  0  0  0
   23.5657  -22.0165  -15.5068 C   0  0  0  0  0  0  0  0  0  0  0  0
   23.6315  -22.6354  -16.6480 O   0  0  0  0  0  0  0  0  0  0  0  0
   27.1321  -21.5108  -15.2924 C   0  0  0  0  0  0  0  0  0  0  0  0
   27.9538  -20.4151  -15.4868 C   0  0  0  0  0  0  0  0  0  0  0  0
   17.0136  -20.2189  -14.5047 N   0  0  0  0  0  0  0  0  0  0  0  0
   17.1110  -21.4789  -15.1436 C   0  0  0  0  0  0  0  0  0  0  0  0
   16.3530  -22.4332  -14.7555 N   0  0  0  0  0  0  0  0  0  0  0  0
   18.0235  -21.7018  -16.1931 N   0  0  0  0  0  0  0  0  0  0  0  0
   18.7247  -20.5970  -16.8707 C   0  0  0  0  0  0  0  0  0  0  0  0
   20.1530  -20.9151  -17.0615 C   0  0  0  0  0  0  0  0  0  0  0  0
   21.1867  -19.9308  -16.8052 C   0  0  0  0  0  0  0  0  0  0  0  0
   22.6455  -20.1739  -16.9585 C   0  0  2  0  0  0  0  0  0  0  0  0
   23.0276  -20.7202  -15.5998 N   0  0  0  0  0  0  0  0  0  0  0  0
   23.4631  -18.9665  -17.0744 C   0  0  0  0  0  0  0  0  0  0  0  0
   23.6406  -18.1526  -16.1454 O   0  0  0  0  0  0  0  0  0  0  0  0
   24.1031  -18.6639  -18.2652 O   0  0  0  0  0  0  0  0  0  0  0  0
  2  3  1  0
  2  1  1  1
  3  4  1  0
  5  4  1  0
  6  5  1  0
  7  6  1  0
  8  9  2  0
  8  2  1  0
 10 11  1  0
 11 21  2  0
 12 11  1  0
 12 13  2  0
 13 14  1  0
 14 20  2  0
 14 15  1  0
 16 15  1  6
 16 17  1  0
 17  8  1  0
 18 19  2  0
 18 16  1  0
 21 20  1  0
 23 24  2  0
 23 22  1  0
 25 23  1  0
 26 25  1  0
 27 26  1  0
 28 27  1  0
 29 28  1  1
 29 30  1  0
 30 18  1  0
 31 29  1  0
 32 31  2  0
 33 31  1  0
M  END
$$$$
