KYR.pdb
     RDKit          3D

 33 33  0  0  1  0  0  0  0  0999 V2000
   19.0453  -19.5387  -12.2940 N   0  0  0  0  0  0  0  0  0  0  0  0
   19.9277  -20.6405  -12.0257 C   0  0  1  0  0  0  0  0  0  0  0  0
   19.7068  -21.7443  -12.9880 C   0  0  0  0  0  0  0  0  0  0  0  0
   18.4712  -22.5261  -12.7256 C   0  0  0  0  0  0  0  0  0  0  0  0
   18.5171  -23.4631  -11.5666 C   0  0  0  0  0  0  0  0  0  0  0  0
   17.1681  -24.1776  -11.3972 C   0  0  0  0  0  0  0  0  0  0  0  0
   17.2425  -24.9493  -10.1587 N   0  0  0  0  0  0  0  0  0  0  0  0
   21.3517  -20.1766  -12.0068 C   0  0  0  0  0  0  0  0  0  0  0  0
   21.6561  -19.1859  -12.7043 O   0  0  0  0  0  0  0  0  0  0  0  0
   29.9233  -20.7110   -9.4288 O   0  0  0  0  0  0  0  0  0  0  0  0
   28.5563  -20.8284   -9.6200 C   0  0  0  0  0  0  0  0  0  0  0  0
   28.0556  -21.5654  -10.6572 C   0  0  0  0  0  0  0  0  0  0  0  0
   26.6784  -21.6280  -10.7728 C   0  0  0  0  0  0  0  0  0  0  0  0
   25.8139  -20.9929   -9.9057 C   0  0  0  0  0  0  0  0  0  0  0  0
   24.3770  -21.0537  -10.0918 C   0  0  0  0  0  0  0  0  0  0  0  0
   23.7769  -20.4604  -11.2985 C   0  0  2  0  0  0  0  0  0  0  0  0
   22.3308  -20.8299  -11.2288 N   0  0  0  0  0  0  0  0  0  0  0  0
   24.2939  -20.8046  -12.6131 C   0  0  0  0  0  0  0  0  0  0  0  0
   23.9704  -21.9321  -13.1733 O   0  0  0  0  0  0  0  0  0  0  0  0
   26.3635  -20.2659   -8.8807 C   0  0  0  0  0  0  0  0  0  0  0  0
   27.7363  -20.1804   -8.7337 C   0  0  0  0  0  0  0  0  0  0  0  0
   28.1589  -18.5110  -18.9256 N   0  0  0  0  0  0  0  0  0  0  0  0
   27.0110  -18.4618  -19.7533 C   0  0  0  0  0  0  0  0  0  0  0  0
   27.1397  -18.6728  -21.0082 N   0  0  0  0  0  0  0  0  0  0  0  0
   25.7353  -18.1848  -19.2244 N   0  0  0  0  0  0  0  0  0  0  0  0
   25.5148  -17.9610  -17.7846 C   0  0  0  0  0  0  0  0  0  0  0  0
   25.7292  -19.2032  -17.0175 C   0  0  0  0  0  0  0  0  0  0  0  0
   25.4207  -19.2797  -15.6025 C   0  0  0  0  0  0  0  0  0  0  0  0
   25.5632  -20.5025  -14.7687 C   0  0  2  0  0  0  0  0  0  0  0  0
   25.1489  -20.0107  -13.3987 N   0  0  0  0  0  0  0  0  0  0  0  0
   26.9403  -20.9496  -14.5601 C   0  0  0  0  0  0  0  0  0  0  0  0
   27.7156  -20.4511  -13.7191 O   0  0  0  0  0  0  0  0  0  0  0  0
   27.4629  -21.9878  -15.3138 O   0  0  0  0  0  0  0  0  0  0  0  0
  2  3  1  0
  2  1  1  6
  3  4  1  0
  5  4  1  0
  6  5  1  0
  7  6  1  0
  8  9  2  0
  8  2  1  0
 10 11  1  0
 11 21  2  0
 12 11  1  0
 12 13  2  0
 13 14  1  0
 14 20  2  0
 14 15  1  0
 16 15  1  1
 16 17  1  0
 17  8  1  0
 18 19  2  0
 18 16  1  0
 21 20  1  0
 23 24  2  0
 23 22  1  0
 25 23  1  0
 26 25  1  0
 27 26  1  0
 28 27  1  0
 29 28  1  6
 29 30  1  0
 30 18  1  0
 31 29  1  0
 32 31  2  0
 33 31  1  0
M  END
$$$$
