KYR.pdb
     RDKit          3D

 33 33  0  0  1  0  0  0  0  0999 V2000
   27.7827  -21.5793  -17.7539 N   0  0  0  0  0  0  0  0  0  0  0  0
   27.6374  -20.5029  -16.8133 C   0  0  1  0  0  0  0  0  0  0  0  0
   27.0211  -19.3180  -17.4531 C   0  0  0  0  0  0  0  0  0  0  0  0
   27.7040  -18.8914  -18.7015 C   0  0  0  0  0  0  0  0  0  0  0  0
   28.5875  -17.6951  -18.5945 C   0  0  0  0  0  0  0  0  0  0  0  0
   29.0930  -17.2724  -19.9818 C   0  0  0  0  0  0  0  0  0  0  0  0
   29.9541  -16.1077  -19.7894 N   0  0  0  0  0  0  0  0  0  0  0  0
   26.8753  -20.9617  -15.6083 C   0  0  0  0  0  0  0  0  0  0  0  0
   25.8819  -21.6979  -15.7867 O   0  0  0  0  0  0  0  0  0  0  0  0
   24.9692  -20.4962   -6.8603 O   0  0  0  0  0  0  0  0  0  0  0  0
   25.5572  -20.4869   -8.1146 C   0  0  0  0  0  0  0  0  0  0  0  0
   25.9890  -19.3174   -8.6762 C   0  0  0  0  0  0  0  0  0  0  0  0
   26.5637  -19.4010   -9.9319 C   0  0  0  0  0  0  0  0  0  0  0  0
   26.7141  -20.5865  -10.6208 C   0  0  0  0  0  0  0  0  0  0  0  0
   27.2855  -20.6188  -11.9532 C   0  0  0  0  0  0  0  0  0  0  0  0
   26.4138  -20.8873  -13.1092 C   0  0  2  0  0  0  0  0  0  0  0  0
   27.2567  -20.5810  -14.3043 N   0  0  0  0  0  0  0  0  0  0  0  0
   25.1396  -20.1986  -13.2355 C   0  0  0  0  0  0  0  0  0  0  0  0
   25.0857  -19.0001  -13.7359 O   0  0  0  0  0  0  0  0  0  0  0  0
   26.2659  -21.7331  -10.0162 C   0  0  0  0  0  0  0  0  0  0  0  0
   25.6857  -21.6882   -8.7613 C   0  0  0  0  0  0  0  0  0  0  0  0
   20.0523  -16.6932  -17.5721 N   0  0  0  0  0  0  0  0  0  0  0  0
   21.4212  -16.9368  -17.8409 C   0  0  0  0  0  0  0  0  0  0  0  0
   22.0905  -16.0666  -18.4973 N   0  0  0  0  0  0  0  0  0  0  0  0
   22.0576  -18.1144  -17.4027 N   0  0  0  0  0  0  0  0  0  0  0  0
   21.3389  -19.1644  -16.6594 C   0  0  0  0  0  0  0  0  0  0  0  0
   21.5117  -18.9944  -15.2038 C   0  0  0  0  0  0  0  0  0  0  0  0
   22.6085  -19.6248  -14.4948 C   0  0  0  0  0  0  0  0  0  0  0  0
   22.6542  -19.8420  -13.0245 C   0  0  2  0  0  0  0  0  0  0  0  0
   23.8833  -20.7101  -12.8632 N   0  0  0  0  0  0  0  0  0  0  0  0
   21.5811  -20.6810  -12.4915 C   0  0  0  0  0  0  0  0  0  0  0  0
   21.6903  -21.9070  -12.2874 O   0  0  0  0  0  0  0  0  0  0  0  0
   20.3504  -20.1293  -12.1748 O   0  0  0  0  0  0  0  0  0  0  0  0
  2  3  1  0
  2  1  1  6
  3  4  1  0
  5  4  1  0
  6  5  1  0
  7  6  1  0
  8  9  2  0
  8  2  1  0
 10 11  1  0
 11 21  2  0
 12 11  1  0
 12 13  2  0
 13 14  1  0
 14 20  2  0
 14 15  1  0
 16 15  1  1
 16 17  1  0
 17  8  1  0
 18 19  2  0
 18 16  1  0
 21 20  1  0
 23 24  2  0
 23 22  1  0
 25 23  1  0
 26 25  1  0
 27 26  1  0
 28 27  1  0
 29 28  1  6
 29 30  1  0
 30 18  1  0
 31 29  1  0
 32 31  2  0
 33 31  1  0
M  END
$$$$
