KYR.pdb
     RDKit          3D

 33 33  0  0  1  0  0  0  0  0999 V2000
   20.0831  -22.9936  -12.6271 N   0  0  0  0  0  0  0  0  0  0  0  0
   19.8016  -21.6110  -12.3557 C   0  0  1  0  0  0  0  0  0  0  0  0
   19.4961  -21.4028  -10.9217 C   0  0  0  0  0  0  0  0  0  0  0  0
   18.3988  -22.2661  -10.4142 C   0  0  0  0  0  0  0  0  0  0  0  0
   18.7256  -23.7093  -10.2313 C   0  0  0  0  0  0  0  0  0  0  0  0
   17.5247  -24.4636   -9.6416 C   0  0  0  0  0  0  0  0  0  0  0  0
   17.9206  -24.9337   -8.3160 N   0  0  0  0  0  0  0  0  0  0  0  0
   20.9281  -20.7457  -12.8304 C   0  0  0  0  0  0  0  0  0  0  0  0
   20.8218  -19.5097  -12.6831 O   0  0  0  0  0  0  0  0  0  0  0  0
   29.1855  -20.2842  -16.3809 O   0  0  0  0  0  0  0  0  0  0  0  0
   28.0031  -20.4486  -15.6781 C   0  0  0  0  0  0  0  0  0  0  0  0
   27.4852  -19.4269  -14.9314 C   0  0  0  0  0  0  0  0  0  0  0  0
   26.3009  -19.6790  -14.2621 C   0  0  0  0  0  0  0  0  0  0  0  0
   25.6400  -20.8885  -14.3172 C   0  0  0  0  0  0  0  0  0  0  0  0
   24.4221  -21.1190  -13.5647 C   0  0  0  0  0  0  0  0  0  0  0  0
   23.1795  -20.4418  -13.9719 C   0  0  2  0  0  0  0  0  0  0  0  0
   22.0812  -21.2967  -13.4283 N   0  0  0  0  0  0  0  0  0  0  0  0
   22.9236  -20.1740  -15.3778 C   0  0  0  0  0  0  0  0  0  0  0  0
   22.3457  -21.0679  -16.1238 O   0  0  0  0  0  0  0  0  0  0  0  0
   26.1984  -21.8826  -15.0795 C   0  0  0  0  0  0  0  0  0  0  0  0
   27.3818  -21.6670  -15.7627 C   0  0  0  0  0  0  0  0  0  0  0  0
   21.8571  -14.5746  -20.5011 N   0  0  0  0  0  0  0  0  0  0  0  0
   20.5443  -14.9821  -20.8413 C   0  0  0  0  0  0  0  0  0  0  0  0
   20.0544  -14.6248  -21.9675 N   0  0  0  0  0  0  0  0  0  0  0  0
   19.7696  -15.7690  -19.9669 N   0  0  0  0  0  0  0  0  0  0  0  0
   20.2477  -16.1557  -18.6278 C   0  0  0  0  0  0  0  0  0  0  0  0
   21.2860  -17.2003  -18.7182 C   0  0  0  0  0  0  0  0  0  0  0  0
   21.8630  -17.7966  -17.5288 C   0  0  0  0  0  0  0  0  0  0  0  0
   22.8940  -18.8679  -17.5324 C   0  0  2  0  0  0  0  0  0  0  0  0
   23.2416  -18.9882  -16.0644 N   0  0  0  0  0  0  0  0  0  0  0  0
   24.1680  -18.4956  -18.1473 C   0  0  0  0  0  0  0  0  0  0  0  0
   24.5609  -18.9234  -19.2516 O   0  0  0  0  0  0  0  0  0  0  0  0
   25.0255  -17.6156  -17.5075 O   0  0  0  0  0  0  0  0  0  0  0  0
  2  3  1  0
  2  1  1  1
  3  4  1  0
  5  4  1  0
  6  5  1  0
  7  6  1  0
  8  9  2  0
  8  2  1  0
 10 11  1  0
 11 21  2  0
 12 11  1  0
 12 13  2  0
 13 14  1  0
 14 20  2  0
 14 15  1  0
 16 15  1  6
 16 17  1  0
 17  8  1  0
 18 19  2  0
 18 16  1  0
 21 20  1  0
 23 24  2  0
 23 22  1  0
 25 23  1  0
 26 25  1  0
 27 26  1  0
 28 27  1  0
 29 28  1  1
 29 30  1  0
 30 18  1  0
 31 29  1  0
 32 31  2  0
 33 31  1  0
M  END
$$$$
