KYR.pdb
     RDKit          3D

 33 33  0  0  1  0  0  0  0  0999 V2000
   25.3100  -20.7434  -16.8567 N   0  0  0  0  0  0  0  0  0  0  0  0
   25.6681  -20.2878  -15.5419 C   0  0  1  0  0  0  0  0  0  0  0  0
   26.7974  -19.3316  -15.6004 C   0  0  0  0  0  0  0  0  0  0  0  0
   27.7963  -19.6519  -16.6523 C   0  0  0  0  0  0  0  0  0  0  0  0
   28.4539  -20.9864  -16.5531 C   0  0  0  0  0  0  0  0  0  0  0  0
   29.6245  -21.0854  -17.5425 C   0  0  0  0  0  0  0  0  0  0  0  0
   30.1211  -22.4585  -17.4854 N   0  0  0  0  0  0  0  0  0  0  0  0
   24.4726  -19.7167  -14.8434 C   0  0  0  0  0  0  0  0  0  0  0  0
   24.6302  -19.2506  -13.6951 O   0  0  0  0  0  0  0  0  0  0  0  0
   24.6412  -13.4274  -16.2038 O   0  0  0  0  0  0  0  0  0  0  0  0
   23.8494  -14.5531  -16.0462 C   0  0  0  0  0  0  0  0  0  0  0  0
   23.0254  -14.6828  -14.9627 C   0  0  0  0  0  0  0  0  0  0  0  0
   22.2706  -15.8396  -14.8856 C   0  0  0  0  0  0  0  0  0  0  0  0
   22.3156  -16.8404  -15.8338 C   0  0  0  0  0  0  0  0  0  0  0  0
   21.5360  -18.0545  -15.6885 C   0  0  0  0  0  0  0  0  0  0  0  0
   22.0041  -19.1115  -14.7764 C   0  0  2  0  0  0  0  0  0  0  0  0
   23.1999  -19.6993  -15.4524 N   0  0  0  0  0  0  0  0  0  0  0  0
   21.1047  -20.1835  -14.3819 C   0  0  0  0  0  0  0  0  0  0  0  0
   20.9282  -21.2130  -15.1555 O   0  0  0  0  0  0  0  0  0  0  0  0
   23.1570  -16.6646  -16.9025 C   0  0  0  0  0  0  0  0  0  0  0  0
   23.9272  -15.5209  -17.0132 C   0  0  0  0  0  0  0  0  0  0  0  0
   17.5559  -24.8309   -7.6874 N   0  0  0  0  0  0  0  0  0  0  0  0
   18.0080  -25.6315   -8.7644 C   0  0  0  0  0  0  0  0  0  0  0  0
   17.7069  -26.8745   -8.7844 N   0  0  0  0  0  0  0  0  0  0  0  0
   18.7808  -25.0888   -9.8093 N   0  0  0  0  0  0  0  0  0  0  0  0
   18.8954  -23.6359  -10.0272 C   0  0  0  0  0  0  0  0  0  0  0  0
   19.6270  -23.3444  -11.2751 C   0  0  0  0  0  0  0  0  0  0  0  0
   19.8809  -21.9815  -11.7009 C   0  0  0  0  0  0  0  0  0  0  0  0
   19.3959  -21.3869  -12.9744 C   0  0  2  0  0  0  0  0  0  0  0  0
   20.3640  -20.2433  -13.1876 N   0  0  0  0  0  0  0  0  0  0  0  0
   18.0997  -20.7146  -12.8868 C   0  0  0  0  0  0  0  0  0  0  0  0
   17.9510  -19.5320  -12.5179 O   0  0  0  0  0  0  0  0  0  0  0  0
   16.9364  -21.3862  -13.2256 O   0  0  0  0  0  0  0  0  0  0  0  0
  2  3  1  0
  2  1  1  6
  3  4  1  0
  5  4  1  0
  6  5  1  0
  7  6  1  0
  8  9  2  0
  8  2  1  0
 10 11  1  0
 11 21  2  0
 12 11  1  0
 12 13  2  0
 13 14  1  0
 14 20  2  0
 14 15  1  0
 16 15  1  6
 16 17  1  0
 17  8  1  0
 18 19  2  0
 18 16  1  0
 21 20  1  0
 23 24  2  0
 23 22  1  0
 25 23  1  0
 26 25  1  0
 27 26  1  0
 28 27  1  0
 29 28  1  1
 29 30  1  0
 30 18  1  0
 31 29  1  0
 32 31  2  0
 33 31  1  0
M  END
$$$$
