KYR.pdb
     RDKit          3D

 33 33  0  0  1  0  0  0  0  0999 V2000
   22.8944  -25.3199  -15.9206 N   0  0  0  0  0  0  0  0  0  0  0  0
   24.2316  -24.9991  -15.5040 C   0  0  1  0  0  0  0  0  0  0  0  0
   25.1533  -24.9580  -16.6624 C   0  0  0  0  0  0  0  0  0  0  0  0
   25.5304  -26.3013  -17.1725 C   0  0  0  0  0  0  0  0  0  0  0  0
   26.8558  -26.8252  -16.7343 C   0  0  0  0  0  0  0  0  0  0  0  0
   27.2154  -28.1002  -17.5116 C   0  0  0  0  0  0  0  0  0  0  0  0
   28.5162  -28.5504  -17.0216 N   0  0  0  0  0  0  0  0  0  0  0  0
   24.2426  -23.7225  -14.7207 C   0  0  0  0  0  0  0  0  0  0  0  0
   23.2976  -22.9226  -14.8879 O   0  0  0  0  0  0  0  0  0  0  0  0
   25.8482  -18.6291   -7.7249 O   0  0  0  0  0  0  0  0  0  0  0  0
   25.9485  -19.5632   -8.7430 C   0  0  0  0  0  0  0  0  0  0  0  0
   27.1566  -19.8435   -9.3188 C   0  0  0  0  0  0  0  0  0  0  0  0
   27.1641  -20.7893  -10.3285 C   0  0  0  0  0  0  0  0  0  0  0  0
   26.0307  -21.4429  -10.7653 C   0  0  0  0  0  0  0  0  0  0  0  0
   26.0817  -22.3971  -11.8560 C   0  0  0  0  0  0  0  0  0  0  0  0
   25.3606  -22.1073  -13.1067 C   0  0  2  0  0  0  0  0  0  0  0  0
   25.2832  -23.4193  -13.8174 N   0  0  0  0  0  0  0  0  0  0  0  0
   25.8680  -21.0984  -14.0225 C   0  0  0  0  0  0  0  0  0  0  0  0
   26.7216  -21.4195  -14.9486 O   0  0  0  0  0  0  0  0  0  0  0  0
   24.8424  -21.1281  -10.1569 C   0  0  0  0  0  0  0  0  0  0  0  0
   24.7963  -20.1873   -9.1438 C   0  0  0  0  0  0  0  0  0  0  0  0
   21.9518  -13.6412  -15.1860 N   0  0  0  0  0  0  0  0  0  0  0  0
   21.8044  -15.0444  -15.3076 C   0  0  0  0  0  0  0  0  0  0  0  0
   20.6321  -15.5533  -15.2553 N   0  0  0  0  0  0  0  0  0  0  0  0
   22.9188  -15.8876  -15.4829 N   0  0  0  0  0  0  0  0  0  0  0  0
   24.2748  -15.3581  -15.7119 C   0  0  0  0  0  0  0  0  0  0  0  0
   25.2593  -16.4524  -15.8157 C   0  0  0  0  0  0  0  0  0  0  0  0
   25.0997  -17.6852  -15.0689 C   0  0  0  0  0  0  0  0  0  0  0  0
   26.0257  -18.8463  -15.1415 C   0  0  2  0  0  0  0  0  0  0  0  0
   25.5177  -19.7361  -14.0276 N   0  0  0  0  0  0  0  0  0  0  0  0
   27.4032  -18.5625  -14.7396 C   0  0  0  0  0  0  0  0  0  0  0  0
   27.8155  -18.6336  -13.5642 O   0  0  0  0  0  0  0  0  0  0  0  0
   28.3472  -18.1912  -15.6831 O   0  0  0  0  0  0  0  0  0  0  0  0
  2  3  1  0
  2  1  1  6
  3  4  1  0
  5  4  1  0
  6  5  1  0
  7  6  1  0
  8  9  2  0
  8  2  1  0
 10 11  1  0
 11 21  2  0
 12 11  1  0
 12 13  2  0
 13 14  1  0
 14 20  2  0
 14 15  1  0
 16 15  1  1
 16 17  1  0
 17  8  1  0
 18 19  2  0
 18 16  1  0
 21 20  1  0
 23 24  2  0
 23 22  1  0
 25 23  1  0
 26 25  1  0
 27 26  1  0
 28 27  1  0
 29 28  1  1
 29 30  1  0
 30 18  1  0
 31 29  1  0
 32 31  2  0
 33 31  1  0
M  END
$$$$
