KYR.pdb
     RDKit          3D

 33 33  0  0  1  0  0  0  0  0999 V2000
   22.9947  -17.3876  -20.1839 N   0  0  0  0  0  0  0  0  0  0  0  0
   23.9697  -17.6284  -19.1563 C   0  0  1  0  0  0  0  0  0  0  0  0
   25.0252  -16.5898  -19.1716 C   0  0  0  0  0  0  0  0  0  0  0  0
   25.7636  -16.5087  -20.4580 C   0  0  0  0  0  0  0  0  0  0  0  0
   27.1827  -16.0583  -20.3769 C   0  0  0  0  0  0  0  0  0  0  0  0
   27.7625  -15.8471  -21.7833 C   0  0  0  0  0  0  0  0  0  0  0  0
   29.1549  -15.4362  -21.6174 N   0  0  0  0  0  0  0  0  0  0  0  0
   23.3026  -17.7442  -17.8203 C   0  0  0  0  0  0  0  0  0  0  0  0
   24.0236  -17.9372  -16.8184 O   0  0  0  0  0  0  0  0  0  0  0  0
   22.5168  -11.4892  -15.7978 O   0  0  0  0  0  0  0  0  0  0  0  0
   21.9706  -12.7597  -15.8783 C   0  0  0  0  0  0  0  0  0  0  0  0
   21.9766  -13.5937  -14.7947 C   0  0  0  0  0  0  0  0  0  0  0  0
   21.4102  -14.8445  -14.9647 C   0  0  0  0  0  0  0  0  0  0  0  0
   20.8547  -15.2715  -16.1528 C   0  0  0  0  0  0  0  0  0  0  0  0
   20.3095  -16.6076  -16.2948 C   0  0  0  0  0  0  0  0  0  0  0  0
   21.2236  -17.7604  -16.3568 C   0  0  2  0  0  0  0  0  0  0  0  0
   21.9022  -17.6406  -17.6826 N   0  0  0  0  0  0  0  0  0  0  0  0
   20.7042  -19.1101  -16.2076 C   0  0  0  0  0  0  0  0  0  0  0  0
   20.0402  -19.6708  -17.1742 O   0  0  0  0  0  0  0  0  0  0  0  0
   20.8721  -14.3992  -17.2111 C   0  0  0  0  0  0  0  0  0  0  0  0
   21.4300  -13.1404  -17.0785 C   0  0  0  0  0  0  0  0  0  0  0  0
   25.7277  -21.5562  -14.2488 N   0  0  0  0  0  0  0  0  0  0  0  0
   25.3956  -22.2306  -13.0487 C   0  0  0  0  0  0  0  0  0  0  0  0
   26.0712  -21.9858  -11.9905 N   0  0  0  0  0  0  0  0  0  0  0  0
   24.3412  -23.1629  -12.9975 N   0  0  0  0  0  0  0  0  0  0  0  0
   23.3852  -23.3275  -14.1068 C   0  0  0  0  0  0  0  0  0  0  0  0
   22.3189  -22.3095  -14.0415 C   0  0  0  0  0  0  0  0  0  0  0  0
   21.2901  -22.2270  -15.0603 C   0  0  0  0  0  0  0  0  0  0  0  0
   20.1503  -21.2725  -15.0387 C   0  0  2  0  0  0  0  0  0  0  0  0
   20.8501  -19.9311  -15.0747 N   0  0  0  0  0  0  0  0  0  0  0  0
   19.4075  -21.2274  -13.7793 C   0  0  0  0  0  0  0  0  0  0  0  0
   18.5553  -22.0738  -13.4415 O   0  0  0  0  0  0  0  0  0  0  0  0
   19.6285  -20.2056  -12.8703 O   0  0  0  0  0  0  0  0  0  0  0  0
  2  3  1  0
  2  1  1  6
  3  4  1  0
  5  4  1  0
  6  5  1  0
  7  6  1  0
  8  9  2  0
  8  2  1  0
 10 11  1  0
 11 21  2  0
 12 11  1  0
 12 13  2  0
 13 14  1  0
 14 20  2  0
 14 15  1  0
 16 15  1  6
 16 17  1  0
 17  8  1  0
 18 19  2  0
 18 16  1  0
 21 20  1  0
 23 24  2  0
 23 22  1  0
 25 23  1  0
 26 25  1  0
 27 26  1  0
 28 27  1  0
 29 28  1  1
 29 30  1  0
 30 18  1  0
 31 29  1  0
 32 31  2  0
 33 31  1  0
M  END
$$$$
