KYR.pdb
     RDKit          3D

 33 33  0  0  1  0  0  0  0  0999 V2000
   27.1879  -20.8670  -18.2595 N   0  0  0  0  0  0  0  0  0  0  0  0
   28.0795  -21.6277  -17.4284 C   0  0  1  0  0  0  0  0  0  0  0  0
   29.3669  -20.9195  -17.2430 C   0  0  0  0  0  0  0  0  0  0  0  0
   30.0539  -20.5876  -18.5176 C   0  0  0  0  0  0  0  0  0  0  0  0
   30.6016  -21.7387  -19.2911 C   0  0  0  0  0  0  0  0  0  0  0  0
   31.2904  -21.2479  -20.5731 C   0  0  0  0  0  0  0  0  0  0  0  0
   31.7858  -22.4299  -21.2748 N   0  0  0  0  0  0  0  0  0  0  0  0
   27.4206  -21.9637  -16.1259 C   0  0  0  0  0  0  0  0  0  0  0  0
   28.1199  -22.4833  -15.2306 O   0  0  0  0  0  0  0  0  0  0  0  0
   24.1561  -20.6637   -8.4047 O   0  0  0  0  0  0  0  0  0  0  0  0
   24.5872  -20.7082   -9.7204 C   0  0  0  0  0  0  0  0  0  0  0  0
   23.8203  -20.1879  -10.7259 C   0  0  0  0  0  0  0  0  0  0  0  0
   24.3282  -20.2758  -12.0097 C   0  0  0  0  0  0  0  0  0  0  0  0
   25.5455  -20.8524  -12.3070 C   0  0  0  0  0  0  0  0  0  0  0  0
   26.0175  -20.9584  -13.6740 C   0  0  0  0  0  0  0  0  0  0  0  0
   25.4038  -21.9456  -14.5780 C   0  0  2  0  0  0  0  0  0  0  0  0
   26.0513  -21.7065  -15.9032 N   0  0  0  0  0  0  0  0  0  0  0  0
   23.9606  -21.9756  -14.7513 C   0  0  0  0  0  0  0  0  0  0  0  0
   23.3600  -21.0468  -15.4341 O   0  0  0  0  0  0  0  0  0  0  0  0
   26.2786  -21.3601  -11.2649 C   0  0  0  0  0  0  0  0  0  0  0  0
   25.8028  -21.2903   -9.9679 C   0  0  0  0  0  0  0  0  0  0  0  0
   24.1338  -27.4316  -16.9932 N   0  0  0  0  0  0  0  0  0  0  0  0
   24.7132  -26.4735  -16.1263 C   0  0  0  0  0  0  0  0  0  0  0  0
   25.9078  -26.0748  -16.3496 N   0  0  0  0  0  0  0  0  0  0  0  0
   24.0034  -25.9537  -15.0265 N   0  0  0  0  0  0  0  0  0  0  0  0
   22.6346  -26.3904  -14.6990 C   0  0  0  0  0  0  0  0  0  0  0  0
   21.6368  -25.4312  -15.2105 C   0  0  0  0  0  0  0  0  0  0  0  0
   21.1894  -24.3079  -14.4098 C   0  0  0  0  0  0  0  0  0  0  0  0
   21.6204  -22.8990  -14.6101 C   0  0  2  0  0  0  0  0  0  0  0  0
   23.0871  -22.9532  -14.2413 N   0  0  0  0  0  0  0  0  0  0  0  0
   21.0701  -21.9432  -13.6492 C   0  0  0  0  0  0  0  0  0  0  0  0
   20.1405  -21.1519  -13.9070 O   0  0  0  0  0  0  0  0  0  0  0  0
   21.5740  -21.8744  -12.3606 O   0  0  0  0  0  0  0  0  0  0  0  0
  2  3  1  0
  2  1  1  6
  3  4  1  0
  5  4  1  0
  6  5  1  0
  7  6  1  0
  8  9  2  0
  8  2  1  0
 10 11  1  0
 11 21  2  0
 12 11  1  0
 12 13  2  0
 13 14  1  0
 14 20  2  0
 14 15  1  0
 16 15  1  1
 16 17  1  0
 17  8  1  0
 18 19  2  0
 18 16  1  0
 21 20  1  0
 23 24  2  0
 23 22  1  0
 25 23  1  0
 26 25  1  0
 27 26  1  0
 28 27  1  0
 29 28  1  1
 29 30  1  0
 30 18  1  0
 31 29  1  0
 32 31  2  0
 33 31  1  0
M  END
$$$$
