RNQ.pdb
     RDKit          3D

 29 28  0  0  1  0  0  0  0  0999 V2000
   25.0879  -16.3902  -18.6647 N   0  0  0  0  0  0  0  0  0  0  0  0
   24.0035  -16.9291  -17.9520 C   0  0  0  0  0  0  0  0  0  0  0  0
   22.7822  -16.5899  -18.2770 N   0  0  0  0  0  0  0  0  0  0  0  0
   24.2130  -17.8417  -16.8748 N   0  0  0  0  0  0  0  0  0  0  0  0
   25.6125  -18.2436  -16.6600 C   0  0  0  0  0  0  0  0  0  0  0  0
   25.9013  -19.3021  -17.6571 C   0  0  0  0  0  0  0  0  0  0  0  0
   25.7815  -20.7201  -17.1998 C   0  0  0  0  0  0  0  0  0  0  0  0
   26.8522  -21.1439  -16.2854 C   0  0  2  0  0  0  0  0  0  0  0  0
   27.8540  -22.0104  -16.7756 N   0  0  0  0  0  0  0  0  0  0  0  0
   26.3974  -21.5053  -14.9045 C   0  0  0  0  0  0  0  0  0  0  0  0
   25.9270  -22.6426  -14.7446 O   0  0  0  0  0  0  0  0  0  0  0  0
   22.0011  -16.9909  -17.7009 N   0  0  0  0  0  0  0  0  0  0  0  0
   24.5952  -21.2083   -9.9833 C   0  0  0  0  0  0  0  0  0  0  0  0
   25.9272  -20.7213  -10.0651 O   0  0  0  0  0  0  0  0  0  0  0  0
   26.4936  -20.5062   -8.9698 C   0  0  0  0  0  0  0  0  0  0  0  0
   26.6232  -20.4786  -11.3323 C   0  0  2  0  0  0  0  0  0  0  0  0
   25.8250  -20.8051  -12.5429 N   0  0  0  0  0  0  0  0  0  0  0  0
   26.4705  -20.6372  -13.8087 C   0  0  0  0  0  0  0  0  0  0  0  0
   24.4766  -20.2218  -12.4632 O   0  0  0  0  0  0  0  0  0  0  0  0
   24.3253  -18.9994  -12.6808 N   0  0  0  0  0  0  0  0  0  0  0  0
   21.3389  -19.6729  -16.4348 C   0  0  0  0  0  0  0  0  0  0  0  0
   20.2593  -19.3419  -15.5480 O   0  0  0  0  0  0  0  0  0  0  0  0
   19.2100  -18.9219  -16.0970 C   0  0  0  0  0  0  0  0  0  0  0  0
   20.3765  -19.4861  -14.0924 C   0  0  0  0  0  0  0  0  0  0  0  0
   21.7392  -20.0720  -13.8002 C   0  0  2  0  0  0  0  0  0  0  0  0
   21.9667  -20.4137  -12.3592 N   0  0  0  0  0  0  0  0  0  0  0  0
   23.3114  -20.9548  -12.1511 C   0  0  0  0  0  0  0  0  0  0  0  0
   20.9084  -21.3802  -11.9621 O   0  0  0  0  0  0  0  0  0  0  0  0
   19.7207  -20.9762  -11.9741 O   0  0  0  0  0  0  0  0  0  0  0  0
  2  3  2  0
  2  1  1  0
  4  2  1  0
  5  4  1  0
  6  5  1  0
  7  6  1  0
  8  7  1  0
  8 10  1  0
  8  9  1  6
 10 17  1  0
 10 11  2  0
 13 12  1  0
 14 13  2  0
 15 13  1  0
 16 15  1  1
 17 16  1  0
 18 16  1  0
 18 19  2  0
 20 21  1  0
 21 22  2  0
 23 21  1  0
 23 24  1  0
 25 24  1  1
 25 26  1  0
 26 18  1  0
 27 25  1  0
 28 27  2  0
 29 27  1  0
M  END
$$$$
