RNQ.pdb
     RDKit          3D

 29 28  0  0  1  0  0  0  0  0999 V2000
   24.4753  -18.1016  -20.1449 N   0  0  0  0  0  0  0  0  0  0  0  0
   24.3275  -17.6604  -18.8191 C   0  0  0  0  0  0  0  0  0  0  0  0
   23.1802  -17.1706  -18.4236 N   0  0  0  0  0  0  0  0  0  0  0  0
   25.4119  -17.7361  -17.8943 N   0  0  0  0  0  0  0  0  0  0  0  0
   26.6307  -18.3783  -18.4124 C   0  0  0  0  0  0  0  0  0  0  0  0
   26.7936  -19.6407  -17.6523 C   0  0  0  0  0  0  0  0  0  0  0  0
   27.3632  -19.5378  -16.2741 C   0  0  0  0  0  0  0  0  0  0  0  0
   27.6438  -20.8378  -15.6468 C   0  0  2  0  0  0  0  0  0  0  0  0
   27.9403  -21.9389  -16.4801 N   0  0  0  0  0  0  0  0  0  0  0  0
   26.7384  -21.1986  -14.5090 C   0  0  0  0  0  0  0  0  0  0  0  0
   26.0815  -22.2457  -14.6204 O   0  0  0  0  0  0  0  0  0  0  0  0
   23.1122  -16.8472  -17.4269 N   0  0  0  0  0  0  0  0  0  0  0  0
   24.3449  -21.5734   -9.9017 C   0  0  0  0  0  0  0  0  0  0  0  0
   25.2185  -20.4547   -9.8395 O   0  0  0  0  0  0  0  0  0  0  0  0
   25.3199  -19.9083   -8.7180 C   0  0  0  0  0  0  0  0  0  0  0  0
   25.9689  -19.9496  -10.9931 C   0  0  2  0  0  0  0  0  0  0  0  0
   25.7003  -20.6724  -12.2638 N   0  0  0  0  0  0  0  0  0  0  0  0
   26.5960  -20.4241  -13.3516 C   0  0  0  0  0  0  0  0  0  0  0  0
   24.2743  -20.6079  -12.6203 O   0  0  0  0  0  0  0  0  0  0  0  0
   23.8866  -19.7433  -13.4368 N   0  0  0  0  0  0  0  0  0  0  0  0
   19.6473  -24.2938  -10.4748 C   0  0  0  0  0  0  0  0  0  0  0  0
   18.9323  -23.4750  -11.4128 O   0  0  0  0  0  0  0  0  0  0  0  0
   17.7047  -23.7179  -11.5259 C   0  0  0  0  0  0  0  0  0  0  0  0
   19.5960  -22.4213  -12.1892 C   0  0  0  0  0  0  0  0  0  0  0  0
   21.0425  -22.3749  -11.7522 C   0  0  2  0  0  0  0  0  0  0  0  0
   21.8792  -21.3795  -12.4967 N   0  0  0  0  0  0  0  0  0  0  0  0
   23.2853  -21.4685  -12.0973 C   0  0  0  0  0  0  0  0  0  0  0  0
   21.3069  -20.0333  -12.2288 O   0  0  0  0  0  0  0  0  0  0  0  0
   21.6700  -19.4474  -11.1806 O   0  0  0  0  0  0  0  0  0  0  0  0
  2  3  2  0
  2  1  1  0
  4  2  1  0
  5  4  1  0
  6  5  1  0
  7  6  1  0
  8  7  1  0
  8 10  1  0
  8  9  1  6
 10 17  1  0
 10 11  2  0
 13 12  1  0
 14 13  2  0
 15 13  1  0
 16 15  1  1
 17 16  1  0
 18 16  1  0
 18 19  2  0
 20 21  1  0
 21 22  2  0
 23 21  1  0
 23 24  1  0
 25 24  1  6
 25 26  1  0
 26 18  1  0
 27 25  1  0
 28 27  2  0
 29 27  1  0
M  END
$$$$
