RNQ.pdb
     RDKit          3D

 29 28  0  0  1  0  0  0  0  0999 V2000
   19.7337  -26.6822  -12.9405 N   0  0  0  0  0  0  0  0  0  0  0  0
   20.5824  -27.0772  -11.8927 C   0  0  0  0  0  0  0  0  0  0  0  0
   21.8643  -27.2173  -12.1155 N   0  0  0  0  0  0  0  0  0  0  0  0
   20.0676  -27.3308  -10.5860 N   0  0  0  0  0  0  0  0  0  0  0  0
   18.6802  -27.8203  -10.5457 C   0  0  0  0  0  0  0  0  0  0  0  0
   17.8122  -26.6184  -10.5542 C   0  0  0  0  0  0  0  0  0  0  0  0
   17.1965  -26.2130   -9.2539 C   0  0  0  0  0  0  0  0  0  0  0  0
   18.0274  -25.2939   -8.4621 C   0  0  2  0  0  0  0  0  0  0  0  0
   19.1172  -24.6556   -9.0941 N   0  0  0  0  0  0  0  0  0  0  0  0
   18.3562  -25.7709   -7.0805 C   0  0  0  0  0  0  0  0  0  0  0  0
   19.5492  -26.0086   -6.8343 O   0  0  0  0  0  0  0  0  0  0  0  0
   22.4567  -27.5628  -11.3202 N   0  0  0  0  0  0  0  0  0  0  0  0
   16.3399  -26.4606   -1.3005 C   0  0  0  0  0  0  0  0  0  0  0  0
   17.2608  -26.0394   -2.2969 O   0  0  0  0  0  0  0  0  0  0  0  0
   18.4594  -25.9884   -1.9400 C   0  0  0  0  0  0  0  0  0  0  0  0
   16.8669  -25.6836   -3.6634 C   0  0  2  0  0  0  0  0  0  0  0  0
   17.6522  -26.3652   -4.7254 N   0  0  0  0  0  0  0  0  0  0  0  0
   17.4010  -25.9632   -6.0753 C   0  0  0  0  0  0  0  0  0  0  0  0
   17.6760  -27.8214   -4.5165 O   0  0  0  0  0  0  0  0  0  0  0  0
   16.7998  -28.5312   -5.0577 N   0  0  0  0  0  0  0  0  0  0  0  0
   22.0288  -31.7359   -5.1462 C   0  0  0  0  0  0  0  0  0  0  0  0
   20.7661  -32.2952   -5.5385 O   0  0  0  0  0  0  0  0  0  0  0  0
   20.8225  -33.2794   -6.3177 C   0  0  0  0  0  0  0  0  0  0  0  0
   19.4911  -31.7501   -5.0581 C   0  0  0  0  0  0  0  0  0  0  0  0
   19.8078  -30.6031   -4.1256 C   0  0  2  0  0  0  0  0  0  0  0  0
   18.6021  -29.9451   -3.5268 N   0  0  0  0  0  0  0  0  0  0  0  0
   18.6358  -28.4955   -3.7312 C   0  0  0  0  0  0  0  0  0  0  0  0
   18.5734  -30.3051   -2.0841 O   0  0  0  0  0  0  0  0  0  0  0  0
   18.9527  -29.4362   -1.2625 O   0  0  0  0  0  0  0  0  0  0  0  0
  2  3  2  0
  2  1  1  0
  4  2  1  0
  5  4  1  0
  6  5  1  0
  7  6  1  0
  8  7  1  0
  8 10  1  0
  8  9  1  6
 10 17  1  0
 10 11  2  0
 13 12  1  0
 14 13  2  0
 15 13  1  0
 16 15  1  1
 17 16  1  0
 18 16  1  0
 18 19  2  0
 20 21  1  0
 21 22  2  0
 23 21  1  0
 23 24  1  0
 25 24  1  6
 25 26  1  0
 26 18  1  0
 27 25  1  0
 28 27  2  0
 29 27  1  0
M  END
$$$$
