RNQ.pdb
     RDKit          3D

 29 28  0  0  1  0  0  0  0  0999 V2000
   27.4098  -27.9100  -16.3949 N   0  0  0  0  0  0  0  0  0  0  0  0
   28.5178  -27.9211  -17.2589 C   0  0  0  0  0  0  0  0  0  0  0  0
   28.9809  -29.0614  -17.7036 N   0  0  0  0  0  0  0  0  0  0  0  0
   29.1497  -26.7056  -17.6591 N   0  0  0  0  0  0  0  0  0  0  0  0
   28.5999  -25.4851  -17.0472 C   0  0  0  0  0  0  0  0  0  0  0  0
   27.3104  -25.2200  -17.7289 C   0  0  0  0  0  0  0  0  0  0  0  0
   26.1076  -25.0296  -16.8621 C   0  0  0  0  0  0  0  0  0  0  0  0
   26.0016  -23.6847  -16.2770 C   0  0  2  0  0  0  0  0  0  0  0  0
   27.1684  -23.0810  -15.7583 N   0  0  0  0  0  0  0  0  0  0  0  0
   24.8004  -23.4664  -15.4088 C   0  0  0  0  0  0  0  0  0  0  0  0
   24.4017  -24.4349  -14.7428 O   0  0  0  0  0  0  0  0  0  0  0  0
   29.8722  -29.0362  -18.2582 N   0  0  0  0  0  0  0  0  0  0  0  0
   20.9672  -21.4081  -12.5177 C   0  0  0  0  0  0  0  0  0  0  0  0
   22.0907  -20.5445  -12.6180 O   0  0  0  0  0  0  0  0  0  0  0  0
   22.1191  -19.5955  -11.8024 C   0  0  0  0  0  0  0  0  0  0  0  0
   23.1653  -20.7261  -13.5985 C   0  0  2  0  0  0  0  0  0  0  0  0
   23.0290  -21.9440  -14.4395 N   0  0  0  0  0  0  0  0  0  0  0  0
   24.1159  -22.2486  -15.3187 C   0  0  0  0  0  0  0  0  0  0  0  0
   21.6997  -22.0104  -15.0665 O   0  0  0  0  0  0  0  0  0  0  0  0
   21.4876  -21.3699  -16.1197 N   0  0  0  0  0  0  0  0  0  0  0  0
   16.8262  -25.5796  -13.2913 C   0  0  0  0  0  0  0  0  0  0  0  0
   16.3622  -25.0731  -14.5521 O   0  0  0  0  0  0  0  0  0  0  0  0
   15.2562  -25.5198  -14.9471 C   0  0  0  0  0  0  0  0  0  0  0  0
   17.1332  -24.0952  -15.3285 C   0  0  0  0  0  0  0  0  0  0  0  0
   18.4304  -23.8487  -14.5924 C   0  0  2  0  0  0  0  0  0  0  0  0
   19.3296  -22.8452  -15.2479 N   0  0  0  0  0  0  0  0  0  0  0  0
   20.6178  -22.7601  -14.5568 C   0  0  0  0  0  0  0  0  0  0  0  0
   18.6105  -21.5435  -15.2509 O   0  0  0  0  0  0  0  0  0  0  0  0
   18.6571  -20.8534  -14.2042 O   0  0  0  0  0  0  0  0  0  0  0  0
  2  3  2  0
  2  1  1  0
  4  2  1  0
  5  4  1  0
  6  5  1  0
  7  6  1  0
  8  7  1  0
  8 10  1  0
  8  9  1  1
 10 17  1  0
 10 11  2  0
 13 12  1  0
 14 13  2  0
 15 13  1  0
 16 15  1  1
 17 16  1  0
 18 16  1  0
 18 19  2  0
 20 21  1  0
 21 22  2  0
 23 21  1  0
 23 24  1  0
 25 24  1  6
 25 26  1  0
 26 18  1  0
 27 25  1  0
 28 27  2  0
 29 27  1  0
M  END
$$$$
