RNQ.pdb
     RDKit          3D

 29 28  0  0  1  0  0  0  0  0999 V2000
   31.9403  -22.9379  -11.2535 N   0  0  0  0  0  0  0  0  0  0  0  0
   31.8755  -22.3496   -9.9792 C   0  0  0  0  0  0  0  0  0  0  0  0
   32.5681  -22.8611   -8.9938 N   0  0  0  0  0  0  0  0  0  0  0  0
   31.0625  -21.2011   -9.7406 N   0  0  0  0  0  0  0  0  0  0  0  0
   30.1461  -20.8462  -10.8363 C   0  0  0  0  0  0  0  0  0  0  0  0
   28.9899  -21.7681  -10.7296 C   0  0  0  0  0  0  0  0  0  0  0  0
   27.8876  -21.5970  -11.7245 C   0  0  0  0  0  0  0  0  0  0  0  0
   26.7919  -20.7347  -11.2575 C   0  0  2  0  0  0  0  0  0  0  0  0
   25.8821  -21.2538  -10.3101 N   0  0  0  0  0  0  0  0  0  0  0  0
   26.1191  -19.9323  -12.3288 C   0  0  0  0  0  0  0  0  0  0  0  0
   24.8780  -19.9407  -12.3453 O   0  0  0  0  0  0  0  0  0  0  0  0
   32.5289  -22.3653   -8.0689 N   0  0  0  0  0  0  0  0  0  0  0  0
   26.3291  -14.8933  -15.4435 C   0  0  0  0  0  0  0  0  0  0  0  0
   26.4857  -16.2829  -15.6942 O   0  0  0  0  0  0  0  0  0  0  0  0
   26.0340  -16.6903  -16.7881 C   0  0  0  0  0  0  0  0  0  0  0  0
   27.1315  -17.2060  -14.7562 C   0  0  1  0  0  0  0  0  0  0  0  0
   26.2394  -18.2743  -14.2347 N   0  0  0  0  0  0  0  0  0  0  0  0
   26.8088  -19.1927  -13.2968 C   0  0  0  0  0  0  0  0  0  0  0  0
   25.4763  -18.9069  -15.3220 O   0  0  0  0  0  0  0  0  0  0  0  0
   25.9839  -19.8620  -15.9501 N   0  0  0  0  0  0  0  0  0  0  0  0
   21.4848  -20.0048  -12.0917 C   0  0  0  0  0  0  0  0  0  0  0  0
   20.9742  -20.8885  -13.1015 O   0  0  0  0  0  0  0  0  0  0  0  0
   19.9771  -21.5780  -12.7712 C   0  0  0  0  0  0  0  0  0  0  0  0
   21.5806  -20.9789  -14.4348 C   0  0  0  0  0  0  0  0  0  0  0  0
   22.7763  -20.0540  -14.4558 C   0  0  1  0  0  0  0  0  0  0  0  0
   23.0613  -19.4461  -15.7954 N   0  0  0  0  0  0  0  0  0  0  0  0
   24.1827  -18.5074  -15.7211 C   0  0  0  0  0  0  0  0  0  0  0  0
   21.8106  -18.7865  -16.2562 O   0  0  0  0  0  0  0  0  0  0  0  0
   21.7339  -17.5403  -16.1340 O   0  0  0  0  0  0  0  0  0  0  0  0
  2  3  2  0
  2  1  1  0
  4  2  1  0
  5  4  1  0
  6  5  1  0
  7  6  1  0
  8  7  1  0
  8 10  1  0
  8  9  1  6
 10 17  1  0
 10 11  2  0
 13 12  1  0
 14 13  2  0
 15 13  1  0
 16 15  1  1
 17 16  1  0
 18 16  1  0
 18 19  2  0
 20 21  1  0
 21 22  2  0
 23 21  1  0
 23 24  1  0
 25 24  1  6
 25 26  1  0
 26 18  1  0
 27 25  1  0
 28 27  2  0
 29 27  1  0
M  END
$$$$
