RNQ.pdb
     RDKit          3D

 29 28  0  0  1  0  0  0  0  0999 V2000
   26.7574  -21.9791  -11.3367 N   0  0  0  0  0  0  0  0  0  0  0  0
   25.8662  -20.8938  -11.2918 C   0  0  0  0  0  0  0  0  0  0  0  0
   24.9347  -20.8582  -10.3734 N   0  0  0  0  0  0  0  0  0  0  0  0
   25.9593  -19.8272  -12.2356 N   0  0  0  0  0  0  0  0  0  0  0  0
   27.0328  -19.9675  -13.2326 C   0  0  0  0  0  0  0  0  0  0  0  0
   26.9834  -18.7484  -14.0748 C   0  0  0  0  0  0  0  0  0  0  0  0
   26.0749  -18.7761  -15.2615 C   0  0  0  0  0  0  0  0  0  0  0  0
   25.7235  -20.1312  -15.7113 C   0  0  2  0  0  0  0  0  0  0  0  0
   26.6815  -20.8694  -16.4407 N   0  0  0  0  0  0  0  0  0  0  0  0
   24.3380  -20.2742  -16.2631 C   0  0  0  0  0  0  0  0  0  0  0  0
   23.9527  -19.3997  -17.0551 O   0  0  0  0  0  0  0  0  0  0  0  0
   24.2371  -20.0749  -10.4247 N   0  0  0  0  0  0  0  0  0  0  0  0
   21.9807  -23.9157  -19.1353 C   0  0  0  0  0  0  0  0  0  0  0  0
   22.5445  -23.3942  -17.9401 O   0  0  0  0  0  0  0  0  0  0  0  0
   23.7947  -23.4066  -17.8806 C   0  0  0  0  0  0  0  0  0  0  0  0
   21.7437  -22.8660  -16.8316 C   0  0  2  0  0  0  0  0  0  0  0  0
   22.1294  -21.4993  -16.3930 N   0  0  0  0  0  0  0  0  0  0  0  0
   23.4719  -21.3225  -15.9306 C   0  0  0  0  0  0  0  0  0  0  0  0
   21.1010  -20.9114  -15.5205 O   0  0  0  0  0  0  0  0  0  0  0  0
   21.3351  -20.7852  -14.2983 N   0  0  0  0  0  0  0  0  0  0  0  0
   19.3216  -16.2175  -13.2125 C   0  0  0  0  0  0  0  0  0  0  0  0
   19.2667  -16.1907  -14.6470 O   0  0  0  0  0  0  0  0  0  0  0  0
   19.2260  -15.0496  -15.1713 C   0  0  0  0  0  0  0  0  0  0  0  0
   19.2591  -17.4202  -15.4480 C   0  0  0  0  0  0  0  0  0  0  0  0
   19.3338  -18.5885  -14.4914 C   0  0  1  0  0  0  0  0  0  0  0  0
   18.8461  -19.8849  -15.0630 N   0  0  0  0  0  0  0  0  0  0  0  0
   19.8379  -20.4685  -15.9686 C   0  0  0  0  0  0  0  0  0  0  0  0
   17.5571  -19.6072  -15.7508 O   0  0  0  0  0  0  0  0  0  0  0  0
   17.5262  -19.7372  -16.9982 O   0  0  0  0  0  0  0  0  0  0  0  0
  2  3  2  0
  2  1  1  0
  4  2  1  0
  5  4  1  0
  6  5  1  0
  7  6  1  0
  8  7  1  0
  8 10  1  0
  8  9  1  6
 10 17  1  0
 10 11  2  0
 13 12  1  0
 14 13  2  0
 15 13  1  0
 16 15  1  6
 17 16  1  0
 18 16  1  0
 18 19  2  0
 20 21  1  0
 21 22  2  0
 23 21  1  0
 23 24  1  0
 25 24  1  1
 25 26  1  0
 26 18  1  0
 27 25  1  0
 28 27  2  0
 29 27  1  0
M  END
$$$$
