RNQ.pdb
     RDKit          3D

 29 28  0  0  1  0  0  0  0  0999 V2000
   19.4941  -22.7014   -9.5802 N   0  0  0  0  0  0  0  0  0  0  0  0
   20.4267  -22.7628   -8.5311 C   0  0  0  0  0  0  0  0  0  0  0  0
   20.0552  -23.2134   -7.3600 N   0  0  0  0  0  0  0  0  0  0  0  0
   21.7760  -22.3387   -8.7215 N   0  0  0  0  0  0  0  0  0  0  0  0
   22.0707  -21.7702  -10.0468 C   0  0  0  0  0  0  0  0  0  0  0  0
   23.5056  -21.3976  -10.0323 C   0  0  0  0  0  0  0  0  0  0  0  0
   24.0701  -20.8104  -11.2856 C   0  0  0  0  0  0  0  0  0  0  0  0
   25.4944  -20.4578  -11.1896 C   0  0  2  0  0  0  0  0  0  0  0  0
   26.0842  -20.3768   -9.9088 N   0  0  0  0  0  0  0  0  0  0  0  0
   25.9349  -19.3544  -12.1020 C   0  0  0  0  0  0  0  0  0  0  0  0
   26.7863  -18.5650  -11.6634 O   0  0  0  0  0  0  0  0  0  0  0  0
   20.7880  -23.2676   -6.6098 N   0  0  0  0  0  0  0  0  0  0  0  0
   27.6160  -15.6941  -15.3690 C   0  0  0  0  0  0  0  0  0  0  0  0
   27.7814  -17.0964  -15.5253 O   0  0  0  0  0  0  0  0  0  0  0  0
   28.3127  -17.4630  -16.5976 C   0  0  0  0  0  0  0  0  0  0  0  0
   27.3706  -18.0766  -14.5155 C   0  0  1  0  0  0  0  0  0  0  0  0
   25.8992  -18.2185  -14.3613 N   0  0  0  0  0  0  0  0  0  0  0  0
   25.4381  -19.1706  -13.3979 C   0  0  0  0  0  0  0  0  0  0  0  0
   25.2336  -18.3038  -15.6706 O   0  0  0  0  0  0  0  0  0  0  0  0
   25.3975  -19.3246  -16.3746 N   0  0  0  0  0  0  0  0  0  0  0  0
   21.0619  -20.3871  -14.6936 C   0  0  0  0  0  0  0  0  0  0  0  0
   20.2458  -19.6078  -15.5813 O   0  0  0  0  0  0  0  0  0  0  0  0
   19.0641  -20.0078  -15.7303 C   0  0  0  0  0  0  0  0  0  0  0  0
   20.7619  -18.4191  -16.2699 C   0  0  0  0  0  0  0  0  0  0  0  0
   22.1669  -18.1751  -15.7679 C   0  0  1  0  0  0  0  0  0  0  0  0
   23.0928  -17.5882  -16.7895 N   0  0  0  0  0  0  0  0  0  0  0  0
   24.4040  -17.2956  -16.2070 C   0  0  0  0  0  0  0  0  0  0  0  0
   22.4372  -16.3678  -17.3302 O   0  0  0  0  0  0  0  0  0  0  0  0
   21.3453  -16.5142  -17.9304 O   0  0  0  0  0  0  0  0  0  0  0  0
  2  3  2  0
  2  1  1  0
  4  2  1  0
  5  4  1  0
  6  5  1  0
  7  6  1  0
  8  7  1  0
  8 10  1  0
  8  9  1  1
 10 17  1  0
 10 11  2  0
 13 12  1  0
 14 13  2  0
 15 13  1  0
 16 15  1  1
 17 16  1  0
 18 16  1  0
 18 19  2  0
 20 21  1  0
 21 22  2  0
 23 21  1  0
 23 24  1  0
 25 24  1  6
 25 26  1  0
 26 18  1  0
 27 25  1  0
 28 27  2  0
 29 27  1  0
M  END
$$$$
