RNQ.pdb
     RDKit          3D

 29 28  0  0  1  0  0  0  0  0999 V2000
   22.6389  -20.2455  -23.3585 N   0  0  0  0  0  0  0  0  0  0  0  0
   22.2176  -20.0471  -22.0329 C   0  0  0  0  0  0  0  0  0  0  0  0
   20.9562  -20.2071  -21.7234 N   0  0  0  0  0  0  0  0  0  0  0  0
   23.1452  -19.6708  -21.0156 N   0  0  0  0  0  0  0  0  0  0  0  0
   24.4652  -19.2391  -21.5029 C   0  0  0  0  0  0  0  0  0  0  0  0
   25.3226  -20.4485  -21.5147 C   0  0  0  0  0  0  0  0  0  0  0  0
   25.7525  -20.9922  -20.1904 C   0  0  0  0  0  0  0  0  0  0  0  0
   26.5143  -20.0364  -19.3728 C   0  0  2  0  0  0  0  0  0  0  0  0
   27.7683  -19.5925  -19.8471 N   0  0  0  0  0  0  0  0  0  0  0  0
   26.5194  -20.3260  -17.9029 C   0  0  0  0  0  0  0  0  0  0  0  0
   27.0362  -21.3944  -17.5397 O   0  0  0  0  0  0  0  0  0  0  0  0
   20.6788  -20.0325  -20.7258 N   0  0  0  0  0  0  0  0  0  0  0  0
   29.2960  -18.9629  -14.9147 C   0  0  0  0  0  0  0  0  0  0  0  0
   28.1330  -18.2439  -15.3003 O   0  0  0  0  0  0  0  0  0  0  0  0
   28.3151  -17.3230  -16.1282 C   0  0  0  0  0  0  0  0  0  0  0  0
   26.7927  -18.5373  -14.7840 C   0  0  2  0  0  0  0  0  0  0  0  0
   26.0739  -19.6111  -15.5184 N   0  0  0  0  0  0  0  0  0  0  0  0
   25.9749  -19.4695  -16.9387 C   0  0  0  0  0  0  0  0  0  0  0  0
   24.8097  -19.9572  -14.8499 O   0  0  0  0  0  0  0  0  0  0  0  0
   23.7723  -19.3196  -15.1356 N   0  0  0  0  0  0  0  0  0  0  0  0
   24.5390  -20.7299   -9.0057 C   0  0  0  0  0  0  0  0  0  0  0  0
   23.1392  -20.8702   -9.2925 O   0  0  0  0  0  0  0  0  0  0  0  0
   22.3738  -20.8657   -8.2961 C   0  0  0  0  0  0  0  0  0  0  0  0
   22.6367  -21.0098  -10.6642 C   0  0  0  0  0  0  0  0  0  0  0  0
   23.8275  -20.9571  -11.5940 C   0  0  1  0  0  0  0  0  0  0  0  0
   23.4838  -21.1102  -13.0444 N   0  0  0  0  0  0  0  0  0  0  0  0
   24.6752  -20.9793  -13.8857 C   0  0  0  0  0  0  0  0  0  0  0  0
   22.4578  -20.0827  -13.3659 O   0  0  0  0  0  0  0  0  0  0  0  0
   22.8406  -18.8919  -13.4622 O   0  0  0  0  0  0  0  0  0  0  0  0
  2  3  2  0
  2  1  1  0
  4  2  1  0
  5  4  1  0
  6  5  1  0
  7  6  1  0
  8  7  1  0
  8 10  1  0
  8  9  1  6
 10 17  1  0
 10 11  2  0
 13 12  1  0
 14 13  2  0
 15 13  1  0
 16 15  1  6
 17 16  1  0
 18 16  1  0
 18 19  2  0
 20 21  1  0
 21 22  2  0
 23 21  1  0
 23 24  1  0
 25 24  1  1
 25 26  1  0
 26 18  1  0
 27 25  1  0
 28 27  2  0
 29 27  1  0
M  END
$$$$
