RNQ.pdb
     RDKit          3D

 29 28  0  0  1  0  0  0  0  0999 V2000
   24.3404  -20.6397  -11.0853 N   0  0  0  0  0  0  0  0  0  0  0  0
   25.4735  -20.7984  -10.2698 C   0  0  0  0  0  0  0  0  0  0  0  0
   25.3261  -20.9439   -8.9776 N   0  0  0  0  0  0  0  0  0  0  0  0
   26.7866  -20.8016  -10.8289 N   0  0  0  0  0  0  0  0  0  0  0  0
   26.8642  -20.4006  -12.2429 C   0  0  0  0  0  0  0  0  0  0  0  0
   28.3049  -20.3730  -12.5913 C   0  0  0  0  0  0  0  0  0  0  0  0
   28.6696  -19.8475  -13.9422 C   0  0  0  0  0  0  0  0  0  0  0  0
   27.7887  -20.3171  -15.0219 C   0  0  2  0  0  0  0  0  0  0  0  0
   28.3254  -21.1797  -16.0031 N   0  0  0  0  0  0  0  0  0  0  0  0
   26.8857  -19.2710  -15.6004 C   0  0  0  0  0  0  0  0  0  0  0  0
   27.2670  -18.0922  -15.5261 O   0  0  0  0  0  0  0  0  0  0  0  0
   26.1954  -21.0901   -8.4069 N   0  0  0  0  0  0  0  0  0  0  0  0
   24.1565  -15.7582  -18.9381 C   0  0  0  0  0  0  0  0  0  0  0  0
   23.8341  -16.9915  -18.3111 O   0  0  0  0  0  0  0  0  0  0  0  0
   22.6213  -17.1699  -18.0581 C   0  0  0  0  0  0  0  0  0  0  0  0
   24.8312  -18.0112  -17.9718 C   0  0  1  0  0  0  0  0  0  0  0  0
   24.6693  -18.6008  -16.6171 N   0  0  0  0  0  0  0  0  0  0  0  0
   25.6541  -19.5527  -16.2034 C   0  0  0  0  0  0  0  0  0  0  0  0
   23.2786  -19.0204  -16.3833 O   0  0  0  0  0  0  0  0  0  0  0  0
   22.8801  -20.1075  -16.8563 N   0  0  0  0  0  0  0  0  0  0  0  0
   20.0208  -17.6564  -11.3910 C   0  0  0  0  0  0  0  0  0  0  0  0
   19.0553  -18.4563  -12.0905 O   0  0  0  0  0  0  0  0  0  0  0  0
   18.0108  -18.7363  -11.4507 C   0  0  0  0  0  0  0  0  0  0  0  0
   19.2768  -18.9166  -13.4662 C   0  0  0  0  0  0  0  0  0  0  0  0
   20.6572  -18.4619  -13.8826 C   0  0  1  0  0  0  0  0  0  0  0  0
   21.0158  -18.7990  -15.2979 N   0  0  0  0  0  0  0  0  0  0  0  0
   22.3357  -18.2702  -15.6481 C   0  0  0  0  0  0  0  0  0  0  0  0
   19.9441  -18.2466  -16.1686 O   0  0  0  0  0  0  0  0  0  0  0  0
   20.2227  -17.2385  -16.8616 O   0  0  0  0  0  0  0  0  0  0  0  0
  2  3  2  0
  2  1  1  0
  4  2  1  0
  5  4  1  0
  6  5  1  0
  7  6  1  0
  8  7  1  0
  8 10  1  0
  8  9  1  6
 10 17  1  0
 10 11  2  0
 13 12  1  0
 14 13  2  0
 15 13  1  0
 16 15  1  1
 17 16  1  0
 18 16  1  0
 18 19  2  0
 20 21  1  0
 21 22  2  0
 23 21  1  0
 23 24  1  0
 25 24  1  1
 25 26  1  0
 26 18  1  0
 27 25  1  0
 28 27  2  0
 29 27  1  0
M  END
$$$$
