RNQ.pdb
     RDKit          3D

 29 28  0  0  1  0  0  0  0  0999 V2000
   32.9454  -22.2234   -9.4514 N   0  0  0  0  0  0  0  0  0  0  0  0
   31.9989  -22.3867  -10.4768 C   0  0  0  0  0  0  0  0  0  0  0  0
   32.2609  -23.1871  -11.4784 N   0  0  0  0  0  0  0  0  0  0  0  0
   30.7535  -21.6904  -10.4450 N   0  0  0  0  0  0  0  0  0  0  0  0
   29.7480  -22.1648  -11.4094 C   0  0  0  0  0  0  0  0  0  0  0  0
   29.8425  -21.2689  -12.5868 C   0  0  0  0  0  0  0  0  0  0  0  0
   28.8391  -20.1655  -12.6861 C   0  0  0  0  0  0  0  0  0  0  0  0
   27.6010  -20.5469  -13.3817 C   0  0  2  0  0  0  0  0  0  0  0  0
   27.6976  -21.0877  -14.6828 N   0  0  0  0  0  0  0  0  0  0  0  0
   26.4715  -19.5729  -13.2406 C   0  0  0  0  0  0  0  0  0  0  0  0
   26.6807  -18.5616  -12.5523 O   0  0  0  0  0  0  0  0  0  0  0  0
   31.5378  -23.2636  -12.2361 N   0  0  0  0  0  0  0  0  0  0  0  0
   23.9993  -18.5470  -18.0235 C   0  0  0  0  0  0  0  0  0  0  0  0
   25.0732  -18.0751  -17.2221 O   0  0  0  0  0  0  0  0  0  0  0  0
   25.5213  -16.9468  -17.5266 C   0  0  0  0  0  0  0  0  0  0  0  0
   25.6409  -18.8331  -16.1030 C   0  0  2  0  0  0  0  0  0  0  0  0
   24.7027  -19.0507  -14.9709 N   0  0  0  0  0  0  0  0  0  0  0  0
   25.2142  -19.7478  -13.8310 C   0  0  0  0  0  0  0  0  0  0  0  0
   23.3980  -19.5354  -15.4480 O   0  0  0  0  0  0  0  0  0  0  0  0
   22.7788  -18.8752  -16.3113 N   0  0  0  0  0  0  0  0  0  0  0  0
   23.6934  -20.9309  -10.3044 C   0  0  0  0  0  0  0  0  0  0  0  0
   22.2746  -20.7161  -10.2548 O   0  0  0  0  0  0  0  0  0  0  0  0
   21.7253  -20.9460   -9.1485 C   0  0  0  0  0  0  0  0  0  0  0  0
   21.5163  -20.2566  -11.4241 C   0  0  0  0  0  0  0  0  0  0  0  0
   22.4514  -20.2787  -12.6118 C   0  0  2  0  0  0  0  0  0  0  0  0
   21.8109  -20.7215  -13.8920 N   0  0  0  0  0  0  0  0  0  0  0  0
   22.7756  -20.7179  -14.9936 C   0  0  0  0  0  0  0  0  0  0  0  0
   20.6647  -19.8099  -14.1507 O   0  0  0  0  0  0  0  0  0  0  0  0
   20.9078  -18.5818  -14.2310 O   0  0  0  0  0  0  0  0  0  0  0  0
  2  3  2  0
  2  1  1  0
  4  2  1  0
  5  4  1  0
  6  5  1  0
  7  6  1  0
  8  7  1  0
  8 10  1  0
  8  9  1  6
 10 17  1  0
 10 11  2  0
 13 12  1  0
 14 13  2  0
 15 13  1  0
 16 15  1  1
 17 16  1  0
 18 16  1  0
 18 19  2  0
 20 21  1  0
 21 22  2  0
 23 21  1  0
 23 24  1  0
 25 24  1  1
 25 26  1  0
 26 18  1  0
 27 25  1  0
 28 27  2  0
 29 27  1  0
M  END
$$$$
