RNQ.pdb
     RDKit          3D

 29 28  0  0  1  0  0  0  0  0999 V2000
   25.8666  -21.2891   -8.6592 N   0  0  0  0  0  0  0  0  0  0  0  0
   24.4797  -21.1602   -8.8442 C   0  0  0  0  0  0  0  0  0  0  0  0
   23.6598  -21.6101   -7.9289 N   0  0  0  0  0  0  0  0  0  0  0  0
   23.9489  -20.5466  -10.0183 N   0  0  0  0  0  0  0  0  0  0  0  0
   24.0262  -21.3643  -11.2396 C   0  0  0  0  0  0  0  0  0  0  0  0
   25.4684  -21.5346  -11.5382 C   0  0  0  0  0  0  0  0  0  0  0  0
   26.0414  -20.6949  -12.6340 C   0  0  0  0  0  0  0  0  0  0  0  0
   25.6488  -21.1272  -13.9835 C   0  0  2  0  0  0  0  0  0  0  0  0
   25.8570  -22.4760  -14.3468 N   0  0  0  0  0  0  0  0  0  0  0  0
   26.0004  -20.1698  -15.0808 C   0  0  0  0  0  0  0  0  0  0  0  0
   27.1170  -20.2996  -15.6070 O   0  0  0  0  0  0  0  0  0  0  0  0
   22.6331  -21.4498   -8.0808 N   0  0  0  0  0  0  0  0  0  0  0  0
   26.2839  -15.1567  -16.6378 C   0  0  0  0  0  0  0  0  0  0  0  0
   27.0407  -16.2706  -17.0903 O   0  0  0  0  0  0  0  0  0  0  0  0
   28.0374  -15.9974  -17.7965 C   0  0  0  0  0  0  0  0  0  0  0  0
   26.7059  -17.6608  -16.7672 C   0  0  2  0  0  0  0  0  0  0  0  0
   25.5265  -17.8165  -15.8763 N   0  0  0  0  0  0  0  0  0  0  0  0
   25.1496  -19.1523  -15.5286 C   0  0  0  0  0  0  0  0  0  0  0  0
   24.4120  -16.9628  -16.3163 O   0  0  0  0  0  0  0  0  0  0  0  0
   24.4749  -16.4021  -17.4327 N   0  0  0  0  0  0  0  0  0  0  0  0
   21.8066  -17.5120  -20.1580 C   0  0  0  0  0  0  0  0  0  0  0  0
   20.5857  -17.7946  -19.4573 O   0  0  0  0  0  0  0  0  0  0  0  0
   19.6059  -18.1176  -20.1744 C   0  0  0  0  0  0  0  0  0  0  0  0
   20.4910  -17.7110  -17.9952 C   0  0  0  0  0  0  0  0  0  0  0  0
   21.8506  -17.3068  -17.4723 C   0  0  2  0  0  0  0  0  0  0  0  0
   21.9246  -17.1812  -15.9810 N   0  0  0  0  0  0  0  0  0  0  0  0
   23.2481  -16.7213  -15.5552 C   0  0  0  0  0  0  0  0  0  0  0  0
   21.5847  -18.5110  -15.4084 O   0  0  0  0  0  0  0  0  0  0  0  0
   22.1586  -19.5150  -15.8947 O   0  0  0  0  0  0  0  0  0  0  0  0
  2  3  2  0
  2  1  1  0
  4  2  1  0
  5  4  1  0
  6  5  1  0
  7  6  1  0
  8  7  1  0
  8 10  1  0
  8  9  1  6
 10 17  1  0
 10 11  2  0
 13 12  1  0
 14 13  2  0
 15 13  1  0
 16 15  1  1
 17 16  1  0
 18 16  1  0
 18 19  2  0
 20 21  1  0
 21 22  2  0
 23 21  1  0
 23 24  1  0
 25 24  1  6
 25 26  1  0
 26 18  1  0
 27 25  1  0
 28 27  2  0
 29 27  1  0
M  END
$$$$
