RNQ.pdb
     RDKit          3D

 29 28  0  0  1  0  0  0  0  0999 V2000
   16.4018  -21.7883  -15.1126 N   0  0  0  0  0  0  0  0  0  0  0  0
   16.0154  -22.3297  -13.8749 C   0  0  0  0  0  0  0  0  0  0  0  0
   14.9524  -23.0897  -13.8041 N   0  0  0  0  0  0  0  0  0  0  0  0
   16.7642  -22.0620  -12.6898 N   0  0  0  0  0  0  0  0  0  0  0  0
   18.1497  -21.6185  -12.9134 C   0  0  0  0  0  0  0  0  0  0  0  0
   18.1058  -20.1393  -13.0036 C   0  0  0  0  0  0  0  0  0  0  0  0
   19.4084  -19.4284  -13.1827 C   0  0  0  0  0  0  0  0  0  0  0  0
   20.2465  -19.9820  -14.2566 C   0  0  2  0  0  0  0  0  0  0  0  0
   19.8654  -21.2077  -14.8457 N   0  0  0  0  0  0  0  0  0  0  0  0
   21.7225  -19.8869  -14.0185 C   0  0  0  0  0  0  0  0  0  0  0  0
   22.1682  -18.7823  -13.6697 O   0  0  0  0  0  0  0  0  0  0  0  0
   14.6721  -23.4389  -12.8542 N   0  0  0  0  0  0  0  0  0  0  0  0
   24.8519  -24.3229  -13.3926 C   0  0  0  0  0  0  0  0  0  0  0  0
   24.0841  -23.1920  -13.0053 O   0  0  0  0  0  0  0  0  0  0  0  0
   22.9013  -23.4290  -12.6713 C   0  0  0  0  0  0  0  0  0  0  0  0
   24.6123  -21.8247  -12.9842 C   0  0  1  0  0  0  0  0  0  0  0  0
   24.0283  -20.9256  -14.0136 N   0  0  0  0  0  0  0  0  0  0  0  0
   22.6069  -20.9611  -14.1731 C   0  0  0  0  0  0  0  0  0  0  0  0
   24.7858  -20.9974  -15.2729 O   0  0  0  0  0  0  0  0  0  0  0  0
   26.0208  -20.7998  -15.2558 N   0  0  0  0  0  0  0  0  0  0  0  0
   26.3281  -24.4247  -16.9174 C   0  0  0  0  0  0  0  0  0  0  0  0
   25.0643  -24.5213  -17.5920 O   0  0  0  0  0  0  0  0  0  0  0  0
   24.4282  -25.5896  -17.4110 C   0  0  0  0  0  0  0  0  0  0  0  0
   24.5501  -23.4387  -18.4388 C   0  0  0  0  0  0  0  0  0  0  0  0
   25.5168  -22.2809  -18.3362 C   0  0  1  0  0  0  0  0  0  0  0  0
   24.9149  -21.0226  -17.7889 N   0  0  0  0  0  0  0  0  0  0  0  0
   24.2104  -21.2784  -16.5308 C   0  0  0  0  0  0  0  0  0  0  0  0
   24.0098  -20.4750  -18.8342 O   0  0  0  0  0  0  0  0  0  0  0  0
   22.8029  -20.3166  -18.5306 O   0  0  0  0  0  0  0  0  0  0  0  0
  2  3  2  0
  2  1  1  0
  4  2  1  0
  5  4  1  0
  6  5  1  0
  7  6  1  0
  8  7  1  0
  8 10  1  0
  8  9  1  1
 10 17  1  0
 10 11  2  0
 13 12  1  0
 14 13  2  0
 15 13  1  0
 16 15  1  1
 17 16  1  0
 18 16  1  0
 18 19  2  0
 20 21  1  0
 21 22  2  0
 23 21  1  0
 23 24  1  0
 25 24  1  1
 25 26  1  0
 26 18  1  0
 27 25  1  0
 28 27  2  0
 29 27  1  0
M  END
$$$$
