RNQ.pdb
     RDKit          3D

 29 28  0  0  1  0  0  0  0  0999 V2000
   31.8939  -22.5208  -10.8143 N   0  0  0  0  0  0  0  0  0  0  0  0
   31.1682  -22.6029   -9.6139 C   0  0  0  0  0  0  0  0  0  0  0  0
   31.7946  -22.4961   -8.4699 N   0  0  0  0  0  0  0  0  0  0  0  0
   29.7552  -22.8036   -9.6218 N   0  0  0  0  0  0  0  0  0  0  0  0
   28.9862  -21.8001  -10.3755 C   0  0  0  0  0  0  0  0  0  0  0  0
   28.3582  -20.9117   -9.3684 C   0  0  0  0  0  0  0  0  0  0  0  0
   27.0237  -20.3311   -9.7094 C   0  0  0  0  0  0  0  0  0  0  0  0
   26.4034  -20.9240  -10.9035 C   0  0  2  0  0  0  0  0  0  0  0  0
   26.9297  -22.1344  -11.4063 N   0  0  0  0  0  0  0  0  0  0  0  0
   26.0567  -19.9481  -11.9859 C   0  0  0  0  0  0  0  0  0  0  0  0
   25.4797  -18.9046  -11.6416 O   0  0  0  0  0  0  0  0  0  0  0  0
   31.2221  -22.5990   -7.5956 N   0  0  0  0  0  0  0  0  0  0  0  0
   27.1973  -16.4159  -16.3250 C   0  0  0  0  0  0  0  0  0  0  0  0
   26.7566  -17.7641  -16.2443 O   0  0  0  0  0  0  0  0  0  0  0  0
   25.9937  -18.1405  -17.1625 C   0  0  0  0  0  0  0  0  0  0  0  0
   27.1526  -18.6815  -15.1716 C   0  0  1  0  0  0  0  0  0  0  0  0
   26.0152  -19.2789  -14.4243 N   0  0  0  0  0  0  0  0  0  0  0  0
   26.3411  -20.1548  -13.3409 C   0  0  0  0  0  0  0  0  0  0  0  0
   24.9909  -19.7995  -15.3432 O   0  0  0  0  0  0  0  0  0  0  0  0
   25.1429  -20.9330  -15.8497 N   0  0  0  0  0  0  0  0  0  0  0  0
   22.3054  -23.1073  -14.3862 C   0  0  0  0  0  0  0  0  0  0  0  0
   20.9999  -22.5502  -14.6025 O   0  0  0  0  0  0  0  0  0  0  0  0
   20.0737  -23.3804  -14.7800 C   0  0  0  0  0  0  0  0  0  0  0  0
   20.7649  -21.1017  -14.6147 C   0  0  0  0  0  0  0  0  0  0  0  0
   22.1133  -20.4202  -14.5615 C   0  0  1  0  0  0  0  0  0  0  0  0
   22.5221  -19.7623  -15.8442 N   0  0  0  0  0  0  0  0  0  0  0  0
   23.8205  -19.0992  -15.7067 C   0  0  0  0  0  0  0  0  0  0  0  0
   21.4438  -18.8071  -16.2137 O   0  0  0  0  0  0  0  0  0  0  0  0
   21.6324  -17.5934  -15.9587 O   0  0  0  0  0  0  0  0  0  0  0  0
  2  3  2  0
  2  1  1  0
  4  2  1  0
  5  4  1  0
  6  5  1  0
  7  6  1  0
  8  7  1  0
  8 10  1  0
  8  9  1  6
 10 17  1  0
 10 11  2  0
 13 12  1  0
 14 13  2  0
 15 13  1  0
 16 15  1  1
 17 16  1  0
 18 16  1  0
 18 19  2  0
 20 21  1  0
 21 22  2  0
 23 21  1  0
 23 24  1  0
 25 24  1  6
 25 26  1  0
 26 18  1  0
 27 25  1  0
 28 27  2  0
 29 27  1  0
M  END
$$$$
