RNQ.pdb
     RDKit          3D

 29 28  0  0  1  0  0  0  0  0999 V2000
   21.1340  -28.3028  -11.6839 N   0  0  0  0  0  0  0  0  0  0  0  0
   20.2971  -29.0408  -12.5378 C   0  0  0  0  0  0  0  0  0  0  0  0
   19.9199  -30.2454  -12.1927 N   0  0  0  0  0  0  0  0  0  0  0  0
   19.8518  -28.4973  -13.7801 N   0  0  0  0  0  0  0  0  0  0  0  0
   20.3730  -27.1582  -14.0985 C   0  0  0  0  0  0  0  0  0  0  0  0
   19.2974  -26.1980  -13.7532 C   0  0  0  0  0  0  0  0  0  0  0  0
   19.5655  -24.7510  -14.0155 C   0  0  0  0  0  0  0  0  0  0  0  0
   20.2696  -24.0674  -12.9204 C   0  0  2  0  0  0  0  0  0  0  0  0
   19.5936  -23.8854  -11.6938 N   0  0  0  0  0  0  0  0  0  0  0  0
   21.0593  -22.8628  -13.3320 C   0  0  0  0  0  0  0  0  0  0  0  0
   20.4442  -21.7887  -13.4236 O   0  0  0  0  0  0  0  0  0  0  0  0
   19.2628  -30.7484  -12.8391 N   0  0  0  0  0  0  0  0  0  0  0  0
   25.7703  -23.1635  -12.0190 C   0  0  0  0  0  0  0  0  0  0  0  0
   25.1345  -22.0133  -12.5585 O   0  0  0  0  0  0  0  0  0  0  0  0
   24.9698  -21.0617  -11.7622 C   0  0  0  0  0  0  0  0  0  0  0  0
   24.6908  -21.9133  -13.9521 C   0  0  2  0  0  0  0  0  0  0  0  0
   23.2180  -21.8076  -14.1210 N   0  0  0  0  0  0  0  0  0  0  0  0
   22.4293  -22.8905  -13.6185 C   0  0  0  0  0  0  0  0  0  0  0  0
   22.8690  -21.3797  -15.4847 O   0  0  0  0  0  0  0  0  0  0  0  0
   22.6168  -22.2455  -16.3515 N   0  0  0  0  0  0  0  0  0  0  0  0
   19.3295  -16.7934  -17.0854 C   0  0  0  0  0  0  0  0  0  0  0  0
   19.8299  -17.1236  -18.3900 O   0  0  0  0  0  0  0  0  0  0  0  0
   19.3311  -16.4789  -19.3462 C   0  0  0  0  0  0  0  0  0  0  0  0
   20.8595  -18.1497  -18.5912 C   0  0  0  0  0  0  0  0  0  0  0  0
   21.3003  -18.6274  -17.2263 C   0  0  1  0  0  0  0  0  0  0  0  0
   22.3932  -19.6521  -17.2556 N   0  0  0  0  0  0  0  0  0  0  0  0
   22.7963  -20.0327  -15.9003 C   0  0  0  0  0  0  0  0  0  0  0  0
   23.5217  -19.0721  -18.0315 O   0  0  0  0  0  0  0  0  0  0  0  0
   24.4847  -18.5947  -17.3845 O   0  0  0  0  0  0  0  0  0  0  0  0
  2  3  2  0
  2  1  1  0
  4  2  1  0
  5  4  1  0
  6  5  1  0
  7  6  1  0
  8  7  1  0
  8 10  1  0
  8  9  1  1
 10 17  1  0
 10 11  2  0
 13 12  1  0
 14 13  2  0
 15 13  1  0
 16 15  1  1
 17 16  1  0
 18 16  1  0
 18 19  2  0
 20 21  1  0
 21 22  2  0
 23 21  1  0
 23 24  1  0
 25 24  1  6
 25 26  1  0
 26 18  1  0
 27 25  1  0
 28 27  2  0
 29 27  1  0
M  END
$$$$
