RNQ.pdb
     RDKit          3D

 29 28  0  0  1  0  0  0  0  0999 V2000
   28.4201  -24.8164  -16.8803 N   0  0  0  0  0  0  0  0  0  0  0  0
   27.7330  -24.6098  -18.0883 C   0  0  0  0  0  0  0  0  0  0  0  0
   28.1181  -25.2403  -19.1684 N   0  0  0  0  0  0  0  0  0  0  0  0
   26.6198  -23.7193  -18.1574 N   0  0  0  0  0  0  0  0  0  0  0  0
   26.0181  -23.3701  -16.8604 C   0  0  0  0  0  0  0  0  0  0  0  0
   24.8717  -22.4782  -17.1579 C   0  0  0  0  0  0  0  0  0  0  0  0
   24.0544  -22.0088  -15.9977 C   0  0  0  0  0  0  0  0  0  0  0  0
   23.4382  -23.0967  -15.2239 C   0  0  2  0  0  0  0  0  0  0  0  0
   23.0652  -24.2787  -15.9011 N   0  0  0  0  0  0  0  0  0  0  0  0
   22.4180  -22.6576  -14.2186 C   0  0  0  0  0  0  0  0  0  0  0  0
   22.5059  -21.4937  -13.7964 O   0  0  0  0  0  0  0  0  0  0  0  0
   27.5401  -25.1086  -20.0352 N   0  0  0  0  0  0  0  0  0  0  0  0
   17.7523  -21.9494  -12.0566 C   0  0  0  0  0  0  0  0  0  0  0  0
   18.1345  -21.5982  -13.3791 O   0  0  0  0  0  0  0  0  0  0  0  0
   17.3632  -20.8135  -13.9756 C   0  0  0  0  0  0  0  0  0  0  0  0
   19.3474  -22.1014  -14.0308 C   0  0  2  0  0  0  0  0  0  0  0  0
   20.1343  -23.0572  -13.2084 N   0  0  0  0  0  0  0  0  0  0  0  0
   21.3940  -23.4820  -13.7373 C   0  0  0  0  0  0  0  0  0  0  0  0
   19.2853  -24.1477  -12.7036 O   0  0  0  0  0  0  0  0  0  0  0  0
   18.8766  -25.0226  -13.4985 N   0  0  0  0  0  0  0  0  0  0  0  0
   19.4259  -24.8454   -6.0854 C   0  0  0  0  0  0  0  0  0  0  0  0
   18.4917  -24.8420   -7.1756 O   0  0  0  0  0  0  0  0  0  0  0  0
   17.2772  -24.8733   -6.8550 C   0  0  0  0  0  0  0  0  0  0  0  0
   18.9303  -24.8041   -8.5755 C   0  0  0  0  0  0  0  0  0  0  0  0
   17.7833  -25.2995   -9.4266 C   0  0  2  0  0  0  0  0  0  0  0  0
   18.1094  -25.4323  -10.8830 N   0  0  0  0  0  0  0  0  0  0  0  0
   18.8859  -24.2847  -11.3567 C   0  0  0  0  0  0  0  0  0  0  0  0
   16.8214  -25.5744  -11.6128 O   0  0  0  0  0  0  0  0  0  0  0  0
   16.4903  -24.6466  -12.3897 O   0  0  0  0  0  0  0  0  0  0  0  0
  2  3  2  0
  2  1  1  0
  4  2  1  0
  5  4  1  0
  6  5  1  0
  7  6  1  0
  8  7  1  0
  8 10  1  0
  8  9  1  6
 10 17  1  0
 10 11  2  0
 13 12  1  0
 14 13  2  0
 15 13  1  0
 16 15  1  1
 17 16  1  0
 18 16  1  0
 18 19  2  0
 20 21  1  0
 21 22  2  0
 23 21  1  0
 23 24  1  0
 25 24  1  1
 25 26  1  0
 26 18  1  0
 27 25  1  0
 28 27  2  0
 29 27  1  0
M  END
$$$$
