QEQ.pdb
     RDKit          3D

 28 27  0  0  1  0  0  0  0  0999 V2000
   10.6445  -13.0369   19.0017 N   0  0  0  0  0  0  0  0  0  0  0  0
    9.6200  -12.7201   18.0512 C   0  0  0  0  0  0  0  0  0  0  0  0
    9.9339  -12.2250   16.9433 O   0  0  0  0  0  0  0  0  0  0  0  0
    8.1894  -12.9710   18.3624 C   0  0  0  0  0  0  0  0  0  0  0  0
    8.1000  -13.6450   19.7017 C   0  0  0  0  0  0  0  0  0  0  0  0
    8.3740  -15.1150   19.5686 C   0  0  2  0  0  0  0  0  0  0  0  0
    7.4018  -15.8122   18.7977 N   0  0  0  0  0  0  0  0  0  0  0  0
    8.5157  -15.7656   20.9249 C   0  0  0  0  0  0  0  0  0  0  0  0
    7.5496  -15.7608   21.7113 O   0  0  0  0  0  0  0  0  0  0  0  0
    9.7228  -16.3808   21.3209 N   0  0  0  0  0  0  0  0  0  0  0  0
   10.0922  -16.9464   22.5606 C   0  0  1  0  0  0  0  0  0  0  0  0
   11.2996  -17.8540   22.5834 C   0  0  0  0  0  0  0  0  0  0  0  0
   11.5831  -18.5238   23.8761 C   0  0  0  0  0  0  0  0  0  0  0  0
   12.8157  -19.3702   23.8251 C   0  0  0  0  0  0  0  0  0  0  0  0
   13.4795  -19.4100   22.7698 O   0  0  0  0  0  0  0  0  0  0  0  0
   10.1532  -16.0506   23.7184 C   0  0  0  0  0  0  0  0  0  0  0  0
   10.9703  -15.1076   23.6989 O   0  0  0  0  0  0  0  0  0  0  0  0
   13.2543  -20.1138   24.9006 O   0  0  0  0  0  0  0  0  0  0  0  0
    5.6157  -12.9467   25.6796 N   0  0  0  0  0  0  0  0  0  0  0  0
    6.5078  -12.6257   26.7402 C   0  0  0  0  0  0  0  0  0  0  0  0
    6.2679  -11.7075   27.5483 O   0  0  0  0  0  0  0  0  0  0  0  0
    7.7517  -13.4159   26.8681 C   0  0  0  0  0  0  0  0  0  0  0  0
    7.9150  -14.4731   25.8301 C   0  0  0  0  0  0  0  0  0  0  0  0
    9.2144  -15.1916   25.9183 C   0  0  2  0  0  0  0  0  0  0  0  0
    9.3220  -16.2093   24.8621 N   0  0  0  0  0  0  0  0  0  0  0  0
    9.4553  -15.7938   27.2407 C   0  0  0  0  0  0  0  0  0  0  0  0
    9.1755  -16.9840   27.4580 O   0  0  0  0  0  0  0  0  0  0  0  0
    9.9990  -15.0393   28.2672 O   0  0  0  0  0  0  0  0  0  0  0  0
  2  3  2  0
  2  1  1  0
  4  2  1  0
  5  4  1  0
  6  5  1  0
  6  7  1  1
  8  9  2  0
  8  6  1  0
 10  8  1  0
 11 10  1  0
 12 13  1  0
 11 12  1  6
 13 14  1  0
 14 15  2  0
 14 18  1  0
 16 11  1  0
 16 17  2  0
 20 19  1  0
 21 20  2  0
 22 20  1  0
 23 22  1  0
 24 25  1  0
 24 23  1  1
 25 16  1  0
 26 24  1  0
 27 26  2  0
 28 26  1  0
M  END
$$$$
