QEQ.pdb
     RDKit          3D

 28 27  0  0  1  0  0  0  0  0999 V2000
    7.6974  -12.1850   17.7577 N   0  0  0  0  0  0  0  0  0  0  0  0
    7.7534  -13.2681   16.8211 C   0  0  0  0  0  0  0  0  0  0  0  0
    7.7085  -13.0275   15.5918 O   0  0  0  0  0  0  0  0  0  0  0  0
    7.8641  -14.6736   17.2888 C   0  0  0  0  0  0  0  0  0  0  0  0
    7.8724  -14.6810   18.7907 C   0  0  0  0  0  0  0  0  0  0  0  0
    9.1584  -15.2593   19.3055 C   0  0  2  0  0  0  0  0  0  0  0  0
    9.6971  -16.2855   18.4795 N   0  0  0  0  0  0  0  0  0  0  0  0
    8.9968  -15.7702   20.7182 C   0  0  0  0  0  0  0  0  0  0  0  0
    8.4793  -15.0351   21.5806 O   0  0  0  0  0  0  0  0  0  0  0  0
    9.4205  -17.0664   21.0826 N   0  0  0  0  0  0  0  0  0  0  0  0
    9.3787  -17.7195   22.3336 C   0  0  1  0  0  0  0  0  0  0  0  0
    9.4982  -19.2254   22.3407 C   0  0  0  0  0  0  0  0  0  0  0  0
   10.6890  -19.7847   21.6555 C   0  0  0  0  0  0  0  0  0  0  0  0
   10.8338  -21.2584   21.8690 C   0  0  0  0  0  0  0  0  0  0  0  0
   11.7953  -21.8546   21.3438 O   0  0  0  0  0  0  0  0  0  0  0  0
   10.2148  -17.1747   23.4063 C   0  0  0  0  0  0  0  0  0  0  0  0
   11.4228  -16.9664   23.1720 O   0  0  0  0  0  0  0  0  0  0  0  0
    9.9453  -21.9927   22.6262 O   0  0  0  0  0  0  0  0  0  0  0  0
    8.4517  -13.3757   28.0584 N   0  0  0  0  0  0  0  0  0  0  0  0
    9.7791  -13.6880   28.4635 C   0  0  0  0  0  0  0  0  0  0  0  0
   10.3092  -13.1510   29.4556 O   0  0  0  0  0  0  0  0  0  0  0  0
   10.5352  -14.6803   27.6687 C   0  0  0  0  0  0  0  0  0  0  0  0
    9.7511  -15.3087   26.5678 C   0  0  0  0  0  0  0  0  0  0  0  0
   10.5374  -16.2825   25.7640 C   0  0  2  0  0  0  0  0  0  0  0  0
    9.7095  -16.8730   24.7015 N   0  0  0  0  0  0  0  0  0  0  0  0
   11.1593  -17.3393   26.5801 C   0  0  0  0  0  0  0  0  0  0  0  0
   12.2780  -17.1716   27.0924 O   0  0  0  0  0  0  0  0  0  0  0  0
   10.5045  -18.5418   26.7892 O   0  0  0  0  0  0  0  0  0  0  0  0
  2  3  2  0
  2  1  1  0
  4  2  1  0
  5  4  1  0
  6  5  1  0
  6  7  1  6
  8  9  2  0
  8  6  1  0
 10  8  1  0
 11 10  1  0
 12 13  1  0
 11 12  1  6
 13 14  1  0
 14 15  2  0
 14 18  1  0
 16 11  1  0
 16 17  2  0
 20 19  1  0
 21 20  2  0
 22 20  1  0
 23 22  1  0
 24 25  1  0
 24 23  1  1
 25 16  1  0
 26 24  1  0
 27 26  2  0
 28 26  1  0
M  END
$$$$
