QEQ.pdb
     RDKit          3D

 28 27  0  0  1  0  0  0  0  0999 V2000
    8.0756  -12.6609   17.6859 N   0  0  0  0  0  0  0  0  0  0  0  0
    7.8486  -13.9184   17.0375 C   0  0  0  0  0  0  0  0  0  0  0  0
    8.0096  -14.0149   15.7983 O   0  0  0  0  0  0  0  0  0  0  0  0
    7.4243  -15.1102   17.8160 C   0  0  0  0  0  0  0  0  0  0  0  0
    7.2911  -14.7186   19.2599 C   0  0  0  0  0  0  0  0  0  0  0  0
    8.6449  -14.5117   19.8745 C   0  0  2  0  0  0  0  0  0  0  0  0
    9.7246  -14.8436   19.0088 N   0  0  0  0  0  0  0  0  0  0  0  0
    8.7745  -15.2752   21.1718 C   0  0  0  0  0  0  0  0  0  0  0  0
    7.8229  -15.2842   21.9757 O   0  0  0  0  0  0  0  0  0  0  0  0
    9.9540  -15.9808   21.4931 N   0  0  0  0  0  0  0  0  0  0  0  0
   10.3196  -16.6492   22.6817 C   0  0  1  0  0  0  0  0  0  0  0  0
   11.5171  -17.5685   22.6273 C   0  0  0  0  0  0  0  0  0  0  0  0
   11.3612  -18.7880   21.7974 C   0  0  0  0  0  0  0  0  0  0  0  0
   12.6172  -19.5979   21.7269 C   0  0  0  0  0  0  0  0  0  0  0  0
   13.1385  -19.8110   20.6140 O   0  0  0  0  0  0  0  0  0  0  0  0
   10.3927  -15.8511   23.9083 C   0  0  0  0  0  0  0  0  0  0  0  0
   11.1435  -14.8544   23.9260 O   0  0  0  0  0  0  0  0  0  0  0  0
   13.2291  -20.1232   22.8457 O   0  0  0  0  0  0  0  0  0  0  0  0
    5.8279  -12.9176   25.2707 N   0  0  0  0  0  0  0  0  0  0  0  0
    6.5654  -12.5607   26.4335 C   0  0  0  0  0  0  0  0  0  0  0  0
    6.2481  -11.5855   27.1420 O   0  0  0  0  0  0  0  0  0  0  0  0
    7.7412  -13.3832   26.7929 C   0  0  0  0  0  0  0  0  0  0  0  0
    8.1145  -14.3987   25.7677 C   0  0  0  0  0  0  0  0  0  0  0  0
    9.3379  -15.1690   26.1176 C   0  0  2  0  0  0  0  0  0  0  0  0
    9.6454  -16.1629   25.0780 N   0  0  0  0  0  0  0  0  0  0  0  0
    9.2588  -15.8136   27.4396 C   0  0  0  0  0  0  0  0  0  0  0  0
    8.9763  -17.0184   27.5437 O   0  0  0  0  0  0  0  0  0  0  0  0
    9.4981  -15.0836   28.5921 O   0  0  0  0  0  0  0  0  0  0  0  0
  2  3  2  0
  2  1  1  0
  4  2  1  0
  5  4  1  0
  6  5  1  0
  6  7  1  6
  8  9  2  0
  8  6  1  0
 10  8  1  0
 11 10  1  0
 12 13  1  0
 11 12  1  6
 13 14  1  0
 14 15  2  0
 14 18  1  0
 16 11  1  0
 16 17  2  0
 20 19  1  0
 21 20  2  0
 22 20  1  0
 23 22  1  0
 24 25  1  0
 24 23  1  6
 25 16  1  0
 26 24  1  0
 27 26  2  0
 28 26  1  0
M  END
$$$$
