QEQ.pdb
     RDKit          3D

 28 27  0  0  1  0  0  0  0  0999 V2000
    9.1981  -11.8531   18.5684 N   0  0  0  0  0  0  0  0  0  0  0  0
    8.3903  -13.0220   18.3829 C   0  0  0  0  0  0  0  0  0  0  0  0
    8.5763  -13.7515   17.3808 O   0  0  0  0  0  0  0  0  0  0  0  0
    7.3340  -13.3804   19.3638 C   0  0  0  0  0  0  0  0  0  0  0  0
    7.9675  -14.1336   20.4984 C   0  0  0  0  0  0  0  0  0  0  0  0
    8.2201  -15.5601   20.1050 C   0  0  2  0  0  0  0  0  0  0  0  0
    7.0394  -16.2801   19.7689 N   0  0  0  0  0  0  0  0  0  0  0  0
    8.9788  -16.2949   21.1854 C   0  0  0  0  0  0  0  0  0  0  0  0
    8.3511  -16.8368   22.1150 O   0  0  0  0  0  0  0  0  0  0  0  0
   10.3875  -16.3810   21.1636 N   0  0  0  0  0  0  0  0  0  0  0  0
   11.2715  -17.0581   22.0316 C   0  0  1  0  0  0  0  0  0  0  0  0
   12.5349  -17.6322   21.4346 C   0  0  0  0  0  0  0  0  0  0  0  0
   12.4178  -18.9920   20.8537 C   0  0  0  0  0  0  0  0  0  0  0  0
   13.7325  -19.7032   20.7896 C   0  0  0  0  0  0  0  0  0  0  0  0
   13.8108  -20.8708   21.2214 O   0  0  0  0  0  0  0  0  0  0  0  0
   11.6038  -16.4036   23.2996 C   0  0  0  0  0  0  0  0  0  0  0  0
   12.3511  -15.4044   23.2759 O   0  0  0  0  0  0  0  0  0  0  0  0
   14.8701  -19.1215   20.2706 O   0  0  0  0  0  0  0  0  0  0  0  0
    8.0543  -14.5111   27.7481 N   0  0  0  0  0  0  0  0  0  0  0  0
    9.2947  -14.4329   28.4401 C   0  0  0  0  0  0  0  0  0  0  0  0
    9.3849  -13.9303   29.5771 O   0  0  0  0  0  0  0  0  0  0  0  0
   10.5008  -14.9678   27.7712 C   0  0  0  0  0  0  0  0  0  0  0  0
   10.2396  -15.5861   26.4404 C   0  0  0  0  0  0  0  0  0  0  0  0
   11.4471  -16.2023   25.8282 C   0  0  2  0  0  0  0  0  0  0  0  0
   11.1116  -16.8574   24.5550 N   0  0  0  0  0  0  0  0  0  0  0  0
   12.1360  -17.1444   26.7268 C   0  0  0  0  0  0  0  0  0  0  0  0
   11.7659  -18.3266   26.8134 O   0  0  0  0  0  0  0  0  0  0  0  0
   13.2110  -16.7253   27.4930 O   0  0  0  0  0  0  0  0  0  0  0  0
  2  3  2  0
  2  1  1  0
  4  2  1  0
  5  4  1  0
  6  5  1  0
  6  7  1  1
  8  9  2  0
  8  6  1  0
 10  8  1  0
 11 10  1  0
 12 13  1  0
 11 12  1  6
 13 14  1  0
 14 15  2  0
 14 18  1  0
 16 11  1  0
 16 17  2  0
 20 19  1  0
 21 20  2  0
 22 20  1  0
 23 22  1  0
 24 25  1  0
 24 23  1  1
 25 16  1  0
 26 24  1  0
 27 26  2  0
 28 26  1  0
M  END
$$$$
