QEQ.pdb
     RDKit          3D

 28 27  0  0  1  0  0  0  0  0999 V2000
   12.0245  -19.7824   14.7156 N   0  0  0  0  0  0  0  0  0  0  0  0
   11.6050  -18.7225   13.8473 C   0  0  0  0  0  0  0  0  0  0  0  0
   11.9468  -18.7370   12.6415 O   0  0  0  0  0  0  0  0  0  0  0  0
   10.7696  -17.6057   14.3585 C   0  0  0  0  0  0  0  0  0  0  0  0
   10.4846  -17.8457   15.8135 C   0  0  0  0  0  0  0  0  0  0  0  0
    9.4142  -18.8859   15.9738 C   0  0  2  0  0  0  0  0  0  0  0  0
    8.1102  -18.4231   15.6406 N   0  0  0  0  0  0  0  0  0  0  0  0
    9.4145  -19.4538   17.3740 C   0  0  0  0  0  0  0  0  0  0  0  0
    9.1250  -18.7159   18.3350 O   0  0  0  0  0  0  0  0  0  0  0  0
    9.7365  -20.8064   17.6169 N   0  0  0  0  0  0  0  0  0  0  0  0
    9.7946  -21.5242   18.8313 C   0  0  1  0  0  0  0  0  0  0  0  0
    9.4686  -22.9987   18.7885 C   0  0  0  0  0  0  0  0  0  0  0  0
    9.3119  -23.6666   20.1036 C   0  0  0  0  0  0  0  0  0  0  0  0
    8.9882  -25.1214   19.9728 C   0  0  0  0  0  0  0  0  0  0  0  0
    8.9511  -25.8280   21.0000 O   0  0  0  0  0  0  0  0  0  0  0  0
   10.9759  -21.3264   19.6751 C   0  0  0  0  0  0  0  0  0  0  0  0
   12.0999  -21.3175   19.1330 O   0  0  0  0  0  0  0  0  0  0  0  0
    8.7268  -25.7206   18.7584 O   0  0  0  0  0  0  0  0  0  0  0  0
   10.8646  -21.5097   25.9711 N   0  0  0  0  0  0  0  0  0  0  0  0
   10.7975  -20.1903   25.4435 C   0  0  0  0  0  0  0  0  0  0  0  0
   10.3978  -19.2269   26.1260 O   0  0  0  0  0  0  0  0  0  0  0  0
   11.2169  -19.9782   24.0409 C   0  0  0  0  0  0  0  0  0  0  0  0
   11.7415  -21.2000   23.3673 C   0  0  0  0  0  0  0  0  0  0  0  0
   12.0846  -20.9842   21.9362 C   0  0  2  0  0  0  0  0  0  0  0  0
   10.8968  -21.1438   21.0838 N   0  0  0  0  0  0  0  0  0  0  0  0
   13.1776  -21.8518   21.4648 C   0  0  0  0  0  0  0  0  0  0  0  0
   12.9888  -23.0637   21.2707 O   0  0  0  0  0  0  0  0  0  0  0  0
   14.4383  -21.3282   21.2304 O   0  0  0  0  0  0  0  0  0  0  0  0
  2  3  2  0
  2  1  1  0
  4  2  1  0
  5  4  1  0
  6  5  1  0
  6  7  1  1
  8  9  2  0
  8  6  1  0
 10  8  1  0
 11 10  1  0
 12 13  1  0
 11 12  1  6
 13 14  1  0
 14 15  2  0
 14 18  1  0
 16 11  1  0
 16 17  2  0
 20 19  1  0
 21 20  2  0
 22 20  1  0
 23 22  1  0
 24 25  1  0
 24 23  1  1
 25 16  1  0
 26 24  1  0
 27 26  2  0
 28 26  1  0
M  END
$$$$
