QEQ.pdb
     RDKit          3D

 28 27  0  0  1  0  0  0  0  0999 V2000
    8.5092  -12.1189   18.2738 N   0  0  0  0  0  0  0  0  0  0  0  0
    8.0361  -13.3863   17.8013 C   0  0  0  0  0  0  0  0  0  0  0  0
    8.5897  -13.9261   16.8148 O   0  0  0  0  0  0  0  0  0  0  0  0
    6.8968  -14.0692   18.4663 C   0  0  0  0  0  0  0  0  0  0  0  0
    7.2600  -14.3232   19.9013 C   0  0  0  0  0  0  0  0  0  0  0  0
    8.6792  -14.8010   20.0067 C   0  0  2  0  0  0  0  0  0  0  0  0
    9.0203  -15.8004   19.0525 N   0  0  0  0  0  0  0  0  0  0  0  0
    8.9824  -15.2983   21.4008 C   0  0  0  0  0  0  0  0  0  0  0  0
    8.4913  -14.7091   22.3824 O   0  0  0  0  0  0  0  0  0  0  0  0
    9.8124  -16.4197   21.6153 N   0  0  0  0  0  0  0  0  0  0  0  0
   10.1798  -17.0636   22.8169 C   0  0  1  0  0  0  0  0  0  0  0  0
   11.2932  -18.0824   22.7523 C   0  0  0  0  0  0  0  0  0  0  0  0
   11.6453  -18.7404   24.0342 C   0  0  0  0  0  0  0  0  0  0  0  0
   12.7906  -19.6928   23.8942 C   0  0  0  0  0  0  0  0  0  0  0  0
   13.9238  -19.2424   23.6317 O   0  0  0  0  0  0  0  0  0  0  0  0
   10.3788  -16.2213   23.9991 C   0  0  0  0  0  0  0  0  0  0  0  0
   11.3768  -15.4729   24.0355 O   0  0  0  0  0  0  0  0  0  0  0  0
   12.6487  -21.0564   24.0436 O   0  0  0  0  0  0  0  0  0  0  0  0
    6.0776  -12.7486   26.2950 N   0  0  0  0  0  0  0  0  0  0  0  0
    7.1315  -12.4253   27.1940 C   0  0  0  0  0  0  0  0  0  0  0  0
    7.0596  -11.4543   27.9723 O   0  0  0  0  0  0  0  0  0  0  0  0
    8.3400  -13.2784   27.1870 C   0  0  0  0  0  0  0  0  0  0  0  0
    8.3500  -14.3173   26.1182 C   0  0  0  0  0  0  0  0  0  0  0  0
    9.5380  -15.2105   26.1740 C   0  0  2  0  0  0  0  0  0  0  0  0
    9.4843  -16.2196   25.1054 N   0  0  0  0  0  0  0  0  0  0  0  0
    9.7159  -15.8574   27.4852 C   0  0  0  0  0  0  0  0  0  0  0  0
    9.3971  -17.0453   27.6567 O   0  0  0  0  0  0  0  0  0  0  0  0
   10.2427  -15.1485   28.5522 O   0  0  0  0  0  0  0  0  0  0  0  0
  2  3  2  0
  2  1  1  0
  4  2  1  0
  5  4  1  0
  6  5  1  0
  6  7  1  6
  8  9  2  0
  8  6  1  0
 10  8  1  0
 11 10  1  0
 12 13  1  0
 11 12  1  6
 13 14  1  0
 14 15  2  0
 14 18  1  0
 16 11  1  0
 16 17  2  0
 20 19  1  0
 21 20  2  0
 22 20  1  0
 23 22  1  0
 24 25  1  0
 24 23  1  1
 25 16  1  0
 26 24  1  0
 27 26  2  0
 28 26  1  0
M  END
$$$$
