QEQ.pdb
     RDKit          3D

 28 27  0  0  1  0  0  0  0  0999 V2000
    8.4341  -13.2513   16.9210 N   0  0  0  0  0  0  0  0  0  0  0  0
    7.6357  -14.4412   16.9347 C   0  0  0  0  0  0  0  0  0  0  0  0
    7.4182  -15.0541   15.8633 O   0  0  0  0  0  0  0  0  0  0  0  0
    7.0619  -14.9578   18.2037 C   0  0  0  0  0  0  0  0  0  0  0  0
    7.1421  -13.8762   19.2428 C   0  0  0  0  0  0  0  0  0  0  0  0
    8.4797  -13.9010   19.9238 C   0  0  2  0  0  0  0  0  0  0  0  0
    9.5517  -14.2820   19.0686 N   0  0  0  0  0  0  0  0  0  0  0  0
    8.4525  -14.7952   21.1414 C   0  0  0  0  0  0  0  0  0  0  0  0
    7.4353  -14.8217   21.8600 O   0  0  0  0  0  0  0  0  0  0  0  0
    9.5580  -15.6037   21.4827 N   0  0  0  0  0  0  0  0  0  0  0  0
    9.8297  -16.3208   22.6681 C   0  0  1  0  0  0  0  0  0  0  0  0
   10.8584  -17.4248   22.5975 C   0  0  0  0  0  0  0  0  0  0  0  0
   10.5000  -18.5923   21.7558 C   0  0  0  0  0  0  0  0  0  0  0  0
   11.6611  -19.1071   20.9651 C   0  0  0  0  0  0  0  0  0  0  0  0
   12.4232  -19.9465   21.4852 O   0  0  0  0  0  0  0  0  0  0  0  0
   10.0548  -15.5433   23.8893 C   0  0  0  0  0  0  0  0  0  0  0  0
   10.5018  -14.3830   23.7824 O   0  0  0  0  0  0  0  0  0  0  0  0
   11.9286  -18.6920   19.6774 O   0  0  0  0  0  0  0  0  0  0  0  0
    7.1231  -11.2211   26.2039 N   0  0  0  0  0  0  0  0  0  0  0  0
    6.8025  -12.4733   26.7980 C   0  0  0  0  0  0  0  0  0  0  0  0
    5.6268  -12.8018   27.0499 O   0  0  0  0  0  0  0  0  0  0  0  0
    7.9125  -13.3965   27.1201 C   0  0  0  0  0  0  0  0  0  0  0  0
    8.3254  -14.2757   25.9895 C   0  0  0  0  0  0  0  0  0  0  0  0
    9.4475  -15.1901   26.3317 C   0  0  2  0  0  0  0  0  0  0  0  0
    9.7857  -16.0532   25.1900 N   0  0  0  0  0  0  0  0  0  0  0  0
    9.1877  -16.0024   27.5327 C   0  0  0  0  0  0  0  0  0  0  0  0
    8.7471  -17.1593   27.4348 O   0  0  0  0  0  0  0  0  0  0  0  0
    9.4308  -15.4869   28.7951 O   0  0  0  0  0  0  0  0  0  0  0  0
  2  3  2  0
  2  1  1  0
  4  2  1  0
  5  4  1  0
  6  5  1  0
  6  7  1  6
  8  9  2  0
  8  6  1  0
 10  8  1  0
 11 10  1  0
 12 13  1  0
 11 12  1  6
 13 14  1  0
 14 15  2  0
 14 18  1  0
 16 11  1  0
 16 17  2  0
 20 19  1  0
 21 20  2  0
 22 20  1  0
 23 22  1  0
 24 25  1  0
 24 23  1  6
 25 16  1  0
 26 24  1  0
 27 26  2  0
 28 26  1  0
M  END
$$$$
