QEQ.pdb
     RDKit          3D

 28 27  0  0  1  0  0  0  0  0999 V2000
    9.2514  -13.2702   17.2795 N   0  0  0  0  0  0  0  0  0  0  0  0
    9.6660  -13.1828   18.6484 C   0  0  0  0  0  0  0  0  0  0  0  0
   10.8676  -12.9504   18.9186 O   0  0  0  0  0  0  0  0  0  0  0  0
    8.6889  -13.3647   19.7524 C   0  0  0  0  0  0  0  0  0  0  0  0
    7.5221  -14.1569   19.2358 C   0  0  0  0  0  0  0  0  0  0  0  0
    7.8415  -15.6236   19.2381 C   0  0  2  0  0  0  0  0  0  0  0  0
    6.8455  -16.4285   18.6170 N   0  0  0  0  0  0  0  0  0  0  0  0
    8.1008  -16.1205   20.6412 C   0  0  0  0  0  0  0  0  0  0  0  0
    7.1466  -16.2529   21.4309 O   0  0  0  0  0  0  0  0  0  0  0  0
    9.4049  -16.4391   21.0774 N   0  0  0  0  0  0  0  0  0  0  0  0
    9.8471  -16.9849   22.3020 C   0  0  1  0  0  0  0  0  0  0  0  0
   11.0950  -17.8359   22.2785 C   0  0  0  0  0  0  0  0  0  0  0  0
   11.1297  -18.9079   21.2539 C   0  0  0  0  0  0  0  0  0  0  0  0
   12.4671  -19.0273   20.5941 C   0  0  0  0  0  0  0  0  0  0  0  0
   12.5241  -19.1020   19.3503 O   0  0  0  0  0  0  0  0  0  0  0  0
    9.9111  -16.0852   23.4566 C   0  0  0  0  0  0  0  0  0  0  0  0
   10.5944  -15.0450   23.3635 O   0  0  0  0  0  0  0  0  0  0  0  0
   13.6487  -19.0587   21.3048 O   0  0  0  0  0  0  0  0  0  0  0  0
    5.4754  -13.2175   25.7827 N   0  0  0  0  0  0  0  0  0  0  0  0
    6.4811  -12.7835   26.6903 C   0  0  0  0  0  0  0  0  0  0  0  0
    6.3023  -11.8203   27.4611 O   0  0  0  0  0  0  0  0  0  0  0  0
    7.7700  -13.5091   26.7016 C   0  0  0  0  0  0  0  0  0  0  0  0
    7.8563  -14.6196   25.7110 C   0  0  0  0  0  0  0  0  0  0  0  0
    9.1426  -15.3643   25.7693 C   0  0  2  0  0  0  0  0  0  0  0  0
    9.2286  -16.3457   24.6774 N   0  0  0  0  0  0  0  0  0  0  0  0
    9.3760  -16.0173   27.0688 C   0  0  0  0  0  0  0  0  0  0  0  0
    9.1380  -17.2260   27.2249 O   0  0  0  0  0  0  0  0  0  0  0  0
    9.8657  -15.2909   28.1416 O   0  0  0  0  0  0  0  0  0  0  0  0
  2  3  2  0
  2  1  1  0
  4  2  1  0
  5  4  1  0
  6  5  1  0
  6  7  1  1
  8  9  2  0
  8  6  1  0
 10  8  1  0
 11 10  1  0
 12 13  1  0
 11 12  1  6
 13 14  1  0
 14 15  2  0
 14 18  1  0
 16 11  1  0
 16 17  2  0
 20 19  1  0
 21 20  2  0
 22 20  1  0
 23 22  1  0
 24 25  1  0
 24 23  1  1
 25 16  1  0
 26 24  1  0
 27 26  2  0
 28 26  1  0
M  END
$$$$
