QEQ.pdb
     RDKit          3D

 28 27  0  0  1  0  0  0  0  0999 V2000
    9.0662  -11.7678   18.9821 N   0  0  0  0  0  0  0  0  0  0  0  0
    8.3357  -12.8832   18.4570 C   0  0  0  0  0  0  0  0  0  0  0  0
    8.0807  -12.9353   17.2310 O   0  0  0  0  0  0  0  0  0  0  0  0
    7.8763  -13.9793   19.3481 C   0  0  0  0  0  0  0  0  0  0  0  0
    7.6274  -15.2037   18.5146 C   0  0  0  0  0  0  0  0  0  0  0  0
    8.9269  -15.8462   18.1248 C   0  0  2  0  0  0  0  0  0  0  0  0
    8.7714  -17.0447   17.3730 N   0  0  0  0  0  0  0  0  0  0  0  0
    9.7874  -16.1101   19.3383 C   0  0  0  0  0  0  0  0  0  0  0  0
    9.3798  -16.8883   20.2216 O   0  0  0  0  0  0  0  0  0  0  0  0
   11.0470  -15.4922   19.4929 N   0  0  0  0  0  0  0  0  0  0  0  0
   12.0598  -15.7171   20.4505 C   0  0  1  0  0  0  0  0  0  0  0  0
   13.3852  -15.0227   20.2431 C   0  0  0  0  0  0  0  0  0  0  0  0
   14.4328  -15.3097   21.2533 C   0  0  0  0  0  0  0  0  0  0  0  0
   15.7098  -14.5806   20.9779 C   0  0  0  0  0  0  0  0  0  0  0  0
   16.3371  -14.0771   21.9312 O   0  0  0  0  0  0  0  0  0  0  0  0
   11.6868  -15.6100   21.8634 C   0  0  0  0  0  0  0  0  0  0  0  0
   11.6270  -14.4750   22.3788 O   0  0  0  0  0  0  0  0  0  0  0  0
   16.2285  -14.4392   19.7079 O   0  0  0  0  0  0  0  0  0  0  0  0
    7.1347  -18.4738   24.6660 N   0  0  0  0  0  0  0  0  0  0  0  0
    7.7262  -17.8269   25.7863 C   0  0  0  0  0  0  0  0  0  0  0  0
    7.1543  -17.7696   26.8923 O   0  0  0  0  0  0  0  0  0  0  0  0
    9.0587  -17.2089   25.6110 C   0  0  0  0  0  0  0  0  0  0  0  0
    9.5807  -17.2646   24.2159 C   0  0  0  0  0  0  0  0  0  0  0  0
   10.9174  -16.6309   24.0598 C   0  0  2  0  0  0  0  0  0  0  0  0
   11.3901  -16.7425   22.6717 N   0  0  0  0  0  0  0  0  0  0  0  0
   11.9248  -17.1655   24.9919 C   0  0  0  0  0  0  0  0  0  0  0  0
   12.4208  -18.2902   24.8156 O   0  0  0  0  0  0  0  0  0  0  0  0
   12.3360  -16.4200   26.0845 O   0  0  0  0  0  0  0  0  0  0  0  0
  2  3  2  0
  2  1  1  0
  4  2  1  0
  5  4  1  0
  6  5  1  0
  6  7  1  1
  8  9  2  0
  8  6  1  0
 10  8  1  0
 11 10  1  0
 12 13  1  0
 11 12  1  6
 13 14  1  0
 14 15  2  0
 14 18  1  0
 16 11  1  0
 16 17  2  0
 20 19  1  0
 21 20  2  0
 22 20  1  0
 23 22  1  0
 24 25  1  0
 24 23  1  6
 25 16  1  0
 26 24  1  0
 27 26  2  0
 28 26  1  0
M  END
$$$$
