QEQ.pdb
     RDKit          3D

 28 27  0  0  1  0  0  0  0  0999 V2000
    8.0665  -13.3795   16.0827 N   0  0  0  0  0  0  0  0  0  0  0  0
    7.6780  -14.6919   16.5071 C   0  0  0  0  0  0  0  0  0  0  0  0
    7.5617  -15.6083   15.6599 O   0  0  0  0  0  0  0  0  0  0  0  0
    7.4110  -14.9804   17.9395 C   0  0  0  0  0  0  0  0  0  0  0  0
    7.2892  -13.6780   18.6775 C   0  0  0  0  0  0  0  0  0  0  0  0
    8.4753  -13.4697   19.5736 C   0  0  2  0  0  0  0  0  0  0  0  0
    9.7250  -13.5363   18.8958 N   0  0  0  0  0  0  0  0  0  0  0  0
    8.4638  -14.4476   20.7253 C   0  0  0  0  0  0  0  0  0  0  0  0
    7.4189  -14.6061   21.3847 O   0  0  0  0  0  0  0  0  0  0  0  0
    9.6151  -15.1876   21.0708 N   0  0  0  0  0  0  0  0  0  0  0  0
    9.8254  -16.1052   22.1230 C   0  0  1  0  0  0  0  0  0  0  0  0
   10.7032  -17.3021   21.8422 C   0  0  0  0  0  0  0  0  0  0  0  0
   10.2703  -18.1760   20.7246 C   0  0  0  0  0  0  0  0  0  0  0  0
   11.1850  -19.3423   20.5213 C   0  0  0  0  0  0  0  0  0  0  0  0
   12.4060  -19.1354   20.3725 O   0  0  0  0  0  0  0  0  0  0  0  0
   10.1804  -15.5568   23.4344 C   0  0  0  0  0  0  0  0  0  0  0  0
   10.9273  -14.5580   23.4795 O   0  0  0  0  0  0  0  0  0  0  0  0
   10.7354  -20.6458   20.4910 O   0  0  0  0  0  0  0  0  0  0  0  0
    6.4842  -12.3086   25.0701 N   0  0  0  0  0  0  0  0  0  0  0  0
    6.9781  -12.4000   26.4010 C   0  0  0  0  0  0  0  0  0  0  0  0
    6.5901  -11.6316   27.3025 O   0  0  0  0  0  0  0  0  0  0  0  0
    7.9827  -13.4434   26.7015 C   0  0  0  0  0  0  0  0  0  0  0  0
    8.3367  -14.3057   25.5384 C   0  0  0  0  0  0  0  0  0  0  0  0
    9.4052  -15.2954   25.8405 C   0  0  2  0  0  0  0  0  0  0  0  0
    9.7108  -16.1129   24.6568 N   0  0  0  0  0  0  0  0  0  0  0  0
    9.0892  -16.1558   26.9935 C   0  0  0  0  0  0  0  0  0  0  0  0
    9.3780  -15.8028   28.1485 O   0  0  0  0  0  0  0  0  0  0  0  0
    8.4633  -17.3773   26.8073 O   0  0  0  0  0  0  0  0  0  0  0  0
  2  3  2  0
  2  1  1  0
  4  2  1  0
  5  4  1  0
  6  5  1  0
  6  7  1  6
  8  9  2  0
  8  6  1  0
 10  8  1  0
 11 10  1  0
 12 13  1  0
 11 12  1  6
 13 14  1  0
 14 15  2  0
 14 18  1  0
 16 11  1  0
 16 17  2  0
 20 19  1  0
 21 20  2  0
 22 20  1  0
 23 22  1  0
 24 25  1  0
 24 23  1  6
 25 16  1  0
 26 24  1  0
 27 26  2  0
 28 26  1  0
M  END
$$$$
