QEQ.pdb
     RDKit          3D

 28 27  0  0  1  0  0  0  0  0999 V2000
    6.7141  -13.1117   18.4489 N   0  0  0  0  0  0  0  0  0  0  0  0
    7.7245  -13.6519   17.5882 C   0  0  0  0  0  0  0  0  0  0  0  0
    7.7689  -13.2987   16.3865 O   0  0  0  0  0  0  0  0  0  0  0  0
    8.7207  -14.6264   18.1026 C   0  0  0  0  0  0  0  0  0  0  0  0
    9.1102  -14.2248   19.4965 C   0  0  0  0  0  0  0  0  0  0  0  0
   10.3684  -14.9296   19.9133 C   0  0  2  0  0  0  0  0  0  0  0  0
   10.8496  -15.8613   18.9510 N   0  0  0  0  0  0  0  0  0  0  0  0
   10.1895  -15.6164   21.2472 C   0  0  0  0  0  0  0  0  0  0  0  0
    9.6658  -14.9951   22.1914 O   0  0  0  0  0  0  0  0  0  0  0  0
   10.6039  -16.9509   21.4466 N   0  0  0  0  0  0  0  0  0  0  0  0
   10.5167  -17.7692   22.5938 C   0  0  1  0  0  0  0  0  0  0  0  0
   10.8631  -19.2313   22.4380 C   0  0  0  0  0  0  0  0  0  0  0  0
   10.0203  -20.0000   21.4899 C   0  0  0  0  0  0  0  0  0  0  0  0
   10.4788  -21.4155   21.3330 C   0  0  0  0  0  0  0  0  0  0  0  0
   11.2183  -21.9125   22.2059 O   0  0  0  0  0  0  0  0  0  0  0  0
   11.1287  -17.2680   23.8270 C   0  0  0  0  0  0  0  0  0  0  0  0
   12.3235  -16.9092   23.7954 O   0  0  0  0  0  0  0  0  0  0  0  0
   10.1176  -22.2013   20.2587 O   0  0  0  0  0  0  0  0  0  0  0  0
    8.7092  -13.4472   27.9521 N   0  0  0  0  0  0  0  0  0  0  0  0
    9.7966  -13.9426   28.7239 C   0  0  0  0  0  0  0  0  0  0  0  0
   10.0221  -13.5379   29.8811 O   0  0  0  0  0  0  0  0  0  0  0  0
   10.6743  -14.9660   28.1152 C   0  0  0  0  0  0  0  0  0  0  0  0
   10.1694  -15.5171   26.8256 C   0  0  0  0  0  0  0  0  0  0  0  0
   11.0153  -16.6119   26.2797 C   0  0  2  0  0  0  0  0  0  0  0  0
   10.4204  -17.1726   25.0571 N   0  0  0  0  0  0  0  0  0  0  0  0
   11.2845  -17.6794   27.2582 C   0  0  0  0  0  0  0  0  0  0  0  0
   10.6535  -18.7483   27.2229 O   0  0  0  0  0  0  0  0  0  0  0  0
   12.2487  -17.5073   28.2376 O   0  0  0  0  0  0  0  0  0  0  0  0
  2  3  2  0
  2  1  1  0
  4  2  1  0
  5  4  1  0
  6  5  1  0
  6  7  1  6
  8  9  2  0
  8  6  1  0
 10  8  1  0
 11 10  1  0
 12 13  1  0
 11 12  1  6
 13 14  1  0
 14 15  2  0
 14 18  1  0
 16 11  1  0
 16 17  2  0
 20 19  1  0
 21 20  2  0
 22 20  1  0
 23 22  1  0
 24 25  1  0
 24 23  1  1
 25 16  1  0
 26 24  1  0
 27 26  2  0
 28 26  1  0
M  END
$$$$
