IES.pdb
     RDKit          3D

 24 23  0  0  1  0  0  0  0  0999 V2000
    6.4085  -11.4917   26.6329 C   0  0  0  0  0  0  0  0  0  0  0  0
    6.1278  -12.6583   25.7315 C   0  0  0  0  0  0  0  0  0  0  0  0
    7.1213  -13.7761   25.8588 C   0  0  2  0  0  0  0  0  0  0  0  0
    8.5006  -13.1960   25.6437 C   0  0  0  0  0  0  0  0  0  0  0  0
    6.8345  -14.9402   24.9787 C   0  0  2  0  0  0  0  0  0  0  0  0
    5.4827  -15.4304   25.2532 N   0  0  0  0  0  0  0  0  0  0  0  0
    7.8186  -16.0408   25.0492 C   0  0  0  0  0  0  0  0  0  0  0  0
    7.6846  -16.9911   25.8341 O   0  0  0  0  0  0  0  0  0  0  0  0
    8.9861  -16.0621   24.2051 N   0  0  0  0  0  0  0  0  0  0  0  0
    9.9042  -17.1670   24.1396 C   0  0  1  0  0  0  0  0  0  0  0  0
   10.9322  -17.0280   23.0465 C   0  0  0  0  0  0  0  0  0  0  0  0
   10.3620  -17.1267   21.6645 C   0  0  0  0  0  0  0  0  0  0  0  0
   11.4622  -16.9075   20.7028 C   0  0  0  0  0  0  0  0  0  0  0  0
   12.6168  -16.7129   21.1397 O   0  0  0  0  0  0  0  0  0  0  0  0
   10.6328  -17.2804   25.4241 C   0  0  0  0  0  0  0  0  0  0  0  0
   11.1902  -16.2770   25.8898 O   0  0  0  0  0  0  0  0  0  0  0  0
   11.2560  -16.9108   19.3386 O   0  0  0  0  0  0  0  0  0  0  0  0
    9.5131  -19.4662   28.4235 O   0  0  0  0  0  0  0  0  0  0  0  0
   10.9152  -19.5431   28.3756 C   0  0  0  0  0  0  0  0  0  0  0  0
   11.4798  -18.5701   27.3672 C   0  0  2  0  0  0  0  0  0  0  0  0
   10.7283  -18.4896   26.1591 N   0  0  0  0  0  0  0  0  0  0  0  0
   12.8845  -18.8906   27.1063 C   0  0  0  0  0  0  0  0  0  0  0  0
   13.8269  -19.0224   28.1116 O   0  0  0  0  0  0  0  0  0  0  0  0
   13.2643  -19.0559   25.9221 O   0  0  0  0  0  0  0  0  0  0  0  0
  2  1  1  0
  3  2  1  0
  3  4  1  6
  5  3  1  0
  5  6  1  1
  7  8  2  0
  7  5  1  0
  9  7  1  0
 10  9  1  0
 11 12  1  0
 10 11  1  6
 12 13  1  0
 13 17  1  0
 13 14  2  0
 15 16  2  0
 15 10  1  0
 18 19  1  0
 20 21  1  0
 20 19  1  1
 21 15  1  0
 22 20  1  0
 23 22  1  0
 24 22  2  0
M  END
$$$$
