IES.pdb
     RDKit          3D

 24 23  0  0  1  0  0  0  0  0999 V2000
    9.1166  -12.0657   19.5287 C   0  0  0  0  0  0  0  0  0  0  0  0
    9.0177  -13.1355   20.5765 C   0  0  0  0  0  0  0  0  0  0  0  0
    8.1063  -14.2680   20.2032 C   0  0  2  0  0  0  0  0  0  0  0  0
    6.7228  -13.6973   19.9897 C   0  0  0  0  0  0  0  0  0  0  0  0
    8.1275  -15.4011   21.1663 C   0  0  2  0  0  0  0  0  0  0  0  0
    7.5706  -14.9569   22.4452 N   0  0  0  0  0  0  0  0  0  0  0  0
    9.4466  -16.0393   21.3592 C   0  0  0  0  0  0  0  0  0  0  0  0
    9.9457  -16.7852   20.5040 O   0  0  0  0  0  0  0  0  0  0  0  0
   10.2192  -15.8242   22.5563 N   0  0  0  0  0  0  0  0  0  0  0  0
   11.3835  -16.5932   22.9044 C   0  0  1  0  0  0  0  0  0  0  0  0
   12.6708  -15.8193   22.7838 C   0  0  0  0  0  0  0  0  0  0  0  0
   13.8964  -16.6401   23.0467 C   0  0  0  0  0  0  0  0  0  0  0  0
   15.0729  -15.8398   22.6484 C   0  0  0  0  0  0  0  0  0  0  0  0
   15.4643  -14.9240   23.4034 O   0  0  0  0  0  0  0  0  0  0  0  0
   11.2701  -17.0529   24.3078 C   0  0  0  0  0  0  0  0  0  0  0  0
   11.0611  -16.2182   25.1988 O   0  0  0  0  0  0  0  0  0  0  0  0
   15.7528  -16.0707   21.4704 O   0  0  0  0  0  0  0  0  0  0  0  0
   10.7254  -21.0611   25.3189 O   0  0  0  0  0  0  0  0  0  0  0  0
   10.3483  -20.0445   26.2125 C   0  0  0  0  0  0  0  0  0  0  0  0
   11.2207  -18.8223   26.0464 C   0  0  2  0  0  0  0  0  0  0  0  0
   11.3891  -18.4129   24.6919 N   0  0  0  0  0  0  0  0  0  0  0  0
   12.5093  -19.0435   26.7055 C   0  0  0  0  0  0  0  0  0  0  0  0
   12.6281  -19.3089   28.0589 O   0  0  0  0  0  0  0  0  0  0  0  0
   13.5614  -18.9929   26.0240 O   0  0  0  0  0  0  0  0  0  0  0  0
  2  1  1  0
  3  2  1  0
  3  4  1  1
  5  3  1  0
  5  6  1  1
  7  8  2  0
  7  5  1  0
  9  7  1  0
 10  9  1  0
 11 12  1  0
 10 11  1  1
 12 13  1  0
 13 17  1  0
 13 14  2  0
 15 16  2  0
 15 10  1  0
 18 19  1  0
 20 21  1  0
 20 19  1  6
 21 15  1  0
 22 20  1  0
 23 22  1  0
 24 22  2  0
M  END
$$$$
