IES.pdb
     RDKit          3D

 24 23  0  0  1  0  0  0  0  0999 V2000
    6.5470  -11.5652   27.5090 C   0  0  0  0  0  0  0  0  0  0  0  0
    6.1609  -12.5823   26.4752 C   0  0  0  0  0  0  0  0  0  0  0  0
    7.1380  -13.7140   26.3430 C   0  0  2  0  0  0  0  0  0  0  0  0
    8.4936  -13.1210   26.0333 C   0  0  0  0  0  0  0  0  0  0  0  0
    6.7221  -14.7583   25.3692 C   0  0  2  0  0  0  0  0  0  0  0  0
    5.3853  -15.2404   25.7211 N   0  0  0  0  0  0  0  0  0  0  0  0
    7.6649  -15.8861   25.2138 C   0  0  0  0  0  0  0  0  0  0  0  0
    7.6810  -16.8411   26.0040 O   0  0  0  0  0  0  0  0  0  0  0  0
    8.6149  -15.9294   24.1313 N   0  0  0  0  0  0  0  0  0  0  0  0
    9.5847  -16.9776   23.9614 C   0  0  1  0  0  0  0  0  0  0  0  0
   10.4986  -16.7631   22.7826 C   0  0  0  0  0  0  0  0  0  0  0  0
   11.5015  -17.8591   22.5881 C   0  0  0  0  0  0  0  0  0  0  0  0
   12.3103  -17.5281   21.3966 C   0  0  0  0  0  0  0  0  0  0  0  0
   13.3879  -16.9138   21.5495 O   0  0  0  0  0  0  0  0  0  0  0  0
   10.4332  -17.0661   25.1722 C   0  0  0  0  0  0  0  0  0  0  0  0
   11.0305  -16.0538   25.5631 O   0  0  0  0  0  0  0  0  0  0  0  0
   11.9145  -17.8752   20.1214 O   0  0  0  0  0  0  0  0  0  0  0  0
    9.8534  -19.6198   28.2997 O   0  0  0  0  0  0  0  0  0  0  0  0
   10.7080  -18.5065   28.3642 C   0  0  0  0  0  0  0  0  0  0  0  0
   11.4489  -18.3126   27.0619 C   0  0  2  0  0  0  0  0  0  0  0  0
   10.6013  -18.2609   25.9175 N   0  0  0  0  0  0  0  0  0  0  0  0
   12.4783  -19.3444   26.9223 C   0  0  0  0  0  0  0  0  0  0  0  0
   13.4897  -19.5303   27.8490 O   0  0  0  0  0  0  0  0  0  0  0  0
   12.4541  -20.1011   25.9220 O   0  0  0  0  0  0  0  0  0  0  0  0
  2  1  1  0
  3  2  1  0
  3  4  1  6
  5  3  1  0
  5  6  1  1
  7  8  2  0
  7  5  1  0
  9  7  1  0
 10  9  1  0
 11 12  1  0
 10 11  1  6
 12 13  1  0
 13 17  1  0
 13 14  2  0
 15 16  2  0
 15 10  1  0
 18 19  1  0
 20 21  1  0
 20 19  1  1
 21 15  1  0
 22 20  1  0
 23 22  1  0
 24 22  2  0
M  END
$$$$
