IES.pdb
     RDKit          3D

 24 23  0  0  1  0  0  0  0  0999 V2000
    7.1255  -11.9210   20.0817 C   0  0  0  0  0  0  0  0  0  0  0  0
    7.4411  -13.2469   19.4535 C   0  0  0  0  0  0  0  0  0  0  0  0
    8.2036  -14.1773   20.3510 C   0  0  2  0  0  0  0  0  0  0  0  0
    9.4478  -13.4554   20.8158 C   0  0  0  0  0  0  0  0  0  0  0  0
    8.4921  -15.5022   19.7400 C   0  0  2  0  0  0  0  0  0  0  0  0
    7.2362  -16.1157   19.3046 N   0  0  0  0  0  0  0  0  0  0  0  0
    9.2664  -16.4322   20.5887 C   0  0  0  0  0  0  0  0  0  0  0  0
    8.7237  -17.1422   21.4480 O   0  0  0  0  0  0  0  0  0  0  0  0
   10.6957  -16.5586   20.4574 N   0  0  0  0  0  0  0  0  0  0  0  0
   11.4957  -17.4467   21.2570 C   0  0  1  0  0  0  0  0  0  0  0  0
   12.9374  -17.5090   20.8231 C   0  0  0  0  0  0  0  0  0  0  0  0
   13.7753  -18.4427   21.6422 C   0  0  0  0  0  0  0  0  0  0  0  0
   15.1486  -18.4166   21.0975 C   0  0  0  0  0  0  0  0  0  0  0  0
   15.9283  -17.5128   21.4676 O   0  0  0  0  0  0  0  0  0  0  0  0
   11.4743  -16.9953   22.6675 C   0  0  0  0  0  0  0  0  0  0  0  0
   11.8320  -15.8398   22.9345 O   0  0  0  0  0  0  0  0  0  0  0  0
   15.5977  -19.3575   20.1939 O   0  0  0  0  0  0  0  0  0  0  0  0
    8.9329  -18.2821   25.5435 O   0  0  0  0  0  0  0  0  0  0  0  0
    9.7562  -17.1573   25.7193 C   0  0  0  0  0  0  0  0  0  0  0  0
   11.1140  -17.3731   25.0932 C   0  0  2  0  0  0  0  0  0  0  0  0
   11.0619  -17.8237   23.7422 N   0  0  0  0  0  0  0  0  0  0  0  0
   11.9051  -18.2765   25.9311 C   0  0  0  0  0  0  0  0  0  0  0  0
   12.1590  -18.0339   27.2700 O   0  0  0  0  0  0  0  0  0  0  0  0
   12.3800  -19.3214   25.4247 O   0  0  0  0  0  0  0  0  0  0  0  0
  2  1  1  0
  3  2  1  0
  3  4  1  6
  5  3  1  0
  5  6  1  1
  7  8  2  0
  7  5  1  0
  9  7  1  0
 10  9  1  0
 11 12  1  0
 10 11  1  6
 12 13  1  0
 13 17  1  0
 13 14  2  0
 15 16  2  0
 15 10  1  0
 18 19  1  0
 20 21  1  0
 20 19  1  1
 21 15  1  0
 22 20  1  0
 23 22  1  0
 24 22  2  0
M  END
$$$$
