IES.pdb
     RDKit          3D

 24 23  0  0  1  0  0  0  0  0999 V2000
    6.5355  -11.1828   27.1867 C   0  0  0  0  0  0  0  0  0  0  0  0
    6.0586  -12.2810   26.2819 C   0  0  0  0  0  0  0  0  0  0  0  0
    7.0122  -13.4349   26.1736 C   0  0  2  0  0  0  0  0  0  0  0  0
    8.3460  -12.8914   25.7143 C   0  0  0  0  0  0  0  0  0  0  0  0
    6.5140  -14.5508   25.3259 C   0  0  2  0  0  0  0  0  0  0  0  0
    5.2273  -15.0148   25.8475 N   0  0  0  0  0  0  0  0  0  0  0  0
    7.4521  -15.6804   25.1562 C   0  0  0  0  0  0  0  0  0  0  0  0
    7.4446  -16.6591   25.9171 O   0  0  0  0  0  0  0  0  0  0  0  0
    8.4247  -15.6982   24.0933 N   0  0  0  0  0  0  0  0  0  0  0  0
    9.3512  -16.7764   23.8765 C   0  0  1  0  0  0  0  0  0  0  0  0
   10.1819  -16.6113   22.6301 C   0  0  0  0  0  0  0  0  0  0  0  0
   11.1837  -17.7059   22.4221 C   0  0  0  0  0  0  0  0  0  0  0  0
   11.8303  -17.4864   21.1117 C   0  0  0  0  0  0  0  0  0  0  0  0
   11.1952  -17.7611   20.0710 O   0  0  0  0  0  0  0  0  0  0  0  0
   10.2833  -16.8647   25.0243 C   0  0  0  0  0  0  0  0  0  0  0  0
   10.9442  -15.8659   25.3402 O   0  0  0  0  0  0  0  0  0  0  0  0
   13.1120  -16.9881   21.0001 O   0  0  0  0  0  0  0  0  0  0  0  0
    9.9305  -19.5500   28.1390 O   0  0  0  0  0  0  0  0  0  0  0  0
   10.7215  -18.3912   28.2135 C   0  0  0  0  0  0  0  0  0  0  0  0
   11.3745  -18.0913   26.8846 C   0  0  2  0  0  0  0  0  0  0  0  0
   10.4625  -18.0444   25.7906 N   0  0  0  0  0  0  0  0  0  0  0  0
   12.4576  -19.0460   26.6412 C   0  0  0  0  0  0  0  0  0  0  0  0
   13.5234  -19.2140   27.5084 O   0  0  0  0  0  0  0  0  0  0  0  0
   12.4305  -19.7499   25.6031 O   0  0  0  0  0  0  0  0  0  0  0  0
  2  1  1  0
  3  2  1  0
  3  4  1  6
  5  3  1  0
  5  6  1  1
  7  8  2  0
  7  5  1  0
  9  7  1  0
 10  9  1  0
 11 12  1  0
 10 11  1  6
 12 13  1  0
 13 17  1  0
 13 14  2  0
 15 16  2  0
 15 10  1  0
 18 19  1  0
 20 21  1  0
 20 19  1  1
 21 15  1  0
 22 20  1  0
 23 22  1  0
 24 22  2  0
M  END
$$$$
