IES.pdb
     RDKit          3D

 24 23  0  0  1  0  0  0  0  0999 V2000
    7.3336  -11.7327   19.4642 C   0  0  0  0  0  0  0  0  0  0  0  0
    7.9024  -12.8134   18.5920 C   0  0  0  0  0  0  0  0  0  0  0  0
    8.6019  -13.9018   19.3528 C   0  0  2  0  0  0  0  0  0  0  0  0
    9.6868  -13.2595   20.1868 C   0  0  0  0  0  0  0  0  0  0  0  0
    9.1035  -15.0091   18.4961 C   0  0  2  0  0  0  0  0  0  0  0  0
    7.9914  -15.5584   17.7184 N   0  0  0  0  0  0  0  0  0  0  0  0
    9.8263  -16.0816   19.2117 C   0  0  0  0  0  0  0  0  0  0  0  0
    9.2297  -16.9985   19.7950 O   0  0  0  0  0  0  0  0  0  0  0  0
   11.2658  -16.1127   19.2660 N   0  0  0  0  0  0  0  0  0  0  0  0
   12.0171  -17.1197   19.9658 C   0  0  1  0  0  0  0  0  0  0  0  0
   13.4295  -17.2711   19.4632 C   0  0  0  0  0  0  0  0  0  0  0  0
   13.5207  -17.8283   18.0753 C   0  0  0  0  0  0  0  0  0  0  0  0
   14.9391  -17.7900   17.6630 C   0  0  0  0  0  0  0  0  0  0  0  0
   15.2597  -17.1112   16.6639 O   0  0  0  0  0  0  0  0  0  0  0  0
   12.0911  -16.7705   21.4033 C   0  0  0  0  0  0  0  0  0  0  0  0
   12.6533  -15.7189   21.7384 O   0  0  0  0  0  0  0  0  0  0  0  0
   15.9205  -18.4792   18.3452 O   0  0  0  0  0  0  0  0  0  0  0  0
    9.1797  -17.4146   23.8029 O   0  0  0  0  0  0  0  0  0  0  0  0
   10.3421  -17.5746   24.5757 C   0  0  0  0  0  0  0  0  0  0  0  0
   11.5736  -17.1787   23.7954 C   0  0  2  0  0  0  0  0  0  0  0  0
   11.5469  -17.5843   22.4295 N   0  0  0  0  0  0  0  0  0  0  0  0
   12.7703  -17.6725   24.4795 C   0  0  0  0  0  0  0  0  0  0  0  0
   13.0619  -17.3725   25.7991 O   0  0  0  0  0  0  0  0  0  0  0  0
   13.5762  -18.4015   23.8527 O   0  0  0  0  0  0  0  0  0  0  0  0
  2  1  1  0
  3  2  1  0
  3  4  1  6
  5  3  1  0
  5  6  1  1
  7  8  2  0
  7  5  1  0
  9  7  1  0
 10  9  1  0
 11 12  1  0
 10 11  1  6
 12 13  1  0
 13 17  1  0
 13 14  2  0
 15 16  2  0
 15 10  1  0
 18 19  1  0
 20 21  1  0
 20 19  1  1
 21 15  1  0
 22 20  1  0
 23 22  1  0
 24 22  2  0
M  END
$$$$
