IES.pdb
     RDKit          3D

 24 23  0  0  1  0  0  0  0  0999 V2000
    7.5335  -12.3571   18.6628 C   0  0  0  0  0  0  0  0  0  0  0  0
    8.8342  -12.6887   19.3340 C   0  0  0  0  0  0  0  0  0  0  0  0
    8.8244  -14.0021   20.0604 C   0  0  2  0  0  0  0  0  0  0  0  0
    7.7055  -13.9607   21.0760 C   0  0  0  0  0  0  0  0  0  0  0  0
   10.1370  -14.3722   20.6537 C   0  0  2  0  0  0  0  0  0  0  0  0
   11.1643  -14.3365   19.6113 N   0  0  0  0  0  0  0  0  0  0  0  0
   10.1615  -15.6630   21.3735 C   0  0  0  0  0  0  0  0  0  0  0  0
    9.3069  -15.9570   22.2221 O   0  0  0  0  0  0  0  0  0  0  0  0
   11.1847  -16.6458   21.1221 N   0  0  0  0  0  0  0  0  0  0  0  0
   11.2091  -17.9475   21.7331 C   0  0  1  0  0  0  0  0  0  0  0  0
   12.2410  -18.8699   21.1373 C   0  0  0  0  0  0  0  0  0  0  0  0
   13.2177  -18.1810   20.2337 C   0  0  0  0  0  0  0  0  0  0  0  0
   14.1745  -19.1943   19.7427 C   0  0  0  0  0  0  0  0  0  0  0  0
   15.3948  -19.0242   19.9516 O   0  0  0  0  0  0  0  0  0  0  0  0
   11.5149  -17.8099   23.1758 C   0  0  0  0  0  0  0  0  0  0  0  0
   12.2402  -16.8783   23.5505 O   0  0  0  0  0  0  0  0  0  0  0  0
   13.7642  -20.3215   19.0612 O   0  0  0  0  0  0  0  0  0  0  0  0
    9.0132  -18.0898   26.0104 O   0  0  0  0  0  0  0  0  0  0  0  0
   10.1608  -18.7571   26.4705 C   0  0  0  0  0  0  0  0  0  0  0  0
   11.3316  -18.5294   25.5433 C   0  0  2  0  0  0  0  0  0  0  0  0
   11.0168  -18.6973   24.1637 N   0  0  0  0  0  0  0  0  0  0  0  0
   12.4524  -19.3810   25.9465 C   0  0  0  0  0  0  0  0  0  0  0  0
   13.0801  -20.2604   25.0812 O   0  0  0  0  0  0  0  0  0  0  0  0
   12.8725  -19.3206   27.1270 O   0  0  0  0  0  0  0  0  0  0  0  0
  2  1  1  0
  3  2  1  0
  3  4  1  1
  5  3  1  0
  5  6  1  6
  7  8  2  0
  7  5  1  0
  9  7  1  0
 10  9  1  0
 11 12  1  0
 10 11  1  6
 12 13  1  0
 13 17  1  0
 13 14  2  0
 15 16  2  0
 15 10  1  0
 18 19  1  0
 20 21  1  0
 20 19  1  1
 21 15  1  0
 22 20  1  0
 23 22  1  0
 24 22  2  0
M  END
$$$$
