IES.pdb
     RDKit          3D

 24 23  0  0  1  0  0  0  0  0999 V2000
    6.5603  -12.2291   19.6940 C   0  0  0  0  0  0  0  0  0  0  0  0
    7.4016  -12.9777   18.7021 C   0  0  0  0  0  0  0  0  0  0  0  0
    8.5412  -13.7333   19.3212 C   0  0  2  0  0  0  0  0  0  0  0  0
    9.3966  -12.7426   20.0775 C   0  0  0  0  0  0  0  0  0  0  0  0
    9.3168  -14.5537   18.3530 C   0  0  2  0  0  0  0  0  0  0  0  0
    8.3976  -15.4121   17.6037 N   0  0  0  0  0  0  0  0  0  0  0  0
   10.4182  -15.3463   18.9391 C   0  0  0  0  0  0  0  0  0  0  0  0
   10.2219  -16.4485   19.4716 O   0  0  0  0  0  0  0  0  0  0  0  0
   11.7791  -14.8734   18.9195 N   0  0  0  0  0  0  0  0  0  0  0  0
   12.8756  -15.5703   19.5362 C   0  0  1  0  0  0  0  0  0  0  0  0
   14.2202  -15.1909   18.9716 C   0  0  0  0  0  0  0  0  0  0  0  0
   14.3910  -15.5467   17.5261 C   0  0  0  0  0  0  0  0  0  0  0  0
   15.7666  -15.1824   17.1284 C   0  0  0  0  0  0  0  0  0  0  0  0
   16.1099  -13.9815   17.1714 O   0  0  0  0  0  0  0  0  0  0  0  0
   12.9001  -15.2676   20.9859 C   0  0  0  0  0  0  0  0  0  0  0  0
   12.4631  -14.1777   21.3800 O   0  0  0  0  0  0  0  0  0  0  0  0
   16.6838  -16.1248   16.7112 O   0  0  0  0  0  0  0  0  0  0  0  0
   10.4934  -17.3664   23.8728 O   0  0  0  0  0  0  0  0  0  0  0  0
   11.2252  -17.0248   22.7231 C   0  0  0  0  0  0  0  0  0  0  0  0
   12.6194  -16.5664   23.0813 C   0  0  2  0  0  0  0  0  0  0  0  0
   13.4026  -16.1684   21.9593 N   0  0  0  0  0  0  0  0  0  0  0  0
   13.2926  -17.6031   23.8663 C   0  0  0  0  0  0  0  0  0  0  0  0
   13.4170  -17.5440   25.2436 O   0  0  0  0  0  0  0  0  0  0  0  0
   13.7833  -18.5953   23.2758 O   0  0  0  0  0  0  0  0  0  0  0  0
  2  1  1  0
  3  2  1  0
  3  4  1  6
  5  3  1  0
  5  6  1  1
  7  8  2  0
  7  5  1  0
  9  7  1  0
 10  9  1  0
 11 12  1  0
 10 11  1  6
 12 13  1  0
 13 17  1  0
 13 14  2  0
 15 16  2  0
 15 10  1  0
 18 19  1  0
 20 21  1  0
 20 19  1  6
 21 15  1  0
 22 20  1  0
 23 22  1  0
 24 22  2  0
M  END
$$$$
