IES.pdb
     RDKit          3D

 24 23  0  0  1  0  0  0  0  0999 V2000
    7.8973  -12.0236   27.4433 C   0  0  0  0  0  0  0  0  0  0  0  0
    7.3331  -13.3442   27.0074 C   0  0  0  0  0  0  0  0  0  0  0  0
    7.1079  -13.4488   25.5272 C   0  0  2  0  0  0  0  0  0  0  0  0
    6.1566  -12.3450   25.1248 C   0  0  0  0  0  0  0  0  0  0  0  0
    6.6619  -14.7951   25.0793 C   0  0  2  0  0  0  0  0  0  0  0  0
    5.4803  -15.1915   25.8473 N   0  0  0  0  0  0  0  0  0  0  0  0
    7.6973  -15.8490   25.1240 C   0  0  0  0  0  0  0  0  0  0  0  0
    7.6694  -16.7606   25.9637 O   0  0  0  0  0  0  0  0  0  0  0  0
    8.7937  -15.8672   24.1893 N   0  0  0  0  0  0  0  0  0  0  0  0
    9.7965  -16.8974   24.1547 C   0  0  1  0  0  0  0  0  0  0  0  0
   10.8802  -16.6449   23.1386 C   0  0  0  0  0  0  0  0  0  0  0  0
   11.8965  -17.7425   23.0534 C   0  0  0  0  0  0  0  0  0  0  0  0
   12.8251  -17.4169   21.9511 C   0  0  0  0  0  0  0  0  0  0  0  0
   13.3764  -16.2954   21.9370 O   0  0  0  0  0  0  0  0  0  0  0  0
   10.4458  -16.9991   25.4821 C   0  0  0  0  0  0  0  0  0  0  0  0
   11.0076  -16.0015   25.9546 O   0  0  0  0  0  0  0  0  0  0  0  0
   13.1030  -18.3106   20.9374 O   0  0  0  0  0  0  0  0  0  0  0  0
    9.6136  -20.0448   28.1665 O   0  0  0  0  0  0  0  0  0  0  0  0
   10.2038  -18.8489   28.6088 C   0  0  0  0  0  0  0  0  0  0  0  0
   11.0761  -18.2424   27.5347 C   0  0  2  0  0  0  0  0  0  0  0  0
   10.4596  -18.1908   26.2510 N   0  0  0  0  0  0  0  0  0  0  0  0
   12.3595  -18.9456   27.4869 C   0  0  0  0  0  0  0  0  0  0  0  0
   13.1766  -19.0990   28.5936 O   0  0  0  0  0  0  0  0  0  0  0  0
   12.7479  -19.4361   26.3994 O   0  0  0  0  0  0  0  0  0  0  0  0
  2  1  1  0
  3  2  1  0
  3  4  1  1
  5  3  1  0
  5  6  1  1
  7  8  2  0
  7  5  1  0
  9  7  1  0
 10  9  1  0
 11 12  1  0
 10 11  1  6
 12 13  1  0
 13 17  1  0
 13 14  2  0
 15 16  2  0
 15 10  1  0
 18 19  1  0
 20 21  1  0
 20 19  1  1
 21 15  1  0
 22 20  1  0
 23 22  1  0
 24 22  2  0
M  END
$$$$
