IES.pdb
     RDKit          3D

 24 23  0  0  1  0  0  0  0  0999 V2000
    7.9395  -12.5190   27.7646 C   0  0  0  0  0  0  0  0  0  0  0  0
    7.3434  -13.7392   27.1258 C   0  0  0  0  0  0  0  0  0  0  0  0
    7.1098  -13.5985   25.6499 C   0  0  2  0  0  0  0  0  0  0  0  0
    6.1000  -12.4925   25.4446 C   0  0  0  0  0  0  0  0  0  0  0  0
    6.7285  -14.8686   24.9765 C   0  0  2  0  0  0  0  0  0  0  0  0
    5.4706  -15.3565   25.5447 N   0  0  0  0  0  0  0  0  0  0  0  0
    7.7607  -15.9265   24.9958 C   0  0  0  0  0  0  0  0  0  0  0  0
    7.6871  -16.9008   25.7588 O   0  0  0  0  0  0  0  0  0  0  0  0
    8.9073  -15.8755   24.1247 N   0  0  0  0  0  0  0  0  0  0  0  0
    9.9479  -16.8681   24.1153 C   0  0  1  0  0  0  0  0  0  0  0  0
   10.9662  -16.6585   23.0245 C   0  0  0  0  0  0  0  0  0  0  0  0
   11.9757  -17.7607   22.9201 C   0  0  0  0  0  0  0  0  0  0  0  0
   12.8962  -17.4299   21.8126 C   0  0  0  0  0  0  0  0  0  0  0  0
   13.9512  -16.8108   22.0684 O   0  0  0  0  0  0  0  0  0  0  0  0
   10.6688  -16.8398   25.4089 C   0  0  0  0  0  0  0  0  0  0  0  0
   10.7908  -15.7613   26.0056 O   0  0  0  0  0  0  0  0  0  0  0  0
   12.6285  -17.7822   20.5059 O   0  0  0  0  0  0  0  0  0  0  0  0
    9.6097  -19.4735   28.4576 O   0  0  0  0  0  0  0  0  0  0  0  0
    9.9771  -18.1605   28.1184 C   0  0  0  0  0  0  0  0  0  0  0  0
   11.3187  -18.1324   27.4246 C   0  0  2  0  0  0  0  0  0  0  0  0
   11.2339  -17.9940   26.0088 N   0  0  0  0  0  0  0  0  0  0  0  0
   12.0943  -19.3151   27.8036 C   0  0  0  0  0  0  0  0  0  0  0  0
   12.3923  -19.6317   29.1178 O   0  0  0  0  0  0  0  0  0  0  0  0
   12.5138  -20.0848   26.9061 O   0  0  0  0  0  0  0  0  0  0  0  0
  2  1  1  0
  3  2  1  0
  3  4  1  1
  5  3  1  0
  5  6  1  1
  7  8  2  0
  7  5  1  0
  9  7  1  0
 10  9  1  0
 11 12  1  0
 10 11  1  6
 12 13  1  0
 13 17  1  0
 13 14  2  0
 15 16  2  0
 15 10  1  0
 18 19  1  0
 20 21  1  0
 20 19  1  6
 21 15  1  0
 22 20  1  0
 23 22  1  0
 24 22  2  0
M  END
$$$$
