IES.pdb
     RDKit          3D

 24 23  0  0  1  0  0  0  0  0999 V2000
    7.7262  -12.1038   22.3748 C   0  0  0  0  0  0  0  0  0  0  0  0
    7.4760  -13.4754   21.8198 C   0  0  0  0  0  0  0  0  0  0  0  0
    8.2983  -13.7981   20.6063 C   0  0  2  0  0  0  0  0  0  0  0  0
    7.9014  -12.8366   19.5094 C   0  0  0  0  0  0  0  0  0  0  0  0
    8.2219  -15.2234   20.1883 C   0  0  2  0  0  0  0  0  0  0  0  0
    6.8495  -15.5342   19.7843 N   0  0  0  0  0  0  0  0  0  0  0  0
    8.7116  -16.1993   21.1846 C   0  0  0  0  0  0  0  0  0  0  0  0
    7.9390  -16.9312   21.8204 O   0  0  0  0  0  0  0  0  0  0  0  0
   10.1170  -16.3472   21.4657 N   0  0  0  0  0  0  0  0  0  0  0  0
   10.6553  -17.3573   22.3364 C   0  0  1  0  0  0  0  0  0  0  0  0
   12.1444  -17.5392   22.1945 C   0  0  0  0  0  0  0  0  0  0  0  0
   12.7150  -18.5844   23.1040 C   0  0  0  0  0  0  0  0  0  0  0  0
   14.1693  -18.6592   22.8534 C   0  0  0  0  0  0  0  0  0  0  0  0
   14.9384  -18.8659   23.8165 O   0  0  0  0  0  0  0  0  0  0  0  0
   10.3838  -16.9902   23.7455 C   0  0  0  0  0  0  0  0  0  0  0  0
   10.7883  -15.8997   24.1713 O   0  0  0  0  0  0  0  0  0  0  0  0
   14.7052  -18.5083   21.5911 O   0  0  0  0  0  0  0  0  0  0  0  0
    7.3296  -18.5799   26.0900 O   0  0  0  0  0  0  0  0  0  0  0  0
    7.9883  -17.3722   26.3753 C   0  0  0  0  0  0  0  0  0  0  0  0
    9.4493  -17.4464   25.9982 C   0  0  2  0  0  0  0  0  0  0  0  0
    9.6776  -17.8293   24.6447 N   0  0  0  0  0  0  0  0  0  0  0  0
   10.1551  -18.3260   26.9321 C   0  0  0  0  0  0  0  0  0  0  0  0
   10.1383  -18.1382   28.3034 O   0  0  0  0  0  0  0  0  0  0  0  0
   10.8086  -19.2977   26.4819 O   0  0  0  0  0  0  0  0  0  0  0  0
  2  1  1  0
  3  2  1  0
  3  4  1  6
  5  3  1  0
  5  6  1  1
  7  8  2  0
  7  5  1  0
  9  7  1  0
 10  9  1  0
 11 12  1  0
 10 11  1  1
 12 13  1  0
 13 17  1  0
 13 14  2  0
 15 16  2  0
 15 10  1  0
 18 19  1  0
 20 21  1  0
 20 19  1  1
 21 15  1  0
 22 20  1  0
 23 22  1  0
 24 22  2  0
M  END
$$$$
