IES.pdb
     RDKit          3D

 24 23  0  0  1  0  0  0  0  0999 V2000
    7.2461  -11.9193   19.1927 C   0  0  0  0  0  0  0  0  0  0  0  0
    6.9373  -13.3204   19.6328 C   0  0  0  0  0  0  0  0  0  0  0  0
    8.1558  -14.1601   19.8833 C   0  0  2  0  0  0  0  0  0  0  0  0
    8.9221  -13.5342   21.0262 C   0  0  0  0  0  0  0  0  0  0  0  0
    8.9921  -14.3842   18.6740 C   0  0  2  0  0  0  0  0  0  0  0  0
    8.1602  -14.9512   17.6111 N   0  0  0  0  0  0  0  0  0  0  0  0
   10.2035  -15.2035   18.8886 C   0  0  0  0  0  0  0  0  0  0  0  0
   10.1384  -16.4086   19.1725 O   0  0  0  0  0  0  0  0  0  0  0  0
   11.5241  -14.6381   18.7778 N   0  0  0  0  0  0  0  0  0  0  0  0
   12.7267  -15.3426   19.1322 C   0  0  1  0  0  0  0  0  0  0  0  0
   13.9745  -14.7266   18.5538 C   0  0  0  0  0  0  0  0  0  0  0  0
   15.2246  -15.4941   18.8588 C   0  0  0  0  0  0  0  0  0  0  0  0
   16.3388  -14.8560   18.1275 C   0  0  0  0  0  0  0  0  0  0  0  0
   16.5869  -15.2277   16.9604 O   0  0  0  0  0  0  0  0  0  0  0  0
   12.8770  -15.3527   20.6056 C   0  0  0  0  0  0  0  0  0  0  0  0
   12.8579  -14.2769   21.2193 O   0  0  0  0  0  0  0  0  0  0  0  0
   17.1137  -13.8636   18.6915 O   0  0  0  0  0  0  0  0  0  0  0  0
   11.0542  -17.6780   23.2129 O   0  0  0  0  0  0  0  0  0  0  0  0
   12.4384  -17.6885   23.4531 C   0  0  0  0  0  0  0  0  0  0  0  0
   13.1160  -16.5154   22.7844 C   0  0  2  0  0  0  0  0  0  0  0  0
   13.0437  -16.5411   21.3615 N   0  0  0  0  0  0  0  0  0  0  0  0
   14.5004  -16.4147   23.2506 C   0  0  0  0  0  0  0  0  0  0  0  0
   14.8378  -16.2763   24.5860 O   0  0  0  0  0  0  0  0  0  0  0  0
   15.4325  -16.4543   22.4120 O   0  0  0  0  0  0  0  0  0  0  0  0
  2  1  1  0
  3  2  1  0
  3  4  1  1
  5  3  1  0
  5  6  1  6
  7  8  2  0
  7  5  1  0
  9  7  1  0
 10  9  1  0
 11 12  1  0
 10 11  1  6
 12 13  1  0
 13 17  1  0
 13 14  2  0
 15 16  2  0
 15 10  1  0
 18 19  1  0
 20 21  1  0
 20 19  1  1
 21 15  1  0
 22 20  1  0
 23 22  1  0
 24 22  2  0
M  END
$$$$
