IES.pdb
     RDKit          3D

 24 23  0  0  1  0  0  0  0  0999 V2000
    6.5036  -11.4307   26.9808 C   0  0  0  0  0  0  0  0  0  0  0  0
    5.9862  -12.6400   26.2583 C   0  0  0  0  0  0  0  0  0  0  0  0
    7.0561  -13.6178   25.8684 C   0  0  2  0  0  0  0  0  0  0  0  0
    8.0804  -12.8766   25.0398 C   0  0  0  0  0  0  0  0  0  0  0  0
    6.5393  -14.8413   25.1991 C   0  0  2  0  0  0  0  0  0  0  0  0
    5.5262  -15.4656   26.0518 N   0  0  0  0  0  0  0  0  0  0  0  0
    7.5691  -15.8232   24.7990 C   0  0  0  0  0  0  0  0  0  0  0  0
    7.9912  -16.6868   25.5820 O   0  0  0  0  0  0  0  0  0  0  0  0
    8.1343  -15.8237   23.4737 N   0  0  0  0  0  0  0  0  0  0  0  0
    9.0562  -16.8202   22.9989 C   0  0  1  0  0  0  0  0  0  0  0  0
    9.4361  -16.6439   21.5514 C   0  0  0  0  0  0  0  0  0  0  0  0
   10.3627  -17.7027   21.0365 C   0  0  0  0  0  0  0  0  0  0  0  0
   10.5778  -17.4561   19.5956 C   0  0  0  0  0  0  0  0  0  0  0  0
    9.8156  -18.0016   18.7689 O   0  0  0  0  0  0  0  0  0  0  0  0
   10.3025  -16.7598   23.7969 C   0  0  0  0  0  0  0  0  0  0  0  0
   10.7368  -15.6552   24.1510 O   0  0  0  0  0  0  0  0  0  0  0  0
   11.5924  -16.6435   19.1336 O   0  0  0  0  0  0  0  0  0  0  0  0
   12.0437  -18.3645   27.6934 O   0  0  0  0  0  0  0  0  0  0  0  0
   11.1492  -18.2797   26.6133 C   0  0  0  0  0  0  0  0  0  0  0  0
   11.8696  -17.9122   25.3373 C   0  0  2  0  0  0  0  0  0  0  0  0
   11.0347  -17.9116   24.1824 N   0  0  0  0  0  0  0  0  0  0  0  0
   13.0327  -18.7837   25.1595 C   0  0  0  0  0  0  0  0  0  0  0  0
   14.1440  -18.7350   25.9833 O   0  0  0  0  0  0  0  0  0  0  0  0
   13.0348  -19.6170   24.2217 O   0  0  0  0  0  0  0  0  0  0  0  0
  2  1  1  0
  3  2  1  0
  3  4  1  6
  5  3  1  0
  5  6  1  1
  7  8  2  0
  7  5  1  0
  9  7  1  0
 10  9  1  0
 11 12  1  0
 10 11  1  6
 12 13  1  0
 13 17  1  0
 13 14  2  0
 15 16  2  0
 15 10  1  0
 18 19  1  0
 20 21  1  0
 20 19  1  1
 21 15  1  0
 22 20  1  0
 23 22  1  0
 24 22  2  0
M  END
$$$$
