IES.pdb
     RDKit          3D

 24 23  0  0  1  0  0  0  0  0999 V2000
    7.2975  -11.7487   19.4211 C   0  0  0  0  0  0  0  0  0  0  0  0
    7.6434  -13.0248   18.7111 C   0  0  0  0  0  0  0  0  0  0  0  0
    8.3450  -14.0300   19.5772 C   0  0  2  0  0  0  0  0  0  0  0  0
    9.5338  -13.3445   20.2114 C   0  0  0  0  0  0  0  0  0  0  0  0
    8.7059  -15.2874   18.8696 C   0  0  2  0  0  0  0  0  0  0  0  0
    7.5055  -15.8553   18.2536 N   0  0  0  0  0  0  0  0  0  0  0  0
    9.4027  -16.2968   19.6945 C   0  0  0  0  0  0  0  0  0  0  0  0
    8.8111  -16.9577   20.5606 O   0  0  0  0  0  0  0  0  0  0  0  0
   10.8094  -16.5620   19.5308 N   0  0  0  0  0  0  0  0  0  0  0  0
   11.5295  -17.5494   20.2888 C   0  0  1  0  0  0  0  0  0  0  0  0
   12.9159  -17.8156   19.7619 C   0  0  0  0  0  0  0  0  0  0  0  0
   13.6469  -18.8942   20.5017 C   0  0  0  0  0  0  0  0  0  0  0  0
   14.9771  -19.0513   19.8777 C   0  0  0  0  0  0  0  0  0  0  0  0
   15.7078  -18.0454   19.7513 O   0  0  0  0  0  0  0  0  0  0  0  0
   11.6662  -17.0923   21.6910 C   0  0  0  0  0  0  0  0  0  0  0  0
   12.1079  -15.9566   21.9127 O   0  0  0  0  0  0  0  0  0  0  0  0
   15.4381  -20.2723   19.4304 O   0  0  0  0  0  0  0  0  0  0  0  0
    9.0136  -17.4166   24.2564 O   0  0  0  0  0  0  0  0  0  0  0  0
   10.1904  -17.6604   24.9841 C   0  0  0  0  0  0  0  0  0  0  0  0
   11.4162  -17.4004   24.1403 C   0  0  2  0  0  0  0  0  0  0  0  0
   11.3148  -17.8936   22.8072 N   0  0  0  0  0  0  0  0  0  0  0  0
   12.6023  -17.9258   24.8192 C   0  0  0  0  0  0  0  0  0  0  0  0
   12.9963  -17.5090   26.0790 O   0  0  0  0  0  0  0  0  0  0  0  0
   13.3021  -18.7938   24.2439 O   0  0  0  0  0  0  0  0  0  0  0  0
  2  1  1  0
  3  2  1  0
  3  4  1  6
  5  3  1  0
  5  6  1  1
  7  8  2  0
  7  5  1  0
  9  7  1  0
 10  9  1  0
 11 12  1  0
 10 11  1  6
 12 13  1  0
 13 17  1  0
 13 14  2  0
 15 16  2  0
 15 10  1  0
 18 19  1  0
 20 21  1  0
 20 19  1  1
 21 15  1  0
 22 20  1  0
 23 22  1  0
 24 22  2  0
M  END
$$$$
