VVQ.pdb
     RDKit          3D

 24 23  0  0  1  0  0  0  0  0999 V2000
    7.9991  -15.9366   20.8459 C   0  0  0  0  0  0  0  0  0  0  0  0
    6.9235  -14.8507   20.7708 C   0  0  2  0  0  0  0  0  0  0  0  0
    6.4081  -14.8248   19.3405 C   0  0  0  0  0  0  0  0  0  0  0  0
    7.5122  -13.5076   21.1499 C   0  0  2  0  0  0  0  0  0  0  0  0
    8.5735  -13.2081   20.2220 N   0  0  0  0  0  0  0  0  0  0  0  0
    7.9891  -13.5902   22.5418 C   0  0  0  0  0  0  0  0  0  0  0  0
    9.1659  -13.9852   22.7417 O   0  0  0  0  0  0  0  0  0  0  0  0
    7.3056  -12.8676   27.3954 C   0  0  0  0  0  0  0  0  0  0  0  0
    6.8134  -12.7378   25.9737 C   0  0  1  0  0  0  0  0  0  0  0  0
    6.5990  -11.2895   25.6413 C   0  0  0  0  0  0  0  0  0  0  0  0
    7.7115  -13.4434   24.9919 C   0  0  2  0  0  0  0  0  0  0  0  0
    7.1962  -13.2495   23.6700 N   0  0  0  0  0  0  0  0  0  0  0  0
    7.8202  -14.9066   25.3335 C   0  0  0  0  0  0  0  0  0  0  0  0
    7.1591  -15.7684   24.7005 O   0  0  0  0  0  0  0  0  0  0  0  0
   11.0528  -17.8998   22.3550 N   0  0  0  0  0  0  0  0  0  0  0  0
   11.8207  -17.9389   23.5721 C   0  0  0  0  0  0  0  0  0  0  0  0
   13.0350  -18.0558   23.4357 O   0  0  0  0  0  0  0  0  0  0  0  0
   11.1104  -17.8408   24.8133 C   0  0  0  0  0  0  0  0  0  0  0  0
   10.1806  -16.7167   25.0123 C   0  0  0  0  0  0  0  0  0  0  0  0
    9.4338  -16.6068   26.2812 C   0  0  2  0  0  0  0  0  0  0  0  0
    8.6563  -15.3693   26.3639 N   0  0  0  0  0  0  0  0  0  0  0  0
   10.1483  -16.8377   27.5310 C   0  0  0  0  0  0  0  0  0  0  0  0
   10.3603  -18.0684   28.1343 O   0  0  0  0  0  0  0  0  0  0  0  0
   10.6376  -15.8275   28.1532 O   0  0  0  0  0  0  0  0  0  0  0  0
  2  1  1  6
  3  2  1  0
  4  2  1  0
  4  5  1  6
  6  7  2  0
  6  4  1  0
  9  8  1  1
  9 11  1  0
 10  9  1  0
 11 12  1  6
 12  6  1  0
 13 21  1  0
 13 11  1  0
 14 13  2  0
 16 15  1  0
 17 16  2  0
 18 16  1  0
 19 18  1  0
 20 19  1  6
 20 21  1  0
 20 22  1  0
 22 23  1  0
 24 22  2  0
M  END
$$$$
