VVQ.pdb
     RDKit          3D

 24 23  0  0  1  0  0  0  0  0999 V2000
    7.9603  -18.2382   21.2529 C   0  0  0  0  0  0  0  0  0  0  0  0
    8.3175  -17.4178   22.4943 C   0  0  2  0  0  0  0  0  0  0  0  0
    7.3833  -17.8586   23.6101 C   0  0  0  0  0  0  0  0  0  0  0  0
    8.1471  -15.9401   22.2088 C   0  0  2  0  0  0  0  0  0  0  0  0
    9.0600  -15.5818   21.1528 N   0  0  0  0  0  0  0  0  0  0  0  0
    8.4089  -15.1973   23.4544 C   0  0  0  0  0  0  0  0  0  0  0  0
    9.5971  -15.1188   23.8579 O   0  0  0  0  0  0  0  0  0  0  0  0
    6.8236  -12.3405   27.1797 C   0  0  0  0  0  0  0  0  0  0  0  0
    6.6227  -12.9581   25.8163 C   0  0  1  0  0  0  0  0  0  0  0  0
    6.4028  -11.8777   24.7974 C   0  0  0  0  0  0  0  0  0  0  0  0
    7.7371  -13.9015   25.4471 C   0  0  2  0  0  0  0  0  0  0  0  0
    7.3967  -14.5654   24.2249 N   0  0  0  0  0  0  0  0  0  0  0  0
    7.9856  -14.8859   26.5600 C   0  0  0  0  0  0  0  0  0  0  0  0
    7.3014  -15.9360   26.6582 O   0  0  0  0  0  0  0  0  0  0  0  0
   11.7005  -20.2448   27.6980 N   0  0  0  0  0  0  0  0  0  0  0  0
   10.8971  -19.1633   27.1909 C   0  0  0  0  0  0  0  0  0  0  0  0
   10.1550  -19.4412   26.2533 O   0  0  0  0  0  0  0  0  0  0  0  0
   11.0341  -17.8800   27.8148 C   0  0  0  0  0  0  0  0  0  0  0  0
   10.2566  -16.7470   27.2860 C   0  0  0  0  0  0  0  0  0  0  0  0
    9.6772  -15.7632   28.2220 C   0  0  2  0  0  0  0  0  0  0  0  0
    8.9826  -14.6772   27.5282 N   0  0  0  0  0  0  0  0  0  0  0  0
   10.5255  -15.2250   29.2787 C   0  0  0  0  0  0  0  0  0  0  0  0
   11.1687  -15.9608   30.2627 O   0  0  0  0  0  0  0  0  0  0  0  0
   10.7127  -13.9564   29.3283 O   0  0  0  0  0  0  0  0  0  0  0  0
  2  1  1  6
  3  2  1  0
  4  2  1  0
  4  5  1  6
  6  7  2  0
  6  4  1  0
  9  8  1  1
  9 11  1  0
 10  9  1  0
 11 12  1  6
 12  6  1  0
 13 21  1  0
 13 11  1  0
 14 13  2  0
 16 15  1  0
 17 16  2  0
 18 16  1  0
 19 18  1  0
 20 19  1  6
 20 21  1  0
 20 22  1  0
 22 23  1  0
 24 22  2  0
M  END
$$$$
