VVQ.pdb
     RDKit          3D

 24 23  0  0  1  0  0  0  0  0999 V2000
    4.3011  -20.0927   22.1579 C   0  0  0  0  0  0  0  0  0  0  0  0
    5.4646  -19.0987   22.1665 C   0  0  2  0  0  0  0  0  0  0  0  0
    5.1993  -18.1038   23.2854 C   0  0  0  0  0  0  0  0  0  0  0  0
    5.5528  -18.3887   20.8314 C   0  0  2  0  0  0  0  0  0  0  0  0
    5.7030  -19.3881   19.8039 N   0  0  0  0  0  0  0  0  0  0  0  0
    6.6932  -17.4566   20.8801 C   0  0  0  0  0  0  0  0  0  0  0  0
    7.8505  -17.9413   20.9618 O   0  0  0  0  0  0  0  0  0  0  0  0
    6.1807  -13.2530   21.2088 C   0  0  0  0  0  0  0  0  0  0  0  0
    7.3742  -13.8241   20.4809 C   0  0  1  0  0  0  0  0  0  0  0  0
    8.5272  -12.8664   20.5679 C   0  0  0  0  0  0  0  0  0  0  0  0
    7.7207  -15.2115   20.9532 C   0  0  2  0  0  0  0  0  0  0  0  0
    6.5604  -16.0430   20.8401 N   0  0  0  0  0  0  0  0  0  0  0  0
    8.2376  -15.1737   22.3677 C   0  0  0  0  0  0  0  0  0  0  0  0
    7.4611  -14.9637   23.3337 O   0  0  0  0  0  0  0  0  0  0  0  0
    7.6761  -18.1490   26.3587 N   0  0  0  0  0  0  0  0  0  0  0  0
    9.0710  -18.4784   26.2246 C   0  0  0  0  0  0  0  0  0  0  0  0
    9.4421  -19.4884   26.8156 O   0  0  0  0  0  0  0  0  0  0  0  0
    9.8885  -17.6116   25.4277 C   0  0  0  0  0  0  0  0  0  0  0  0
    9.2897  -16.3895   24.8659 C   0  0  0  0  0  0  0  0  0  0  0  0
   10.1145  -15.4931   24.0316 C   0  0  2  0  0  0  0  0  0  0  0  0
    9.5965  -15.3692   22.6679 N   0  0  0  0  0  0  0  0  0  0  0  0
   11.5576  -15.6993   24.0058 C   0  0  0  0  0  0  0  0  0  0  0  0
   12.3349  -15.8869   22.8726 O   0  0  0  0  0  0  0  0  0  0  0  0
   12.1950  -15.7134   25.1196 O   0  0  0  0  0  0  0  0  0  0  0  0
  2  1  1  6
  3  2  1  0
  4  2  1  0
  4  5  1  6
  6  7  2  0
  6  4  1  0
  9  8  1  1
  9 11  1  0
 10  9  1  0
 11 12  1  1
 12  6  1  0
 13 21  1  0
 13 11  1  0
 14 13  2  0
 16 15  1  0
 17 16  2  0
 18 16  1  0
 19 18  1  0
 20 19  1  6
 20 21  1  0
 20 22  1  0
 22 23  1  0
 24 22  2  0
M  END
$$$$
