VVQ.pdb
     RDKit          3D

 24 23  0  0  1  0  0  0  0  0999 V2000
    7.6999  -12.6949   20.4581 C   0  0  0  0  0  0  0  0  0  0  0  0
    8.6776  -13.5953   19.6996 C   0  0  2  0  0  0  0  0  0  0  0  0
    9.1014  -12.8456   18.4464 C   0  0  0  0  0  0  0  0  0  0  0  0
    8.0062  -14.9036   19.3368 C   0  0  2  0  0  0  0  0  0  0  0  0
    6.9273  -14.6138   18.4263 N   0  0  0  0  0  0  0  0  0  0  0  0
    7.5368  -15.5406   20.5801 C   0  0  0  0  0  0  0  0  0  0  0  0
    6.6169  -14.9749   21.2240 O   0  0  0  0  0  0  0  0  0  0  0  0
    6.7850  -19.3924   23.4206 C   0  0  0  0  0  0  0  0  0  0  0  0
    7.1422  -18.7062   22.1237 C   0  0  1  0  0  0  0  0  0  0  0  0
    6.0071  -18.8390   21.1502 C   0  0  0  0  0  0  0  0  0  0  0  0
    7.5777  -17.2798   22.3336 C   0  0  2  0  0  0  0  0  0  0  0  0
    8.0636  -16.7560   21.0927 N   0  0  0  0  0  0  0  0  0  0  0  0
    8.6245  -17.2013   23.4142 C   0  0  0  0  0  0  0  0  0  0  0  0
    9.8136  -17.5401   23.1873 O   0  0  0  0  0  0  0  0  0  0  0  0
    8.6232  -13.2987   28.3585 N   0  0  0  0  0  0  0  0  0  0  0  0
    9.5801  -14.2820   28.7941 C   0  0  0  0  0  0  0  0  0  0  0  0
   10.0744  -14.0944   29.9020 O   0  0  0  0  0  0  0  0  0  0  0  0
    9.8664  -15.3730   27.9096 C   0  0  0  0  0  0  0  0  0  0  0  0
    9.0819  -15.5074   26.6709 C   0  0  0  0  0  0  0  0  0  0  0  0
    9.3079  -16.6704   25.7899 C   0  0  2  0  0  0  0  0  0  0  0  0
    8.3222  -16.7506   24.7105 N   0  0  0  0  0  0  0  0  0  0  0  0
    9.4934  -17.9808   26.4016 C   0  0  0  0  0  0  0  0  0  0  0  0
   10.6954  -18.5110   26.8460 O   0  0  0  0  0  0  0  0  0  0  0  0
    8.4674  -18.7360   26.5561 O   0  0  0  0  0  0  0  0  0  0  0  0
  2  1  1  6
  3  2  1  0
  4  2  1  0
  4  5  1  6
  6  7  2  0
  6  4  1  0
  9  8  1  1
  9 11  1  0
 10  9  1  0
 11 12  1  6
 12  6  1  0
 13 21  1  0
 13 11  1  0
 14 13  2  0
 16 15  1  0
 17 16  2  0
 18 16  1  0
 19 18  1  0
 20 19  1  1
 20 21  1  0
 20 22  1  0
 22 23  1  0
 24 22  2  0
M  END
$$$$
