VVQ.pdb
     RDKit          3D

 24 23  0  0  1  0  0  0  0  0999 V2000
    7.8472  -12.5114   18.5056 C   0  0  0  0  0  0  0  0  0  0  0  0
    7.7141  -13.3825   19.7567 C   0  0  2  0  0  0  0  0  0  0  0  0
    8.5944  -12.7648   20.8318 C   0  0  0  0  0  0  0  0  0  0  0  0
    8.1565  -14.7992   19.4544 C   0  0  2  0  0  0  0  0  0  0  0  0
    7.2511  -15.3503   18.4779 N   0  0  0  0  0  0  0  0  0  0  0  0
    8.1548  -15.5612   20.7158 C   0  0  0  0  0  0  0  0  0  0  0  0
    7.0454  -15.8324   21.2418 O   0  0  0  0  0  0  0  0  0  0  0  0
   11.4579  -17.7490   22.1400 C   0  0  0  0  0  0  0  0  0  0  0  0
   10.0192  -17.9773   22.5381 C   0  0  1  0  0  0  0  0  0  0  0  0
    9.9648  -18.7867   23.8014 C   0  0  0  0  0  0  0  0  0  0  0  0
    9.2400  -16.6915   22.6253 C   0  0  2  0  0  0  0  0  0  0  0  0
    9.3336  -16.0067   21.3712 N   0  0  0  0  0  0  0  0  0  0  0  0
    9.7509  -15.8408   23.7588 C   0  0  0  0  0  0  0  0  0  0  0  0
   10.2546  -14.7096   23.5413 O   0  0  0  0  0  0  0  0  0  0  0  0
    5.9960  -12.8760   25.4697 N   0  0  0  0  0  0  0  0  0  0  0  0
    6.6826  -12.6987   26.7225 C   0  0  0  0  0  0  0  0  0  0  0  0
    6.2244  -11.8371   27.4672 O   0  0  0  0  0  0  0  0  0  0  0  0
    7.8215  -13.5292   26.9833 C   0  0  0  0  0  0  0  0  0  0  0  0
    8.2425  -14.4990   25.9587 C   0  0  0  0  0  0  0  0  0  0  0  0
    9.4025  -15.3744   26.2193 C   0  0  2  0  0  0  0  0  0  0  0  0
    9.6884  -16.2685   25.0960 N   0  0  0  0  0  0  0  0  0  0  0  0
    9.4483  -16.1129   27.4756 C   0  0  0  0  0  0  0  0  0  0  0  0
   10.1369  -15.7359   28.6190 O   0  0  0  0  0  0  0  0  0  0  0  0
    8.8012  -17.2178   27.5613 O   0  0  0  0  0  0  0  0  0  0  0  0
  2  1  1  6
  3  2  1  0
  4  2  1  0
  4  5  1  6
  6  7  2  0
  6  4  1  0
  9  8  1  1
  9 11  1  0
 10  9  1  0
 11 12  1  6
 12  6  1  0
 13 21  1  0
 13 11  1  0
 14 13  2  0
 16 15  1  0
 17 16  2  0
 18 16  1  0
 19 18  1  0
 20 19  1  6
 20 21  1  0
 20 22  1  0
 22 23  1  0
 24 22  2  0
M  END
$$$$
