VVQ.pdb
     RDKit          3D

 24 23  0  0  1  0  0  0  0  0999 V2000
    7.7914  -15.9173   20.8482 C   0  0  0  0  0  0  0  0  0  0  0  0
    6.6670  -14.8860   20.9653 C   0  0  2  0  0  0  0  0  0  0  0  0
    5.9571  -14.8385   19.6214 C   0  0  0  0  0  0  0  0  0  0  0  0
    7.2401  -13.5279   21.3138 C   0  0  2  0  0  0  0  0  0  0  0  0
    8.0818  -13.1058   20.2227 N   0  0  0  0  0  0  0  0  0  0  0  0
    7.9825  -13.6529   22.5807 C   0  0  0  0  0  0  0  0  0  0  0  0
    9.2025  -13.9516   22.5247 O   0  0  0  0  0  0  0  0  0  0  0  0
    7.5522  -11.3073   25.8822 C   0  0  0  0  0  0  0  0  0  0  0  0
    7.5557  -12.7931   26.1525 C   0  0  1  0  0  0  0  0  0  0  0  0
    6.1616  -13.2553   26.4636 C   0  0  0  0  0  0  0  0  0  0  0  0
    8.2034  -13.5743   25.0397 C   0  0  2  0  0  0  0  0  0  0  0  0
    7.3994  -13.4553   23.8608 N   0  0  0  0  0  0  0  0  0  0  0  0
    8.3843  -15.0147   25.4420 C   0  0  0  0  0  0  0  0  0  0  0  0
    7.4495  -15.8447   25.3092 O   0  0  0  0  0  0  0  0  0  0  0  0
   11.9305  -16.1937   23.3593 N   0  0  0  0  0  0  0  0  0  0  0  0
   11.2725  -17.4652   23.2083 C   0  0  0  0  0  0  0  0  0  0  0  0
   11.1283  -17.8600   22.0549 O   0  0  0  0  0  0  0  0  0  0  0  0
   10.8505  -18.1443   24.3980 C   0  0  0  0  0  0  0  0  0  0  0  0
   11.0029  -17.4649   25.6953 C   0  0  0  0  0  0  0  0  0  0  0  0
    9.8164  -16.8868   26.3570 C   0  0  2  0  0  0  0  0  0  0  0  0
    9.5930  -15.4905   25.9782 N   0  0  0  0  0  0  0  0  0  0  0  0
    9.6779  -17.0461   27.7997 C   0  0  0  0  0  0  0  0  0  0  0  0
    9.4556  -18.2391   28.4712 O   0  0  0  0  0  0  0  0  0  0  0  0
    9.7651  -16.0035   28.5428 O   0  0  0  0  0  0  0  0  0  0  0  0
  2  1  1  6
  3  2  1  0
  4  2  1  0
  4  5  1  6
  6  7  2  0
  6  4  1  0
  9  8  1  6
  9 11  1  0
 10  9  1  0
 11 12  1  6
 12  6  1  0
 13 21  1  0
 13 11  1  0
 14 13  2  0
 16 15  1  0
 17 16  2  0
 18 16  1  0
 19 18  1  0
 20 19  1  1
 20 21  1  0
 20 22  1  0
 22 23  1  0
 24 22  2  0
M  END
$$$$
