VVQ.pdb
     RDKit          3D

 24 23  0  0  1  0  0  0  0  0999 V2000
    7.1849  -13.1316   20.8693 C   0  0  0  0  0  0  0  0  0  0  0  0
    8.3013  -13.4370   19.8683 C   0  0  2  0  0  0  0  0  0  0  0  0
    8.0118  -12.6327   18.6108 C   0  0  0  0  0  0  0  0  0  0  0  0
    8.3314  -14.9193   19.5581 C   0  0  2  0  0  0  0  0  0  0  0  0
    7.1515  -15.2391   18.7947 N   0  0  0  0  0  0  0  0  0  0  0  0
    8.3925  -15.6554   20.8333 C   0  0  0  0  0  0  0  0  0  0  0  0
    7.3179  -15.8496   21.4566 O   0  0  0  0  0  0  0  0  0  0  0  0
   10.5508  -18.6842   23.9946 C   0  0  0  0  0  0  0  0  0  0  0  0
   10.5416  -17.9396   22.6808 C   0  0  1  0  0  0  0  0  0  0  0  0
   10.3067  -18.9029   21.5535 C   0  0  0  0  0  0  0  0  0  0  0  0
    9.5731  -16.7863   22.6850 C   0  0  2  0  0  0  0  0  0  0  0  0
    9.5948  -16.1580   21.3985 N   0  0  0  0  0  0  0  0  0  0  0  0
    9.9172  -15.8123   23.7815 C   0  0  0  0  0  0  0  0  0  0  0  0
   10.3386  -14.6589   23.5121 O   0  0  0  0  0  0  0  0  0  0  0  0
    6.2884  -12.3678   25.2671 N   0  0  0  0  0  0  0  0  0  0  0  0
    6.8368  -12.4857   26.5929 C   0  0  0  0  0  0  0  0  0  0  0  0
    6.1419  -12.0402   27.5015 O   0  0  0  0  0  0  0  0  0  0  0  0
    8.1240  -13.1013   26.7309 C   0  0  0  0  0  0  0  0  0  0  0  0
    8.5047  -14.1690   25.7914 C   0  0  0  0  0  0  0  0  0  0  0  0
    9.5209  -15.1620   26.1926 C   0  0  2  0  0  0  0  0  0  0  0  0
    9.7840  -16.1452   25.1403 N   0  0  0  0  0  0  0  0  0  0  0  0
    9.3709  -15.8297   27.4800 C   0  0  0  0  0  0  0  0  0  0  0  0
    8.9511  -17.1367   27.6773 O   0  0  0  0  0  0  0  0  0  0  0  0
    9.6453  -15.1721   28.5474 O   0  0  0  0  0  0  0  0  0  0  0  0
  2  1  1  1
  3  2  1  0
  4  2  1  0
  4  5  1  1
  6  7  2  0
  6  4  1  0
  9  8  1  1
  9 11  1  0
 10  9  1  0
 11 12  1  6
 12  6  1  0
 13 21  1  0
 13 11  1  0
 14 13  2  0
 16 15  1  0
 17 16  2  0
 18 16  1  0
 19 18  1  0
 20 19  1  6
 20 21  1  0
 20 22  1  0
 22 23  1  0
 24 22  2  0
M  END
$$$$
