VVQ.pdb
     RDKit          3D

 24 23  0  0  1  0  0  0  0  0999 V2000
    6.3479  -15.2880   19.7653 C   0  0  0  0  0  0  0  0  0  0  0  0
    6.8679  -14.4981   20.9684 C   0  0  2  0  0  0  0  0  0  0  0  0
    7.8108  -13.4316   20.4341 C   0  0  0  0  0  0  0  0  0  0  0  0
    7.5945  -15.4223   21.9234 C   0  0  2  0  0  0  0  0  0  0  0  0
    6.6598  -16.4226   22.3739 N   0  0  0  0  0  0  0  0  0  0  0  0
    8.1281  -14.6115   23.0323 C   0  0  0  0  0  0  0  0  0  0  0  0
    9.1277  -13.8834   22.8053 O   0  0  0  0  0  0  0  0  0  0  0  0
    7.6637  -12.5932   27.5012 C   0  0  0  0  0  0  0  0  0  0  0  0
    7.1107  -13.4189   26.3641 C   0  0  1  0  0  0  0  0  0  0  0  0
    5.9406  -12.7105   25.7453 C   0  0  0  0  0  0  0  0  0  0  0  0
    8.1712  -13.7951   25.3632 C   0  0  2  0  0  0  0  0  0  0  0  0
    7.5785  -14.6052   24.3421 N   0  0  0  0  0  0  0  0  0  0  0  0
    9.3095  -14.5095   26.0440 C   0  0  0  0  0  0  0  0  0  0  0  0
    9.8428  -14.0355   27.0790 O   0  0  0  0  0  0  0  0  0  0  0  0
   10.9212  -19.0607   29.2856 N   0  0  0  0  0  0  0  0  0  0  0  0
    9.5977  -18.9725   28.7260 C   0  0  0  0  0  0  0  0  0  0  0  0
    8.8386  -19.8982   28.9976 O   0  0  0  0  0  0  0  0  0  0  0  0
    9.2904  -17.8317   27.9143 C   0  0  0  0  0  0  0  0  0  0  0  0
   10.3399  -16.8272   27.6750 C   0  0  0  0  0  0  0  0  0  0  0  0
   10.7803  -16.5510   26.2932 C   0  0  2  0  0  0  0  0  0  0  0  0
    9.8211  -15.7249   25.5580 N   0  0  0  0  0  0  0  0  0  0  0  0
   11.2202  -17.6688   25.4668 C   0  0  0  0  0  0  0  0  0  0  0  0
   12.3104  -18.4889   25.7169 O   0  0  0  0  0  0  0  0  0  0  0  0
   10.5569  -17.9432   24.4031 O   0  0  0  0  0  0  0  0  0  0  0  0
  2  1  1  6
  3  2  1  0
  4  2  1  0
  4  5  1  1
  6  7  2  0
  6  4  1  0
  9  8  1  1
  9 11  1  0
 10  9  1  0
 11 12  1  6
 12  6  1  0
 13 21  1  0
 13 11  1  0
 14 13  2  0
 16 15  1  0
 17 16  2  0
 18 16  1  0
 19 18  1  0
 20 19  1  1
 20 21  1  0
 20 22  1  0
 22 23  1  0
 24 22  2  0
M  END
$$$$
