VVQ.pdb
     RDKit          3D

 24 23  0  0  1  0  0  0  0  0999 V2000
    6.7207  -11.1728   27.1029 C   0  0  0  0  0  0  0  0  0  0  0  0
    7.2325  -12.4186   26.3763 C   0  0  2  0  0  0  0  0  0  0  0  0
    8.3815  -11.9790   25.4825 C   0  0  0  0  0  0  0  0  0  0  0  0
    6.1210  -13.0341   25.5518 C   0  0  2  0  0  0  0  0  0  0  0  0
    5.1515  -13.5953   26.4586 N   0  0  0  0  0  0  0  0  0  0  0  0
    6.7145  -14.0498   24.6642 C   0  0  0  0  0  0  0  0  0  0  0  0
    7.0173  -15.1648   25.1601 O   0  0  0  0  0  0  0  0  0  0  0  0
    8.2031  -13.1240   20.7902 C   0  0  0  0  0  0  0  0  0  0  0  0
    7.5779  -14.4722   21.0587 C   0  0  1  0  0  0  0  0  0  0  0  0
    8.1924  -15.5046   20.1584 C   0  0  0  0  0  0  0  0  0  0  0  0
    7.6356  -14.8483   22.5158 C   0  0  2  0  0  0  0  0  0  0  0  0
    6.9640  -13.8418   23.2814 N   0  0  0  0  0  0  0  0  0  0  0  0
    9.0648  -15.0189   22.9605 C   0  0  0  0  0  0  0  0  0  0  0  0
    9.6909  -14.0715   23.4997 O   0  0  0  0  0  0  0  0  0  0  0  0
    9.0370  -18.7919   27.0678 N   0  0  0  0  0  0  0  0  0  0  0  0
   10.4476  -18.5102   27.1251 C   0  0  0  0  0  0  0  0  0  0  0  0
   11.0276  -18.8839   28.1403 O   0  0  0  0  0  0  0  0  0  0  0  0
   11.0384  -17.8287   26.0109 C   0  0  0  0  0  0  0  0  0  0  0  0
   10.1662  -17.3625   24.9202 C   0  0  0  0  0  0  0  0  0  0  0  0
   10.7662  -16.7224   23.7327 C   0  0  2  0  0  0  0  0  0  0  0  0
    9.7552  -16.2316   22.7946 N   0  0  0  0  0  0  0  0  0  0  0  0
   11.8166  -17.4345   23.0147 C   0  0  0  0  0  0  0  0  0  0  0  0
   13.1519  -17.5063   23.3826 O   0  0  0  0  0  0  0  0  0  0  0  0
   11.5069  -18.0623   21.9392 O   0  0  0  0  0  0  0  0  0  0  0  0
  2  1  1  6
  3  2  1  0
  4  2  1  0
  4  5  1  1
  6  7  2  0
  6  4  1  0
  9  8  1  1
  9 11  1  0
 10  9  1  0
 11 12  1  1
 12  6  1  0
 13 21  1  0
 13 11  1  0
 14 13  2  0
 16 15  1  0
 17 16  2  0
 18 16  1  0
 19 18  1  0
 20 19  1  1
 20 21  1  0
 20 22  1  0
 22 23  1  0
 24 22  2  0
M  END
$$$$
