VVQ.pdb
     RDKit          3D

 24 23  0  0  1  0  0  0  0  0999 V2000
    9.7174  -19.3622   18.3486 C   0  0  0  0  0  0  0  0  0  0  0  0
    8.2656  -18.9585   18.0821 C   0  0  2  0  0  0  0  0  0  0  0  0
    7.6810  -19.9848   17.1243 C   0  0  0  0  0  0  0  0  0  0  0  0
    8.2138  -17.5720   17.4746 C   0  0  2  0  0  0  0  0  0  0  0  0
    8.9712  -17.5937   16.2486 N   0  0  0  0  0  0  0  0  0  0  0  0
    8.7604  -16.6185   18.4563 C   0  0  0  0  0  0  0  0  0  0  0  0
    9.9955  -16.3844   18.4296 O   0  0  0  0  0  0  0  0  0  0  0  0
    8.0475  -13.3665   22.1306 C   0  0  0  0  0  0  0  0  0  0  0  0
    7.5301  -14.1628   20.9564 C   0  0  1  0  0  0  0  0  0  0  0  0
    6.8932  -13.2393   19.9586 C   0  0  0  0  0  0  0  0  0  0  0  0
    8.5911  -15.0449   20.3528 C   0  0  2  0  0  0  0  0  0  0  0  0
    7.9728  -15.9490   19.4304 N   0  0  0  0  0  0  0  0  0  0  0  0
    9.3403  -15.7827   21.4315 C   0  0  0  0  0  0  0  0  0  0  0  0
    8.8394  -16.7902   21.9923 O   0  0  0  0  0  0  0  0  0  0  0  0
   16.1264  -16.5226   24.4459 N   0  0  0  0  0  0  0  0  0  0  0  0
   15.2477  -16.2890   23.3298 C   0  0  0  0  0  0  0  0  0  0  0  0
   15.7830  -15.8821   22.3027 O   0  0  0  0  0  0  0  0  0  0  0  0
   13.8499  -16.5467   23.5149 C   0  0  0  0  0  0  0  0  0  0  0  0
   12.8828  -15.8962   22.6152 C   0  0  0  0  0  0  0  0  0  0  0  0
   11.4396  -16.1529   22.7913 C   0  0  2  0  0  0  0  0  0  0  0  0
   10.6191  -15.3826   21.8551 N   0  0  0  0  0  0  0  0  0  0  0  0
   10.8782  -16.0760   24.1347 C   0  0  0  0  0  0  0  0  0  0  0  0
   10.1275  -15.0281   24.6465 O   0  0  0  0  0  0  0  0  0  0  0  0
   11.0809  -17.0537   24.9409 O   0  0  0  0  0  0  0  0  0  0  0  0
  2  1  1  6
  3  2  1  0
  4  2  1  0
  4  5  1  6
  6  7  2  0
  6  4  1  0
  9  8  1  1
  9 11  1  0
 10  9  1  0
 11 12  1  6
 12  6  1  0
 13 21  1  0
 13 11  1  0
 14 13  2  0
 16 15  1  0
 17 16  2  0
 18 16  1  0
 19 18  1  0
 20 19  1  1
 20 21  1  0
 20 22  1  0
 22 23  1  0
 24 22  2  0
M  END
$$$$
