VVQ.pdb
     RDKit          3D

 24 23  0  0  1  0  0  0  0  0999 V2000
    8.2865  -19.3493   18.9546 C   0  0  0  0  0  0  0  0  0  0  0  0
    7.2208  -18.4232   18.3643 C   0  0  2  0  0  0  0  0  0  0  0  0
    6.4438  -19.2286   17.3349 C   0  0  0  0  0  0  0  0  0  0  0  0
    7.8764  -17.2212   17.7165 C   0  0  2  0  0  0  0  0  0  0  0  0
    8.7514  -17.6977   16.6752 N   0  0  0  0  0  0  0  0  0  0  0  0
    8.5998  -16.4732   18.7601 C   0  0  0  0  0  0  0  0  0  0  0  0
    9.7959  -16.7850   18.9901 O   0  0  0  0  0  0  0  0  0  0  0  0
    8.1282  -12.5519   19.5513 C   0  0  0  0  0  0  0  0  0  0  0  0
    8.1936  -13.4056   20.7953 C   0  0  1  0  0  0  0  0  0  0  0  0
    6.8355  -13.4807   21.4308 C   0  0  0  0  0  0  0  0  0  0  0  0
    8.7972  -14.7591   20.5278 C   0  0  2  0  0  0  0  0  0  0  0  0
    8.0238  -15.4208   19.5206 N   0  0  0  0  0  0  0  0  0  0  0  0
    8.8605  -15.5688   21.7966 C   0  0  0  0  0  0  0  0  0  0  0  0
    7.9408  -16.3714   22.0972 O   0  0  0  0  0  0  0  0  0  0  0  0
   10.5903  -20.8972   21.8342 N   0  0  0  0  0  0  0  0  0  0  0  0
   11.6963  -20.0590   22.2170 C   0  0  0  0  0  0  0  0  0  0  0  0
   12.7899  -20.3711   21.7551 O   0  0  0  0  0  0  0  0  0  0  0  0
   11.4264  -18.9544   23.0898 C   0  0  0  0  0  0  0  0  0  0  0  0
   10.8239  -17.7350   22.5261 C   0  0  0  0  0  0  0  0  0  0  0  0
   10.5004  -16.6044   23.4188 C   0  0  2  0  0  0  0  0  0  0  0  0
    9.9387  -15.4645   22.6919 N   0  0  0  0  0  0  0  0  0  0  0  0
   11.5154  -16.1502   24.3618 C   0  0  0  0  0  0  0  0  0  0  0  0
   11.6401  -16.5532   25.6830 O   0  0  0  0  0  0  0  0  0  0  0  0
   12.3877  -15.2987   23.9608 O   0  0  0  0  0  0  0  0  0  0  0  0
  2  1  1  6
  3  2  1  0
  4  2  1  0
  4  5  1  6
  6  7  2  0
  6  4  1  0
  9  8  1  6
  9 11  1  0
 10  9  1  0
 11 12  1  6
 12  6  1  0
 13 21  1  0
 13 11  1  0
 14 13  2  0
 16 15  1  0
 17 16  2  0
 18 16  1  0
 19 18  1  0
 20 19  1  6
 20 21  1  0
 20 22  1  0
 22 23  1  0
 24 22  2  0
M  END
$$$$
