IMK.pdb
     RDKit          3D

 26 25  0  0  1  0  0  0  0  0999 V2000
   14.1158   -9.4416  -17.5869 C   0  0  0  0  0  0  0  0  0  0  0  0
   15.6097   -9.7032  -17.3533 C   0  0  0  0  0  0  0  0  0  0  0  0
   15.8331   -9.5396  -15.8702 C   0  0  2  0  0  0  0  0  0  0  0  0
   15.5412   -8.0931  -15.5214 C   0  0  0  0  0  0  0  0  0  0  0  0
   17.2304   -9.8546  -15.4391 C   0  0  2  0  0  0  0  0  0  0  0  0
   17.5559  -11.2064  -15.8025 N   0  0  0  0  0  0  0  0  0  0  0  0
   17.5214   -9.6043  -14.0293 C   0  0  0  0  0  0  0  0  0  0  0  0
   17.1963  -10.4743  -13.1732 O   0  0  0  0  0  0  0  0  0  0  0  0
   22.8445   -9.0431  -10.6118 C   0  0  0  0  0  0  0  0  0  0  0  0
   22.1242   -7.3591  -10.6798 S   0  0  0  0  0  0  0  0  0  0  0  0
   20.2958   -7.6030  -10.5963 C   0  0  0  0  0  0  0  0  0  0  0  0
   19.8688   -7.9346  -11.9909 C   0  0  0  0  0  0  0  0  0  0  0  0
   18.3994   -8.2370  -12.0777 C   0  0  2  0  0  0  0  0  0  0  0  0
   18.1506   -8.4439  -13.5303 N   0  0  0  0  0  0  0  0  0  0  0  0
   17.5022   -7.1722  -11.5820 C   0  0  0  0  0  0  0  0  0  0  0  0
   17.3166   -6.1091  -12.2704 O   0  0  0  0  0  0  0  0  0  0  0  0
   16.8052   -7.2418  -10.3730 N   0  0  0  0  0  0  0  0  0  0  0  0
   15.9000   -6.1217   -9.9237 C   0  0  1  0  0  0  0  0  0  0  0  0
   14.8590   -6.8509   -9.1554 C   0  0  0  0  0  0  0  0  0  0  0  0
   13.7383   -6.1960   -8.4980 C   0  0  0  0  0  0  0  0  0  0  0  0
   12.7154   -6.9494   -7.7548 C   0  0  0  0  0  0  0  0  0  0  0  0
   11.5580   -6.1291   -7.2350 C   0  0  0  0  0  0  0  0  0  0  0  0
   10.5963   -6.8802   -6.4894 N   0  0  0  0  0  0  0  0  0  0  0  0
   16.7852   -5.2215   -9.1967 C   0  0  0  0  0  0  0  0  0  0  0  0
   16.4761   -3.8813   -9.0352 O   0  0  0  0  0  0  0  0  0  0  0  0
   17.8553   -5.6008   -8.6885 O   0  0  0  0  0  0  0  0  0  0  0  0
  2  1  1  0
  3  5  1  0
  3  2  1  0
  3  4  1  6
  5  6  1  1
  7  8  2  0
  7  5  1  0
 10  9  1  0
 11 10  1  0
 12 11  1  0
 13 12  1  6
 13 14  1  0
 14  7  1  0
 15 16  2  0
 15 13  1  0
 17 15  1  0
 18 17  1  0
 18 24  1  0
 18 19  1  1
 20 19  1  0
 21 20  1  0
 22 21  1  0
 22 23  1  0
 24 25  1  0
 26 24  2  0
M  END
$$$$
