IMK.pdb
     RDKit          3D

 26 25  0  0  1  0  0  0  0  0999 V2000
   19.1098  -15.9016  -16.3746 C   0  0  0  0  0  0  0  0  0  0  0  0
   19.4324  -14.7031  -17.2768 C   0  0  0  0  0  0  0  0  0  0  0  0
   19.9858  -13.6348  -16.3662 C   0  0  2  0  0  0  0  0  0  0  0  0
   18.9233  -13.3228  -15.3303 C   0  0  0  0  0  0  0  0  0  0  0  0
   20.3354  -12.3665  -17.0780 C   0  0  2  0  0  0  0  0  0  0  0  0
   21.3009  -12.6395  -18.1071 N   0  0  0  0  0  0  0  0  0  0  0  0
   20.7768  -11.2692  -16.2203 C   0  0  0  0  0  0  0  0  0  0  0  0
   20.0325  -10.8977  -15.2697 O   0  0  0  0  0  0  0  0  0  0  0  0
   26.5500   -9.9304  -16.4015 C   0  0  0  0  0  0  0  0  0  0  0  0
   26.1968  -10.4324  -14.6746 S   0  0  0  0  0  0  0  0  0  0  0  0
   24.3559  -10.5045  -14.5506 C   0  0  0  0  0  0  0  0  0  0  0  0
   23.8480   -9.4260  -15.4540 C   0  0  0  0  0  0  0  0  0  0  0  0
   22.3469   -9.4005  -15.5192 C   0  0  2  0  0  0  0  0  0  0  0  0
   21.9946  -10.5716  -16.3671 N   0  0  0  0  0  0  0  0  0  0  0  0
   21.7584   -8.1815  -16.1126 C   0  0  0  0  0  0  0  0  0  0  0  0
   22.0700   -7.8246  -17.3017 O   0  0  0  0  0  0  0  0  0  0  0  0
   20.8437   -7.3576  -15.4517 N   0  0  0  0  0  0  0  0  0  0  0  0
   20.2834   -6.1211  -16.1098 C   0  0  1  0  0  0  0  0  0  0  0  0
   18.8715   -6.5108  -16.3554 C   0  0  0  0  0  0  0  0  0  0  0  0
   18.3110   -6.7076  -17.6836 C   0  0  0  0  0  0  0  0  0  0  0  0
   16.9358   -7.1893  -17.8914 C   0  0  0  0  0  0  0  0  0  0  0  0
   16.5894   -7.5636  -19.3135 C   0  0  0  0  0  0  0  0  0  0  0  0
   15.3135   -8.1928  -19.4590 N   0  0  0  0  0  0  0  0  0  0  0  0
   20.5449   -5.0589  -15.1476 C   0  0  0  0  0  0  0  0  0  0  0  0
   21.2455   -5.3021  -13.9782 O   0  0  0  0  0  0  0  0  0  0  0  0
   20.1569   -3.8897  -15.3194 O   0  0  0  0  0  0  0  0  0  0  0  0
  2  1  1  0
  3  5  1  0
  3  2  1  0
  3  4  1  1
  5  6  1  6
  7  8  2  0
  7  5  1  0
 10  9  1  0
 11 10  1  0
 12 11  1  0
 13 12  1  6
 13 14  1  0
 14  7  1  0
 15 16  2  0
 15 13  1  0
 17 15  1  0
 18 17  1  0
 18 24  1  0
 18 19  1  1
 20 19  1  0
 21 20  1  0
 22 21  1  0
 22 23  1  0
 24 25  1  0
 26 24  2  0
M  END
$$$$
