IMK.pdb
     RDKit          3D

 26 25  0  0  1  0  0  0  0  0999 V2000
   19.3364  -16.3225  -20.9952 C   0  0  0  0  0  0  0  0  0  0  0  0
   20.2770  -15.4495  -20.1539 C   0  0  0  0  0  0  0  0  0  0  0  0
   19.4796  -14.2263  -19.7741 C   0  0  2  0  0  0  0  0  0  0  0  0
   19.0968  -13.5146  -21.0572 C   0  0  0  0  0  0  0  0  0  0  0  0
   20.2349  -13.2661  -18.9110 C   0  0  2  0  0  0  0  0  0  0  0  0
   20.7908  -13.9629  -17.7836 N   0  0  0  0  0  0  0  0  0  0  0  0
   19.4857  -12.0869  -18.4834 C   0  0  0  0  0  0  0  0  0  0  0  0
   18.9125  -11.3760  -19.3561 O   0  0  0  0  0  0  0  0  0  0  0  0
   16.7721  -13.0624  -13.7668 C   0  0  0  0  0  0  0  0  0  0  0  0
   15.6210  -11.8445  -14.5089 S   0  0  0  0  0  0  0  0  0  0  0  0
   16.4539  -11.2556  -16.0481 C   0  0  0  0  0  0  0  0  0  0  0  0
   17.7933  -10.7508  -15.6142 C   0  0  0  0  0  0  0  0  0  0  0  0
   18.6686  -10.3890  -16.7808 C   0  0  2  0  0  0  0  0  0  0  0  0
   19.3442  -11.6642  -17.1444 N   0  0  0  0  0  0  0  0  0  0  0  0
   19.6947   -9.3605  -16.5091 C   0  0  0  0  0  0  0  0  0  0  0  0
   20.7970   -9.6793  -15.9419 O   0  0  0  0  0  0  0  0  0  0  0  0
   19.5526   -8.0115  -16.8444 N   0  0  0  0  0  0  0  0  0  0  0  0
   20.5365   -6.9751  -16.3609 C   0  0  1  0  0  0  0  0  0  0  0  0
   20.3085   -5.8596  -17.3145 C   0  0  0  0  0  0  0  0  0  0  0  0
   20.9271   -4.5494  -17.1820 C   0  0  0  0  0  0  0  0  0  0  0  0
   20.7035   -3.4735  -18.1612 C   0  0  0  0  0  0  0  0  0  0  0  0
   21.3900   -2.1638  -17.8513 C   0  0  0  0  0  0  0  0  0  0  0  0
   21.1282   -1.1267  -18.8006 N   0  0  0  0  0  0  0  0  0  0  0  0
   20.1755   -6.7690  -14.9646 C   0  0  0  0  0  0  0  0  0  0  0  0
   21.0825   -6.2527  -14.0543 O   0  0  0  0  0  0  0  0  0  0  0  0
   19.0478   -7.0432  -14.5171 O   0  0  0  0  0  0  0  0  0  0  0  0
  2  1  1  0
  3  5  1  0
  3  2  1  0
  3  4  1  6
  5  6  1  1
  7  8  2  0
  7  5  1  0
 10  9  1  0
 11 10  1  0
 12 11  1  0
 13 12  1  1
 13 14  1  0
 14  7  1  0
 15 16  2  0
 15 13  1  0
 17 15  1  0
 18 17  1  0
 18 24  1  0
 18 19  1  6
 20 19  1  0
 21 20  1  0
 22 21  1  0
 22 23  1  0
 24 25  1  0
 26 24  2  0
M  END
$$$$
