IMK.pdb
     RDKit          3D

 26 25  0  0  1  0  0  0  0  0999 V2000
   28.2500  -20.2630   -4.4751 C   0  0  0  0  0  0  0  0  0  0  0  0
   26.9613  -20.4003   -5.2968 C   0  0  0  0  0  0  0  0  0  0  0  0
   27.3519  -20.1341   -6.7296 C   0  0  2  0  0  0  0  0  0  0  0  0
   27.8865  -18.7170   -6.8011 C   0  0  0  0  0  0  0  0  0  0  0  0
   26.2125  -20.2560   -7.6911 C   0  0  2  0  0  0  0  0  0  0  0  0
   25.4772  -21.4607   -7.4198 N   0  0  0  0  0  0  0  0  0  0  0  0
   26.5742  -20.1674   -9.1038 C   0  0  0  0  0  0  0  0  0  0  0  0
   26.3284  -19.1000   -9.7330 O   0  0  0  0  0  0  0  0  0  0  0  0
   31.5537  -23.2105  -10.6952 C   0  0  0  0  0  0  0  0  0  0  0  0
   31.3725  -21.4944  -10.0777 S   0  0  0  0  0  0  0  0  0  0  0  0
   30.1260  -20.7024  -11.1861 C   0  0  0  0  0  0  0  0  0  0  0  0
   28.9979  -21.6791  -11.2876 C   0  0  0  0  0  0  0  0  0  0  0  0
   27.6564  -21.0033  -11.2438 C   0  0  2  0  0  0  0  0  0  0  0  0
   27.1906  -21.1988   -9.8439 N   0  0  0  0  0  0  0  0  0  0  0  0
   26.6413  -21.5477  -12.1699 C   0  0  0  0  0  0  0  0  0  0  0  0
   26.0670  -22.6636  -11.9181 O   0  0  0  0  0  0  0  0  0  0  0  0
   26.2367  -20.9083  -13.3446 N   0  0  0  0  0  0  0  0  0  0  0  0
   24.9300  -21.2527  -14.0152 C   0  0  1  0  0  0  0  0  0  0  0  0
   23.9664  -21.1564  -12.8892 C   0  0  0  0  0  0  0  0  0  0  0  0
   22.5993  -21.6497  -12.9565 C   0  0  0  0  0  0  0  0  0  0  0  0
   21.4434  -20.8076  -12.6081 C   0  0  0  0  0  0  0  0  0  0  0  0
   20.3649  -21.4915  -11.8007 C   0  0  0  0  0  0  0  0  0  0  0  0
   19.2750  -20.6390  -11.4392 N   0  0  0  0  0  0  0  0  0  0  0  0
   24.8211  -20.2827  -15.0967 C   0  0  0  0  0  0  0  0  0  0  0  0
   25.5202  -19.0876  -15.0662 O   0  0  0  0  0  0  0  0  0  0  0  0
   24.1019  -20.4700  -16.0941 O   0  0  0  0  0  0  0  0  0  0  0  0
  2  1  1  0
  3  5  1  0
  3  2  1  0
  3  4  1  1
  5  6  1  6
  7  8  2  0
  7  5  1  0
 10  9  1  0
 11 10  1  0
 12 11  1  0
 13 12  1  1
 13 14  1  0
 14  7  1  0
 15 16  2  0
 15 13  1  0
 17 15  1  0
 18 17  1  0
 18 24  1  0
 18 19  1  1
 20 19  1  0
 21 20  1  0
 22 21  1  0
 22 23  1  0
 24 25  1  0
 26 24  2  0
M  END
$$$$
