IMK.pdb
     RDKit          3D

 26 25  0  0  1  0  0  0  0  0999 V2000
   20.8648  -19.2671  -15.0271 C   0  0  0  0  0  0  0  0  0  0  0  0
   22.2629  -19.1932  -14.3989 C   0  0  0  0  0  0  0  0  0  0  0  0
   22.2000  -20.0311  -13.1457 C   0  0  2  0  0  0  0  0  0  0  0  0
   21.0845  -19.4763  -12.2813 C   0  0  0  0  0  0  0  0  0  0  0  0
   23.4663  -20.0103  -12.3499 C   0  0  2  0  0  0  0  0  0  0  0  0
   24.5722  -20.3789  -13.1905 N   0  0  0  0  0  0  0  0  0  0  0  0
   23.4483  -20.8066  -11.1250 C   0  0  0  0  0  0  0  0  0  0  0  0
   23.4458  -22.0666  -11.2139 O   0  0  0  0  0  0  0  0  0  0  0  0
   26.6908  -19.4855   -5.5568 C   0  0  0  0  0  0  0  0  0  0  0  0
   26.7817  -19.2287   -7.3692 S   0  0  0  0  0  0  0  0  0  0  0  0
   25.8490  -20.6383   -8.1127 C   0  0  0  0  0  0  0  0  0  0  0  0
   24.4284  -20.4534   -7.6830 C   0  0  0  0  0  0  0  0  0  0  0  0
   23.4621  -21.1390   -8.6074 C   0  0  2  0  0  0  0  0  0  0  0  0
   23.4333  -20.2742   -9.8182 N   0  0  0  0  0  0  0  0  0  0  0  0
   22.0860  -21.2887   -8.0893 C   0  0  0  0  0  0  0  0  0  0  0  0
   21.3158  -20.2708   -7.9933 O   0  0  0  0  0  0  0  0  0  0  0  0
   21.5343  -22.5075   -7.6862 N   0  0  0  0  0  0  0  0  0  0  0  0
   20.1043  -22.6038   -7.2152 C   0  0  1  0  0  0  0  0  0  0  0  0
   19.5415  -23.6263   -8.1335 C   0  0  0  0  0  0  0  0  0  0  0  0
   19.0976  -23.3334   -9.4879 C   0  0  0  0  0  0  0  0  0  0  0  0
   18.6622  -24.3893  -10.4164 C   0  0  0  0  0  0  0  0  0  0  0  0
   18.1918  -23.9077  -11.7689 C   0  0  0  0  0  0  0  0  0  0  0  0
   17.8635  -24.9578  -12.6825 N   0  0  0  0  0  0  0  0  0  0  0  0
   20.2192  -22.9392   -5.8021 C   0  0  0  0  0  0  0  0  0  0  0  0
   21.4364  -23.2866   -5.2404 O   0  0  0  0  0  0  0  0  0  0  0  0
   19.2429  -22.9344   -5.0314 O   0  0  0  0  0  0  0  0  0  0  0  0
  2  1  1  0
  3  5  1  0
  3  2  1  0
  3  4  1  1
  5  6  1  6
  7  8  2  0
  7  5  1  0
 10  9  1  0
 11 10  1  0
 12 11  1  0
 13 12  1  1
 13 14  1  0
 14  7  1  0
 15 16  2  0
 15 13  1  0
 17 15  1  0
 18 17  1  0
 18 24  1  0
 18 19  1  6
 20 19  1  0
 21 20  1  0
 22 21  1  0
 22 23  1  0
 24 25  1  0
 26 24  2  0
M  END
$$$$
