IMK.pdb
     RDKit          3D

 26 25  0  0  1  0  0  0  0  0999 V2000
   14.8938  -10.1108  -18.9499 C   0  0  0  0  0  0  0  0  0  0  0  0
   16.1152  -11.0211  -18.7647 C   0  0  0  0  0  0  0  0  0  0  0  0
   17.0040  -10.3251  -17.7637 C   0  0  2  0  0  0  0  0  0  0  0  0
   17.4875   -9.0369  -18.4009 C   0  0  0  0  0  0  0  0  0  0  0  0
   18.1998  -11.1309  -17.3660 C   0  0  2  0  0  0  0  0  0  0  0  0
   17.7747  -12.3881  -16.8147 N   0  0  0  0  0  0  0  0  0  0  0  0
   19.1400  -10.4563  -16.4740 C   0  0  0  0  0  0  0  0  0  0  0  0
   18.8820  -10.4045  -15.2385 O   0  0  0  0  0  0  0  0  0  0  0  0
   26.4065  -10.2857  -14.4054 C   0  0  0  0  0  0  0  0  0  0  0  0
   25.1040  -10.7343  -15.6144 S   0  0  0  0  0  0  0  0  0  0  0  0
   23.6904   -9.6016  -15.2567 C   0  0  0  0  0  0  0  0  0  0  0  0
   22.5641  -10.0772  -16.1183 C   0  0  0  0  0  0  0  0  0  0  0  0
   21.3140   -9.2683  -15.9158 C   0  0  2  0  0  0  0  0  0  0  0  0
   20.3421   -9.8424  -16.8857 N   0  0  0  0  0  0  0  0  0  0  0  0
   21.4485   -7.8184  -16.1694 C   0  0  0  0  0  0  0  0  0  0  0  0
   21.8079   -7.3931  -17.3220 O   0  0  0  0  0  0  0  0  0  0  0  0
   21.1956   -6.8338  -15.2109 N   0  0  0  0  0  0  0  0  0  0  0  0
   21.3757   -5.3691  -15.5243 C   0  0  1  0  0  0  0  0  0  0  0  0
   20.0124   -4.8295  -15.2880 C   0  0  0  0  0  0  0  0  0  0  0  0
   19.7243   -3.4115  -15.1351 C   0  0  0  0  0  0  0  0  0  0  0  0
   18.3659   -2.9112  -14.8685 C   0  0  0  0  0  0  0  0  0  0  0  0
   18.2371   -1.4090  -14.7724 C   0  0  0  0  0  0  0  0  0  0  0  0
   16.8872   -0.9379  -14.7432 N   0  0  0  0  0  0  0  0  0  0  0  0
   22.4460   -4.9453  -14.6313 C   0  0  0  0  0  0  0  0  0  0  0  0
   22.7472   -5.6537  -13.4802 O   0  0  0  0  0  0  0  0  0  0  0  0
   23.1389   -3.9356  -14.8489 O   0  0  0  0  0  0  0  0  0  0  0  0
  2  1  1  0
  3  5  1  0
  3  2  1  0
  3  4  1  6
  5  6  1  1
  7  8  2  0
  7  5  1  0
 10  9  1  0
 11 10  1  0
 12 11  1  0
 13 12  1  6
 13 14  1  0
 14  7  1  0
 15 16  2  0
 15 13  1  0
 17 15  1  0
 18 17  1  0
 18 24  1  0
 18 19  1  1
 20 19  1  0
 21 20  1  0
 22 21  1  0
 22 23  1  0
 24 25  1  0
 26 24  2  0
M  END
$$$$
