IMK.pdb
     RDKit          3D

 26 25  0  0  1  0  0  0  0  0999 V2000
   16.4863  -13.9488  -16.7933 C   0  0  0  0  0  0  0  0  0  0  0  0
   17.4374  -13.1309  -17.6772 C   0  0  0  0  0  0  0  0  0  0  0  0
   18.2929  -12.3245  -16.7316 C   0  0  2  0  0  0  0  0  0  0  0  0
   17.3729  -11.3969  -15.9620 C   0  0  0  0  0  0  0  0  0  0  0  0
   19.3268  -11.4939  -17.4234 C   0  0  2  0  0  0  0  0  0  0  0  0
   20.1456  -12.3335  -18.2542 N   0  0  0  0  0  0  0  0  0  0  0  0
   20.1470  -10.6596  -16.5483 C   0  0  0  0  0  0  0  0  0  0  0  0
   19.5766   -9.9026  -15.7133 O   0  0  0  0  0  0  0  0  0  0  0  0
   26.1601  -11.5250  -14.8819 C   0  0  0  0  0  0  0  0  0  0  0  0
   26.3869   -9.8140  -15.4986 S   0  0  0  0  0  0  0  0  0  0  0  0
   24.7192   -9.0284  -15.3923 C   0  0  0  0  0  0  0  0  0  0  0  0
   23.7660  -10.0250  -15.9712 C   0  0  0  0  0  0  0  0  0  0  0  0
   22.3334   -9.6029  -15.8052 C   0  0  2  0  0  0  0  0  0  0  0  0
   21.5577  -10.6268  -16.5566 N   0  0  0  0  0  0  0  0  0  0  0  0
   22.0015   -8.2632  -16.3339 C   0  0  0  0  0  0  0  0  0  0  0  0
   22.0307   -8.0385  -17.5937 O   0  0  0  0  0  0  0  0  0  0  0  0
   21.6353   -7.1788  -15.5324 N   0  0  0  0  0  0  0  0  0  0  0  0
   21.3586   -5.8208  -16.1283 C   0  0  1  0  0  0  0  0  0  0  0  0
   19.8762   -5.8156  -16.2183 C   0  0  0  0  0  0  0  0  0  0  0  0
   19.1121   -4.7446  -16.8397 C   0  0  0  0  0  0  0  0  0  0  0  0
   17.6407   -4.7506  -16.8779 C   0  0  0  0  0  0  0  0  0  0  0  0
   17.0038   -3.5121  -17.4635 C   0  0  0  0  0  0  0  0  0  0  0  0
   17.8948   -2.4010  -17.5927 N   0  0  0  0  0  0  0  0  0  0  0  0
   21.9933   -4.8922  -15.2024 C   0  0  0  0  0  0  0  0  0  0  0  0
   22.3102   -3.5989  -15.5826 O   0  0  0  0  0  0  0  0  0  0  0  0
   22.2841   -5.2054  -14.0343 O   0  0  0  0  0  0  0  0  0  0  0  0
  2  1  1  0
  3  5  1  0
  3  2  1  0
  3  4  1  6
  5  6  1  1
  7  8  2  0
  7  5  1  0
 10  9  1  0
 11 10  1  0
 12 11  1  0
 13 12  1  6
 13 14  1  0
 14  7  1  0
 15 16  2  0
 15 13  1  0
 17 15  1  0
 18 17  1  0
 18 24  1  0
 18 19  1  1
 20 19  1  0
 21 20  1  0
 22 21  1  0
 22 23  1  0
 24 25  1  0
 26 24  2  0
M  END
$$$$
