IMK.pdb
     RDKit          3D

 26 25  0  0  1  0  0  0  0  0999 V2000
   27.9621  -17.1120  -15.5520 C   0  0  0  0  0  0  0  0  0  0  0  0
   26.8743  -18.0576  -15.0255 C   0  0  0  0  0  0  0  0  0  0  0  0
   26.9363  -19.2880  -15.8964 C   0  0  2  0  0  0  0  0  0  0  0  0
   26.7383  -18.8415  -17.3319 C   0  0  0  0  0  0  0  0  0  0  0  0
   25.8870  -20.3031  -15.5706 C   0  0  2  0  0  0  0  0  0  0  0  0
   25.9779  -20.6646  -14.1826 N   0  0  0  0  0  0  0  0  0  0  0  0
   25.8780  -21.4892  -16.4236 C   0  0  0  0  0  0  0  0  0  0  0  0
   25.3297  -21.4222  -17.5597 O   0  0  0  0  0  0  0  0  0  0  0  0
   30.5094  -24.8874  -15.5365 C   0  0  0  0  0  0  0  0  0  0  0  0
   30.2156  -25.2601  -17.3068 S   0  0  0  0  0  0  0  0  0  0  0  0
   28.7132  -24.2918  -17.7701 C   0  0  0  0  0  0  0  0  0  0  0  0
   27.6800  -24.6345  -16.7443 C   0  0  0  0  0  0  0  0  0  0  0  0
   26.3828  -23.9144  -16.9828 C   0  0  2  0  0  0  0  0  0  0  0  0
   26.4441  -22.7347  -16.0777 N   0  0  0  0  0  0  0  0  0  0  0  0
   25.1617  -24.6904  -16.6809 C   0  0  0  0  0  0  0  0  0  0  0  0
   25.0197  -25.2576  -15.5423 O   0  0  0  0  0  0  0  0  0  0  0  0
   24.1018  -24.8536  -17.5767 N   0  0  0  0  0  0  0  0  0  0  0  0
   22.8378  -25.5719  -17.1740 C   0  0  1  0  0  0  0  0  0  0  0  0
   22.3522  -24.7393  -16.0440 C   0  0  0  0  0  0  0  0  0  0  0  0
   21.2222  -25.1049  -15.2034 C   0  0  0  0  0  0  0  0  0  0  0  0
   20.7121  -24.2178  -14.1455 C   0  0  0  0  0  0  0  0  0  0  0  0
   19.3952  -24.6331  -13.5323 C   0  0  0  0  0  0  0  0  0  0  0  0
   18.9790  -23.8191  -12.4326 N   0  0  0  0  0  0  0  0  0  0  0  0
   22.0437  -25.6020  -18.3951 C   0  0  0  0  0  0  0  0  0  0  0  0
   21.0566  -26.5536  -18.5896 O   0  0  0  0  0  0  0  0  0  0  0  0
   22.2070  -24.7867  -19.3201 O   0  0  0  0  0  0  0  0  0  0  0  0
  2  1  1  0
  3  5  1  0
  3  2  1  0
  3  4  1  6
  5  6  1  1
  7  8  2  0
  7  5  1  0
 10  9  1  0
 11 10  1  0
 12 11  1  0
 13 12  1  1
 13 14  1  0
 14  7  1  0
 15 16  2  0
 15 13  1  0
 17 15  1  0
 18 17  1  0
 18 24  1  0
 18 19  1  1
 20 19  1  0
 21 20  1  0
 22 21  1  0
 22 23  1  0
 24 25  1  0
 26 24  2  0
M  END
$$$$
