IMK.pdb
     RDKit          3D

 26 25  0  0  1  0  0  0  0  0999 V2000
   27.2083  -18.8655  -17.3970 C   0  0  0  0  0  0  0  0  0  0  0  0
   25.8192  -19.4864  -17.5954 C   0  0  0  0  0  0  0  0  0  0  0  0
   25.3343  -19.8682  -16.2186 C   0  0  2  0  0  0  0  0  0  0  0  0
   26.3267  -20.8604  -15.6441 C   0  0  0  0  0  0  0  0  0  0  0  0
   23.9801  -20.5035  -16.2179 C   0  0  2  0  0  0  0  0  0  0  0  0
   23.0488  -19.6586  -16.9138 N   0  0  0  0  0  0  0  0  0  0  0  0
   23.4670  -20.8808  -14.9030 C   0  0  0  0  0  0  0  0  0  0  0  0
   24.1470  -21.6640  -14.1820 O   0  0  0  0  0  0  0  0  0  0  0  0
   19.9367  -17.2104  -11.9196 C   0  0  0  0  0  0  0  0  0  0  0  0
   19.9730  -18.2932  -10.4412 S   0  0  0  0  0  0  0  0  0  0  0  0
   20.6217  -19.9162  -11.0368 C   0  0  0  0  0  0  0  0  0  0  0  0
   21.2265  -19.6418  -12.3769 C   0  0  0  0  0  0  0  0  0  0  0  0
   21.7554  -20.8892  -13.0269 C   0  0  2  0  0  0  0  0  0  0  0  0
   22.2457  -20.4331  -14.3559 N   0  0  0  0  0  0  0  0  0  0  0  0
   20.7670  -21.9704  -13.2230 C   0  0  0  0  0  0  0  0  0  0  0  0
   20.0486  -22.0070  -14.2818 O   0  0  0  0  0  0  0  0  0  0  0  0
   20.5519  -23.0039  -12.3076 N   0  0  0  0  0  0  0  0  0  0  0  0
   19.6396  -24.1610  -12.6309 C   0  0  1  0  0  0  0  0  0  0  0  0
   20.1106  -25.2038  -11.6840 C   0  0  0  0  0  0  0  0  0  0  0  0
   20.3033  -26.5978  -12.0538 C   0  0  0  0  0  0  0  0  0  0  0  0
   20.7355  -27.6148  -11.0816 C   0  0  0  0  0  0  0  0  0  0  0  0
   20.9253  -29.0053  -11.6413 C   0  0  0  0  0  0  0  0  0  0  0  0
   21.5055  -29.9328  -10.7203 N   0  0  0  0  0  0  0  0  0  0  0  0
   18.3004  -23.6186  -12.4439 C   0  0  0  0  0  0  0  0  0  0  0  0
   18.0569  -22.5938  -11.5448 O   0  0  0  0  0  0  0  0  0  0  0  0
   17.3133  -24.0412  -13.0716 O   0  0  0  0  0  0  0  0  0  0  0  0
  2  1  1  0
  3  5  1  0
  3  2  1  0
  3  4  1  6
  5  6  1  1
  7  8  2  0
  7  5  1  0
 10  9  1  0
 11 10  1  0
 12 11  1  0
 13 12  1  6
 13 14  1  0
 14  7  1  0
 15 16  2  0
 15 13  1  0
 17 15  1  0
 18 17  1  0
 18 24  1  0
 18 19  1  1
 20 19  1  0
 21 20  1  0
 22 21  1  0
 22 23  1  0
 24 25  1  0
 26 24  2  0
M  END
$$$$
