IMK.pdb
     RDKit          3D

 26 25  0  0  1  0  0  0  0  0999 V2000
   28.2090  -20.0561   -4.4243 C   0  0  0  0  0  0  0  0  0  0  0  0
   26.8466  -20.2670   -5.0981 C   0  0  0  0  0  0  0  0  0  0  0  0
   27.0471  -19.9303   -6.5551 C   0  0  2  0  0  0  0  0  0  0  0  0
   27.4867  -18.4811   -6.6322 C   0  0  0  0  0  0  0  0  0  0  0  0
   25.8100  -20.0910   -7.3804 C   0  0  2  0  0  0  0  0  0  0  0  0
   25.2338  -21.3858   -7.1416 N   0  0  0  0  0  0  0  0  0  0  0  0
   25.9762  -19.8449   -8.8109 C   0  0  0  0  0  0  0  0  0  0  0  0
   26.2061  -18.6677   -9.2070 O   0  0  0  0  0  0  0  0  0  0  0  0
   29.6707  -22.1024  -13.4692 C   0  0  0  0  0  0  0  0  0  0  0  0
   29.8581  -21.9884  -11.6495 S   0  0  0  0  0  0  0  0  0  0  0  0
   28.5426  -20.8186  -11.0923 C   0  0  0  0  0  0  0  0  0  0  0  0
   27.2666  -21.3400  -11.6729 C   0  0  0  0  0  0  0  0  0  0  0  0
   26.0775  -20.5210  -11.2567 C   0  0  2  0  0  0  0  0  0  0  0  0
   25.9000  -20.8356   -9.8130 N   0  0  0  0  0  0  0  0  0  0  0  0
   24.8196  -20.8194  -11.9731 C   0  0  0  0  0  0  0  0  0  0  0  0
   24.0881  -21.8065  -11.6138 O   0  0  0  0  0  0  0  0  0  0  0  0
   24.3425  -20.0718  -13.0528 N   0  0  0  0  0  0  0  0  0  0  0  0
   23.0590  -20.4392  -13.7553 C   0  0  1  0  0  0  0  0  0  0  0  0
   22.6043  -19.1268  -14.2812 C   0  0  0  0  0  0  0  0  0  0  0  0
   23.2650  -18.4248  -15.3711 C   0  0  0  0  0  0  0  0  0  0  0  0
   22.8028  -17.1134  -15.8540 C   0  0  0  0  0  0  0  0  0  0  0  0
   21.4467  -17.1107  -16.5202 C   0  0  0  0  0  0  0  0  0  0  0  0
   20.9833  -15.8119  -16.8989 N   0  0  0  0  0  0  0  0  0  0  0  0
   23.4600  -21.4609  -14.7133 C   0  0  0  0  0  0  0  0  0  0  0  0
   22.5223  -22.2331  -15.3784 O   0  0  0  0  0  0  0  0  0  0  0  0
   24.6514  -21.6952  -14.9827 O   0  0  0  0  0  0  0  0  0  0  0  0
  2  1  1  0
  3  5  1  0
  3  2  1  0
  3  4  1  1
  5  6  1  6
  7  8  2  0
  7  5  1  0
 10  9  1  0
 11 10  1  0
 12 11  1  0
 13 12  1  6
 13 14  1  0
 14  7  1  0
 15 16  2  0
 15 13  1  0
 17 15  1  0
 18 17  1  0
 18 24  1  0
 18 19  1  6
 20 19  1  0
 21 20  1  0
 22 21  1  0
 22 23  1  0
 24 25  1  0
 26 24  2  0
M  END
$$$$
