IMK.pdb
     RDKit          3D

 26 25  0  0  1  0  0  0  0  0999 V2000
   19.1196  -16.3187  -19.4283 C   0  0  0  0  0  0  0  0  0  0  0  0
   19.7482  -15.0166  -19.9423 C   0  0  0  0  0  0  0  0  0  0  0  0
   20.0715  -14.1992  -18.7161 C   0  0  2  0  0  0  0  0  0  0  0  0
   18.7652  -13.9114  -18.0018 C   0  0  0  0  0  0  0  0  0  0  0  0
   20.7350  -12.8949  -19.0264 C   0  0  2  0  0  0  0  0  0  0  0  0
   21.8919  -13.1239  -19.8477 N   0  0  0  0  0  0  0  0  0  0  0  0
   21.0680  -12.0711  -17.8666 C   0  0  0  0  0  0  0  0  0  0  0  0
   20.1621  -11.7966  -17.0302 O   0  0  0  0  0  0  0  0  0  0  0  0
   26.5414  -11.9694  -15.0567 C   0  0  0  0  0  0  0  0  0  0  0  0
   26.3835  -10.1451  -14.9773 S   0  0  0  0  0  0  0  0  0  0  0  0
   24.5802   -9.7991  -15.1714 C   0  0  0  0  0  0  0  0  0  0  0  0
   24.0937  -10.7620  -16.2074 C   0  0  0  0  0  0  0  0  0  0  0  0
   22.6108  -10.6582  -16.4269 C   0  0  2  0  0  0  0  0  0  0  0  0
   22.3479  -11.5428  -17.5944 N   0  0  0  0  0  0  0  0  0  0  0  0
   22.1074   -9.3014  -16.7275 C   0  0  0  0  0  0  0  0  0  0  0  0
   22.4574   -8.7045  -17.8044 O   0  0  0  0  0  0  0  0  0  0  0  0
   21.2363   -8.5925  -15.8963 N   0  0  0  0  0  0  0  0  0  0  0  0
   20.7191   -7.2290  -16.2825 C   0  0  1  0  0  0  0  0  0  0  0  0
   19.2537   -7.4597  -16.3534 C   0  0  0  0  0  0  0  0  0  0  0  0
   18.5858   -8.0388  -17.5091 C   0  0  0  0  0  0  0  0  0  0  0  0
   17.1478   -8.3529  -17.5084 C   0  0  0  0  0  0  0  0  0  0  0  0
   16.6356   -9.0412  -18.7520 C   0  0  0  0  0  0  0  0  0  0  0  0
   15.2159   -9.2108  -18.7845 N   0  0  0  0  0  0  0  0  0  0  0  0
   21.2257   -6.3494  -15.2374 C   0  0  0  0  0  0  0  0  0  0  0  0
   21.1433   -4.9718  -15.3521 O   0  0  0  0  0  0  0  0  0  0  0  0
   21.7554   -6.7807  -14.1980 O   0  0  0  0  0  0  0  0  0  0  0  0
  2  1  1  0
  3  5  1  0
  3  2  1  0
  3  4  1  6
  5  6  1  1
  7  8  2  0
  7  5  1  0
 10  9  1  0
 11 10  1  0
 12 11  1  0
 13 12  1  6
 13 14  1  0
 14  7  1  0
 15 16  2  0
 15 13  1  0
 17 15  1  0
 18 17  1  0
 18 24  1  0
 18 19  1  1
 20 19  1  0
 21 20  1  0
 22 21  1  0
 22 23  1  0
 24 25  1  0
 26 24  2  0
M  END
$$$$
