PYP.pdb
     RDKit          3D

 27 29  0  0  1  0  0  0  0  0999 V2000
    9.2043  -17.6877   20.6015 N   0  0  0  0  0  0  0  0  0  0  0  0
    9.0574  -18.1188   19.2210 C   0  0  0  0  0  0  0  0  0  0  0  0
    9.3503  -16.9347   18.3546 C   0  0  0  0  0  0  0  0  0  0  0  0
    9.5842  -15.8060   19.3584 C   0  0  0  0  0  0  0  0  0  0  0  0
   10.1302  -16.5724   20.5372 C   0  0  1  0  0  0  0  0  0  0  0  0
   10.1884  -15.8049   21.7812 C   0  0  0  0  0  0  0  0  0  0  0  0
   10.9895  -14.8569   21.9147 O   0  0  0  0  0  0  0  0  0  0  0  0
    5.6495  -11.1351   27.7636 O   0  0  0  0  0  0  0  0  0  0  0  0
    6.1544  -12.0564   26.8500 C   0  0  0  0  0  0  0  0  0  0  0  0
    6.8113  -11.5961   25.7270 C   0  0  0  0  0  0  0  0  0  0  0  0
    7.3241  -12.4891   24.8014 C   0  0  0  0  0  0  0  0  0  0  0  0
    7.2078  -13.8521   24.9498 C   0  0  0  0  0  0  0  0  0  0  0  0
    7.7071  -14.7830   23.9433 C   0  0  0  0  0  0  0  0  0  0  0  0
    9.1459  -15.1666   23.9854 C   0  0  2  0  0  0  0  0  0  0  0  0
    9.3316  -16.1316   22.8533 N   0  0  0  0  0  0  0  0  0  0  0  0
    9.5009  -15.8725   25.2176 C   0  0  0  0  0  0  0  0  0  0  0  0
    9.4696  -17.1577   25.1729 O   0  0  0  0  0  0  0  0  0  0  0  0
    6.5372  -14.2952   26.0962 C   0  0  0  0  0  0  0  0  0  0  0  0
    6.0234  -13.4148   27.0237 C   0  0  0  0  0  0  0  0  0  0  0  0
    9.8822  -15.2599   26.4392 N   0  0  0  0  0  0  0  0  0  0  0  0
    9.8198  -13.8658   26.8234 C   0  0  0  0  0  0  0  0  0  0  0  0
   11.0656  -13.6863   27.7199 C   0  0  0  0  0  0  0  0  0  0  0  0
   10.9317  -14.9584   28.5482 C   0  0  0  0  0  0  0  0  0  0  0  0
   10.4879  -15.9868   27.5575 C   0  0  1  0  0  0  0  0  0  0  0  0
    9.5121  -16.9555   28.0772 C   0  0  0  0  0  0  0  0  0  0  0  0
    8.3272  -16.9175   27.7020 O   0  0  0  0  0  0  0  0  0  0  0  0
    9.9065  -17.9202   28.9910 O   0  0  0  0  0  0  0  0  0  0  0  0
  1  2  1  0
  2  3  1  0
  4  3  1  0
  5  6  1  1
  5  4  1  0
  5  1  1  0
  6  7  2  0
  8  9  1  0
  9 19  2  0
 10  9  1  0
 10 11  2  0
 11 12  1  0
 12 18  2  0
 12 13  1  0
 14 13  1  1
 14 15  1  0
 14 16  1  0
 15  6  1  0
 16 20  1  0
 17 16  2  0
 19 18  1  0
 20 21  1  0
 20 24  1  0
 21 22  1  0
 22 23  1  0
 24 23  1  0
 25 27  1  0
 24 25  1  1
 26 25  2  0
M  END
$$$$
