PYP.pdb
     RDKit          3D

 27 29  0  0  1  0  0  0  0  0999 V2000
    9.5580  -17.8869   20.7047 N   0  0  0  0  0  0  0  0  0  0  0  0
    9.4035  -18.3084   19.3222 C   0  0  0  0  0  0  0  0  0  0  0  0
    9.5146  -17.0827   18.4713 C   0  0  0  0  0  0  0  0  0  0  0  0
    9.6555  -15.9518   19.4898 C   0  0  0  0  0  0  0  0  0  0  0  0
   10.3402  -16.6672   20.6275 C   0  0  1  0  0  0  0  0  0  0  0  0
   10.3605  -15.9201   21.8850 C   0  0  0  0  0  0  0  0  0  0  0  0
   11.2292  -15.0503   22.1018 O   0  0  0  0  0  0  0  0  0  0  0  0
    5.5435  -11.1328   27.6062 O   0  0  0  0  0  0  0  0  0  0  0  0
    6.0743  -12.0721   26.7261 C   0  0  0  0  0  0  0  0  0  0  0  0
    6.8245  -11.6364   25.6529 C   0  0  0  0  0  0  0  0  0  0  0  0
    7.3650  -12.5476   24.7614 C   0  0  0  0  0  0  0  0  0  0  0  0
    7.1862  -13.9052   24.8964 C   0  0  0  0  0  0  0  0  0  0  0  0
    7.7175  -14.8537   23.9233 C   0  0  0  0  0  0  0  0  0  0  0  0
    9.1672  -15.1912   23.9820 C   0  0  2  0  0  0  0  0  0  0  0  0
    9.3892  -16.1776   22.8752 N   0  0  0  0  0  0  0  0  0  0  0  0
    9.5368  -15.8550   25.2332 C   0  0  0  0  0  0  0  0  0  0  0  0
    9.6470  -17.1360   25.1931 O   0  0  0  0  0  0  0  0  0  0  0  0
    6.4216  -14.3232   25.9922 C   0  0  0  0  0  0  0  0  0  0  0  0
    5.8793  -13.4246   26.8854 C   0  0  0  0  0  0  0  0  0  0  0  0
    9.7902  -15.2053   26.4687 N   0  0  0  0  0  0  0  0  0  0  0  0
    9.5514  -13.8284   26.8455 C   0  0  0  0  0  0  0  0  0  0  0  0
   10.7269  -13.5091   27.7963 C   0  0  0  0  0  0  0  0  0  0  0  0
   10.7027  -14.7898   28.6216 C   0  0  0  0  0  0  0  0  0  0  0  0
   10.4245  -15.8603   27.6152 C   0  0  1  0  0  0  0  0  0  0  0  0
    9.5439  -16.9355   28.0937 C   0  0  0  0  0  0  0  0  0  0  0  0
    8.3773  -17.0269   27.6732 O   0  0  0  0  0  0  0  0  0  0  0  0
   10.0085  -17.8572   29.0188 O   0  0  0  0  0  0  0  0  0  0  0  0
  1  2  1  0
  2  3  1  0
  4  3  1  0
  5  6  1  1
  5  4  1  0
  5  1  1  0
  6  7  2  0
  8  9  1  0
  9 19  2  0
 10  9  1  0
 10 11  2  0
 11 12  1  0
 12 18  2  0
 12 13  1  0
 14 13  1  1
 14 15  1  0
 14 16  1  0
 15  6  1  0
 16 20  1  0
 17 16  2  0
 19 18  1  0
 20 21  1  0
 20 24  1  0
 21 22  1  0
 22 23  1  0
 24 23  1  0
 25 27  1  0
 24 25  1  1
 26 25  2  0
M  END
$$$$
