PYP.pdb
     RDKit          3D

 27 29  0  0  1  0  0  0  0  0999 V2000
   11.6359  -17.0875   20.0553 N   0  0  0  0  0  0  0  0  0  0  0  0
   11.8571  -18.2944   19.2759 C   0  0  0  0  0  0  0  0  0  0  0  0
   11.5367  -19.4573   20.1611 C   0  0  0  0  0  0  0  0  0  0  0  0
   11.2070  -18.8049   21.5035 C   0  0  0  0  0  0  0  0  0  0  0  0
   10.6569  -17.4744   21.0540 C   0  0  1  0  0  0  0  0  0  0  0  0
   10.5120  -16.4885   22.1250 C   0  0  0  0  0  0  0  0  0  0  0  0
   11.4423  -15.7057   22.4082 O   0  0  0  0  0  0  0  0  0  0  0  0
    5.8534  -11.1422   27.5838 O   0  0  0  0  0  0  0  0  0  0  0  0
    6.3105  -12.0477   26.6300 C   0  0  0  0  0  0  0  0  0  0  0  0
    6.0443  -13.3912   26.7991 C   0  0  0  0  0  0  0  0  0  0  0  0
    6.4862  -14.3145   25.8667 C   0  0  0  0  0  0  0  0  0  0  0  0
    7.1980  -13.9484   24.7475 C   0  0  0  0  0  0  0  0  0  0  0  0
    7.7025  -14.9344   23.7976 C   0  0  0  0  0  0  0  0  0  0  0  0
    9.1299  -15.3484   23.8977 C   0  0  2  0  0  0  0  0  0  0  0  0
    9.3078  -16.4115   22.8558 N   0  0  0  0  0  0  0  0  0  0  0  0
    9.4471  -15.9543   25.1919 C   0  0  0  0  0  0  0  0  0  0  0  0
    9.4148  -17.2391   25.2482 O   0  0  0  0  0  0  0  0  0  0  0  0
    7.4561  -12.5805   24.5978 C   0  0  0  0  0  0  0  0  0  0  0  0
    7.0207  -11.6534   25.5198 C   0  0  0  0  0  0  0  0  0  0  0  0
    9.7934  -15.2467   26.3719 N   0  0  0  0  0  0  0  0  0  0  0  0
    9.6941  -13.8303   26.6530 C   0  0  0  0  0  0  0  0  0  0  0  0
   10.9196  -13.5582   27.5540 C   0  0  0  0  0  0  0  0  0  0  0  0
   10.7988  -14.7700   28.4700 C   0  0  0  0  0  0  0  0  0  0  0  0
   10.3949  -15.8770   27.5494 C   0  0  1  0  0  0  0  0  0  0  0  0
    9.4314  -16.8279   28.1223 C   0  0  0  0  0  0  0  0  0  0  0  0
    8.2357  -16.7929   27.7827 O   0  0  0  0  0  0  0  0  0  0  0  0
    9.8495  -17.7721   29.0468 O   0  0  0  0  0  0  0  0  0  0  0  0
  1  2  1  0
  2  3  1  0
  4  3  1  0
  5  6  1  1
  5  4  1  0
  5  1  1  0
  6  7  2  0
  8  9  1  0
  9 19  2  0
 10  9  1  0
 10 11  2  0
 11 12  1  0
 12 18  2  0
 12 13  1  0
 14 13  1  1
 14 15  1  0
 14 16  1  0
 15  6  1  0
 16 20  1  0
 17 16  2  0
 19 18  1  0
 20 21  1  0
 20 24  1  0
 21 22  1  0
 22 23  1  0
 24 23  1  0
 25 27  1  0
 24 25  1  1
 26 25  2  0
M  END
$$$$
