PYP.pdb
     RDKit          3D

 27 29  0  0  1  0  0  0  0  0999 V2000
    9.3440  -17.7628   20.6042 N   0  0  0  0  0  0  0  0  0  0  0  0
    9.2442  -18.2105   19.2249 C   0  0  0  0  0  0  0  0  0  0  0  0
    9.5402  -17.0301   18.3545 C   0  0  0  0  0  0  0  0  0  0  0  0
    9.7251  -15.8872   19.3524 C   0  0  0  0  0  0  0  0  0  0  0  0
   10.2511  -16.6313   20.5542 C   0  0  1  0  0  0  0  0  0  0  0  0
   10.2602  -15.8503   21.7911 C   0  0  0  0  0  0  0  0  0  0  0  0
   11.0381  -14.8848   21.9359 O   0  0  0  0  0  0  0  0  0  0  0  0
    5.6246  -11.2504   27.7054 O   0  0  0  0  0  0  0  0  0  0  0  0
    6.1277  -12.1247   26.7458 C   0  0  0  0  0  0  0  0  0  0  0  0
    5.9489  -13.4825   26.9163 C   0  0  0  0  0  0  0  0  0  0  0  0
    6.4382  -14.3756   25.9781 C   0  0  0  0  0  0  0  0  0  0  0  0
    7.1133  -13.9648   24.8517 C   0  0  0  0  0  0  0  0  0  0  0  0
    7.6688  -14.9164   23.8954 C   0  0  0  0  0  0  0  0  0  0  0  0
    9.1296  -15.2030   23.9488 C   0  0  2  0  0  0  0  0  0  0  0  0
    9.3814  -16.1837   22.8432 N   0  0  0  0  0  0  0  0  0  0  0  0
    9.5274  -15.8506   25.1998 C   0  0  0  0  0  0  0  0  0  0  0  0
    9.5676  -17.1363   25.1937 O   0  0  0  0  0  0  0  0  0  0  0  0
    7.2828  -12.5832   24.7007 C   0  0  0  0  0  0  0  0  0  0  0  0
    6.7996  -11.6859   25.6284 C   0  0  0  0  0  0  0  0  0  0  0  0
    9.8778  -15.1812   26.4007 N   0  0  0  0  0  0  0  0  0  0  0  0
    9.7792  -13.7747   26.7277 C   0  0  0  0  0  0  0  0  0  0  0  0
   11.0079  -13.5314   27.6326 C   0  0  0  0  0  0  0  0  0  0  0  0
   10.8906  -14.7720   28.5095 C   0  0  0  0  0  0  0  0  0  0  0  0
   10.4836  -15.8490   27.5552 C   0  0  1  0  0  0  0  0  0  0  0  0
    9.5223  -16.8181   28.1005 C   0  0  0  0  0  0  0  0  0  0  0  0
    8.3275  -16.7794   27.7583 O   0  0  0  0  0  0  0  0  0  0  0  0
    9.9416  -17.7839   29.0020 O   0  0  0  0  0  0  0  0  0  0  0  0
  1  2  1  0
  2  3  1  0
  4  3  1  0
  5  6  1  1
  5  4  1  0
  5  1  1  0
  6  7  2  0
  8  9  1  0
  9 19  2  0
 10  9  1  0
 10 11  2  0
 11 12  1  0
 12 18  2  0
 12 13  1  0
 14 13  1  1
 14 15  1  0
 14 16  1  0
 15  6  1  0
 16 20  1  0
 17 16  2  0
 19 18  1  0
 20 21  1  0
 20 24  1  0
 21 22  1  0
 22 23  1  0
 24 23  1  0
 25 27  1  0
 24 25  1  1
 26 25  2  0
M  END
$$$$
