PYP.pdb
     RDKit          3D

 27 29  0  0  1  0  0  0  0  0999 V2000
   10.1710  -18.4192   21.4402 N   0  0  0  0  0  0  0  0  0  0  0  0
   10.3612  -19.0988   20.1694 C   0  0  0  0  0  0  0  0  0  0  0  0
   11.1016  -18.1584   19.2716 C   0  0  0  0  0  0  0  0  0  0  0  0
   11.2280  -16.8874   20.1111 C   0  0  0  0  0  0  0  0  0  0  0  0
   11.2583  -17.4607   21.5059 C   0  0  1  0  0  0  0  0  0  0  0  0
   11.0850  -16.4709   22.5690 C   0  0  0  0  0  0  0  0  0  0  0  0
   11.9149  -15.5532   22.7343 O   0  0  0  0  0  0  0  0  0  0  0  0
    6.5785  -12.9919   19.1452 O   0  0  0  0  0  0  0  0  0  0  0  0
    7.0139  -13.4832   20.3730 C   0  0  0  0  0  0  0  0  0  0  0  0
    6.5704  -14.7198   20.7958 C   0  0  0  0  0  0  0  0  0  0  0  0
    6.9870  -15.2338   22.0121 C   0  0  0  0  0  0  0  0  0  0  0  0
    7.8459  -14.5534   22.8443 C   0  0  0  0  0  0  0  0  0  0  0  0
    8.2384  -15.0817   24.1465 C   0  0  0  0  0  0  0  0  0  0  0  0
    9.6720  -15.4182   24.3712 C   0  0  2  0  0  0  0  0  0  0  0  0
    9.9672  -16.5442   23.4266 N   0  0  0  0  0  0  0  0  0  0  0  0
    9.9249  -15.9126   25.7256 C   0  0  0  0  0  0  0  0  0  0  0  0
   10.1630  -17.1714   25.8425 O   0  0  0  0  0  0  0  0  0  0  0  0
    8.2818  -13.3013   22.3944 C   0  0  0  0  0  0  0  0  0  0  0  0
    7.8735  -12.7806   21.1855 C   0  0  0  0  0  0  0  0  0  0  0  0
    9.9386  -15.1222   26.9037 N   0  0  0  0  0  0  0  0  0  0  0  0
    9.4644  -13.7696   27.1048 C   0  0  0  0  0  0  0  0  0  0  0  0
   10.4645  -13.1891   28.1299 C   0  0  0  0  0  0  0  0  0  0  0  0
   10.5273  -14.3781   29.0809 C   0  0  0  0  0  0  0  0  0  0  0  0
   10.5225  -15.5655   28.1719 C   0  0  1  0  0  0  0  0  0  0  0  0
    9.7543  -16.7149   28.6713 C   0  0  0  0  0  0  0  0  0  0  0  0
    8.6432  -16.9881   28.1844 O   0  0  0  0  0  0  0  0  0  0  0  0
   10.2638  -17.5039   29.6906 O   0  0  0  0  0  0  0  0  0  0  0  0
  1  2  1  0
  2  3  1  0
  4  3  1  0
  5  6  1  1
  5  4  1  0
  5  1  1  0
  6  7  2  0
  8  9  1  0
  9 19  2  0
 10  9  1  0
 10 11  2  0
 11 12  1  0
 12 18  2  0
 12 13  1  0
 14 13  1  1
 14 15  1  0
 14 16  1  0
 15  6  1  0
 16 20  1  0
 17 16  2  0
 19 18  1  0
 20 21  1  0
 20 24  1  0
 21 22  1  0
 22 23  1  0
 24 23  1  0
 25 27  1  0
 24 25  1  1
 26 25  2  0
M  END
$$$$
