PYP.pdb
     RDKit          3D

 27 29  0  0  1  0  0  0  0  0999 V2000
    8.8869  -16.3791   20.1901 N   0  0  0  0  0  0  0  0  0  0  0  0
    8.9276  -16.6772   18.7680 C   0  0  0  0  0  0  0  0  0  0  0  0
    7.5369  -17.0401   18.3524 C   0  0  0  0  0  0  0  0  0  0  0  0
    6.7506  -17.0019   19.6626 C   0  0  0  0  0  0  0  0  0  0  0  0
    7.5197  -15.9590   20.4343 C   0  0  1  0  0  0  0  0  0  0  0  0
    7.1868  -15.8937   21.8573 C   0  0  0  0  0  0  0  0  0  0  0  0
    6.0766  -15.4693   22.2388 O   0  0  0  0  0  0  0  0  0  0  0  0
    8.3719  -18.0255   30.4938 O   0  0  0  0  0  0  0  0  0  0  0  0
    8.3497  -17.9302   29.1050 C   0  0  0  0  0  0  0  0  0  0  0  0
    9.4164  -17.3423   28.4562 C   0  0  0  0  0  0  0  0  0  0  0  0
    9.4219  -17.2339   27.0758 C   0  0  0  0  0  0  0  0  0  0  0  0
    8.3868  -17.6968   26.2963 C   0  0  0  0  0  0  0  0  0  0  0  0
    8.3795  -17.5320   24.8466 C   0  0  0  0  0  0  0  0  0  0  0  0
    7.7635  -16.3013   24.2768 C   0  0  2  0  0  0  0  0  0  0  0  0
    8.1262  -16.3138   22.8223 N   0  0  0  0  0  0  0  0  0  0  0  0
    8.3242  -15.0774   24.8516 C   0  0  0  0  0  0  0  0  0  0  0  0
    9.5510  -14.8176   24.5646 O   0  0  0  0  0  0  0  0  0  0  0  0
    7.3159  -18.2887   26.9768 C   0  0  0  0  0  0  0  0  0  0  0  0
    7.3006  -18.4017   28.3502 C   0  0  0  0  0  0  0  0  0  0  0  0
    7.6281  -14.1608   25.6811 N   0  0  0  0  0  0  0  0  0  0  0  0
    6.2545  -14.1978   26.1360 C   0  0  0  0  0  0  0  0  0  0  0  0
    5.8508  -12.7067   26.1749 C   0  0  0  0  0  0  0  0  0  0  0  0
    7.1073  -12.1507   26.8337 C   0  0  0  0  0  0  0  0  0  0  0  0
    8.2183  -12.9236   26.1976 C   0  0  1  0  0  0  0  0  0  0  0  0
    9.3218  -13.2678   27.1056 C   0  0  0  0  0  0  0  0  0  0  0  0
    9.3607  -14.3835   27.6534 O   0  0  0  0  0  0  0  0  0  0  0  0
   10.3289  -12.3496   27.3581 O   0  0  0  0  0  0  0  0  0  0  0  0
  1  2  1  0
  2  3  1  0
  4  3  1  0
  5  6  1  1
  5  4  1  0
  5  1  1  0
  6  7  2  0
  8  9  1  0
  9 19  2  0
 10  9  1  0
 10 11  2  0
 11 12  1  0
 12 18  2  0
 12 13  1  0
 14 13  1  1
 14 15  1  0
 14 16  1  0
 15  6  1  0
 16 20  1  0
 17 16  2  0
 19 18  1  0
 20 21  1  0
 20 24  1  0
 21 22  1  0
 22 23  1  0
 24 23  1  0
 25 27  1  0
 24 25  1  1
 26 25  2  0
M  END
$$$$
