PYP.pdb
     RDKit          3D

 27 29  0  0  1  0  0  0  0  0999 V2000
    6.6724  -20.7404   23.2167 N   0  0  0  0  0  0  0  0  0  0  0  0
    6.2268  -22.1240   23.2012 C   0  0  0  0  0  0  0  0  0  0  0  0
    4.7351  -22.1067   23.0869 C   0  0  0  0  0  0  0  0  0  0  0  0
    4.3905  -20.6181   23.1267 C   0  0  0  0  0  0  0  0  0  0  0  0
    5.6302  -20.0151   22.5146 C   0  0  1  0  0  0  0  0  0  0  0  0
    5.7368  -18.5647   22.6726 C   0  0  0  0  0  0  0  0  0  0  0  0
    4.9736  -17.7932   22.0558 O   0  0  0  0  0  0  0  0  0  0  0  0
    7.3325  -10.9563   27.0322 O   0  0  0  0  0  0  0  0  0  0  0  0
    7.3255  -12.2573   26.5364 C   0  0  0  0  0  0  0  0  0  0  0  0
    6.1293  -12.9419   26.4671 C   0  0  0  0  0  0  0  0  0  0  0  0
    6.0918  -14.2368   25.9782 C   0  0  0  0  0  0  0  0  0  0  0  0
    7.2207  -14.8939   25.5455 C   0  0  0  0  0  0  0  0  0  0  0  0
    7.1779  -16.2759   25.0796 C   0  0  0  0  0  0  0  0  0  0  0  0
    6.8623  -16.5305   23.6462 C   0  0  2  0  0  0  0  0  0  0  0  0
    6.7130  -18.0178   23.5318 N   0  0  0  0  0  0  0  0  0  0  0  0
    7.9540  -16.1359   22.7544 C   0  0  0  0  0  0  0  0  0  0  0  0
    8.9315  -16.9645   22.6413 O   0  0  0  0  0  0  0  0  0  0  0  0
    8.4221  -14.1795   25.6258 C   0  0  0  0  0  0  0  0  0  0  0  0
    8.4703  -12.8903   26.1106 C   0  0  0  0  0  0  0  0  0  0  0  0
    8.0142  -14.9321   22.0060 N   0  0  0  0  0  0  0  0  0  0  0  0
    7.1246  -13.7908   22.0338 C   0  0  0  0  0  0  0  0  0  0  0  0
    7.1180  -13.3072   20.5661 C   0  0  0  0  0  0  0  0  0  0  0  0
    8.6139  -13.4021   20.2915 C   0  0  0  0  0  0  0  0  0  0  0  0
    9.0264  -14.6627   20.9820 C   0  0  1  0  0  0  0  0  0  0  0  0
   10.3470  -14.6038   21.6247 C   0  0  0  0  0  0  0  0  0  0  0  0
   10.4410  -14.4833   22.8587 O   0  0  0  0  0  0  0  0  0  0  0  0
   11.4993  -14.6825   20.8584 O   0  0  0  0  0  0  0  0  0  0  0  0
  1  2  1  0
  2  3  1  0
  4  3  1  0
  5  6  1  1
  5  4  1  0
  5  1  1  0
  6  7  2  0
  8  9  1  0
  9 19  2  0
 10  9  1  0
 10 11  2  0
 11 12  1  0
 12 18  2  0
 12 13  1  0
 14 13  1  1
 14 15  1  0
 14 16  1  0
 15  6  1  0
 16 20  1  0
 17 16  2  0
 19 18  1  0
 20 21  1  0
 20 24  1  0
 21 22  1  0
 22 23  1  0
 24 23  1  0
 25 27  1  0
 24 25  1  1
 26 25  2  0
M  END
$$$$
