PYP.pdb
     RDKit          3D

 27 29  0  0  1  0  0  0  0  0999 V2000
   11.6734  -17.0689   20.1335 N   0  0  0  0  0  0  0  0  0  0  0  0
   12.0434  -18.2906   19.4381 C   0  0  0  0  0  0  0  0  0  0  0  0
   11.9152  -19.4135   20.4185 C   0  0  0  0  0  0  0  0  0  0  0  0
   11.5317  -18.7099   21.7201 C   0  0  0  0  0  0  0  0  0  0  0  0
   10.7861  -17.5090   21.1940 C   0  0  1  0  0  0  0  0  0  0  0  0
   10.5308  -16.4718   22.1935 C   0  0  0  0  0  0  0  0  0  0  0  0
   11.3320  -15.5292   22.3606 O   0  0  0  0  0  0  0  0  0  0  0  0
    5.5150  -11.6394   27.8113 O   0  0  0  0  0  0  0  0  0  0  0  0
    6.0480  -12.4706   26.8298 C   0  0  0  0  0  0  0  0  0  0  0  0
    5.8214  -13.8297   26.9066 C   0  0  0  0  0  0  0  0  0  0  0  0
    6.3388  -14.6806   25.9446 C   0  0  0  0  0  0  0  0  0  0  0  0
    7.0894  -14.2252   24.8852 C   0  0  0  0  0  0  0  0  0  0  0  0
    7.6724  -15.1355   23.9051 C   0  0  0  0  0  0  0  0  0  0  0  0
    9.1170  -15.4776   24.0279 C   0  0  2  0  0  0  0  0  0  0  0  0
    9.3654  -16.5268   22.9865 N   0  0  0  0  0  0  0  0  0  0  0  0
    9.4430  -16.0710   25.3257 C   0  0  0  0  0  0  0  0  0  0  0  0
    9.4663  -17.3560   25.3803 O   0  0  0  0  0  0  0  0  0  0  0  0
    7.3063  -12.8432   24.8286 C   0  0  0  0  0  0  0  0  0  0  0  0
    6.7957  -11.9876   25.7808 C   0  0  0  0  0  0  0  0  0  0  0  0
    9.7420  -15.3507   26.5110 N   0  0  0  0  0  0  0  0  0  0  0  0
    9.5777  -13.9404   26.7919 C   0  0  0  0  0  0  0  0  0  0  0  0
   10.7777  -13.6169   27.7101 C   0  0  0  0  0  0  0  0  0  0  0  0
   10.6966  -14.8340   28.6233 C   0  0  0  0  0  0  0  0  0  0  0  0
   10.3538  -15.9562   27.6963 C   0  0  1  0  0  0  0  0  0  0  0  0
    9.4244  -16.9486   28.2548 C   0  0  0  0  0  0  0  0  0  0  0  0
    8.2270  -16.9476   27.9193 O   0  0  0  0  0  0  0  0  0  0  0  0
    9.8768  -17.8944   29.1614 O   0  0  0  0  0  0  0  0  0  0  0  0
  1  2  1  0
  2  3  1  0
  4  3  1  0
  5  6  1  1
  5  4  1  0
  5  1  1  0
  6  7  2  0
  8  9  1  0
  9 19  2  0
 10  9  1  0
 10 11  2  0
 11 12  1  0
 12 18  2  0
 12 13  1  0
 14 13  1  1
 14 15  1  0
 14 16  1  0
 15  6  1  0
 16 20  1  0
 17 16  2  0
 19 18  1  0
 20 21  1  0
 20 24  1  0
 21 22  1  0
 22 23  1  0
 24 23  1  0
 25 27  1  0
 24 25  1  1
 26 25  2  0
M  END
$$$$
