PYP.pdb
     RDKit          3D

 27 29  0  0  1  0  0  0  0  0999 V2000
    8.5291  -19.1090   25.5789 N   0  0  0  0  0  0  0  0  0  0  0  0
    8.4954  -20.1869   26.5536 C   0  0  0  0  0  0  0  0  0  0  0  0
    7.1336  -20.1800   27.1734 C   0  0  0  0  0  0  0  0  0  0  0  0
    6.4543  -18.9708   26.5310 C   0  0  0  0  0  0  0  0  0  0  0  0
    7.1431  -18.9275   25.1898 C   0  0  1  0  0  0  0  0  0  0  0  0
    6.9175  -17.6948   24.4352 C   0  0  0  0  0  0  0  0  0  0  0  0
    5.7743  -17.3804   24.0446 O   0  0  0  0  0  0  0  0  0  0  0  0
    5.6758  -11.4149   28.0718 O   0  0  0  0  0  0  0  0  0  0  0  0
    6.3429  -12.2006   27.1358 C   0  0  0  0  0  0  0  0  0  0  0  0
    7.7132  -12.0863   27.0192 C   0  0  0  0  0  0  0  0  0  0  0  0
    8.4032  -12.8551   26.0972 C   0  0  0  0  0  0  0  0  0  0  0  0
    7.7723  -13.7533   25.2676 C   0  0  0  0  0  0  0  0  0  0  0  0
    8.5025  -14.5215   24.2648 C   0  0  0  0  0  0  0  0  0  0  0  0
    7.7540  -15.5267   23.4595 C   0  0  2  0  0  0  0  0  0  0  0  0
    8.0002  -16.8405   24.1381 N   0  0  0  0  0  0  0  0  0  0  0  0
    8.2669  -15.6431   22.0934 C   0  0  0  0  0  0  0  0  0  0  0  0
    8.7328  -16.7921   21.7507 O   0  0  0  0  0  0  0  0  0  0  0  0
    6.3823  -13.8515   25.4039 C   0  0  0  0  0  0  0  0  0  0  0  0
    5.6861  -13.0911   26.3184 C   0  0  0  0  0  0  0  0  0  0  0  0
    8.2812  -14.6056   21.1258 N   0  0  0  0  0  0  0  0  0  0  0  0
    7.7885  -13.2486   21.2305 C   0  0  0  0  0  0  0  0  0  0  0  0
    7.2640  -12.9483   19.8083 C   0  0  0  0  0  0  0  0  0  0  0  0
    8.4254  -13.5315   19.0126 C   0  0  0  0  0  0  0  0  0  0  0  0
    8.7843  -14.7756   19.7606 C   0  0  1  0  0  0  0  0  0  0  0  0
   10.2252  -15.0602   19.8185 C   0  0  0  0  0  0  0  0  0  0  0  0
   10.8924  -14.7278   20.8138 O   0  0  0  0  0  0  0  0  0  0  0  0
   10.8519  -15.7022   18.7620 O   0  0  0  0  0  0  0  0  0  0  0  0
  1  2  1  0
  2  3  1  0
  4  3  1  0
  5  6  1  1
  5  4  1  0
  5  1  1  0
  6  7  2  0
  8  9  1  0
  9 19  2  0
 10  9  1  0
 10 11  2  0
 11 12  1  0
 12 18  2  0
 12 13  1  0
 14 13  1  1
 14 15  1  0
 14 16  1  0
 15  6  1  0
 16 20  1  0
 17 16  2  0
 19 18  1  0
 20 21  1  0
 20 24  1  0
 21 22  1  0
 22 23  1  0
 24 23  1  0
 25 27  1  0
 24 25  1  1
 26 25  2  0
M  END
$$$$
