PYP.pdb
     RDKit          3D

 27 29  0  0  1  0  0  0  0  0999 V2000
    8.8502  -17.6085   20.6085 N   0  0  0  0  0  0  0  0  0  0  0  0
    8.6003  -17.9986   19.2307 C   0  0  0  0  0  0  0  0  0  0  0  0
    8.9038  -16.8108   18.3730 C   0  0  0  0  0  0  0  0  0  0  0  0
    9.2549  -15.7197   19.3842 C   0  0  0  0  0  0  0  0  0  0  0  0
    9.8280  -16.5408   20.5122 C   0  0  1  0  0  0  0  0  0  0  0  0
    9.9992  -15.8071   21.7661 C   0  0  0  0  0  0  0  0  0  0  0  0
   10.8135  -14.8649   21.8535 O   0  0  0  0  0  0  0  0  0  0  0  0
    5.5849  -10.9603   27.6143 O   0  0  0  0  0  0  0  0  0  0  0  0
    6.0795  -11.9362   26.7533 C   0  0  0  0  0  0  0  0  0  0  0  0
    6.7424  -11.5458   25.6075 C   0  0  0  0  0  0  0  0  0  0  0  0
    7.2452  -12.4941   24.7329 C   0  0  0  0  0  0  0  0  0  0  0  0
    7.1130  -13.8455   24.9558 C   0  0  0  0  0  0  0  0  0  0  0  0
    7.6021  -14.8359   24.0024 C   0  0  0  0  0  0  0  0  0  0  0  0
    9.0525  -15.1749   24.0149 C   0  0  2  0  0  0  0  0  0  0  0  0
    9.2385  -16.1602   22.9005 N   0  0  0  0  0  0  0  0  0  0  0  0
    9.4609  -15.8406   25.2530 C   0  0  0  0  0  0  0  0  0  0  0  0
    9.5406  -17.1240   25.2159 O   0  0  0  0  0  0  0  0  0  0  0  0
    6.4368  -14.2172   26.1239 C   0  0  0  0  0  0  0  0  0  0  0  0
    5.9327  -13.2814   27.0011 C   0  0  0  0  0  0  0  0  0  0  0  0
    9.7818  -15.1905   26.4726 N   0  0  0  0  0  0  0  0  0  0  0  0
    9.5755  -13.8104   26.8568 C   0  0  0  0  0  0  0  0  0  0  0  0
   10.8000  -13.5006   27.7471 C   0  0  0  0  0  0  0  0  0  0  0  0
   10.8045  -14.7791   28.5762 C   0  0  0  0  0  0  0  0  0  0  0  0
   10.4661  -15.8491   27.5879 C   0  0  1  0  0  0  0  0  0  0  0  0
    9.5999  -16.9145   28.1126 C   0  0  0  0  0  0  0  0  0  0  0  0
   10.0455  -17.7446   28.9242 O   0  0  0  0  0  0  0  0  0  0  0  0
    8.2778  -17.0016   27.7059 O   0  0  0  0  0  0  0  0  0  0  0  0
  1  2  1  0
  2  3  1  0
  4  3  1  0
  5  6  1  1
  5  4  1  0
  5  1  1  0
  6  7  2  0
  8  9  1  0
  9 19  2  0
 10  9  1  0
 10 11  2  0
 11 12  1  0
 12 18  2  0
 12 13  1  0
 14 13  1  1
 14 15  1  0
 14 16  1  0
 15  6  1  0
 16 20  1  0
 17 16  2  0
 19 18  1  0
 20 21  1  0
 20 24  1  0
 21 22  1  0
 22 23  1  0
 24 23  1  0
 25 27  1  0
 24 25  1  1
 26 25  2  0
M  END
$$$$
