PYP.pdb
     RDKit          3D

 27 29  0  0  1  0  0  0  0  0999 V2000
    9.7551  -17.9741   20.7692 N   0  0  0  0  0  0  0  0  0  0  0  0
    9.7915  -18.4961   19.4130 C   0  0  0  0  0  0  0  0  0  0  0  0
   10.2039  -17.3710   18.5173 C   0  0  0  0  0  0  0  0  0  0  0  0
   10.3077  -16.1775   19.4665 C   0  0  0  0  0  0  0  0  0  0  0  0
   10.6872  -16.8622   20.7558 C   0  0  1  0  0  0  0  0  0  0  0  0
   10.5829  -16.0139   21.9429 C   0  0  0  0  0  0  0  0  0  0  0  0
   11.3667  -15.0589   22.1213 O   0  0  0  0  0  0  0  0  0  0  0  0
    5.6712  -11.2257   27.5260 O   0  0  0  0  0  0  0  0  0  0  0  0
    6.2039  -12.1240   26.6054 C   0  0  0  0  0  0  0  0  0  0  0  0
    6.0557  -13.4781   26.8269 C   0  0  0  0  0  0  0  0  0  0  0  0
    6.5748  -14.3948   25.9284 C   0  0  0  0  0  0  0  0  0  0  0  0
    7.2507  -14.0116   24.7927 C   0  0  0  0  0  0  0  0  0  0  0  0
    7.8376  -14.9859   23.8788 C   0  0  0  0  0  0  0  0  0  0  0  0
    9.2992  -15.2565   23.9755 C   0  0  2  0  0  0  0  0  0  0  0  0
    9.5859  -16.2691   22.9079 N   0  0  0  0  0  0  0  0  0  0  0  0
    9.6729  -15.8604   25.2555 C   0  0  0  0  0  0  0  0  0  0  0  0
    9.7268  -17.1452   25.2906 O   0  0  0  0  0  0  0  0  0  0  0  0
    7.3888  -12.6333   24.5896 C   0  0  0  0  0  0  0  0  0  0  0  0
    6.8757  -11.7126   25.4775 C   0  0  0  0  0  0  0  0  0  0  0  0
    9.9867  -15.1502   26.4429 N   0  0  0  0  0  0  0  0  0  0  0  0
    9.8530  -13.7374   26.7276 C   0  0  0  0  0  0  0  0  0  0  0  0
   11.0592  -13.4426   27.6475 C   0  0  0  0  0  0  0  0  0  0  0  0
   10.9510  -14.6603   28.5572 C   0  0  0  0  0  0  0  0  0  0  0  0
   10.5844  -15.7721   27.6269 C   0  0  1  0  0  0  0  0  0  0  0  0
    9.6333  -16.7456   28.1821 C   0  0  0  0  0  0  0  0  0  0  0  0
    8.4347  -16.7121   27.8525 O   0  0  0  0  0  0  0  0  0  0  0  0
   10.0663  -17.7098   29.0787 O   0  0  0  0  0  0  0  0  0  0  0  0
  1  2  1  0
  2  3  1  0
  4  3  1  0
  5  6  1  1
  5  4  1  0
  5  1  1  0
  6  7  2  0
  8  9  1  0
  9 19  2  0
 10  9  1  0
 10 11  2  0
 11 12  1  0
 12 18  2  0
 12 13  1  0
 14 13  1  1
 14 15  1  0
 14 16  1  0
 15  6  1  0
 16 20  1  0
 17 16  2  0
 19 18  1  0
 20 21  1  0
 20 24  1  0
 21 22  1  0
 22 23  1  0
 24 23  1  0
 25 27  1  0
 24 25  1  1
 26 25  2  0
M  END
$$$$
