PYP.pdb
     RDKit          3D

 27 29  0  0  1  0  0  0  0  0999 V2000
    8.1788  -19.5872   24.7471 N   0  0  0  0  0  0  0  0  0  0  0  0
    8.0438  -20.8424   25.4677 C   0  0  0  0  0  0  0  0  0  0  0  0
    6.7103  -20.8217   26.1459 C   0  0  0  0  0  0  0  0  0  0  0  0
    6.1625  -19.4335   25.8155 C   0  0  0  0  0  0  0  0  0  0  0  0
    6.8140  -19.1728   24.4804 C   0  0  1  0  0  0  0  0  0  0  0  0
    6.7162  -17.7873   24.0215 C   0  0  0  0  0  0  0  0  0  0  0  0
    5.6078  -17.2686   23.7751 O   0  0  0  0  0  0  0  0  0  0  0  0
    5.9951  -11.3685   27.9327 O   0  0  0  0  0  0  0  0  0  0  0  0
    6.6079  -12.2263   27.0233 C   0  0  0  0  0  0  0  0  0  0  0  0
    7.9827  -12.3456   27.0358 C   0  0  0  0  0  0  0  0  0  0  0  0
    8.6196  -13.1912   26.1433 C   0  0  0  0  0  0  0  0  0  0  0  0
    7.9298  -13.9401   25.2177 C   0  0  0  0  0  0  0  0  0  0  0  0
    8.6140  -14.7893   24.2483 C   0  0  0  0  0  0  0  0  0  0  0  0
    7.7886  -15.6156   23.3238 C   0  0  2  0  0  0  0  0  0  0  0  0
    7.8849  -17.0156   23.8510 N   0  0  0  0  0  0  0  0  0  0  0  0
    8.3205  -15.6298   21.9601 C   0  0  0  0  0  0  0  0  0  0  0  0
    8.8297  -16.7389   21.5536 O   0  0  0  0  0  0  0  0  0  0  0  0
    6.5366  -13.8021   25.2237 C   0  0  0  0  0  0  0  0  0  0  0  0
    5.8929  -12.9635   26.1079 C   0  0  0  0  0  0  0  0  0  0  0  0
    8.3100  -14.5343   21.0586 N   0  0  0  0  0  0  0  0  0  0  0  0
    7.7248  -13.2205   21.2204 C   0  0  0  0  0  0  0  0  0  0  0  0
    7.2463  -12.8645   19.7948 C   0  0  0  0  0  0  0  0  0  0  0  0
    8.4782  -13.3219   19.0234 C   0  0  0  0  0  0  0  0  0  0  0  0
    8.8843  -14.5857   19.7120 C   0  0  1  0  0  0  0  0  0  0  0  0
   10.3368  -14.7820   19.8233 C   0  0  0  0  0  0  0  0  0  0  0  0
   10.9365  -14.4628   20.8647 O   0  0  0  0  0  0  0  0  0  0  0  0
   11.0497  -15.3253   18.7661 O   0  0  0  0  0  0  0  0  0  0  0  0
  1  2  1  0
  2  3  1  0
  4  3  1  0
  5  6  1  1
  5  4  1  0
  5  1  1  0
  6  7  2  0
  8  9  1  0
  9 19  2  0
 10  9  1  0
 10 11  2  0
 11 12  1  0
 12 18  2  0
 12 13  1  0
 14 13  1  1
 14 15  1  0
 14 16  1  0
 15  6  1  0
 16 20  1  0
 17 16  2  0
 19 18  1  0
 20 21  1  0
 20 24  1  0
 21 22  1  0
 22 23  1  0
 24 23  1  0
 25 27  1  0
 24 25  1  1
 26 25  2  0
M  END
$$$$
