QHA.pdb
     RDKit          3D

 25 25  0  0  1  0  0  0  0  0999 V2000
   27.8301  -22.7166  -15.8719 N   0  0  0  0  0  0  0  0  0  0  0  0
   28.1439  -24.0257  -16.3324 C   0  0  0  0  0  0  0  0  0  0  0  0
   29.3323  -24.4701  -16.2851 O   0  0  0  0  0  0  0  0  0  0  0  0
   27.0212  -24.8425  -16.8680 C   0  0  0  0  0  0  0  0  0  0  0  0
   25.7490  -24.0384  -16.7207 C   0  0  0  0  0  0  0  0  0  0  0  0
   25.2392  -24.1834  -15.3179 C   0  0  2  0  0  0  0  0  0  0  0  0
   24.7387  -25.5235  -15.1248 N   0  0  0  0  0  0  0  0  0  0  0  0
   24.1598  -23.1842  -15.0588 C   0  0  0  0  0  0  0  0  0  0  0  0
   22.9482  -23.5056  -15.1572 O   0  0  0  0  0  0  0  0  0  0  0  0
   24.5169  -21.8731  -14.7017 N   0  0  0  0  0  0  0  0  0  0  0  0
   23.4888  -20.8877  -14.2639 C   0  0  1  0  0  0  0  0  0  0  0  0
   24.2119  -19.9084  -13.4185 C   0  0  0  0  0  0  0  0  0  0  0  0
   24.4864  -20.3690  -12.0513 C   0  0  0  0  0  0  0  0  0  0  0  0
   24.1028  -21.5898  -11.5279 C   0  0  0  0  0  0  0  0  0  0  0  0
   24.5417  -21.6202  -10.2585 N   0  0  0  0  0  0  0  0  0  0  0  0
   25.1690  -20.4823   -9.9906 C   0  0  0  0  0  0  0  0  0  0  0  0
   25.1301  -19.7240  -11.0923 N   0  0  0  0  0  0  0  0  0  0  0  0
   22.8184  -20.4210  -15.4561 C   0  0  0  0  0  0  0  0  0  0  0  0
   23.5343  -20.0110  -16.4383 O   0  0  0  0  0  0  0  0  0  0  0  0
   20.0950  -21.0552  -17.5819 C   0  0  0  0  0  0  0  0  0  0  0  0
   20.8335  -19.9483  -16.8534 C   0  0  2  0  0  0  0  0  0  0  0  0
   21.4043  -20.3892  -15.6208 N   0  0  0  0  0  0  0  0  0  0  0  0
   19.9004  -18.8435  -16.6667 C   0  0  0  0  0  0  0  0  0  0  0  0
   19.6282  -18.5033  -15.4603 O   0  0  0  0  0  0  0  0  0  0  0  0
   19.2996  -18.1493  -17.6937 O   0  0  0  0  0  0  0  0  0  0  0  0
  2  4  1  0
  2  1  1  0
  3  2  2  0
  5  6  1  0
  5  4  1  0
  6  7  1  6
  6  8  1  0
  8  9  2  0
 10  8  1  0
 10 11  1  0
 11 12  1  6
 12 13  1  0
 13 14  2  0
 14 15  1  0
 16 15  1  0
 17 13  1  0
 17 16  2  0
 18 22  1  0
 18 11  1  0
 19 18  2  0
 21 20  1  1
 21 23  1  0
 21 22  1  0
 23 25  1  0
 24 23  2  0
M  END
$$$$
