QHA.pdb
     RDKit          3D

 25 25  0  0  1  0  0  0  0  0999 V2000
   21.4063  -15.7644  -15.1948 N   0  0  0  0  0  0  0  0  0  0  0  0
   20.9768  -15.9248  -16.5416 C   0  0  0  0  0  0  0  0  0  0  0  0
   20.8095  -17.0790  -17.0435 O   0  0  0  0  0  0  0  0  0  0  0  0
   20.7349  -14.6846  -17.3278 C   0  0  0  0  0  0  0  0  0  0  0  0
   20.8686  -13.5057  -16.3900 C   0  0  0  0  0  0  0  0  0  0  0  0
   20.5870  -12.2435  -17.1492 C   0  0  2  0  0  0  0  0  0  0  0  0
   21.3296  -12.2516  -18.3869 N   0  0  0  0  0  0  0  0  0  0  0  0
   20.9634  -11.0554  -16.3261 C   0  0  0  0  0  0  0  0  0  0  0  0
   20.6015  -10.9636  -15.1255 O   0  0  0  0  0  0  0  0  0  0  0  0
   21.7311  -10.0357  -16.9132 N   0  0  0  0  0  0  0  0  0  0  0  0
   22.0968   -8.8105  -16.1486 C   0  0  1  0  0  0  0  0  0  0  0  0
   23.5530   -8.6312  -16.3587 C   0  0  0  0  0  0  0  0  0  0  0  0
   24.3914   -9.6542  -15.7205 C   0  0  0  0  0  0  0  0  0  0  0  0
   24.2279  -10.1313  -14.4332 C   0  0  0  0  0  0  0  0  0  0  0  0
   25.1909  -11.0473  -14.2362 N   0  0  0  0  0  0  0  0  0  0  0  0
   25.9250  -11.1462  -15.3370 C   0  0  0  0  0  0  0  0  0  0  0  0
   25.4288  -10.2911  -16.2385 N   0  0  0  0  0  0  0  0  0  0  0  0
   21.1954   -7.7640  -16.5738 C   0  0  0  0  0  0  0  0  0  0  0  0
   21.0917   -7.5203  -17.8289 O   0  0  0  0  0  0  0  0  0  0  0  0
   18.5414   -5.4651  -15.1914 C   0  0  0  0  0  0  0  0  0  0  0  0
   19.5724   -5.9360  -16.1997 C   0  0  2  0  0  0  0  0  0  0  0  0
   20.4018   -6.9802  -15.6886 N   0  0  0  0  0  0  0  0  0  0  0  0
   20.3442   -4.7719  -16.6187 C   0  0  0  0  0  0  0  0  0  0  0  0
   21.5548   -4.6903  -16.2029 O   0  0  0  0  0  0  0  0  0  0  0  0
   19.8599   -3.7652  -17.4246 O   0  0  0  0  0  0  0  0  0  0  0  0
  2  4  1  0
  2  1  1  0
  3  2  2  0
  5  6  1  0
  5  4  1  0
  6  7  1  6
  6  8  1  0
  8  9  2  0
 10  8  1  0
 10 11  1  0
 11 12  1  6
 12 13  1  0
 13 14  2  0
 14 15  1  0
 16 15  1  0
 17 13  1  0
 17 16  2  0
 18 22  1  0
 18 11  1  0
 19 18  2  0
 21 20  1  1
 21 23  1  0
 21 22  1  0
 23 25  1  0
 24 23  2  0
M  END
$$$$
