QHA.pdb
     RDKit          3D

 25 25  0  0  1  0  0  0  0  0999 V2000
   21.8014  -12.6655  -21.3817 N   0  0  0  0  0  0  0  0  0  0  0  0
   21.7577  -13.6499  -20.3555 C   0  0  0  0  0  0  0  0  0  0  0  0
   22.0546  -14.8609  -20.5955 O   0  0  0  0  0  0  0  0  0  0  0  0
   21.3506  -13.1958  -18.9981 C   0  0  0  0  0  0  0  0  0  0  0  0
   20.9954  -11.7284  -19.0854 C   0  0  0  0  0  0  0  0  0  0  0  0
   21.8036  -10.9694  -18.0756 C   0  0  2  0  0  0  0  0  0  0  0  0
   22.1337  -11.8397  -16.9724 N   0  0  0  0  0  0  0  0  0  0  0  0
   21.0352   -9.7845  -17.5898 C   0  0  0  0  0  0  0  0  0  0  0  0
   20.4933   -8.9920  -18.4017 O   0  0  0  0  0  0  0  0  0  0  0  0
   20.9247   -9.5649  -16.2066 N   0  0  0  0  0  0  0  0  0  0  0  0
   20.1799   -8.3910  -15.6709 C   0  0  1  0  0  0  0  0  0  0  0  0
   19.1421   -8.9542  -14.7751 C   0  0  0  0  0  0  0  0  0  0  0  0
   17.9421   -9.4444  -15.4652 C   0  0  0  0  0  0  0  0  0  0  0  0
   16.9706   -8.6471  -16.0413 C   0  0  0  0  0  0  0  0  0  0  0  0
   16.0503   -9.4759  -16.5621 N   0  0  0  0  0  0  0  0  0  0  0  0
   16.4170  -10.7297  -16.3297 C   0  0  0  0  0  0  0  0  0  0  0  0
   17.5743  -10.7003  -15.6589 N   0  0  0  0  0  0  0  0  0  0  0  0
   21.1619   -7.4851  -15.1197 C   0  0  0  0  0  0  0  0  0  0  0  0
   21.9803   -7.9337  -14.2397 O   0  0  0  0  0  0  0  0  0  0  0  0
   22.4108   -3.9384  -15.5267 C   0  0  0  0  0  0  0  0  0  0  0  0
   22.2391   -5.2774  -14.8346 C   0  0  2  0  0  0  0  0  0  0  0  0
   21.2898   -6.1169  -15.4931 N   0  0  0  0  0  0  0  0  0  0  0  0
   21.8757   -5.0141  -13.4473 C   0  0  0  0  0  0  0  0  0  0  0  0
   20.6273   -5.0351  -13.1539 O   0  0  0  0  0  0  0  0  0  0  0  0
   22.7795   -4.7475  -12.4425 O   0  0  0  0  0  0  0  0  0  0  0  0
  2  4  1  0
  2  1  1  0
  3  2  2  0
  5  6  1  0
  5  4  1  0
  6  7  1  1
  6  8  1  0
  8  9  2  0
 10  8  1  0
 10 11  1  0
 11 12  1  1
 12 13  1  0
 13 14  2  0
 14 15  1  0
 16 15  1  0
 17 13  1  0
 17 16  2  0
 18 22  1  0
 18 11  1  0
 19 18  2  0
 21 20  1  6
 21 23  1  0
 21 22  1  0
 23 25  1  0
 24 23  2  0
M  END
$$$$
