QHA.pdb
     RDKit          3D

 25 25  0  0  1  0  0  0  0  0999 V2000
   25.7137  -13.5722  -15.7973 N   0  0  0  0  0  0  0  0  0  0  0  0
   25.0475  -13.7036  -17.0475 C   0  0  0  0  0  0  0  0  0  0  0  0
   25.5630  -14.3683  -17.9986 O   0  0  0  0  0  0  0  0  0  0  0  0
   23.7278  -13.0300  -17.1859 C   0  0  0  0  0  0  0  0  0  0  0  0
   23.4167  -12.3421  -15.8756 C   0  0  0  0  0  0  0  0  0  0  0  0
   21.9322  -12.3449  -15.6629 C   0  0  2  0  0  0  0  0  0  0  0  0
   21.3508  -13.4739  -16.3491 N   0  0  0  0  0  0  0  0  0  0  0  0
   21.3397  -11.0700  -16.1672 C   0  0  0  0  0  0  0  0  0  0  0  0
   20.7567  -11.0274  -17.2804 O   0  0  0  0  0  0  0  0  0  0  0  0
   21.4424   -9.9123  -15.3780 N   0  0  0  0  0  0  0  0  0  0  0  0
   20.7827   -8.6407  -15.7875 C   0  0  1  0  0  0  0  0  0  0  0  0
   19.3344   -8.8516  -15.5538 C   0  0  0  0  0  0  0  0  0  0  0  0
   18.5037   -7.6582  -15.7597 C   0  0  0  0  0  0  0  0  0  0  0  0
   18.5805   -6.8103  -16.8490 C   0  0  0  0  0  0  0  0  0  0  0  0
   17.6608   -5.8501  -16.6559 N   0  0  0  0  0  0  0  0  0  0  0  0
   17.0348   -6.0758  -15.5080 C   0  0  0  0  0  0  0  0  0  0  0  0
   17.5568   -7.1829  -14.9676 N   0  0  0  0  0  0  0  0  0  0  0  0
   21.4555   -7.5720  -15.0849 C   0  0  0  0  0  0  0  0  0  0  0  0
   21.7737   -7.7548  -13.8558 O   0  0  0  0  0  0  0  0  0  0  0  0
   22.9671   -4.1659  -15.6997 C   0  0  0  0  0  0  0  0  0  0  0  0
   22.3686   -5.2841  -14.8673 C   0  0  2  0  0  0  0  0  0  0  0  0
   21.7987   -6.3194  -15.6690 N   0  0  0  0  0  0  0  0  0  0  0  0
   21.3949   -4.6872  -13.9609 C   0  0  0  0  0  0  0  0  0  0  0  0
   20.1566   -4.9374  -14.1830 O   0  0  0  0  0  0  0  0  0  0  0  0
   21.7178   -3.8804  -12.8921 O   0  0  0  0  0  0  0  0  0  0  0  0
  2  4  1  0
  2  1  1  0
  3  2  2  0
  5  6  1  0
  5  4  1  0
  6  7  1  6
  6  8  1  0
  8  9  2  0
 10  8  1  0
 10 11  1  0
 11 12  1  1
 12 13  1  0
 13 14  2  0
 14 15  1  0
 16 15  1  0
 17 13  1  0
 17 16  2  0
 18 22  1  0
 18 11  1  0
 19 18  2  0
 21 20  1  6
 21 23  1  0
 21 22  1  0
 23 25  1  0
 24 23  2  0
M  END
$$$$
