QHA.pdb
     RDKit          3D

 25 25  0  0  1  0  0  0  0  0999 V2000
   16.3689  -11.7777  -14.4206 N   0  0  0  0  0  0  0  0  0  0  0  0
   16.2115  -12.6272  -15.5509 C   0  0  0  0  0  0  0  0  0  0  0  0
   15.1829  -13.3598  -15.6824 O   0  0  0  0  0  0  0  0  0  0  0  0
   17.3017  -12.6160  -16.5637 C   0  0  0  0  0  0  0  0  0  0  0  0
   18.3946  -11.6996  -16.0610 C   0  0  0  0  0  0  0  0  0  0  0  0
   19.4804  -11.6226  -17.0925 C   0  0  2  0  0  0  0  0  0  0  0  0
   20.1106  -12.9146  -17.2238 N   0  0  0  0  0  0  0  0  0  0  0  0
   20.4874  -10.5916  -16.7009 C   0  0  0  0  0  0  0  0  0  0  0  0
   21.3661  -10.8454  -15.8381 O   0  0  0  0  0  0  0  0  0  0  0  0
   20.4407   -9.3273  -17.3119 N   0  0  0  0  0  0  0  0  0  0  0  0
   21.5135   -8.3200  -17.0792 C   0  0  1  0  0  0  0  0  0  0  0  0
   21.8698   -7.8021  -18.4214 C   0  0  0  0  0  0  0  0  0  0  0  0
   22.8190   -8.6399  -19.1656 C   0  0  0  0  0  0  0  0  0  0  0  0
   23.4327   -9.7783  -18.6769 C   0  0  0  0  0  0  0  0  0  0  0  0
   24.2199  -10.2446  -19.6608 N   0  0  0  0  0  0  0  0  0  0  0  0
   24.1121   -9.4468  -20.7154 C   0  0  0  0  0  0  0  0  0  0  0  0
   23.2538   -8.4690  -20.4033 N   0  0  0  0  0  0  0  0  0  0  0  0
   21.0163   -7.3978  -16.0837 C   0  0  0  0  0  0  0  0  0  0  0  0
   19.8228   -6.9458  -16.2122 O   0  0  0  0  0  0  0  0  0  0  0  0
   21.7523   -6.1109  -12.6555 C   0  0  0  0  0  0  0  0  0  0  0  0
   21.2183   -5.9778  -14.0691 C   0  0  2  0  0  0  0  0  0  0  0  0
   21.7642   -6.9554  -14.9555 N   0  0  0  0  0  0  0  0  0  0  0  0
   21.4857   -4.6158  -14.5159 C   0  0  0  0  0  0  0  0  0  0  0  0
   22.4200   -4.4548  -15.3797 O   0  0  0  0  0  0  0  0  0  0  0  0
   20.8049   -3.5031  -14.0733 O   0  0  0  0  0  0  0  0  0  0  0  0
  2  4  1  0
  2  1  1  0
  3  2  2  0
  5  6  1  0
  5  4  1  0
  6  7  1  1
  6  8  1  0
  8  9  2  0
 10  8  1  0
 10 11  1  0
 11 12  1  6
 12 13  1  0
 13 14  2  0
 14 15  1  0
 16 15  1  0
 17 13  1  0
 17 16  2  0
 18 22  1  0
 18 11  1  0
 19 18  2  0
 21 20  1  1
 21 23  1  0
 21 22  1  0
 23 25  1  0
 24 23  2  0
M  END
$$$$
