QHA.pdb
     RDKit          3D

 25 25  0  0  1  0  0  0  0  0999 V2000
   18.5800  -14.7133  -20.7283 N   0  0  0  0  0  0  0  0  0  0  0  0
   19.6630  -14.5655  -21.6390 C   0  0  0  0  0  0  0  0  0  0  0  0
   19.9573  -15.4859  -22.4627 O   0  0  0  0  0  0  0  0  0  0  0  0
   20.4284  -13.2906  -21.5801 C   0  0  0  0  0  0  0  0  0  0  0  0
   19.8082  -12.4246  -20.5066 C   0  0  0  0  0  0  0  0  0  0  0  0
   20.5185  -11.1044  -20.4733 C   0  0  2  0  0  0  0  0  0  0  0  0
   21.9376  -11.3259  -20.3296 N   0  0  0  0  0  0  0  0  0  0  0  0
   20.0058  -10.2747  -19.3423 C   0  0  0  0  0  0  0  0  0  0  0  0
   18.7947   -9.9415  -19.2860 O   0  0  0  0  0  0  0  0  0  0  0  0
   20.8984   -9.8687  -18.3362 N   0  0  0  0  0  0  0  0  0  0  0  0
   20.4311   -9.0667  -17.1708 C   0  0  1  0  0  0  0  0  0  0  0  0
   21.1819   -9.5875  -16.0037 C   0  0  0  0  0  0  0  0  0  0  0  0
   20.8326   -8.9576  -14.7240 C   0  0  0  0  0  0  0  0  0  0  0  0
   19.8670   -7.9833  -14.5508 C   0  0  0  0  0  0  0  0  0  0  0  0
   19.8597   -7.6758  -13.2430 N   0  0  0  0  0  0  0  0  0  0  0  0
   20.7698   -8.4136  -12.6203 C   0  0  0  0  0  0  0  0  0  0  0  0
   21.3592   -9.1938  -13.5336 N   0  0  0  0  0  0  0  0  0  0  0  0
   20.5778   -7.6749  -17.5314 C   0  0  0  0  0  0  0  0  0  0  0  0
   21.6884   -7.2913  -18.0458 O   0  0  0  0  0  0  0  0  0  0  0  0
   18.6025   -4.5775  -18.1440 C   0  0  0  0  0  0  0  0  0  0  0  0
   19.8327   -5.3202  -17.6579 C   0  0  2  0  0  0  0  0  0  0  0  0
   19.5633   -6.6905  -17.3593 N   0  0  0  0  0  0  0  0  0  0  0  0
   20.3593   -4.5967  -16.5066 C   0  0  0  0  0  0  0  0  0  0  0  0
   20.7282   -3.3829  -16.6955 O   0  0  0  0  0  0  0  0  0  0  0  0
   20.4838   -5.1292  -15.2423 O   0  0  0  0  0  0  0  0  0  0  0  0
  2  4  1  0
  2  1  1  0
  3  2  2  0
  5  6  1  0
  5  4  1  0
  6  7  1  1
  6  8  1  0
  8  9  2  0
 10  8  1  0
 10 11  1  0
 11 12  1  1
 12 13  1  0
 13 14  2  0
 14 15  1  0
 16 15  1  0
 17 13  1  0
 17 16  2  0
 18 22  1  0
 18 11  1  0
 19 18  2  0
 21 20  1  1
 21 23  1  0
 21 22  1  0
 23 25  1  0
 24 23  2  0
M  END
$$$$
