QHA.pdb
     RDKit          3D

 25 25  0  0  1  0  0  0  0  0999 V2000
   33.1499  -34.7616  -19.3862 N   0  0  0  0  0  0  0  0  0  0  0  0
   34.0625  -33.6882  -19.5837 C   0  0  0  0  0  0  0  0  0  0  0  0
   35.3127  -33.8960  -19.6599 O   0  0  0  0  0  0  0  0  0  0  0  0
   33.4859  -32.3208  -19.6957 C   0  0  0  0  0  0  0  0  0  0  0  0
   31.9840  -32.4368  -19.5628 C   0  0  0  0  0  0  0  0  0  0  0  0
   31.5034  -31.4312  -18.5594 C   0  0  2  0  0  0  0  0  0  0  0  0
   31.9883  -31.7913  -17.2484 N   0  0  0  0  0  0  0  0  0  0  0  0
   30.0109  -31.3759  -18.5634 C   0  0  0  0  0  0  0  0  0  0  0  0
   29.3381  -32.0986  -17.7849 O   0  0  0  0  0  0  0  0  0  0  0  0
   29.3642  -30.5016  -19.4528 N   0  0  0  0  0  0  0  0  0  0  0  0
   27.8918  -30.2843  -19.3841 C   0  0  1  0  0  0  0  0  0  0  0  0
   27.7020  -28.8175  -19.4802 C   0  0  0  0  0  0  0  0  0  0  0  0
   27.8184  -28.1030  -18.2025 C   0  0  0  0  0  0  0  0  0  0  0  0
   27.9501  -28.7004  -16.9627 C   0  0  0  0  0  0  0  0  0  0  0  0
   28.0235  -27.7066  -16.0615 N   0  0  0  0  0  0  0  0  0  0  0  0
   27.9428  -26.5430  -16.6938 C   0  0  0  0  0  0  0  0  0  0  0  0
   27.8177  -26.7954  -18.0018 N   0  0  0  0  0  0  0  0  0  0  0  0
   27.2935  -31.1336  -20.3888 C   0  0  0  0  0  0  0  0  0  0  0  0
   27.8258  -31.1673  -21.5554 O   0  0  0  0  0  0  0  0  0  0  0  0
   24.8259  -33.9480  -20.6823 C   0  0  0  0  0  0  0  0  0  0  0  0
   25.6560  -32.7939  -21.2118 C   0  0  2  0  0  0  0  0  0  0  0  0
   26.1462  -31.9483  -20.1706 N   0  0  0  0  0  0  0  0  0  0  0  0
   24.8379  -32.0670  -22.1754 C   0  0  0  0  0  0  0  0  0  0  0  0
   24.2213  -31.0247  -21.7530 O   0  0  0  0  0  0  0  0  0  0  0  0
   24.6875  -32.4255  -23.4969 O   0  0  0  0  0  0  0  0  0  0  0  0
  2  4  1  0
  2  1  1  0
  3  2  2  0
  5  6  1  0
  5  4  1  0
  6  7  1  1
  6  8  1  0
  8  9  2  0
 10  8  1  0
 10 11  1  0
 11 12  1  6
 12 13  1  0
 13 14  2  0
 14 15  1  0
 16 15  1  0
 17 13  1  0
 17 16  2  0
 18 22  1  0
 18 11  1  0
 19 18  2  0
 21 20  1  1
 21 23  1  0
 21 22  1  0
 23 25  1  0
 24 23  2  0
M  END
$$$$
