QHA.pdb
     RDKit          3D

 25 25  0  0  1  0  0  0  0  0999 V2000
   49.0346  -13.2392   -7.9081 N   0  0  0  0  0  0  0  0  0  0  0  0
   48.4640  -13.7579   -6.7124 C   0  0  0  0  0  0  0  0  0  0  0  0
   49.0251  -14.7007   -6.0734 O   0  0  0  0  0  0  0  0  0  0  0  0
   47.1881  -13.1470   -6.2504 C   0  0  0  0  0  0  0  0  0  0  0  0
   46.7637  -12.1221   -7.2783 C   0  0  0  0  0  0  0  0  0  0  0  0
   46.2175  -10.9180   -6.5707 C   0  0  2  0  0  0  0  0  0  0  0  0
   45.3406  -11.3433   -5.5059 N   0  0  0  0  0  0  0  0  0  0  0  0
   45.4793  -10.0481   -7.5345 C   0  0  0  0  0  0  0  0  0  0  0  0
   46.0353   -9.6332   -8.5831 O   0  0  0  0  0  0  0  0  0  0  0  0
   44.1483   -9.6970   -7.2534 N   0  0  0  0  0  0  0  0  0  0  0  0
   43.3558   -8.8636   -8.2006 C   0  0  1  0  0  0  0  0  0  0  0  0
   42.0803   -9.5920   -8.3990 C   0  0  0  0  0  0  0  0  0  0  0  0
   42.1148  -10.6024   -9.4641 C   0  0  0  0  0  0  0  0  0  0  0  0
   43.2228  -10.9201  -10.2277 C   0  0  0  0  0  0  0  0  0  0  0  0
   42.8389  -11.8831  -11.0823 N   0  0  0  0  0  0  0  0  0  0  0  0
   41.5586  -12.1615  -10.8731 C   0  0  0  0  0  0  0  0  0  0  0  0
   41.1248  -11.3738   -9.8823 N   0  0  0  0  0  0  0  0  0  0  0  0
   43.3190   -7.5258   -7.6551 C   0  0  0  0  0  0  0  0  0  0  0  0
   43.2085   -7.3875   -6.3846 O   0  0  0  0  0  0  0  0  0  0  0  0
   44.3236   -4.0712   -8.3076 C   0  0  0  0  0  0  0  0  0  0  0  0
   43.2823   -5.0583   -7.8149 C   0  0  2  0  0  0  0  0  0  0  0  0
   43.4032   -6.3383   -8.4365 N   0  0  0  0  0  0  0  0  0  0  0  0
   41.9700   -4.4605   -8.0308 C   0  0  0  0  0  0  0  0  0  0  0  0
   41.3559   -4.7694   -9.1136 O   0  0  0  0  0  0  0  0  0  0  0  0
   41.3549   -3.5943   -7.1540 O   0  0  0  0  0  0  0  0  0  0  0  0
  2  4  1  0
  2  1  1  0
  3  2  2  0
  5  6  1  0
  5  4  1  0
  6  7  1  1
  6  8  1  0
  8  9  2  0
 10  8  1  0
 10 11  1  0
 11 12  1  1
 12 13  1  0
 13 14  2  0
 14 15  1  0
 16 15  1  0
 17 13  1  0
 17 16  2  0
 18 22  1  0
 18 11  1  0
 19 18  2  0
 21 20  1  6
 21 23  1  0
 21 22  1  0
 23 25  1  0
 24 23  2  0
M  END
$$$$
