QHA.pdb
     RDKit          3D

 25 25  0  0  1  0  0  0  0  0999 V2000
   21.2799  -28.7436   -9.6501 N   0  0  0  0  0  0  0  0  0  0  0  0
   20.2852  -28.9813  -10.6391 C   0  0  0  0  0  0  0  0  0  0  0  0
   19.0665  -28.6968  -10.4250 O   0  0  0  0  0  0  0  0  0  0  0  0
   20.7382  -29.5746  -11.9265 C   0  0  0  0  0  0  0  0  0  0  0  0
   22.2434  -29.7109  -11.8720 C   0  0  0  0  0  0  0  0  0  0  0  0
   22.6435  -30.9843  -12.5555 C   0  0  2  0  0  0  0  0  0  0  0  0
   21.5489  -31.4573  -13.3689 N   0  0  0  0  0  0  0  0  0  0  0  0
   23.0191  -32.0144  -11.5413 C   0  0  0  0  0  0  0  0  0  0  0  0
   22.1865  -32.8763  -11.1607 O   0  0  0  0  0  0  0  0  0  0  0  0
   24.3216  -32.0085  -11.0148 N   0  0  0  0  0  0  0  0  0  0  0  0
   24.7690  -33.0579  -10.0566 C   0  0  1  0  0  0  0  0  0  0  0  0
   26.2415  -33.1321  -10.2079 C   0  0  0  0  0  0  0  0  0  0  0  0
   26.6959  -33.8659  -11.3961 C   0  0  0  0  0  0  0  0  0  0  0  0
   26.1801  -35.0708  -11.8360 C   0  0  0  0  0  0  0  0  0  0  0  0
   26.8646  -35.4020  -12.9436 N   0  0  0  0  0  0  0  0  0  0  0  0
   27.7649  -34.4598  -13.1932 C   0  0  0  0  0  0  0  0  0  0  0  0
   27.6541  -33.5253  -12.2421 N   0  0  0  0  0  0  0  0  0  0  0  0
   24.2156  -32.7138   -8.7666 C   0  0  0  0  0  0  0  0  0  0  0  0
   24.3179  -31.5007   -8.3624 O   0  0  0  0  0  0  0  0  0  0  0  0
   22.0524  -34.2005   -6.0538 C   0  0  0  0  0  0  0  0  0  0  0  0
   23.0121  -33.1944   -6.6604 C   0  0  2  0  0  0  0  0  0  0  0  0
   23.5530  -33.6351   -7.9065 N   0  0  0  0  0  0  0  0  0  0  0  0
   24.0496  -32.9225   -5.6726 C   0  0  0  0  0  0  0  0  0  0  0  0
   25.2368  -33.3256   -5.9429 O   0  0  0  0  0  0  0  0  0  0  0  0
   23.8370  -32.2666   -4.4800 O   0  0  0  0  0  0  0  0  0  0  0  0
  2  4  1  0
  2  1  1  0
  3  2  2  0
  5  6  1  0
  5  4  1  0
  6  7  1  1
  6  8  1  0
  8  9  2  0
 10  8  1  0
 10 11  1  0
 11 12  1  1
 12 13  1  0
 13 14  2  0
 14 15  1  0
 16 15  1  0
 17 13  1  0
 17 16  2  0
 18 22  1  0
 18 11  1  0
 19 18  2  0
 21 20  1  1
 21 23  1  0
 21 22  1  0
 23 25  1  0
 24 23  2  0
M  END
$$$$
