QHA.pdb
     RDKit          3D

 25 25  0  0  1  0  0  0  0  0999 V2000
   16.8969  -14.0923  -14.0657 N   0  0  0  0  0  0  0  0  0  0  0  0
   16.3366  -13.6837  -15.3080 C   0  0  0  0  0  0  0  0  0  0  0  0
   15.8262  -14.5286  -16.1066 O   0  0  0  0  0  0  0  0  0  0  0  0
   16.3773  -12.2301  -15.6240 C   0  0  0  0  0  0  0  0  0  0  0  0
   16.9533  -11.5093  -14.4258 C   0  0  0  0  0  0  0  0  0  0  0  0
   16.2274  -10.2100  -14.2420 C   0  0  2  0  0  0  0  0  0  0  0  0
   16.2404   -9.4729  -15.4830 N   0  0  0  0  0  0  0  0  0  0  0  0
   16.8724   -9.4113  -13.1573 C   0  0  0  0  0  0  0  0  0  0  0  0
   17.0777   -9.9140  -12.0233 O   0  0  0  0  0  0  0  0  0  0  0  0
   17.2492   -8.0838  -13.4212 N   0  0  0  0  0  0  0  0  0  0  0  0
   17.9415   -7.2610  -12.3900 C   0  0  1  0  0  0  0  0  0  0  0  0
   18.9750   -6.4924  -13.1234 C   0  0  0  0  0  0  0  0  0  0  0  0
   20.1271   -7.2884  -13.5658 C   0  0  0  0  0  0  0  0  0  0  0  0
   20.3534   -8.6135  -13.2426 C   0  0  0  0  0  0  0  0  0  0  0  0
   21.5051   -8.9645  -13.8388 N   0  0  0  0  0  0  0  0  0  0  0  0
   21.9834   -7.9207  -14.5035 C   0  0  0  0  0  0  0  0  0  0  0  0
   21.1345   -6.9011  -14.3308 N   0  0  0  0  0  0  0  0  0  0  0  0
   16.9170   -6.5417  -11.6678 C   0  0  0  0  0  0  0  0  0  0  0  0
   16.0122   -5.9291  -12.3397 O   0  0  0  0  0  0  0  0  0  0  0  0
   15.6271   -5.9782   -8.1747 C   0  0  0  0  0  0  0  0  0  0  0  0
   15.8825   -5.6098   -9.6240 C   0  0  2  0  0  0  0  0  0  0  0  0
   16.8374   -6.4692  -10.2479 N   0  0  0  0  0  0  0  0  0  0  0  0
   16.2921   -4.2108   -9.6585 C   0  0  0  0  0  0  0  0  0  0  0  0
   17.4868   -3.9591  -10.0515 O   0  0  0  0  0  0  0  0  0  0  0  0
   15.4849   -3.1538   -9.2997 O   0  0  0  0  0  0  0  0  0  0  0  0
  2  4  1  0
  2  1  1  0
  3  2  2  0
  5  6  1  0
  5  4  1  0
  6  7  1  6
  6  8  1  0
  8  9  2  0
 10  8  1  0
 10 11  1  0
 11 12  1  6
 12 13  1  0
 13 14  2  0
 14 15  1  0
 16 15  1  0
 17 13  1  0
 17 16  2  0
 18 22  1  0
 18 11  1  0
 19 18  2  0
 21 20  1  1
 21 23  1  0
 21 22  1  0
 23 25  1  0
 24 23  2  0
M  END
$$$$
