QHA.pdb
     RDKit          3D

 25 25  0  0  1  0  0  0  0  0999 V2000
   12.0981  -11.3320   -9.8301 N   0  0  0  0  0  0  0  0  0  0  0  0
   12.4999  -12.2392  -10.8497 C   0  0  0  0  0  0  0  0  0  0  0  0
   11.7392  -13.1846  -11.2232 O   0  0  0  0  0  0  0  0  0  0  0  0
   13.8441  -12.0285  -11.4526 C   0  0  0  0  0  0  0  0  0  0  0  0
   14.5189  -10.9017  -10.7030 C   0  0  0  0  0  0  0  0  0  0  0  0
   15.8634  -10.6442  -11.3152 C   0  0  2  0  0  0  0  0  0  0  0  0
   16.6893  -11.8193  -11.1720 N   0  0  0  0  0  0  0  0  0  0  0  0
   16.5111   -9.4713  -10.6553 C   0  0  0  0  0  0  0  0  0  0  0  0
   17.1609   -9.6112   -9.5880 O   0  0  0  0  0  0  0  0  0  0  0  0
   16.3846   -8.2025  -11.2451 N   0  0  0  0  0  0  0  0  0  0  0  0
   17.0875   -7.0172  -10.6788 C   0  0  1  0  0  0  0  0  0  0  0  0
   17.8797   -6.4534  -11.7974 C   0  0  0  0  0  0  0  0  0  0  0  0
   19.0559   -7.2486  -12.1726 C   0  0  0  0  0  0  0  0  0  0  0  0
   20.1456   -7.4955  -11.3584 C   0  0  0  0  0  0  0  0  0  0  0  0
   20.9953   -8.2542  -12.0708 N   0  0  0  0  0  0  0  0  0  0  0  0
   20.4742   -8.4766  -13.2706 C   0  0  0  0  0  0  0  0  0  0  0  0
   19.2890   -7.8581  -13.3234 N   0  0  0  0  0  0  0  0  0  0  0  0
   16.0815   -6.1920  -10.0495 C   0  0  0  0  0  0  0  0  0  0  0  0
   15.1218   -5.7419  -10.7718 O   0  0  0  0  0  0  0  0  0  0  0  0
   14.9618   -5.0654   -6.6312 C   0  0  0  0  0  0  0  0  0  0  0  0
   15.0579   -4.9942   -8.1435 C   0  0  2  0  0  0  0  0  0  0  0  0
   16.0779   -5.8447   -8.6685 N   0  0  0  0  0  0  0  0  0  0  0  0
   15.2611   -3.5971   -8.5078 C   0  0  0  0  0  0  0  0  0  0  0  0
   16.3824   -3.2894   -9.0493 O   0  0  0  0  0  0  0  0  0  0  0  0
   14.3342   -2.5976   -8.3095 O   0  0  0  0  0  0  0  0  0  0  0  0
  2  4  1  0
  2  1  1  0
  3  2  2  0
  5  6  1  0
  5  4  1  0
  6  7  1  1
  6  8  1  0
  8  9  2  0
 10  8  1  0
 10 11  1  0
 11 12  1  6
 12 13  1  0
 13 14  2  0
 14 15  1  0
 16 15  1  0
 17 13  1  0
 17 16  2  0
 18 22  1  0
 18 11  1  0
 19 18  2  0
 21 20  1  1
 21 23  1  0
 21 22  1  0
 23 25  1  0
 24 23  2  0
M  END
$$$$
