QHA.pdb
     RDKit          3D

 25 25  0  0  1  0  0  0  0  0999 V2000
   16.7428  -12.4697  -15.4203 N   0  0  0  0  0  0  0  0  0  0  0  0
   17.0659  -13.3760  -16.4683 C   0  0  0  0  0  0  0  0  0  0  0  0
   16.2071  -14.1998  -16.9109 O   0  0  0  0  0  0  0  0  0  0  0  0
   18.4480  -13.3127  -17.0164 C   0  0  0  0  0  0  0  0  0  0  0  0
   19.1984  -12.2371  -16.2635 C   0  0  0  0  0  0  0  0  0  0  0  0
   20.5779  -12.1108  -16.8379 C   0  0  2  0  0  0  0  0  0  0  0  0
   21.2190  -13.4041  -16.8365 N   0  0  0  0  0  0  0  0  0  0  0  0
   21.3781  -11.1343  -16.0400 C   0  0  0  0  0  0  0  0  0  0  0  0
   21.3876  -11.1844  -14.7837 O   0  0  0  0  0  0  0  0  0  0  0  0
   22.1244  -10.1533  -16.7142 N   0  0  0  0  0  0  0  0  0  0  0  0
   22.9318   -9.1503  -15.9647 C   0  0  1  0  0  0  0  0  0  0  0  0
   24.2854   -9.2006  -16.5663 C   0  0  0  0  0  0  0  0  0  0  0  0
   25.1266  -10.3029  -16.0829 C   0  0  0  0  0  0  0  0  0  0  0  0
   24.7479  -11.2433  -15.1428 C   0  0  0  0  0  0  0  0  0  0  0  0
   25.7953  -12.0688  -14.9795 N   0  0  0  0  0  0  0  0  0  0  0  0
   26.7840  -11.6746  -15.7716 C   0  0  0  0  0  0  0  0  0  0  0  0
   26.3659  -10.5948  -16.4420 N   0  0  0  0  0  0  0  0  0  0  0  0
   22.1969   -7.9064  -16.0007 C   0  0  0  0  0  0  0  0  0  0  0  0
   21.8861   -7.4138  -17.1435 O   0  0  0  0  0  0  0  0  0  0  0  0
   19.8455   -5.8173  -14.2326 C   0  0  0  0  0  0  0  0  0  0  0  0
   21.1635   -5.9057  -14.9785 C   0  0  2  0  0  0  0  0  0  0  0  0
   21.7844   -7.1848  -14.8444 N   0  0  0  0  0  0  0  0  0  0  0  0
   22.0159   -4.8244  -14.4988 C   0  0  0  0  0  0  0  0  0  0  0  0
   22.8636   -5.1097  -13.5795 O   0  0  0  0  0  0  0  0  0  0  0  0
   21.9687   -3.5294  -14.9662 O   0  0  0  0  0  0  0  0  0  0  0  0
  2  4  1  0
  2  1  1  0
  3  2  2  0
  5  6  1  0
  5  4  1  0
  6  7  1  1
  6  8  1  0
  8  9  2  0
 10  8  1  0
 10 11  1  0
 11 12  1  6
 12 13  1  0
 13 14  2  0
 14 15  1  0
 16 15  1  0
 17 13  1  0
 17 16  2  0
 18 22  1  0
 18 11  1  0
 19 18  2  0
 21 20  1  1
 21 23  1  0
 21 22  1  0
 23 25  1  0
 24 23  2  0
M  END
$$$$
