QHA.pdb
     RDKit          3D

 25 25  0  0  1  0  0  0  0  0999 V2000
   22.2552  -13.2336  -19.6183 N   0  0  0  0  0  0  0  0  0  0  0  0
   21.6001  -14.2250  -18.8360 C   0  0  0  0  0  0  0  0  0  0  0  0
   21.9151  -15.4512  -18.9336 O   0  0  0  0  0  0  0  0  0  0  0  0
   20.5362  -13.7597  -17.9053 C   0  0  0  0  0  0  0  0  0  0  0  0
   20.4683  -12.2515  -17.9929 C   0  0  0  0  0  0  0  0  0  0  0  0
   20.2532  -11.6917  -16.6184 C   0  0  2  0  0  0  0  0  0  0  0  0
   19.1000  -12.3197  -16.0191 N   0  0  0  0  0  0  0  0  0  0  0  0
   20.0590  -10.2126  -16.6919 C   0  0  0  0  0  0  0  0  0  0  0  0
   20.2784   -9.5871  -17.7602 O   0  0  0  0  0  0  0  0  0  0  0  0
   19.6256   -9.5250  -15.5460 N   0  0  0  0  0  0  0  0  0  0  0  0
   19.3857   -8.0549  -15.5755 C   0  0  1  0  0  0  0  0  0  0  0  0
   18.0238   -7.8636  -15.0228 C   0  0  0  0  0  0  0  0  0  0  0  0
   16.9437   -7.9752  -16.0115 C   0  0  0  0  0  0  0  0  0  0  0  0
   17.1207   -8.0913  -17.3777 C   0  0  0  0  0  0  0  0  0  0  0  0
   15.8939   -8.1655  -17.9206 N   0  0  0  0  0  0  0  0  0  0  0  0
   14.9884   -8.1001  -16.9531 C   0  0  0  0  0  0  0  0  0  0  0  0
   15.6394   -7.9840  -15.7900 N   0  0  0  0  0  0  0  0  0  0  0  0
   20.5051   -7.4320  -14.9065 C   0  0  0  0  0  0  0  0  0  0  0  0
   20.8565   -7.8812  -13.7575 O   0  0  0  0  0  0  0  0  0  0  0  0
   23.1580   -4.8029  -15.5025 C   0  0  0  0  0  0  0  0  0  0  0  0
   22.3182   -5.7651  -14.6839 C   0  0  2  0  0  0  0  0  0  0  0  0
   21.2566   -6.3471  -15.4413 N   0  0  0  0  0  0  0  0  0  0  0  0
   21.8315   -5.0420  -13.5149 C   0  0  0  0  0  0  0  0  0  0  0  0
   22.7069   -4.6370  -12.6695 O   0  0  0  0  0  0  0  0  0  0  0  0
   20.5047   -4.7693  -13.2643 O   0  0  0  0  0  0  0  0  0  0  0  0
  2  4  1  0
  2  1  1  0
  3  2  2  0
  5  6  1  0
  5  4  1  0
  6  7  1  6
  6  8  1  0
  8  9  2  0
 10  8  1  0
 10 11  1  0
 11 12  1  1
 12 13  1  0
 13 14  2  0
 14 15  1  0
 16 15  1  0
 17 13  1  0
 17 16  2  0
 18 22  1  0
 18 11  1  0
 19 18  2  0
 21 20  1  6
 21 23  1  0
 21 22  1  0
 23 25  1  0
 24 23  2  0
M  END
$$$$
