QHA.pdb
     RDKit          3D

 25 25  0  0  1  0  0  0  0  0999 V2000
   17.8230  -15.2121  -14.2387 N   0  0  0  0  0  0  0  0  0  0  0  0
   16.6823  -15.1251  -15.0845 C   0  0  0  0  0  0  0  0  0  0  0  0
   15.5666  -15.6191  -14.7336 O   0  0  0  0  0  0  0  0  0  0  0  0
   16.8583  -14.4325  -16.3898 C   0  0  0  0  0  0  0  0  0  0  0  0
   18.2298  -13.7954  -16.3975 C   0  0  0  0  0  0  0  0  0  0  0  0
   18.4204  -13.0621  -17.6916 C   0  0  2  0  0  0  0  0  0  0  0  0
   18.4070  -14.0050  -18.7845 N   0  0  0  0  0  0  0  0  0  0  0  0
   19.7112  -12.3111  -17.6701 C   0  0  0  0  0  0  0  0  0  0  0  0
   20.7941  -12.8999  -17.4219 O   0  0  0  0  0  0  0  0  0  0  0  0
   19.7006  -10.9309  -17.9320 N   0  0  0  0  0  0  0  0  0  0  0  0
   20.9667  -10.1471  -17.9808 C   0  0  1  0  0  0  0  0  0  0  0  0
   21.1457   -9.7700  -19.4029 C   0  0  0  0  0  0  0  0  0  0  0  0
   21.5476  -10.8764  -20.2809 C   0  0  0  0  0  0  0  0  0  0  0  0
   20.8148  -11.3519  -21.3526 C   0  0  0  0  0  0  0  0  0  0  0  0
   21.5236  -12.3603  -21.8873 N   0  0  0  0  0  0  0  0  0  0  0  0
   22.6439  -12.5165  -21.1940 C   0  0  0  0  0  0  0  0  0  0  0  0
   22.6497  -11.6052  -20.2143 N   0  0  0  0  0  0  0  0  0  0  0  0
   20.8531   -9.1015  -16.9896 C   0  0  0  0  0  0  0  0  0  0  0  0
   19.7427   -8.4661  -16.8970 O   0  0  0  0  0  0  0  0  0  0  0  0
   21.1332   -6.4210  -15.7737 C   0  0  0  0  0  0  0  0  0  0  0  0
   21.6869   -7.6844  -15.1424 C   0  0  2  0  0  0  0  0  0  0  0  0
   21.8963   -8.7271  -16.0955 N   0  0  0  0  0  0  0  0  0  0  0  0
   20.7733   -8.0834  -14.0783 C   0  0  0  0  0  0  0  0  0  0  0  0
   20.6284   -7.2725  -13.0951 O   0  0  0  0  0  0  0  0  0  0  0  0
   20.0634   -9.2638  -14.0630 O   0  0  0  0  0  0  0  0  0  0  0  0
  2  4  1  0
  2  1  1  0
  3  2  2  0
  5  6  1  0
  5  4  1  0
  6  7  1  6
  6  8  1  0
  8  9  2  0
 10  8  1  0
 10 11  1  0
 11 12  1  6
 12 13  1  0
 13 14  2  0
 14 15  1  0
 16 15  1  0
 17 13  1  0
 17 16  2  0
 18 22  1  0
 18 11  1  0
 19 18  2  0
 21 20  1  6
 21 23  1  0
 21 22  1  0
 23 25  1  0
 24 23  2  0
M  END
$$$$
