QHA.pdb
     RDKit          3D

 25 25  0  0  1  0  0  0  0  0999 V2000
   26.6656  -10.7612  -15.5128 N   0  0  0  0  0  0  0  0  0  0  0  0
   26.3073  -12.0961  -15.8499 C   0  0  0  0  0  0  0  0  0  0  0  0
   27.1828  -13.0132  -15.9163 O   0  0  0  0  0  0  0  0  0  0  0  0
   24.8683  -12.3637  -16.1188 C   0  0  0  0  0  0  0  0  0  0  0  0
   24.1030  -11.0826  -15.8742 C   0  0  0  0  0  0  0  0  0  0  0  0
   22.6442  -11.3312  -16.1168 C   0  0  2  0  0  0  0  0  0  0  0  0
   22.4862  -12.1557  -17.2910 N   0  0  0  0  0  0  0  0  0  0  0  0
   21.9253  -10.0340  -16.2932 C   0  0  0  0  0  0  0  0  0  0  0  0
   21.7131   -9.5668  -17.4411 O   0  0  0  0  0  0  0  0  0  0  0  0
   21.4867   -9.3381  -15.1543 N   0  0  0  0  0  0  0  0  0  0  0  0
   20.6370   -8.1204  -15.2763 C   0  0  1  0  0  0  0  0  0  0  0  0
   19.3411   -8.4761  -14.6511 C   0  0  0  0  0  0  0  0  0  0  0  0
   18.4750   -9.3217  -15.4825 C   0  0  0  0  0  0  0  0  0  0  0  0
   17.8012   -8.9043  -16.6153 C   0  0  0  0  0  0  0  0  0  0  0  0
   17.1259   -9.9701  -17.0771 N   0  0  0  0  0  0  0  0  0  0  0  0
   17.3579  -11.0065  -16.2819 C   0  0  0  0  0  0  0  0  0  0  0  0
   18.1835  -10.6005  -15.3103 N   0  0  0  0  0  0  0  0  0  0  0  0
   21.3976   -7.0197  -14.7300 C   0  0  0  0  0  0  0  0  0  0  0  0
   21.9557   -7.1720  -13.5851 O   0  0  0  0  0  0  0  0  0  0  0  0
   22.6629   -3.5984  -15.7339 C   0  0  0  0  0  0  0  0  0  0  0  0
   22.4060   -4.7626  -14.7958 C   0  0  2  0  0  0  0  0  0  0  0  0
   21.5776   -5.7669  -15.3828 N   0  0  0  0  0  0  0  0  0  0  0  0
   21.8343   -4.2225  -13.5679 C   0  0  0  0  0  0  0  0  0  0  0  0
   20.5958   -4.4665  -13.3409 O   0  0  0  0  0  0  0  0  0  0  0  0
   22.5336   -3.4750  -12.6461 O   0  0  0  0  0  0  0  0  0  0  0  0
  2  4  1  0
  2  1  1  0
  3  2  2  0
  5  6  1  0
  5  4  1  0
  6  7  1  6
  6  8  1  0
  8  9  2  0
 10  8  1  0
 10 11  1  0
 11 12  1  1
 12 13  1  0
 13 14  2  0
 14 15  1  0
 16 15  1  0
 17 13  1  0
 17 16  2  0
 18 22  1  0
 18 11  1  0
 19 18  2  0
 21 20  1  6
 21 23  1  0
 21 22  1  0
 23 25  1  0
 24 23  2  0
M  END
$$$$
