QHA.pdb
     RDKit          3D

 25 25  0  0  1  0  0  0  0  0999 V2000
   16.7580  -11.0097  -10.2889 N   0  0  0  0  0  0  0  0  0  0  0  0
   15.3661  -11.1126  -10.5648 C   0  0  0  0  0  0  0  0  0  0  0  0
   14.5607  -11.5872   -9.7057 O   0  0  0  0  0  0  0  0  0  0  0  0
   14.9032  -10.6408  -11.8981 C   0  0  0  0  0  0  0  0  0  0  0  0
   16.1087  -10.1314  -12.6558 C   0  0  0  0  0  0  0  0  0  0  0  0
   15.6841   -9.7321  -14.0375 C   0  0  2  0  0  0  0  0  0  0  0  0
   15.5051  -10.9147  -14.8456 N   0  0  0  0  0  0  0  0  0  0  0  0
   16.7096   -8.8355  -14.6500 C   0  0  0  0  0  0  0  0  0  0  0  0
   17.4517   -9.2464  -15.5781 O   0  0  0  0  0  0  0  0  0  0  0  0
   16.8356   -7.5198  -14.1737 N   0  0  0  0  0  0  0  0  0  0  0  0
   17.8014   -6.5675  -14.7901 C   0  0  1  0  0  0  0  0  0  0  0  0
   17.0263   -5.3326  -15.0567 C   0  0  0  0  0  0  0  0  0  0  0  0
   16.2103   -5.3767  -16.2768 C   0  0  0  0  0  0  0  0  0  0  0  0
   16.6492   -5.0386  -17.5435 C   0  0  0  0  0  0  0  0  0  0  0  0
   15.6062   -5.2128  -18.3723 N   0  0  0  0  0  0  0  0  0  0  0  0
   14.5631   -5.6378  -17.6711 C   0  0  0  0  0  0  0  0  0  0  0  0
   14.9420   -5.7349  -16.3915 N   0  0  0  0  0  0  0  0  0  0  0  0
   18.9449   -6.4982  -13.9090 C   0  0  0  0  0  0  0  0  0  0  0  0
   18.7511   -6.1832  -12.6808 O   0  0  0  0  0  0  0  0  0  0  0  0
   22.6050   -7.3727  -13.8124 C   0  0  0  0  0  0  0  0  0  0  0  0
   21.3565   -6.6291  -13.3771 C   0  0  2  0  0  0  0  0  0  0  0  0
   20.2849   -6.7633  -14.3116 N   0  0  0  0  0  0  0  0  0  0  0  0
   21.7264   -5.2361  -13.1564 C   0  0  0  0  0  0  0  0  0  0  0  0
   22.5506   -4.9921  -12.2044 O   0  0  0  0  0  0  0  0  0  0  0  0
   21.2515   -4.1771  -13.8983 O   0  0  0  0  0  0  0  0  0  0  0  0
  2  4  1  0
  2  1  1  0
  3  2  2  0
  5  6  1  0
  5  4  1  0
  6  7  1  6
  6  8  1  0
  8  9  2  0
 10  8  1  0
 10 11  1  0
 11 12  1  1
 12 13  1  0
 13 14  2  0
 14 15  1  0
 16 15  1  0
 17 13  1  0
 17 16  2  0
 18 22  1  0
 18 11  1  0
 19 18  2  0
 21 20  1  6
 21 23  1  0
 21 22  1  0
 23 25  1  0
 24 23  2  0
M  END
$$$$
