QHA.pdb
     RDKit          3D

 25 25  0  0  1  0  0  0  0  0999 V2000
   15.2419  -11.0065  -13.7648 N   0  0  0  0  0  0  0  0  0  0  0  0
   14.8886  -11.7319  -14.9366 C   0  0  0  0  0  0  0  0  0  0  0  0
   13.7028  -12.1479  -15.1177 O   0  0  0  0  0  0  0  0  0  0  0  0
   15.9672  -11.9775  -15.9320 C   0  0  0  0  0  0  0  0  0  0  0  0
   17.2328  -11.3302  -15.4162 C   0  0  0  0  0  0  0  0  0  0  0  0
   18.3215  -11.5082  -16.4321 C   0  0  2  0  0  0  0  0  0  0  0  0
   18.6331  -12.9117  -16.5612 N   0  0  0  0  0  0  0  0  0  0  0  0
   19.5363  -10.7427  -16.0212 C   0  0  0  0  0  0  0  0  0  0  0  0
   20.2804  -11.1630  -15.0989 O   0  0  0  0  0  0  0  0  0  0  0  0
   19.8392   -9.5402  -16.6817 N   0  0  0  0  0  0  0  0  0  0  0  0
   21.0899   -8.7896  -16.3784 C   0  0  1  0  0  0  0  0  0  0  0  0
   21.8923   -8.8353  -17.6237 C   0  0  0  0  0  0  0  0  0  0  0  0
   23.1373   -8.0579  -17.5754 C   0  0  0  0  0  0  0  0  0  0  0  0
   24.3293   -8.4927  -17.0262 C   0  0  0  0  0  0  0  0  0  0  0  0
   25.2128   -7.4925  -17.1813 N   0  0  0  0  0  0  0  0  0  0  0  0
   24.6153   -6.4791  -17.7948 C   0  0  0  0  0  0  0  0  0  0  0  0
   23.3472   -6.8340  -18.0315 N   0  0  0  0  0  0  0  0  0  0  0  0
   20.6922   -7.5046  -15.8501 C   0  0  0  0  0  0  0  0  0  0  0  0
   19.6257   -6.9593  -16.3092 O   0  0  0  0  0  0  0  0  0  0  0  0
   21.6829   -5.0423  -13.1532 C   0  0  0  0  0  0  0  0  0  0  0  0
   20.9255   -5.5362  -14.3713 C   0  0  2  0  0  0  0  0  0  0  0  0
   21.4055   -6.7965  -14.8413 N   0  0  0  0  0  0  0  0  0  0  0  0
   21.0060   -4.4983  -15.3923 C   0  0  0  0  0  0  0  0  0  0  0  0
   20.4774   -3.3626  -15.1168 O   0  0  0  0  0  0  0  0  0  0  0  0
   21.6079   -4.6591  -16.6208 O   0  0  0  0  0  0  0  0  0  0  0  0
  2  4  1  0
  2  1  1  0
  3  2  2  0
  5  6  1  0
  5  4  1  0
  6  7  1  1
  6  8  1  0
  8  9  2  0
 10  8  1  0
 10 11  1  0
 11 12  1  6
 12 13  1  0
 13 14  2  0
 14 15  1  0
 16 15  1  0
 17 13  1  0
 17 16  2  0
 18 22  1  0
 18 11  1  0
 19 18  2  0
 21 20  1  1
 21 23  1  0
 21 22  1  0
 23 25  1  0
 24 23  2  0
M  END
$$$$
