TQN.pdb
     RDKit          3D

 25 24  0  0  1  0  0  0  0  0999 V2000
    6.5822  -14.2805   18.2090 C   0  0  0  0  0  0  0  0  0  0  0  0
    7.2088  -14.5419   19.5553 C   0  0  1  0  0  0  0  0  0  0  0  0
    8.2053  -15.4916   19.3934 O   0  0  0  0  0  0  0  0  0  0  0  0
    7.6889  -13.2952   20.2315 C   0  0  2  0  0  0  0  0  0  0  0  0
    8.5287  -12.5433   19.3554 N   0  0  0  0  0  0  0  0  0  0  0  0
    8.3434  -13.5723   21.5443 C   0  0  0  0  0  0  0  0  0  0  0  0
    9.5849  -13.6422   21.5644 O   0  0  0  0  0  0  0  0  0  0  0  0
    5.3820  -13.2170   27.1820 N   0  0  0  0  0  0  0  0  0  0  0  0
    6.0788  -12.1413   26.5816 C   0  0  0  0  0  0  0  0  0  0  0  0
    5.8970  -10.9664   26.9679 O   0  0  0  0  0  0  0  0  0  0  0  0
    7.0376  -12.3982   25.4814 C   0  0  0  0  0  0  0  0  0  0  0  0
    7.1007  -13.8590   25.1714 C   0  0  0  0  0  0  0  0  0  0  0  0
    8.0048  -14.1994   24.0039 C   0  0  2  0  0  0  0  0  0  0  0  0
    7.5988  -13.7506   22.7261 N   0  0  0  0  0  0  0  0  0  0  0  0
    8.4809  -15.5672   24.1177 C   0  0  0  0  0  0  0  0  0  0  0  0
    7.9082  -16.5514   23.5729 O   0  0  0  0  0  0  0  0  0  0  0  0
   11.5855  -18.2248   22.4214 N   0  0  0  0  0  0  0  0  0  0  0  0
   11.8261  -17.1081   23.2483 C   0  0  0  0  0  0  0  0  0  0  0  0
   12.2444  -16.0584   22.7201 O   0  0  0  0  0  0  0  0  0  0  0  0
   11.5869  -17.1933   24.6864 C   0  0  0  0  0  0  0  0  0  0  0  0
   10.1372  -17.2358   25.0738 C   0  0  2  0  0  0  0  0  0  0  0  0
    9.6467  -15.8564   24.8713 N   0  0  0  0  0  0  0  0  0  0  0  0
    9.9194  -17.5125   26.5151 C   0  0  0  0  0  0  0  0  0  0  0  0
    9.5489  -16.6017   27.3027 O   0  0  0  0  0  0  0  0  0  0  0  0
   10.1004  -18.7675   27.1031 O   0  0  0  0  0  0  0  0  0  0  0  0
  2  3  1  0
  2  1  1  6
  4  2  1  0
  4  5  1  6
  6  4  1  0
  6 14  1  0
  7  6  2  0
  9 10  2  0
  9  8  1  0
 11  9  1  0
 12 11  1  0
 13 12  1  1
 13 14  1  0
 15 22  1  0
 15 13  1  0
 16 15  2  0
 18 20  1  0
 18 17  1  0
 19 18  2  0
 21 22  1  0
 21 20  1  1
 23 21  1  0
 24 23  2  0
 25 23  1  0
M  END
$$$$
