TQN.pdb
     RDKit          3D

 25 24  0  0  1  0  0  0  0  0999 V2000
    7.8547  -15.4379   16.5635 C   0  0  0  0  0  0  0  0  0  0  0  0
    8.3795  -14.0847   16.9719 C   0  0  1  0  0  0  0  0  0  0  0  0
    7.5635  -13.1150   16.4108 O   0  0  0  0  0  0  0  0  0  0  0  0
    8.5340  -13.9377   18.4540 C   0  0  2  0  0  0  0  0  0  0  0  0
    8.9284  -12.6064   18.7857 N   0  0  0  0  0  0  0  0  0  0  0  0
    9.4497  -14.9620   19.0380 C   0  0  0  0  0  0  0  0  0  0  0  0
    9.1451  -16.1583   18.8871 O   0  0  0  0  0  0  0  0  0  0  0  0
   15.4090  -15.3364   18.3647 N   0  0  0  0  0  0  0  0  0  0  0  0
   14.3780  -14.5699   17.7707 C   0  0  0  0  0  0  0  0  0  0  0  0
   14.5968  -13.8897   16.7451 O   0  0  0  0  0  0  0  0  0  0  0  0
   13.0195  -14.5658   18.3623 C   0  0  0  0  0  0  0  0  0  0  0  0
   12.9924  -15.3748   19.6188 C   0  0  0  0  0  0  0  0  0  0  0  0
   11.6355  -15.4159   20.2924 C   0  0  2  0  0  0  0  0  0  0  0  0
   10.6189  -14.6053   19.7369 N   0  0  0  0  0  0  0  0  0  0  0  0
   11.7899  -15.4078   21.7369 C   0  0  0  0  0  0  0  0  0  0  0  0
   12.7033  -16.0336   22.3431 O   0  0  0  0  0  0  0  0  0  0  0  0
    6.6245  -15.9375   24.1579 N   0  0  0  0  0  0  0  0  0  0  0  0
    7.8964  -16.4515   23.8312 C   0  0  0  0  0  0  0  0  0  0  0  0
    8.2229  -17.5634   24.2926 O   0  0  0  0  0  0  0  0  0  0  0  0
    8.7987  -15.6894   22.9724 C   0  0  0  0  0  0  0  0  0  0  0  0
   10.0945  -15.3001   23.6227 C   0  0  2  0  0  0  0  0  0  0  0  0
   10.8886  -14.6711   22.5464 N   0  0  0  0  0  0  0  0  0  0  0  0
   10.9039  -16.4614   24.0675 C   0  0  0  0  0  0  0  0  0  0  0  0
   11.1779  -16.6340   25.2850 O   0  0  0  0  0  0  0  0  0  0  0  0
   11.4145  -17.4322   23.2013 O   0  0  0  0  0  0  0  0  0  0  0  0
  2  3  1  0
  2  1  1  1
  4  2  1  0
  4  5  1  6
  6  4  1  0
  6 14  1  0
  7  6  2  0
  9 10  2  0
  9  8  1  0
 11  9  1  0
 12 11  1  0
 13 12  1  6
 13 14  1  0
 15 22  1  0
 15 13  1  0
 16 15  2  0
 18 20  1  0
 18 17  1  0
 19 18  2  0
 21 22  1  0
 21 20  1  6
 23 21  1  0
 24 23  2  0
 25 23  1  0
M  END
$$$$
