TQN.pdb
     RDKit          3D

 25 24  0  0  1  0  0  0  0  0999 V2000
   13.5959  -16.4532   15.8974 C   0  0  0  0  0  0  0  0  0  0  0  0
   13.0539  -16.2544   17.2902 C   0  0  1  0  0  0  0  0  0  0  0  0
   13.7799  -17.0557   18.1573 O   0  0  0  0  0  0  0  0  0  0  0  0
   13.0199  -14.8166   17.7073 C   0  0  2  0  0  0  0  0  0  0  0  0
   14.3100  -14.2232   17.5606 N   0  0  0  0  0  0  0  0  0  0  0  0
   12.4644  -14.6325   19.0807 C   0  0  0  0  0  0  0  0  0  0  0  0
   13.2693  -14.4016   20.0002 O   0  0  0  0  0  0  0  0  0  0  0  0
    8.7338  -12.2591   17.8661 N   0  0  0  0  0  0  0  0  0  0  0  0
    8.3491  -13.4368   18.5504 C   0  0  0  0  0  0  0  0  0  0  0  0
    7.9964  -14.4567   17.9196 O   0  0  0  0  0  0  0  0  0  0  0  0
    8.3606  -13.4735   20.0317 C   0  0  0  0  0  0  0  0  0  0  0  0
    8.8809  -14.7869   20.5197 C   0  0  0  0  0  0  0  0  0  0  0  0
   10.3934  -14.8674   20.5683 C   0  0  2  0  0  0  0  0  0  0  0  0
   11.0835  -14.7137   19.3438 N   0  0  0  0  0  0  0  0  0  0  0  0
   10.8124  -15.9455   21.4472 C   0  0  0  0  0  0  0  0  0  0  0  0
   10.6783  -17.1679   21.1625 O   0  0  0  0  0  0  0  0  0  0  0  0
   14.6172  -14.5957   22.6338 N   0  0  0  0  0  0  0  0  0  0  0  0
   14.2534  -15.9147   22.9750 C   0  0  0  0  0  0  0  0  0  0  0  0
   14.7762  -16.8557   22.3449 O   0  0  0  0  0  0  0  0  0  0  0  0
   13.2870  -16.1578   24.0424 C   0  0  0  0  0  0  0  0  0  0  0  0
   11.9693  -16.7045   23.5750 C   0  0  2  0  0  0  0  0  0  0  0  0
   11.4078  -15.6535   22.7005 N   0  0  0  0  0  0  0  0  0  0  0  0
   10.9769  -16.8661   24.6660 C   0  0  0  0  0  0  0  0  0  0  0  0
    9.9578  -16.1284   24.7318 O   0  0  0  0  0  0  0  0  0  0  0  0
   11.0844  -17.8206   25.6813 O   0  0  0  0  0  0  0  0  0  0  0  0
  2  3  1  0
  2  1  1  6
  4  2  1  0
  4  5  1  1
  6  4  1  0
  6 14  1  0
  7  6  2  0
  9 10  2  0
  9  8  1  0
 11  9  1  0
 12 11  1  0
 13 12  1  6
 13 14  1  0
 15 22  1  0
 15 13  1  0
 16 15  2  0
 18 20  1  0
 18 17  1  0
 19 18  2  0
 21 22  1  0
 21 20  1  1
 23 21  1  0
 24 23  2  0
 25 23  1  0
M  END
$$$$
