TQN.pdb
     RDKit          3D

 25 24  0  0  1  0  0  0  0  0999 V2000
    6.9252  -14.5425   17.5020 C   0  0  0  0  0  0  0  0  0  0  0  0
    7.6427  -14.7482   18.8121 C   0  0  1  0  0  0  0  0  0  0  0  0
    8.8804  -15.3121   18.5455 O   0  0  0  0  0  0  0  0  0  0  0  0
    7.7299  -13.5008   19.6358 C   0  0  2  0  0  0  0  0  0  0  0  0
    8.2304  -12.4180   18.8515 N   0  0  0  0  0  0  0  0  0  0  0  0
    8.5114  -13.6986   20.8924 C   0  0  0  0  0  0  0  0  0  0  0  0
    9.7450  -13.5534   20.8312 O   0  0  0  0  0  0  0  0  0  0  0  0
    5.6661  -12.0129   26.7208 N   0  0  0  0  0  0  0  0  0  0  0  0
    6.0237  -13.1662   25.9822 C   0  0  0  0  0  0  0  0  0  0  0  0
    5.4879  -14.2700   26.2210 O   0  0  0  0  0  0  0  0  0  0  0  0
    7.0436  -13.0765   24.9111 C   0  0  0  0  0  0  0  0  0  0  0  0
    7.5480  -14.4370   24.5522 C   0  0  0  0  0  0  0  0  0  0  0  0
    8.4552  -14.4541   23.3385 C   0  0  2  0  0  0  0  0  0  0  0  0
    7.8916  -14.0373   22.1106 N   0  0  0  0  0  0  0  0  0  0  0  0
    9.2664  -15.6592   23.3330 C   0  0  0  0  0  0  0  0  0  0  0  0
    8.9337  -16.7197   22.7346 O   0  0  0  0  0  0  0  0  0  0  0  0
   15.1190  -17.0782   23.8363 N   0  0  0  0  0  0  0  0  0  0  0  0
   13.7634  -17.4368   23.6874 C   0  0  0  0  0  0  0  0  0  0  0  0
   13.4791  -18.6458   23.5723 O   0  0  0  0  0  0  0  0  0  0  0  0
   12.7283  -16.4068   23.6701 C   0  0  0  0  0  0  0  0  0  0  0  0
   11.3623  -16.8920   24.0605 C   0  0  2  0  0  0  0  0  0  0  0  0
   10.5044  -15.6890   24.0236 N   0  0  0  0  0  0  0  0  0  0  0  0
   11.2855  -17.3750   25.4613 C   0  0  0  0  0  0  0  0  0  0  0  0
   10.8779  -16.6231   26.3863 O   0  0  0  0  0  0  0  0  0  0  0  0
   11.6469  -18.6645   25.8612 O   0  0  0  0  0  0  0  0  0  0  0  0
  2  3  1  0
  2  1  1  6
  4  2  1  0
  4  5  1  6
  6  4  1  0
  6 14  1  0
  7  6  2  0
  9 10  2  0
  9  8  1  0
 11  9  1  0
 12 11  1  0
 13 12  1  1
 13 14  1  0
 15 22  1  0
 15 13  1  0
 16 15  2  0
 18 20  1  0
 18 17  1  0
 19 18  2  0
 21 22  1  0
 21 20  1  1
 23 21  1  0
 24 23  2  0
 25 23  1  0
M  END
$$$$
