TQN.pdb
     RDKit          3D

 25 24  0  0  1  0  0  0  0  0999 V2000
    6.6497  -15.8569   19.5484 C   0  0  0  0  0  0  0  0  0  0  0  0
    7.5920  -14.8834   18.8866 C   0  0  1  0  0  0  0  0  0  0  0  0
    7.2214  -14.7560   17.5571 O   0  0  0  0  0  0  0  0  0  0  0  0
    7.6775  -13.5707   19.6017 C   0  0  2  0  0  0  0  0  0  0  0  0
    8.3434  -12.6024   18.7910 N   0  0  0  0  0  0  0  0  0  0  0  0
    8.2938  -13.6960   20.9557 C   0  0  0  0  0  0  0  0  0  0  0  0
    9.5043  -13.9753   21.0128 O   0  0  0  0  0  0  0  0  0  0  0  0
    5.3236  -12.1288   26.4487 N   0  0  0  0  0  0  0  0  0  0  0  0
    6.5206  -12.7287   26.9075 C   0  0  0  0  0  0  0  0  0  0  0  0
    6.7975  -12.7529   28.1262 O   0  0  0  0  0  0  0  0  0  0  0  0
    7.4644  -13.3384   25.9415 C   0  0  0  0  0  0  0  0  0  0  0  0
    6.9991  -13.1114   24.5394 C   0  0  0  0  0  0  0  0  0  0  0  0
    7.9062  -13.7162   23.4869 C   0  0  2  0  0  0  0  0  0  0  0  0
    7.5476  -13.5085   22.1350 N   0  0  0  0  0  0  0  0  0  0  0  0
    8.3092  -15.0558   23.8789 C   0  0  0  0  0  0  0  0  0  0  0  0
    7.5318  -16.0502   23.8602 O   0  0  0  0  0  0  0  0  0  0  0  0
   11.9816  -19.0215   23.3059 N   0  0  0  0  0  0  0  0  0  0  0  0
   12.2917  -17.8880   24.0855 C   0  0  0  0  0  0  0  0  0  0  0  0
   13.2179  -17.9753   24.9163 O   0  0  0  0  0  0  0  0  0  0  0  0
   11.5382  -16.6490   23.9133 C   0  0  0  0  0  0  0  0  0  0  0  0
   10.1623  -16.6700   24.5132 C   0  0  2  0  0  0  0  0  0  0  0  0
    9.6365  -15.3034   24.3117 N   0  0  0  0  0  0  0  0  0  0  0  0
   10.1624  -16.8679   25.9836 C   0  0  0  0  0  0  0  0  0  0  0  0
   10.3897  -18.0003   26.4867 O   0  0  0  0  0  0  0  0  0  0  0  0
    9.9186  -15.8471   26.9067 O   0  0  0  0  0  0  0  0  0  0  0  0
  2  3  1  0
  2  1  1  1
  4  2  1  0
  4  5  1  6
  6  4  1  0
  6 14  1  0
  7  6  2  0
  9 10  2  0
  9  8  1  0
 11  9  1  0
 12 11  1  0
 13 12  1  1
 13 14  1  0
 15 22  1  0
 15 13  1  0
 16 15  2  0
 18 20  1  0
 18 17  1  0
 19 18  2  0
 21 22  1  0
 21 20  1  1
 23 21  1  0
 24 23  2  0
 25 23  1  0
M  END
$$$$
