TQN.pdb
     RDKit          3D

 25 24  0  0  1  0  0  0  0  0999 V2000
    6.3069  -11.2954   27.2928 C   0  0  0  0  0  0  0  0  0  0  0  0
    6.9984  -12.3229   26.4330 C   0  0  1  0  0  0  0  0  0  0  0  0
    8.0424  -12.8687   27.1634 O   0  0  0  0  0  0  0  0  0  0  0  0
    6.0625  -13.3547   25.8838 C   0  0  2  0  0  0  0  0  0  0  0  0
    5.4370  -14.0771   26.9445 N   0  0  0  0  0  0  0  0  0  0  0  0
    6.7231  -14.2580   24.8957 C   0  0  0  0  0  0  0  0  0  0  0  0
    7.0761  -15.3829   25.2914 O   0  0  0  0  0  0  0  0  0  0  0  0
    7.2177  -13.1037   18.7177 N   0  0  0  0  0  0  0  0  0  0  0  0
    8.2938  -14.0052   18.8989 C   0  0  0  0  0  0  0  0  0  0  0  0
    8.8337  -14.5617   17.9184 O   0  0  0  0  0  0  0  0  0  0  0  0
    8.7948  -14.3007   20.2617 C   0  0  0  0  0  0  0  0  0  0  0  0
    7.9538  -13.6151   21.2896 C   0  0  0  0  0  0  0  0  0  0  0  0
    7.8631  -14.3619   22.6050 C   0  0  2  0  0  0  0  0  0  0  0  0
    6.9463  -13.8677   23.5613 N   0  0  0  0  0  0  0  0  0  0  0  0
    9.1904  -14.7264   23.0697 C   0  0  0  0  0  0  0  0  0  0  0  0
    9.9312  -13.9526   23.7374 O   0  0  0  0  0  0  0  0  0  0  0  0
   11.8353  -19.9486   24.3641 N   0  0  0  0  0  0  0  0  0  0  0  0
   11.7244  -18.5599   24.5826 C   0  0  0  0  0  0  0  0  0  0  0  0
   12.6073  -17.9936   25.2577 O   0  0  0  0  0  0  0  0  0  0  0  0
   10.5980  -17.8158   24.0259 C   0  0  0  0  0  0  0  0  0  0  0  0
   10.9702  -16.5070   23.3920 C   0  0  2  0  0  0  0  0  0  0  0  0
    9.7202  -16.0094   22.7801 N   0  0  0  0  0  0  0  0  0  0  0  0
   11.9209  -16.6478   22.2616 C   0  0  0  0  0  0  0  0  0  0  0  0
   13.1474  -16.4013   22.4098 O   0  0  0  0  0  0  0  0  0  0  0  0
   11.5485  -17.0536   20.9770 O   0  0  0  0  0  0  0  0  0  0  0  0
  2  3  1  0
  2  1  1  1
  4  2  1  0
  4  5  1  1
  6  4  1  0
  6 14  1  0
  7  6  2  0
  9 10  2  0
  9  8  1  0
 11  9  1  0
 12 11  1  0
 13 12  1  6
 13 14  1  0
 15 22  1  0
 15 13  1  0
 16 15  2  0
 18 20  1  0
 18 17  1  0
 19 18  2  0
 21 22  1  0
 21 20  1  6
 23 21  1  0
 24 23  2  0
 25 23  1  0
M  END
$$$$
