TQN.pdb
     RDKit          3D

 25 24  0  0  1  0  0  0  0  0999 V2000
    7.0280  -16.0755   19.8775 C   0  0  0  0  0  0  0  0  0  0  0  0
    7.7739  -14.8988   19.3009 C   0  0  1  0  0  0  0  0  0  0  0  0
    7.3622  -14.7242   17.9889 O   0  0  0  0  0  0  0  0  0  0  0  0
    7.6428  -13.6579   20.1285 C   0  0  2  0  0  0  0  0  0  0  0  0
    8.1677  -12.5311   19.4263 N   0  0  0  0  0  0  0  0  0  0  0  0
    8.2445  -13.8097   21.4864 C   0  0  0  0  0  0  0  0  0  0  0  0
    9.4851  -13.8462   21.5646 O   0  0  0  0  0  0  0  0  0  0  0  0
    7.5668  -11.3641   27.3362 N   0  0  0  0  0  0  0  0  0  0  0  0
    6.4906  -11.8814   26.5761 C   0  0  0  0  0  0  0  0  0  0  0  0
    5.3523  -12.0010   27.0785 O   0  0  0  0  0  0  0  0  0  0  0  0
    6.7036  -12.2893   25.1676 C   0  0  0  0  0  0  0  0  0  0  0  0
    6.8624  -13.7723   25.0696 C   0  0  0  0  0  0  0  0  0  0  0  0
    7.8153  -14.2160   23.9780 C   0  0  2  0  0  0  0  0  0  0  0  0
    7.4523  -13.9095   22.6462 N   0  0  0  0  0  0  0  0  0  0  0  0
    8.3055  -15.5559   24.2513 C   0  0  0  0  0  0  0  0  0  0  0  0
    7.6352  -16.6017   24.0270 O   0  0  0  0  0  0  0  0  0  0  0  0
   10.8365  -17.9611   22.5499 N   0  0  0  0  0  0  0  0  0  0  0  0
   11.8739  -17.4620   23.3644 C   0  0  0  0  0  0  0  0  0  0  0  0
   13.0273  -17.4131   22.8920 O   0  0  0  0  0  0  0  0  0  0  0  0
   11.5898  -17.0169   24.7259 C   0  0  0  0  0  0  0  0  0  0  0  0
   10.1406  -17.0835   25.1119 C   0  0  2  0  0  0  0  0  0  0  0  0
    9.5997  -15.7440   24.7991 N   0  0  0  0  0  0  0  0  0  0  0  0
    9.9254  -17.2530   26.5701 C   0  0  0  0  0  0  0  0  0  0  0  0
    9.9467  -18.3950   27.1015 O   0  0  0  0  0  0  0  0  0  0  0  0
    9.6887  -16.1936   27.4506 O   0  0  0  0  0  0  0  0  0  0  0  0
  2  3  1  0
  2  1  1  1
  4  2  1  0
  4  5  1  6
  6  4  1  0
  6 14  1  0
  7  6  2  0
  9 10  2  0
  9  8  1  0
 11  9  1  0
 12 11  1  0
 13 12  1  1
 13 14  1  0
 15 22  1  0
 15 13  1  0
 16 15  2  0
 18 20  1  0
 18 17  1  0
 19 18  2  0
 21 22  1  0
 21 20  1  1
 23 21  1  0
 24 23  2  0
 25 23  1  0
M  END
$$$$
