TQN.pdb
     RDKit          3D

 25 24  0  0  1  0  0  0  0  0999 V2000
   20.0437  -19.1547   12.2633 C   0  0  0  0  0  0  0  0  0  0  0  0
   20.4540  -17.7052   12.3283 C   0  0  1  0  0  0  0  0  0  0  0  0
   20.9740  -17.3454   11.0949 O   0  0  0  0  0  0  0  0  0  0  0  0
   19.3507  -16.8029   12.7873 C   0  0  2  0  0  0  0  0  0  0  0  0
   19.7739  -15.4398   12.7548 N   0  0  0  0  0  0  0  0  0  0  0  0
   18.8081  -17.1958   14.1215 C   0  0  0  0  0  0  0  0  0  0  0  0
   19.6236  -17.5405   14.9950 O   0  0  0  0  0  0  0  0  0  0  0  0
   13.0036  -20.1015   13.8664 N   0  0  0  0  0  0  0  0  0  0  0  0
   13.4307  -18.8832   13.2863 C   0  0  0  0  0  0  0  0  0  0  0  0
   12.9802  -18.5079   12.1824 O   0  0  0  0  0  0  0  0  0  0  0  0
   14.4231  -18.0341   13.9863 C   0  0  0  0  0  0  0  0  0  0  0  0
   15.5759  -18.8582   14.4615 C   0  0  0  0  0  0  0  0  0  0  0  0
   16.6438  -18.0606   15.1824 C   0  0  2  0  0  0  0  0  0  0  0  0
   17.4276  -17.1829   14.3984 N   0  0  0  0  0  0  0  0  0  0  0  0
   17.3331  -18.8992   16.1478 C   0  0  0  0  0  0  0  0  0  0  0  0
   18.4363  -19.4668   15.9149 O   0  0  0  0  0  0  0  0  0  0  0  0
   19.0910  -21.5996   19.9870 N   0  0  0  0  0  0  0  0  0  0  0  0
   19.0984  -21.7721   18.5875 C   0  0  0  0  0  0  0  0  0  0  0  0
   19.8049  -22.6803   18.1058 O   0  0  0  0  0  0  0  0  0  0  0  0
   18.2934  -20.9014   17.7353 C   0  0  0  0  0  0  0  0  0  0  0  0
   17.4709  -19.8904   18.4803 C   0  0  2  0  0  0  0  0  0  0  0  0
   16.7721  -19.1182   17.4315 N   0  0  0  0  0  0  0  0  0  0  0  0
   18.2863  -18.8908   19.2133 C   0  0  0  0  0  0  0  0  0  0  0  0
   18.3551  -18.9050   20.4711 O   0  0  0  0  0  0  0  0  0  0  0  0
   19.0246  -17.8806   18.5904 O   0  0  0  0  0  0  0  0  0  0  0  0
  2  3  1  0
  2  1  1  6
  4  2  1  0
  4  5  1  1
  6  4  1  0
  6 14  1  0
  7  6  2  0
  9 10  2  0
  9  8  1  0
 11  9  1  0
 12 11  1  0
 13 12  1  6
 13 14  1  0
 15 22  1  0
 15 13  1  0
 16 15  2  0
 18 20  1  0
 18 17  1  0
 19 18  2  0
 21 22  1  0
 21 20  1  6
 23 21  1  0
 24 23  2  0
 25 23  1  0
M  END
$$$$
