TQN.pdb
     RDKit          3D

 25 24  0  0  1  0  0  0  0  0999 V2000
    7.1270  -20.0324   23.6348 C   0  0  0  0  0  0  0  0  0  0  0  0
    7.2633  -18.7076   24.3417 C   0  0  1  0  0  0  0  0  0  0  0  0
    6.9851  -18.9018   25.6856 O   0  0  0  0  0  0  0  0  0  0  0  0
    8.5869  -18.0490   24.1043 C   0  0  2  0  0  0  0  0  0  0  0  0
    8.6959  -16.8534   24.8768 N   0  0  0  0  0  0  0  0  0  0  0  0
    8.8570  -17.8136   22.6550 C   0  0  0  0  0  0  0  0  0  0  0  0
    8.8605  -18.8038   21.9026 O   0  0  0  0  0  0  0  0  0  0  0  0
    7.5562  -12.4473   19.6439 N   0  0  0  0  0  0  0  0  0  0  0  0
    8.2037  -13.1876   18.6260 C   0  0  0  0  0  0  0  0  0  0  0  0
    8.1957  -12.7886   17.4415 O   0  0  0  0  0  0  0  0  0  0  0  0
    8.9025  -14.4519   18.9562 C   0  0  0  0  0  0  0  0  0  0  0  0
    8.7986  -14.7419   20.4187 C   0  0  0  0  0  0  0  0  0  0  0  0
    9.3413  -16.1003   20.8145 C   0  0  2  0  0  0  0  0  0  0  0  0
    9.1007  -16.5253   22.1414 N   0  0  0  0  0  0  0  0  0  0  0  0
   10.6801  -16.2827   20.2808 C   0  0  0  0  0  0  0  0  0  0  0  0
   10.9139  -16.6166   19.0861 O   0  0  0  0  0  0  0  0  0  0  0  0
   15.1783  -13.5115   18.8614 N   0  0  0  0  0  0  0  0  0  0  0  0
   14.4921  -14.7417   18.9282 C   0  0  0  0  0  0  0  0  0  0  0  0
   14.9618  -15.7170   18.3085 O   0  0  0  0  0  0  0  0  0  0  0  0
   13.2626  -14.8561   19.7077 C   0  0  0  0  0  0  0  0  0  0  0  0
   13.1917  -16.0748   20.5813 C   0  0  2  0  0  0  0  0  0  0  0  0
   11.8121  -16.0856   21.1115 N   0  0  0  0  0  0  0  0  0  0  0  0
   14.0625  -15.9934   21.7798 C   0  0  0  0  0  0  0  0  0  0  0  0
   13.6596  -15.4440   22.8395 O   0  0  0  0  0  0  0  0  0  0  0  0
   15.3627  -16.5035   21.8338 O   0  0  0  0  0  0  0  0  0  0  0  0
  2  3  1  0
  2  1  1  6
  4  2  1  0
  4  5  1  1
  6  4  1  0
  6 14  1  0
  7  6  2  0
  9 10  2  0
  9  8  1  0
 11  9  1  0
 12 11  1  0
 13 12  1  1
 13 14  1  0
 15 22  1  0
 15 13  1  0
 16 15  2  0
 18 20  1  0
 18 17  1  0
 19 18  2  0
 21 22  1  0
 21 20  1  6
 23 21  1  0
 24 23  2  0
 25 23  1  0
M  END
$$$$
