TQN.pdb
     RDKit          3D

 25 24  0  0  1  0  0  0  0  0999 V2000
   10.6973  -14.0049   20.3998 C   0  0  0  0  0  0  0  0  0  0  0  0
    9.5728  -13.1785   19.8289 C   0  0  1  0  0  0  0  0  0  0  0  0
    9.9262  -12.7918   18.5456 O   0  0  0  0  0  0  0  0  0  0  0  0
    8.2462  -13.8701   19.8904 C   0  0  2  0  0  0  0  0  0  0  0  0
    7.2436  -13.0864   19.2432 N   0  0  0  0  0  0  0  0  0  0  0  0
    7.8606  -14.2451   21.2830 C   0  0  0  0  0  0  0  0  0  0  0  0
    7.4465  -13.3399   22.0285 O   0  0  0  0  0  0  0  0  0  0  0  0
    6.0929  -20.0045   22.9101 N   0  0  0  0  0  0  0  0  0  0  0  0
    5.2430  -18.9522   22.4935 C   0  0  0  0  0  0  0  0  0  0  0  0
    4.0754  -19.1858   22.1130 O   0  0  0  0  0  0  0  0  0  0  0  0
    5.7315  -17.5533   22.5040 C   0  0  0  0  0  0  0  0  0  0  0  0
    7.0943  -17.4785   23.1133 C   0  0  0  0  0  0  0  0  0  0  0  0
    7.7233  -16.1017   23.0414 C   0  0  2  0  0  0  0  0  0  0  0  0
    7.9558  -15.5693   21.7523 N   0  0  0  0  0  0  0  0  0  0  0  0
    8.7888  -15.9829   24.0217 C   0  0  0  0  0  0  0  0  0  0  0  0
   10.0143  -16.0704   23.7321 O   0  0  0  0  0  0  0  0  0  0  0  0
   10.0555  -13.0410   28.9548 N   0  0  0  0  0  0  0  0  0  0  0  0
    9.7560  -14.3686   28.5853 C   0  0  0  0  0  0  0  0  0  0  0  0
   10.2258  -15.2961   29.2744 O   0  0  0  0  0  0  0  0  0  0  0  0
    8.9150  -14.6358   27.4218 C   0  0  0  0  0  0  0  0  0  0  0  0
    9.5250  -15.5671   26.4148 C   0  0  2  0  0  0  0  0  0  0  0  0
    8.4799  -15.7566   25.3870 N   0  0  0  0  0  0  0  0  0  0  0  0
    9.7871  -16.9258   26.9502 C   0  0  0  0  0  0  0  0  0  0  0  0
   10.8214  -17.1689   27.6272 O   0  0  0  0  0  0  0  0  0  0  0  0
    8.9357  -18.0169   26.7556 O   0  0  0  0  0  0  0  0  0  0  0  0
  2  3  1  0
  2  1  1  6
  4  2  1  0
  4  5  1  1
  6  4  1  0
  6 14  1  0
  7  6  2  0
  9 10  2  0
  9  8  1  0
 11  9  1  0
 12 11  1  0
 13 12  1  6
 13 14  1  0
 15 22  1  0
 15 13  1  0
 16 15  2  0
 18 20  1  0
 18 17  1  0
 19 18  2  0
 21 22  1  0
 21 20  1  1
 23 21  1  0
 24 23  2  0
 25 23  1  0
M  END
$$$$
