TQN.pdb
     RDKit          3D

 25 24  0  0  1  0  0  0  0  0999 V2000
    7.2290  -13.6238   15.9056 C   0  0  0  0  0  0  0  0  0  0  0  0
    8.0170  -14.3118   16.9916 C   0  0  1  0  0  0  0  0  0  0  0  0
    9.3661  -14.1324   16.7293 O   0  0  0  0  0  0  0  0  0  0  0  0
    7.6226  -13.8762   18.3688 C   0  0  2  0  0  0  0  0  0  0  0  0
    7.6210  -12.4516   18.4610 N   0  0  0  0  0  0  0  0  0  0  0  0
    8.4575  -14.5117   19.4308 C   0  0  0  0  0  0  0  0  0  0  0  0
    9.3347  -13.8125   19.9677 O   0  0  0  0  0  0  0  0  0  0  0  0
    7.6963  -20.6353   21.3094 N   0  0  0  0  0  0  0  0  0  0  0  0
    8.8427  -20.2335   22.0359 C   0  0  0  0  0  0  0  0  0  0  0  0
    9.4054  -21.0194   22.8285 O   0  0  0  0  0  0  0  0  0  0  0  0
    9.3915  -18.8680   21.8633 C   0  0  0  0  0  0  0  0  0  0  0  0
    8.5724  -18.0940   20.8815 C   0  0  0  0  0  0  0  0  0  0  0  0
    9.0598  -16.6765   20.6589 C   0  0  2  0  0  0  0  0  0  0  0  0
    8.2728  -15.8515   19.8227 N   0  0  0  0  0  0  0  0  0  0  0  0
   10.4983  -16.6646   20.4561 C   0  0  0  0  0  0  0  0  0  0  0  0
   11.0611  -17.1431   19.4325 O   0  0  0  0  0  0  0  0  0  0  0  0
   13.9609  -15.7188   18.7888 N   0  0  0  0  0  0  0  0  0  0  0  0
   13.8041  -14.5846   19.6119 C   0  0  0  0  0  0  0  0  0  0  0  0
   14.1878  -13.4798   19.1784 O   0  0  0  0  0  0  0  0  0  0  0  0
   13.2053  -14.7155   20.9374 C   0  0  0  0  0  0  0  0  0  0  0  0
   12.8246  -16.1186   21.3115 C   0  0  2  0  0  0  0  0  0  0  0  0
   11.3519  -16.0953   21.4347 N   0  0  0  0  0  0  0  0  0  0  0  0
   13.3150  -16.5258   22.6514 C   0  0  0  0  0  0  0  0  0  0  0  0
   12.5449  -16.5404   23.6482 O   0  0  0  0  0  0  0  0  0  0  0  0
   14.6313  -16.9161   22.9132 O   0  0  0  0  0  0  0  0  0  0  0  0
  2  3  1  0
  2  1  1  6
  4  2  1  0
  4  5  1  6
  6  4  1  0
  6 14  1  0
  7  6  2  0
  9 10  2  0
  9  8  1  0
 11  9  1  0
 12 11  1  0
 13 12  1  6
 13 14  1  0
 15 22  1  0
 15 13  1  0
 16 15  2  0
 18 20  1  0
 18 17  1  0
 19 18  2  0
 21 22  1  0
 21 20  1  1
 23 21  1  0
 24 23  2  0
 25 23  1  0
M  END
$$$$
