TQN.pdb
     RDKit          3D

 25 24  0  0  1  0  0  0  0  0999 V2000
    9.3869  -19.7231   16.3530 C   0  0  0  0  0  0  0  0  0  0  0  0
    9.3204  -19.4617   17.8364 C   0  0  1  0  0  0  0  0  0  0  0  0
   10.2472  -18.4786   18.1461 O   0  0  0  0  0  0  0  0  0  0  0  0
    7.9386  -19.1387   18.3143 C   0  0  2  0  0  0  0  0  0  0  0  0
    7.3765  -18.0798   17.5392 N   0  0  0  0  0  0  0  0  0  0  0  0
    7.8918  -18.8550   19.7793 C   0  0  0  0  0  0  0  0  0  0  0  0
    7.7448  -17.6713   20.1312 O   0  0  0  0  0  0  0  0  0  0  0  0
    6.1396  -23.1891   23.8861 N   0  0  0  0  0  0  0  0  0  0  0  0
    5.2830  -22.1380   23.4803 C   0  0  0  0  0  0  0  0  0  0  0  0
    4.0449  -22.2295   23.6263 O   0  0  0  0  0  0  0  0  0  0  0  0
    5.8486  -20.9099   22.8741 C   0  0  0  0  0  0  0  0  0  0  0  0
    7.3424  -20.9558   22.8933 C   0  0  0  0  0  0  0  0  0  0  0  0
    8.0006  -19.8088   22.1533 C   0  0  2  0  0  0  0  0  0  0  0  0
    8.0082  -19.8769   20.7410 N   0  0  0  0  0  0  0  0  0  0  0  0
    9.2349  -19.4242   22.8159 C   0  0  0  0  0  0  0  0  0  0  0  0
   10.3442  -19.9878   22.6032 O   0  0  0  0  0  0  0  0  0  0  0  0
    9.1940  -14.6469   23.3534 N   0  0  0  0  0  0  0  0  0  0  0  0
   10.2414  -15.5675   23.5634 C   0  0  0  0  0  0  0  0  0  0  0  0
   11.1720  -15.6061   22.7337 O   0  0  0  0  0  0  0  0  0  0  0  0
   10.2236  -16.4479   24.7283 C   0  0  0  0  0  0  0  0  0  0  0  0
   10.4750  -17.8949   24.4175 C   0  0  2  0  0  0  0  0  0  0  0  0
    9.2384  -18.3649   23.7585 N   0  0  0  0  0  0  0  0  0  0  0  0
   10.6112  -18.7434   25.6271 C   0  0  0  0  0  0  0  0  0  0  0  0
    9.6196  -19.3549   26.1066 O   0  0  0  0  0  0  0  0  0  0  0  0
   11.8131  -18.9309   26.3153 O   0  0  0  0  0  0  0  0  0  0  0  0
  2  3  1  0
  2  1  1  6
  4  2  1  0
  4  5  1  6
  6  4  1  0
  6 14  1  0
  7  6  2  0
  9 10  2  0
  9  8  1  0
 11  9  1  0
 12 11  1  0
 13 12  1  1
 13 14  1  0
 15 22  1  0
 15 13  1  0
 16 15  2  0
 18 20  1  0
 18 17  1  0
 19 18  2  0
 21 22  1  0
 21 20  1  1
 23 21  1  0
 24 23  2  0
 25 23  1  0
M  END
$$$$
