TQN.pdb
     RDKit          3D

 25 24  0  0  1  0  0  0  0  0999 V2000
    6.5488  -16.5037   17.5880 C   0  0  0  0  0  0  0  0  0  0  0  0
    7.3323  -16.2888   18.8583 C   0  0  1  0  0  0  0  0  0  0  0  0
    8.4861  -17.0538   18.7915 O   0  0  0  0  0  0  0  0  0  0  0  0
    7.6005  -14.8438   19.1452 C   0  0  2  0  0  0  0  0  0  0  0  0
    8.1897  -14.2099   18.0099 N   0  0  0  0  0  0  0  0  0  0  0  0
    8.4071  -14.6473   20.3860 C   0  0  0  0  0  0  0  0  0  0  0  0
    9.6271  -14.4458   20.2527 O   0  0  0  0  0  0  0  0  0  0  0  0
    5.7417  -14.6490   26.2127 N   0  0  0  0  0  0  0  0  0  0  0  0
    6.3888  -13.4422   25.8543 C   0  0  0  0  0  0  0  0  0  0  0  0
    6.1445  -12.3797   26.4658 O   0  0  0  0  0  0  0  0  0  0  0  0
    7.3689  -13.4256   24.7432 C   0  0  0  0  0  0  0  0  0  0  0  0
    7.5039  -14.7877   24.1427 C   0  0  0  0  0  0  0  0  0  0  0  0
    8.4237  -14.8390   22.9395 C   0  0  2  0  0  0  0  0  0  0  0  0
    7.8253  -14.6854   21.6677 N   0  0  0  0  0  0  0  0  0  0  0  0
    9.4036  -15.8995   23.0994 C   0  0  0  0  0  0  0  0  0  0  0  0
    9.2495  -17.0649   22.6395 O   0  0  0  0  0  0  0  0  0  0  0  0
   14.6515  -17.5928   22.6683 N   0  0  0  0  0  0  0  0  0  0  0  0
   14.1324  -16.8241   23.7305 C   0  0  0  0  0  0  0  0  0  0  0  0
   14.7239  -16.8539   24.8283 O   0  0  0  0  0  0  0  0  0  0  0  0
   12.9307  -16.0175   23.5354 C   0  0  0  0  0  0  0  0  0  0  0  0
   11.6568  -16.6871   23.9623 C   0  0  2  0  0  0  0  0  0  0  0  0
   10.6105  -15.6555   23.8025 N   0  0  0  0  0  0  0  0  0  0  0  0
   11.6298  -17.0407   25.4030 C   0  0  0  0  0  0  0  0  0  0  0  0
   11.1317  -16.2576   26.2549 O   0  0  0  0  0  0  0  0  0  0  0  0
   12.1382  -18.2350   25.9213 O   0  0  0  0  0  0  0  0  0  0  0  0
  2  3  1  0
  2  1  1  6
  4  2  1  0
  4  5  1  6
  6  4  1  0
  6 14  1  0
  7  6  2  0
  9 10  2  0
  9  8  1  0
 11  9  1  0
 12 11  1  0
 13 12  1  1
 13 14  1  0
 15 22  1  0
 15 13  1  0
 16 15  2  0
 18 20  1  0
 18 17  1  0
 19 18  2  0
 21 22  1  0
 21 20  1  1
 23 21  1  0
 24 23  2  0
 25 23  1  0
M  END
$$$$
