KAA.pdb
     RDKit          3D

 20 19  0  0  1  0  0  0  0  0999 V2000
    6.2720  -16.0622   20.8474 N   0  0  0  0  0  0  0  0  0  0  0  0
    7.3348  -15.3091   21.4796 C   0  0  1  0  0  0  0  0  0  0  0  0
    6.9537  -13.8464   21.3920 C   0  0  0  0  0  0  0  0  0  0  0  0
    7.9495  -13.1907   20.4592 C   0  0  0  0  0  0  0  0  0  0  0  0
    7.6134  -13.3625   19.0099 C   0  0  0  0  0  0  0  0  0  0  0  0
    8.7133  -12.8400   18.1128 C   0  0  0  0  0  0  0  0  0  0  0  0
    8.3122  -13.1340   16.7440 N   0  0  0  0  0  0  0  0  0  0  0  0
    7.5248  -15.7792   22.8444 C   0  0  0  0  0  0  0  0  0  0  0  0
    6.5527  -15.7758   23.6388 O   0  0  0  0  0  0  0  0  0  0  0  0
    9.6272  -18.0691   24.7519 C   0  0  0  0  0  0  0  0  0  0  0  0
    8.8891  -16.7441   24.7103 C   0  0  2  0  0  0  0  0  0  0  0  0
    8.7626  -16.2545   23.3576 N   0  0  0  0  0  0  0  0  0  0  0  0
    9.6834  -15.7659   25.5072 C   0  0  0  0  0  0  0  0  0  0  0  0
   10.7909  -15.3594   25.0679 O   0  0  0  0  0  0  0  0  0  0  0  0
    8.9039  -13.3113   28.0435 C   0  0  0  0  0  0  0  0  0  0  0  0
    9.9232  -14.3388   27.5737 C   0  0  2  0  0  0  0  0  0  0  0  0
    9.2038  -15.2904   26.7527 N   0  0  0  0  0  0  0  0  0  0  0  0
   10.5244  -15.0583   28.7208 C   0  0  0  0  0  0  0  0  0  0  0  0
   10.2889  -16.4047   28.9051 O   0  0  0  0  0  0  0  0  0  0  0  0
   11.2629  -14.4568   29.5518 O   0  0  0  0  0  0  0  0  0  0  0  0
  2  1  1  1
  3  2  1  0
  4  3  1  0
  4  5  1  0
  6  7  1  0
  6  5  1  0
  8  2  1  0
  8  9  2  0
 11 10  1  6
 12 11  1  0
 12  8  1  0
 13 11  1  0
 14 13  2  0
 16 15  1  1
 16 17  1  0
 17 13  1  0
 18 16  1  0
 18 19  1  0
 20 18  2  0
M  END
$$$$
