KAA.pdb
     RDKit          3D

 20 19  0  0  1  0  0  0  0  0999 V2000
    8.7051  -15.4250   20.1184 N   0  0  0  0  0  0  0  0  0  0  0  0
    7.7758  -15.6976   21.1946 C   0  0  1  0  0  0  0  0  0  0  0  0
    7.8003  -17.1926   21.4327 C   0  0  0  0  0  0  0  0  0  0  0  0
    7.5425  -17.8523   20.0948 C   0  0  0  0  0  0  0  0  0  0  0  0
    7.4544  -19.3453   20.1720 C   0  0  0  0  0  0  0  0  0  0  0  0
    7.1947  -19.9632   18.8160 C   0  0  0  0  0  0  0  0  0  0  0  0
    7.2409  -21.4073   18.9984 N   0  0  0  0  0  0  0  0  0  0  0  0
    8.1406  -14.9164   22.3678 C   0  0  0  0  0  0  0  0  0  0  0  0
    9.3508  -14.6689   22.5921 O   0  0  0  0  0  0  0  0  0  0  0  0
    6.4934  -12.8905   25.0932 C   0  0  0  0  0  0  0  0  0  0  0  0
    7.6222  -13.7157   24.5041 C   0  0  2  0  0  0  0  0  0  0  0  0
    7.2029  -14.3993   23.3031 N   0  0  0  0  0  0  0  0  0  0  0  0
    8.0148  -14.7282   25.5258 C   0  0  0  0  0  0  0  0  0  0  0  0
    8.4212  -14.3474   26.6547 O   0  0  0  0  0  0  0  0  0  0  0  0
    7.4175  -18.2928   26.0471 C   0  0  0  0  0  0  0  0  0  0  0  0
    8.4108  -17.1436   26.1371 C   0  0  2  0  0  0  0  0  0  0  0  0
    7.9346  -16.1132   25.2379 N   0  0  0  0  0  0  0  0  0  0  0  0
    9.7613  -17.5691   25.7012 C   0  0  0  0  0  0  0  0  0  0  0  0
   10.5102  -18.4284   26.4777 O   0  0  0  0  0  0  0  0  0  0  0  0
   10.2544  -17.1559   24.6131 O   0  0  0  0  0  0  0  0  0  0  0  0
  2  1  1  6
  3  2  1  0
  4  3  1  0
  4  5  1  0
  6  7  1  0
  6  5  1  0
  8  2  1  0
  8  9  2  0
 11 10  1  1
 12 11  1  0
 12  8  1  0
 13 11  1  0
 14 13  2  0
 16 15  1  6
 16 17  1  0
 17 13  1  0
 18 16  1  0
 18 19  1  0
 20 18  2  0
M  END
$$$$
