KAA.pdb
     RDKit          3D

 20 19  0  0  1  0  0  0  0  0999 V2000
   10.3581  -16.7009   16.6079 N   0  0  0  0  0  0  0  0  0  0  0  0
    9.8837  -17.4834   17.7299 C   0  0  1  0  0  0  0  0  0  0  0  0
   10.8997  -18.5808   17.9656 C   0  0  0  0  0  0  0  0  0  0  0  0
   10.7027  -19.6022   16.8658 C   0  0  0  0  0  0  0  0  0  0  0  0
   11.6089  -20.7888   16.9830 C   0  0  0  0  0  0  0  0  0  0  0  0
   11.3398  -21.8098   15.9000 C   0  0  0  0  0  0  0  0  0  0  0  0
   12.2707  -22.9080   16.1196 N   0  0  0  0  0  0  0  0  0  0  0  0
    9.6856  -16.6175   18.8834 C   0  0  0  0  0  0  0  0  0  0  0  0
   10.6717  -16.0260   19.3872 O   0  0  0  0  0  0  0  0  0  0  0  0
    6.8287  -15.2630   20.9733 C   0  0  0  0  0  0  0  0  0  0  0  0
    8.2872  -15.5418   20.6615 C   0  0  2  0  0  0  0  0  0  0  0  0
    8.4245  -16.3860   19.4979 N   0  0  0  0  0  0  0  0  0  0  0  0
    8.8690  -16.2443   21.8409 C   0  0  0  0  0  0  0  0  0  0  0  0
    8.9320  -17.5015   21.8473 O   0  0  0  0  0  0  0  0  0  0  0  0
   10.3839  -14.9958   25.0366 C   0  0  0  0  0  0  0  0  0  0  0  0
    9.9620  -16.1281   24.1117 C   0  0  2  0  0  0  0  0  0  0  0  0
    9.3511  -15.5106   22.9531 N   0  0  0  0  0  0  0  0  0  0  0  0
    8.9642  -17.0076   24.7643 C   0  0  0  0  0  0  0  0  0  0  0  0
    9.3699  -18.0514   25.5694 O   0  0  0  0  0  0  0  0  0  0  0  0
    7.7251  -16.8214   24.5983 O   0  0  0  0  0  0  0  0  0  0  0  0
  2  1  1  6
  3  2  1  0
  4  3  1  0
  4  5  1  0
  6  7  1  0
  6  5  1  0
  8  2  1  0
  8  9  2  0
 11 10  1  1
 12 11  1  0
 12  8  1  0
 13 11  1  0
 14 13  2  0
 16 15  1  1
 16 17  1  0
 17 13  1  0
 18 16  1  0
 18 19  1  0
 20 18  2  0
M  END
$$$$
