KAA.pdb
     RDKit          3D

 20 19  0  0  1  0  0  0  0  0999 V2000
    8.3502  -16.9030   16.5124 N   0  0  0  0  0  0  0  0  0  0  0  0
    7.7564  -16.7530   17.8243 C   0  0  1  0  0  0  0  0  0  0  0  0
    7.9694  -18.0596   18.5589 C   0  0  0  0  0  0  0  0  0  0  0  0
    6.9962  -19.0570   17.9675 C   0  0  0  0  0  0  0  0  0  0  0  0
    7.0373  -20.3983   18.6325 C   0  0  0  0  0  0  0  0  0  0  0  0
    6.0350  -21.3559   18.0272 C   0  0  0  0  0  0  0  0  0  0  0  0
    6.0720  -22.5666   18.8357 N   0  0  0  0  0  0  0  0  0  0  0  0
    8.3426  -15.6043   18.5001 C   0  0  0  0  0  0  0  0  0  0  0  0
    9.5882  -15.4487   18.4838 O   0  0  0  0  0  0  0  0  0  0  0  0
    7.2285  -12.4595   20.2856 C   0  0  0  0  0  0  0  0  0  0  0  0
    8.2245  -13.5441   19.9198 C   0  0  2  0  0  0  0  0  0  0  0  0
    7.5888  -14.6196   19.1955 N   0  0  0  0  0  0  0  0  0  0  0  0
    8.7854  -14.0821   21.1922 C   0  0  0  0  0  0  0  0  0  0  0  0
    9.5024  -13.3438   21.9171 O   0  0  0  0  0  0  0  0  0  0  0  0
    8.1958  -17.2429   23.0844 C   0  0  0  0  0  0  0  0  0  0  0  0
    9.0268  -15.9965   22.8174 C   0  0  2  0  0  0  0  0  0  0  0  0
    8.5191  -15.4150   21.5922 N   0  0  0  0  0  0  0  0  0  0  0  0
   10.4557  -16.3378   22.6261 C   0  0  0  0  0  0  0  0  0  0  0  0
   11.2329  -16.7270   23.6970 O   0  0  0  0  0  0  0  0  0  0  0  0
   10.9914  -16.2799   21.4826 O   0  0  0  0  0  0  0  0  0  0  0  0
  2  1  1  6
  3  2  1  0
  4  3  1  0
  4  5  1  0
  6  7  1  0
  6  5  1  0
  8  2  1  0
  8  9  2  0
 11 10  1  1
 12 11  1  0
 12  8  1  0
 13 11  1  0
 14 13  2  0
 16 15  1  6
 16 17  1  0
 17 13  1  0
 18 16  1  0
 18 19  1  0
 20 18  2  0
M  END
$$$$
