KAA.pdb
     RDKit          3D

 20 19  0  0  1  0  0  0  0  0999 V2000
   10.3085  -16.5404   20.1380 N   0  0  0  0  0  0  0  0  0  0  0  0
   10.7538  -17.0658   21.4116 C   0  0  1  0  0  0  0  0  0  0  0  0
   12.2651  -16.9756   21.4238 C   0  0  0  0  0  0  0  0  0  0  0  0
   12.7551  -17.6856   20.1798 C   0  0  0  0  0  0  0  0  0  0  0  0
   14.2450  -17.8254   20.1194 C   0  0  0  0  0  0  0  0  0  0  0  0
   14.6813  -18.6873   18.9555 C   0  0  0  0  0  0  0  0  0  0  0  0
   16.1361  -18.7392   18.9954 N   0  0  0  0  0  0  0  0  0  0  0  0
   10.1191  -16.3293   22.4953 C   0  0  0  0  0  0  0  0  0  0  0  0
   10.1782  -15.0753   22.5064 O   0  0  0  0  0  0  0  0  0  0  0  0
    7.5229  -16.9306   25.1166 C   0  0  0  0  0  0  0  0  0  0  0  0
    8.7064  -16.1636   24.5571 C   0  0  2  0  0  0  0  0  0  0  0  0
    9.4187  -16.9414   23.5706 N   0  0  0  0  0  0  0  0  0  0  0  0
    9.6236  -15.8669   25.6945 C   0  0  0  0  0  0  0  0  0  0  0  0
   10.6384  -16.5884   25.8795 O   0  0  0  0  0  0  0  0  0  0  0  0
    9.6110  -13.2082   28.3384 C   0  0  0  0  0  0  0  0  0  0  0  0
   10.1524  -14.5027   27.7497 C   0  0  2  0  0  0  0  0  0  0  0  0
    9.3637  -14.7818   26.5677 N   0  0  0  0  0  0  0  0  0  0  0  0
    9.9987  -15.6279   28.7012 C   0  0  0  0  0  0  0  0  0  0  0  0
   10.9263  -15.8318   29.7014 O   0  0  0  0  0  0  0  0  0  0  0  0
    9.0188  -16.4219   28.6177 O   0  0  0  0  0  0  0  0  0  0  0  0
  2  1  1  6
  3  2  1  0
  4  3  1  0
  4  5  1  0
  6  7  1  0
  6  5  1  0
  8  2  1  0
  8  9  2  0
 11 10  1  1
 12 11  1  0
 12  8  1  0
 13 11  1  0
 14 13  2  0
 16 15  1  1
 16 17  1  0
 17 13  1  0
 18 16  1  0
 18 19  1  0
 20 18  2  0
M  END
$$$$
