KAA.pdb
     RDKit          3D

 20 19  0  0  1  0  0  0  0  0999 V2000
    5.2767  -19.9651   18.4172 N   0  0  0  0  0  0  0  0  0  0  0  0
    6.6127  -19.4691   18.1617 C   0  0  1  0  0  0  0  0  0  0  0  0
    6.4634  -18.1372   17.4575 C   0  0  0  0  0  0  0  0  0  0  0  0
    6.0276  -18.4392   16.0396 C   0  0  0  0  0  0  0  0  0  0  0  0
    6.8411  -17.7307   15.0007 C   0  0  0  0  0  0  0  0  0  0  0  0
    6.2551  -17.9005   13.6167 C   0  0  0  0  0  0  0  0  0  0  0  0
    6.9803  -16.9909   12.7406 N   0  0  0  0  0  0  0  0  0  0  0  0
    7.3527  -19.3852   19.4127 C   0  0  0  0  0  0  0  0  0  0  0  0
    6.8117  -18.8574   20.4151 O   0  0  0  0  0  0  0  0  0  0  0  0
   10.5676  -20.6755   20.9159 C   0  0  0  0  0  0  0  0  0  0  0  0
    9.3785  -19.7359   20.8436 C   0  0  2  0  0  0  0  0  0  0  0  0
    8.6779  -19.8695   19.5878 N   0  0  0  0  0  0  0  0  0  0  0  0
    9.9016  -18.3446   20.9607 C   0  0  0  0  0  0  0  0  0  0  0  0
    9.4877  -17.4560   20.1709 O   0  0  0  0  0  0  0  0  0  0  0  0
   10.0488  -15.9201   22.7464 C   0  0  0  0  0  0  0  0  0  0  0  0
   11.2778  -16.6570   22.2345 C   0  0  2  0  0  0  0  0  0  0  0  0
   10.8590  -18.0141   21.9515 N   0  0  0  0  0  0  0  0  0  0  0  0
   12.3456  -16.6926   23.2609 C   0  0  0  0  0  0  0  0  0  0  0  0
   13.2215  -15.6360   23.3982 O   0  0  0  0  0  0  0  0  0  0  0  0
   12.4768  -17.6874   24.0296 O   0  0  0  0  0  0  0  0  0  0  0  0
  2  1  1  1
  3  2  1  0
  4  3  1  0
  4  5  1  0
  6  7  1  0
  6  5  1  0
  8  2  1  0
  8  9  2  0
 11 10  1  6
 12 11  1  0
 12  8  1  0
 13 11  1  0
 14 13  2  0
 16 15  1  1
 16 17  1  0
 17 13  1  0
 18 16  1  0
 18 19  1  0
 20 18  2  0
M  END
$$$$
