KAA.pdb
     RDKit          3D

 20 19  0  0  1  0  0  0  0  0999 V2000
    8.4512  -14.7046   20.6875 N   0  0  0  0  0  0  0  0  0  0  0  0
    7.6929  -15.1688   21.8301 C   0  0  1  0  0  0  0  0  0  0  0  0
    7.8155  -16.6776   21.8596 C   0  0  0  0  0  0  0  0  0  0  0  0
    6.8512  -17.2146   20.8236 C   0  0  0  0  0  0  0  0  0  0  0  0
    6.8026  -18.7105   20.7711 C   0  0  0  0  0  0  0  0  0  0  0  0
    5.8428  -19.2042   19.7115 C   0  0  0  0  0  0  0  0  0  0  0  0
    5.9371  -20.6575   19.7059 N   0  0  0  0  0  0  0  0  0  0  0  0
    8.1822  -14.5224   23.0395 C   0  0  0  0  0  0  0  0  0  0  0  0
    9.4190  -14.3967   23.2144 O   0  0  0  0  0  0  0  0  0  0  0  0
    6.7963  -12.7426   26.0849 C   0  0  0  0  0  0  0  0  0  0  0  0
    7.8781  -13.4301   25.2730 C   0  0  2  0  0  0  0  0  0  0  0  0
    7.3407  -14.0094   24.0642 N   0  0  0  0  0  0  0  0  0  0  0  0
    8.4480  -14.5173   26.1193 C   0  0  0  0  0  0  0  0  0  0  0  0
    7.7897  -15.5750   26.2995 O   0  0  0  0  0  0  0  0  0  0  0  0
   11.8339  -15.0953   27.5511 C   0  0  0  0  0  0  0  0  0  0  0  0
   10.3424  -15.3960   27.5348 C   0  0  2  0  0  0  0  0  0  0  0  0
    9.7221  -14.3708   26.7216 N   0  0  0  0  0  0  0  0  0  0  0  0
    9.7695  -15.3326   28.8996 C   0  0  0  0  0  0  0  0  0  0  0  0
   10.0326  -16.3281   29.8173 O   0  0  0  0  0  0  0  0  0  0  0  0
    9.0304  -14.3693   29.2513 O   0  0  0  0  0  0  0  0  0  0  0  0
  2  1  1  6
  3  2  1  0
  4  3  1  0
  4  5  1  0
  6  7  1  0
  6  5  1  0
  8  2  1  0
  8  9  2  0
 11 10  1  1
 12 11  1  0
 12  8  1  0
 13 11  1  0
 14 13  2  0
 16 15  1  1
 16 17  1  0
 17 13  1  0
 18 16  1  0
 18 19  1  0
 20 18  2  0
M  END
$$$$
