KAA.pdb
     RDKit          3D

 20 19  0  0  1  0  0  0  0  0999 V2000
    7.6866  -17.8139   18.7010 N   0  0  0  0  0  0  0  0  0  0  0  0
    8.7331  -16.9222   19.1549 C   0  0  1  0  0  0  0  0  0  0  0  0
    8.3313  -15.5219   18.7427 C   0  0  0  0  0  0  0  0  0  0  0  0
    8.5204  -15.4368   17.2431 C   0  0  0  0  0  0  0  0  0  0  0  0
    8.0506  -14.1424   16.6542 C   0  0  0  0  0  0  0  0  0  0  0  0
    8.2186  -14.1157   15.1512 C   0  0  0  0  0  0  0  0  0  0  0  0
    7.6885  -12.8389   14.6935 N   0  0  0  0  0  0  0  0  0  0  0  0
    8.9190  -17.0743   20.5909 C   0  0  0  0  0  0  0  0  0  0  0  0
    7.9172  -17.2463   21.3277 O   0  0  0  0  0  0  0  0  0  0  0  0
   11.7168  -17.8157   22.9805 C   0  0  0  0  0  0  0  0  0  0  0  0
   10.3259  -17.3075   22.6501 C   0  0  2  0  0  0  0  0  0  0  0  0
   10.1847  -17.0414   21.2377 N   0  0  0  0  0  0  0  0  0  0  0  0
   10.1241  -16.0375   23.4047 C   0  0  0  0  0  0  0  0  0  0  0  0
   10.7873  -15.0149   23.0898 O   0  0  0  0  0  0  0  0  0  0  0  0
    7.3722  -14.6360   25.2269 C   0  0  0  0  0  0  0  0  0  0  0  0
    8.8891  -14.7511   25.1892 C   0  0  2  0  0  0  0  0  0  0  0  0
    9.1940  -15.9713   24.4715 N   0  0  0  0  0  0  0  0  0  0  0  0
    9.4517  -14.8494   26.5562 C   0  0  0  0  0  0  0  0  0  0  0  0
   10.1185  -15.9873   26.9596 O   0  0  0  0  0  0  0  0  0  0  0  0
    9.3335  -13.8970   27.3788 O   0  0  0  0  0  0  0  0  0  0  0  0
  2  1  1  1
  3  2  1  0
  4  3  1  0
  4  5  1  0
  6  7  1  0
  6  5  1  0
  8  2  1  0
  8  9  2  0
 11 10  1  6
 12 11  1  0
 12  8  1  0
 13 11  1  0
 14 13  2  0
 16 15  1  1
 16 17  1  0
 17 13  1  0
 18 16  1  0
 18 19  1  0
 20 18  2  0
M  END
$$$$
