KAA.pdb
     RDKit          3D

 20 19  0  0  1  0  0  0  0  0999 V2000
   -3.9667  -26.4538   29.7678 N   0  0  0  0  0  0  0  0  0  0  0  0
   -3.3276  -25.4037   29.0029 C   0  0  1  0  0  0  0  0  0  0  0  0
   -2.1018  -26.0114   28.3547 C   0  0  0  0  0  0  0  0  0  0  0  0
   -1.2320  -26.5404   29.4751 C   0  0  0  0  0  0  0  0  0  0  0  0
    0.2277  -26.2702   29.2768 C   0  0  0  0  0  0  0  0  0  0  0  0
    1.0653  -26.8711   30.3836 C   0  0  0  0  0  0  0  0  0  0  0  0
    2.4486  -26.5120   30.1037 N   0  0  0  0  0  0  0  0  0  0  0  0
   -4.2744  -24.8468   28.0473 C   0  0  0  0  0  0  0  0  0  0  0  0
   -3.9459  -23.8446   27.3663 O   0  0  0  0  0  0  0  0  0  0  0  0
   -7.4159  -25.7457   26.2528 C   0  0  0  0  0  0  0  0  0  0  0  0
   -6.5086  -24.7296   26.9209 C   0  0  2  0  0  0  0  0  0  0  0  0
   -5.5781  -25.3676   27.8224 N   0  0  0  0  0  0  0  0  0  0  0  0
   -7.3766  -23.8000   27.6989 C   0  0  0  0  0  0  0  0  0  0  0  0
   -8.2226  -23.0884   27.0966 O   0  0  0  0  0  0  0  0  0  0  0  0
   -8.2985  -23.5568   31.2450 C   0  0  0  0  0  0  0  0  0  0  0  0
   -8.0763  -22.8366   29.9231 C   0  0  2  0  0  0  0  0  0  0  0  0
   -7.2582  -23.7103   29.1080 N   0  0  0  0  0  0  0  0  0  0  0  0
   -7.3535  -21.5593   30.1253 C   0  0  0  0  0  0  0  0  0  0  0  0
   -8.0371  -20.4161   30.4832 O   0  0  0  0  0  0  0  0  0  0  0  0
   -6.1004  -21.4895   29.9749 O   0  0  0  0  0  0  0  0  0  0  0  0
  2  1  1  6
  3  2  1  0
  4  3  1  0
  4  5  1  0
  6  7  1  0
  6  5  1  0
  8  2  1  0
  8  9  2  0
 11 10  1  1
 12 11  1  0
 12  8  1  0
 13 11  1  0
 14 13  2  0
 16 15  1  1
 16 17  1  0
 17 13  1  0
 18 16  1  0
 18 19  1  0
 20 18  2  0
M  END
$$$$
