KAA.pdb
     RDKit          3D

 20 19  0  0  1  0  0  0  0  0999 V2000
    9.0553  -13.5467   16.9351 N   0  0  0  0  0  0  0  0  0  0  0  0
    8.5829  -14.5162   17.9010 C   0  0  1  0  0  0  0  0  0  0  0  0
    9.3504  -15.7977   17.6539 C   0  0  0  0  0  0  0  0  0  0  0  0
    9.6949  -15.8232   16.1800 C   0  0  0  0  0  0  0  0  0  0  0  0
   10.2985  -17.1179   15.7299 C   0  0  0  0  0  0  0  0  0  0  0  0
   10.6886  -17.0776   14.2691 C   0  0  0  0  0  0  0  0  0  0  0  0
   11.3431  -18.3449   13.9756 N   0  0  0  0  0  0  0  0  0  0  0  0
    8.7503  -13.9892   19.2478 C   0  0  0  0  0  0  0  0  0  0  0  0
    9.7746  -13.3180   19.5245 O   0  0  0  0  0  0  0  0  0  0  0  0
    6.7495  -13.5922   22.4220 C   0  0  0  0  0  0  0  0  0  0  0  0
    8.0400  -13.6575   21.6268 C   0  0  2  0  0  0  0  0  0  0  0  0
    7.8150  -14.1835   20.3008 N   0  0  0  0  0  0  0  0  0  0  0  0
    8.9686  -14.5668   22.3574 C   0  0  0  0  0  0  0  0  0  0  0  0
    9.3297  -14.2773   23.5281 O   0  0  0  0  0  0  0  0  0  0  0  0
    9.6386  -17.9119   22.7329 C   0  0  0  0  0  0  0  0  0  0  0  0
   10.4002  -16.6441   22.3750 C   0  0  2  0  0  0  0  0  0  0  0  0
    9.4476  -15.7523   21.7469 N   0  0  0  0  0  0  0  0  0  0  0  0
   11.4909  -16.9292   21.4138 C   0  0  0  0  0  0  0  0  0  0  0  0
   12.6516  -17.5449   21.8332 O   0  0  0  0  0  0  0  0  0  0  0  0
   11.3822  -16.6159   20.1941 O   0  0  0  0  0  0  0  0  0  0  0  0
  2  1  1  6
  3  2  1  0
  4  3  1  0
  4  5  1  0
  6  7  1  0
  6  5  1  0
  8  2  1  0
  8  9  2  0
 11 10  1  1
 12 11  1  0
 12  8  1  0
 13 11  1  0
 14 13  2  0
 16 15  1  6
 16 17  1  0
 17 13  1  0
 18 16  1  0
 18 19  1  0
 20 18  2  0
M  END
$$$$
