KAA.pdb
     RDKit          3D

 20 19  0  0  1  0  0  0  0  0999 V2000
    8.7865  -12.6273   18.3652 N   0  0  0  0  0  0  0  0  0  0  0  0
    8.4696  -13.8842   19.0100 C   0  0  1  0  0  0  0  0  0  0  0  0
    9.2650  -14.9591   18.3001 C   0  0  0  0  0  0  0  0  0  0  0  0
    8.4916  -15.3213   17.0502 C   0  0  0  0  0  0  0  0  0  0  0  0
    9.1417  -16.3972   16.2360 C   0  0  0  0  0  0  0  0  0  0  0  0
    8.4451  -16.5946   14.9080 C   0  0  0  0  0  0  0  0  0  0  0  0
    9.1172  -17.7026   14.2436 N   0  0  0  0  0  0  0  0  0  0  0  0
    8.7590  -13.7921   20.4339 C   0  0  0  0  0  0  0  0  0  0  0  0
    9.7774  -13.1659   20.8170 O   0  0  0  0  0  0  0  0  0  0  0  0
    6.9753  -14.2506   23.6889 C   0  0  0  0  0  0  0  0  0  0  0  0
    8.2394  -14.1862   22.8524 C   0  0  2  0  0  0  0  0  0  0  0  0
    7.9523  -14.3743   21.4496 N   0  0  0  0  0  0  0  0  0  0  0  0
    9.1365  -15.2837   23.3146 C   0  0  0  0  0  0  0  0  0  0  0  0
    9.4923  -15.3296   24.5212 O   0  0  0  0  0  0  0  0  0  0  0  0
   10.3932  -18.3750   21.6244 C   0  0  0  0  0  0  0  0  0  0  0  0
   10.3730  -17.4246   22.8126 C   0  0  2  0  0  0  0  0  0  0  0  0
    9.5916  -16.2740   22.4093 N   0  0  0  0  0  0  0  0  0  0  0  0
   11.7409  -16.9734   23.1593 C   0  0  0  0  0  0  0  0  0  0  0  0
   12.1907  -15.7312   22.7634 O   0  0  0  0  0  0  0  0  0  0  0  0
   12.5220  -17.7136   23.8224 O   0  0  0  0  0  0  0  0  0  0  0  0
  2  1  1  6
  3  2  1  0
  4  3  1  0
  4  5  1  0
  6  7  1  0
  6  5  1  0
  8  2  1  0
  8  9  2  0
 11 10  1  1
 12 11  1  0
 12  8  1  0
 13 11  1  0
 14 13  2  0
 16 15  1  6
 16 17  1  0
 17 13  1  0
 18 16  1  0
 18 19  1  0
 20 18  2  0
M  END
$$$$
