KAA.pdb
     RDKit          3D

 20 19  0  0  1  0  0  0  0  0999 V2000
    8.4266  -14.9556   21.4026 N   0  0  0  0  0  0  0  0  0  0  0  0
    7.7327  -15.3830   22.5993 C   0  0  1  0  0  0  0  0  0  0  0  0
    8.0379  -16.8541   22.7866 C   0  0  0  0  0  0  0  0  0  0  0  0
    7.1016  -17.6145   21.8720 C   0  0  0  0  0  0  0  0  0  0  0  0
    7.7673  -18.1378   20.6366 C   0  0  0  0  0  0  0  0  0  0  0  0
    6.8358  -19.0083   19.8228 C   0  0  0  0  0  0  0  0  0  0  0  0
    7.5616  -19.3857   18.6180 N   0  0  0  0  0  0  0  0  0  0  0  0
    8.1422  -14.5566   23.7258 C   0  0  0  0  0  0  0  0  0  0  0  0
    9.3522  -14.2491   23.8575 O   0  0  0  0  0  0  0  0  0  0  0  0
    6.5075  -12.3304   26.2782 C   0  0  0  0  0  0  0  0  0  0  0  0
    7.6783  -13.1219   25.7260 C   0  0  2  0  0  0  0  0  0  0  0  0
    7.2495  -14.0589   24.7141 N   0  0  0  0  0  0  0  0  0  0  0  0
    8.2811  -13.8773   26.8613 C   0  0  0  0  0  0  0  0  0  0  0  0
    8.6697  -13.2563   27.8849 O   0  0  0  0  0  0  0  0  0  0  0  0
    8.4027  -17.4796   27.7259 C   0  0  0  0  0  0  0  0  0  0  0  0
    8.9828  -16.0803   27.8707 C   0  0  2  0  0  0  0  0  0  0  0  0
    8.4204  -15.2859   26.7985 N   0  0  0  0  0  0  0  0  0  0  0  0
   10.4574  -16.0958   27.7289 C   0  0  0  0  0  0  0  0  0  0  0  0
   11.2487  -16.6779   28.6969 O   0  0  0  0  0  0  0  0  0  0  0  0
   11.0200  -15.5782   26.7222 O   0  0  0  0  0  0  0  0  0  0  0  0
  2  1  1  6
  3  2  1  0
  4  3  1  0
  4  5  1  0
  6  7  1  0
  6  5  1  0
  8  2  1  0
  8  9  2  0
 11 10  1  1
 12 11  1  0
 12  8  1  0
 13 11  1  0
 14 13  2  0
 16 15  1  6
 16 17  1  0
 17 13  1  0
 18 16  1  0
 18 19  1  0
 20 18  2  0
M  END
$$$$
