KAA.pdb
     RDKit          3D

 20 19  0  0  1  0  0  0  0  0999 V2000
    7.7787  -16.9333   23.5993 N   0  0  0  0  0  0  0  0  0  0  0  0
    8.6493  -15.9408   23.0048 C   0  0  1  0  0  0  0  0  0  0  0  0
    8.3165  -15.8871   21.5288 C   0  0  0  0  0  0  0  0  0  0  0  0
    8.1381  -17.3183   21.0688 C   0  0  0  0  0  0  0  0  0  0  0  0
    7.9269  -17.4492   19.5919 C   0  0  0  0  0  0  0  0  0  0  0  0
    9.2254  -17.3256   18.8260 C   0  0  0  0  0  0  0  0  0  0  0  0
    8.9293  -17.6690   17.4421 N   0  0  0  0  0  0  0  0  0  0  0  0
    8.4771  -14.6656   23.6860 C   0  0  0  0  0  0  0  0  0  0  0  0
    9.2482  -13.7127   23.4151 O   0  0  0  0  0  0  0  0  0  0  0  0
    5.9867  -12.9174   25.9005 C   0  0  0  0  0  0  0  0  0  0  0  0
    7.3816  -13.1468   25.3494 C   0  0  2  0  0  0  0  0  0  0  0  0
    7.4738  -14.4130   24.6612 N   0  0  0  0  0  0  0  0  0  0  0  0
    8.3224  -13.1546   26.5061 C   0  0  0  0  0  0  0  0  0  0  0  0
    8.3782  -12.1550   27.2692 O   0  0  0  0  0  0  0  0  0  0  0  0
    9.3750  -14.1474   29.1217 C   0  0  0  0  0  0  0  0  0  0  0  0
   10.1366  -14.3200   27.8157 C   0  0  2  0  0  0  0  0  0  0  0  0
    9.1531  -14.2754   26.7538 N   0  0  0  0  0  0  0  0  0  0  0  0
   10.8283  -15.6293   27.7695 C   0  0  0  0  0  0  0  0  0  0  0  0
   11.8909  -15.8908   28.6090 O   0  0  0  0  0  0  0  0  0  0  0  0
   10.4614  -16.5312   26.9634 O   0  0  0  0  0  0  0  0  0  0  0  0
  2  1  1  1
  3  2  1  0
  4  3  1  0
  4  5  1  0
  6  7  1  0
  6  5  1  0
  8  2  1  0
  8  9  2  0
 11 10  1  1
 12 11  1  0
 12  8  1  0
 13 11  1  0
 14 13  2  0
 16 15  1  1
 16 17  1  0
 17 13  1  0
 18 16  1  0
 18 19  1  0
 20 18  2  0
M  END
$$$$
