KAA.pdb
     RDKit          3D

 20 19  0  0  1  0  0  0  0  0999 V2000
    9.6407  -16.4318   16.4216 N   0  0  0  0  0  0  0  0  0  0  0  0
    8.5053  -16.0881   17.2517 C   0  0  1  0  0  0  0  0  0  0  0  0
    7.9823  -17.3798   17.8435 C   0  0  0  0  0  0  0  0  0  0  0  0
    7.4725  -18.2147   16.6882 C   0  0  0  0  0  0  0  0  0  0  0  0
    6.8964  -19.5310   17.1109 C   0  0  0  0  0  0  0  0  0  0  0  0
    6.2832  -20.2754   15.9457 C   0  0  0  0  0  0  0  0  0  0  0  0
    5.7515  -21.5220   16.4787 N   0  0  0  0  0  0  0  0  0  0  0  0
    8.9074  -15.1109   18.2533 C   0  0  0  0  0  0  0  0  0  0  0  0
   10.1117  -15.0444   18.6015 O   0  0  0  0  0  0  0  0  0  0  0  0
    7.3978  -12.2005   20.1471 C   0  0  0  0  0  0  0  0  0  0  0  0
    8.4682  -13.2351   19.8541 C   0  0  2  0  0  0  0  0  0  0  0  0
    8.0133  -14.2024   18.8831 N   0  0  0  0  0  0  0  0  0  0  0  0
    8.7708  -13.9385   21.1334 C   0  0  0  0  0  0  0  0  0  0  0  0
    9.2920  -13.3009   22.0855 O   0  0  0  0  0  0  0  0  0  0  0  0
    7.9109  -17.3184   22.4457 C   0  0  0  0  0  0  0  0  0  0  0  0
    8.7726  -16.0650   22.4908 C   0  0  2  0  0  0  0  0  0  0  0  0
    8.4774  -15.3161   21.2870 N   0  0  0  0  0  0  0  0  0  0  0  0
   10.2140  -16.4073   22.4972 C   0  0  0  0  0  0  0  0  0  0  0  0
   10.7905  -16.9929   23.6049 O   0  0  0  0  0  0  0  0  0  0  0  0
   10.9436  -16.1713   21.4923 O   0  0  0  0  0  0  0  0  0  0  0  0
  2  1  1  6
  3  2  1  0
  4  3  1  0
  4  5  1  0
  6  7  1  0
  6  5  1  0
  8  2  1  0
  8  9  2  0
 11 10  1  1
 12 11  1  0
 12  8  1  0
 13 11  1  0
 14 13  2  0
 16 15  1  6
 16 17  1  0
 17 13  1  0
 18 16  1  0
 18 19  1  0
 20 18  2  0
M  END
$$$$
