FPL.pdb
     RDKit          3D

 27 28  0  0  1  0  0  0  0  0999 V2000
   23.4033  -21.8979  -14.2252 N   0  0  0  0  0  0  0  0  0  0  0  0
   24.4777  -21.0108  -13.7990 C   0  0  1  0  0  0  0  0  0  0  0  0
   23.7887  -19.7283  -13.3717 C   0  0  0  0  0  0  0  0  0  0  0  0
   24.1957  -18.6806  -14.3344 C   0  0  0  0  0  0  0  0  0  0  0  0
   25.3397  -17.9297  -14.1799 C   0  0  0  0  0  0  0  0  0  0  0  0
   25.6737  -16.9555  -15.1189 C   0  0  0  0  0  0  0  0  0  0  0  0
   24.8776  -16.7237  -16.2097 C   0  0  0  0  0  0  0  0  0  0  0  0
   23.7383  -17.4644  -16.3728 C   0  0  0  0  0  0  0  0  0  0  0  0
   23.4167  -18.4249  -15.4394 C   0  0  0  0  0  0  0  0  0  0  0  0
   25.2538  -21.6013  -12.6456 C   0  0  0  0  0  0  0  0  0  0  0  0
   24.5287  -22.3123  -11.8853 O   0  0  0  0  0  0  0  0  0  0  0  0
   26.6231  -21.3614  -12.4766 N   0  0  0  0  0  0  0  0  0  0  0  0
   27.5698  -21.4685  -13.6177 C   0  0  0  0  0  0  0  0  0  0  0  0
   28.2287  -20.1165  -13.5100 C   0  0  0  0  0  0  0  0  0  0  0  0
   28.1307  -19.7303  -12.0274 C   0  0  0  0  0  0  0  0  0  0  0  0
   27.5085  -20.9920  -11.4355 C   0  0  1  0  0  0  0  0  0  0  0  0
   27.0215  -20.8202  -10.0950 C   0  0  0  0  0  0  0  0  0  0  0  0
   25.9413  -20.2797   -9.8193 O   0  0  0  0  0  0  0  0  0  0  0  0
   28.3495  -21.2168   -4.5425 C   0  0  0  0  0  0  0  0  0  0  0  0
   28.3863  -20.0511   -5.5048 C   0  0  1  0  0  0  0  0  0  0  0  0
   29.6226  -19.2267   -5.1091 C   0  0  0  0  0  0  0  0  0  0  0  0
   28.5910  -20.4665   -6.9194 C   0  0  0  0  0  0  0  0  0  0  0  0
   27.4052  -21.0458   -7.6132 C   0  0  2  0  0  0  0  0  0  0  0  0
   27.7992  -21.2856   -9.0033 N   0  0  0  0  0  0  0  0  0  0  0  0
   26.2153  -20.1837   -7.5336 C   0  0  0  0  0  0  0  0  0  0  0  0
   25.0621  -20.6565   -6.9529 O   0  0  0  0  0  0  0  0  0  0  0  0
   26.2487  -19.0292   -7.9894 O   0  0  0  0  0  0  0  0  0  0  0  0
  2  1  1  1
  3  2  1  0
  3  4  1  0
  4  9  1  0
  5  4  2  0
  5  6  1  0
  6  7  2  0
  7  8  1  0
  9  8  2  0
 10 11  2  0
 10  2  1  0
 12 10  1  0
 13 12  1  0
 14 13  1  0
 15 14  1  0
 15 16  1  0
 16 12  1  0
 16 17  1  1
 18 17  2  0
 20 19  1  1
 20 21  1  0
 22 20  1  0
 23 22  1  1
 23 24  1  0
 24 17  1  0
 25 23  1  0
 26 25  1  0
 27 25  2  0
M  END
$$$$
