FPL.pdb
     RDKit          3D

 27 28  0  0  1  0  0  0  0  0999 V2000
   23.2589  -20.6634  -17.2611 N   0  0  0  0  0  0  0  0  0  0  0  0
   23.8746  -19.4992  -16.6378 C   0  0  1  0  0  0  0  0  0  0  0  0
   22.7638  -18.8402  -15.8417 C   0  0  0  0  0  0  0  0  0  0  0  0
   23.0213  -17.3831  -15.8696 C   0  0  0  0  0  0  0  0  0  0  0  0
   23.7602  -16.7377  -14.9032 C   0  0  0  0  0  0  0  0  0  0  0  0
   23.9708  -15.3622  -14.9806 C   0  0  0  0  0  0  0  0  0  0  0  0
   23.4514  -14.6252  -16.0123 C   0  0  0  0  0  0  0  0  0  0  0  0
   22.7154  -15.2568  -16.9781 C   0  0  0  0  0  0  0  0  0  0  0  0
   22.5129  -16.6166  -16.8929 C   0  0  0  0  0  0  0  0  0  0  0  0
   25.0101  -19.8996  -15.7259 C   0  0  0  0  0  0  0  0  0  0  0  0
   24.6235  -20.6201  -14.7558 O   0  0  0  0  0  0  0  0  0  0  0  0
   26.3290  -19.4950  -15.9666 N   0  0  0  0  0  0  0  0  0  0  0  0
   26.8392  -19.3190  -17.3517 C   0  0  0  0  0  0  0  0  0  0  0  0
   27.3736  -17.9139  -17.2333 C   0  0  0  0  0  0  0  0  0  0  0  0
   27.7494  -17.7421  -15.7548 C   0  0  0  0  0  0  0  0  0  0  0  0
   27.4781  -19.1447  -15.2177 C   0  0  1  0  0  0  0  0  0  0  0  0
   27.4602  -19.2191  -13.7831 C   0  0  0  0  0  0  0  0  0  0  0  0
   26.7823  -18.4722  -13.0637 O   0  0  0  0  0  0  0  0  0  0  0  0
   24.1508  -21.2810  -11.5100 C   0  0  0  0  0  0  0  0  0  0  0  0
   25.4616  -20.5438  -11.3529 C   0  0  1  0  0  0  0  0  0  0  0  0
   25.6402  -20.3350   -9.8399 C   0  0  0  0  0  0  0  0  0  0  0  0
   26.6362  -21.3346  -11.8116 C   0  0  0  0  0  0  0  0  0  0  0  0
   27.9556  -20.6423  -11.7615 C   0  0  2  0  0  0  0  0  0  0  0  0
   28.2536  -20.1930  -13.1233 N   0  0  0  0  0  0  0  0  0  0  0  0
   29.0314  -21.4940  -11.2297 C   0  0  0  0  0  0  0  0  0  0  0  0
   29.8379  -22.2000  -12.0910 O   0  0  0  0  0  0  0  0  0  0  0  0
   29.2139  -21.5777  -10.0044 O   0  0  0  0  0  0  0  0  0  0  0  0
  2  1  1  1
  3  2  1  0
  3  4  1  0
  4  9  1  0
  5  4  2  0
  5  6  1  0
  6  7  2  0
  7  8  1  0
  9  8  2  0
 10 11  2  0
 10  2  1  0
 12 10  1  0
 13 12  1  0
 14 13  1  0
 15 14  1  0
 15 16  1  0
 16 12  1  0
 16 17  1  1
 18 17  2  0
 20 19  1  1
 20 21  1  0
 22 20  1  0
 23 22  1  6
 23 24  1  0
 24 17  1  0
 25 23  1  0
 26 25  1  0
 27 25  2  0
M  END
$$$$
