FPL.pdb
     RDKit          3D

 27 28  0  0  1  0  0  0  0  0999 V2000
   14.5464  -15.7816    4.9276 N   0  0  0  0  0  0  0  0  0  0  0  0
   15.9132  -15.9352    4.4466 C   0  0  1  0  0  0  0  0  0  0  0  0
   16.7876  -15.3491    5.5392 C   0  0  0  0  0  0  0  0  0  0  0  0
   17.7269  -14.4131    4.8822 C   0  0  0  0  0  0  0  0  0  0  0  0
   18.6173  -14.8101    3.9096 C   0  0  0  0  0  0  0  0  0  0  0  0
   19.4792  -13.8842    3.3248 C   0  0  0  0  0  0  0  0  0  0  0  0
   19.4611  -12.5668    3.7011 C   0  0  0  0  0  0  0  0  0  0  0  0
   18.5800  -12.1615    4.6669 C   0  0  0  0  0  0  0  0  0  0  0  0
   17.7321  -13.0842    5.2389 C   0  0  0  0  0  0  0  0  0  0  0  0
   16.2565  -17.3884    4.2198 C   0  0  0  0  0  0  0  0  0  0  0  0
   16.1446  -18.0846    5.2744 O   0  0  0  0  0  0  0  0  0  0  0  0
   16.6501  -17.8674    2.9641 N   0  0  0  0  0  0  0  0  0  0  0  0
   16.1106  -17.2764    1.7113 C   0  0  0  0  0  0  0  0  0  0  0  0
   17.4108  -16.9714    1.0112 C   0  0  0  0  0  0  0  0  0  0  0  0
   18.4171  -17.9972    1.5513 C   0  0  0  0  0  0  0  0  0  0  0  0
   17.5164  -18.8547    2.4360 C   0  0  1  0  0  0  0  0  0  0  0  0
   18.2385  -19.7322    3.3149 C   0  0  0  0  0  0  0  0  0  0  0  0
   18.9202  -20.6899    2.9235 O   0  0  0  0  0  0  0  0  0  0  0  0
   22.0054  -18.6167    7.3999 C   0  0  0  0  0  0  0  0  0  0  0  0
   20.6384  -19.2462    7.5455 C   0  0  1  0  0  0  0  0  0  0  0  0
   20.0322  -18.6296    8.8171 C   0  0  0  0  0  0  0  0  0  0  0  0
   19.7151  -18.9046    6.4291 C   0  0  0  0  0  0  0  0  0  0  0  0
   19.2080  -20.0501    5.6207 C   0  0  2  0  0  0  0  0  0  0  0  0
   18.1876  -19.5155    4.7163 N   0  0  0  0  0  0  0  0  0  0  0  0
   18.6731  -21.1440    6.4470 C   0  0  0  0  0  0  0  0  0  0  0  0
   19.5028  -22.1569    6.8666 O   0  0  0  0  0  0  0  0  0  0  0  0
   17.4734  -21.1558    6.7671 O   0  0  0  0  0  0  0  0  0  0  0  0
  2  1  1  1
  3  2  1  0
  3  4  1  0
  4  9  1  0
  5  4  2  0
  5  6  1  0
  6  7  2  0
  7  8  1  0
  9  8  2  0
 10 11  2  0
 10  2  1  0
 12 10  1  0
 13 12  1  0
 14 13  1  0
 15 14  1  0
 15 16  1  0
 16 12  1  0
 16 17  1  1
 18 17  2  0
 20 19  1  6
 20 21  1  0
 22 20  1  0
 23 22  1  1
 23 24  1  0
 24 17  1  0
 25 23  1  0
 26 25  1  0
 27 25  2  0
M  END
$$$$
