FPL.pdb
     RDKit          3D

 27 28  0  0  1  0  0  0  0  0999 V2000
   22.7999  -20.2035  -13.9665 N   0  0  0  0  0  0  0  0  0  0  0  0
   24.0663  -19.6413  -13.5156 C   0  0  1  0  0  0  0  0  0  0  0  0
   23.7879  -18.1676  -13.2861 C   0  0  0  0  0  0  0  0  0  0  0  0
   24.5185  -17.4236  -14.3362 C   0  0  0  0  0  0  0  0  0  0  0  0
   25.8777  -17.2073  -14.2884 C   0  0  0  0  0  0  0  0  0  0  0  0
   26.5134  -16.4990  -15.3065 C   0  0  0  0  0  0  0  0  0  0  0  0
   25.8062  -16.0051  -16.3711 C   0  0  0  0  0  0  0  0  0  0  0  0
   24.4549  -16.2145  -16.4285 C   0  0  0  0  0  0  0  0  0  0  0  0
   23.8357  -16.9156  -15.4174 C   0  0  0  0  0  0  0  0  0  0  0  0
   24.5338  -20.2946  -12.2366 C   0  0  0  0  0  0  0  0  0  0  0  0
   23.7455  -20.0816  -11.2657 O   0  0  0  0  0  0  0  0  0  0  0  0
   25.7155  -21.0439  -12.1787 N   0  0  0  0  0  0  0  0  0  0  0  0
   26.0656  -22.0128  -13.2503 C   0  0  0  0  0  0  0  0  0  0  0  0
   27.4505  -21.5156  -13.5797 C   0  0  0  0  0  0  0  0  0  0  0  0
   27.9724  -20.8718  -12.2874 C   0  0  0  0  0  0  0  0  0  0  0  0
   26.8332  -21.1861  -11.3216 C   0  0  1  0  0  0  0  0  0  0  0  0
   26.9021  -20.4498  -10.0899 C   0  0  0  0  0  0  0  0  0  0  0  0
   26.7570  -19.2217  -10.0134 O   0  0  0  0  0  0  0  0  0  0  0  0
   26.6489  -20.0246   -4.4401 C   0  0  0  0  0  0  0  0  0  0  0  0
   27.0591  -19.7421   -5.8677 C   0  0  1  0  0  0  0  0  0  0  0  0
   28.1920  -18.7064   -5.7754 C   0  0  0  0  0  0  0  0  0  0  0  0
   27.6291  -20.9308   -6.5588 C   0  0  0  0  0  0  0  0  0  0  0  0
   28.1738  -20.6981   -7.9270 C   0  0  2  0  0  0  0  0  0  0  0  0
   27.1489  -21.1403   -8.8752 N   0  0  0  0  0  0  0  0  0  0  0  0
   29.4536  -21.3861   -8.1603 C   0  0  0  0  0  0  0  0  0  0  0  0
   30.6371  -20.7602   -7.8469 O   0  0  0  0  0  0  0  0  0  0  0  0
   29.4688  -22.5313   -8.6399 O   0  0  0  0  0  0  0  0  0  0  0  0
  2  1  1  1
  3  2  1  0
  3  4  1  0
  4  9  1  0
  5  4  2  0
  5  6  1  0
  6  7  2  0
  7  8  1  0
  9  8  2  0
 10 11  2  0
 10  2  1  0
 12 10  1  0
 13 12  1  0
 14 13  1  0
 15 14  1  0
 15 16  1  0
 16 12  1  0
 16 17  1  1
 18 17  2  0
 20 19  1  1
 20 21  1  0
 22 20  1  0
 23 22  1  1
 23 24  1  0
 24 17  1  0
 25 23  1  0
 26 25  1  0
 27 25  2  0
M  END
$$$$
