FPL.pdb
     RDKit          3D

 27 28  0  0  1  0  0  0  0  0999 V2000
   38.5325  -32.5236    3.3150 N   0  0  0  0  0  0  0  0  0  0  0  0
   38.4380  -31.2316    2.6483 C   0  0  1  0  0  0  0  0  0  0  0  0
   37.3847  -31.4155    1.5718 C   0  0  0  0  0  0  0  0  0  0  0  0
   38.0160  -32.1909    0.4809 C   0  0  0  0  0  0  0  0  0  0  0  0
   38.8016  -31.6096   -0.4893 C   0  0  0  0  0  0  0  0  0  0  0  0
   39.3713  -32.3898   -1.4939 C   0  0  0  0  0  0  0  0  0  0  0  0
   39.1645  -33.7435   -1.5394 C   0  0  0  0  0  0  0  0  0  0  0  0
   38.3854  -34.3314   -0.5800 C   0  0  0  0  0  0  0  0  0  0  0  0
   37.8267  -33.5519    0.4088 C   0  0  0  0  0  0  0  0  0  0  0  0
   38.0227  -30.1447    3.6114 C   0  0  0  0  0  0  0  0  0  0  0  0
   37.1070  -30.5217    4.4043 O   0  0  0  0  0  0  0  0  0  0  0  0
   38.6137  -28.8752    3.5923 N   0  0  0  0  0  0  0  0  0  0  0  0
   40.0191  -28.6872    3.1458 C   0  0  0  0  0  0  0  0  0  0  0  0
   39.7986  -27.6197    2.1040 C   0  0  0  0  0  0  0  0  0  0  0  0
   38.5409  -26.8627    2.5532 C   0  0  0  0  0  0  0  0  0  0  0  0
   38.2526  -27.5392    3.8906 C   0  0  1  0  0  0  0  0  0  0  0  0
   36.9509  -27.2397    4.4194 C   0  0  0  0  0  0  0  0  0  0  0  0
   35.9115  -27.8033    4.0492 O   0  0  0  0  0  0  0  0  0  0  0  0
   34.7765  -29.8170    7.0272 C   0  0  0  0  0  0  0  0  0  0  0  0
   34.7781  -28.5164    6.2560 C   0  0  1  0  0  0  0  0  0  0  0  0
   33.3000  -28.1155    6.1177 C   0  0  0  0  0  0  0  0  0  0  0  0
   35.4505  -27.4056    6.9837 C   0  0  0  0  0  0  0  0  0  0  0  0
   35.6022  -26.1253    6.2350 C   0  0  2  0  0  0  0  0  0  0  0  0
   36.8155  -26.2466    5.4238 N   0  0  0  0  0  0  0  0  0  0  0  0
   35.6611  -24.9482    7.1162 C   0  0  0  0  0  0  0  0  0  0  0  0
   36.8630  -24.5520    7.6538 O   0  0  0  0  0  0  0  0  0  0  0  0
   34.6280  -24.3105    7.3765 O   0  0  0  0  0  0  0  0  0  0  0  0
  2  1  1  1
  3  2  1  0
  3  4  1  0
  4  9  1  0
  5  4  2  0
  5  6  1  0
  6  7  2  0
  7  8  1  0
  9  8  2  0
 10 11  2  0
 10  2  1  0
 12 10  1  0
 13 12  1  0
 14 13  1  0
 15 14  1  0
 15 16  1  0
 16 12  1  0
 16 17  1  6
 18 17  2  0
 20 19  1  1
 20 21  1  0
 22 20  1  0
 23 22  1  1
 23 24  1  0
 24 17  1  0
 25 23  1  0
 26 25  1  0
 27 25  2  0
M  END
$$$$
