FPL.pdb
     RDKit          3D

 27 28  0  0  1  0  0  0  0  0999 V2000
   24.0145  -19.7921  -15.6896 N   0  0  0  0  0  0  0  0  0  0  0  0
   25.2218  -19.3350  -15.0140 C   0  0  1  0  0  0  0  0  0  0  0  0
   24.8193  -18.0575  -14.3015 C   0  0  0  0  0  0  0  0  0  0  0  0
   24.8567  -16.9737  -15.3085 C   0  0  0  0  0  0  0  0  0  0  0  0
   26.0242  -16.5447  -15.8994 C   0  0  0  0  0  0  0  0  0  0  0  0
   25.9995  -15.5189  -16.8425 C   0  0  0  0  0  0  0  0  0  0  0  0
   24.8217  -14.9176  -17.2013 C   0  0  0  0  0  0  0  0  0  0  0  0
   23.6555  -15.3364  -16.6200 C   0  0  0  0  0  0  0  0  0  0  0  0
   23.6902  -16.3509  -15.6890 C   0  0  0  0  0  0  0  0  0  0  0  0
   25.7171  -20.3589  -14.0202 C   0  0  0  0  0  0  0  0  0  0  0  0
   24.7703  -20.9317  -13.3998 O   0  0  0  0  0  0  0  0  0  0  0  0
   27.0824  -20.6127  -13.8393 N   0  0  0  0  0  0  0  0  0  0  0  0
   28.0684  -20.3202  -14.9126 C   0  0  0  0  0  0  0  0  0  0  0  0
   29.0338  -19.4703  -14.1256 C   0  0  0  0  0  0  0  0  0  0  0  0
   28.9060  -19.9453  -12.6714 C   0  0  0  0  0  0  0  0  0  0  0  0
   27.9370  -21.1140  -12.8280 C   0  0  1  0  0  0  0  0  0  0  0  0
   27.3927  -21.5822  -11.5837 C   0  0  0  0  0  0  0  0  0  0  0  0
   27.9813  -22.3671  -10.8271 O   0  0  0  0  0  0  0  0  0  0  0  0
   26.8720  -21.2322   -6.6730 C   0  0  0  0  0  0  0  0  0  0  0  0
   26.3894  -20.1139   -7.5690 C   0  0  1  0  0  0  0  0  0  0  0  0
   27.1932  -18.8717   -7.1498 C   0  0  0  0  0  0  0  0  0  0  0  0
   26.6906  -20.3459   -9.0081 C   0  0  0  0  0  0  0  0  0  0  0  0
   25.6978  -21.1607   -9.7651 C   0  0  2  0  0  0  0  0  0  0  0  0
   26.1100  -21.1382  -11.1703 N   0  0  0  0  0  0  0  0  0  0  0  0
   24.3166  -20.6793   -9.6030 C   0  0  0  0  0  0  0  0  0  0  0  0
   23.6805  -20.0524  -10.6484 O   0  0  0  0  0  0  0  0  0  0  0  0
   23.7226  -20.8374   -8.5241 O   0  0  0  0  0  0  0  0  0  0  0  0
  2  1  1  1
  3  2  1  0
  3  4  1  0
  4  9  1  0
  5  4  2  0
  5  6  1  0
  6  7  2  0
  7  8  1  0
  9  8  2  0
 10 11  2  0
 10  2  1  0
 12 10  1  0
 13 12  1  0
 14 13  1  0
 15 14  1  0
 15 16  1  0
 16 12  1  0
 16 17  1  1
 18 17  2  0
 20 19  1  1
 20 21  1  0
 22 20  1  0
 23 22  1  1
 23 24  1  0
 24 17  1  0
 25 23  1  0
 26 25  1  0
 27 25  2  0
M  END
$$$$
