FPL.pdb
     RDKit          3D

 27 28  0  0  1  0  0  0  0  0999 V2000
   23.0900  -20.9235  -13.4210 N   0  0  0  0  0  0  0  0  0  0  0  0
   24.1013  -20.0381  -12.8587 C   0  0  1  0  0  0  0  0  0  0  0  0
   23.3950  -18.7124  -12.6452 C   0  0  0  0  0  0  0  0  0  0  0  0
   22.0616  -19.0216  -12.0827 C   0  0  0  0  0  0  0  0  0  0  0  0
   20.9486  -19.2213  -12.8687 C   0  0  0  0  0  0  0  0  0  0  0  0
   19.7170  -19.5099  -12.2838 C   0  0  0  0  0  0  0  0  0  0  0  0
   19.5856  -19.6010  -10.9229 C   0  0  0  0  0  0  0  0  0  0  0  0
   20.6855  -19.4043  -10.1325 C   0  0  0  0  0  0  0  0  0  0  0  0
   21.8983  -19.1196  -10.7199 C   0  0  0  0  0  0  0  0  0  0  0  0
   24.6306  -20.5701  -11.5479 C   0  0  0  0  0  0  0  0  0  0  0  0
   23.8248  -20.3824  -10.5863 O   0  0  0  0  0  0  0  0  0  0  0  0
   25.8805  -21.1947  -11.4548 N   0  0  0  0  0  0  0  0  0  0  0  0
   26.3488  -22.1393  -12.5028 C   0  0  0  0  0  0  0  0  0  0  0  0
   27.6829  -21.5092  -12.8143 C   0  0  0  0  0  0  0  0  0  0  0  0
   28.1103  -20.7963  -11.5236 C   0  0  0  0  0  0  0  0  0  0  0  0
   26.9891  -21.2099  -10.5743 C   0  0  1  0  0  0  0  0  0  0  0  0
   26.9577  -20.4519   -9.3544 C   0  0  0  0  0  0  0  0  0  0  0  0
   27.4393  -19.3164   -9.2372 O   0  0  0  0  0  0  0  0  0  0  0  0
   29.6162  -20.1520   -5.2830 C   0  0  0  0  0  0  0  0  0  0  0  0
   28.1725  -19.7139   -5.1825 C   0  0  1  0  0  0  0  0  0  0  0  0
   28.2175  -18.2248   -4.8014 C   0  0  0  0  0  0  0  0  0  0  0  0
   27.4446  -19.7964   -6.4782 C   0  0  0  0  0  0  0  0  0  0  0  0
   27.0739  -21.1650   -6.9387 C   0  0  2  0  0  0  0  0  0  0  0  0
   26.3472  -21.0084   -8.2007 N   0  0  0  0  0  0  0  0  0  0  0  0
   26.2772  -21.9078   -5.9492 C   0  0  0  0  0  0  0  0  0  0  0  0
   26.8476  -22.2963   -4.7599 O   0  0  0  0  0  0  0  0  0  0  0  0
   25.0900  -22.1854   -6.1844 O   0  0  0  0  0  0  0  0  0  0  0  0
  2  1  1  1
  3  2  1  0
  3  4  1  0
  4  9  1  0
  5  4  2  0
  5  6  1  0
  6  7  2  0
  7  8  1  0
  9  8  2  0
 10 11  2  0
 10  2  1  0
 12 10  1  0
 13 12  1  0
 14 13  1  0
 15 14  1  0
 15 16  1  0
 16 12  1  0
 16 17  1  1
 18 17  2  0
 20 19  1  6
 20 21  1  0
 22 20  1  0
 23 22  1  1
 23 24  1  0
 24 17  1  0
 25 23  1  0
 26 25  1  0
 27 25  2  0
M  END
$$$$
