FPL.pdb
     RDKit          3D

 27 28  0  0  1  0  0  0  0  0999 V2000
   24.7580  -21.9445  -14.3213 N   0  0  0  0  0  0  0  0  0  0  0  0
   25.4608  -20.9733  -13.4931 C   0  0  1  0  0  0  0  0  0  0  0  0
   24.4372  -19.8957  -13.1883 C   0  0  0  0  0  0  0  0  0  0  0  0
   24.1284  -19.2217  -14.4691 C   0  0  0  0  0  0  0  0  0  0  0  0
   22.9733  -19.4627  -15.1791 C   0  0  0  0  0  0  0  0  0  0  0  0
   22.7349  -18.7983  -16.3809 C   0  0  0  0  0  0  0  0  0  0  0  0
   23.6375  -17.8965  -16.8804 C   0  0  0  0  0  0  0  0  0  0  0  0
   24.7888  -17.6496  -16.1826 C   0  0  0  0  0  0  0  0  0  0  0  0
   25.0154  -18.3112  -14.9959 C   0  0  0  0  0  0  0  0  0  0  0  0
   25.9614  -21.6013  -12.2139 C   0  0  0  0  0  0  0  0  0  0  0  0
   25.0363  -22.1677  -11.5560 O   0  0  0  0  0  0  0  0  0  0  0  0
   27.3090  -21.5388  -11.8382 N   0  0  0  0  0  0  0  0  0  0  0  0
   28.3936  -21.8367  -12.8102 C   0  0  0  0  0  0  0  0  0  0  0  0
   29.2134  -20.5818  -12.6462 C   0  0  0  0  0  0  0  0  0  0  0  0
   28.9465  -20.1028  -11.2123 C   0  0  0  0  0  0  0  0  0  0  0  0
   28.0689  -21.2338  -10.6832 C   0  0  1  0  0  0  0  0  0  0  0  0
   27.4126  -20.9225   -9.4437 C   0  0  0  0  0  0  0  0  0  0  0  0
   26.3252  -20.3333   -9.3699 O   0  0  0  0  0  0  0  0  0  0  0  0
   28.9154  -19.1991   -4.7570 C   0  0  0  0  0  0  0  0  0  0  0  0
   29.4329  -20.3623   -5.5727 C   0  0  1  0  0  0  0  0  0  0  0  0
   30.4759  -21.0597   -4.6836 C   0  0  0  0  0  0  0  0  0  0  0  0
   28.3868  -21.3779   -5.8725 C   0  0  0  0  0  0  0  0  0  0  0  0
   27.3956  -21.0109   -6.9239 C   0  0  2  0  0  0  0  0  0  0  0  0
   28.0195  -21.2983   -8.2174 N   0  0  0  0  0  0  0  0  0  0  0  0
   26.9601  -19.6078   -6.8380 C   0  0  0  0  0  0  0  0  0  0  0  0
   27.5824  -18.6475   -7.6001 O   0  0  0  0  0  0  0  0  0  0  0  0
   26.0313  -19.2875   -6.0786 O   0  0  0  0  0  0  0  0  0  0  0  0
  2  1  1  6
  3  2  1  0
  3  4  1  0
  4  9  1  0
  5  4  2  0
  5  6  1  0
  6  7  2  0
  7  8  1  0
  9  8  2  0
 10 11  2  0
 10  2  1  0
 12 10  1  0
 13 12  1  0
 14 13  1  0
 15 14  1  0
 15 16  1  0
 16 12  1  0
 16 17  1  1
 18 17  2  0
 20 19  1  1
 20 21  1  0
 22 20  1  0
 23 22  1  1
 23 24  1  0
 24 17  1  0
 25 23  1  0
 26 25  1  0
 27 25  2  0
M  END
$$$$
