FPL.pdb
     RDKit          3D

 27 28  0  0  1  0  0  0  0  0999 V2000
   19.0840  -14.6969  -17.3621 N   0  0  0  0  0  0  0  0  0  0  0  0
   18.2709  -13.5127  -17.1183 C   0  0  1  0  0  0  0  0  0  0  0  0
   17.3656  -13.8836  -15.9586 C   0  0  0  0  0  0  0  0  0  0  0  0
   16.5429  -15.0298  -16.4053 C   0  0  0  0  0  0  0  0  0  0  0  0
   16.7276  -16.3097  -15.9318 C   0  0  0  0  0  0  0  0  0  0  0  0
   15.9223  -17.3516  -16.3885 C   0  0  0  0  0  0  0  0  0  0  0  0
   14.9353  -17.1284  -17.3123 C   0  0  0  0  0  0  0  0  0  0  0  0
   14.7433  -15.8601  -17.7894 C   0  0  0  0  0  0  0  0  0  0  0  0
   15.5443  -14.8370  -17.3320 C   0  0  0  0  0  0  0  0  0  0  0  0
   19.1274  -12.3220  -16.7580 C   0  0  0  0  0  0  0  0  0  0  0  0
   19.6395  -12.4237  -15.6017 O   0  0  0  0  0  0  0  0  0  0  0  0
   19.3065  -11.2473  -17.6378 N   0  0  0  0  0  0  0  0  0  0  0  0
   19.3073  -11.4502  -19.1104 C   0  0  0  0  0  0  0  0  0  0  0  0
   18.2637  -10.4313  -19.4931 C   0  0  0  0  0  0  0  0  0  0  0  0
   18.3244   -9.3534  -18.4018 C   0  0  0  0  0  0  0  0  0  0  0  0
   19.5023   -9.8470  -17.5663 C   0  0  1  0  0  0  0  0  0  0  0  0
   19.6186   -9.1943  -16.2917 C   0  0  0  0  0  0  0  0  0  0  0  0
   18.7434   -9.2344  -15.4157 O   0  0  0  0  0  0  0  0  0  0  0  0
   23.3430  -10.2455  -12.9591 C   0  0  0  0  0  0  0  0  0  0  0  0
   22.0702   -9.7351  -13.5961 C   0  0  1  0  0  0  0  0  0  0  0  0
   21.0145   -9.7470  -12.4781 C   0  0  0  0  0  0  0  0  0  0  0  0
   22.1744   -8.3258  -14.0635 C   0  0  0  0  0  0  0  0  0  0  0  0
   20.9590   -7.7564  -14.7128 C   0  0  2  0  0  0  0  0  0  0  0  0
   20.7908   -8.4540  -15.9895 N   0  0  0  0  0  0  0  0  0  0  0  0
   21.0390   -6.2994  -14.9036 C   0  0  0  0  0  0  0  0  0  0  0  0
   21.2201   -5.7806  -16.1640 O   0  0  0  0  0  0  0  0  0  0  0  0
   20.9433   -5.5356  -13.9293 O   0  0  0  0  0  0  0  0  0  0  0  0
  2  1  1  1
  3  2  1  0
  3  4  1  0
  4  9  1  0
  5  4  2  0
  5  6  1  0
  6  7  2  0
  7  8  1  0
  9  8  2  0
 10 11  2  0
 10  2  1  0
 12 10  1  0
 13 12  1  0
 14 13  1  0
 15 14  1  0
 15 16  1  0
 16 12  1  0
 16 17  1  1
 18 17  2  0
 20 19  1  1
 20 21  1  0
 22 20  1  0
 23 22  1  6
 23 24  1  0
 24 17  1  0
 25 23  1  0
 26 25  1  0
 27 25  2  0
M  END
$$$$
