FPL.pdb
     RDKit          3D

 27 28  0  0  1  0  0  0  0  0999 V2000
   19.8480  -19.7697  -16.5537 N   0  0  0  0  0  0  0  0  0  0  0  0
   20.9656  -18.8354  -16.5858 C   0  0  1  0  0  0  0  0  0  0  0  0
   20.5127  -17.6451  -15.7612 C   0  0  0  0  0  0  0  0  0  0  0  0
   19.3317  -17.0728  -16.4453 C   0  0  0  0  0  0  0  0  0  0  0  0
   18.0543  -17.1785  -15.9418 C   0  0  0  0  0  0  0  0  0  0  0  0
   16.9787  -16.6196  -16.6297 C   0  0  0  0  0  0  0  0  0  0  0  0
   17.1657  -15.9567  -17.8142 C   0  0  0  0  0  0  0  0  0  0  0  0
   18.4312  -15.8459  -18.3234 C   0  0  0  0  0  0  0  0  0  0  0  0
   19.4878  -16.4016  -17.6363 C   0  0  0  0  0  0  0  0  0  0  0  0
   22.2110  -19.4467  -15.9885 C   0  0  0  0  0  0  0  0  0  0  0  0
   22.0935  -19.6725  -14.7457 O   0  0  0  0  0  0  0  0  0  0  0  0
   23.3462  -19.7162  -16.7629 N   0  0  0  0  0  0  0  0  0  0  0  0
   23.2264  -20.1361  -18.1839 C   0  0  0  0  0  0  0  0  0  0  0  0
   24.1365  -19.1119  -18.8137 C   0  0  0  0  0  0  0  0  0  0  0  0
   25.1522  -18.7415  -17.7238 C   0  0  0  0  0  0  0  0  0  0  0  0
   24.7536  -19.7063  -16.6104 C   0  0  1  0  0  0  0  0  0  0  0  0
   25.3439  -19.3941  -15.3384 C   0  0  0  0  0  0  0  0  0  0  0  0
   25.2051  -18.3051  -14.7642 O   0  0  0  0  0  0  0  0  0  0  0  0
   24.5712  -21.9340  -11.0008 C   0  0  0  0  0  0  0  0  0  0  0  0
   24.9888  -20.8980  -12.0199 C   0  0  1  0  0  0  0  0  0  0  0  0
   24.8243  -19.5389  -11.3195 C   0  0  0  0  0  0  0  0  0  0  0  0
   26.4223  -21.0028  -12.4068 C   0  0  0  0  0  0  0  0  0  0  0  0
   26.8901  -20.0575  -13.4605 C   0  0  2  0  0  0  0  0  0  0  0  0
   26.1364  -20.3679  -14.6773 N   0  0  0  0  0  0  0  0  0  0  0  0
   28.3412  -20.1306  -13.6946 C   0  0  0  0  0  0  0  0  0  0  0  0
   29.2126  -19.5853  -12.7814 O   0  0  0  0  0  0  0  0  0  0  0  0
   28.7822  -20.6836  -14.7151 O   0  0  0  0  0  0  0  0  0  0  0  0
  2  1  1  1
  3  2  1  0
  3  4  1  0
  4  9  1  0
  5  4  2  0
  5  6  1  0
  6  7  2  0
  7  8  1  0
  9  8  2  0
 10 11  2  0
 10  2  1  0
 12 10  1  0
 13 12  1  0
 14 13  1  0
 15 14  1  0
 15 16  1  0
 16 12  1  0
 16 17  1  1
 18 17  2  0
 20 19  1  1
 20 21  1  0
 22 20  1  0
 23 22  1  1
 23 24  1  0
 24 17  1  0
 25 23  1  0
 26 25  1  0
 27 25  2  0
M  END
$$$$
