FPL.pdb
     RDKit          3D

 27 28  0  0  1  0  0  0  0  0999 V2000
   23.7371  -21.4687  -14.4053 N   0  0  0  0  0  0  0  0  0  0  0  0
   24.5594  -20.4552  -13.7575 C   0  0  1  0  0  0  0  0  0  0  0  0
   23.5846  -19.3897  -13.2924 C   0  0  0  0  0  0  0  0  0  0  0  0
   22.8824  -18.8942  -14.4972 C   0  0  0  0  0  0  0  0  0  0  0  0
   21.5971  -19.2697  -14.8186 C   0  0  0  0  0  0  0  0  0  0  0  0
   20.9850  -18.7710  -15.9670 C   0  0  0  0  0  0  0  0  0  0  0  0
   21.6429  -17.9017  -16.7971 C   0  0  0  0  0  0  0  0  0  0  0  0
   22.9207  -17.5220  -16.4870 C   0  0  0  0  0  0  0  0  0  0  0  0
   23.5171  -18.0204  -15.3497 C   0  0  0  0  0  0  0  0  0  0  0  0
   25.3140  -21.0283  -12.5814 C   0  0  0  0  0  0  0  0  0  0  0  0
   24.5438  -21.5363  -11.7106 O   0  0  0  0  0  0  0  0  0  0  0  0
   26.7115  -20.9804  -12.5058 N   0  0  0  0  0  0  0  0  0  0  0  0
   27.5600  -21.4770  -13.6209 C   0  0  0  0  0  0  0  0  0  0  0  0
   28.4201  -20.2562  -13.8293 C   0  0  0  0  0  0  0  0  0  0  0  0
   28.4719  -19.5541  -12.4651 C   0  0  0  0  0  0  0  0  0  0  0  0
   27.7042  -20.5454  -11.5950 C   0  0  1  0  0  0  0  0  0  0  0  0
   27.3312  -20.0177  -10.3119 C   0  0  0  0  0  0  0  0  0  0  0  0
   26.2683  -19.4185  -10.0970 O   0  0  0  0  0  0  0  0  0  0  0  0
   24.7592  -20.9918   -5.8669 C   0  0  0  0  0  0  0  0  0  0  0  0
   26.0626  -20.2706   -6.1262 C   0  0  1  0  0  0  0  0  0  0  0  0
   27.0717  -20.8696   -5.1324 C   0  0  0  0  0  0  0  0  0  0  0  0
   26.6100  -20.5226   -7.4872 C   0  0  0  0  0  0  0  0  0  0  0  0
   27.8360  -19.7583   -7.8552 C   0  0  2  0  0  0  0  0  0  0  0  0
   28.2091  -20.1761   -9.2085 N   0  0  0  0  0  0  0  0  0  0  0  0
   28.9436  -19.9582   -6.9072 C   0  0  0  0  0  0  0  0  0  0  0  0
   29.2205  -18.9987   -5.9620 O   0  0  0  0  0  0  0  0  0  0  0  0
   29.6302  -20.9916   -6.9576 O   0  0  0  0  0  0  0  0  0  0  0  0
  2  1  1  1
  3  2  1  0
  3  4  1  0
  4  9  1  0
  5  4  2  0
  5  6  1  0
  6  7  2  0
  7  8  1  0
  9  8  2  0
 10 11  2  0
 10  2  1  0
 12 10  1  0
 13 12  1  0
 14 13  1  0
 15 14  1  0
 15 16  1  0
 16 12  1  0
 16 17  1  1
 18 17  2  0
 20 19  1  6
 20 21  1  0
 22 20  1  0
 23 22  1  1
 23 24  1  0
 24 17  1  0
 25 23  1  0
 26 25  1  0
 27 25  2  0
M  END
$$$$
