FPL.pdb
     RDKit          3D

 27 28  0  0  1  0  0  0  0  0999 V2000
   24.2960  -21.9764  -13.0145 N   0  0  0  0  0  0  0  0  0  0  0  0
   25.2221  -21.0230  -12.4175 C   0  0  1  0  0  0  0  0  0  0  0  0
   24.3708  -19.8260  -12.0376 C   0  0  0  0  0  0  0  0  0  0  0  0
   23.7917  -19.2951  -13.2917 C   0  0  0  0  0  0  0  0  0  0  0  0
   24.5249  -18.5672  -14.2022 C   0  0  0  0  0  0  0  0  0  0  0  0
   23.9266  -18.0917  -15.3677 C   0  0  0  0  0  0  0  0  0  0  0  0
   22.6047  -18.3355  -15.6330 C   0  0  0  0  0  0  0  0  0  0  0  0
   21.8668  -19.0580  -14.7348 C   0  0  0  0  0  0  0  0  0  0  0  0
   22.4671  -19.5237  -13.5858 C   0  0  0  0  0  0  0  0  0  0  0  0
   25.8941  -21.6010  -11.1946 C   0  0  0  0  0  0  0  0  0  0  0  0
   25.0612  -22.0395  -10.3439 O   0  0  0  0  0  0  0  0  0  0  0  0
   27.2878  -21.6275  -11.0603 N   0  0  0  0  0  0  0  0  0  0  0  0
   28.1529  -22.1968  -12.1268 C   0  0  0  0  0  0  0  0  0  0  0  0
   29.0873  -21.0301  -12.3252 C   0  0  0  0  0  0  0  0  0  0  0  0
   29.1214  -20.2987  -10.9760 C   0  0  0  0  0  0  0  0  0  0  0  0
   28.2644  -21.2252  -10.1177 C   0  0  1  0  0  0  0  0  0  0  0  0
   27.8683  -20.6467   -8.8638 C   0  0  0  0  0  0  0  0  0  0  0  0
   27.0322  -19.7385   -8.7586 O   0  0  0  0  0  0  0  0  0  0  0  0
   29.4184  -21.7655   -2.9296 C   0  0  0  0  0  0  0  0  0  0  0  0
   28.7119  -20.8691   -3.9214 C   0  0  1  0  0  0  0  0  0  0  0  0
   29.4611  -19.5271   -3.8729 C   0  0  0  0  0  0  0  0  0  0  0  0
   28.8100  -21.3570   -5.3242 C   0  0  0  0  0  0  0  0  0  0  0  0
   28.1458  -20.5164   -6.3611 C   0  0  2  0  0  0  0  0  0  0  0  0
   28.4499  -21.1214   -7.6598 N   0  0  0  0  0  0  0  0  0  0  0  0
   28.5663  -19.1070   -6.3138 C   0  0  0  0  0  0  0  0  0  0  0  0
   29.7377  -18.7189   -6.9203 O   0  0  0  0  0  0  0  0  0  0  0  0
   27.8663  -18.2657   -5.7273 O   0  0  0  0  0  0  0  0  0  0  0  0
  2  1  1  1
  3  2  1  0
  3  4  1  0
  4  9  1  0
  5  4  2  0
  5  6  1  0
  6  7  2  0
  7  8  1  0
  9  8  2  0
 10 11  2  0
 10  2  1  0
 12 10  1  0
 13 12  1  0
 14 13  1  0
 15 14  1  0
 15 16  1  0
 16 12  1  0
 16 17  1  1
 18 17  2  0
 20 19  1  1
 20 21  1  0
 22 20  1  0
 23 22  1  1
 23 24  1  0
 24 17  1  0
 25 23  1  0
 26 25  1  0
 27 25  2  0
M  END
$$$$
