FPL.pdb
     RDKit          3D

 27 28  0  0  1  0  0  0  0  0999 V2000
   25.2758  -19.2489  -18.2090 N   0  0  0  0  0  0  0  0  0  0  0  0
   26.1912  -18.8031  -17.1667 C   0  0  1  0  0  0  0  0  0  0  0  0
   25.9840  -17.3033  -17.0702 C   0  0  0  0  0  0  0  0  0  0  0  0
   24.5508  -17.0493  -17.3376 C   0  0  0  0  0  0  0  0  0  0  0  0
   23.6624  -16.6800  -16.3523 C   0  0  0  0  0  0  0  0  0  0  0  0
   22.3226  -16.4537  -16.6622 C   0  0  0  0  0  0  0  0  0  0  0  0
   21.8613  -16.5923  -17.9449 C   0  0  0  0  0  0  0  0  0  0  0  0
   22.7359  -16.9590  -18.9318 C   0  0  0  0  0  0  0  0  0  0  0  0
   24.0581  -17.1804  -18.6156 C   0  0  0  0  0  0  0  0  0  0  0  0
   25.8824  -19.4638  -15.8441 C   0  0  0  0  0  0  0  0  0  0  0  0
   24.6415  -19.4666  -15.5802 O   0  0  0  0  0  0  0  0  0  0  0  0
   26.8902  -19.9999  -15.0329 N   0  0  0  0  0  0  0  0  0  0  0  0
   28.0905  -20.6478  -15.6238 C   0  0  0  0  0  0  0  0  0  0  0  0
   29.1620  -19.8676  -14.9048 C   0  0  0  0  0  0  0  0  0  0  0  0
   28.5298  -19.4338  -13.5748 C   0  0  0  0  0  0  0  0  0  0  0  0
   27.1746  -20.1312  -13.6522 C   0  0  1  0  0  0  0  0  0  0  0  0
   26.2326  -19.6712  -12.6699 C   0  0  0  0  0  0  0  0  0  0  0  0
   25.8006  -18.5110  -12.6212 O   0  0  0  0  0  0  0  0  0  0  0  0
   22.3630  -21.7610  -11.7773 C   0  0  0  0  0  0  0  0  0  0  0  0
   23.0363  -20.5180  -12.3140 C   0  0  1  0  0  0  0  0  0  0  0  0
   21.9208  -19.7010  -12.9868 C   0  0  0  0  0  0  0  0  0  0  0  0
   23.6066  -19.6536  -11.2448 C   0  0  0  0  0  0  0  0  0  0  0  0
   24.8627  -20.1398  -10.6056 C   0  0  2  0  0  0  0  0  0  0  0  0
   25.7511  -20.5734  -11.6863 N   0  0  0  0  0  0  0  0  0  0  0  0
   24.6317  -21.2208   -9.6342 C   0  0  0  0  0  0  0  0  0  0  0  0
   23.8966  -20.9778   -8.4980 O   0  0  0  0  0  0  0  0  0  0  0  0
   25.0989  -22.3532   -9.8371 O   0  0  0  0  0  0  0  0  0  0  0  0
  2  1  1  6
  3  2  1  0
  3  4  1  0
  4  9  1  0
  5  4  2  0
  5  6  1  0
  6  7  2  0
  7  8  1  0
  9  8  2  0
 10 11  2  0
 10  2  1  0
 12 10  1  0
 13 12  1  0
 14 13  1  0
 15 14  1  0
 15 16  1  0
 16 12  1  0
 16 17  1  1
 18 17  2  0
 20 19  1  1
 20 21  1  0
 22 20  1  0
 23 22  1  6
 23 24  1  0
 24 17  1  0
 25 23  1  0
 26 25  1  0
 27 25  2  0
M  END
$$$$
