KNK.pdb
     RDKit          3D

 27 26  0  0  1  0  0  0  0  0999 V2000
   10.9721  -14.2337   19.0837 N   0  0  0  0  0  0  0  0  0  0  0  0
    9.9678  -13.3741   19.7037 C   0  0  1  0  0  0  0  0  0  0  0  0
    8.8780  -13.0112   18.7764 C   0  0  0  0  0  0  0  0  0  0  0  0
    8.4756  -13.9203   17.6965 C   0  0  0  0  0  0  0  0  0  0  0  0
    7.5206  -13.5144   16.6624 C   0  0  0  0  0  0  0  0  0  0  0  0
    7.1558  -14.5122   15.6342 C   0  0  0  0  0  0  0  0  0  0  0  0
    8.2950  -15.2154   15.0674 N   0  0  0  0  0  0  0  0  0  0  0  0
    9.2829  -14.2134   20.8041 C   0  0  0  0  0  0  0  0  0  0  0  0
    8.3488  -13.6478   21.3879 O   0  0  0  0  0  0  0  0  0  0  0  0
    8.3343  -17.6032   19.6758 N   0  0  0  0  0  0  0  0  0  0  0  0
    9.0953  -18.4264   20.5308 C   0  0  0  0  0  0  0  0  0  0  0  0
    9.3217  -19.6075   20.2115 O   0  0  0  0  0  0  0  0  0  0  0  0
    9.6162  -17.8839   21.7938 C   0  0  0  0  0  0  0  0  0  0  0  0
    9.2092  -16.4176   22.0155 C   0  0  2  0  0  0  0  0  0  0  0  0
    9.7447  -15.5119   21.0621 N   0  0  0  0  0  0  0  0  0  0  0  0
    9.5395  -16.0624   23.3952 C   0  0  0  0  0  0  0  0  0  0  0  0
   10.7499  -15.8625   23.7676 O   0  0  0  0  0  0  0  0  0  0  0  0
    8.5665  -15.9126   24.4189 N   0  0  0  0  0  0  0  0  0  0  0  0
    8.9505  -15.5645   25.7670 C   0  0  1  0  0  0  0  0  0  0  0  0
    7.8520  -14.8208   26.4861 C   0  0  0  0  0  0  0  0  0  0  0  0
    7.5628  -13.4773   25.9193 C   0  0  0  0  0  0  0  0  0  0  0  0
    6.4228  -12.7694   26.6047 C   0  0  0  0  0  0  0  0  0  0  0  0
    6.2072  -11.3934   25.9871 C   0  0  0  0  0  0  0  0  0  0  0  0
    5.1726  -10.6544   26.6430 N   0  0  0  0  0  0  0  0  0  0  0  0
    9.4020  -16.7591   26.4716 C   0  0  0  0  0  0  0  0  0  0  0  0
    9.0140  -17.8917   26.0921 O   0  0  0  0  0  0  0  0  0  0  0  0
   10.2632  -16.7431   27.5749 O   0  0  0  0  0  0  0  0  0  0  0  0
  2  1  1  6
  3  2  1  0
  4  3  1  0
  5  4  1  0
  5  6  1  0
  7  6  1  0
  8  9  2  0
  8  2  1  0
 10 11  1  0
 11 13  1  0
 12 11  2  0
 14 13  1  6
 14 15  1  0
 15  8  1  0
 16 14  1  0
 17 16  2  0
 18 16  1  0
 19 25  1  0
 19 18  1  0
 20 21  1  0
 19 20  1  1
 22 23  1  0
 22 21  1  0
 23 24  1  0
 25 27  1  0
 26 25  2  0
M  END
$$$$
