KNK.pdb
     RDKit          3D

 27 26  0  0  1  0  0  0  0  0999 V2000
    8.4229  -17.9924   16.5111 N   0  0  0  0  0  0  0  0  0  0  0  0
    7.7003  -18.0240   17.7796 C   0  0  1  0  0  0  0  0  0  0  0  0
    7.6051  -19.3835   18.3469 C   0  0  0  0  0  0  0  0  0  0  0  0
    7.4494  -20.5534   17.4741 C   0  0  0  0  0  0  0  0  0  0  0  0
    8.6060  -21.2713   16.9329 C   0  0  0  0  0  0  0  0  0  0  0  0
    8.3509  -22.5210   16.1854 C   0  0  0  0  0  0  0  0  0  0  0  0
    9.5450  -23.1119   15.6033 N   0  0  0  0  0  0  0  0  0  0  0  0
    8.5528  -17.2340   18.7962 C   0  0  0  0  0  0  0  0  0  0  0  0
    9.7316  -17.6017   18.8877 O   0  0  0  0  0  0  0  0  0  0  0  0
    6.5738  -12.5310   19.3505 N   0  0  0  0  0  0  0  0  0  0  0  0
    7.7935  -13.1488   19.6943 C   0  0  0  0  0  0  0  0  0  0  0  0
    8.8190  -12.9020   19.0343 O   0  0  0  0  0  0  0  0  0  0  0  0
    7.8456  -14.0805   20.8301 C   0  0  0  0  0  0  0  0  0  0  0  0
    8.6016  -15.3764   20.4928 C   0  0  2  0  0  0  0  0  0  0  0  0
    7.9604  -16.1914   19.5228 N   0  0  0  0  0  0  0  0  0  0  0  0
    8.8722  -16.0791   21.7465 C   0  0  0  0  0  0  0  0  0  0  0  0
    7.9257  -16.5466   22.4740 O   0  0  0  0  0  0  0  0  0  0  0  0
   10.1804  -16.2978   22.2542 N   0  0  0  0  0  0  0  0  0  0  0  0
   10.3918  -17.0406   23.4747 C   0  0  1  0  0  0  0  0  0  0  0  0
   11.0614  -18.3671   23.2122 C   0  0  0  0  0  0  0  0  0  0  0  0
   11.3061  -19.1716   24.4381 C   0  0  0  0  0  0  0  0  0  0  0  0
   11.9032  -20.5263   24.1577 C   0  0  0  0  0  0  0  0  0  0  0  0
   12.0054  -21.3357   25.4444 C   0  0  0  0  0  0  0  0  0  0  0  0
   12.4327  -22.6812   25.2130 N   0  0  0  0  0  0  0  0  0  0  0  0
   11.1058  -16.2088   24.4369 C   0  0  0  0  0  0  0  0  0  0  0  0
   11.3022  -16.6318   25.6030 O   0  0  0  0  0  0  0  0  0  0  0  0
   11.6071  -14.9330   24.1540 O   0  0  0  0  0  0  0  0  0  0  0  0
  2  1  1  6
  3  2  1  0
  4  3  1  0
  5  4  1  0
  5  6  1  0
  7  6  1  0
  8  9  2  0
  8  2  1  0
 10 11  1  0
 11 13  1  0
 12 11  2  0
 14 13  1  1
 14 15  1  0
 15  8  1  0
 16 14  1  0
 17 16  2  0
 18 16  1  0
 19 25  1  0
 19 18  1  0
 20 21  1  0
 19 20  1  6
 22 23  1  0
 22 21  1  0
 23 24  1  0
 25 27  1  0
 26 25  2  0
M  END
$$$$
