KNK.pdb
     RDKit          3D

 27 26  0  0  1  0  0  0  0  0999 V2000
   12.3387  -16.4625   16.7221 N   0  0  0  0  0  0  0  0  0  0  0  0
   13.3317  -17.5253   16.8506 C   0  0  1  0  0  0  0  0  0  0  0  0
   14.0628  -17.7767   15.5930 C   0  0  0  0  0  0  0  0  0  0  0  0
   13.5573  -17.2639   14.3139 C   0  0  0  0  0  0  0  0  0  0  0  0
   14.1904  -17.6113   13.0394 C   0  0  0  0  0  0  0  0  0  0  0  0
   13.6204  -17.0264   11.8070 C   0  0  0  0  0  0  0  0  0  0  0  0
   14.3073  -17.4321   10.5916 N   0  0  0  0  0  0  0  0  0  0  0  0
   14.4069  -17.0123   17.8331 C   0  0  0  0  0  0  0  0  0  0  0  0
   15.2937  -17.8303   18.1117 O   0  0  0  0  0  0  0  0  0  0  0  0
   16.8724  -14.5306   16.9590 N   0  0  0  0  0  0  0  0  0  0  0  0
   16.3146  -13.4009   17.5917 C   0  0  0  0  0  0  0  0  0  0  0  0
   16.5167  -12.2666   17.1218 O   0  0  0  0  0  0  0  0  0  0  0  0
   15.4982  -13.5705   18.8022 C   0  0  0  0  0  0  0  0  0  0  0  0
   15.2671  -15.0500   19.1524 C   0  0  2  0  0  0  0  0  0  0  0  0
   14.3137  -15.7036   18.3279 N   0  0  0  0  0  0  0  0  0  0  0  0
   14.9471  -15.1306   20.5772 C   0  0  0  0  0  0  0  0  0  0  0  0
   15.7659  -14.7225   21.4753 O   0  0  0  0  0  0  0  0  0  0  0  0
   13.7266  -15.6582   21.0762 N   0  0  0  0  0  0  0  0  0  0  0  0
   13.4618  -15.7102   22.4951 C   0  0  1  0  0  0  0  0  0  0  0  0
   11.9817  -15.7445   22.7861 C   0  0  0  0  0  0  0  0  0  0  0  0
   11.6545  -15.9147   24.2262 C   0  0  0  0  0  0  0  0  0  0  0  0
   10.1860  -16.1299   24.4866 C   0  0  0  0  0  0  0  0  0  0  0  0
    9.9191  -16.1966   25.9852 C   0  0  0  0  0  0  0  0  0  0  0  0
    8.5232  -16.2655   26.2906 N   0  0  0  0  0  0  0  0  0  0  0  0
   14.1975  -16.8203   23.0902 C   0  0  0  0  0  0  0  0  0  0  0  0
   14.5751  -16.7493   24.2859 O   0  0  0  0  0  0  0  0  0  0  0  0
   14.5270  -17.9991   22.4113 O   0  0  0  0  0  0  0  0  0  0  0  0
  2  1  1  6
  3  2  1  0
  4  3  1  0
  5  4  1  0
  5  6  1  0
  7  6  1  0
  8  9  2  0
  8  2  1  0
 10 11  1  0
 11 13  1  0
 12 11  2  0
 14 13  1  6
 14 15  1  0
 15  8  1  0
 16 14  1  0
 17 16  2  0
 18 16  1  0
 19 25  1  0
 19 18  1  0
 20 21  1  0
 19 20  1  6
 22 23  1  0
 22 21  1  0
 23 24  1  0
 25 27  1  0
 26 25  2  0
M  END
$$$$
