KNK.pdb
     RDKit          3D

 27 26  0  0  1  0  0  0  0  0999 V2000
    8.2823  -17.8888   17.5980 N   0  0  0  0  0  0  0  0  0  0  0  0
    9.7377  -17.7926   17.6658 C   0  0  1  0  0  0  0  0  0  0  0  0
   10.3406  -17.3684   16.3869 C   0  0  0  0  0  0  0  0  0  0  0  0
    9.9824  -18.0347   15.1290 C   0  0  0  0  0  0  0  0  0  0  0  0
    8.6898  -17.8090   14.4775 C   0  0  0  0  0  0  0  0  0  0  0  0
    8.4701  -18.4290   13.1535 C   0  0  0  0  0  0  0  0  0  0  0  0
    7.1296  -18.2307   12.6268 N   0  0  0  0  0  0  0  0  0  0  0  0
   10.0619  -16.6483   18.6506 C   0  0  0  0  0  0  0  0  0  0  0  0
   11.2489  -16.2962   18.6707 O   0  0  0  0  0  0  0  0  0  0  0  0
    7.9337  -12.0172   19.1298 N   0  0  0  0  0  0  0  0  0  0  0  0
    7.7986  -13.4181   19.2126 C   0  0  0  0  0  0  0  0  0  0  0  0
    7.4928  -14.0706   18.1982 O   0  0  0  0  0  0  0  0  0  0  0  0
    8.0198  -14.0985   20.4967 C   0  0  0  0  0  0  0  0  0  0  0  0
    9.1766  -15.1097   20.4340 C   0  0  2  0  0  0  0  0  0  0  0  0
    9.0314  -16.1022   19.4290 N   0  0  0  0  0  0  0  0  0  0  0  0
    9.3586  -15.6691   21.7730 C   0  0  0  0  0  0  0  0  0  0  0  0
    8.3717  -15.8290   22.5756 O   0  0  0  0  0  0  0  0  0  0  0  0
   10.6191  -16.0736   22.2872 N   0  0  0  0  0  0  0  0  0  0  0  0
   10.7217  -16.7624   23.5526 C   0  0  1  0  0  0  0  0  0  0  0  0
   10.5566  -18.2535   23.3916 C   0  0  0  0  0  0  0  0  0  0  0  0
   10.6673  -19.0129   24.6648 C   0  0  0  0  0  0  0  0  0  0  0  0
   10.7624  -20.5038   24.4680 C   0  0  0  0  0  0  0  0  0  0  0  0
   10.8910  -21.2075   25.8133 C   0  0  0  0  0  0  0  0  0  0  0  0
   11.0207  -22.6259   25.6796 N   0  0  0  0  0  0  0  0  0  0  0  0
   11.9634  -16.3830   24.2174 C   0  0  0  0  0  0  0  0  0  0  0  0
   12.1145  -16.6222   25.4411 O   0  0  0  0  0  0  0  0  0  0  0  0
   13.0370  -15.7524   23.5780 O   0  0  0  0  0  0  0  0  0  0  0  0
  2  1  1  6
  3  2  1  0
  4  3  1  0
  5  4  1  0
  5  6  1  0
  7  6  1  0
  8  9  2  0
  8  2  1  0
 10 11  1  0
 11 13  1  0
 12 11  2  0
 14 13  1  1
 14 15  1  0
 15  8  1  0
 16 14  1  0
 17 16  2  0
 18 16  1  0
 19 25  1  0
 19 18  1  0
 20 21  1  0
 19 20  1  6
 22 23  1  0
 22 21  1  0
 23 24  1  0
 25 27  1  0
 26 25  2  0
M  END
$$$$
