KNK.pdb
     RDKit          3D

 27 26  0  0  1  0  0  0  0  0999 V2000
    9.4532  -15.6515   18.7136 N   0  0  0  0  0  0  0  0  0  0  0  0
    8.9120  -14.4747   19.3877 C   0  0  1  0  0  0  0  0  0  0  0  0
    7.7729  -13.8772   18.6635 C   0  0  0  0  0  0  0  0  0  0  0  0
    7.9131  -13.4431   17.2683 C   0  0  0  0  0  0  0  0  0  0  0  0
    7.8153  -14.3879   16.1530 C   0  0  0  0  0  0  0  0  0  0  0  0
    7.9460  -13.8491   14.7825 C   0  0  0  0  0  0  0  0  0  0  0  0
    7.8431  -14.8589   13.7417 N   0  0  0  0  0  0  0  0  0  0  0  0
    8.3132  -14.9645   20.7242 C   0  0  0  0  0  0  0  0  0  0  0  0
    7.5778  -14.1498   21.2974 O   0  0  0  0  0  0  0  0  0  0  0  0
    6.6404  -19.5595   23.6605 N   0  0  0  0  0  0  0  0  0  0  0  0
    7.9197  -18.9687   23.7047 C   0  0  0  0  0  0  0  0  0  0  0  0
    8.5628  -18.9659   24.7699 O   0  0  0  0  0  0  0  0  0  0  0  0
    8.4854  -18.3600   22.4921 C   0  0  0  0  0  0  0  0  0  0  0  0
    8.0951  -16.8803   22.3408 C   0  0  2  0  0  0  0  0  0  0  0  0
    8.6286  -16.2505   21.1854 N   0  0  0  0  0  0  0  0  0  0  0  0
    8.4445  -16.1933   23.5837 C   0  0  0  0  0  0  0  0  0  0  0  0
    9.6641  -16.0383   23.9474 O   0  0  0  0  0  0  0  0  0  0  0  0
    7.4812  -15.6511   24.4753 N   0  0  0  0  0  0  0  0  0  0  0  0
    7.8358  -14.6126   25.4143 C   0  0  1  0  0  0  0  0  0  0  0  0
    6.6852  -13.6690   25.6643 C   0  0  0  0  0  0  0  0  0  0  0  0
    6.9978  -12.5788   26.6254 C   0  0  0  0  0  0  0  0  0  0  0  0
    5.8304  -11.6658   26.8977 C   0  0  0  0  0  0  0  0  0  0  0  0
    6.2379  -10.5606   27.8640 C   0  0  0  0  0  0  0  0  0  0  0  0
    5.1412   -9.7154   28.2238 N   0  0  0  0  0  0  0  0  0  0  0  0
    8.3698  -15.2140   26.6311 C   0  0  0  0  0  0  0  0  0  0  0  0
    9.3000  -14.6436   27.2531 O   0  0  0  0  0  0  0  0  0  0  0  0
    7.9120  -16.4174   27.1799 O   0  0  0  0  0  0  0  0  0  0  0  0
  2  1  1  6
  3  2  1  0
  4  3  1  0
  5  4  1  0
  5  6  1  0
  7  6  1  0
  8  9  2  0
  8  2  1  0
 10 11  1  0
 11 13  1  0
 12 11  2  0
 14 13  1  1
 14 15  1  0
 15  8  1  0
 16 14  1  0
 17 16  2  0
 18 16  1  0
 19 25  1  0
 19 18  1  0
 20 21  1  0
 19 20  1  1
 22 23  1  0
 22 21  1  0
 23 24  1  0
 25 27  1  0
 26 25  2  0
M  END
$$$$
