KNK.pdb
     RDKit          3D

 27 26  0  0  1  0  0  0  0  0999 V2000
    8.4028  -17.9276   19.2070 N   0  0  0  0  0  0  0  0  0  0  0  0
    9.1845  -17.1870   20.1932 C   0  0  1  0  0  0  0  0  0  0  0  0
    8.6716  -15.8210   20.4170 C   0  0  0  0  0  0  0  0  0  0  0  0
    8.8161  -14.7853   19.3871 C   0  0  0  0  0  0  0  0  0  0  0  0
    8.3477  -13.4139   19.6012 C   0  0  0  0  0  0  0  0  0  0  0  0
    8.4320  -12.4734   18.4637 C   0  0  0  0  0  0  0  0  0  0  0  0
    7.8625  -11.1645   18.7397 N   0  0  0  0  0  0  0  0  0  0  0  0
    8.9888  -17.9057   21.5458 C   0  0  0  0  0  0  0  0  0  0  0  0
    7.8696  -18.4080   21.7139 O   0  0  0  0  0  0  0  0  0  0  0  0
    8.2977  -20.8525   22.6279 N   0  0  0  0  0  0  0  0  0  0  0  0
    9.5139  -20.9545   21.9222 C   0  0  0  0  0  0  0  0  0  0  0  0
    9.5519  -21.5702   20.8416 O   0  0  0  0  0  0  0  0  0  0  0  0
   10.7291  -20.3328   22.4678 C   0  0  0  0  0  0  0  0  0  0  0  0
   10.4273  -19.0517   23.2630 C   0  0  2  0  0  0  0  0  0  0  0  0
   10.0498  -17.9419   22.4618 N   0  0  0  0  0  0  0  0  0  0  0  0
   11.5766  -18.7751   24.1242 C   0  0  0  0  0  0  0  0  0  0  0  0
   12.1202  -19.6921   24.8365 O   0  0  0  0  0  0  0  0  0  0  0  0
   12.1751  -17.4926   24.2421 N   0  0  0  0  0  0  0  0  0  0  0  0
   12.2145  -16.8023   25.5102 C   0  0  1  0  0  0  0  0  0  0  0  0
   10.8833  -16.1770   25.8472 C   0  0  0  0  0  0  0  0  0  0  0  0
   10.8335  -15.5565   27.1972 C   0  0  0  0  0  0  0  0  0  0  0  0
    9.5247  -14.8719   27.4951 C   0  0  0  0  0  0  0  0  0  0  0  0
    9.5705  -14.2197   28.8713 C   0  0  0  0  0  0  0  0  0  0  0  0
    8.3334  -13.5925   29.2219 N   0  0  0  0  0  0  0  0  0  0  0  0
   12.7120  -17.7037   26.5433 C   0  0  0  0  0  0  0  0  0  0  0  0
   13.7220  -17.3835   27.2176 O   0  0  0  0  0  0  0  0  0  0  0  0
   12.1330  -18.9396   26.8541 O   0  0  0  0  0  0  0  0  0  0  0  0
  2  1  1  6
  3  2  1  0
  4  3  1  0
  5  4  1  0
  5  6  1  0
  7  6  1  0
  8  9  2  0
  8  2  1  0
 10 11  1  0
 11 13  1  0
 12 11  2  0
 14 13  1  6
 14 15  1  0
 15  8  1  0
 16 14  1  0
 17 16  2  0
 18 16  1  0
 19 25  1  0
 19 18  1  0
 20 21  1  0
 19 20  1  1
 22 23  1  0
 22 21  1  0
 23 24  1  0
 25 27  1  0
 26 25  2  0
M  END
$$$$
