KNK.pdb
     RDKit          3D

 27 26  0  0  1  0  0  0  0  0999 V2000
    7.0363  -17.6862   17.7806 N   0  0  0  0  0  0  0  0  0  0  0  0
    7.9864  -18.4284   18.6043 C   0  0  1  0  0  0  0  0  0  0  0  0
    9.0115  -19.1257   17.8030 C   0  0  0  0  0  0  0  0  0  0  0  0
    8.6905  -19.6645   16.4759 C   0  0  0  0  0  0  0  0  0  0  0  0
    9.7035  -20.3171   15.6427 C   0  0  0  0  0  0  0  0  0  0  0  0
    9.2794  -20.8350   14.3246 C   0  0  0  0  0  0  0  0  0  0  0  0
   10.3512  -21.4585   13.5655 N   0  0  0  0  0  0  0  0  0  0  0  0
    8.7740  -17.3838   19.4246 C   0  0  0  0  0  0  0  0  0  0  0  0
    9.9859  -17.6119   19.5360 O   0  0  0  0  0  0  0  0  0  0  0  0
    6.4625  -12.8853   18.9947 N   0  0  0  0  0  0  0  0  0  0  0  0
    7.7163  -13.3748   19.4144 C   0  0  0  0  0  0  0  0  0  0  0  0
    8.6899  -13.3244   18.6412 O   0  0  0  0  0  0  0  0  0  0  0  0
    7.8649  -13.9415   20.7626 C   0  0  0  0  0  0  0  0  0  0  0  0
    8.6635  -15.2557   20.7626 C   0  0  2  0  0  0  0  0  0  0  0  0
    8.0928  -16.2863   19.9701 N   0  0  0  0  0  0  0  0  0  0  0  0
    8.8782  -15.6519   22.1540 C   0  0  0  0  0  0  0  0  0  0  0  0
    7.9543  -16.2111   22.8449 O   0  0  0  0  0  0  0  0  0  0  0  0
   10.1038  -15.4538   22.8437 N   0  0  0  0  0  0  0  0  0  0  0  0
   10.5356  -16.3691   23.8741 C   0  0  1  0  0  0  0  0  0  0  0  0
   10.5837  -17.7916   23.3732 C   0  0  0  0  0  0  0  0  0  0  0  0
   11.0000  -18.7794   24.4032 C   0  0  0  0  0  0  0  0  0  0  0  0
   11.1015  -20.1879   23.8775 C   0  0  0  0  0  0  0  0  0  0  0  0
   11.5387  -21.1360   24.9871 C   0  0  0  0  0  0  0  0  0  0  0  0
   11.4876  -22.5085   24.5869 N   0  0  0  0  0  0  0  0  0  0  0  0
   11.7985  -15.9087   24.4403 C   0  0  0  0  0  0  0  0  0  0  0  0
   12.0726  -16.1586   25.6402 O   0  0  0  0  0  0  0  0  0  0  0  0
   12.7627  -15.1861   23.7280 O   0  0  0  0  0  0  0  0  0  0  0  0
  2  1  1  6
  3  2  1  0
  4  3  1  0
  5  4  1  0
  5  6  1  0
  7  6  1  0
  8  9  2  0
  8  2  1  0
 10 11  1  0
 11 13  1  0
 12 11  2  0
 14 13  1  1
 14 15  1  0
 15  8  1  0
 16 14  1  0
 17 16  2  0
 18 16  1  0
 19 25  1  0
 19 18  1  0
 20 21  1  0
 19 20  1  6
 22 23  1  0
 22 21  1  0
 23 24  1  0
 25 27  1  0
 26 25  2  0
M  END
$$$$
