KNK.pdb
     RDKit          3D

 27 26  0  0  1  0  0  0  0  0999 V2000
    9.7576  -16.8373   15.2387 N   0  0  0  0  0  0  0  0  0  0  0  0
    9.2055  -17.3856   16.4742 C   0  0  1  0  0  0  0  0  0  0  0  0
    9.6745  -18.7583   16.7476 C   0  0  0  0  0  0  0  0  0  0  0  0
    9.8233  -19.7327   15.6600 C   0  0  0  0  0  0  0  0  0  0  0  0
   10.1380  -21.1392   15.9223 C   0  0  0  0  0  0  0  0  0  0  0  0
   10.3877  -22.0161   14.7585 C   0  0  0  0  0  0  0  0  0  0  0  0
   10.6654  -23.3984   15.1130 N   0  0  0  0  0  0  0  0  0  0  0  0
    9.7780  -16.5381   17.6312 C   0  0  0  0  0  0  0  0  0  0  0  0
   10.9311  -16.1228   17.4543 O   0  0  0  0  0  0  0  0  0  0  0  0
    7.5829  -12.5227   20.1378 N   0  0  0  0  0  0  0  0  0  0  0  0
    7.4671  -13.8920   19.8227 C   0  0  0  0  0  0  0  0  0  0  0  0
    6.7710  -14.2467   18.8543 O   0  0  0  0  0  0  0  0  0  0  0  0
    8.1693  -14.8915   20.6404 C   0  0  0  0  0  0  0  0  0  0  0  0
    9.3547  -15.5303   19.8976 C   0  0  2  0  0  0  0  0  0  0  0  0
    8.9864  -16.3024   18.7643 N   0  0  0  0  0  0  0  0  0  0  0  0
   10.1454  -16.2806   20.8726 C   0  0  0  0  0  0  0  0  0  0  0  0
    9.8224  -17.4687   21.2300 O   0  0  0  0  0  0  0  0  0  0  0  0
   11.3141  -15.7661   21.4941 N   0  0  0  0  0  0  0  0  0  0  0  0
   12.1178  -16.5892   22.3675 C   0  0  1  0  0  0  0  0  0  0  0  0
   13.5268  -16.0636   22.4898 C   0  0  0  0  0  0  0  0  0  0  0  0
   14.4190  -16.9180   23.3168 C   0  0  0  0  0  0  0  0  0  0  0  0
   15.7997  -16.3431   23.5000 C   0  0  0  0  0  0  0  0  0  0  0  0
   16.6621  -17.2911   24.3240 C   0  0  0  0  0  0  0  0  0  0  0  0
   17.9749  -16.7735   24.5588 N   0  0  0  0  0  0  0  0  0  0  0  0
   11.4422  -16.7466   23.6507 C   0  0  0  0  0  0  0  0  0  0  0  0
   10.6086  -15.8859   24.0269 O   0  0  0  0  0  0  0  0  0  0  0  0
   11.6562  -17.8177   24.5259 O   0  0  0  0  0  0  0  0  0  0  0  0
  2  1  1  6
  3  2  1  0
  4  3  1  0
  5  4  1  0
  5  6  1  0
  7  6  1  0
  8  9  2  0
  8  2  1  0
 10 11  1  0
 11 13  1  0
 12 11  2  0
 14 13  1  1
 14 15  1  0
 15  8  1  0
 16 14  1  0
 17 16  2  0
 18 16  1  0
 19 25  1  0
 19 18  1  0
 20 21  1  0
 19 20  1  1
 22 23  1  0
 22 21  1  0
 23 24  1  0
 25 27  1  0
 26 25  2  0
M  END
$$$$
