KNK.pdb
     RDKit          3D

 27 26  0  0  1  0  0  0  0  0999 V2000
   10.7226  -15.3102   16.2548 N   0  0  0  0  0  0  0  0  0  0  0  0
    9.9836  -16.3763   16.9251 C   0  0  1  0  0  0  0  0  0  0  0  0
    9.2745  -17.2598   15.9787 C   0  0  0  0  0  0  0  0  0  0  0  0
    8.3245  -16.7098   15.0042 C   0  0  0  0  0  0  0  0  0  0  0  0
    7.5680  -17.5722   14.0932 C   0  0  0  0  0  0  0  0  0  0  0  0
    6.4906  -16.9504   13.2943 C   0  0  0  0  0  0  0  0  0  0  0  0
    5.7495  -17.8932   12.4723 N   0  0  0  0  0  0  0  0  0  0  0  0
   11.0321  -17.2868   17.6006 C   0  0  0  0  0  0  0  0  0  0  0  0
   10.5893  -18.3546   18.0441 O   0  0  0  0  0  0  0  0  0  0  0  0
   15.4164  -16.8226   15.3061 N   0  0  0  0  0  0  0  0  0  0  0  0
   14.9426  -17.7098   16.2941 C   0  0  0  0  0  0  0  0  0  0  0  0
   14.6297  -18.8729   15.9818 O   0  0  0  0  0  0  0  0  0  0  0  0
   14.8213  -17.2547   17.6866 C   0  0  0  0  0  0  0  0  0  0  0  0
   13.4380  -17.5589   18.2856 C   0  0  2  0  0  0  0  0  0  0  0  0
   12.3669  -16.8624   17.6661 N   0  0  0  0  0  0  0  0  0  0  0  0
   13.5128  -17.3331   19.7287 C   0  0  0  0  0  0  0  0  0  0  0  0
   14.1113  -16.3113   20.2201 O   0  0  0  0  0  0  0  0  0  0  0  0
   12.9407  -18.2098   20.6884 N   0  0  0  0  0  0  0  0  0  0  0  0
   13.0734  -17.9545   22.1038 C   0  0  1  0  0  0  0  0  0  0  0  0
   12.1807  -18.8564   22.9200 C   0  0  0  0  0  0  0  0  0  0  0  0
   12.4057  -18.7602   24.3863 C   0  0  0  0  0  0  0  0  0  0  0  0
   11.4918  -19.6458   25.1931 C   0  0  0  0  0  0  0  0  0  0  0  0
   11.7591  -19.4647   26.6821 C   0  0  0  0  0  0  0  0  0  0  0  0
   10.9526  -20.3248   27.4922 N   0  0  0  0  0  0  0  0  0  0  0  0
   14.4794  -18.0281   22.4849 C   0  0  0  0  0  0  0  0  0  0  0  0
   14.9557  -17.1810   23.2805 O   0  0  0  0  0  0  0  0  0  0  0  0
   15.3707  -19.0016   22.0188 O   0  0  0  0  0  0  0  0  0  0  0  0
  2  1  1  6
  3  2  1  0
  4  3  1  0
  5  4  1  0
  5  6  1  0
  7  6  1  0
  8  9  2  0
  8  2  1  0
 10 11  1  0
 11 13  1  0
 12 11  2  0
 14 13  1  6
 14 15  1  0
 15  8  1  0
 16 14  1  0
 17 16  2  0
 18 16  1  0
 19 25  1  0
 19 18  1  0
 20 21  1  0
 19 20  1  1
 22 23  1  0
 22 21  1  0
 23 24  1  0
 25 27  1  0
 26 25  2  0
M  END
$$$$
