KNK.pdb
     RDKit          3D

 27 26  0  0  1  0  0  0  0  0999 V2000
    8.3656  -16.1356   18.6693 N   0  0  0  0  0  0  0  0  0  0  0  0
    9.3378  -15.0580   18.8292 C   0  0  1  0  0  0  0  0  0  0  0  0
    8.7069  -13.7243   18.8767 C   0  0  0  0  0  0  0  0  0  0  0  0
    8.1826  -13.0965   17.6578 C   0  0  0  0  0  0  0  0  0  0  0  0
    7.7662  -13.8904   16.4992 C   0  0  0  0  0  0  0  0  0  0  0  0
    7.2047  -13.1686   15.3376 C   0  0  0  0  0  0  0  0  0  0  0  0
    6.8714  -14.0305   14.2152 N   0  0  0  0  0  0  0  0  0  0  0  0
    9.9766  -15.2392   20.2233 C   0  0  0  0  0  0  0  0  0  0  0  0
   10.8195  -14.3846   20.5274 O   0  0  0  0  0  0  0  0  0  0  0  0
   11.1752  -17.4991   24.7036 N   0  0  0  0  0  0  0  0  0  0  0  0
   10.1293  -18.2929   24.1903 C   0  0  0  0  0  0  0  0  0  0  0  0
    9.7139  -19.2665   24.8445 O   0  0  0  0  0  0  0  0  0  0  0  0
    9.5364  -17.9653   22.8857 C   0  0  0  0  0  0  0  0  0  0  0  0
   10.1898  -16.7342   22.2360 C   0  0  2  0  0  0  0  0  0  0  0  0
    9.5770  -16.3183   21.0246 N   0  0  0  0  0  0  0  0  0  0  0  0
   11.6198  -17.0060   22.0936 C   0  0  0  0  0  0  0  0  0  0  0  0
   12.0509  -18.0042   21.4144 O   0  0  0  0  0  0  0  0  0  0  0  0
   12.6314  -16.2034   22.6848 N   0  0  0  0  0  0  0  0  0  0  0  0
   14.0277  -16.4288   22.3922 C   0  0  1  0  0  0  0  0  0  0  0  0
   14.6298  -15.2786   21.6232 C   0  0  0  0  0  0  0  0  0  0  0  0
   14.1800  -15.1983   20.2086 C   0  0  0  0  0  0  0  0  0  0  0  0
   14.7604  -14.0266   19.4598 C   0  0  0  0  0  0  0  0  0  0  0  0
   14.2509  -14.0119   18.0240 C   0  0  0  0  0  0  0  0  0  0  0  0
   14.5722  -12.7967   17.3410 N   0  0  0  0  0  0  0  0  0  0  0  0
   14.7421  -16.7419   23.6247 C   0  0  0  0  0  0  0  0  0  0  0  0
   15.9837  -16.9290   23.5962 O   0  0  0  0  0  0  0  0  0  0  0  0
   14.1330  -16.8539   24.8799 O   0  0  0  0  0  0  0  0  0  0  0  0
  2  1  1  1
  3  2  1  0
  4  3  1  0
  5  4  1  0
  5  6  1  0
  7  6  1  0
  8  9  2  0
  8  2  1  0
 10 11  1  0
 11 13  1  0
 12 11  2  0
 14 13  1  6
 14 15  1  0
 15  8  1  0
 16 14  1  0
 17 16  2  0
 18 16  1  0
 19 25  1  0
 19 18  1  0
 20 21  1  0
 19 20  1  1
 22 23  1  0
 22 21  1  0
 23 24  1  0
 25 27  1  0
 26 25  2  0
M  END
$$$$
