KNK.pdb
     RDKit          3D

 27 26  0  0  1  0  0  0  0  0999 V2000
    6.3219  -16.1879   19.8186 N   0  0  0  0  0  0  0  0  0  0  0  0
    7.2983  -17.2159   19.4695 C   0  0  1  0  0  0  0  0  0  0  0  0
    7.5551  -17.2878   18.0176 C   0  0  0  0  0  0  0  0  0  0  0  0
    7.7274  -16.0657   17.2230 C   0  0  0  0  0  0  0  0  0  0  0  0
    7.7540  -16.0952   15.7586 C   0  0  0  0  0  0  0  0  0  0  0  0
    8.5734  -15.0783   15.0656 C   0  0  0  0  0  0  0  0  0  0  0  0
    8.4399  -15.1027   13.6181 N   0  0  0  0  0  0  0  0  0  0  0  0
    8.6449  -16.7767   20.0844 C   0  0  0  0  0  0  0  0  0  0  0  0
    9.5683  -17.5918   19.9576 O   0  0  0  0  0  0  0  0  0  0  0  0
    9.2868  -12.3926   18.7981 N   0  0  0  0  0  0  0  0  0  0  0  0
   10.1950  -13.2616   19.4367 C   0  0  0  0  0  0  0  0  0  0  0  0
   11.0640  -13.8486   18.7670 O   0  0  0  0  0  0  0  0  0  0  0  0
   10.1092  -13.4684   20.8895 C   0  0  0  0  0  0  0  0  0  0  0  0
    9.9091  -14.9471   21.2616 C   0  0  2  0  0  0  0  0  0  0  0  0
    8.7325  -15.5312   20.7225 N   0  0  0  0  0  0  0  0  0  0  0  0
    9.9926  -15.0602   22.7173 C   0  0  0  0  0  0  0  0  0  0  0  0
   11.0059  -14.6226   23.3695 O   0  0  0  0  0  0  0  0  0  0  0  0
    8.9786  -15.6534   23.5154 N   0  0  0  0  0  0  0  0  0  0  0  0
    9.0796  -15.6724   24.9560 C   0  0  1  0  0  0  0  0  0  0  0  0
    7.8064  -15.1965   25.6114 C   0  0  0  0  0  0  0  0  0  0  0  0
    7.5463  -13.7432   25.4380 C   0  0  0  0  0  0  0  0  0  0  0  0
    6.2849  -13.2742   26.1159 C   0  0  0  0  0  0  0  0  0  0  0  0
    6.1022  -11.7752   25.9140 C   0  0  0  0  0  0  0  0  0  0  0  0
    4.8963  -11.2853   26.5076 N   0  0  0  0  0  0  0  0  0  0  0  0
    9.5028  -16.9958   25.3999 C   0  0  0  0  0  0  0  0  0  0  0  0
    9.2605  -18.0006   24.6864 O   0  0  0  0  0  0  0  0  0  0  0  0
   10.1813  -17.2434   26.5989 O   0  0  0  0  0  0  0  0  0  0  0  0
  2  1  1  6
  3  2  1  0
  4  3  1  0
  5  4  1  0
  5  6  1  0
  7  6  1  0
  8  9  2  0
  8  2  1  0
 10 11  1  0
 11 13  1  0
 12 11  2  0
 14 13  1  1
 14 15  1  0
 15  8  1  0
 16 14  1  0
 17 16  2  0
 18 16  1  0
 19 25  1  0
 19 18  1  0
 20 21  1  0
 19 20  1  1
 22 23  1  0
 22 21  1  0
 23 24  1  0
 25 27  1  0
 26 25  2  0
M  END
$$$$
