KNK.pdb
     RDKit          3D

 27 26  0  0  1  0  0  0  0  0999 V2000
   10.3513  -14.4503   17.8683 N   0  0  0  0  0  0  0  0  0  0  0  0
    9.2519  -13.7099   18.4807 C   0  0  1  0  0  0  0  0  0  0  0  0
    8.0297  -13.7170   17.6529 C   0  0  0  0  0  0  0  0  0  0  0  0
    7.9115  -14.6103   16.4941 C   0  0  0  0  0  0  0  0  0  0  0  0
    8.0134  -14.1100   15.1210 C   0  0  0  0  0  0  0  0  0  0  0  0
    7.7593  -15.0647   14.0212 C   0  0  0  0  0  0  0  0  0  0  0  0
    7.6757  -14.4421   12.7101 N   0  0  0  0  0  0  0  0  0  0  0  0
    8.8608  -14.4755   19.7634 C   0  0  0  0  0  0  0  0  0  0  0  0
    7.8316  -14.0711   20.3206 O   0  0  0  0  0  0  0  0  0  0  0  0
   11.2672  -18.8595   19.4725 N   0  0  0  0  0  0  0  0  0  0  0  0
   10.1641  -18.5276   20.2853 C   0  0  0  0  0  0  0  0  0  0  0  0
    9.0478  -19.0217   20.0442 O   0  0  0  0  0  0  0  0  0  0  0  0
   10.3399  -17.6001   21.4120 C   0  0  0  0  0  0  0  0  0  0  0  0
    9.4126  -16.3770   21.3162 C   0  0  2  0  0  0  0  0  0  0  0  0
    9.6651  -15.5384   20.1986 N   0  0  0  0  0  0  0  0  0  0  0  0
    9.4711  -15.6667   22.5933 C   0  0  0  0  0  0  0  0  0  0  0  0
   10.5300  -15.0525   22.9742 O   0  0  0  0  0  0  0  0  0  0  0  0
    8.3814  -15.5994   23.5017 N   0  0  0  0  0  0  0  0  0  0  0  0
    8.4546  -14.7888   24.6949 C   0  0  1  0  0  0  0  0  0  0  0  0
    7.2326  -13.9183   24.8544 C   0  0  0  0  0  0  0  0  0  0  0  0
    7.1991  -13.1545   26.1294 C   0  0  0  0  0  0  0  0  0  0  0  0
    5.9377  -12.3515   26.3150 C   0  0  0  0  0  0  0  0  0  0  0  0
    5.9903  -11.5804   27.6280 C   0  0  0  0  0  0  0  0  0  0  0  0
    4.8038  -10.8163   27.8626 N   0  0  0  0  0  0  0  0  0  0  0  0
    8.7173  -15.6401   25.8498 C   0  0  0  0  0  0  0  0  0  0  0  0
    9.0635  -15.1228   26.9407 O   0  0  0  0  0  0  0  0  0  0  0  0
    8.6099  -17.0356   25.8389 O   0  0  0  0  0  0  0  0  0  0  0  0
  2  1  1  6
  3  2  1  0
  4  3  1  0
  5  4  1  0
  5  6  1  0
  7  6  1  0
  8  9  2  0
  8  2  1  0
 10 11  1  0
 11 13  1  0
 12 11  2  0
 14 13  1  1
 14 15  1  0
 15  8  1  0
 16 14  1  0
 17 16  2  0
 18 16  1  0
 19 25  1  0
 19 18  1  0
 20 21  1  0
 19 20  1  1
 22 23  1  0
 22 21  1  0
 23 24  1  0
 25 27  1  0
 26 25  2  0
M  END
$$$$
