KNK.pdb
     RDKit          3D

 27 26  0  0  1  0  0  0  0  0999 V2000
    6.7204  -18.0742   19.5152 N   0  0  0  0  0  0  0  0  0  0  0  0
    8.1691  -18.2564   19.5182 C   0  0  1  0  0  0  0  0  0  0  0  0
    8.7590  -18.1518   18.1691 C   0  0  0  0  0  0  0  0  0  0  0  0
    7.9610  -17.6714   17.0346 C   0  0  0  0  0  0  0  0  0  0  0  0
    8.4440  -17.7701   15.6551 C   0  0  0  0  0  0  0  0  0  0  0  0
    7.5744  -17.2405   14.5831 C   0  0  0  0  0  0  0  0  0  0  0  0
    8.0846  -17.4763   13.2423 N   0  0  0  0  0  0  0  0  0  0  0  0
    8.7650  -17.0655   20.2999 C   0  0  0  0  0  0  0  0  0  0  0  0
    9.9970  -17.0845   20.4227 O   0  0  0  0  0  0  0  0  0  0  0  0
    6.9262  -12.4220   19.0413 N   0  0  0  0  0  0  0  0  0  0  0  0
    7.8214  -13.2748   19.7188 C   0  0  0  0  0  0  0  0  0  0  0  0
    8.8220  -13.7174   19.1261 O   0  0  0  0  0  0  0  0  0  0  0  0
    7.5668  -13.6355   21.1209 C   0  0  0  0  0  0  0  0  0  0  0  0
    8.2930  -14.9257   21.5368 C   0  0  2  0  0  0  0  0  0  0  0  0
    7.9062  -16.0770   20.8013 N   0  0  0  0  0  0  0  0  0  0  0  0
    8.1343  -15.0858   22.9818 C   0  0  0  0  0  0  0  0  0  0  0  0
    8.5274  -14.1860   23.8060 O   0  0  0  0  0  0  0  0  0  0  0  0
    7.5435  -16.2294   23.5819 N   0  0  0  0  0  0  0  0  0  0  0  0
    7.8435  -16.5937   24.9469 C   0  0  1  0  0  0  0  0  0  0  0  0
    7.2959  -17.9561   25.2945 C   0  0  0  0  0  0  0  0  0  0  0  0
    7.5863  -18.3847   26.6881 C   0  0  0  0  0  0  0  0  0  0  0  0
    7.0174  -19.7372   27.0309 C   0  0  0  0  0  0  0  0  0  0  0  0
    7.3534  -20.1024   28.4714 C   0  0  0  0  0  0  0  0  0  0  0  0
    6.9066  -21.4153   28.8224 N   0  0  0  0  0  0  0  0  0  0  0  0
    9.2769  -16.4651   25.1844 C   0  0  0  0  0  0  0  0  0  0  0  0
    9.6918  -15.7359   26.1191 O   0  0  0  0  0  0  0  0  0  0  0  0
   10.2607  -17.1122   24.4277 O   0  0  0  0  0  0  0  0  0  0  0  0
  2  1  1  6
  3  2  1  0
  4  3  1  0
  5  4  1  0
  5  6  1  0
  7  6  1  0
  8  9  2  0
  8  2  1  0
 10 11  1  0
 11 13  1  0
 12 11  2  0
 14 13  1  6
 14 15  1  0
 15  8  1  0
 16 14  1  0
 17 16  2  0
 18 16  1  0
 19 25  1  0
 19 18  1  0
 20 21  1  0
 19 20  1  6
 22 23  1  0
 22 21  1  0
 23 24  1  0
 25 27  1  0
 26 25  2  0
M  END
$$$$
