KNK.pdb
     RDKit          3D

 27 26  0  0  1  0  0  0  0  0999 V2000
    9.3633  -15.6007   15.3934 N   0  0  0  0  0  0  0  0  0  0  0  0
   10.0885  -16.5734   16.2058 C   0  0  1  0  0  0  0  0  0  0  0  0
   11.3534  -17.0073   15.5806 C   0  0  0  0  0  0  0  0  0  0  0  0
   11.5491  -16.9043   14.1295 C   0  0  0  0  0  0  0  0  0  0  0  0
   12.8852  -16.8094   13.5362 C   0  0  0  0  0  0  0  0  0  0  0  0
   12.9925  -16.9099   12.0651 C   0  0  0  0  0  0  0  0  0  0  0  0
   14.3223  -16.6236   11.5520 N   0  0  0  0  0  0  0  0  0  0  0  0
   10.5196  -15.8418   17.4955 C   0  0  0  0  0  0  0  0  0  0  0  0
   11.6196  -15.2767   17.4333 O   0  0  0  0  0  0  0  0  0  0  0  0
    7.8279  -12.5665   19.6941 N   0  0  0  0  0  0  0  0  0  0  0  0
    7.7098  -13.9713   19.7132 C   0  0  0  0  0  0  0  0  0  0  0  0
    6.8518  -14.5292   19.0056 O   0  0  0  0  0  0  0  0  0  0  0  0
    8.6012  -14.7675   20.5691 C   0  0  0  0  0  0  0  0  0  0  0  0
    9.8888  -15.1912   19.8429 C   0  0  2  0  0  0  0  0  0  0  0  0
    9.6708  -15.8636   18.6114 N   0  0  0  0  0  0  0  0  0  0  0  0
   10.7030  -15.9613   20.7826 C   0  0  0  0  0  0  0  0  0  0  0  0
   10.5939  -17.2349   20.8811 O   0  0  0  0  0  0  0  0  0  0  0  0
   11.6636  -15.3746   21.6486 N   0  0  0  0  0  0  0  0  0  0  0  0
   12.5920  -16.1916   22.3946 C   0  0  1  0  0  0  0  0  0  0  0  0
   13.9711  -15.5803   22.4290 C   0  0  0  0  0  0  0  0  0  0  0  0
   14.9792  -16.4075   23.1426 C   0  0  0  0  0  0  0  0  0  0  0  0
   16.3489  -15.7808   23.1844 C   0  0  0  0  0  0  0  0  0  0  0  0
   17.3179  -16.6780   23.9442 C   0  0  0  0  0  0  0  0  0  0  0  0
   18.6649  -16.1993   23.8903 N   0  0  0  0  0  0  0  0  0  0  0  0
   12.0457  -16.4695   23.7182 C   0  0  0  0  0  0  0  0  0  0  0  0
   11.1495  -15.7280   24.1919 O   0  0  0  0  0  0  0  0  0  0  0  0
   12.4548  -17.5337   24.5303 O   0  0  0  0  0  0  0  0  0  0  0  0
  2  1  1  6
  3  2  1  0
  4  3  1  0
  5  4  1  0
  5  6  1  0
  7  6  1  0
  8  9  2  0
  8  2  1  0
 10 11  1  0
 11 13  1  0
 12 11  2  0
 14 13  1  1
 14 15  1  0
 15  8  1  0
 16 14  1  0
 17 16  2  0
 18 16  1  0
 19 25  1  0
 19 18  1  0
 20 21  1  0
 19 20  1  1
 22 23  1  0
 22 21  1  0
 23 24  1  0
 25 27  1  0
 26 25  2  0
M  END
$$$$
