KNK.pdb
     RDKit          3D

 27 26  0  0  1  0  0  0  0  0999 V2000
    8.5473  -20.0196   19.5769 N   0  0  0  0  0  0  0  0  0  0  0  0
    7.4849  -19.0343   19.7577 C   0  0  1  0  0  0  0  0  0  0  0  0
    6.5123  -19.4297   20.7954 C   0  0  0  0  0  0  0  0  0  0  0  0
    6.1446  -20.8381   20.9839 C   0  0  0  0  0  0  0  0  0  0  0  0
    5.1550  -21.2499   21.9825 C   0  0  0  0  0  0  0  0  0  0  0  0
    4.8111  -22.6858   22.0577 C   0  0  0  0  0  0  0  0  0  0  0  0
    3.8848  -23.0130   23.1294 N   0  0  0  0  0  0  0  0  0  0  0  0
    8.1529  -17.7575   20.3128 C   0  0  0  0  0  0  0  0  0  0  0  0
    9.3306  -17.8962   20.6693 O   0  0  0  0  0  0  0  0  0  0  0  0
    9.4313  -12.8160   19.9155 N   0  0  0  0  0  0  0  0  0  0  0  0
    8.0731  -12.9446   19.5602 C   0  0  0  0  0  0  0  0  0  0  0  0
    7.3821  -11.9256   19.3799 O   0  0  0  0  0  0  0  0  0  0  0  0
    7.4821  -14.2816   19.4052 C   0  0  0  0  0  0  0  0  0  0  0  0
    7.9410  -15.2574   20.5016 C   0  0  2  0  0  0  0  0  0  0  0  0
    7.4118  -16.5689   20.3755 N   0  0  0  0  0  0  0  0  0  0  0  0
    7.6556  -14.6440   21.7983 C   0  0  0  0  0  0  0  0  0  0  0  0
    8.1387  -13.5019   22.1237 O   0  0  0  0  0  0  0  0  0  0  0  0
    6.8359  -15.2502   22.7870 N   0  0  0  0  0  0  0  0  0  0  0  0
    7.3543  -15.5558   24.1001 C   0  0  1  0  0  0  0  0  0  0  0  0
    7.2119  -17.0214   24.4295 C   0  0  0  0  0  0  0  0  0  0  0  0
    7.7287  -17.3898   25.7738 C   0  0  0  0  0  0  0  0  0  0  0  0
    7.6025  -18.8590   26.0833 C   0  0  0  0  0  0  0  0  0  0  0  0
    8.1793  -19.1605   27.4609 C   0  0  0  0  0  0  0  0  0  0  0  0
    8.1316  -20.5538   27.7820 N   0  0  0  0  0  0  0  0  0  0  0  0
    8.7231  -15.0645   24.2128 C   0  0  0  0  0  0  0  0  0  0  0  0
    9.5871  -15.4268   23.3764 O   0  0  0  0  0  0  0  0  0  0  0  0
    9.1653  -14.1911   25.2131 O   0  0  0  0  0  0  0  0  0  0  0  0
  2  1  1  1
  3  2  1  0
  4  3  1  0
  5  4  1  0
  5  6  1  0
  7  6  1  0
  8  9  2  0
  8  2  1  0
 10 11  1  0
 11 13  1  0
 12 11  2  0
 14 13  1  6
 14 15  1  0
 15  8  1  0
 16 14  1  0
 17 16  2  0
 18 16  1  0
 19 25  1  0
 19 18  1  0
 20 21  1  0
 19 20  1  6
 22 23  1  0
 22 21  1  0
 23 24  1  0
 25 27  1  0
 26 25  2  0
M  END
$$$$
