NYH.pdb
     RDKit          3D

 31 32  0  0  1  0  0  0  0  0999 V2000
   29.6202  -20.2157  -19.7401 N   0  0  0  0  0  0  0  0  0  0  0  0
   28.2942  -19.7623  -19.5620 C   0  0  0  0  0  0  0  0  0  0  0  0
   27.8713  -18.8946  -20.3618 O   0  0  0  0  0  0  0  0  0  0  0  0
   27.4213  -20.2602  -18.5015 C   0  0  0  0  0  0  0  0  0  0  0  0
   28.0492  -21.2833  -17.5967 C   0  0  2  0  0  0  0  0  0  0  0  0
   28.2241  -22.5388  -18.2944 N   0  0  0  0  0  0  0  0  0  0  0  0
   27.3028  -21.4664  -16.3187 C   0  0  0  0  0  0  0  0  0  0  0  0
   26.4193  -22.3589  -16.2501 O   0  0  0  0  0  0  0  0  0  0  0  0
   24.6608  -20.2677   -7.8388 O   0  0  0  0  0  0  0  0  0  0  0  0
   25.3614  -20.2639   -9.0621 C   0  0  0  0  0  0  0  0  0  0  0  0
   25.9663  -21.4051   -9.5386 C   0  0  0  0  0  0  0  0  0  0  0  0
   26.6501  -21.3894  -10.7386 C   0  0  0  0  0  0  0  0  0  0  0  0
   26.7634  -20.2544  -11.5113 C   0  0  0  0  0  0  0  0  0  0  0  0
   27.4862  -20.2360  -12.7850 C   0  0  0  0  0  0  0  0  0  0  0  0
   26.7602  -20.8145  -13.9489 C   0  0  2  0  0  0  0  0  0  0  0  0
   27.5366  -20.6797  -15.1648 N   0  0  0  0  0  0  0  0  0  0  0  0
   25.3941  -20.3457  -14.1608 C   0  0  0  0  0  0  0  0  0  0  0  0
   25.1892  -19.3209  -14.8942 O   0  0  0  0  0  0  0  0  0  0  0  0
   26.1552  -19.1179  -11.0268 C   0  0  0  0  0  0  0  0  0  0  0  0
   25.4625  -19.1193   -9.8184 C   0  0  0  0  0  0  0  0  0  0  0  0
   24.2409  -20.9466  -13.6096 N   0  0  0  0  0  0  0  0  0  0  0  0
   22.9035  -20.3595  -13.7949 C   0  0  1  0  0  0  0  0  0  0  0  0
   22.3056  -21.1234  -14.9622 C   0  0  0  0  0  0  0  0  0  0  0  0
   22.5408  -20.5062  -16.2648 C   0  0  0  0  0  0  0  0  0  0  0  0
   23.1539  -19.2985  -16.5025 C   0  0  0  0  0  0  0  0  0  0  0  0
   23.1726  -19.0805  -17.8429 N   0  0  0  0  0  0  0  0  0  0  0  0
   22.5752  -20.1446  -18.4417 C   0  0  0  0  0  0  0  0  0  0  0  0
   22.1968  -21.0028  -17.4640 N   0  0  0  0  0  0  0  0  0  0  0  0
   22.0783  -20.5627  -12.5830 C   0  0  0  0  0  0  0  0  0  0  0  0
   20.9695  -20.0297  -12.3637 O   0  0  0  0  0  0  0  0  0  0  0  0
   22.5528  -21.4162  -11.5850 O   0  0  0  0  0  0  0  0  0  0  0  0
  2  4  1  0
  2  1  1  0
  3  2  2  0
  5  4  1  0
  5  6  1  6
  7  8  2  0
  7  5  1  0
  9 10  1  0
 10 20  2  0
 11 12  2  0
 11 10  1  0
 12 13  1  0
 13 14  1  0
 13 19  2  0
 15 14  1  1
 15 16  1  0
 16  7  1  0
 17 18  2  0
 17 15  1  0
 20 19  1  0
 21 17  1  0
 22 21  1  0
 22 23  1  6
 23 24  1  0
 24 25  2  0
 25 26  1  0
 27 26  1  0
 28 24  1  0
 28 27  2  0
 29 22  1  0
 30 29  2  0
 31 29  1  0
M  END
$$$$
