NYH.pdb
     RDKit          3D

 31 32  0  0  1  0  0  0  0  0999 V2000
   44.3132  -11.3229   -7.8645 N   0  0  0  0  0  0  0  0  0  0  0  0
   43.5369  -11.9954   -8.8344 C   0  0  0  0  0  0  0  0  0  0  0  0
   44.0722  -12.9587   -9.4319 O   0  0  0  0  0  0  0  0  0  0  0  0
   42.1638  -11.6136   -9.1556 C   0  0  0  0  0  0  0  0  0  0  0  0
   41.6917  -10.3469   -8.4981 C   0  0  2  0  0  0  0  0  0  0  0  0
   41.6569  -10.5039   -7.0601 N   0  0  0  0  0  0  0  0  0  0  0  0
   40.3824   -9.8688   -9.0286 C   0  0  0  0  0  0  0  0  0  0  0  0
   39.3214  -10.3812   -8.5886 O   0  0  0  0  0  0  0  0  0  0  0  0
   38.0549   -5.1151   -4.9806 O   0  0  0  0  0  0  0  0  0  0  0  0
   38.2519   -5.5605   -6.3035 C   0  0  0  0  0  0  0  0  0  0  0  0
   37.2298   -6.1455   -7.0165 C   0  0  0  0  0  0  0  0  0  0  0  0
   37.4346   -6.5781   -8.3121 C   0  0  0  0  0  0  0  0  0  0  0  0
   38.6482   -6.4516   -8.9518 C   0  0  0  0  0  0  0  0  0  0  0  0
   38.8670   -6.9077  -10.3263 C   0  0  0  0  0  0  0  0  0  0  0  0
   38.9919   -8.3801  -10.5069 C   0  0  2  0  0  0  0  0  0  0  0  0
   40.2676   -8.8579  -10.0134 N   0  0  0  0  0  0  0  0  0  0  0  0
   38.7392   -8.8936  -11.8498 C   0  0  0  0  0  0  0  0  0  0  0  0
   39.7197   -9.0736  -12.6475 O   0  0  0  0  0  0  0  0  0  0  0  0
   39.6646   -5.8653   -8.2309 C   0  0  0  0  0  0  0  0  0  0  0  0
   39.4723   -5.4245   -6.9237 C   0  0  0  0  0  0  0  0  0  0  0  0
   37.4640   -9.2217  -12.3608 N   0  0  0  0  0  0  0  0  0  0  0  0
   37.3024   -9.8493  -13.6828 C   0  0  1  0  0  0  0  0  0  0  0  0
   35.8114  -10.1034  -13.8091 C   0  0  0  0  0  0  0  0  0  0  0  0
   35.4061  -10.6611  -15.0966 C   0  0  0  0  0  0  0  0  0  0  0  0
   36.2364  -11.0394  -16.1254 C   0  0  0  0  0  0  0  0  0  0  0  0
   35.4723  -11.5025  -17.1484 N   0  0  0  0  0  0  0  0  0  0  0  0
   34.1715  -11.4149  -16.7634 C   0  0  0  0  0  0  0  0  0  0  0  0
   34.1513  -10.9000  -15.5105 N   0  0  0  0  0  0  0  0  0  0  0  0
   37.7495   -8.9266  -14.7503 C   0  0  0  0  0  0  0  0  0  0  0  0
   37.5720   -7.6896  -14.7599 O   0  0  0  0  0  0  0  0  0  0  0  0
   38.4290   -9.4538  -15.8501 O   0  0  0  0  0  0  0  0  0  0  0  0
  2  4  1  0
  2  1  1  0
  3  2  2  0
  5  4  1  0
  5  6  1  1
  7  8  2  0
  7  5  1  0
  9 10  1  0
 10 20  2  0
 11 12  2  0
 11 10  1  0
 12 13  1  0
 13 14  1  0
 13 19  2  0
 15 14  1  6
 15 16  1  0
 16  7  1  0
 17 18  2  0
 17 15  1  0
 20 19  1  0
 21 17  1  0
 22 21  1  0
 22 23  1  6
 23 24  1  0
 24 25  2  0
 25 26  1  0
 27 26  1  0
 28 24  1  0
 28 27  2  0
 29 22  1  0
 30 29  2  0
 31 29  1  0
M  END
$$$$
