NYH.pdb
     RDKit          3D

 31 32  0  0  1  0  0  0  0  0999 V2000
   28.0697  -12.0735  -19.6166 N   0  0  0  0  0  0  0  0  0  0  0  0
   26.8916  -12.4957  -18.9612 C   0  0  0  0  0  0  0  0  0  0  0  0
   26.4643  -13.6432  -19.2298 O   0  0  0  0  0  0  0  0  0  0  0  0
   26.1729  -11.6583  -18.0038 C   0  0  0  0  0  0  0  0  0  0  0  0
   26.7562  -10.2874  -17.8032 C   0  0  2  0  0  0  0  0  0  0  0  0
   28.1195  -10.3806  -17.3274 N   0  0  0  0  0  0  0  0  0  0  0  0
   25.9241   -9.4250  -16.9155 C   0  0  0  0  0  0  0  0  0  0  0  0
   26.4871   -8.7581  -16.0099 O   0  0  0  0  0  0  0  0  0  0  0  0
   20.9306   -2.7374  -14.6820 O   0  0  0  0  0  0  0  0  0  0  0  0
   21.7685   -3.7861  -15.1126 C   0  0  0  0  0  0  0  0  0  0  0  0
   23.0013   -3.9937  -14.5360 C   0  0  0  0  0  0  0  0  0  0  0  0
   23.8137   -5.0245  -14.9662 C   0  0  0  0  0  0  0  0  0  0  0  0
   23.4446   -5.8861  -15.9759 C   0  0  0  0  0  0  0  0  0  0  0  0
   24.3035   -6.9811  -16.4322 C   0  0  0  0  0  0  0  0  0  0  0  0
   23.7350   -8.3500  -16.2932 C   0  0  2  0  0  0  0  0  0  0  0  0
   24.5177   -9.3158  -17.0376 N   0  0  0  0  0  0  0  0  0  0  0  0
   22.3155   -8.4980  -16.5998 C   0  0  0  0  0  0  0  0  0  0  0  0
   21.9216   -8.4001  -17.8104 O   0  0  0  0  0  0  0  0  0  0  0  0
   22.2099   -5.6709  -16.5466 C   0  0  0  0  0  0  0  0  0  0  0  0
   21.3804   -4.6353  -16.1228 C   0  0  0  0  0  0  0  0  0  0  0  0
   21.3064   -8.7506  -15.6445 N   0  0  0  0  0  0  0  0  0  0  0  0
   19.8840   -8.7988  -16.0214 C   0  0  1  0  0  0  0  0  0  0  0  0
   19.3584  -10.0702  -15.3804 C   0  0  0  0  0  0  0  0  0  0  0  0
   17.9307  -10.2986  -15.5866 C   0  0  0  0  0  0  0  0  0  0  0  0
   17.0460   -9.4527  -16.2129 C   0  0  0  0  0  0  0  0  0  0  0  0
   15.8146  -10.0256  -16.1947 N   0  0  0  0  0  0  0  0  0  0  0  0
   15.9268  -11.2230  -15.5611 C   0  0  0  0  0  0  0  0  0  0  0  0
   17.2235  -11.3718  -15.1978 N   0  0  0  0  0  0  0  0  0  0  0  0
   19.1657   -7.6248  -15.4769 C   0  0  0  0  0  0  0  0  0  0  0  0
   19.3031   -7.1619  -14.3243 O   0  0  0  0  0  0  0  0  0  0  0  0
   18.2528   -6.9586  -16.2969 O   0  0  0  0  0  0  0  0  0  0  0  0
  2  4  1  0
  2  1  1  0
  3  2  2  0
  5  4  1  0
  5  6  1  1
  7  8  2  0
  7  5  1  0
  9 10  1  0
 10 20  2  0
 11 12  2  0
 11 10  1  0
 12 13  1  0
 13 14  1  0
 13 19  2  0
 15 14  1  6
 15 16  1  0
 16  7  1  0
 17 18  2  0
 17 15  1  0
 20 19  1  0
 21 17  1  0
 22 21  1  0
 22 23  1  1
 23 24  1  0
 24 25  2  0
 25 26  1  0
 27 26  1  0
 28 24  1  0
 28 27  2  0
 29 22  1  0
 30 29  2  0
 31 29  1  0
M  END
$$$$
