NYH.pdb
     RDKit          3D

 31 32  0  0  1  0  0  0  0  0999 V2000
   28.7733  -21.4580  -20.3183 N   0  0  0  0  0  0  0  0  0  0  0  0
   27.9870  -22.5687  -19.9392 C   0  0  0  0  0  0  0  0  0  0  0  0
   27.8576  -23.4934  -20.7756 O   0  0  0  0  0  0  0  0  0  0  0  0
   27.3357  -22.6716  -18.6355 C   0  0  0  0  0  0  0  0  0  0  0  0
   27.5502  -21.4919  -17.7289 C   0  0  2  0  0  0  0  0  0  0  0  0
   28.9531  -21.3497  -17.4043 N   0  0  0  0  0  0  0  0  0  0  0  0
   26.7060  -21.5408  -16.5005 C   0  0  0  0  0  0  0  0  0  0  0  0
   25.6516  -22.2264  -16.5110 O   0  0  0  0  0  0  0  0  0  0  0  0
   24.2943  -20.7217   -7.9169 O   0  0  0  0  0  0  0  0  0  0  0  0
   24.9478  -20.6238   -9.1622 C   0  0  0  0  0  0  0  0  0  0  0  0
   24.5734  -19.6773  -10.0892 C   0  0  0  0  0  0  0  0  0  0  0  0
   25.2210  -19.5908  -11.3060 C   0  0  0  0  0  0  0  0  0  0  0  0
   26.2573  -20.4293  -11.6545 C   0  0  0  0  0  0  0  0  0  0  0  0
   26.9468  -20.3380  -12.9434 C   0  0  0  0  0  0  0  0  0  0  0  0
   26.2317  -20.9374  -14.1034 C   0  0  2  0  0  0  0  0  0  0  0  0
   27.0304  -20.8480  -15.3090 N   0  0  0  0  0  0  0  0  0  0  0  0
   24.8767  -20.4542  -14.3515 C   0  0  0  0  0  0  0  0  0  0  0  0
   24.7082  -19.3393  -14.9503 O   0  0  0  0  0  0  0  0  0  0  0  0
   26.6249  -21.3726  -10.7210 C   0  0  0  0  0  0  0  0  0  0  0  0
   25.9806  -21.4712   -9.4901 C   0  0  0  0  0  0  0  0  0  0  0  0
   23.6969  -21.1345  -13.9772 N   0  0  0  0  0  0  0  0  0  0  0  0
   22.3686  -20.5227  -14.1468 C   0  0  1  0  0  0  0  0  0  0  0  0
   21.7533  -21.2574  -15.3237 C   0  0  0  0  0  0  0  0  0  0  0  0
   21.3567  -20.3901  -16.4298 C   0  0  0  0  0  0  0  0  0  0  0  0
   21.4453  -19.0185  -16.4701 C   0  0  0  0  0  0  0  0  0  0  0  0
   20.9704  -18.5904  -17.6684 N   0  0  0  0  0  0  0  0  0  0  0  0
   20.5866  -19.6867  -18.3748 C   0  0  0  0  0  0  0  0  0  0  0  0
   20.8296  -20.7738  -17.6036 N   0  0  0  0  0  0  0  0  0  0  0  0
   21.5454  -20.7321  -12.9346 C   0  0  0  0  0  0  0  0  0  0  0  0
   21.7400  -21.6133  -12.0701 O   0  0  0  0  0  0  0  0  0  0  0  0
   20.4544  -19.8897  -12.7121 O   0  0  0  0  0  0  0  0  0  0  0  0
  2  4  1  0
  2  1  1  0
  3  2  2  0
  5  4  1  0
  5  6  1  1
  7  8  2  0
  7  5  1  0
  9 10  1  0
 10 20  2  0
 11 12  2  0
 11 10  1  0
 12 13  1  0
 13 14  1  0
 13 19  2  0
 15 14  1  1
 15 16  1  0
 16  7  1  0
 17 18  2  0
 17 15  1  0
 20 19  1  0
 21 17  1  0
 22 21  1  0
 22 23  1  6
 23 24  1  0
 24 25  2  0
 25 26  1  0
 27 26  1  0
 28 24  1  0
 28 27  2  0
 29 22  1  0
 30 29  2  0
 31 29  1  0
M  END
$$$$
