NYH.pdb
     RDKit          3D

 31 32  0  0  1  0  0  0  0  0999 V2000
   25.6612  -10.2807  -20.4688 N   0  0  0  0  0  0  0  0  0  0  0  0
   26.2774   -9.2806  -19.6841 C   0  0  0  0  0  0  0  0  0  0  0  0
   27.5165   -9.1358  -19.8072 O   0  0  0  0  0  0  0  0  0  0  0  0
   25.5350   -8.4306  -18.7564 C   0  0  0  0  0  0  0  0  0  0  0  0
   24.0601   -8.7125  -18.6857 C   0  0  2  0  0  0  0  0  0  0  0  0
   23.4340   -8.4641  -19.9663 N   0  0  0  0  0  0  0  0  0  0  0  0
   23.3772   -7.9682  -17.5886 C   0  0  0  0  0  0  0  0  0  0  0  0
   23.7554   -8.1461  -16.4024 O   0  0  0  0  0  0  0  0  0  0  0  0
   27.4377   -3.3517  -17.2707 O   0  0  0  0  0  0  0  0  0  0  0  0
   26.0796   -3.7200  -17.1864 C   0  0  0  0  0  0  0  0  0  0  0  0
   25.3001   -3.8259  -18.3162 C   0  0  0  0  0  0  0  0  0  0  0  0
   23.9705   -4.1876  -18.2213 C   0  0  0  0  0  0  0  0  0  0  0  0
   23.3609   -4.4574  -17.0156 C   0  0  0  0  0  0  0  0  0  0  0  0
   21.9517   -4.8432  -16.9128 C   0  0  0  0  0  0  0  0  0  0  0  0
   21.6901   -6.2996  -16.7491 C   0  0  2  0  0  0  0  0  0  0  0  0
   22.3125   -7.0621  -17.8125 N   0  0  0  0  0  0  0  0  0  0  0  0
   20.2943   -6.6947  -16.5870 C   0  0  0  0  0  0  0  0  0  0  0  0
   19.5500   -6.8065  -17.6184 O   0  0  0  0  0  0  0  0  0  0  0  0
   24.1483   -4.3490  -15.8910 C   0  0  0  0  0  0  0  0  0  0  0  0
   25.4904   -3.9852  -15.9719 C   0  0  0  0  0  0  0  0  0  0  0  0
   19.6744   -6.9755  -15.3493 N   0  0  0  0  0  0  0  0  0  0  0  0
   18.2325   -7.2591  -15.2572 C   0  0  1  0  0  0  0  0  0  0  0  0
   18.1383   -8.4964  -14.3832 C   0  0  0  0  0  0  0  0  0  0  0  0
   18.4459   -9.7442  -15.0770 C   0  0  0  0  0  0  0  0  0  0  0  0
   18.6039   -9.9124  -16.4325 C   0  0  0  0  0  0  0  0  0  0  0  0
   18.8762  -11.2206  -16.6761 N   0  0  0  0  0  0  0  0  0  0  0  0
   18.8887  -11.8682  -15.4809 C   0  0  0  0  0  0  0  0  0  0  0  0
   18.6245  -10.9521  -14.5184 N   0  0  0  0  0  0  0  0  0  0  0  0
   17.5249   -6.1303  -14.6122 C   0  0  0  0  0  0  0  0  0  0  0  0
   18.0720   -5.1776  -14.0166 O   0  0  0  0  0  0  0  0  0  0  0  0
   16.1297   -6.1008  -14.6577 O   0  0  0  0  0  0  0  0  0  0  0  0
  2  4  1  0
  2  1  1  0
  3  2  2  0
  5  4  1  0
  5  6  1  6
  7  8  2  0
  7  5  1  0
  9 10  1  0
 10 20  2  0
 11 12  2  0
 11 10  1  0
 12 13  1  0
 13 14  1  0
 13 19  2  0
 15 14  1  6
 15 16  1  0
 16  7  1  0
 17 18  2  0
 17 15  1  0
 20 19  1  0
 21 17  1  0
 22 21  1  0
 22 23  1  1
 23 24  1  0
 24 25  2  0
 25 26  1  0
 27 26  1  0
 28 24  1  0
 28 27  2  0
 29 22  1  0
 30 29  2  0
 31 29  1  0
M  END
$$$$
