NYH.pdb
     RDKit          3D

 31 32  0  0  1  0  0  0  0  0999 V2000
   27.6479  -22.4627  -17.1736 N   0  0  0  0  0  0  0  0  0  0  0  0
   27.8612  -22.4711  -15.7772 C   0  0  0  0  0  0  0  0  0  0  0  0
   29.0388  -22.6266  -15.3767 O   0  0  0  0  0  0  0  0  0  0  0  0
   26.7797  -22.3085  -14.8086 C   0  0  0  0  0  0  0  0  0  0  0  0
   25.4043  -22.2193  -15.4086 C   0  0  2  0  0  0  0  0  0  0  0  0
   25.3175  -21.0938  -16.3138 N   0  0  0  0  0  0  0  0  0  0  0  0
   24.3229  -22.1813  -14.3823 C   0  0  0  0  0  0  0  0  0  0  0  0
   24.2433  -23.1157  -13.5442 O   0  0  0  0  0  0  0  0  0  0  0  0
   26.5666  -20.8850   -8.3220 O   0  0  0  0  0  0  0  0  0  0  0  0
   25.5966  -20.6482   -9.3172 C   0  0  0  0  0  0  0  0  0  0  0  0
   25.9622  -20.2998  -10.5979 C   0  0  0  0  0  0  0  0  0  0  0  0
   25.0029  -20.0702  -11.5647 C   0  0  0  0  0  0  0  0  0  0  0  0
   23.6533  -20.1745  -11.3080 C   0  0  0  0  0  0  0  0  0  0  0  0
   22.6344  -19.9336  -12.3322 C   0  0  0  0  0  0  0  0  0  0  0  0
   22.3656  -21.0691  -13.2567 C   0  0  2  0  0  0  0  0  0  0  0  0
   23.3686  -21.1385  -14.3000 N   0  0  0  0  0  0  0  0  0  0  0  0
   21.0254  -21.1354  -13.8316 C   0  0  0  0  0  0  0  0  0  0  0  0
   20.6843  -20.2912  -14.7266 O   0  0  0  0  0  0  0  0  0  0  0  0
   23.2971  -20.5235  -10.0244 C   0  0  0  0  0  0  0  0  0  0  0  0
   24.2537  -20.7579   -9.0395 C   0  0  0  0  0  0  0  0  0  0  0  0
   20.0411  -22.0835  -13.4750 N   0  0  0  0  0  0  0  0  0  0  0  0
   18.6849  -22.0374  -14.0462 C   0  0  1  0  0  0  0  0  0  0  0  0
   18.4183  -23.4542  -14.5207 C   0  0  0  0  0  0  0  0  0  0  0  0
   19.2976  -23.9002  -15.5981 C   0  0  0  0  0  0  0  0  0  0  0  0
   20.2357  -24.9033  -15.5302 C   0  0  0  0  0  0  0  0  0  0  0  0
   20.8465  -25.0054  -16.7391 N   0  0  0  0  0  0  0  0  0  0  0  0
   20.2948  -24.0723  -17.5594 C   0  0  0  0  0  0  0  0  0  0  0  0
   19.3531  -23.4088  -16.8465 N   0  0  0  0  0  0  0  0  0  0  0  0
   17.7003  -21.6590  -13.0079 C   0  0  0  0  0  0  0  0  0  0  0  0
   17.8885  -21.7210  -11.7740 O   0  0  0  0  0  0  0  0  0  0  0  0
   16.4487  -21.1897  -13.4112 O   0  0  0  0  0  0  0  0  0  0  0  0
  2  4  1  0
  2  1  1  0
  3  2  2  0
  5  4  1  0
  5  6  1  1
  7  8  2  0
  7  5  1  0
  9 10  1  0
 10 20  2  0
 11 12  2  0
 11 10  1  0
 12 13  1  0
 13 14  1  0
 13 19  2  0
 15 14  1  6
 15 16  1  0
 16  7  1  0
 17 18  2  0
 17 15  1  0
 20 19  1  0
 21 17  1  0
 22 21  1  0
 22 23  1  1
 23 24  1  0
 24 25  2  0
 25 26  1  0
 27 26  1  0
 28 24  1  0
 28 27  2  0
 29 22  1  0
 30 29  2  0
 31 29  1  0
M  END
$$$$
