NYH.pdb
     RDKit          3D

 31 32  0  0  1  0  0  0  0  0999 V2000
   29.4914  -27.4708  -17.5797 N   0  0  0  0  0  0  0  0  0  0  0  0
   28.3764  -27.3332  -16.7232 C   0  0  0  0  0  0  0  0  0  0  0  0
   28.2889  -28.1319  -15.7610 O   0  0  0  0  0  0  0  0  0  0  0  0
   27.3472  -26.3149  -16.9182 C   0  0  0  0  0  0  0  0  0  0  0  0
   27.5866  -25.3911  -18.0797 C   0  0  2  0  0  0  0  0  0  0  0  0
   28.8515  -24.7046  -17.9298 N   0  0  0  0  0  0  0  0  0  0  0  0
   26.4661  -24.4323  -18.3014 C   0  0  0  0  0  0  0  0  0  0  0  0
   26.4021  -23.3938  -17.5947 O   0  0  0  0  0  0  0  0  0  0  0  0
   28.4478  -19.3721  -22.1390 O   0  0  0  0  0  0  0  0  0  0  0  0
   27.4435  -20.3127  -21.8326 C   0  0  0  0  0  0  0  0  0  0  0  0
   26.1813  -19.9092  -21.4593 C   0  0  0  0  0  0  0  0  0  0  0  0
   25.2054  -20.8401  -21.1614 C   0  0  0  0  0  0  0  0  0  0  0  0
   25.4344  -22.1974  -21.2195 C   0  0  0  0  0  0  0  0  0  0  0  0
   24.4004  -23.1862  -20.9060 C   0  0  0  0  0  0  0  0  0  0  0  0
   24.3851  -23.6832  -19.5027 C   0  0  2  0  0  0  0  0  0  0  0  0
   25.4575  -24.6305  -19.2752 N   0  0  0  0  0  0  0  0  0  0  0  0
   23.1175  -24.2207  -19.0179 C   0  0  0  0  0  0  0  0  0  0  0  0
   22.9412  -25.4850  -18.9916 O   0  0  0  0  0  0  0  0  0  0  0  0
   26.6997  -22.5916  -21.5938 C   0  0  0  0  0  0  0  0  0  0  0  0
   27.6935  -21.6639  -21.8970 C   0  0  0  0  0  0  0  0  0  0  0  0
   22.0339  -23.4402  -18.5580 N   0  0  0  0  0  0  0  0  0  0  0  0
   20.7788  -24.0589  -18.1003 C   0  0  1  0  0  0  0  0  0  0  0  0
   21.1595  -24.8170  -16.8417 C   0  0  0  0  0  0  0  0  0  0  0  0
   21.0671  -26.2692  -16.9665 C   0  0  0  0  0  0  0  0  0  0  0  0
   20.7373  -26.9766  -18.0985 C   0  0  0  0  0  0  0  0  0  0  0  0
   20.7568  -28.3015  -17.8003 N   0  0  0  0  0  0  0  0  0  0  0  0
   21.0967  -28.4238  -16.4898 C   0  0  0  0  0  0  0  0  0  0  0  0
   21.2817  -27.1749  -15.9987 N   0  0  0  0  0  0  0  0  0  0  0  0
   19.7773  -23.0176  -17.7789 C   0  0  0  0  0  0  0  0  0  0  0  0
   19.9823  -21.7849  -17.7973 O   0  0  0  0  0  0  0  0  0  0  0  0
   18.4874  -23.4161  -17.4226 O   0  0  0  0  0  0  0  0  0  0  0  0
  2  4  1  0
  2  1  1  0
  3  2  2  0
  5  4  1  0
  5  6  1  1
  7  8  2  0
  7  5  1  0
  9 10  1  0
 10 20  2  0
 11 12  2  0
 11 10  1  0
 12 13  1  0
 13 14  1  0
 13 19  2  0
 15 14  1  6
 15 16  1  0
 16  7  1  0
 17 18  2  0
 17 15  1  0
 20 19  1  0
 21 17  1  0
 22 21  1  0
 22 23  1  1
 23 24  1  0
 24 25  2  0
 25 26  1  0
 27 26  1  0
 28 24  1  0
 28 27  2  0
 29 22  1  0
 30 29  2  0
 31 29  1  0
M  END
$$$$
