NYH.pdb
     RDKit          3D

 31 32  0  0  1  0  0  0  0  0999 V2000
   28.6494  -20.7289  -20.1197 N   0  0  0  0  0  0  0  0  0  0  0  0
   27.2656  -20.6131  -19.8603 C   0  0  0  0  0  0  0  0  0  0  0  0
   26.5569  -20.0833  -20.7482 O   0  0  0  0  0  0  0  0  0  0  0  0
   26.6491  -21.0796  -18.6206 C   0  0  0  0  0  0  0  0  0  0  0  0
   27.6157  -21.5932  -17.5904 C   0  0  2  0  0  0  0  0  0  0  0  0
   28.2236  -22.8284  -18.0359 N   0  0  0  0  0  0  0  0  0  0  0  0
   27.0022  -21.7410  -16.2392 C   0  0  0  0  0  0  0  0  0  0  0  0
   26.2419  -22.7181  -16.0173 O   0  0  0  0  0  0  0  0  0  0  0  0
   25.1536  -20.2155   -7.6043 O   0  0  0  0  0  0  0  0  0  0  0  0
   25.7115  -20.2245   -8.8989 C   0  0  0  0  0  0  0  0  0  0  0  0
   25.6095  -19.1278   -9.7247 C   0  0  0  0  0  0  0  0  0  0  0  0
   26.1602  -19.1481  -10.9912 C   0  0  0  0  0  0  0  0  0  0  0  0
   26.8291  -20.2444  -11.4902 C   0  0  0  0  0  0  0  0  0  0  0  0
   27.4156  -20.2674  -12.8321 C   0  0  0  0  0  0  0  0  0  0  0  0
   26.6170  -20.9682  -13.8750 C   0  0  2  0  0  0  0  0  0  0  0  0
   27.2310  -20.8295  -15.1800 N   0  0  0  0  0  0  0  0  0  0  0  0
   25.1976  -20.6336  -13.9402 C   0  0  0  0  0  0  0  0  0  0  0  0
   24.8247  -19.6080  -14.6030 O   0  0  0  0  0  0  0  0  0  0  0  0
   26.9262  -21.3366  -10.6571 C   0  0  0  0  0  0  0  0  0  0  0  0
   26.3756  -21.3300   -9.3777 C   0  0  0  0  0  0  0  0  0  0  0  0
   24.1662  -21.3696  -13.3162 N   0  0  0  0  0  0  0  0  0  0  0  0
   22.7816  -20.8710  -13.2741 C   0  0  1  0  0  0  0  0  0  0  0  0
   21.9672  -21.9346  -13.9877 C   0  0  0  0  0  0  0  0  0  0  0  0
   21.9942  -21.8322  -15.4443 C   0  0  0  0  0  0  0  0  0  0  0  0
   21.5047  -20.7956  -16.2037 C   0  0  0  0  0  0  0  0  0  0  0  0
   21.7173  -21.0828  -17.5141 N   0  0  0  0  0  0  0  0  0  0  0  0
   22.3360  -22.2917  -17.5757 C   0  0  0  0  0  0  0  0  0  0  0  0
   22.4962  -22.7326  -16.3047 N   0  0  0  0  0  0  0  0  0  0  0  0
   22.3229  -20.7395  -11.8730 C   0  0  0  0  0  0  0  0  0  0  0  0
   22.9359  -21.1580  -10.8676 O   0  0  0  0  0  0  0  0  0  0  0  0
   21.1079  -20.0984  -11.6233 O   0  0  0  0  0  0  0  0  0  0  0  0
  2  4  1  0
  2  1  1  0
  3  2  2  0
  5  4  1  0
  5  6  1  6
  7  8  2  0
  7  5  1  0
  9 10  1  0
 10 20  2  0
 11 12  2  0
 11 10  1  0
 12 13  1  0
 13 14  1  0
 13 19  2  0
 15 14  1  1
 15 16  1  0
 16  7  1  0
 17 18  2  0
 17 15  1  0
 20 19  1  0
 21 17  1  0
 22 21  1  0
 22 23  1  6
 23 24  1  0
 24 25  2  0
 25 26  1  0
 27 26  1  0
 28 24  1  0
 28 27  2  0
 29 22  1  0
 30 29  2  0
 31 29  1  0
M  END
$$$$
