NYH.pdb
     RDKit          3D

 31 32  0  0  1  0  0  0  0  0999 V2000
   44.7079  -10.0868   -4.0628 N   0  0  0  0  0  0  0  0  0  0  0  0
   43.8997  -10.1016   -5.2214 C   0  0  0  0  0  0  0  0  0  0  0  0
   44.1698  -10.9543   -6.0996 O   0  0  0  0  0  0  0  0  0  0  0  0
   42.7864   -9.1775   -5.4237 C   0  0  0  0  0  0  0  0  0  0  0  0
   42.8792   -8.3422   -6.6701 C   0  0  2  0  0  0  0  0  0  0  0  0
   44.0579   -7.5038   -6.6325 N   0  0  0  0  0  0  0  0  0  0  0  0
   41.6468   -7.5430   -6.9283 C   0  0  0  0  0  0  0  0  0  0  0  0
   40.5431   -8.1379   -7.0284 O   0  0  0  0  0  0  0  0  0  0  0  0
   39.9500   -3.6337   -1.1191 O   0  0  0  0  0  0  0  0  0  0  0  0
   40.1044   -3.7234   -2.5175 C   0  0  0  0  0  0  0  0  0  0  0  0
   41.3422   -3.9270   -3.0846 C   0  0  0  0  0  0  0  0  0  0  0  0
   41.4812   -4.0132   -4.4561 C   0  0  0  0  0  0  0  0  0  0  0  0
   40.4113   -3.9025   -5.3171 C   0  0  0  0  0  0  0  0  0  0  0  0
   40.5562   -3.9957   -6.7716 C   0  0  0  0  0  0  0  0  0  0  0  0
   40.4548   -5.3658   -7.3451 C   0  0  2  0  0  0  0  0  0  0  0  0
   41.6519   -6.1342   -7.0698 N   0  0  0  0  0  0  0  0  0  0  0  0
   40.1058   -5.4535   -8.7598 C   0  0  0  0  0  0  0  0  0  0  0  0
   40.9819   -5.1615   -9.6414 O   0  0  0  0  0  0  0  0  0  0  0  0
   39.1773   -3.6990   -4.7408 C   0  0  0  0  0  0  0  0  0  0  0  0
   39.0224   -3.6101   -3.3595 C   0  0  0  0  0  0  0  0  0  0  0  0
   38.8436   -5.8481   -9.2559 N   0  0  0  0  0  0  0  0  0  0  0  0
   38.5289   -5.7908  -10.6930 C   0  0  1  0  0  0  0  0  0  0  0  0
   37.8520   -7.1159  -10.9923 C   0  0  0  0  0  0  0  0  0  0  0  0
   38.7701   -8.2468  -11.0978 C   0  0  0  0  0  0  0  0  0  0  0  0
   40.1320   -8.2189  -10.9101 C   0  0  0  0  0  0  0  0  0  0  0  0
   40.6200   -9.4716  -11.1032 N   0  0  0  0  0  0  0  0  0  0  0  0
   39.5707  -10.2796  -11.4099 C   0  0  0  0  0  0  0  0  0  0  0  0
   38.4521   -9.5154  -11.4018 N   0  0  0  0  0  0  0  0  0  0  0  0
   37.5988   -4.6741  -10.9734 C   0  0  0  0  0  0  0  0  0  0  0  0
   37.1436   -4.3754  -12.0983 O   0  0  0  0  0  0  0  0  0  0  0  0
   37.1774   -3.8708   -9.9120 O   0  0  0  0  0  0  0  0  0  0  0  0
  2  4  1  0
  2  1  1  0
  3  2  2  0
  5  4  1  0
  5  6  1  1
  7  8  2  0
  7  5  1  0
  9 10  1  0
 10 20  2  0
 11 12  2  0
 11 10  1  0
 12 13  1  0
 13 14  1  0
 13 19  2  0
 15 14  1  6
 15 16  1  0
 16  7  1  0
 17 18  2  0
 17 15  1  0
 20 19  1  0
 21 17  1  0
 22 21  1  0
 22 23  1  1
 23 24  1  0
 24 25  2  0
 25 26  1  0
 27 26  1  0
 28 24  1  0
 28 27  2  0
 29 22  1  0
 30 29  2  0
 31 29  1  0
M  END
$$$$
