NYH.pdb
     RDKit          3D

 31 32  0  0  1  0  0  0  0  0999 V2000
   27.9151  -18.8211  -18.0221 N   0  0  0  0  0  0  0  0  0  0  0  0
   27.6172  -18.6123  -16.6571 C   0  0  0  0  0  0  0  0  0  0  0  0
   28.2655  -17.7230  -16.0569 O   0  0  0  0  0  0  0  0  0  0  0  0
   26.6025  -19.3809  -15.9400 C   0  0  0  0  0  0  0  0  0  0  0  0
   27.1353  -20.2564  -14.8403 C   0  0  2  0  0  0  0  0  0  0  0  0
   27.9934  -21.2873  -15.3831 N   0  0  0  0  0  0  0  0  0  0  0  0
   26.0600  -20.8339  -13.9835 C   0  0  0  0  0  0  0  0  0  0  0  0
   25.4084  -21.8235  -14.4055 O   0  0  0  0  0  0  0  0  0  0  0  0
   30.3380  -21.6873   -8.8426 O   0  0  0  0  0  0  0  0  0  0  0  0
   29.0080  -21.4445   -9.2420 C   0  0  0  0  0  0  0  0  0  0  0  0
   28.5343  -21.9006  -10.4516 C   0  0  0  0  0  0  0  0  0  0  0  0
   27.2292  -21.6566  -10.8323 C   0  0  0  0  0  0  0  0  0  0  0  0
   26.3452  -20.9575  -10.0399 C   0  0  0  0  0  0  0  0  0  0  0  0
   24.9603  -20.6995  -10.4407 C   0  0  0  0  0  0  0  0  0  0  0  0
   24.6639  -20.8703  -11.8896 C   0  0  2  0  0  0  0  0  0  0  0  0
   25.7280  -20.3219  -12.7059 N   0  0  0  0  0  0  0  0  0  0  0  0
   23.3661  -20.3846  -12.3487 C   0  0  0  0  0  0  0  0  0  0  0  0
   23.3023  -19.2936  -13.0089 O   0  0  0  0  0  0  0  0  0  0  0  0
   26.8278  -20.5054   -8.8320 C   0  0  0  0  0  0  0  0  0  0  0  0
   28.1415  -20.7440   -8.4353 C   0  0  0  0  0  0  0  0  0  0  0  0
   22.1345  -21.0375  -12.1215 N   0  0  0  0  0  0  0  0  0  0  0  0
   20.9174  -20.6648  -12.8616 C   0  0  1  0  0  0  0  0  0  0  0  0
   21.0765  -21.3218  -14.2205 C   0  0  0  0  0  0  0  0  0  0  0  0
   19.9495  -21.1079  -15.1244 C   0  0  0  0  0  0  0  0  0  0  0  0
   18.8057  -20.3934  -14.8558 C   0  0  0  0  0  0  0  0  0  0  0  0
   18.0028  -20.4366  -15.9505 N   0  0  0  0  0  0  0  0  0  0  0  0
   18.6392  -21.1735  -16.8992 C   0  0  0  0  0  0  0  0  0  0  0  0
   19.8237  -21.5739  -16.3774 N   0  0  0  0  0  0  0  0  0  0  0  0
   19.7161  -21.1977  -12.1808 C   0  0  0  0  0  0  0  0  0  0  0  0
   19.6617  -22.2696  -11.5405 O   0  0  0  0  0  0  0  0  0  0  0  0
   18.5304  -20.4628  -12.2416 O   0  0  0  0  0  0  0  0  0  0  0  0
  2  4  1  0
  2  1  1  0
  3  2  2  0
  5  4  1  0
  5  6  1  6
  7  8  2  0
  7  5  1  0
  9 10  1  0
 10 20  2  0
 11 12  2  0
 11 10  1  0
 12 13  1  0
 13 14  1  0
 13 19  2  0
 15 14  1  1
 15 16  1  0
 16  7  1  0
 17 18  2  0
 17 15  1  0
 20 19  1  0
 21 17  1  0
 22 21  1  0
 22 23  1  6
 23 24  1  0
 24 25  2  0
 25 26  1  0
 27 26  1  0
 28 24  1  0
 28 27  2  0
 29 22  1  0
 30 29  2  0
 31 29  1  0
M  END
$$$$
