EYL.pdb
     RDKit          3D

 30 30  0  0  1  0  0  0  0  0999 V2000
    9.2959  -18.8470   21.2997 N   0  0  0  0  0  0  0  0  0  0  0  0
   10.5300  -18.2460   20.7806 C   0  0  1  0  0  0  0  0  0  0  0  0
   10.4675  -18.1565   19.2668 C   0  0  0  0  0  0  0  0  0  0  0  0
   10.2017  -19.4630   18.5977 C   0  0  0  0  0  0  0  0  0  0  0  0
   11.1326  -19.5440   17.4164 C   0  0  0  0  0  0  0  0  0  0  0  0
   11.0354  -18.7664   16.4372 O   0  0  0  0  0  0  0  0  0  0  0  0
   10.7417  -16.9539   21.4390 C   0  0  0  0  0  0  0  0  0  0  0  0
   11.7559  -16.2302   21.2535 O   0  0  0  0  0  0  0  0  0  0  0  0
   12.1298  -20.5002   17.3975 O   0  0  0  0  0  0  0  0  0  0  0  0
    6.9119  -13.2608   17.6236 O   0  0  0  0  0  0  0  0  0  0  0  0
    7.3156  -13.5220   18.9240 C   0  0  0  0  0  0  0  0  0  0  0  0
    8.1888  -12.6915   19.5792 C   0  0  0  0  0  0  0  0  0  0  0  0
    8.5752  -12.9704   20.8690 C   0  0  0  0  0  0  0  0  0  0  0  0
    8.0876  -14.1008   21.5346 C   0  0  0  0  0  0  0  0  0  0  0  0
    8.5280  -14.4020   22.9041 C   0  0  0  0  0  0  0  0  0  0  0  0
    9.8701  -15.0607   22.8852 C   0  0  2  0  0  0  0  0  0  0  0  0
    9.7609  -16.4375   22.3614 N   0  0  0  0  0  0  0  0  0  0  0  0
   10.4231  -15.1676   24.2510 C   0  0  0  0  0  0  0  0  0  0  0  0
   11.1836  -14.2800   24.7550 O   0  0  0  0  0  0  0  0  0  0  0  0
    7.2148  -14.9232   20.8669 C   0  0  0  0  0  0  0  0  0  0  0  0
    6.8122  -14.6525   19.5541 C   0  0  0  0  0  0  0  0  0  0  0  0
   11.2031  -14.1479   28.6660 C   0  0  0  0  0  0  0  0  0  0  0  0
    9.7600  -14.7587   28.5080 C   0  0  1  0  0  0  0  0  0  0  0  0
    8.8729  -13.6608   29.0101 C   0  0  0  0  0  0  0  0  0  0  0  0
    9.6755  -15.1039   27.0802 C   0  0  0  0  0  0  0  0  0  0  0  0
   10.4555  -16.2249   26.5251 C   0  0  2  0  0  0  0  0  0  0  0  0
   10.1364  -16.2653   25.0743 N   0  0  0  0  0  0  0  0  0  0  0  0
   10.1561  -17.5282   27.1108 C   0  0  0  0  0  0  0  0  0  0  0  0
    9.4554  -18.4841   26.3784 O   0  0  0  0  0  0  0  0  0  0  0  0
   10.5034  -17.8347   28.2580 O   0  0  0  0  0  0  0  0  0  0  0  0
  2  3  1  0
  2  1  1  1
  4  5  1  0
  4  3  1  0
  5  6  2  0
  7  2  1  0
  8  7  2  0
  9  5  1  0
 11 10  1  0
 11 21  2  0
 12 11  1  0
 13 12  2  0
 13 14  1  0
 14 20  2  0
 15 14  1  0
 16 15  1  1
 16 17  1  0
 17  7  1  0
 18 16  1  0
 18 19  2  0
 20 21  1  0
 23 22  1  6
 23 25  1  0
 24 23  1  0
 26 25  1  1
 26 27  1  0
 27 18  1  0
 28 29  1  0
 28 26  1  0
 30 28  2  0
M  END
$$$$
