EYL.pdb
     RDKit          3D

 30 30  0  0  1  0  0  0  0  0999 V2000
    6.4874  -17.0711   19.3133 N   0  0  0  0  0  0  0  0  0  0  0  0
    7.5709  -16.3326   19.9722 C   0  0  1  0  0  0  0  0  0  0  0  0
    7.5988  -14.8985   19.4762 C   0  0  0  0  0  0  0  0  0  0  0  0
    7.6440  -14.7770   17.9901 C   0  0  0  0  0  0  0  0  0  0  0  0
    8.8995  -15.4734   17.5348 C   0  0  0  0  0  0  0  0  0  0  0  0
    8.8844  -16.6391   17.0724 O   0  0  0  0  0  0  0  0  0  0  0  0
    7.4111  -16.4508   21.4242 C   0  0  0  0  0  0  0  0  0  0  0  0
    6.4907  -15.8902   22.0764 O   0  0  0  0  0  0  0  0  0  0  0  0
   10.1133  -14.8192   17.6235 O   0  0  0  0  0  0  0  0  0  0  0  0
    8.2437  -19.4036   29.6619 O   0  0  0  0  0  0  0  0  0  0  0  0
    8.3215  -19.2452   28.2867 C   0  0  0  0  0  0  0  0  0  0  0  0
    7.2013  -19.3089   27.4978 C   0  0  0  0  0  0  0  0  0  0  0  0
    7.3024  -19.1487   26.1359 C   0  0  0  0  0  0  0  0  0  0  0  0
    8.5437  -18.9188   25.5317 C   0  0  0  0  0  0  0  0  0  0  0  0
    8.6423  -18.7747   24.0723 C   0  0  0  0  0  0  0  0  0  0  0  0
    8.1373  -17.4331   23.6475 C   0  0  2  0  0  0  0  0  0  0  0  0
    8.3356  -17.2439   22.1961 N   0  0  0  0  0  0  0  0  0  0  0  0
    8.8832  -16.3518   24.3235 C   0  0  0  0  0  0  0  0  0  0  0  0
   10.0747  -16.0368   24.0051 O   0  0  0  0  0  0  0  0  0  0  0  0
    9.6563  -18.8578   26.3331 C   0  0  0  0  0  0  0  0  0  0  0  0
    9.5693  -19.0187   27.7207 C   0  0  0  0  0  0  0  0  0  0  0  0
    6.9563  -12.1541   27.5151 C   0  0  0  0  0  0  0  0  0  0  0  0
    6.8321  -13.2397   26.3807 C   0  0  1  0  0  0  0  0  0  0  0  0
    5.7142  -12.7144   25.5330 C   0  0  0  0  0  0  0  0  0  0  0  0
    8.1765  -13.2846   25.7843 C   0  0  0  0  0  0  0  0  0  0  0  0
    9.0454  -14.4618   25.9642 C   0  0  2  0  0  0  0  0  0  0  0  0
    8.3118  -15.6062   25.3639 N   0  0  0  0  0  0  0  0  0  0  0  0
    9.3635  -14.7812   27.3528 C   0  0  0  0  0  0  0  0  0  0  0  0
   10.3140  -14.0348   28.0461 O   0  0  0  0  0  0  0  0  0  0  0  0
    8.8153  -15.7082   27.9618 O   0  0  0  0  0  0  0  0  0  0  0  0
  2  3  1  0
  2  1  1  6
  4  5  1  0
  4  3  1  0
  5  6  2  0
  7  2  1  0
  8  7  2  0
  9  5  1  0
 11 10  1  0
 11 21  2  0
 12 11  1  0
 13 12  2  0
 13 14  1  0
 14 20  2  0
 15 14  1  0
 16 15  1  1
 16 17  1  0
 17  7  1  0
 18 16  1  0
 18 19  2  0
 20 21  1  0
 23 22  1  1
 23 25  1  0
 24 23  1  0
 26 25  1  1
 26 27  1  0
 27 18  1  0
 28 29  1  0
 28 26  1  0
 30 28  2  0
M  END
$$$$
