EYL.pdb
     RDKit          3D

 30 30  0  0  1  0  0  0  0  0999 V2000
   12.2467  -17.3805   24.1074 N   0  0  0  0  0  0  0  0  0  0  0  0
   11.3675  -17.7221   22.9831 C   0  0  1  0  0  0  0  0  0  0  0  0
   11.9799  -18.8459   22.1674 C   0  0  0  0  0  0  0  0  0  0  0  0
   13.2848  -18.4900   21.5380 C   0  0  0  0  0  0  0  0  0  0  0  0
   13.7322  -19.6952   20.7532 C   0  0  0  0  0  0  0  0  0  0  0  0
   14.3486  -20.6474   21.2885 O   0  0  0  0  0  0  0  0  0  0  0  0
   10.0321  -18.0308   23.5020 C   0  0  0  0  0  0  0  0  0  0  0  0
    9.1359  -18.6093   22.8320 O   0  0  0  0  0  0  0  0  0  0  0  0
   13.4620  -19.7675   19.4002 O   0  0  0  0  0  0  0  0  0  0  0  0
   11.6585  -14.1993   29.2444 O   0  0  0  0  0  0  0  0  0  0  0  0
   10.8251  -15.1344   28.6499 C   0  0  0  0  0  0  0  0  0  0  0  0
    9.5075  -14.8529   28.3929 C   0  0  0  0  0  0  0  0  0  0  0  0
    8.6995  -15.7958   27.8023 C   0  0  0  0  0  0  0  0  0  0  0  0
    9.2033  -17.0541   27.4540 C   0  0  0  0  0  0  0  0  0  0  0  0
    8.3232  -18.0626   26.8466 C   0  0  0  0  0  0  0  0  0  0  0  0
    8.3083  -17.9110   25.3593 C   0  0  2  0  0  0  0  0  0  0  0  0
    9.6748  -17.6716   24.8521 N   0  0  0  0  0  0  0  0  0  0  0  0
    7.4949  -16.7451   24.9573 C   0  0  0  0  0  0  0  0  0  0  0  0
    6.2452  -16.6681   25.1866 O   0  0  0  0  0  0  0  0  0  0  0  0
   10.5233  -17.3223   27.7172 C   0  0  0  0  0  0  0  0  0  0  0  0
   11.3581  -16.3729   28.3176 C   0  0  0  0  0  0  0  0  0  0  0  0
    6.2144  -13.4992   26.5610 C   0  0  0  0  0  0  0  0  0  0  0  0
    6.6844  -12.5403   25.4032 C   0  0  1  0  0  0  0  0  0  0  0  0
    7.2045  -11.3470   26.1448 C   0  0  0  0  0  0  0  0  0  0  0  0
    7.6536  -13.3475   24.6457 C   0  0  0  0  0  0  0  0  0  0  0  0
    7.2147  -14.5105   23.8533 C   0  0  2  0  0  0  0  0  0  0  0  0
    8.0628  -15.6483   24.2942 N   0  0  0  0  0  0  0  0  0  0  0  0
    7.3503  -14.3530   22.4083 C   0  0  0  0  0  0  0  0  0  0  0  0
    6.4655  -13.5395   21.7035 O   0  0  0  0  0  0  0  0  0  0  0  0
    8.2371  -14.9221   21.7600 O   0  0  0  0  0  0  0  0  0  0  0  0
  2  3  1  0
  2  1  1  1
  4  5  1  0
  4  3  1  0
  5  6  2  0
  7  2  1  0
  8  7  2  0
  9  5  1  0
 11 10  1  0
 11 21  2  0
 12 11  1  0
 13 12  2  0
 13 14  1  0
 14 20  2  0
 15 14  1  0
 16 15  1  1
 16 17  1  0
 17  7  1  0
 18 16  1  0
 18 19  2  0
 20 21  1  0
 23 22  1  1
 23 25  1  0
 24 23  1  0
 26 25  1  1
 26 27  1  0
 27 18  1  0
 28 29  1  0
 28 26  1  0
 30 28  2  0
M  END
$$$$
