EYL.pdb
     RDKit          3D

 30 30  0  0  1  0  0  0  0  0999 V2000
    8.4376  -18.5919   19.6652 N   0  0  0  0  0  0  0  0  0  0  0  0
    9.6928  -18.3650   20.3909 C   0  0  1  0  0  0  0  0  0  0  0  0
   10.8755  -18.5944   19.4678 C   0  0  0  0  0  0  0  0  0  0  0  0
   10.5307  -18.5177   18.0184 C   0  0  0  0  0  0  0  0  0  0  0  0
   11.8101  -18.7379   17.2547 C   0  0  0  0  0  0  0  0  0  0  0  0
   12.0864  -19.8389   16.7215 O   0  0  0  0  0  0  0  0  0  0  0  0
    9.6612  -17.0263   20.9865 C   0  0  0  0  0  0  0  0  0  0  0  0
    9.3100  -15.9896   20.3631 O   0  0  0  0  0  0  0  0  0  0  0  0
   12.7171  -17.7032   17.1297 O   0  0  0  0  0  0  0  0  0  0  0  0
    5.8961  -11.7308   26.4994 O   0  0  0  0  0  0  0  0  0  0  0  0
    6.4303  -12.7342   25.7056 C   0  0  0  0  0  0  0  0  0  0  0  0
    7.2899  -12.4464   24.6762 C   0  0  0  0  0  0  0  0  0  0  0  0
    7.8077  -13.4579   23.9020 C   0  0  0  0  0  0  0  0  0  0  0  0
    7.4694  -14.7934   24.1481 C   0  0  0  0  0  0  0  0  0  0  0  0
    8.0093  -15.8636   23.2974 C   0  0  0  0  0  0  0  0  0  0  0  0
    9.4895  -15.7134   23.1503 C   0  0  2  0  0  0  0  0  0  0  0  0
   10.0452  -16.8327   22.3629 N   0  0  0  0  0  0  0  0  0  0  0  0
   10.1556  -15.7484   24.4685 C   0  0  0  0  0  0  0  0  0  0  0  0
   10.9645  -14.8440   24.8531 O   0  0  0  0  0  0  0  0  0  0  0  0
    6.6081  -15.0669   25.1811 C   0  0  0  0  0  0  0  0  0  0  0  0
    6.0731  -14.0483   25.9779 C   0  0  0  0  0  0  0  0  0  0  0  0
   11.6067  -14.5206   28.5654 C   0  0  0  0  0  0  0  0  0  0  0  0
   10.1101  -14.9970   28.6838 C   0  0  1  0  0  0  0  0  0  0  0  0
    9.4054  -13.7722   29.1814 C   0  0  0  0  0  0  0  0  0  0  0  0
    9.7805  -15.4701   27.3301 C   0  0  0  0  0  0  0  0  0  0  0  0
   10.4049  -16.6873   26.7808 C   0  0  2  0  0  0  0  0  0  0  0  0
    9.9296  -16.7919   25.3768 N   0  0  0  0  0  0  0  0  0  0  0  0
   10.0676  -17.9200   27.4865 C   0  0  0  0  0  0  0  0  0  0  0  0
    8.9439  -18.6565   27.1176 O   0  0  0  0  0  0  0  0  0  0  0  0
   10.7494  -18.3555   28.4225 O   0  0  0  0  0  0  0  0  0  0  0  0
  2  3  1  0
  2  1  1  6
  4  5  1  0
  4  3  1  0
  5  6  2  0
  7  2  1  0
  8  7  2  0
  9  5  1  0
 11 10  1  0
 11 21  2  0
 12 11  1  0
 13 12  2  0
 13 14  1  0
 14 20  2  0
 15 14  1  0
 16 15  1  1
 16 17  1  0
 17  7  1  0
 18 16  1  0
 18 19  2  0
 20 21  1  0
 23 22  1  6
 23 25  1  0
 24 23  1  0
 26 25  1  1
 26 27  1  0
 27 18  1  0
 28 29  1  0
 28 26  1  0
 30 28  2  0
M  END
$$$$
