EYL.pdb
     RDKit          3D

 30 30  0  0  1  0  0  0  0  0999 V2000
   10.1940  -16.5776   20.0557 N   0  0  0  0  0  0  0  0  0  0  0  0
    8.8070  -16.5050   20.5298 C   0  0  1  0  0  0  0  0  0  0  0  0
    7.9523  -17.5199   19.7929 C   0  0  0  0  0  0  0  0  0  0  0  0
    8.4906  -17.9009   18.4549 C   0  0  0  0  0  0  0  0  0  0  0  0
    7.3227  -18.3910   17.6397 C   0  0  0  0  0  0  0  0  0  0  0  0
    6.6047  -19.3489   18.0135 O   0  0  0  0  0  0  0  0  0  0  0  0
    8.7941  -16.6703   21.9860 C   0  0  0  0  0  0  0  0  0  0  0  0
    7.7456  -16.6582   22.6839 O   0  0  0  0  0  0  0  0  0  0  0  0
    7.0213  -17.7751   16.4402 O   0  0  0  0  0  0  0  0  0  0  0  0
   11.0951  -18.7708   30.1443 O   0  0  0  0  0  0  0  0  0  0  0  0
   11.1466  -18.5370   28.7786 C   0  0  0  0  0  0  0  0  0  0  0  0
   11.9620  -17.5678   28.2521 C   0  0  0  0  0  0  0  0  0  0  0  0
   11.9968  -17.3535   26.8943 C   0  0  0  0  0  0  0  0  0  0  0  0
   11.2053  -18.1161   26.0281 C   0  0  0  0  0  0  0  0  0  0  0  0
   11.2322  -17.8603   24.5809 C   0  0  0  0  0  0  0  0  0  0  0  0
   10.0198  -17.0895   24.1671 C   0  0  2  0  0  0  0  0  0  0  0  0
   10.0279  -16.8609   22.7078 N   0  0  0  0  0  0  0  0  0  0  0  0
    9.9994  -15.7577   24.8063 C   0  0  0  0  0  0  0  0  0  0  0  0
   10.8870  -14.8738   24.5796 O   0  0  0  0  0  0  0  0  0  0  0  0
   10.3939  -19.0822   26.5685 C   0  0  0  0  0  0  0  0  0  0  0  0
   10.3477  -19.3121   27.9483 C   0  0  0  0  0  0  0  0  0  0  0  0
    5.6916  -12.4882   25.7857 C   0  0  0  0  0  0  0  0  0  0  0  0
    7.1447  -12.8863   25.3264 C   0  0  1  0  0  0  0  0  0  0  0  0
    7.7442  -11.5721   24.9295 C   0  0  0  0  0  0  0  0  0  0  0  0
    7.7131  -13.5680   26.4999 C   0  0  0  0  0  0  0  0  0  0  0  0
    9.0804  -14.1182   26.4670 C   0  0  2  0  0  0  0  0  0  0  0  0
    8.9896  -15.3920   25.7071 N   0  0  0  0  0  0  0  0  0  0  0  0
    9.6620  -14.3911   27.7780 C   0  0  0  0  0  0  0  0  0  0  0  0
   10.2832  -13.3725   28.4976 O   0  0  0  0  0  0  0  0  0  0  0  0
    9.6297  -15.5140   28.2964 O   0  0  0  0  0  0  0  0  0  0  0  0
  2  3  1  0
  2  1  1  6
  4  5  1  0
  4  3  1  0
  5  6  2  0
  7  2  1  0
  8  7  2  0
  9  5  1  0
 11 10  1  0
 11 21  2  0
 12 11  1  0
 13 12  2  0
 13 14  1  0
 14 20  2  0
 15 14  1  0
 16 15  1  1
 16 17  1  0
 17  7  1  0
 18 16  1  0
 18 19  2  0
 20 21  1  0
 23 22  1  1
 23 25  1  0
 24 23  1  0
 26 25  1  1
 26 27  1  0
 27 18  1  0
 28 29  1  0
 28 26  1  0
 30 28  2  0
M  END
$$$$
