EYL.pdb
     RDKit          3D

 30 30  0  0  1  0  0  0  0  0999 V2000
   10.9328  -16.8222   18.7651 N   0  0  0  0  0  0  0  0  0  0  0  0
   11.1274  -17.4807   20.0621 C   0  0  1  0  0  0  0  0  0  0  0  0
   12.5721  -17.9217   20.2093 C   0  0  0  0  0  0  0  0  0  0  0  0
   12.8762  -19.2189   19.5383 C   0  0  0  0  0  0  0  0  0  0  0  0
   14.3049  -19.5577   19.8739 C   0  0  0  0  0  0  0  0  0  0  0  0
   15.2092  -19.5663   19.0049 O   0  0  0  0  0  0  0  0  0  0  0  0
   10.6756  -16.5782   21.1248 C   0  0  0  0  0  0  0  0  0  0  0  0
   11.0443  -15.3783   21.2297 O   0  0  0  0  0  0  0  0  0  0  0  0
   14.6443  -19.8710   21.1760 O   0  0  0  0  0  0  0  0  0  0  0  0
    5.9420  -12.3440   26.9760 O   0  0  0  0  0  0  0  0  0  0  0  0
    6.3774  -13.2822   26.0526 C   0  0  0  0  0  0  0  0  0  0  0  0
    6.1275  -14.6199   26.2245 C   0  0  0  0  0  0  0  0  0  0  0  0
    6.5688  -15.5325   25.2955 C   0  0  0  0  0  0  0  0  0  0  0  0
    7.2776  -15.1163   24.1629 C   0  0  0  0  0  0  0  0  0  0  0  0
    7.7664  -16.1039   23.1901 C   0  0  0  0  0  0  0  0  0  0  0  0
    9.2612  -16.1296   23.1824 C   0  0  2  0  0  0  0  0  0  0  0  0
    9.7554  -17.0438   22.1328 N   0  0  0  0  0  0  0  0  0  0  0  0
    9.7855  -16.6346   24.4680 C   0  0  0  0  0  0  0  0  0  0  0  0
   10.4387  -17.7230   24.5628 O   0  0  0  0  0  0  0  0  0  0  0  0
    7.5209  -13.7750   24.0038 C   0  0  0  0  0  0  0  0  0  0  0  0
    7.0780  -12.8341   24.9405 C   0  0  0  0  0  0  0  0  0  0  0  0
    9.1512  -13.3324   28.9258 C   0  0  0  0  0  0  0  0  0  0  0  0
    9.8149  -13.9765   27.6509 C   0  0  1  0  0  0  0  0  0  0  0  0
   11.1255  -13.2574   27.5540 C   0  0  0  0  0  0  0  0  0  0  0  0
    9.8481  -15.4153   27.9571 C   0  0  0  0  0  0  0  0  0  0  0  0
   10.2237  -16.4000   26.9263 C   0  0  2  0  0  0  0  0  0  0  0  0
    9.5893  -15.9338   25.6660 N   0  0  0  0  0  0  0  0  0  0  0  0
    9.7868  -17.7665   27.1973 C   0  0  0  0  0  0  0  0  0  0  0  0
    8.7498  -18.3327   26.4589 O   0  0  0  0  0  0  0  0  0  0  0  0
   10.3066  -18.4665   28.0750 O   0  0  0  0  0  0  0  0  0  0  0  0
  2  3  1  0
  2  1  1  6
  4  5  1  0
  4  3  1  0
  5  6  2  0
  7  2  1  0
  8  7  2  0
  9  5  1  0
 11 10  1  0
 11 21  2  0
 12 11  1  0
 13 12  2  0
 13 14  1  0
 14 20  2  0
 15 14  1  0
 16 15  1  1
 16 17  1  0
 17  7  1  0
 18 16  1  0
 18 19  2  0
 20 21  1  0
 23 22  1  1
 23 25  1  0
 24 23  1  0
 26 25  1  1
 26 27  1  0
 27 18  1  0
 28 29  1  0
 28 26  1  0
 30 28  2  0
M  END
$$$$
