EYL.pdb
     RDKit          3D

 30 30  0  0  1  0  0  0  0  0999 V2000
    9.6702  -19.4188   22.1835 N   0  0  0  0  0  0  0  0  0  0  0  0
    9.4331  -18.1590   21.4690 C   0  0  1  0  0  0  0  0  0  0  0  0
    9.2341  -18.4306   19.9891 C   0  0  0  0  0  0  0  0  0  0  0  0
   10.3020  -19.2788   19.3846 C   0  0  0  0  0  0  0  0  0  0  0  0
    9.9431  -19.4612   17.9332 C   0  0  0  0  0  0  0  0  0  0  0  0
   10.7373  -19.1662   17.0084 O   0  0  0  0  0  0  0  0  0  0  0  0
    8.3069  -17.4623   22.0968 C   0  0  0  0  0  0  0  0  0  0  0  0
    7.7688  -16.4277   21.6204 O   0  0  0  0  0  0  0  0  0  0  0  0
    8.7032  -19.9685   17.5952 O   0  0  0  0  0  0  0  0  0  0  0  0
    9.9874  -20.0941   28.4903 O   0  0  0  0  0  0  0  0  0  0  0  0
    9.0052  -19.5959   27.6480 C   0  0  0  0  0  0  0  0  0  0  0  0
    8.2311  -18.5238   28.0123 C   0  0  0  0  0  0  0  0  0  0  0  0
    7.2628  -18.0466   27.1605 C   0  0  0  0  0  0  0  0  0  0  0  0
    7.0497  -18.6424   25.9123 C   0  0  0  0  0  0  0  0  0  0  0  0
    5.9944  -18.1394   25.0214 C   0  0  0  0  0  0  0  0  0  0  0  0
    6.5850  -17.2792   23.9506 C   0  0  2  0  0  0  0  0  0  0  0  0
    7.7466  -17.9503   23.3326 N   0  0  0  0  0  0  0  0  0  0  0  0
    7.0788  -16.0049   24.5119 C   0  0  0  0  0  0  0  0  0  0  0  0
    6.4642  -14.9014   24.3543 O   0  0  0  0  0  0  0  0  0  0  0  0
    7.8314  -19.7145   25.5609 C   0  0  0  0  0  0  0  0  0  0  0  0
    8.8208  -20.2114   26.4169 C   0  0  0  0  0  0  0  0  0  0  0  0
    6.0175  -12.4751   26.9487 C   0  0  0  0  0  0  0  0  0  0  0  0
    6.7333  -13.2235   25.7619 C   0  0  1  0  0  0  0  0  0  0  0  0
    7.0591  -12.1126   24.8112 C   0  0  0  0  0  0  0  0  0  0  0  0
    7.8574  -13.9191   26.4081 C   0  0  0  0  0  0  0  0  0  0  0  0
    8.8690  -14.6305   25.6058 C   0  0  2  0  0  0  0  0  0  0  0  0
    8.2646  -15.9424   25.2570 N   0  0  0  0  0  0  0  0  0  0  0  0
   10.1388  -14.8623   26.2879 C   0  0  0  0  0  0  0  0  0  0  0  0
   10.9896  -13.7960   26.5716 O   0  0  0  0  0  0  0  0  0  0  0  0
   10.5074  -15.9907   26.6364 O   0  0  0  0  0  0  0  0  0  0  0  0
  2  3  1  0
  2  1  1  1
  4  5  1  0
  4  3  1  0
  5  6  2  0
  7  2  1  0
  8  7  2  0
  9  5  1  0
 11 10  1  0
 11 21  2  0
 12 11  1  0
 13 12  2  0
 13 14  1  0
 14 20  2  0
 15 14  1  0
 16 15  1  1
 16 17  1  0
 17  7  1  0
 18 16  1  0
 18 19  2  0
 20 21  1  0
 23 22  1  1
 23 25  1  0
 24 23  1  0
 26 25  1  1
 26 27  1  0
 27 18  1  0
 28 29  1  0
 28 26  1  0
 30 28  2  0
M  END
$$$$
