EYL.pdb
     RDKit          3D

 30 30  0  0  1  0  0  0  0  0999 V2000
    9.7465  -17.3964   19.3372 N   0  0  0  0  0  0  0  0  0  0  0  0
    8.3422  -16.9755   19.2696 C   0  0  1  0  0  0  0  0  0  0  0  0
    7.5533  -17.9359   18.3986 C   0  0  0  0  0  0  0  0  0  0  0  0
    7.3495  -19.2786   19.0160 C   0  0  0  0  0  0  0  0  0  0  0  0
    6.4519  -20.0528   18.0868 C   0  0  0  0  0  0  0  0  0  0  0  0
    5.4491  -19.5325   17.5422 O   0  0  0  0  0  0  0  0  0  0  0  0
    7.8183  -16.8501   20.6325 C   0  0  0  0  0  0  0  0  0  0  0  0
    6.6822  -16.3802   20.9067 O   0  0  0  0  0  0  0  0  0  0  0  0
    6.7300  -21.3790   17.8168 O   0  0  0  0  0  0  0  0  0  0  0  0
    5.2913  -22.9321   22.5580 O   0  0  0  0  0  0  0  0  0  0  0  0
    6.0715  -21.8371   22.8969 C   0  0  0  0  0  0  0  0  0  0  0  0
    5.5974  -20.8548   23.7285 C   0  0  0  0  0  0  0  0  0  0  0  0
    6.3891  -19.7778   24.0510 C   0  0  0  0  0  0  0  0  0  0  0  0
    7.6868  -19.6638   23.5397 C   0  0  0  0  0  0  0  0  0  0  0  0
    8.5141  -18.4950   23.8713 C   0  0  0  0  0  0  0  0  0  0  0  0
    8.0389  -17.2925   23.1207 C   0  0  2  0  0  0  0  0  0  0  0  0
    8.6115  -17.2755   21.7592 N   0  0  0  0  0  0  0  0  0  0  0  0
    8.4819  -16.0490   23.7842 C   0  0  0  0  0  0  0  0  0  0  0  0
    9.5565  -15.4460   23.4650 O   0  0  0  0  0  0  0  0  0  0  0  0
    8.1482  -20.6539   22.7086 C   0  0  0  0  0  0  0  0  0  0  0  0
    7.3543  -21.7561   22.3713 C   0  0  0  0  0  0  0  0  0  0  0  0
    5.6665  -11.7177   26.5199 C   0  0  0  0  0  0  0  0  0  0  0  0
    7.1129  -11.9167   25.9290 C   0  0  1  0  0  0  0  0  0  0  0  0
    7.9932  -11.7454   27.1290 C   0  0  0  0  0  0  0  0  0  0  0  0
    7.0612  -13.2488   25.3063 C   0  0  0  0  0  0  0  0  0  0  0  0
    8.1848  -14.1931   25.4448 C   0  0  2  0  0  0  0  0  0  0  0  0
    7.7335  -15.4600   24.8127 N   0  0  0  0  0  0  0  0  0  0  0  0
    8.5861  -14.4691   26.8211 C   0  0  0  0  0  0  0  0  0  0  0  0
    7.8071  -15.2951   27.6286 O   0  0  0  0  0  0  0  0  0  0  0  0
    9.6129  -13.9923   27.3201 O   0  0  0  0  0  0  0  0  0  0  0  0
  2  3  1  0
  2  1  1  1
  4  5  1  0
  4  3  1  0
  5  6  2  0
  7  2  1  0
  8  7  2  0
  9  5  1  0
 11 10  1  0
 11 21  2  0
 12 11  1  0
 13 12  2  0
 13 14  1  0
 14 20  2  0
 15 14  1  0
 16 15  1  1
 16 17  1  0
 17  7  1  0
 18 16  1  0
 18 19  2  0
 20 21  1  0
 23 22  1  1
 23 25  1  0
 24 23  1  0
 26 25  1  1
 26 27  1  0
 27 18  1  0
 28 29  1  0
 28 26  1  0
 30 28  2  0
M  END
$$$$
