EYL.pdb
     RDKit          3D

 30 30  0  0  1  0  0  0  0  0999 V2000
   11.1612  -18.8835   20.3086 N   0  0  0  0  0  0  0  0  0  0  0  0
   12.1381  -17.7885   20.3283 C   0  0  1  0  0  0  0  0  0  0  0  0
   12.4236  -17.3213   18.9128 C   0  0  0  0  0  0  0  0  0  0  0  0
   13.0407  -18.3678   18.0471 C   0  0  0  0  0  0  0  0  0  0  0  0
   13.3786  -17.7052   16.7374 C   0  0  0  0  0  0  0  0  0  0  0  0
   12.9889  -18.1657   15.6379 O   0  0  0  0  0  0  0  0  0  0  0  0
   11.6440  -16.7277   21.2105 C   0  0  0  0  0  0  0  0  0  0  0  0
   12.2634  -15.6530   21.4301 O   0  0  0  0  0  0  0  0  0  0  0  0
   14.1411  -16.5531   16.7321 O   0  0  0  0  0  0  0  0  0  0  0  0
    7.3626  -13.3241   17.4858 O   0  0  0  0  0  0  0  0  0  0  0  0
    7.6149  -13.9063   18.7186 C   0  0  0  0  0  0  0  0  0  0  0  0
    7.3526  -15.2331   18.9468 C   0  0  0  0  0  0  0  0  0  0  0  0
    7.6110  -15.7891   20.1776 C   0  0  0  0  0  0  0  0  0  0  0  0
    8.1438  -15.0161   21.2154 C   0  0  0  0  0  0  0  0  0  0  0  0
    8.3916  -15.6158   22.5343 C   0  0  0  0  0  0  0  0  0  0  0  0
    9.8592  -15.7976   22.7547 C   0  0  2  0  0  0  0  0  0  0  0  0
   10.3805  -16.8754   21.8896 N   0  0  0  0  0  0  0  0  0  0  0  0
   10.1360  -16.1998   24.1491 C   0  0  0  0  0  0  0  0  0  0  0  0
   10.5414  -17.3658   24.4596 O   0  0  0  0  0  0  0  0  0  0  0  0
    8.4010  -13.6899   20.9732 C   0  0  0  0  0  0  0  0  0  0  0  0
    8.1435  -13.1097   19.7258 C   0  0  0  0  0  0  0  0  0  0  0  0
   11.7328  -14.6460   29.1698 C   0  0  0  0  0  0  0  0  0  0  0  0
   10.1792  -14.6110   28.9125 C   0  0  1  0  0  0  0  0  0  0  0  0
    9.7332  -13.4220   29.7072 C   0  0  0  0  0  0  0  0  0  0  0  0
   10.0643  -14.5336   27.4476 C   0  0  0  0  0  0  0  0  0  0  0  0
   10.2865  -15.7241   26.6070 C   0  0  2  0  0  0  0  0  0  0  0  0
    9.9651  -15.3081   25.2171 N   0  0  0  0  0  0  0  0  0  0  0  0
    9.4666  -16.8808   26.9551 C   0  0  0  0  0  0  0  0  0  0  0  0
    8.1412  -16.9562   26.5323 O   0  0  0  0  0  0  0  0  0  0  0  0
    9.9027  -17.8243   27.6262 O   0  0  0  0  0  0  0  0  0  0  0  0
  2  3  1  0
  2  1  1  6
  4  5  1  0
  4  3  1  0
  5  6  2  0
  7  2  1  0
  8  7  2  0
  9  5  1  0
 11 10  1  0
 11 21  2  0
 12 11  1  0
 13 12  2  0
 13 14  1  0
 14 20  2  0
 15 14  1  0
 16 15  1  1
 16 17  1  0
 17  7  1  0
 18 16  1  0
 18 19  2  0
 20 21  1  0
 23 22  1  6
 23 25  1  0
 24 23  1  0
 26 25  1  1
 26 27  1  0
 27 18  1  0
 28 29  1  0
 28 26  1  0
 30 28  2  0
M  END
$$$$
