EYL.pdb
     RDKit          3D

 30 30  0  0  1  0  0  0  0  0999 V2000
    9.9093  -19.4049   21.2200 N   0  0  0  0  0  0  0  0  0  0  0  0
   10.9878  -18.4240   21.0509 C   0  0  1  0  0  0  0  0  0  0  0  0
   11.2867  -18.2297   19.5757 C   0  0  0  0  0  0  0  0  0  0  0  0
   10.0698  -18.2091   18.7132 C   0  0  0  0  0  0  0  0  0  0  0  0
   10.5403  -17.9683   17.3028 C   0  0  0  0  0  0  0  0  0  0  0  0
   10.1241  -18.6504   16.3361 O   0  0  0  0  0  0  0  0  0  0  0  0
   10.6175  -17.1875   21.7449 C   0  0  0  0  0  0  0  0  0  0  0  0
   11.3680  -16.1794   21.8302 O   0  0  0  0  0  0  0  0  0  0  0  0
   11.4594  -16.9678   17.0513 O   0  0  0  0  0  0  0  0  0  0  0  0
    6.1246  -11.1915   26.3043 O   0  0  0  0  0  0  0  0  0  0  0  0
    6.4463  -12.3471   25.6091 C   0  0  0  0  0  0  0  0  0  0  0  0
    5.9508  -13.5683   25.9892 C   0  0  0  0  0  0  0  0  0  0  0  0
    6.2833  -14.7013   25.2845 C   0  0  0  0  0  0  0  0  0  0  0  0
    7.1292  -14.6305   24.1718 C   0  0  0  0  0  0  0  0  0  0  0  0
    7.4979  -15.8520   23.4422 C   0  0  0  0  0  0  0  0  0  0  0  0
    8.9509  -15.8288   23.0910 C   0  0  2  0  0  0  0  0  0  0  0  0
    9.3299  -17.0686   22.3833 N   0  0  0  0  0  0  0  0  0  0  0  0
    9.7855  -15.7615   24.3082 C   0  0  0  0  0  0  0  0  0  0  0  0
   10.4883  -14.7420   24.6032 O   0  0  0  0  0  0  0  0  0  0  0  0
    7.6180  -13.4022   23.8029 C   0  0  0  0  0  0  0  0  0  0  0  0
    7.2885  -12.2402   24.5100 C   0  0  0  0  0  0  0  0  0  0  0  0
   11.1084  -14.1236   28.4634 C   0  0  0  0  0  0  0  0  0  0  0  0
   10.0435  -15.2707   28.6390 C   0  0  1  0  0  0  0  0  0  0  0  0
    8.9744  -14.6149   29.4583 C   0  0  0  0  0  0  0  0  0  0  0  0
    9.7055  -15.6548   27.2595 C   0  0  0  0  0  0  0  0  0  0  0  0
   10.5049  -16.6605   26.5364 C   0  0  2  0  0  0  0  0  0  0  0  0
    9.8487  -16.8296   25.2139 N   0  0  0  0  0  0  0  0  0  0  0  0
   10.5886  -17.9623   27.1917 C   0  0  0  0  0  0  0  0  0  0  0  0
    9.5039  -18.8363   27.1606 O   0  0  0  0  0  0  0  0  0  0  0  0
   11.6037  -18.3388   27.7905 O   0  0  0  0  0  0  0  0  0  0  0  0
  2  3  1  0
  2  1  1  6
  4  5  1  0
  4  3  1  0
  5  6  2  0
  7  2  1  0
  8  7  2  0
  9  5  1  0
 11 10  1  0
 11 21  2  0
 12 11  1  0
 13 12  2  0
 13 14  1  0
 14 20  2  0
 15 14  1  0
 16 15  1  1
 16 17  1  0
 17  7  1  0
 18 16  1  0
 18 19  2  0
 20 21  1  0
 23 22  1  6
 23 25  1  0
 24 23  1  0
 26 25  1  1
 26 27  1  0
 27 18  1  0
 28 29  1  0
 28 26  1  0
 30 28  2  0
M  END
$$$$
