EYL.pdb
     RDKit          3D

 30 30  0  0  1  0  0  0  0  0999 V2000
    7.5803  -19.0842   19.3762 N   0  0  0  0  0  0  0  0  0  0  0  0
    8.2239  -17.8661   19.8820 C   0  0  1  0  0  0  0  0  0  0  0  0
    7.9207  -16.6978   18.9618 C   0  0  0  0  0  0  0  0  0  0  0  0
    9.1127  -16.1893   18.2229 C   0  0  0  0  0  0  0  0  0  0  0  0
    9.0520  -16.7817   16.8394 C   0  0  0  0  0  0  0  0  0  0  0  0
    8.2496  -16.3642   15.9706 O   0  0  0  0  0  0  0  0  0  0  0  0
    7.8035  -17.6482   21.2689 C   0  0  0  0  0  0  0  0  0  0  0  0
    6.6305  -17.3357   21.6053 O   0  0  0  0  0  0  0  0  0  0  0  0
    9.9012  -17.8183   16.5029 O   0  0  0  0  0  0  0  0  0  0  0  0
    5.2419  -23.1027   22.8448 O   0  0  0  0  0  0  0  0  0  0  0  0
    6.0698  -22.0752   23.2704 C   0  0  0  0  0  0  0  0  0  0  0  0
    5.7175  -21.2646   24.3193 C   0  0  0  0  0  0  0  0  0  0  0  0
    6.5546  -20.2517   24.7243 C   0  0  0  0  0  0  0  0  0  0  0  0
    7.7756  -20.0295   24.0776 C   0  0  0  0  0  0  0  0  0  0  0  0
    8.6500  -18.9274   24.5032 C   0  0  0  0  0  0  0  0  0  0  0  0
    8.3135  -17.6783   23.7537 C   0  0  2  0  0  0  0  0  0  0  0  0
    8.7508  -17.7878   22.3471 N   0  0  0  0  0  0  0  0  0  0  0  0
    9.0177  -16.5137   24.3288 C   0  0  0  0  0  0  0  0  0  0  0  0
    9.6976  -15.7040   23.6200 O   0  0  0  0  0  0  0  0  0  0  0  0
    8.1153  -20.8479   23.0295 C   0  0  0  0  0  0  0  0  0  0  0  0
    7.2740  -21.8831   22.6059 C   0  0  0  0  0  0  0  0  0  0  0  0
    6.6127  -12.2087   25.0922 C   0  0  0  0  0  0  0  0  0  0  0  0
    7.8074  -12.6656   26.0114 C   0  0  1  0  0  0  0  0  0  0  0  0
    7.3143  -12.3438   27.3889 C   0  0  0  0  0  0  0  0  0  0  0  0
    7.9957  -14.0841   25.6690 C   0  0  0  0  0  0  0  0  0  0  0  0
    9.1438  -14.8440   26.1960 C   0  0  2  0  0  0  0  0  0  0  0  0
    8.9740  -16.2351   25.7019 N   0  0  0  0  0  0  0  0  0  0  0  0
    9.2445  -14.8692   27.6522 C   0  0  0  0  0  0  0  0  0  0  0  0
   10.2458  -14.1493   28.3005 O   0  0  0  0  0  0  0  0  0  0  0  0
    8.4625  -15.5167   28.3593 O   0  0  0  0  0  0  0  0  0  0  0  0
  2  3  1  0
  2  1  1  6
  4  5  1  0
  4  3  1  0
  5  6  2  0
  7  2  1  0
  8  7  2  0
  9  5  1  0
 11 10  1  0
 11 21  2  0
 12 11  1  0
 13 12  2  0
 13 14  1  0
 14 20  2  0
 15 14  1  0
 16 15  1  1
 16 17  1  0
 17  7  1  0
 18 16  1  0
 18 19  2  0
 20 21  1  0
 23 22  1  6
 23 25  1  0
 24 23  1  0
 26 25  1  1
 26 27  1  0
 27 18  1  0
 28 29  1  0
 28 26  1  0
 30 28  2  0
M  END
$$$$
