EYL.pdb
     RDKit          3D

 30 30  0  0  1  0  0  0  0  0999 V2000
   10.1578  -19.1929   20.1423 N   0  0  0  0  0  0  0  0  0  0  0  0
    9.1689  -18.6102   21.0567 C   0  0  1  0  0  0  0  0  0  0  0  0
    8.9892  -19.5070   22.2679 C   0  0  0  0  0  0  0  0  0  0  0  0
    9.5675  -20.8714   22.0968 C   0  0  0  0  0  0  0  0  0  0  0  0
    9.2502  -21.6389   23.3533 C   0  0  0  0  0  0  0  0  0  0  0  0
    8.1358  -22.1841   23.5373 O   0  0  0  0  0  0  0  0  0  0  0  0
    9.5794  -17.2436   21.3912 C   0  0  0  0  0  0  0  0  0  0  0  0
   10.7513  -16.8069   21.2412 O   0  0  0  0  0  0  0  0  0  0  0  0
   10.2075  -21.7542   24.3429 O   0  0  0  0  0  0  0  0  0  0  0  0
    7.6667  -13.5460   16.3288 O   0  0  0  0  0  0  0  0  0  0  0  0
    7.7522  -13.6260   17.7103 C   0  0  0  0  0  0  0  0  0  0  0  0
    8.5042  -12.7331   18.4304 C   0  0  0  0  0  0  0  0  0  0  0  0
    8.5742  -12.8316   19.8001 C   0  0  0  0  0  0  0  0  0  0  0  0
    7.8832  -13.8395   20.4822 C   0  0  0  0  0  0  0  0  0  0  0  0
    7.9866  -13.9501   21.9442 C   0  0  0  0  0  0  0  0  0  0  0  0
    9.0392  -14.9444   22.3168 C   0  0  2  0  0  0  0  0  0  0  0  0
    8.6226  -16.3065   21.9260 N   0  0  0  0  0  0  0  0  0  0  0  0
    9.2481  -14.9664   23.7792 C   0  0  0  0  0  0  0  0  0  0  0  0
   10.2121  -14.3567   24.3442 O   0  0  0  0  0  0  0  0  0  0  0  0
    7.1349  -14.7263   19.7491 C   0  0  0  0  0  0  0  0  0  0  0  0
    7.0538  -14.6388   18.3546 C   0  0  0  0  0  0  0  0  0  0  0  0
    5.8896  -12.8973   26.7427 C   0  0  0  0  0  0  0  0  0  0  0  0
    7.3521  -13.3070   26.3255 C   0  0  1  0  0  0  0  0  0  0  0  0
    8.2064  -12.4253   27.1840 C   0  0  0  0  0  0  0  0  0  0  0  0
    7.3997  -14.7560   26.5771 C   0  0  0  0  0  0  0  0  0  0  0  0
    8.5365  -15.5687   26.1076 C   0  0  2  0  0  0  0  0  0  0  0  0
    8.3855  -15.6683   24.6327 N   0  0  0  0  0  0  0  0  0  0  0  0
    8.5987  -16.9154   26.6677 C   0  0  0  0  0  0  0  0  0  0  0  0
    8.4297  -18.0275   25.8456 O   0  0  0  0  0  0  0  0  0  0  0  0
    8.7996  -17.1242   27.8705 O   0  0  0  0  0  0  0  0  0  0  0  0
  2  3  1  0
  2  1  1  6
  4  5  1  0
  4  3  1  0
  5  6  2  0
  7  2  1  0
  8  7  2  0
  9  5  1  0
 11 10  1  0
 11 21  2  0
 12 11  1  0
 13 12  2  0
 13 14  1  0
 14 20  2  0
 15 14  1  0
 16 15  1  1
 16 17  1  0
 17  7  1  0
 18 16  1  0
 18 19  2  0
 20 21  1  0
 23 22  1  1
 23 25  1  0
 24 23  1  0
 26 25  1  1
 26 27  1  0
 27 18  1  0
 28 29  1  0
 28 26  1  0
 30 28  2  0
M  END
$$$$
