EYL.pdb
     RDKit          3D

 30 30  0  0  1  0  0  0  0  0999 V2000
    5.3623  -18.6654   19.6535 N   0  0  0  0  0  0  0  0  0  0  0  0
    6.7352  -18.5629   20.1617 C   0  0  1  0  0  0  0  0  0  0  0  0
    7.4966  -17.5001   19.3909 C   0  0  0  0  0  0  0  0  0  0  0  0
    7.3845  -17.6355   17.9095 C   0  0  0  0  0  0  0  0  0  0  0  0
    8.2077  -16.5269   17.3079 C   0  0  0  0  0  0  0  0  0  0  0  0
    9.4593  -16.5084   17.3870 O   0  0  0  0  0  0  0  0  0  0  0  0
    6.6895  -18.3235   21.6068 C   0  0  0  0  0  0  0  0  0  0  0  0
    5.8197  -17.6089   22.1721 O   0  0  0  0  0  0  0  0  0  0  0  0
    7.5776  -15.4913   16.6452 O   0  0  0  0  0  0  0  0  0  0  0  0
    8.1241  -18.8508   30.2133 O   0  0  0  0  0  0  0  0  0  0  0  0
    8.2054  -19.0758   28.8476 C   0  0  0  0  0  0  0  0  0  0  0  0
    9.3567  -18.8136   28.1497 C   0  0  0  0  0  0  0  0  0  0  0  0
    9.4144  -19.0446   26.7955 C   0  0  0  0  0  0  0  0  0  0  0  0
    8.3054  -19.5490   26.1068 C   0  0  0  0  0  0  0  0  0  0  0  0
    8.3712  -19.7676   24.6548 C   0  0  0  0  0  0  0  0  0  0  0  0
    7.6358  -18.6846   23.9326 C   0  0  2  0  0  0  0  0  0  0  0  0
    7.6755  -18.9184   22.4748 N   0  0  0  0  0  0  0  0  0  0  0  0
    8.2678  -17.3705   24.1702 C   0  0  0  0  0  0  0  0  0  0  0  0
    9.2289  -16.9325   23.4598 O   0  0  0  0  0  0  0  0  0  0  0  0
    7.1599  -19.8065   26.8175 C   0  0  0  0  0  0  0  0  0  0  0  0
    7.0859  -19.5767   28.1961 C   0  0  0  0  0  0  0  0  0  0  0  0
    5.7851  -12.2955   25.4618 C   0  0  0  0  0  0  0  0  0  0  0  0
    7.2627  -12.8248   25.5938 C   0  0  1  0  0  0  0  0  0  0  0  0
    7.6604  -12.3739   26.9660 C   0  0  0  0  0  0  0  0  0  0  0  0
    7.1429  -14.2725   25.3603 C   0  0  0  0  0  0  0  0  0  0  0  0
    8.3400  -15.1305   25.2961 C   0  0  2  0  0  0  0  0  0  0  0  0
    7.8376  -16.5259   25.2030 N   0  0  0  0  0  0  0  0  0  0  0  0
    9.2307  -15.0254   26.4480 C   0  0  0  0  0  0  0  0  0  0  0  0
    8.9147  -15.6694   27.6424 O   0  0  0  0  0  0  0  0  0  0  0  0
   10.2822  -14.3743   26.4153 O   0  0  0  0  0  0  0  0  0  0  0  0
  2  3  1  0
  2  1  1  6
  4  5  1  0
  4  3  1  0
  5  6  2  0
  7  2  1  0
  8  7  2  0
  9  5  1  0
 11 10  1  0
 11 21  2  0
 12 11  1  0
 13 12  2  0
 13 14  1  0
 14 20  2  0
 15 14  1  0
 16 15  1  1
 16 17  1  0
 17  7  1  0
 18 16  1  0
 18 19  2  0
 20 21  1  0
 23 22  1  1
 23 25  1  0
 24 23  1  0
 26 25  1  1
 26 27  1  0
 27 18  1  0
 28 29  1  0
 28 26  1  0
 30 28  2  0
M  END
$$$$
