EYL.pdb
     RDKit          3D

 30 30  0  0  1  0  0  0  0  0999 V2000
    9.0668  -18.7355   20.8961 N   0  0  0  0  0  0  0  0  0  0  0  0
   10.4770  -18.4010   21.1270 C   0  0  1  0  0  0  0  0  0  0  0  0
   11.2598  -18.5283   19.8330 C   0  0  0  0  0  0  0  0  0  0  0  0
   10.9402  -19.7608   19.0557 C   0  0  0  0  0  0  0  0  0  0  0  0
   11.8791  -19.7881   17.8783 C   0  0  0  0  0  0  0  0  0  0  0  0
   11.5150  -19.4458   16.7279 O   0  0  0  0  0  0  0  0  0  0  0  0
   10.5555  -17.0697   21.7346 C   0  0  0  0  0  0  0  0  0  0  0  0
   11.6369  -16.4644   21.9601 O   0  0  0  0  0  0  0  0  0  0  0  0
   13.1855  -20.2009   18.0564 O   0  0  0  0  0  0  0  0  0  0  0  0
    8.1449  -13.1980   16.6720 O   0  0  0  0  0  0  0  0  0  0  0  0
    8.1327  -13.4527   18.0348 C   0  0  0  0  0  0  0  0  0  0  0  0
    7.0059  -13.2435   18.7885 C   0  0  0  0  0  0  0  0  0  0  0  0
    7.0169  -13.5033   20.1387 C   0  0  0  0  0  0  0  0  0  0  0  0
    8.1717  -13.9836   20.7666 C   0  0  0  0  0  0  0  0  0  0  0  0
    8.1786  -14.2331   22.2151 C   0  0  0  0  0  0  0  0  0  0  0  0
    9.4129  -14.9798   22.6077 C   0  0  2  0  0  0  0  0  0  0  0  0
    9.3526  -16.3706   22.1140 N   0  0  0  0  0  0  0  0  0  0  0  0
    9.5371  -15.0552   24.0779 C   0  0  0  0  0  0  0  0  0  0  0  0
   10.4775  -14.4836   24.7176 O   0  0  0  0  0  0  0  0  0  0  0  0
    9.2919  -14.1881   20.0004 C   0  0  0  0  0  0  0  0  0  0  0  0
    9.2962  -13.9284   18.6251 C   0  0  0  0  0  0  0  0  0  0  0  0
    5.7356  -13.0050   26.5476 C   0  0  0  0  0  0  0  0  0  0  0  0
    7.2616  -13.3570   26.3792 C   0  0  1  0  0  0  0  0  0  0  0  0
    7.9224  -12.4890   27.4059 C   0  0  0  0  0  0  0  0  0  0  0  0
    7.3140  -14.8133   26.5824 C   0  0  0  0  0  0  0  0  0  0  0  0
    8.5539  -15.5689   26.3273 C   0  0  2  0  0  0  0  0  0  0  0  0
    8.6148  -15.7686   24.8561 N   0  0  0  0  0  0  0  0  0  0  0  0
    8.6230  -16.8711   26.9837 C   0  0  0  0  0  0  0  0  0  0  0  0
    8.8117  -16.9550   28.3616 O   0  0  0  0  0  0  0  0  0  0  0  0
    8.5193  -17.9342   26.3593 O   0  0  0  0  0  0  0  0  0  0  0  0
  2  3  1  0
  2  1  1  6
  4  5  1  0
  4  3  1  0
  5  6  2  0
  7  2  1  0
  8  7  2  0
  9  5  1  0
 11 10  1  0
 11 21  2  0
 12 11  1  0
 13 12  2  0
 13 14  1  0
 14 20  2  0
 15 14  1  0
 16 15  1  1
 16 17  1  0
 17  7  1  0
 18 16  1  0
 18 19  2  0
 20 21  1  0
 23 22  1  1
 23 25  1  0
 24 23  1  0
 26 25  1  6
 26 27  1  0
 27 18  1  0
 28 29  1  0
 28 26  1  0
 30 28  2  0
M  END
$$$$
