EYL.pdb
     RDKit          3D

 30 30  0  0  1  0  0  0  0  0999 V2000
   12.2902  -16.7352   19.7380 N   0  0  0  0  0  0  0  0  0  0  0  0
   11.1692  -17.3713   20.4398 C   0  0  1  0  0  0  0  0  0  0  0  0
   11.5235  -18.8041   20.7936 C   0  0  0  0  0  0  0  0  0  0  0  0
   12.8447  -18.9470   21.4714 C   0  0  0  0  0  0  0  0  0  0  0  0
   13.0607  -20.4205   21.6968 C   0  0  0  0  0  0  0  0  0  0  0  0
   14.1177  -20.8693   22.2011 O   0  0  0  0  0  0  0  0  0  0  0  0
   10.8079  -16.5504   21.5989 C   0  0  0  0  0  0  0  0  0  0  0  0
   11.6052  -15.7665   22.1789 O   0  0  0  0  0  0  0  0  0  0  0  0
   12.0717  -21.3175   21.3416 O   0  0  0  0  0  0  0  0  0  0  0  0
    6.1381  -11.8815   27.3368 O   0  0  0  0  0  0  0  0  0  0  0  0
    6.5183  -12.7342   26.3118 C   0  0  0  0  0  0  0  0  0  0  0  0
    7.2201  -12.2750   25.2266 C   0  0  0  0  0  0  0  0  0  0  0  0
    7.5868  -13.1391   24.2218 C   0  0  0  0  0  0  0  0  0  0  0  0
    7.2527  -14.4966   24.2868 C   0  0  0  0  0  0  0  0  0  0  0  0
    7.6279  -15.4054   23.1943 C   0  0  0  0  0  0  0  0  0  0  0  0
    9.0832  -15.7390   23.2729 C   0  0  2  0  0  0  0  0  0  0  0  0
    9.4742  -16.6080   22.1443 N   0  0  0  0  0  0  0  0  0  0  0  0
    9.3855  -16.4871   24.5105 C   0  0  0  0  0  0  0  0  0  0  0  0
    9.3936  -17.7590   24.5591 O   0  0  0  0  0  0  0  0  0  0  0  0
    6.5499  -14.9423   25.3783 C   0  0  0  0  0  0  0  0  0  0  0  0
    6.1699  -14.0750   26.4089 C   0  0  0  0  0  0  0  0  0  0  0  0
   10.1943  -13.5196   29.1727 C   0  0  0  0  0  0  0  0  0  0  0  0
   10.2567  -14.1797   27.7440 C   0  0  1  0  0  0  0  0  0  0  0  0
   11.5470  -13.6591   27.1887 C   0  0  0  0  0  0  0  0  0  0  0  0
   10.1648  -15.6228   28.0159 C   0  0  0  0  0  0  0  0  0  0  0  0
   10.0985  -16.5982   26.9125 C   0  0  2  0  0  0  0  0  0  0  0  0
    9.6831  -15.8281   25.7114 N   0  0  0  0  0  0  0  0  0  0  0  0
    9.1562  -17.6938   27.1200 C   0  0  0  0  0  0  0  0  0  0  0  0
    9.4912  -18.7619   27.9496 O   0  0  0  0  0  0  0  0  0  0  0  0
    8.0433  -17.7217   26.5803 O   0  0  0  0  0  0  0  0  0  0  0  0
  2  3  1  0
  2  1  1  1
  4  5  1  0
  4  3  1  0
  5  6  2  0
  7  2  1  0
  8  7  2  0
  9  5  1  0
 11 10  1  0
 11 21  2  0
 12 11  1  0
 13 12  2  0
 13 14  1  0
 14 20  2  0
 15 14  1  0
 16 15  1  6
 16 17  1  0
 17  7  1  0
 18 16  1  0
 18 19  2  0
 20 21  1  0
 23 22  1  1
 23 25  1  0
 24 23  1  0
 26 25  1  1
 26 27  1  0
 27 18  1  0
 28 29  1  0
 28 26  1  0
 30 28  2  0
M  END
$$$$
