EYL.pdb
     RDKit          3D

 30 30  0  0  1  0  0  0  0  0999 V2000
   11.8282  -17.4007   20.7717 N   0  0  0  0  0  0  0  0  0  0  0  0
   10.9915  -16.4318   21.4894 C   0  0  1  0  0  0  0  0  0  0  0  0
    9.5830  -16.4427   20.9243 C   0  0  0  0  0  0  0  0  0  0  0  0
    9.4708  -15.8129   19.5767 C   0  0  0  0  0  0  0  0  0  0  0  0
    8.6217  -16.7307   18.7370 C   0  0  0  0  0  0  0  0  0  0  0  0
    8.8018  -16.8612   17.5027 O   0  0  0  0  0  0  0  0  0  0  0  0
   11.0530  -16.7231   22.9244 C   0  0  0  0  0  0  0  0  0  0  0  0
   11.0868  -17.8879   23.4027 O   0  0  0  0  0  0  0  0  0  0  0  0
    7.6087  -17.4579   19.3319 O   0  0  0  0  0  0  0  0  0  0  0  0
   11.0792  -15.8027   31.6517 O   0  0  0  0  0  0  0  0  0  0  0  0
   11.1803  -15.5683   30.2889 C   0  0  0  0  0  0  0  0  0  0  0  0
   11.6003  -16.5488   29.4267 C   0  0  0  0  0  0  0  0  0  0  0  0
   11.6929  -16.2937   28.0787 C   0  0  0  0  0  0  0  0  0  0  0  0
   11.3621  -15.0353   27.5633 C   0  0  0  0  0  0  0  0  0  0  0  0
   11.4897  -14.7670   26.1238 C   0  0  0  0  0  0  0  0  0  0  0  0
   10.9776  -15.9271   25.3318 C   0  0  2  0  0  0  0  0  0  0  0  0
   11.0783  -15.6479   23.8849 N   0  0  0  0  0  0  0  0  0  0  0  0
    9.5492  -16.1712   25.6196 C   0  0  0  0  0  0  0  0  0  0  0  0
    9.1496  -16.7149   26.6990 O   0  0  0  0  0  0  0  0  0  0  0  0
   10.9436  -14.0635   28.4375 C   0  0  0  0  0  0  0  0  0  0  0  0
   10.8442  -14.3081   29.8119 C   0  0  0  0  0  0  0  0  0  0  0  0
    6.3803  -12.2158   24.5597 C   0  0  0  0  0  0  0  0  0  0  0  0
    7.1220  -13.3696   25.3339 C   0  0  1  0  0  0  0  0  0  0  0  0
    6.8570  -13.0357   26.7700 C   0  0  0  0  0  0  0  0  0  0  0  0
    6.5194  -14.6004   24.7980 C   0  0  0  0  0  0  0  0  0  0  0  0
    7.1120  -15.9196   25.0836 C   0  0  2  0  0  0  0  0  0  0  0  0
    8.5459  -15.8128   24.7086 N   0  0  0  0  0  0  0  0  0  0  0  0
    6.5138  -17.0310   24.3499 C   0  0  0  0  0  0  0  0  0  0  0  0
    7.2571  -17.7274   23.3993 O   0  0  0  0  0  0  0  0  0  0  0  0
    5.3462  -17.3956   24.5358 O   0  0  0  0  0  0  0  0  0  0  0  0
  2  3  1  0
  2  1  1  6
  4  5  1  0
  4  3  1  0
  5  6  2  0
  7  2  1  0
  8  7  2  0
  9  5  1  0
 11 10  1  0
 11 21  2  0
 12 11  1  0
 13 12  2  0
 13 14  1  0
 14 20  2  0
 15 14  1  0
 16 15  1  1
 16 17  1  0
 17  7  1  0
 18 16  1  0
 18 19  2  0
 20 21  1  0
 23 22  1  6
 23 25  1  0
 24 23  1  0
 26 25  1  6
 26 27  1  0
 27 18  1  0
 28 29  1  0
 28 26  1  0
 30 28  2  0
M  END
$$$$
