LTK.pdb
     RDKit          3D

 25 24  0  0  1  0  0  0  0  0999 V2000
    7.2746  -12.2795   19.7062 C   0  0  0  0  0  0  0  0  0  0  0  0
    8.3435  -13.2920   19.4847 C   0  0  2  0  0  0  0  0  0  0  0  0
    9.7365  -12.7195   19.6531 C   0  0  0  0  0  0  0  0  0  0  0  0
    8.2565  -14.0005   18.1666 C   0  0  0  0  0  0  0  0  0  0  0  0
    9.2110  -15.1364   18.0145 C   0  0  2  0  0  0  0  0  0  0  0  0
    9.0151  -15.7772   16.7525 N   0  0  0  0  0  0  0  0  0  0  0  0
    8.9873  -16.0616   19.1686 C   0  0  0  0  0  0  0  0  0  0  0  0
    8.1092  -16.9559   19.0645 O   0  0  0  0  0  0  0  0  0  0  0  0
    9.1590  -18.7331   19.6957 C   0  0  0  0  0  0  0  0  0  0  0  0
   10.0962  -18.3028   20.8132 C   0  0  1  0  0  0  0  0  0  0  0  0
   11.3976  -18.1574   20.3011 O   0  0  0  0  0  0  0  0  0  0  0  0
    9.6582  -16.9876   21.4233 C   0  0  2  0  0  0  0  0  0  0  0  0
    9.7099  -15.9889   20.3769 N   0  0  0  0  0  0  0  0  0  0  0  0
   10.5850  -16.6832   22.5383 C   0  0  0  0  0  0  0  0  0  0  0  0
   11.6505  -16.0838   22.2402 O   0  0  0  0  0  0  0  0  0  0  0  0
   10.3517  -17.0152   23.8750 N   0  0  0  0  0  0  0  0  0  0  0  0
   11.2567  -16.4444   24.9459 C   0  0  1  0  0  0  0  0  0  0  0  0
   10.3323  -15.9718   25.9914 C   0  0  0  0  0  0  0  0  0  0  0  0
   10.7431  -15.3497   27.2372 C   0  0  0  0  0  0  0  0  0  0  0  0
    9.8018  -14.9576   28.2938 C   0  0  0  0  0  0  0  0  0  0  0  0
   10.6881  -14.3321   29.4236 C   0  0  0  0  0  0  0  0  0  0  0  0
    9.8454  -13.7908   30.4641 N   0  0  0  0  0  0  0  0  0  0  0  0
   12.1324  -17.5612   25.3560 C   0  0  0  0  0  0  0  0  0  0  0  0
   13.3996  -17.2237   25.9044 O   0  0  0  0  0  0  0  0  0  0  0  0
   11.8912  -18.7748   25.2776 O   0  0  0  0  0  0  0  0  0  0  0  0
  2  1  1  6
  2  3  1  0
  4  2  1  0
  5  7  1  0
  5  4  1  0
  5  6  1  6
  7  8  2  0
 10  9  1  6
 10 11  1  0
 12 10  1  0
 12 13  1  6
 13  7  1  0
 14 12  1  0
 15 14  2  0
 16 14  1  0
 17 16  1  0
 17 18  1  1
 19 18  1  0
 20 19  1  0
 21 20  1  0
 22 21  1  0
 23 24  1  0
 23 17  1  0
 25 23  2  0
M  END
$$$$
