LTK.pdb
     RDKit          3D

 25 24  0  0  1  0  0  0  0  0999 V2000
    9.1216  -14.1862   18.6031 C   0  0  0  0  0  0  0  0  0  0  0  0
    7.9364  -14.0461   19.4932 C   0  0  2  0  0  0  0  0  0  0  0  0
    7.1638  -12.7666   19.2428 C   0  0  0  0  0  0  0  0  0  0  0  0
    8.2484  -14.1567   20.9553 C   0  0  0  0  0  0  0  0  0  0  0  0
    8.9993  -15.3888   21.3326 C   0  0  2  0  0  0  0  0  0  0  0  0
    8.2452  -16.5506   20.9814 N   0  0  0  0  0  0  0  0  0  0  0  0
    9.2771  -15.3073   22.8002 C   0  0  0  0  0  0  0  0  0  0  0  0
    9.8734  -14.2941   23.2468 O   0  0  0  0  0  0  0  0  0  0  0  0
    7.2381  -14.4989   25.3187 C   0  0  0  0  0  0  0  0  0  0  0  0
    7.7077  -15.8828   25.7389 C   0  0  1  0  0  0  0  0  0  0  0  0
    6.7822  -16.8444   25.2960 O   0  0  0  0  0  0  0  0  0  0  0  0
    9.0677  -16.2039   25.1547 C   0  0  2  0  0  0  0  0  0  0  0  0
    8.9063  -16.3091   23.7202 N   0  0  0  0  0  0  0  0  0  0  0  0
    9.5259  -17.4740   25.7644 C   0  0  0  0  0  0  0  0  0  0  0  0
    9.0966  -18.5372   25.2460 O   0  0  0  0  0  0  0  0  0  0  0  0
   10.3892  -17.5607   26.8591 N   0  0  0  0  0  0  0  0  0  0  0  0
   10.6724  -18.9164   27.4701 C   0  0  1  0  0  0  0  0  0  0  0  0
   11.8903  -18.7080   28.2729 C   0  0  0  0  0  0  0  0  0  0  0  0
   12.4783  -19.7005   29.1542 C   0  0  0  0  0  0  0  0  0  0  0  0
   13.7153  -19.4764   29.9128 C   0  0  0  0  0  0  0  0  0  0  0  0
   13.9601  -20.8060   30.7038 C   0  0  0  0  0  0  0  0  0  0  0  0
   15.1994  -20.7170   31.4401 N   0  0  0  0  0  0  0  0  0  0  0  0
    9.4668  -19.2530   28.2547 C   0  0  0  0  0  0  0  0  0  0  0  0
    9.2138  -20.6308   28.4953 O   0  0  0  0  0  0  0  0  0  0  0  0
    8.6374  -18.4665   28.7348 O   0  0  0  0  0  0  0  0  0  0  0  0
  2  1  1  6
  2  3  1  0
  4  2  1  0
  5  7  1  0
  5  4  1  0
  5  6  1  1
  7  8  2  0
 10  9  1  6
 10 11  1  0
 12 10  1  0
 12 13  1  6
 13  7  1  0
 14 12  1  0
 15 14  2  0
 16 14  1  0
 17 16  1  0
 17 18  1  1
 19 18  1  0
 20 19  1  0
 21 20  1  0
 22 21  1  0
 23 24  1  0
 23 17  1  0
 25 23  2  0
M  END
$$$$
