LTK.pdb
     RDKit          3D

 25 24  0  0  1  0  0  0  0  0999 V2000
   10.2606  -13.1886   18.8061 C   0  0  0  0  0  0  0  0  0  0  0  0
    8.9285  -13.2514   18.1442 C   0  0  2  0  0  0  0  0  0  0  0  0
    8.1117  -11.9918   18.3509 C   0  0  0  0  0  0  0  0  0  0  0  0
    8.1051  -14.4431   18.5302 C   0  0  0  0  0  0  0  0  0  0  0  0
    8.8604  -15.7288   18.5609 C   0  0  2  0  0  0  0  0  0  0  0  0
    8.6090  -16.4749   17.3684 N   0  0  0  0  0  0  0  0  0  0  0  0
    8.4393  -16.4615   19.7954 C   0  0  0  0  0  0  0  0  0  0  0  0
    7.2636  -16.9026   19.8647 O   0  0  0  0  0  0  0  0  0  0  0  0
    9.3049  -19.5686   21.4091 C   0  0  0  0  0  0  0  0  0  0  0  0
    9.6531  -18.4877   22.4203 C   0  0  1  0  0  0  0  0  0  0  0  0
   11.0247  -18.1906   22.3327 O   0  0  0  0  0  0  0  0  0  0  0  0
    8.8592  -17.2225   22.1693 C   0  0  2  0  0  0  0  0  0  0  0  0
    9.2913  -16.6883   20.8954 N   0  0  0  0  0  0  0  0  0  0  0  0
    9.1335  -16.2945   23.2912 C   0  0  0  0  0  0  0  0  0  0  0  0
   10.1633  -15.5780   23.1932 O   0  0  0  0  0  0  0  0  0  0  0  0
    8.3332  -16.1694   24.4292 N   0  0  0  0  0  0  0  0  0  0  0  0
    8.7118  -15.1582   25.4902 C   0  0  1  0  0  0  0  0  0  0  0  0
    7.4801  -14.3795   25.7087 C   0  0  0  0  0  0  0  0  0  0  0  0
    7.3545  -13.2792   26.6473 C   0  0  0  0  0  0  0  0  0  0  0  0
    6.1011  -12.5483   26.8729 C   0  0  0  0  0  0  0  0  0  0  0  0
    6.4706  -11.3928   27.8636 C   0  0  0  0  0  0  0  0  0  0  0  0
    5.2954  -10.6077   28.1608 N   0  0  0  0  0  0  0  0  0  0  0  0
    9.1517  -15.9557   26.6533 C   0  0  0  0  0  0  0  0  0  0  0  0
    9.9836  -15.3077   27.6063 O   0  0  0  0  0  0  0  0  0  0  0  0
    8.8786  -17.1395   26.9010 O   0  0  0  0  0  0  0  0  0  0  0  0
  2  1  1  1
  2  3  1  0
  4  2  1  0
  5  7  1  0
  5  4  1  0
  5  6  1  6
  7  8  2  0
 10  9  1  6
 10 11  1  0
 12 10  1  0
 12 13  1  6
 13  7  1  0
 14 12  1  0
 15 14  2  0
 16 14  1  0
 17 16  1  0
 17 18  1  1
 19 18  1  0
 20 19  1  0
 21 20  1  0
 22 21  1  0
 23 24  1  0
 23 17  1  0
 25 23  2  0
M  END
$$$$
