LTK.pdb
     RDKit          3D

 25 24  0  0  1  0  0  0  0  0999 V2000
    8.2786  -14.3394   18.7123 C   0  0  0  0  0  0  0  0  0  0  0  0
    7.5337  -13.4240   19.6200 C   0  0  2  0  0  0  0  0  0  0  0  0
    7.3603  -12.0355   19.0381 C   0  0  0  0  0  0  0  0  0  0  0  0
    8.1167  -13.3135   20.9965 C   0  0  0  0  0  0  0  0  0  0  0  0
    8.1814  -14.6034   21.7425 C   0  0  2  0  0  0  0  0  0  0  0  0
    6.9000  -15.2357   21.7427 N   0  0  0  0  0  0  0  0  0  0  0  0
    8.6685  -14.2939   23.1227 C   0  0  0  0  0  0  0  0  0  0  0  0
    9.7717  -13.7049   23.2561 O   0  0  0  0  0  0  0  0  0  0  0  0
    6.7894  -12.3838   25.8501 C   0  0  0  0  0  0  0  0  0  0  0  0
    7.1866  -13.7542   26.3761 C   0  0  1  0  0  0  0  0  0  0  0  0
    6.1099  -14.6448   26.2186 O   0  0  0  0  0  0  0  0  0  0  0  0
    8.3892  -14.3010   25.6353 C   0  0  2  0  0  0  0  0  0  0  0  0
    7.9567  -14.6270   24.2931 N   0  0  0  0  0  0  0  0  0  0  0  0
    8.8665  -15.4909   26.3777 C   0  0  0  0  0  0  0  0  0  0  0  0
    8.2437  -16.5667   26.1820 O   0  0  0  0  0  0  0  0  0  0  0  0
    9.9454  -15.4905   27.2649 N   0  0  0  0  0  0  0  0  0  0  0  0
   10.2938  -16.7649   28.0038 C   0  0  1  0  0  0  0  0  0  0  0  0
   11.4704  -17.2911   27.2897 C   0  0  0  0  0  0  0  0  0  0  0  0
   11.8932  -18.6798   27.3058 C   0  0  0  0  0  0  0  0  0  0  0  0
   13.0952  -19.1669   26.6173 C   0  0  0  0  0  0  0  0  0  0  0  0
   13.1031  -20.7160   26.8483 C   0  0  0  0  0  0  0  0  0  0  0  0
   14.2623  -21.2999   26.2151 N   0  0  0  0  0  0  0  0  0  0  0  0
   10.5526  -16.3519   29.3984 C   0  0  0  0  0  0  0  0  0  0  0  0
   10.7417  -17.3852   30.3560 O   0  0  0  0  0  0  0  0  0  0  0  0
   10.6251  -15.1957   29.8398 O   0  0  0  0  0  0  0  0  0  0  0  0
  2  1  1  6
  2  3  1  0
  4  2  1  0
  5  7  1  0
  5  4  1  0
  5  6  1  1
  7  8  2  0
 10  9  1  6
 10 11  1  0
 12 10  1  0
 12 13  1  6
 13  7  1  0
 14 12  1  0
 15 14  2  0
 16 14  1  0
 17 16  1  0
 17 18  1  6
 19 18  1  0
 20 19  1  0
 21 20  1  0
 22 21  1  0
 23 24  1  0
 23 17  1  0
 25 23  2  0
M  END
$$$$
