LTK.pdb
     RDKit          3D

 25 24  0  0  1  0  0  0  0  0999 V2000
    8.4672  -12.5365   18.3304 C   0  0  0  0  0  0  0  0  0  0  0  0
    7.4583  -13.2315   19.1765 C   0  0  2  0  0  0  0  0  0  0  0  0
    6.9173  -12.3512   20.2851 C   0  0  0  0  0  0  0  0  0  0  0  0
    7.9334  -14.5271   19.7618 C   0  0  0  0  0  0  0  0  0  0  0  0
    8.5507  -15.4587   18.7741 C   0  0  2  0  0  0  0  0  0  0  0  0
    7.5412  -16.0279   17.9383 N   0  0  0  0  0  0  0  0  0  0  0  0
    9.3036  -16.4928   19.5498 C   0  0  0  0  0  0  0  0  0  0  0  0
    8.6624  -17.4363   20.0793 O   0  0  0  0  0  0  0  0  0  0  0  0
   13.5403  -18.8823   20.1744 C   0  0  0  0  0  0  0  0  0  0  0  0
   12.6944  -17.7753   19.5650 C   0  0  1  0  0  0  0  0  0  0  0  0
   12.2966  -18.1510   18.2698 O   0  0  0  0  0  0  0  0  0  0  0  0
   11.4598  -17.5032   20.3990 C   0  0  2  0  0  0  0  0  0  0  0  0
   10.7024  -16.4712   19.7234 N   0  0  0  0  0  0  0  0  0  0  0  0
   11.9149  -17.0787   21.7435 C   0  0  0  0  0  0  0  0  0  0  0  0
   12.4967  -15.9654   21.8179 O   0  0  0  0  0  0  0  0  0  0  0  0
   11.7404  -17.8255   22.9109 N   0  0  0  0  0  0  0  0  0  0  0  0
   12.4714  -17.4093   24.1694 C   0  0  1  0  0  0  0  0  0  0  0  0
   11.9007  -18.2660   25.2237 C   0  0  0  0  0  0  0  0  0  0  0  0
   12.3714  -18.3108   26.5962 C   0  0  0  0  0  0  0  0  0  0  0  0
   11.7402  -19.1270   27.6410 C   0  0  0  0  0  0  0  0  0  0  0  0
   12.6471  -18.9505   28.9058 C   0  0  0  0  0  0  0  0  0  0  0  0
   12.0462  -19.6182   30.0366 N   0  0  0  0  0  0  0  0  0  0  0  0
   13.9023  -17.6470   23.8891 C   0  0  0  0  0  0  0  0  0  0  0  0
   14.8264  -16.6799   24.3698 O   0  0  0  0  0  0  0  0  0  0  0  0
   14.4006  -18.6022   23.2756 O   0  0  0  0  0  0  0  0  0  0  0  0
  2  1  1  1
  2  3  1  0
  4  2  1  0
  5  7  1  0
  5  4  1  0
  5  6  1  1
  7  8  2  0
 10  9  1  1
 10 11  1  0
 12 10  1  0
 12 13  1  6
 13  7  1  0
 14 12  1  0
 15 14  2  0
 16 14  1  0
 17 16  1  0
 17 18  1  1
 19 18  1  0
 20 19  1  0
 21 20  1  0
 22 21  1  0
 23 24  1  0
 23 17  1  0
 25 23  2  0
M  END
$$$$
