LTK.pdb
     RDKit          3D

 25 24  0  0  1  0  0  0  0  0999 V2000
    9.9763  -12.7387   19.3947 C   0  0  0  0  0  0  0  0  0  0  0  0
    8.5587  -12.9339   18.9837 C   0  0  2  0  0  0  0  0  0  0  0  0
    7.6317  -11.8824   19.5598 C   0  0  0  0  0  0  0  0  0  0  0  0
    8.0113  -14.2956   19.2887 C   0  0  0  0  0  0  0  0  0  0  0  0
    8.9043  -15.4213   18.8890 C   0  0  2  0  0  0  0  0  0  0  0  0
    8.4595  -15.9867   17.6544 N   0  0  0  0  0  0  0  0  0  0  0  0
    8.8976  -16.4126   20.0093 C   0  0  0  0  0  0  0  0  0  0  0  0
    7.8175  -16.9866   20.3015 O   0  0  0  0  0  0  0  0  0  0  0  0
   10.3737  -19.6016   20.1833 C   0  0  0  0  0  0  0  0  0  0  0  0
   10.9715  -18.8570   21.3666 C   0  0  1  0  0  0  0  0  0  0  0  0
   12.2186  -18.3211   20.9994 O   0  0  0  0  0  0  0  0  0  0  0  0
   10.0673  -17.7305   21.8221 C   0  0  2  0  0  0  0  0  0  0  0  0
   10.0417  -16.7438   20.7634 N   0  0  0  0  0  0  0  0  0  0  0  0
   10.6291  -17.1900   23.0820 C   0  0  0  0  0  0  0  0  0  0  0  0
   11.5195  -16.3078   22.9712 O   0  0  0  0  0  0  0  0  0  0  0  0
   10.2373  -17.5931   24.3607 N   0  0  0  0  0  0  0  0  0  0  0  0
   10.8740  -16.9387   25.5682 C   0  0  1  0  0  0  0  0  0  0  0  0
    9.7981  -16.9033   26.5743 C   0  0  0  0  0  0  0  0  0  0  0  0
    9.9336  -16.3487   27.9091 C   0  0  0  0  0  0  0  0  0  0  0  0
    9.8645  -14.9107   28.1978 C   0  0  0  0  0  0  0  0  0  0  0  0
   10.0769  -14.7904   29.7449 C   0  0  0  0  0  0  0  0  0  0  0  0
   10.0525  -13.4005   30.1363 N   0  0  0  0  0  0  0  0  0  0  0  0
   12.0211  -17.7996   25.9221 C   0  0  0  0  0  0  0  0  0  0  0  0
   13.1529  -17.1653   26.5027 O   0  0  0  0  0  0  0  0  0  0  0  0
   12.1164  -19.0265   25.7707 O   0  0  0  0  0  0  0  0  0  0  0  0
  2  1  1  1
  2  3  1  0
  4  2  1  0
  5  7  1  0
  5  4  1  0
  5  6  1  6
  7  8  2  0
 10  9  1  6
 10 11  1  0
 12 10  1  0
 12 13  1  6
 13  7  1  0
 14 12  1  0
 15 14  2  0
 16 14  1  0
 17 16  1  0
 17 18  1  1
 19 18  1  0
 20 19  1  0
 21 20  1  0
 22 21  1  0
 23 24  1  0
 23 17  1  0
 25 23  2  0
M  END
$$$$
