LTK.pdb
     RDKit          3D

 25 24  0  0  1  0  0  0  0  0999 V2000
    8.5590  -11.6834   19.8229 C   0  0  0  0  0  0  0  0  0  0  0  0
    7.9658  -12.8577   19.1260 C   0  0  2  0  0  0  0  0  0  0  0  0
    6.5313  -12.6215   18.6978 C   0  0  0  0  0  0  0  0  0  0  0  0
    8.0455  -14.1383   19.9011 C   0  0  0  0  0  0  0  0  0  0  0  0
    9.3673  -14.3855   20.5463 C   0  0  2  0  0  0  0  0  0  0  0  0
   10.4174  -14.2326   19.5894 N   0  0  0  0  0  0  0  0  0  0  0  0
    9.3236  -15.7599   21.1353 C   0  0  0  0  0  0  0  0  0  0  0  0
    8.3205  -16.0935   21.8166 O   0  0  0  0  0  0  0  0  0  0  0  0
   11.4428  -20.2718   21.4094 C   0  0  0  0  0  0  0  0  0  0  0  0
   11.2825  -18.8994   20.7745 C   0  0  1  0  0  0  0  0  0  0  0  0
   10.7422  -19.0421   19.4842 O   0  0  0  0  0  0  0  0  0  0  0  0
   10.3666  -18.0163   21.5961 C   0  0  2  0  0  0  0  0  0  0  0  0
   10.3504  -16.7115   20.9696 N   0  0  0  0  0  0  0  0  0  0  0  0
   10.9084  -17.9724   22.9743 C   0  0  0  0  0  0  0  0  0  0  0  0
   11.9611  -17.3049   23.1469 O   0  0  0  0  0  0  0  0  0  0  0  0
   10.3320  -18.6149   24.0725 N   0  0  0  0  0  0  0  0  0  0  0  0
   11.0503  -18.5866   25.4047 C   0  0  1  0  0  0  0  0  0  0  0  0
   10.0661  -19.1217   26.3619 C   0  0  0  0  0  0  0  0  0  0  0  0
   10.3410  -19.4006   27.7598 C   0  0  0  0  0  0  0  0  0  0  0  0
    9.3265  -19.8924   28.7005 C   0  0  0  0  0  0  0  0  0  0  0  0
   10.0285  -19.8922   30.1007 C   0  0  0  0  0  0  0  0  0  0  0  0
    9.1263  -20.4124   31.1013 N   0  0  0  0  0  0  0  0  0  0  0  0
   12.2516  -19.4267   25.2210 C   0  0  0  0  0  0  0  0  0  0  0  0
   13.4550  -18.9792   25.8308 O   0  0  0  0  0  0  0  0  0  0  0  0
   12.3370  -20.4900   24.5893 O   0  0  0  0  0  0  0  0  0  0  0  0
  2  1  1  1
  2  3  1  0
  4  2  1  0
  5  7  1  0
  5  4  1  0
  5  6  1  6
  7  8  2  0
 10  9  1  1
 10 11  1  0
 12 10  1  0
 12 13  1  6
 13  7  1  0
 14 12  1  0
 15 14  2  0
 16 14  1  0
 17 16  1  0
 17 18  1  1
 19 18  1  0
 20 19  1  0
 21 20  1  0
 22 21  1  0
 23 24  1  0
 23 17  1  0
 25 23  2  0
M  END
$$$$
