LTK.pdb
     RDKit          3D

 25 24  0  0  1  0  0  0  0  0999 V2000
    6.5453  -20.1177   16.0405 C   0  0  0  0  0  0  0  0  0  0  0  0
    6.2696  -19.6133   17.4139 C   0  0  2  0  0  0  0  0  0  0  0  0
    5.0220  -18.7557   17.4834 C   0  0  0  0  0  0  0  0  0  0  0  0
    7.4134  -18.8728   18.0387 C   0  0  0  0  0  0  0  0  0  0  0  0
    7.6401  -17.5078   17.4819 C   0  0  2  0  0  0  0  0  0  0  0  0
    8.2182  -17.5987   16.1784 N   0  0  0  0  0  0  0  0  0  0  0  0
    8.5158  -16.7743   18.4479 C   0  0  0  0  0  0  0  0  0  0  0  0
    9.7637  -16.8610   18.3181 O   0  0  0  0  0  0  0  0  0  0  0  0
    7.5777  -13.1416   19.6898 C   0  0  0  0  0  0  0  0  0  0  0  0
    8.0028  -14.0185   20.8571 C   0  0  1  0  0  0  0  0  0  0  0  0
    6.8599  -14.5105   21.5120 O   0  0  0  0  0  0  0  0  0  0  0  0
    8.8432  -15.1885   20.3894 C   0  0  2  0  0  0  0  0  0  0  0  0
    8.0192  -15.9844   19.5047 N   0  0  0  0  0  0  0  0  0  0  0  0
    9.2675  -15.9415   21.5927 C   0  0  0  0  0  0  0  0  0  0  0  0
    8.4146  -16.7092   22.1091 O   0  0  0  0  0  0  0  0  0  0  0  0
   10.5330  -15.8522   22.1772 N   0  0  0  0  0  0  0  0  0  0  0  0
   10.8184  -16.6332   23.4422 C   0  0  1  0  0  0  0  0  0  0  0  0
   11.4812  -17.8620   22.9712 C   0  0  0  0  0  0  0  0  0  0  0  0
   11.2766  -19.1812   23.5417 C   0  0  0  0  0  0  0  0  0  0  0  0
   11.8794  -20.4020   22.9919 C   0  0  0  0  0  0  0  0  0  0  0  0
   11.3885  -21.5602   23.9251 C   0  0  0  0  0  0  0  0  0  0  0  0
   11.9060  -22.8229   23.4525 N   0  0  0  0  0  0  0  0  0  0  0  0
   11.6698  -15.7499   24.2652 C   0  0  0  0  0  0  0  0  0  0  0  0
   11.7681  -16.0514   25.6508 O   0  0  0  0  0  0  0  0  0  0  0  0
   12.3177  -14.7629   23.8868 O   0  0  0  0  0  0  0  0  0  0  0  0
  2  1  1  6
  2  3  1  0
  4  2  1  0
  5  7  1  0
  5  4  1  0
  5  6  1  6
  7  8  2  0
 10  9  1  6
 10 11  1  0
 12 10  1  0
 12 13  1  6
 13  7  1  0
 14 12  1  0
 15 14  2  0
 16 14  1  0
 17 16  1  0
 17 18  1  6
 19 18  1  0
 20 19  1  0
 21 20  1  0
 22 21  1  0
 23 24  1  0
 23 17  1  0
 25 23  2  0
M  END
$$$$
