LTK.pdb
     RDKit          3D

 25 24  0  0  1  0  0  0  0  0999 V2000
    9.3919  -12.3863   18.9929 C   0  0  0  0  0  0  0  0  0  0  0  0
    8.1710  -13.2360   18.9284 C   0  0  2  0  0  0  0  0  0  0  0  0
    6.9316  -12.4523   18.5457 C   0  0  0  0  0  0  0  0  0  0  0  0
    7.8964  -14.0149   20.1794 C   0  0  0  0  0  0  0  0  0  0  0  0
    9.0603  -14.7995   20.6834 C   0  0  2  0  0  0  0  0  0  0  0  0
    9.4819  -15.7424   19.6960 N   0  0  0  0  0  0  0  0  0  0  0  0
    8.6344  -15.4559   21.9584 C   0  0  0  0  0  0  0  0  0  0  0  0
    7.9449  -14.7954   22.7770 O   0  0  0  0  0  0  0  0  0  0  0  0
    7.2836  -19.1905   22.2748 C   0  0  0  0  0  0  0  0  0  0  0  0
    8.4354  -18.9168   23.2289 C   0  0  1  0  0  0  0  0  0  0  0  0
    9.6355  -19.3726   22.6551 O   0  0  0  0  0  0  0  0  0  0  0  0
    8.5639  -17.4374   23.5270 C   0  0  2  0  0  0  0  0  0  0  0  0
    8.9637  -16.7837   22.2990 N   0  0  0  0  0  0  0  0  0  0  0  0
    9.5737  -17.2852   24.6003 C   0  0  0  0  0  0  0  0  0  0  0  0
   10.7730  -17.1731   24.2364 O   0  0  0  0  0  0  0  0  0  0  0  0
    9.2801  -17.2591   25.9657 N   0  0  0  0  0  0  0  0  0  0  0  0
   10.4147  -17.1564   26.9627 C   0  0  1  0  0  0  0  0  0  0  0  0
    9.9660  -16.1323   27.9224 C   0  0  0  0  0  0  0  0  0  0  0  0
   10.6745  -15.7723   29.1372 C   0  0  0  0  0  0  0  0  0  0  0  0
   10.2404  -14.6966   30.0375 C   0  0  0  0  0  0  0  0  0  0  0  0
   11.2522  -14.7264   31.2328 C   0  0  0  0  0  0  0  0  0  0  0  0
   10.9166  -13.6934   32.1847 N   0  0  0  0  0  0  0  0  0  0  0  0
   10.5617  -18.5120   27.5311 C   0  0  0  0  0  0  0  0  0  0  0  0
   11.8407  -18.8664   28.0400 O   0  0  0  0  0  0  0  0  0  0  0  0
    9.6908  -19.3902   27.6184 O   0  0  0  0  0  0  0  0  0  0  0  0
  2  1  1  1
  2  3  1  0
  4  2  1  0
  5  7  1  0
  5  4  1  0
  5  6  1  6
  7  8  2  0
 10  9  1  6
 10 11  1  0
 12 10  1  0
 12 13  1  6
 13  7  1  0
 14 12  1  0
 15 14  2  0
 16 14  1  0
 17 16  1  0
 17 18  1  1
 19 18  1  0
 20 19  1  0
 21 20  1  0
 22 21  1  0
 23 24  1  0
 23 17  1  0
 25 23  2  0
M  END
$$$$
