LTK.pdb
     RDKit          3D

 25 24  0  0  1  0  0  0  0  0999 V2000
    8.0037  -12.3157   27.2184 C   0  0  0  0  0  0  0  0  0  0  0  0
    7.1226  -12.8793   26.1589 C   0  0  2  0  0  0  0  0  0  0  0  0
    5.7914  -12.1615   26.0612 C   0  0  0  0  0  0  0  0  0  0  0  0
    6.8811  -14.3538   26.2792 C   0  0  0  0  0  0  0  0  0  0  0  0
    6.1185  -14.9470   25.1430 C   0  0  2  0  0  0  0  0  0  0  0  0
    5.0383  -15.7409   25.6376 N   0  0  0  0  0  0  0  0  0  0  0  0
    7.0869  -15.7415   24.3252 C   0  0  0  0  0  0  0  0  0  0  0  0
    7.3581  -16.9164   24.6828 O   0  0  0  0  0  0  0  0  0  0  0  0
    7.2827  -15.3360   20.3997 C   0  0  0  0  0  0  0  0  0  0  0  0
    8.6839  -15.3809   20.9886 C   0  0  1  0  0  0  0  0  0  0  0  0
    9.2014  -14.0756   21.0625 O   0  0  0  0  0  0  0  0  0  0  0  0
    8.6787  -15.9869   22.3766 C   0  0  2  0  0  0  0  0  0  0  0  0
    7.7188  -15.2457   23.1667 N   0  0  0  0  0  0  0  0  0  0  0  0
   10.0546  -15.8786   22.9152 C   0  0  0  0  0  0  0  0  0  0  0  0
   10.2843  -14.9136   23.6895 O   0  0  0  0  0  0  0  0  0  0  0  0
   11.0924  -16.7661   22.6208 N   0  0  0  0  0  0  0  0  0  0  0  0
   12.2363  -16.9151   23.6010 C   0  0  1  0  0  0  0  0  0  0  0  0
   11.7624  -17.9238   24.5649 C   0  0  0  0  0  0  0  0  0  0  0  0
   11.9672  -17.8545   26.0004 C   0  0  0  0  0  0  0  0  0  0  0  0
   11.5254  -18.9006   26.9314 C   0  0  0  0  0  0  0  0  0  0  0  0
   11.8052  -18.3248   28.3609 C   0  0  0  0  0  0  0  0  0  0  0  0
   11.3614  -19.2649   29.3633 N   0  0  0  0  0  0  0  0  0  0  0  0
   13.3967  -17.3354   22.7891 C   0  0  0  0  0  0  0  0  0  0  0  0
   14.6877  -17.0041   23.2831 O   0  0  0  0  0  0  0  0  0  0  0  0
   13.3791  -17.9507   21.7129 O   0  0  0  0  0  0  0  0  0  0  0  0
  2  1  1  1
  2  3  1  0
  4  2  1  0
  5  7  1  0
  5  4  1  0
  5  6  1  1
  7  8  2  0
 10  9  1  1
 10 11  1  0
 12 10  1  0
 12 13  1  1
 13  7  1  0
 14 12  1  0
 15 14  2  0
 16 14  1  0
 17 16  1  0
 17 18  1  1
 19 18  1  0
 20 19  1  0
 21 20  1  0
 22 21  1  0
 23 24  1  0
 23 17  1  0
 25 23  2  0
M  END
$$$$
