TSN.pdb
     RDKit          3D

 22 21  0  0  1  0  0  0  0  0999 V2000
    7.8175  -12.3709   17.5484 C   0  0  0  0  0  0  0  0  0  0  0  0
    8.4927  -13.4703   18.3063 C   0  0  1  0  0  0  0  0  0  0  0  0
    9.5080  -12.9158   19.0818 O   0  0  0  0  0  0  0  0  0  0  0  0
    7.5433  -14.2941   19.1487 C   0  0  2  0  0  0  0  0  0  0  0  0
    6.8236  -13.4688   20.0618 N   0  0  0  0  0  0  0  0  0  0  0  0
    8.3283  -15.3684   19.8077 C   0  0  0  0  0  0  0  0  0  0  0  0
    8.7387  -15.2226   20.9916 O   0  0  0  0  0  0  0  0  0  0  0  0
    9.8297  -18.9054   17.8439 O   0  0  0  0  0  0  0  0  0  0  0  0
    9.3891  -18.9536   19.1855 C   0  0  0  0  0  0  0  0  0  0  0  0
    9.4588  -17.6173   19.8377 C   0  0  2  0  0  0  0  0  0  0  0  0
    8.6723  -16.6007   19.1915 N   0  0  0  0  0  0  0  0  0  0  0  0
   10.8831  -17.2164   19.9745 C   0  0  0  0  0  0  0  0  0  0  0  0
   11.4686  -16.4895   19.1194 O   0  0  0  0  0  0  0  0  0  0  0  0
   15.1589  -15.8165   19.8755 N   0  0  0  0  0  0  0  0  0  0  0  0
   14.1905  -15.1005   20.6093 C   0  0  0  0  0  0  0  0  0  0  0  0
   14.3365  -13.8210   20.5649 O   0  0  0  0  0  0  0  0  0  0  0  0
   13.0768  -15.6908   21.3830 C   0  0  0  0  0  0  0  0  0  0  0  0
   13.0449  -17.2107   21.2897 C   0  0  2  0  0  0  0  0  0  0  0  0
   11.6415  -17.6390   21.0805 N   0  0  0  0  0  0  0  0  0  0  0  0
   13.4219  -17.7313   22.6233 C   0  0  0  0  0  0  0  0  0  0  0  0
   14.6980  -18.2175   22.8292 O   0  0  0  0  0  0  0  0  0  0  0  0
   12.6261  -17.7479   23.5717 O   0  0  0  0  0  0  0  0  0  0  0  0
  2  1  1  1
  3  2  1  0
  4  2  1  0
  4  5  1  1
  4  6  1  0
  6  7  2  0
  9  8  1  0
 10  9  1  6
 10 12  1  0
 11  6  1  0
 11 10  1  0
 12 19  1  0
 13 12  2  0
 15 14  1  0
 16 15  2  0
 17 15  1  0
 18 17  1  1
 19 18  1  0
 20 18  1  0
 20 21  1  0
 22 20  2  0
M  END
$$$$
