TSN.pdb
     RDKit          3D

 22 21  0  0  1  0  0  0  0  0999 V2000
   -3.9506  -19.2149   23.3982 C   0  0  0  0  0  0  0  0  0  0  0  0
   -4.3841  -19.6581   22.0363 C   0  0  1  0  0  0  0  0  0  0  0  0
   -3.8036  -18.8168   21.0903 O   0  0  0  0  0  0  0  0  0  0  0  0
   -4.0731  -21.1104   21.7467 C   0  0  2  0  0  0  0  0  0  0  0  0
   -4.3535  -21.4312   20.3861 N   0  0  0  0  0  0  0  0  0  0  0  0
   -4.8212  -21.9436   22.7219 C   0  0  0  0  0  0  0  0  0  0  0  0
   -6.0749  -22.0530   22.6364 O   0  0  0  0  0  0  0  0  0  0  0  0
   -3.8151  -25.5277   24.0341 O   0  0  0  0  0  0  0  0  0  0  0  0
   -4.2069  -24.7236   25.1278 C   0  0  0  0  0  0  0  0  0  0  0  0
   -4.9533  -23.5144   24.6845 C   0  0  2  0  0  0  0  0  0  0  0  0
   -4.2190  -22.6594   23.7903 N   0  0  0  0  0  0  0  0  0  0  0  0
   -5.4439  -22.7801   25.8796 C   0  0  0  0  0  0  0  0  0  0  0  0
   -4.7597  -21.8824   26.4526 O   0  0  0  0  0  0  0  0  0  0  0  0
   -8.5370  -21.4820   30.0652 N   0  0  0  0  0  0  0  0  0  0  0  0
   -9.2107  -22.3059   29.1397 C   0  0  0  0  0  0  0  0  0  0  0  0
  -10.4052  -22.6313   29.4969 O   0  0  0  0  0  0  0  0  0  0  0  0
   -8.6653  -22.7928   27.8541 C   0  0  0  0  0  0  0  0  0  0  0  0
   -7.1995  -22.4237   27.6667 C   0  0  2  0  0  0  0  0  0  0  0  0
   -6.7094  -23.0636   26.4229 N   0  0  0  0  0  0  0  0  0  0  0  0
   -6.4490  -23.0715   28.7661 C   0  0  0  0  0  0  0  0  0  0  0  0
   -6.2347  -22.3823   29.9436 O   0  0  0  0  0  0  0  0  0  0  0  0
   -6.0005  -24.2214   28.6678 O   0  0  0  0  0  0  0  0  0  0  0  0
  2  1  1  1
  3  2  1  0
  4  2  1  0
  4  5  1  6
  4  6  1  0
  6  7  2  0
  9  8  1  0
 10  9  1  1
 10 12  1  0
 11  6  1  0
 11 10  1  0
 12 19  1  0
 13 12  2  0
 15 14  1  0
 16 15  2  0
 17 15  1  0
 18 17  1  1
 19 18  1  0
 20 18  1  0
 20 21  1  0
 22 20  2  0
M  END
$$$$
