TSN.pdb
     RDKit          3D

 22 21  0  0  1  0  0  0  0  0999 V2000
    7.0571  -19.4091   17.6548 C   0  0  0  0  0  0  0  0  0  0  0  0
    7.7684  -18.5891   18.6847 C   0  0  1  0  0  0  0  0  0  0  0  0
    8.9893  -19.1960   18.9692 O   0  0  0  0  0  0  0  0  0  0  0  0
    7.9531  -17.1422   18.2821 C   0  0  2  0  0  0  0  0  0  0  0  0
    8.7399  -17.0382   17.0977 N   0  0  0  0  0  0  0  0  0  0  0  0
    8.5230  -16.4117   19.4424 C   0  0  0  0  0  0  0  0  0  0  0  0
    9.7702  -16.2542   19.5457 O   0  0  0  0  0  0  0  0  0  0  0  0
    7.9397  -13.9747   23.6709 O   0  0  0  0  0  0  0  0  0  0  0  0
    7.3281  -14.7095   22.6306 C   0  0  0  0  0  0  0  0  0  0  0  0
    8.3240  -15.1872   21.6328 C   0  0  2  0  0  0  0  0  0  0  0  0
    7.7494  -15.8506   20.4928 N   0  0  0  0  0  0  0  0  0  0  0  0
    9.3333  -16.0343   22.3198 C   0  0  0  0  0  0  0  0  0  0  0  0
    9.1438  -17.2649   22.5484 O   0  0  0  0  0  0  0  0  0  0  0  0
   14.8387  -17.2844   23.2639 N   0  0  0  0  0  0  0  0  0  0  0  0
   14.0667  -16.2754   23.8763 C   0  0  0  0  0  0  0  0  0  0  0  0
   14.4195  -16.0036   25.0853 O   0  0  0  0  0  0  0  0  0  0  0  0
   12.9403  -15.5467   23.2536 C   0  0  0  0  0  0  0  0  0  0  0  0
   11.6270  -16.3120   23.3513 C   0  0  2  0  0  0  0  0  0  0  0  0
   10.5559  -15.4860   22.7457 N   0  0  0  0  0  0  0  0  0  0  0  0
   11.2891  -16.4040   24.7897 C   0  0  0  0  0  0  0  0  0  0  0  0
   10.2794  -15.6148   25.3044 O   0  0  0  0  0  0  0  0  0  0  0  0
   11.8855  -17.1706   25.5576 O   0  0  0  0  0  0  0  0  0  0  0  0
  2  1  1  6
  3  2  1  0
  4  2  1  0
  4  5  1  6
  4  6  1  0
  6  7  2  0
  9  8  1  0
 10  9  1  1
 10 12  1  0
 11  6  1  0
 11 10  1  0
 12 19  1  0
 13 12  2  0
 15 14  1  0
 16 15  2  0
 17 15  1  0
 18 17  1  1
 19 18  1  0
 20 18  1  0
 20 21  1  0
 22 20  2  0
M  END
$$$$
