TSN.pdb
     RDKit          3D

 22 21  0  0  1  0  0  0  0  0999 V2000
    8.2898  -16.4557   17.4753 C   0  0  0  0  0  0  0  0  0  0  0  0
    8.5708  -15.0729   16.9771 C   0  0  1  0  0  0  0  0  0  0  0  0
    8.2961  -15.0288   15.6124 O   0  0  0  0  0  0  0  0  0  0  0  0
    7.8158  -13.9965   17.7261 C   0  0  2  0  0  0  0  0  0  0  0  0
    7.9279  -12.7391   17.0635 N   0  0  0  0  0  0  0  0  0  0  0  0
    8.3099  -13.9785   19.1262 C   0  0  0  0  0  0  0  0  0  0  0  0
    9.4585  -13.5292   19.3905 O   0  0  0  0  0  0  0  0  0  0  0  0
    6.3971  -15.9694   22.4429 O   0  0  0  0  0  0  0  0  0  0  0  0
    7.0791  -14.7469   22.6346 C   0  0  0  0  0  0  0  0  0  0  0  0
    8.1003  -14.5128   21.5772 C   0  0  2  0  0  0  0  0  0  0  0  0
    7.5669  -14.4452   20.2428 N   0  0  0  0  0  0  0  0  0  0  0  0
    9.1696  -15.5375   21.6981 C   0  0  0  0  0  0  0  0  0  0  0  0
    9.3530  -16.4334   20.8228 O   0  0  0  0  0  0  0  0  0  0  0  0
   13.6147  -17.9789   23.3457 N   0  0  0  0  0  0  0  0  0  0  0  0
   13.6371  -16.6371   22.9121 C   0  0  0  0  0  0  0  0  0  0  0  0
   14.8205  -16.1686   22.7111 O   0  0  0  0  0  0  0  0  0  0  0  0
   12.4541  -15.7793   22.6835 C   0  0  0  0  0  0  0  0  0  0  0  0
   11.1447  -16.5125   22.9436 C   0  0  2  0  0  0  0  0  0  0  0  0
   10.0300  -15.5449   22.8101 N   0  0  0  0  0  0  0  0  0  0  0  0
   11.1517  -16.9124   24.3690 C   0  0  0  0  0  0  0  0  0  0  0  0
   11.8402  -18.0455   24.7555 O   0  0  0  0  0  0  0  0  0  0  0  0
   10.5556  -16.2617   25.2374 O   0  0  0  0  0  0  0  0  0  0  0  0
  2  1  1  1
  3  2  1  0
  4  2  1  0
  4  5  1  6
  4  6  1  0
  6  7  2  0
  9  8  1  0
 10  9  1  1
 10 12  1  0
 11  6  1  0
 11 10  1  0
 12 19  1  0
 13 12  2  0
 15 14  1  0
 16 15  2  0
 17 15  1  0
 18 17  1  1
 19 18  1  0
 20 18  1  0
 20 21  1  0
 22 20  2  0
M  END
$$$$
