TSN.pdb
     RDKit          3D

 22 21  0  0  1  0  0  0  0  0999 V2000
    6.8119  -18.2269   18.0835 C   0  0  0  0  0  0  0  0  0  0  0  0
    7.6066  -17.6233   19.1985 C   0  0  1  0  0  0  0  0  0  0  0  0
    8.7477  -18.3963   19.3988 O   0  0  0  0  0  0  0  0  0  0  0  0
    7.9590  -16.1695   18.9705 C   0  0  2  0  0  0  0  0  0  0  0  0
    8.7469  -16.0138   17.7924 N   0  0  0  0  0  0  0  0  0  0  0  0
    8.6169  -15.6582   20.1995 C   0  0  0  0  0  0  0  0  0  0  0  0
    9.8751  -15.6107   20.2756 O   0  0  0  0  0  0  0  0  0  0  0  0
    6.7024  -15.7190   23.9808 O   0  0  0  0  0  0  0  0  0  0  0  0
    7.6018  -14.6595   23.7266 C   0  0  0  0  0  0  0  0  0  0  0  0
    8.5474  -14.9903   22.6255 C   0  0  2  0  0  0  0  0  0  0  0  0
    7.9197  -15.1980   21.3478 N   0  0  0  0  0  0  0  0  0  0  0  0
    9.3804  -16.1517   23.0320 C   0  0  0  0  0  0  0  0  0  0  0  0
    9.4623  -17.2051   22.3349 O   0  0  0  0  0  0  0  0  0  0  0  0
   14.9480  -16.1306   24.2301 N   0  0  0  0  0  0  0  0  0  0  0  0
   13.8004  -16.7147   23.6550 C   0  0  0  0  0  0  0  0  0  0  0  0
   13.9901  -17.9019   23.1915 O   0  0  0  0  0  0  0  0  0  0  0  0
   12.4645  -16.0877   23.5564 C   0  0  0  0  0  0  0  0  0  0  0  0
   11.4144  -16.8229   24.3791 C   0  0  2  0  0  0  0  0  0  0  0  0
   10.1200  -16.1172   24.2272 N   0  0  0  0  0  0  0  0  0  0  0  0
   11.7897  -16.6576   25.8016 C   0  0  0  0  0  0  0  0  0  0  0  0
   12.4426  -17.6826   26.4578 O   0  0  0  0  0  0  0  0  0  0  0  0
   11.5363  -15.6228   26.4325 O   0  0  0  0  0  0  0  0  0  0  0  0
  2  1  1  6
  3  2  1  0
  4  2  1  0
  4  5  1  6
  4  6  1  0
  6  7  2  0
  9  8  1  0
 10  9  1  1
 10 12  1  0
 11  6  1  0
 11 10  1  0
 12 19  1  0
 13 12  2  0
 15 14  1  0
 16 15  2  0
 17 15  1  0
 18 17  1  6
 19 18  1  0
 20 18  1  0
 20 21  1  0
 22 20  2  0
M  END
$$$$
