TSN.pdb
     RDKit          3D

 22 21  0  0  1  0  0  0  0  0999 V2000
    7.8872  -16.4150   18.5576 C   0  0  0  0  0  0  0  0  0  0  0  0
    8.3974  -15.1129   18.0253 C   0  0  1  0  0  0  0  0  0  0  0  0
    8.0305  -15.0070   16.6859 O   0  0  0  0  0  0  0  0  0  0  0  0
    7.9330  -13.9122   18.8204 C   0  0  2  0  0  0  0  0  0  0  0  0
    8.2545  -12.6978   18.1460 N   0  0  0  0  0  0  0  0  0  0  0  0
    8.5159  -14.0099   20.1825 C   0  0  0  0  0  0  0  0  0  0  0  0
    9.7450  -13.7940   20.3662 O   0  0  0  0  0  0  0  0  0  0  0  0
    6.3946  -15.4922   23.5665 O   0  0  0  0  0  0  0  0  0  0  0  0
    7.3833  -14.5037   23.7707 C   0  0  0  0  0  0  0  0  0  0  0  0
    8.3662  -14.4671   22.6533 C   0  0  2  0  0  0  0  0  0  0  0  0
    7.7750  -14.3407   21.3479 N   0  0  0  0  0  0  0  0  0  0  0  0
    9.2561  -15.6533   22.7491 C   0  0  0  0  0  0  0  0  0  0  0  0
    9.0846  -16.6891   22.0419 O   0  0  0  0  0  0  0  0  0  0  0  0
   13.7344  -14.8043   21.9622 N   0  0  0  0  0  0  0  0  0  0  0  0
   13.0443  -15.9786   22.3282 C   0  0  0  0  0  0  0  0  0  0  0  0
   12.7373  -16.7397   21.3349 O   0  0  0  0  0  0  0  0  0  0  0  0
   12.6719  -16.3729   23.7041 C   0  0  0  0  0  0  0  0  0  0  0  0
   11.2258  -16.8407   23.8042 C   0  0  2  0  0  0  0  0  0  0  0  0
   10.3394  -15.6636   23.6454 N   0  0  0  0  0  0  0  0  0  0  0  0
   11.0196  -17.3055   25.1945 C   0  0  0  0  0  0  0  0  0  0  0  0
   10.1239  -16.6414   26.0094 O   0  0  0  0  0  0  0  0  0  0  0  0
   11.6279  -18.2784   25.6596 O   0  0  0  0  0  0  0  0  0  0  0  0
  2  1  1  1
  3  2  1  0
  4  2  1  0
  4  5  1  6
  4  6  1  0
  6  7  2  0
  9  8  1  0
 10  9  1  1
 10 12  1  0
 11  6  1  0
 11 10  1  0
 12 19  1  0
 13 12  2  0
 15 14  1  0
 16 15  2  0
 17 15  1  0
 18 17  1  1
 19 18  1  0
 20 18  1  0
 20 21  1  0
 22 20  2  0
M  END
$$$$
