TSN.pdb
     RDKit          3D

 22 21  0  0  1  0  0  0  0  0999 V2000
    7.3869  -16.1509   18.6929 C   0  0  0  0  0  0  0  0  0  0  0  0
    8.0975  -14.9637   18.1232 C   0  0  1  0  0  0  0  0  0  0  0  0
    7.7907  -14.8714   16.7678 O   0  0  0  0  0  0  0  0  0  0  0  0
    7.7893  -13.6711   18.8471 C   0  0  2  0  0  0  0  0  0  0  0  0
    8.3027  -12.5501   18.1312 N   0  0  0  0  0  0  0  0  0  0  0  0
    8.3125  -13.7843   20.2321 C   0  0  0  0  0  0  0  0  0  0  0  0
    9.5542  -13.7391   20.4495 O   0  0  0  0  0  0  0  0  0  0  0  0
    7.6343  -14.1992   25.0677 O   0  0  0  0  0  0  0  0  0  0  0  0
    7.0338  -14.0545   23.7971 C   0  0  0  0  0  0  0  0  0  0  0  0
    8.0259  -14.2045   22.6974 C   0  0  2  0  0  0  0  0  0  0  0  0
    7.4982  -13.9468   21.3840 N   0  0  0  0  0  0  0  0  0  0  0  0
    8.6564  -15.5468   22.7907 C   0  0  0  0  0  0  0  0  0  0  0  0
    8.2374  -16.5408   22.1281 O   0  0  0  0  0  0  0  0  0  0  0  0
   12.0207  -19.6002   22.0745 N   0  0  0  0  0  0  0  0  0  0  0  0
   11.4778  -18.3010   21.9938 C   0  0  0  0  0  0  0  0  0  0  0  0
   10.8290  -18.0684   20.9052 O   0  0  0  0  0  0  0  0  0  0  0  0
   11.5965  -17.2457   23.0232 C   0  0  0  0  0  0  0  0  0  0  0  0
   10.3338  -17.1080   23.8638 C   0  0  2  0  0  0  0  0  0  0  0  0
    9.7611  -15.7606   23.6338 N   0  0  0  0  0  0  0  0  0  0  0  0
   10.7582  -17.1197   25.2821 C   0  0  0  0  0  0  0  0  0  0  0  0
   10.8251  -15.9318   25.9832 O   0  0  0  0  0  0  0  0  0  0  0  0
   11.0596  -18.1671   25.8695 O   0  0  0  0  0  0  0  0  0  0  0  0
  2  1  1  1
  3  2  1  0
  4  2  1  0
  4  5  1  6
  4  6  1  0
  6  7  2  0
  9  8  1  0
 10  9  1  1
 10 12  1  0
 11  6  1  0
 11 10  1  0
 12 19  1  0
 13 12  2  0
 15 14  1  0
 16 15  2  0
 17 15  1  0
 18 17  1  6
 19 18  1  0
 20 18  1  0
 20 21  1  0
 22 20  2  0
M  END
$$$$
