TSN.pdb
     RDKit          3D

 22 21  0  0  1  0  0  0  0  0999 V2000
    7.5627  -16.1572   18.6721 C   0  0  0  0  0  0  0  0  0  0  0  0
    8.1894  -14.9236   18.1024 C   0  0  1  0  0  0  0  0  0  0  0  0
    7.8096  -14.8091   16.7674 O   0  0  0  0  0  0  0  0  0  0  0  0
    7.8614  -13.6666   18.8783 C   0  0  2  0  0  0  0  0  0  0  0  0
    8.3315  -12.5072   18.1945 N   0  0  0  0  0  0  0  0  0  0  0  0
    8.4138  -13.8154   20.2486 C   0  0  0  0  0  0  0  0  0  0  0  0
    9.6600  -13.7780   20.4404 O   0  0  0  0  0  0  0  0  0  0  0  0
    7.7983  -14.5180   25.0701 O   0  0  0  0  0  0  0  0  0  0  0  0
    7.2055  -14.1914   23.8299 C   0  0  0  0  0  0  0  0  0  0  0  0
    8.1789  -14.2950   22.7085 C   0  0  2  0  0  0  0  0  0  0  0  0
    7.6239  -14.0050   21.4133 N   0  0  0  0  0  0  0  0  0  0  0  0
    8.8282  -15.6310   22.7497 C   0  0  0  0  0  0  0  0  0  0  0  0
    8.2763  -16.6685   22.2791 O   0  0  0  0  0  0  0  0  0  0  0  0
   14.2852  -18.3219   23.6678 N   0  0  0  0  0  0  0  0  0  0  0  0
   13.0463  -18.1281   23.0221 C   0  0  0  0  0  0  0  0  0  0  0  0
   12.6035  -19.1713   22.4091 O   0  0  0  0  0  0  0  0  0  0  0  0
   12.2634  -16.8734   23.0057 C   0  0  0  0  0  0  0  0  0  0  0  0
   10.7987  -17.0968   23.3590 C   0  0  2  0  0  0  0  0  0  0  0  0
   10.1022  -15.7891   23.3231 N   0  0  0  0  0  0  0  0  0  0  0  0
   10.7587  -17.5267   24.7750 C   0  0  0  0  0  0  0  0  0  0  0  0
   11.0843  -18.8286   25.1014 O   0  0  0  0  0  0  0  0  0  0  0  0
   10.4398  -16.7537   25.6881 O   0  0  0  0  0  0  0  0  0  0  0  0
  2  1  1  1
  3  2  1  0
  4  2  1  0
  4  5  1  6
  4  6  1  0
  6  7  2  0
  9  8  1  0
 10  9  1  1
 10 12  1  0
 11  6  1  0
 11 10  1  0
 12 19  1  0
 13 12  2  0
 15 14  1  0
 16 15  2  0
 17 15  1  0
 18 17  1  1
 19 18  1  0
 20 18  1  0
 20 21  1  0
 22 20  2  0
M  END
$$$$
