TSN.pdb
     RDKit          3D

 22 21  0  0  1  0  0  0  0  0999 V2000
   -4.2671  -28.2732   30.1029 C   0  0  0  0  0  0  0  0  0  0  0  0
   -3.3281  -27.9751   31.2291 C   0  0  1  0  0  0  0  0  0  0  0  0
   -2.6886  -29.1561   31.5979 O   0  0  0  0  0  0  0  0  0  0  0  0
   -2.3291  -26.8844   30.9093 C   0  0  2  0  0  0  0  0  0  0  0  0
   -1.3547  -26.7654   31.9433 N   0  0  0  0  0  0  0  0  0  0  0  0
   -3.0834  -25.6312   30.6541 C   0  0  0  0  0  0  0  0  0  0  0  0
   -3.6179  -25.0038   31.6090 O   0  0  0  0  0  0  0  0  0  0  0  0
   -4.2858  -21.8230   27.8937 O   0  0  0  0  0  0  0  0  0  0  0  0
   -3.5465  -23.0211   28.0127 C   0  0  0  0  0  0  0  0  0  0  0  0
   -4.0381  -23.8636   29.1373 C   0  0  2  0  0  0  0  0  0  0  0  0
   -3.2628  -25.0530   29.3695 N   0  0  0  0  0  0  0  0  0  0  0  0
   -5.4764  -24.1693   28.9235 C   0  0  0  0  0  0  0  0  0  0  0  0
   -5.8659  -25.1041   28.1640 O   0  0  0  0  0  0  0  0  0  0  0  0
  -10.9061  -23.3909   30.4014 N   0  0  0  0  0  0  0  0  0  0  0  0
   -9.9321  -24.3536   30.7385 C   0  0  0  0  0  0  0  0  0  0  0  0
  -10.4160  -25.5104   31.0347 O   0  0  0  0  0  0  0  0  0  0  0  0
   -8.4698  -24.1341   30.7702 C   0  0  0  0  0  0  0  0  0  0  0  0
   -7.9155  -23.7102   29.4164 C   0  0  2  0  0  0  0  0  0  0  0  0
   -6.4712  -23.4160   29.5714 N   0  0  0  0  0  0  0  0  0  0  0  0
   -8.5483  -22.4149   29.0792 C   0  0  0  0  0  0  0  0  0  0  0  0
   -9.6941  -22.3964   28.3085 O   0  0  0  0  0  0  0  0  0  0  0  0
   -8.0824  -21.3351   29.4663 O   0  0  0  0  0  0  0  0  0  0  0  0
  2  1  1  6
  3  2  1  0
  4  2  1  0
  4  5  1  1
  4  6  1  0
  6  7  2  0
  9  8  1  0
 10  9  1  6
 10 12  1  0
 11  6  1  0
 11 10  1  0
 12 19  1  0
 13 12  2  0
 15 14  1  0
 16 15  2  0
 17 15  1  0
 18 17  1  1
 19 18  1  0
 20 18  1  0
 20 21  1  0
 22 20  2  0
M  END
$$$$
