TSN.pdb
     RDKit          3D

 22 21  0  0  1  0  0  0  0  0999 V2000
    8.4889  -16.2819   18.3225 C   0  0  0  0  0  0  0  0  0  0  0  0
    8.5553  -14.9020   17.7478 C   0  0  1  0  0  0  0  0  0  0  0  0
    8.1031  -14.9476   16.4312 O   0  0  0  0  0  0  0  0  0  0  0  0
    7.7942  -13.8740   18.5564 C   0  0  2  0  0  0  0  0  0  0  0  0
    7.8026  -12.6050   17.9066 N   0  0  0  0  0  0  0  0  0  0  0  0
    8.3711  -13.8470   19.9243 C   0  0  0  0  0  0  0  0  0  0  0  0
    9.5311  -13.3908   20.1175 O   0  0  0  0  0  0  0  0  0  0  0  0
    6.5798  -15.8606   23.2149 O   0  0  0  0  0  0  0  0  0  0  0  0
    7.4042  -14.7463   23.4885 C   0  0  0  0  0  0  0  0  0  0  0  0
    8.3386  -14.4620   22.3651 C   0  0  2  0  0  0  0  0  0  0  0  0
    7.6985  -14.3119   21.0854 N   0  0  0  0  0  0  0  0  0  0  0  0
    9.3988  -15.5028   22.3388 C   0  0  0  0  0  0  0  0  0  0  0  0
    9.5564  -16.2862   21.3569 O   0  0  0  0  0  0  0  0  0  0  0  0
   12.7220  -15.4145   20.5349 N   0  0  0  0  0  0  0  0  0  0  0  0
   12.9290  -16.3318   21.5861 C   0  0  0  0  0  0  0  0  0  0  0  0
   13.4133  -17.4645   21.2084 O   0  0  0  0  0  0  0  0  0  0  0  0
   12.6436  -16.0903   23.0170 C   0  0  0  0  0  0  0  0  0  0  0  0
   11.3224  -16.7060   23.4589 C   0  0  2  0  0  0  0  0  0  0  0  0
   10.2792  -15.6539   23.4246 N   0  0  0  0  0  0  0  0  0  0  0  0
   11.4725  -17.0668   24.8868 C   0  0  0  0  0  0  0  0  0  0  0  0
   11.1984  -16.1259   25.8599 O   0  0  0  0  0  0  0  0  0  0  0  0
   11.8395  -18.1936   25.2452 O   0  0  0  0  0  0  0  0  0  0  0  0
  2  1  1  1
  3  2  1  0
  4  2  1  0
  4  5  1  6
  4  6  1  0
  6  7  2  0
  9  8  1  0
 10  9  1  1
 10 12  1  0
 11  6  1  0
 11 10  1  0
 12 19  1  0
 13 12  2  0
 15 14  1  0
 16 15  2  0
 17 15  1  0
 18 17  1  1
 19 18  1  0
 20 18  1  0
 20 21  1  0
 22 20  2  0
M  END
$$$$
