TSN.pdb
     RDKit          3D

 22 21  0  0  1  0  0  0  0  0999 V2000
   11.8835  -19.4432   19.7528 C   0  0  0  0  0  0  0  0  0  0  0  0
   11.5697  -18.3760   20.7536 C   0  0  1  0  0  0  0  0  0  0  0  0
   12.6444  -18.2618   21.6321 O   0  0  0  0  0  0  0  0  0  0  0  0
   11.2268  -17.0423   20.1263 C   0  0  2  0  0  0  0  0  0  0  0  0
   12.3234  -16.5380   19.3674 N   0  0  0  0  0  0  0  0  0  0  0  0
   10.7794  -16.1278   21.2073 C   0  0  0  0  0  0  0  0  0  0  0  0
   11.5608  -15.2477   21.6609 O   0  0  0  0  0  0  0  0  0  0  0  0
    6.9731  -16.3814   23.2067 O   0  0  0  0  0  0  0  0  0  0  0  0
    7.6166  -15.1371   23.0224 C   0  0  0  0  0  0  0  0  0  0  0  0
    9.0897  -15.2939   22.8764 C   0  0  2  0  0  0  0  0  0  0  0  0
    9.4896  -16.1613   21.8006 N   0  0  0  0  0  0  0  0  0  0  0  0
    9.6651  -15.7200   24.1785 C   0  0  0  0  0  0  0  0  0  0  0  0
   10.2194  -16.8467   24.3392 O   0  0  0  0  0  0  0  0  0  0  0  0
   11.2073  -15.5702   29.3023 N   0  0  0  0  0  0  0  0  0  0  0  0
   10.4159  -14.4548   28.9580 C   0  0  0  0  0  0  0  0  0  0  0  0
   10.1906  -13.6473   29.9364 O   0  0  0  0  0  0  0  0  0  0  0  0
    9.8595  -14.1662   27.6184 C   0  0  0  0  0  0  0  0  0  0  0  0
   10.2607  -15.2101   26.5843 C   0  0  2  0  0  0  0  0  0  0  0  0
    9.6122  -14.8686   25.2962 N   0  0  0  0  0  0  0  0  0  0  0  0
    9.6496  -16.4906   27.0067 C   0  0  0  0  0  0  0  0  0  0  0  0
    8.3110  -16.7218   26.7577 O   0  0  0  0  0  0  0  0  0  0  0  0
   10.3013  -17.3719   27.5824 O   0  0  0  0  0  0  0  0  0  0  0  0
  2  1  1  6
  3  2  1  0
  4  2  1  0
  4  5  1  1
  4  6  1  0
  6  7  2  0
  9  8  1  0
 10  9  1  1
 10 12  1  0
 11  6  1  0
 11 10  1  0
 12 19  1  0
 13 12  2  0
 15 14  1  0
 16 15  2  0
 17 15  1  0
 18 17  1  1
 19 18  1  0
 20 18  1  0
 20 21  1  0
 22 20  2  0
M  END
$$$$
