TSN.pdb
     RDKit          3D

 22 21  0  0  1  0  0  0  0  0999 V2000
    6.4267  -18.6268   17.3202 C   0  0  0  0  0  0  0  0  0  0  0  0
    7.1941  -18.0658   18.4759 C   0  0  1  0  0  0  0  0  0  0  0  0
    7.9815  -19.0783   19.0188 O   0  0  0  0  0  0  0  0  0  0  0  0
    8.0258  -16.8537   18.1168 C   0  0  2  0  0  0  0  0  0  0  0  0
    8.9622  -17.1637   17.0874 N   0  0  0  0  0  0  0  0  0  0  0  0
    8.6551  -16.3436   19.3612 C   0  0  0  0  0  0  0  0  0  0  0  0
    9.8618  -16.6059   19.6184 O   0  0  0  0  0  0  0  0  0  0  0  0
    6.5394  -15.0649   22.8464 O   0  0  0  0  0  0  0  0  0  0  0  0
    7.6876  -14.3425   22.4516 C   0  0  0  0  0  0  0  0  0  0  0  0
    8.5784  -15.1557   21.5792 C   0  0  2  0  0  0  0  0  0  0  0  0
    7.9845  -15.5506   20.3298 N   0  0  0  0  0  0  0  0  0  0  0  0
    9.0813  -16.3224   22.3500 C   0  0  0  0  0  0  0  0  0  0  0  0
    9.1626  -17.4823   21.8495 O   0  0  0  0  0  0  0  0  0  0  0  0
   12.7820  -18.3510   25.5383 N   0  0  0  0  0  0  0  0  0  0  0  0
   12.9185  -17.5834   24.3630 C   0  0  0  0  0  0  0  0  0  0  0  0
   14.1196  -17.5415   23.8984 O   0  0  0  0  0  0  0  0  0  0  0  0
   11.8308  -16.8638   23.6656 C   0  0  0  0  0  0  0  0  0  0  0  0
   10.4736  -17.0842   24.3208 C   0  0  2  0  0  0  0  0  0  0  0  0
    9.4922  -16.1727   23.6863 N   0  0  0  0  0  0  0  0  0  0  0  0
   10.5927  -16.6223   25.7223 C   0  0  0  0  0  0  0  0  0  0  0  0
   10.7709  -15.2781   25.9840 O   0  0  0  0  0  0  0  0  0  0  0  0
   10.5387  -17.4057   26.6795 O   0  0  0  0  0  0  0  0  0  0  0  0
  2  1  1  6
  3  2  1  0
  4  2  1  0
  4  5  1  6
  4  6  1  0
  6  7  2  0
  9  8  1  0
 10  9  1  1
 10 12  1  0
 11  6  1  0
 11 10  1  0
 12 19  1  0
 13 12  2  0
 15 14  1  0
 16 15  2  0
 17 15  1  0
 18 17  1  6
 19 18  1  0
 20 18  1  0
 20 21  1  0
 22 20  2  0
M  END
$$$$
