TSN.pdb
     RDKit          3D

 22 21  0  0  1  0  0  0  0  0999 V2000
    7.0080  -18.7811   19.7127 C   0  0  0  0  0  0  0  0  0  0  0  0
    7.6982  -18.4095   18.4382 C   0  0  1  0  0  0  0  0  0  0  0  0
    7.1619  -19.1733   17.4043 O   0  0  0  0  0  0  0  0  0  0  0  0
    7.6297  -16.9310   18.1235 C   0  0  2  0  0  0  0  0  0  0  0  0
    8.0797  -16.6701   16.7961 N   0  0  0  0  0  0  0  0  0  0  0  0
    8.3963  -16.2035   19.1665 C   0  0  0  0  0  0  0  0  0  0  0  0
    9.6486  -16.0866   19.0712 O   0  0  0  0  0  0  0  0  0  0  0  0
    6.8006  -15.0271   22.9723 O   0  0  0  0  0  0  0  0  0  0  0  0
    7.7736  -14.2167   22.3457 C   0  0  0  0  0  0  0  0  0  0  0  0
    8.5833  -14.9868   21.3623 C   0  0  2  0  0  0  0  0  0  0  0  0
    7.8141  -15.6016   20.3134 N   0  0  0  0  0  0  0  0  0  0  0  0
    9.4221  -15.9743   22.0898 C   0  0  0  0  0  0  0  0  0  0  0  0
    9.1412  -17.2081   22.1249 O   0  0  0  0  0  0  0  0  0  0  0  0
   14.4792  -17.9796   23.4561 N   0  0  0  0  0  0  0  0  0  0  0  0
   13.9284  -16.7967   23.9913 C   0  0  0  0  0  0  0  0  0  0  0  0
   14.3788  -16.4875   25.1582 O   0  0  0  0  0  0  0  0  0  0  0  0
   12.9230  -15.9334   23.3347 C   0  0  0  0  0  0  0  0  0  0  0  0
   11.5212  -16.5266   23.3904 C   0  0  2  0  0  0  0  0  0  0  0  0
   10.5784  -15.5624   22.7755 N   0  0  0  0  0  0  0  0  0  0  0  0
   11.1398  -16.5952   24.8192 C   0  0  0  0  0  0  0  0  0  0  0  0
   10.2357  -15.6834   25.3277 O   0  0  0  0  0  0  0  0  0  0  0  0
   11.6074  -17.4489   25.5843 O   0  0  0  0  0  0  0  0  0  0  0  0
  2  1  1  1
  3  2  1  0
  4  2  1  0
  4  5  1  6
  4  6  1  0
  6  7  2  0
  9  8  1  0
 10  9  1  1
 10 12  1  0
 11  6  1  0
 11 10  1  0
 12 19  1  0
 13 12  2  0
 15 14  1  0
 16 15  2  0
 17 15  1  0
 18 17  1  1
 19 18  1  0
 20 18  1  0
 20 21  1  0
 22 20  2  0
M  END
$$$$
