AMI.pdb
     RDKit          3D

 22 21  0  0  1  0  0  0  0  0999 V2000
   10.8035  -18.0943   20.8548 C   0  0  0  0  0  0  0  0  0  0  0  0
    9.9808  -16.8560   20.7346 C   0  0  2  0  0  0  0  0  0  0  0  0
   10.5558  -16.0170   19.7058 N   0  0  0  0  0  0  0  0  0  0  0  0
    9.8139  -16.1248   22.0188 C   0  0  0  0  0  0  0  0  0  0  0  0
   10.8175  -15.5352   22.4883 O   0  0  0  0  0  0  0  0  0  0  0  0
    5.8593  -12.2522   24.8715 C   0  0  0  0  0  0  0  0  0  0  0  0
    7.1962  -13.1083   25.7555 S   0  0  0  0  0  0  0  0  0  0  0  0
    6.7666  -14.8895   25.7844 C   0  0  0  0  0  0  0  0  0  0  0  0
    6.8746  -15.3777   24.3708 C   0  0  0  0  0  0  0  0  0  0  0  0
    8.3510  -15.4771   24.0096 C   0  0  2  0  0  0  0  0  0  0  0  0
    8.5934  -16.0658   22.7229 N   0  0  0  0  0  0  0  0  0  0  0  0
    9.0307  -16.1732   25.0982 C   0  0  0  0  0  0  0  0  0  0  0  0
    9.2936  -17.4030   24.9388 O   0  0  0  0  0  0  0  0  0  0  0  0
   10.8007  -13.1570   29.4234 C   0  0  0  0  0  0  0  0  0  0  0  0
   10.8595  -14.0091   28.1783 C   0  0  0  0  0  0  0  0  0  0  0  0
   10.4617  -15.4382   28.5435 C   0  0  2  0  0  0  0  0  0  0  0  0
   11.4679  -16.0726   29.4768 C   0  0  0  0  0  0  0  0  0  0  0  0
   10.2694  -16.2748   27.2918 C   0  0  2  0  0  0  0  0  0  0  0  0
    9.4272  -15.5972   26.3271 N   0  0  0  0  0  0  0  0  0  0  0  0
    9.6419  -17.5812   27.6023 C   0  0  0  0  0  0  0  0  0  0  0  0
    8.3945  -17.7182   27.6342 O   0  0  0  0  0  0  0  0  0  0  0  0
   10.4046  -18.7087   27.8711 O   0  0  0  0  0  0  0  0  0  0  0  0
  2  4  1  0
  2  3  1  0
  2  1  1  1
  4  5  2  0
  7  6  1  0
  7  8  1  0
  8  9  1  0
 10  9  1  1
 10 12  1  0
 11 10  1  0
 11  4  1  0
 12 13  2  0
 12 19  1  0
 15 14  1  0
 16 17  1  1
 16 15  1  0
 18 16  1  0
 18 19  1  6
 20 18  1  0
 20 22  1  0
 21 20  2  0
M  END
$$$$
