AMI.pdb
     RDKit          3D

 22 21  0  0  1  0  0  0  0  0999 V2000
    9.8114  -17.2429   19.9749 C   0  0  0  0  0  0  0  0  0  0  0  0
    8.8043  -16.2540   20.4576 C   0  0  2  0  0  0  0  0  0  0  0  0
    8.6416  -15.2300   19.4487 N   0  0  0  0  0  0  0  0  0  0  0  0
    9.1280  -15.6758   21.7889 C   0  0  0  0  0  0  0  0  0  0  0  0
   10.2756  -15.1945   21.9518 O   0  0  0  0  0  0  0  0  0  0  0  0
    6.2146  -11.9521   26.7403 C   0  0  0  0  0  0  0  0  0  0  0  0
    5.2947  -12.7404   25.3861 S   0  0  0  0  0  0  0  0  0  0  0  0
    6.5337  -13.4098   24.2135 C   0  0  0  0  0  0  0  0  0  0  0  0
    7.0723  -14.6651   24.8319 C   0  0  0  0  0  0  0  0  0  0  0  0
    8.3839  -15.0153   24.1411 C   0  0  2  0  0  0  0  0  0  0  0  0
    8.2139  -15.6453   22.8624 N   0  0  0  0  0  0  0  0  0  0  0  0
    9.1805  -15.8088   25.0723 C   0  0  0  0  0  0  0  0  0  0  0  0
    9.5427  -16.9656   24.7014 O   0  0  0  0  0  0  0  0  0  0  0  0
   11.1627  -13.2206   29.4435 C   0  0  0  0  0  0  0  0  0  0  0  0
   11.2736  -14.0584   28.1923 C   0  0  0  0  0  0  0  0  0  0  0  0
   10.7826  -15.4712   28.5037 C   0  0  2  0  0  0  0  0  0  0  0  0
   11.7944  -16.2425   29.3205 C   0  0  0  0  0  0  0  0  0  0  0  0
   10.4324  -16.2084   27.2240 C   0  0  2  0  0  0  0  0  0  0  0  0
    9.5900  -15.4030   26.3633 N   0  0  0  0  0  0  0  0  0  0  0  0
    9.7144  -17.4741   27.5050 C   0  0  0  0  0  0  0  0  0  0  0  0
    8.4810  -17.4902   27.7386 O   0  0  0  0  0  0  0  0  0  0  0  0
   10.3728  -18.6954   27.5223 O   0  0  0  0  0  0  0  0  0  0  0  0
  2  4  1  0
  2  3  1  0
  2  1  1  6
  4  5  2  0
  7  6  1  0
  7  8  1  0
  8  9  1  0
 10  9  1  1
 10 12  1  0
 11 10  1  0
 11  4  1  0
 12 13  2  0
 12 19  1  0
 15 14  1  0
 16 17  1  6
 16 15  1  0
 18 16  1  0
 18 19  1  6
 20 18  1  0
 20 22  1  0
 21 20  2  0
M  END
$$$$
