AMI.pdb
     RDKit          3D

 22 21  0  0  1  0  0  0  0  0999 V2000
    6.3969  -19.4875   25.7781 C   0  0  0  0  0  0  0  0  0  0  0  0
    6.2203  -19.1777   24.3298 C   0  0  2  0  0  0  0  0  0  0  0  0
    6.2694  -20.4158   23.5829 N   0  0  0  0  0  0  0  0  0  0  0  0
    7.1914  -18.1776   23.8118 C   0  0  0  0  0  0  0  0  0  0  0  0
    8.4138  -18.4287   23.9457 O   0  0  0  0  0  0  0  0  0  0  0  0
    8.4530  -11.7657   19.4043 C   0  0  0  0  0  0  0  0  0  0  0  0
    7.2701  -13.0590   19.8836 S   0  0  0  0  0  0  0  0  0  0  0  0
    8.0569  -14.0392   21.2171 C   0  0  0  0  0  0  0  0  0  0  0  0
    7.0060  -14.9740   21.7368 C   0  0  0  0  0  0  0  0  0  0  0  0
    7.6487  -15.8917   22.7687 C   0  0  2  0  0  0  0  0  0  0  0  0
    6.8039  -16.9750   23.1854 N   0  0  0  0  0  0  0  0  0  0  0  0
    8.1095  -15.0618   23.8780 C   0  0  0  0  0  0  0  0  0  0  0  0
    7.8166  -13.8287   23.8535 O   0  0  0  0  0  0  0  0  0  0  0  0
    6.1985  -12.5280   26.6797 C   0  0  0  0  0  0  0  0  0  0  0  0
    7.3472  -13.1060   25.8885 C   0  0  0  0  0  0  0  0  0  0  0  0
    8.1631  -14.0172   26.8039 C   0  0  2  0  0  0  0  0  0  0  0  0
    8.6422  -13.2814   28.0348 C   0  0  0  0  0  0  0  0  0  0  0  0
    9.3243  -14.6338   26.0455 C   0  0  2  0  0  0  0  0  0  0  0  0
    8.8602  -15.5101   24.9892 N   0  0  0  0  0  0  0  0  0  0  0  0
   10.1983  -15.4276   26.9413 C   0  0  0  0  0  0  0  0  0  0  0  0
    9.9807  -16.6445   27.1600 O   0  0  0  0  0  0  0  0  0  0  0  0
   11.2942  -14.8615   27.5770 O   0  0  0  0  0  0  0  0  0  0  0  0
  2  4  1  0
  2  3  1  0
  2  1  1  1
  4  5  2  0
  7  6  1  0
  7  8  1  0
  8  9  1  0
 10  9  1  6
 10 12  1  0
 11 10  1  0
 11  4  1  0
 12 13  2  0
 12 19  1  0
 15 14  1  0
 16 17  1  1
 16 15  1  0
 18 16  1  0
 18 19  1  6
 20 18  1  0
 20 22  1  0
 21 20  2  0
M  END
$$$$
