AMI.pdb
     RDKit          3D

 22 21  0  0  1  0  0  0  0  0999 V2000
    5.9298  -19.3044   23.7592 C   0  0  0  0  0  0  0  0  0  0  0  0
    6.5779  -18.3485   22.8151 C   0  0  2  0  0  0  0  0  0  0  0  0
    7.1191  -19.0951   21.7004 N   0  0  0  0  0  0  0  0  0  0  0  0
    7.6042  -17.4830   23.4549 C   0  0  0  0  0  0  0  0  0  0  0  0
    8.7586  -17.9549   23.5958 O   0  0  0  0  0  0  0  0  0  0  0  0
    6.4212  -11.3976   27.0927 C   0  0  0  0  0  0  0  0  0  0  0  0
    5.9232  -12.0715   25.4804 S   0  0  0  0  0  0  0  0  0  0  0  0
    6.4959  -13.8114   25.4254 C   0  0  0  0  0  0  0  0  0  0  0  0
    7.7411  -13.8248   24.5902 C   0  0  0  0  0  0  0  0  0  0  0  0
    8.2570  -15.2563   24.5218 C   0  0  2  0  0  0  0  0  0  0  0  0
    7.3404  -16.1727   23.9045 N   0  0  0  0  0  0  0  0  0  0  0  0
    8.6478  -15.6545   25.8709 C   0  0  0  0  0  0  0  0  0  0  0  0
    7.7733  -16.2160   26.5968 O   0  0  0  0  0  0  0  0  0  0  0  0
   11.9658  -19.2068   27.0484 C   0  0  0  0  0  0  0  0  0  0  0  0
   10.8375  -18.2045   27.0948 C   0  0  0  0  0  0  0  0  0  0  0  0
   11.3278  -16.9478   27.8119 C   0  0  2  0  0  0  0  0  0  0  0  0
   11.7812  -17.2547   29.2212 C   0  0  0  0  0  0  0  0  0  0  0  0
   10.2547  -15.8744   27.8012 C   0  0  2  0  0  0  0  0  0  0  0  0
    9.9246  -15.4702   26.4497 N   0  0  0  0  0  0  0  0  0  0  0  0
   10.6871  -14.6661   28.5426 C   0  0  0  0  0  0  0  0  0  0  0  0
   10.4661  -14.5370   29.7716 O   0  0  0  0  0  0  0  0  0  0  0  0
   11.3544  -13.6258   27.9119 O   0  0  0  0  0  0  0  0  0  0  0  0
  2  4  1  0
  2  3  1  0
  2  1  1  1
  4  5  2  0
  7  6  1  0
  7  8  1  0
  8  9  1  0
 10  9  1  1
 10 12  1  0
 11 10  1  0
 11  4  1  0
 12 13  2  0
 12 19  1  0
 15 14  1  0
 16 17  1  1
 16 15  1  0
 18 16  1  0
 18 19  1  6
 20 18  1  0
 20 22  1  0
 21 20  2  0
M  END
$$$$
