AMI.pdb
     RDKit          3D

 22 21  0  0  1  0  0  0  0  0999 V2000
   13.2547  -19.4967   21.3108 C   0  0  0  0  0  0  0  0  0  0  0  0
   12.6981  -18.2599   20.6899 C   0  0  2  0  0  0  0  0  0  0  0  0
   13.7001  -17.6904   19.8156 N   0  0  0  0  0  0  0  0  0  0  0  0
   12.1973  -17.2699   21.6802 C   0  0  0  0  0  0  0  0  0  0  0  0
   13.0192  -16.4421   22.1434 O   0  0  0  0  0  0  0  0  0  0  0  0
    6.9042  -13.4596   21.1421 C   0  0  0  0  0  0  0  0  0  0  0  0
    6.6764  -14.2776   22.7485 S   0  0  0  0  0  0  0  0  0  0  0  0
    8.3431  -14.7267   23.3638 C   0  0  0  0  0  0  0  0  0  0  0  0
    8.8221  -15.8619   22.5094 C   0  0  0  0  0  0  0  0  0  0  0  0
   10.2385  -16.2211   22.9394 C   0  0  2  0  0  0  0  0  0  0  0  0
   10.8570  -17.2213   22.1160 N   0  0  0  0  0  0  0  0  0  0  0  0
   10.1968  -16.5844   24.3528 C   0  0  0  0  0  0  0  0  0  0  0  0
   10.0456  -17.8091   24.6428 O   0  0  0  0  0  0  0  0  0  0  0  0
    9.3751  -12.8980   28.6319 C   0  0  0  0  0  0  0  0  0  0  0  0
    9.2364  -14.0463   27.6614 C   0  0  0  0  0  0  0  0  0  0  0  0
   10.4799  -14.9277   27.7643 C   0  0  2  0  0  0  0  0  0  0  0  0
   11.7428  -14.1373   27.5067 C   0  0  0  0  0  0  0  0  0  0  0  0
   10.3725  -16.1139   26.8235 C   0  0  2  0  0  0  0  0  0  0  0  0
   10.3106  -15.6878   25.4402 N   0  0  0  0  0  0  0  0  0  0  0  0
    9.1617  -16.9217   27.1034 C   0  0  0  0  0  0  0  0  0  0  0  0
    8.1472  -16.8590   26.3667 O   0  0  0  0  0  0  0  0  0  0  0  0
    9.0963  -17.7815   28.1905 O   0  0  0  0  0  0  0  0  0  0  0  0
  2  4  1  0
  2  3  1  0
  2  1  1  1
  4  5  2  0
  7  6  1  0
  7  8  1  0
  8  9  1  0
 10  9  1  6
 10 12  1  0
 11 10  1  0
 11  4  1  0
 12 13  2  0
 12 19  1  0
 15 14  1  0
 16 17  1  6
 16 15  1  0
 18 16  1  0
 18 19  1  6
 20 18  1  0
 20 22  1  0
 21 20  2  0
M  END
$$$$
