AMI.pdb
     RDKit          3D

 22 21  0  0  1  0  0  0  0  0999 V2000
    6.4442  -19.3687   25.7511 C   0  0  0  0  0  0  0  0  0  0  0  0
    6.4404  -19.1926   24.2699 C   0  0  2  0  0  0  0  0  0  0  0  0
    6.5858  -20.4914   23.6496 N   0  0  0  0  0  0  0  0  0  0  0  0
    7.4605  -18.2266   23.7823 C   0  0  0  0  0  0  0  0  0  0  0  0
    8.6598  -18.5967   23.7810 O   0  0  0  0  0  0  0  0  0  0  0  0
    7.3329  -13.0235   19.0472 C   0  0  0  0  0  0  0  0  0  0  0  0
    7.5933  -12.4812   20.7618 S   0  0  0  0  0  0  0  0  0  0  0  0
    8.4518  -13.8463   21.6323 C   0  0  0  0  0  0  0  0  0  0  0  0
    7.3834  -14.7679   22.1395 C   0  0  0  0  0  0  0  0  0  0  0  0
    8.0526  -15.9026   22.9043 C   0  0  2  0  0  0  0  0  0  0  0  0
    7.1435  -16.9298   23.3277 N   0  0  0  0  0  0  0  0  0  0  0  0
    8.8084  -15.3133   24.0056 C   0  0  0  0  0  0  0  0  0  0  0  0
    9.7940  -14.5713   23.7141 O   0  0  0  0  0  0  0  0  0  0  0  0
    6.6475  -12.2174   27.1929 C   0  0  0  0  0  0  0  0  0  0  0  0
    7.6530  -12.9699   26.3549 C   0  0  0  0  0  0  0  0  0  0  0  0
    8.4288  -13.9248   27.2607 C   0  0  2  0  0  0  0  0  0  0  0  0
    9.2467  -13.1740   28.2870 C   0  0  0  0  0  0  0  0  0  0  0  0
    9.3009  -14.8530   26.4350 C   0  0  2  0  0  0  0  0  0  0  0  0
    8.5408  -15.4951   25.3820 N   0  0  0  0  0  0  0  0  0  0  0  0
    9.9055  -15.9172   27.2709 C   0  0  0  0  0  0  0  0  0  0  0  0
    9.2969  -16.9891   27.5088 O   0  0  0  0  0  0  0  0  0  0  0  0
   11.1691  -15.7758   27.8265 O   0  0  0  0  0  0  0  0  0  0  0  0
  2  4  1  0
  2  3  1  0
  2  1  1  1
  4  5  2  0
  7  6  1  0
  7  8  1  0
  8  9  1  0
 10  9  1  1
 10 12  1  0
 11 10  1  0
 11  4  1  0
 12 13  2  0
 12 19  1  0
 15 14  1  0
 16 17  1  1
 16 15  1  0
 18 16  1  0
 18 19  1  6
 20 18  1  0
 20 22  1  0
 21 20  2  0
M  END
$$$$
