AMI.pdb
     RDKit          3D

 22 21  0  0  1  0  0  0  0  0999 V2000
    8.5070  -17.7144   20.7665 C   0  0  0  0  0  0  0  0  0  0  0  0
    8.6050  -16.2288   20.8583 C   0  0  2  0  0  0  0  0  0  0  0  0
    9.5475  -15.7654   19.8634 N   0  0  0  0  0  0  0  0  0  0  0  0
    8.9475  -15.7374   22.2195 C   0  0  0  0  0  0  0  0  0  0  0  0
   10.1634  -15.6225   22.5087 O   0  0  0  0  0  0  0  0  0  0  0  0
    6.8551  -11.8068   27.1092 C   0  0  0  0  0  0  0  0  0  0  0  0
    5.5917  -12.2852   25.8941 S   0  0  0  0  0  0  0  0  0  0  0  0
    6.4390  -13.2588   24.5931 C   0  0  0  0  0  0  0  0  0  0  0  0
    6.9352  -14.5109   25.2520 C   0  0  0  0  0  0  0  0  0  0  0  0
    8.2019  -14.9601   24.5352 C   0  0  2  0  0  0  0  0  0  0  0  0
    7.9786  -15.3996   23.1869 N   0  0  0  0  0  0  0  0  0  0  0  0
    8.8526  -15.9670   25.3683 C   0  0  0  0  0  0  0  0  0  0  0  0
    8.7182  -17.1832   25.0371 O   0  0  0  0  0  0  0  0  0  0  0  0
   12.8995  -13.8224   28.2524 C   0  0  0  0  0  0  0  0  0  0  0  0
   12.2088  -14.6894   27.2272 C   0  0  0  0  0  0  0  0  0  0  0  0
   11.6215  -15.9100   27.9337 C   0  0  2  0  0  0  0  0  0  0  0  0
   12.7055  -16.8515   28.4074 C   0  0  0  0  0  0  0  0  0  0  0  0
   10.6300  -16.6226   27.0320 C   0  0  2  0  0  0  0  0  0  0  0  0
    9.6272  -15.7093   26.5228 N   0  0  0  0  0  0  0  0  0  0  0  0
    9.9276  -17.7120   27.7505 C   0  0  0  0  0  0  0  0  0  0  0  0
   10.4472  -18.8460   27.8914 O   0  0  0  0  0  0  0  0  0  0  0  0
    8.6662  -17.5269   28.2983 O   0  0  0  0  0  0  0  0  0  0  0  0
  2  4  1  0
  2  3  1  0
  2  1  1  1
  4  5  2  0
  7  6  1  0
  7  8  1  0
  8  9  1  0
 10  9  1  1
 10 12  1  0
 11 10  1  0
 11  4  1  0
 12 13  2  0
 12 19  1  0
 15 14  1  0
 16 17  1  6
 16 15  1  0
 18 16  1  0
 18 19  1  1
 20 18  1  0
 20 22  1  0
 21 20  2  0
M  END
$$$$
