AMI.pdb
     RDKit          3D

 22 21  0  0  1  0  0  0  0  0999 V2000
   10.2881  -15.7044   19.3406 C   0  0  0  0  0  0  0  0  0  0  0  0
   10.0067  -16.6639   20.4475 C   0  0  2  0  0  0  0  0  0  0  0  0
    8.7612  -17.3433   20.1649 N   0  0  0  0  0  0  0  0  0  0  0  0
   10.0028  -16.0343   21.7948 C   0  0  0  0  0  0  0  0  0  0  0  0
   11.0928  -15.5958   22.2363 O   0  0  0  0  0  0  0  0  0  0  0  0
    5.7657  -11.7836   25.7096 C   0  0  0  0  0  0  0  0  0  0  0  0
    5.6042  -13.5879   25.8521 S   0  0  0  0  0  0  0  0  0  0  0  0
    7.2738  -14.2985   25.5951 C   0  0  0  0  0  0  0  0  0  0  0  0
    7.2796  -14.8868   24.2159 C   0  0  0  0  0  0  0  0  0  0  0  0
    8.7146  -15.2490   23.8555 C   0  0  2  0  0  0  0  0  0  0  0  0
    8.8433  -15.9103   22.5878 N   0  0  0  0  0  0  0  0  0  0  0  0
    9.2727  -16.0171   24.9645 C   0  0  0  0  0  0  0  0  0  0  0  0
    9.4243  -17.2650   24.8005 O   0  0  0  0  0  0  0  0  0  0  0  0
   10.8995  -13.1771   29.3999 C   0  0  0  0  0  0  0  0  0  0  0  0
   11.0823  -14.0193   28.1601 C   0  0  0  0  0  0  0  0  0  0  0  0
   10.6359  -15.4475   28.4679 C   0  0  2  0  0  0  0  0  0  0  0  0
   11.6027  -16.1420   29.4001 C   0  0  0  0  0  0  0  0  0  0  0  0
   10.4473  -16.2358   27.1847 C   0  0  2  0  0  0  0  0  0  0  0  0
    9.6641  -15.4933   26.2182 N   0  0  0  0  0  0  0  0  0  0  0  0
    9.7569  -17.5233   27.4342 C   0  0  0  0  0  0  0  0  0  0  0  0
    8.5066  -17.5901   27.5241 O   0  0  0  0  0  0  0  0  0  0  0  0
   10.4612  -18.7101   27.5792 O   0  0  0  0  0  0  0  0  0  0  0  0
  2  4  1  0
  2  3  1  0
  2  1  1  6
  4  5  2  0
  7  6  1  0
  7  8  1  0
  8  9  1  0
 10  9  1  1
 10 12  1  0
 11 10  1  0
 11  4  1  0
 12 13  2  0
 12 19  1  0
 15 14  1  0
 16 17  1  1
 16 15  1  0
 18 16  1  0
 18 19  1  6
 20 18  1  0
 20 22  1  0
 21 20  2  0
M  END
$$$$
