AMI.pdb
     RDKit          3D

 22 21  0  0  1  0  0  0  0  0999 V2000
    7.6749  -19.5159   21.5841 C   0  0  0  0  0  0  0  0  0  0  0  0
    7.4741  -18.0726   21.2652 C   0  0  2  0  0  0  0  0  0  0  0  0
    7.9573  -17.8239   19.9245 N   0  0  0  0  0  0  0  0  0  0  0  0
    8.0901  -17.1521   22.2575 C   0  0  0  0  0  0  0  0  0  0  0  0
    9.3274  -16.9557   22.1806 O   0  0  0  0  0  0  0  0  0  0  0  0
    6.8009  -11.2679   27.3331 C   0  0  0  0  0  0  0  0  0  0  0  0
    6.0284  -12.5932   26.3591 S   0  0  0  0  0  0  0  0  0  0  0  0
    7.3850  -13.6191   25.6769 C   0  0  0  0  0  0  0  0  0  0  0  0
    6.7397  -14.6594   24.8112 C   0  0  0  0  0  0  0  0  0  0  0  0
    7.8348  -15.5374   24.2197 C   0  0  2  0  0  0  0  0  0  0  0  0
    7.3546  -16.4989   23.2680 N   0  0  0  0  0  0  0  0  0  0  0  0
    8.5692  -16.1414   25.3275 C   0  0  0  0  0  0  0  0  0  0  0  0
    8.0817  -17.1835   25.8599 O   0  0  0  0  0  0  0  0  0  0  0  0
   14.3900  -16.1972   27.5148 C   0  0  0  0  0  0  0  0  0  0  0  0
   12.9995  -16.7844   27.5491 C   0  0  0  0  0  0  0  0  0  0  0  0
   12.0679  -15.8856   26.7377 C   0  0  2  0  0  0  0  0  0  0  0  0
   12.0373  -14.4778   27.2881 C   0  0  0  0  0  0  0  0  0  0  0  0
   10.6734  -16.4814   26.6742 C   0  0  2  0  0  0  0  0  0  0  0  0
    9.7867  -15.6673   25.8680 N   0  0  0  0  0  0  0  0  0  0  0  0
   10.0732  -16.6050   28.0237 C   0  0  0  0  0  0  0  0  0  0  0  0
    9.2979  -15.7289   28.4790 O   0  0  0  0  0  0  0  0  0  0  0  0
   10.3414  -17.6929   28.8422 O   0  0  0  0  0  0  0  0  0  0  0  0
  2  4  1  0
  2  3  1  0
  2  1  1  1
  4  5  2  0
  7  6  1  0
  7  8  1  0
  8  9  1  0
 10  9  1  1
 10 12  1  0
 11 10  1  0
 11  4  1  0
 12 13  2  0
 12 19  1  0
 15 14  1  0
 16 17  1  1
 16 15  1  0
 18 16  1  0
 18 19  1  6
 20 18  1  0
 20 22  1  0
 21 20  2  0
M  END
$$$$
