AMI.pdb
     RDKit          3D

 22 21  0  0  1  0  0  0  0  0999 V2000
   10.1173  -18.3594   20.6080 C   0  0  0  0  0  0  0  0  0  0  0  0
    9.6277  -16.9536   20.5142 C   0  0  2  0  0  0  0  0  0  0  0  0
   10.3449  -16.2843   19.4509 N   0  0  0  0  0  0  0  0  0  0  0  0
    9.7122  -16.2066   21.7974 C   0  0  0  0  0  0  0  0  0  0  0  0
   10.8362  -15.7684   22.1436 O   0  0  0  0  0  0  0  0  0  0  0  0
    5.9695  -11.4663   25.6880 C   0  0  0  0  0  0  0  0  0  0  0  0
    5.6578  -13.2498   25.8416 S   0  0  0  0  0  0  0  0  0  0  0  0
    7.2641  -14.0985   25.6012 C   0  0  0  0  0  0  0  0  0  0  0  0
    7.1595  -14.8525   24.3093 C   0  0  0  0  0  0  0  0  0  0  0  0
    8.5649  -15.2300   23.8595 C   0  0  2  0  0  0  0  0  0  0  0  0
    8.5994  -15.9725   22.6313 N   0  0  0  0  0  0  0  0  0  0  0  0
    9.2175  -15.9206   24.9679 C   0  0  0  0  0  0  0  0  0  0  0  0
    9.1512  -17.1862   24.9954 O   0  0  0  0  0  0  0  0  0  0  0  0
   10.5692  -13.1187   29.5203 C   0  0  0  0  0  0  0  0  0  0  0  0
   10.8902  -13.8440   28.2355 C   0  0  0  0  0  0  0  0  0  0  0  0
   10.5262  -15.3185   28.4013 C   0  0  2  0  0  0  0  0  0  0  0  0
   11.3938  -15.9903   29.4414 C   0  0  0  0  0  0  0  0  0  0  0  0
   10.6063  -16.0409   27.0688 C   0  0  2  0  0  0  0  0  0  0  0  0
    9.9243  -15.3027   26.0253 N   0  0  0  0  0  0  0  0  0  0  0  0
    9.9949  -17.3889   27.1438 C   0  0  0  0  0  0  0  0  0  0  0  0
   10.6953  -18.4298   27.0988 O   0  0  0  0  0  0  0  0  0  0  0  0
    8.6234  -17.5597   27.2667 O   0  0  0  0  0  0  0  0  0  0  0  0
  2  4  1  0
  2  3  1  0
  2  1  1  1
  4  5  2  0
  7  6  1  0
  7  8  1  0
  8  9  1  0
 10  9  1  1
 10 12  1  0
 11 10  1  0
 11  4  1  0
 12 13  2  0
 12 19  1  0
 15 14  1  0
 16 17  1  1
 16 15  1  0
 18 16  1  0
 18 19  1  6
 20 18  1  0
 20 22  1  0
 21 20  2  0
M  END
$$$$
