AMI.pdb
     RDKit          3D

 22 21  0  0  1  0  0  0  0  0999 V2000
    6.2544  -19.1039   25.3449 C   0  0  0  0  0  0  0  0  0  0  0  0
    6.3873  -18.9859   23.8639 C   0  0  2  0  0  0  0  0  0  0  0  0
    6.5694  -20.3096   23.3093 N   0  0  0  0  0  0  0  0  0  0  0  0
    7.4615  -18.0512   23.4349 C   0  0  0  0  0  0  0  0  0  0  0  0
    8.6287  -18.5046   23.3496 O   0  0  0  0  0  0  0  0  0  0  0  0
    7.8269  -12.2722   20.1254 C   0  0  0  0  0  0  0  0  0  0  0  0
    7.5168  -13.9227   19.4314 S   0  0  0  0  0  0  0  0  0  0  0  0
    6.9166  -14.9783   20.8039 C   0  0  0  0  0  0  0  0  0  0  0  0
    7.6037  -14.4953   22.0460 C   0  0  0  0  0  0  0  0  0  0  0  0
    8.1986  -15.6998   22.7639 C   0  0  2  0  0  0  0  0  0  0  0  0
    7.2291  -16.6954   23.1242 N   0  0  0  0  0  0  0  0  0  0  0  0
    8.9664  -15.2056   23.9030 C   0  0  0  0  0  0  0  0  0  0  0  0
   10.0248  -14.5510   23.6616 O   0  0  0  0  0  0  0  0  0  0  0  0
    6.5928  -12.2663   27.0365 C   0  0  0  0  0  0  0  0  0  0  0  0
    7.6878  -12.9290   26.2355 C   0  0  0  0  0  0  0  0  0  0  0  0
    8.4862  -13.8451   27.1614 C   0  0  2  0  0  0  0  0  0  0  0  0
    9.2972  -13.0524   28.1614 C   0  0  0  0  0  0  0  0  0  0  0  0
    9.3693  -14.7800   26.3552 C   0  0  2  0  0  0  0  0  0  0  0  0
    8.6361  -15.3911   25.2653 N   0  0  0  0  0  0  0  0  0  0  0  0
    9.9199  -15.8683   27.1972 C   0  0  0  0  0  0  0  0  0  0  0  0
   10.8008  -15.6453   28.0633 O   0  0  0  0  0  0  0  0  0  0  0  0
    9.4867  -17.1799   27.0654 O   0  0  0  0  0  0  0  0  0  0  0  0
  2  4  1  0
  2  3  1  0
  2  1  1  1
  4  5  2  0
  7  6  1  0
  7  8  1  0
  8  9  1  0
 10  9  1  1
 10 12  1  0
 11 10  1  0
 11  4  1  0
 12 13  2  0
 12 19  1  0
 15 14  1  0
 16 17  1  1
 16 15  1  0
 18 16  1  0
 18 19  1  6
 20 18  1  0
 20 22  1  0
 21 20  2  0
M  END
$$$$
