AMI.pdb
     RDKit          3D

 22 21  0  0  1  0  0  0  0  0999 V2000
    9.8992  -18.4321   20.5663 C   0  0  0  0  0  0  0  0  0  0  0  0
    9.4245  -17.0203   20.4852 C   0  0  2  0  0  0  0  0  0  0  0  0
   10.1250  -16.3584   19.4063 N   0  0  0  0  0  0  0  0  0  0  0  0
    9.5475  -16.2760   21.7668 C   0  0  0  0  0  0  0  0  0  0  0  0
   10.6829  -15.8447   22.0834 O   0  0  0  0  0  0  0  0  0  0  0  0
    5.6807  -11.6348   25.4666 C   0  0  0  0  0  0  0  0  0  0  0  0
    5.5758  -13.3778   25.9691 S   0  0  0  0  0  0  0  0  0  0  0  0
    7.2067  -14.1367   25.6194 C   0  0  0  0  0  0  0  0  0  0  0  0
    7.0711  -14.8562   24.3109 C   0  0  0  0  0  0  0  0  0  0  0  0
    8.4590  -15.2874   23.8549 C   0  0  2  0  0  0  0  0  0  0  0  0
    8.4588  -16.0370   22.6305 N   0  0  0  0  0  0  0  0  0  0  0  0
    9.0925  -15.9958   24.9632 C   0  0  0  0  0  0  0  0  0  0  0  0
    9.1029  -17.2628   24.9244 O   0  0  0  0  0  0  0  0  0  0  0  0
   10.8163  -13.0817   29.3426 C   0  0  0  0  0  0  0  0  0  0  0  0
   11.0155  -13.9278   28.1080 C   0  0  0  0  0  0  0  0  0  0  0  0
   10.5185  -15.3429   28.3986 C   0  0  2  0  0  0  0  0  0  0  0  0
   11.4043  -16.0467   29.4016 C   0  0  0  0  0  0  0  0  0  0  0  0
   10.4011  -16.1416   27.1133 C   0  0  2  0  0  0  0  0  0  0  0  0
    9.7021  -15.3938   26.0881 N   0  0  0  0  0  0  0  0  0  0  0  0
    9.6674  -17.4114   27.3276 C   0  0  0  0  0  0  0  0  0  0  0  0
    8.4137  -17.4429   27.3827 O   0  0  0  0  0  0  0  0  0  0  0  0
   10.3330  -18.6198   27.4765 O   0  0  0  0  0  0  0  0  0  0  0  0
  2  4  1  0
  2  3  1  0
  2  1  1  1
  4  5  2  0
  7  6  1  0
  7  8  1  0
  8  9  1  0
 10  9  1  1
 10 12  1  0
 11 10  1  0
 11  4  1  0
 12 13  2  0
 12 19  1  0
 15 14  1  0
 16 17  1  1
 16 15  1  0
 18 16  1  0
 18 19  1  6
 20 18  1  0
 20 22  1  0
 21 20  2  0
M  END
$$$$
