KID.pdb
     RDKit          3D

 26 25  0  0  1  0  0  0  0  0999 V2000
    9.1494  -18.3021   16.1020 N   0  0  0  0  0  0  0  0  0  0  0  0
    8.4252  -18.1038   17.3196 C   0  0  1  0  0  0  0  0  0  0  0  0
    8.1572  -19.3883   18.0573 C   0  0  0  0  0  0  0  0  0  0  0  0
    8.6449  -20.5231   17.1957 C   0  0  0  0  0  0  0  0  0  0  0  0
    8.3694  -21.8743   17.8024 C   0  0  0  0  0  0  0  0  0  0  0  0
    8.7786  -23.0063   16.8943 C   0  0  0  0  0  0  0  0  0  0  0  0
    8.5702  -24.2472   17.6252 N   0  0  0  0  0  0  0  0  0  0  0  0
    9.1420  -17.1033   18.1682 C   0  0  0  0  0  0  0  0  0  0  0  0
   10.3564  -16.8514   17.9808 O   0  0  0  0  0  0  0  0  0  0  0  0
    7.4229  -12.1076   21.3291 C   0  0  0  0  0  0  0  0  0  0  0  0
    8.4298  -13.1875   21.1436 C   0  0  0  0  0  0  0  0  0  0  0  0
    7.8308  -14.3522   20.3291 C   0  0  2  0  0  0  0  0  0  0  0  0
    6.7077  -14.8601   21.2251 C   0  0  0  0  0  0  0  0  0  0  0  0
    8.8919  -15.3679   20.0486 C   0  0  2  0  0  0  0  0  0  0  0  0
    8.4237  -16.4554   19.1766 N   0  0  0  0  0  0  0  0  0  0  0  0
    9.5930  -15.9294   21.2103 C   0  0  0  0  0  0  0  0  0  0  0  0
    9.1331  -16.9978   21.7850 O   0  0  0  0  0  0  0  0  0  0  0  0
   10.7704  -15.4347   21.8166 N   0  0  0  0  0  0  0  0  0  0  0  0
   11.5646  -16.2811   22.6993 C   0  0  1  0  0  0  0  0  0  0  0  0
   12.9989  -15.8884   22.7894 C   0  0  0  0  0  0  0  0  0  0  0  0
   13.8187  -16.7468   23.6686 C   0  0  0  0  0  0  0  0  0  0  0  0
   13.2883  -17.7328   24.2245 O   0  0  0  0  0  0  0  0  0  0  0  0
   10.9660  -16.2205   24.0584 C   0  0  0  0  0  0  0  0  0  0  0  0
    9.8945  -15.3986   24.3720 O   0  0  0  0  0  0  0  0  0  0  0  0
   15.1577  -16.4963   23.8988 O   0  0  0  0  0  0  0  0  0  0  0  0
   11.4170  -16.9304   25.0073 O   0  0  0  0  0  0  0  0  0  0  0  0
  2  3  1  0
  2  1  1  6
  4  3  1  0
  5  6  1  0
  5  4  1  0
  7  6  1  0
  8  9  2  0
  8  2  1  0
 10 11  1  0
 12 11  1  0
 12 14  1  0
 12 13  1  1
 14 15  1  1
 15  8  1  0
 16 17  2  0
 16 14  1  0
 18 16  1  0
 19 18  1  0
 19 20  1  1
 20 21  1  0
 21 22  2  0
 21 25  1  0
 23 19  1  0
 24 23  1  0
 26 23  2  0
M  END
$$$$
