KID.pdb
     RDKit          3D

 26 25  0  0  1  0  0  0  0  0999 V2000
    7.8023  -13.9471   19.9595 N   0  0  0  0  0  0  0  0  0  0  0  0
    7.1473  -14.5699   21.0682 C   0  0  1  0  0  0  0  0  0  0  0  0
    6.8393  -16.0233   20.8254 C   0  0  0  0  0  0  0  0  0  0  0  0
    7.4159  -16.3972   19.4853 C   0  0  0  0  0  0  0  0  0  0  0  0
    7.0928  -17.8139   19.0878 C   0  0  0  0  0  0  0  0  0  0  0  0
    7.5613  -18.1403   17.6923 C   0  0  0  0  0  0  0  0  0  0  0  0
    7.2762  -19.5476   17.4558 N   0  0  0  0  0  0  0  0  0  0  0  0
    7.9589  -14.3631   22.3065 C   0  0  0  0  0  0  0  0  0  0  0  0
    9.2003  -14.1955   22.2430 O   0  0  0  0  0  0  0  0  0  0  0  0
    5.5342  -11.6106   26.2686 C   0  0  0  0  0  0  0  0  0  0  0  0
    6.6241  -12.1692   25.4235 C   0  0  0  0  0  0  0  0  0  0  0  0
    6.9714  -13.6049   25.8669 C   0  0  2  0  0  0  0  0  0  0  0  0
    7.5855  -13.4026   27.2467 C   0  0  0  0  0  0  0  0  0  0  0  0
    7.8993  -14.2278   24.8733 C   0  0  2  0  0  0  0  0  0  0  0  0
    7.2984  -14.3615   23.5379 N   0  0  0  0  0  0  0  0  0  0  0  0
    8.5310  -15.4949   25.2629 C   0  0  0  0  0  0  0  0  0  0  0  0
    7.8137  -16.5728   25.3465 O   0  0  0  0  0  0  0  0  0  0  0  0
    9.8939  -15.7084   25.5724 N   0  0  0  0  0  0  0  0  0  0  0  0
   10.4067  -17.0573   25.7817 C   0  0  1  0  0  0  0  0  0  0  0  0
   11.8233  -17.2414   25.3591 C   0  0  0  0  0  0  0  0  0  0  0  0
   12.3729  -18.5882   25.6161 C   0  0  0  0  0  0  0  0  0  0  0  0
   11.6118  -19.4876   26.0337 O   0  0  0  0  0  0  0  0  0  0  0  0
   10.2945  -17.3742   27.2295 C   0  0  0  0  0  0  0  0  0  0  0  0
   10.2945  -18.6719   27.7173 O   0  0  0  0  0  0  0  0  0  0  0  0
   13.7054  -18.8894   25.4099 O   0  0  0  0  0  0  0  0  0  0  0  0
   10.1920  -16.4553   28.0973 O   0  0  0  0  0  0  0  0  0  0  0  0
  2  3  1  0
  2  1  1  6
  4  3  1  0
  5  6  1  0
  5  4  1  0
  7  6  1  0
  8  9  2  0
  8  2  1  0
 10 11  1  0
 12 11  1  0
 12 14  1  0
 12 13  1  1
 14 15  1  6
 15  8  1  0
 16 17  2  0
 16 14  1  0
 18 16  1  0
 19 18  1  0
 19 20  1  1
 20 21  1  0
 21 22  2  0
 21 25  1  0
 23 19  1  0
 24 23  1  0
 26 23  2  0
M  END
$$$$
