KID.pdb
     RDKit          3D

 26 25  0  0  1  0  0  0  0  0999 V2000
    4.8940  -18.2827   22.0734 N   0  0  0  0  0  0  0  0  0  0  0  0
    5.4431  -18.1013   23.3818 C   0  0  1  0  0  0  0  0  0  0  0  0
    6.0007  -19.3723   23.9644 C   0  0  0  0  0  0  0  0  0  0  0  0
    4.9605  -20.4487   23.7981 C   0  0  0  0  0  0  0  0  0  0  0  0
    5.4329  -21.7943   24.2837 C   0  0  0  0  0  0  0  0  0  0  0  0
    4.4309  -22.8876   24.0116 C   0  0  0  0  0  0  0  0  0  0  0  0
    4.9667  -24.1183   24.5738 N   0  0  0  0  0  0  0  0  0  0  0  0
    6.4561  -17.0023   23.3489 C   0  0  0  0  0  0  0  0  0  0  0  0
    7.1454  -16.7917   22.3224 O   0  0  0  0  0  0  0  0  0  0  0  0
    5.7045  -12.8125   26.9013 C   0  0  0  0  0  0  0  0  0  0  0  0
    6.0968  -13.5791   25.6877 C   0  0  0  0  0  0  0  0  0  0  0  0
    7.3930  -14.3741   25.9449 C   0  0  2  0  0  0  0  0  0  0  0  0
    8.4286  -13.2816   26.1814 C   0  0  0  0  0  0  0  0  0  0  0  0
    7.6888  -15.2486   24.7685 C   0  0  2  0  0  0  0  0  0  0  0  0
    6.6155  -16.2150   24.4923 N   0  0  0  0  0  0  0  0  0  0  0  0
    8.9876  -15.9338   24.7642 C   0  0  0  0  0  0  0  0  0  0  0  0
    9.4833  -16.3666   23.6461 O   0  0  0  0  0  0  0  0  0  0  0  0
    9.8172  -16.1954   25.8786 N   0  0  0  0  0  0  0  0  0  0  0  0
   11.1892  -16.6531   25.6935 C   0  0  1  0  0  0  0  0  0  0  0  0
   12.0675  -15.6738   24.9941 C   0  0  0  0  0  0  0  0  0  0  0  0
   12.8473  -16.2367   23.8728 C   0  0  0  0  0  0  0  0  0  0  0  0
   12.7896  -17.4646   23.6461 O   0  0  0  0  0  0  0  0  0  0  0  0
   11.7649  -16.9398   27.0335 C   0  0  0  0  0  0  0  0  0  0  0  0
   12.9075  -17.7042   27.2129 O   0  0  0  0  0  0  0  0  0  0  0  0
   13.6418  -15.4489   23.0623 O   0  0  0  0  0  0  0  0  0  0  0  0
   11.2268  -16.4900   28.0898 O   0  0  0  0  0  0  0  0  0  0  0  0
  2  3  1  0
  2  1  1  6
  4  3  1  0
  5  6  1  0
  5  4  1  0
  7  6  1  0
  8  9  2  0
  8  2  1  0
 10 11  1  0
 12 11  1  0
 12 14  1  0
 12 13  1  6
 14 15  1  1
 15  8  1  0
 16 17  2  0
 16 14  1  0
 18 16  1  0
 19 18  1  0
 19 20  1  1
 20 21  1  0
 21 22  2  0
 21 25  1  0
 23 19  1  0
 24 23  1  0
 26 23  2  0
M  END
$$$$
