KID.pdb
     RDKit          3D

 26 25  0  0  1  0  0  0  0  0999 V2000
    6.6324  -15.0839   21.2027 N   0  0  0  0  0  0  0  0  0  0  0  0
    7.9457  -14.5508   21.0100 C   0  0  1  0  0  0  0  0  0  0  0  0
    7.9502  -13.2838   20.1973 C   0  0  0  0  0  0  0  0  0  0  0  0
    7.2508  -13.5713   18.8948 C   0  0  0  0  0  0  0  0  0  0  0  0
    8.1600  -13.4278   17.7022 C   0  0  0  0  0  0  0  0  0  0  0  0
    7.4749  -13.7937   16.4099 C   0  0  0  0  0  0  0  0  0  0  0  0
    8.4603  -13.6732   15.3459 N   0  0  0  0  0  0  0  0  0  0  0  0
    8.6111  -14.3737   22.3370 C   0  0  0  0  0  0  0  0  0  0  0  0
    9.8049  -13.9969   22.4142 O   0  0  0  0  0  0  0  0  0  0  0  0
    5.9610  -11.7980   25.9554 C   0  0  0  0  0  0  0  0  0  0  0  0
    7.1369  -12.4135   25.2825 C   0  0  0  0  0  0  0  0  0  0  0  0
    7.3478  -13.8593   25.7762 C   0  0  2  0  0  0  0  0  0  0  0  0
    7.8382  -13.6692   27.2063 C   0  0  0  0  0  0  0  0  0  0  0  0
    8.3253  -14.5575   24.8855 C   0  0  2  0  0  0  0  0  0  0  0  0
    7.8680  -14.6389   23.4904 N   0  0  0  0  0  0  0  0  0  0  0  0
    8.8013  -15.8736   25.3300 C   0  0  0  0  0  0  0  0  0  0  0  0
    8.0104  -16.9000   25.2643 O   0  0  0  0  0  0  0  0  0  0  0  0
   10.0797  -16.1887   25.8449 N   0  0  0  0  0  0  0  0  0  0  0  0
   10.4396  -17.5685   26.1495 C   0  0  1  0  0  0  0  0  0  0  0  0
   11.6841  -18.0348   25.4763 C   0  0  0  0  0  0  0  0  0  0  0  0
   12.1678  -19.3572   25.9229 C   0  0  0  0  0  0  0  0  0  0  0  0
   11.3395  -20.2685   26.1376 O   0  0  0  0  0  0  0  0  0  0  0  0
   10.6193  -17.6847   27.6203 C   0  0  0  0  0  0  0  0  0  0  0  0
   10.5616  -18.8965   28.2914 O   0  0  0  0  0  0  0  0  0  0  0  0
   13.5103  -19.6228   26.1122 O   0  0  0  0  0  0  0  0  0  0  0  0
   10.8370  -16.6627   28.3386 O   0  0  0  0  0  0  0  0  0  0  0  0
  2  3  1  0
  2  1  1  1
  4  3  1  0
  5  6  1  0
  5  4  1  0
  7  6  1  0
  8  9  2  0
  8  2  1  0
 10 11  1  0
 12 11  1  0
 12 14  1  0
 12 13  1  1
 14 15  1  6
 15  8  1  0
 16 17  2  0
 16 14  1  0
 18 16  1  0
 19 18  1  0
 19 20  1  6
 20 21  1  0
 21 22  2  0
 21 25  1  0
 23 19  1  0
 24 23  1  0
 26 23  2  0
M  END
$$$$
