KID.pdb
     RDKit          3D

 26 25  0  0  1  0  0  0  0  0999 V2000
    6.5244  -15.8445   21.7479 N   0  0  0  0  0  0  0  0  0  0  0  0
    7.6861  -15.0978   21.3750 C   0  0  1  0  0  0  0  0  0  0  0  0
    7.3645  -13.9046   20.5154 C   0  0  0  0  0  0  0  0  0  0  0  0
    7.3428  -14.3643   19.0814 C   0  0  0  0  0  0  0  0  0  0  0  0
    7.8252  -13.3060   18.1239 C   0  0  0  0  0  0  0  0  0  0  0  0
    7.7947  -13.7712   16.6900 C   0  0  0  0  0  0  0  0  0  0  0  0
    8.0396  -12.6084   15.8501 N   0  0  0  0  0  0  0  0  0  0  0  0
    8.4511  -14.7204   22.6028 C   0  0  0  0  0  0  0  0  0  0  0  0
    9.5924  -14.2071   22.5186 O   0  0  0  0  0  0  0  0  0  0  0  0
    5.9314  -12.0060   26.2345 C   0  0  0  0  0  0  0  0  0  0  0  0
    7.0807  -12.5946   25.4949 C   0  0  0  0  0  0  0  0  0  0  0  0
    7.4505  -13.9738   26.0777 C   0  0  2  0  0  0  0  0  0  0  0  0
    8.0149  -13.6300   27.4507 C   0  0  0  0  0  0  0  0  0  0  0  0
    8.4253  -14.6574   25.1729 C   0  0  2  0  0  0  0  0  0  0  0  0
    7.8614  -14.9547   23.8478 N   0  0  0  0  0  0  0  0  0  0  0  0
    9.0976  -15.8494   25.7055 C   0  0  0  0  0  0  0  0  0  0  0  0
    8.4217  -16.9415   25.8893 O   0  0  0  0  0  0  0  0  0  0  0  0
   10.4605  -15.9724   26.0604 N   0  0  0  0  0  0  0  0  0  0  0  0
   10.9905  -17.2401   26.5487 C   0  0  1  0  0  0  0  0  0  0  0  0
   12.4265  -17.4648   26.2218 C   0  0  0  0  0  0  0  0  0  0  0  0
   12.7233  -18.7821   25.6229 C   0  0  0  0  0  0  0  0  0  0  0  0
   12.1976  -19.8059   26.1109 O   0  0  0  0  0  0  0  0  0  0  0  0
   10.8258  -17.2711   28.0255 C   0  0  0  0  0  0  0  0  0  0  0  0
   10.6882  -18.4499   28.7421 O   0  0  0  0  0  0  0  0  0  0  0  0
   13.5658  -18.9223   24.5369 O   0  0  0  0  0  0  0  0  0  0  0  0
   10.8033  -16.2019   28.7068 O   0  0  0  0  0  0  0  0  0  0  0  0
  2  3  1  0
  2  1  1  1
  4  3  1  0
  5  6  1  0
  5  4  1  0
  7  6  1  0
  8  9  2  0
  8  2  1  0
 10 11  1  0
 12 11  1  0
 12 14  1  0
 12 13  1  1
 14 15  1  6
 15  8  1  0
 16 17  2  0
 16 14  1  0
 18 16  1  0
 19 18  1  0
 19 20  1  1
 20 21  1  0
 21 22  2  0
 21 25  1  0
 23 19  1  0
 24 23  1  0
 26 23  2  0
M  END
$$$$
