KID.pdb
     RDKit          3D

 26 25  0  0  1  0  0  0  0  0999 V2000
    7.1043  -13.8830   20.4956 N   0  0  0  0  0  0  0  0  0  0  0  0
    7.3092  -15.0321   21.3224 C   0  0  1  0  0  0  0  0  0  0  0  0
    7.8677  -16.2068   20.5647 C   0  0  0  0  0  0  0  0  0  0  0  0
    6.8374  -17.3048   20.5952 C   0  0  0  0  0  0  0  0  0  0  0  0
    7.3627  -18.6107   20.0585 C   0  0  0  0  0  0  0  0  0  0  0  0
    6.3339  -19.7115   20.1167 C   0  0  0  0  0  0  0  0  0  0  0  0
    6.9625  -20.9216   19.6086 N   0  0  0  0  0  0  0  0  0  0  0  0
    8.1604  -14.6581   22.4931 C   0  0  0  0  0  0  0  0  0  0  0  0
    9.3156  -14.1977   22.3291 O   0  0  0  0  0  0  0  0  0  0  0  0
    5.8736  -11.7611   26.1392 C   0  0  0  0  0  0  0  0  0  0  0  0
    6.9382  -12.4185   25.3337 C   0  0  0  0  0  0  0  0  0  0  0  0
    7.3597  -13.7538   25.9803 C   0  0  2  0  0  0  0  0  0  0  0  0
    8.0174  -13.3156   27.2832 C   0  0  0  0  0  0  0  0  0  0  0  0
    8.2734  -14.4939   25.0564 C   0  0  2  0  0  0  0  0  0  0  0  0
    7.6356  -14.8347   23.7761 N   0  0  0  0  0  0  0  0  0  0  0  0
    8.9513  -15.6759   25.6039 C   0  0  0  0  0  0  0  0  0  0  0  0
    8.2569  -16.7211   25.9335 O   0  0  0  0  0  0  0  0  0  0  0  0
   10.3379  -15.8360   25.8281 N   0  0  0  0  0  0  0  0  0  0  0  0
   10.8614  -17.0715   26.3988 C   0  0  1  0  0  0  0  0  0  0  0  0
   12.3070  -17.3036   26.1234 C   0  0  0  0  0  0  0  0  0  0  0  0
   12.6715  -17.2896   24.6920 C   0  0  0  0  0  0  0  0  0  0  0  0
   11.8243  -17.6436   23.8438 O   0  0  0  0  0  0  0  0  0  0  0  0
   10.6567  -17.0233   27.8702 C   0  0  0  0  0  0  0  0  0  0  0  0
   10.8206  -18.1302   28.6887 O   0  0  0  0  0  0  0  0  0  0  0  0
   13.9224  -16.8967   24.2564 O   0  0  0  0  0  0  0  0  0  0  0  0
   10.3170  -15.9488   28.4516 O   0  0  0  0  0  0  0  0  0  0  0  0
  2  3  1  0
  2  1  1  6
  4  3  1  0
  5  6  1  0
  5  4  1  0
  7  6  1  0
  8  9  2  0
  8  2  1  0
 10 11  1  0
 12 11  1  0
 12 14  1  0
 12 13  1  1
 14 15  1  6
 15  8  1  0
 16 17  2  0
 16 14  1  0
 18 16  1  0
 19 18  1  0
 19 20  1  1
 20 21  1  0
 21 22  2  0
 21 25  1  0
 23 19  1  0
 24 23  1  0
 26 23  2  0
M  END
$$$$
