KID.pdb
     RDKit          3D

 26 25  0  0  1  0  0  0  0  0999 V2000
    6.8408  -14.6809   20.0538 N   0  0  0  0  0  0  0  0  0  0  0  0
    6.5814  -15.3078   21.3132 C   0  0  1  0  0  0  0  0  0  0  0  0
    6.5126  -16.8084   21.2173 C   0  0  0  0  0  0  0  0  0  0  0  0
    5.7705  -17.1543   19.9532 C   0  0  0  0  0  0  0  0  0  0  0  0
    5.4477  -18.6222   19.8512 C   0  0  0  0  0  0  0  0  0  0  0  0
    4.6493  -18.9505   18.6150 C   0  0  0  0  0  0  0  0  0  0  0  0
    4.3813  -20.3806   18.6373 N   0  0  0  0  0  0  0  0  0  0  0  0
    7.5929  -14.8509   22.3148 C   0  0  0  0  0  0  0  0  0  0  0  0
    8.7764  -14.6142   21.9735 O   0  0  0  0  0  0  0  0  0  0  0  0
    5.8024  -11.6292   26.2598 C   0  0  0  0  0  0  0  0  0  0  0  0
    6.7360  -12.2709   25.2950 C   0  0  0  0  0  0  0  0  0  0  0  0
    7.2638  -13.6059   25.8587 C   0  0  2  0  0  0  0  0  0  0  0  0
    8.1184  -13.1689   27.0421 C   0  0  0  0  0  0  0  0  0  0  0  0
    8.0227  -14.3355   24.7966 C   0  0  2  0  0  0  0  0  0  0  0  0
    7.1856  -14.6943   23.6422 N   0  0  0  0  0  0  0  0  0  0  0  0
    8.8037  -15.5027   25.2259 C   0  0  0  0  0  0  0  0  0  0  0  0
    8.1927  -16.5915   25.5787 O   0  0  0  0  0  0  0  0  0  0  0  0
   10.2115  -15.6039   25.3063 N   0  0  0  0  0  0  0  0  0  0  0  0
   10.8492  -16.8779   25.6171 C   0  0  1  0  0  0  0  0  0  0  0  0
   12.2666  -16.9735   25.1685 C   0  0  0  0  0  0  0  0  0  0  0  0
   12.9626  -18.2082   25.5847 C   0  0  0  0  0  0  0  0  0  0  0  0
   12.7142  -19.2784   24.9885 O   0  0  0  0  0  0  0  0  0  0  0  0
   10.7995  -17.0717   27.0899 C   0  0  0  0  0  0  0  0  0  0  0  0
   10.8307  -18.3235   27.6849 O   0  0  0  0  0  0  0  0  0  0  0  0
   13.8829  -18.2209   26.6150 O   0  0  0  0  0  0  0  0  0  0  0  0
   10.7252  -16.0833   27.8806 O   0  0  0  0  0  0  0  0  0  0  0  0
  2  3  1  0
  2  1  1  6
  4  3  1  0
  5  6  1  0
  5  4  1  0
  7  6  1  0
  8  9  2  0
  8  2  1  0
 10 11  1  0
 12 11  1  0
 12 14  1  0
 12 13  1  1
 14 15  1  6
 15  8  1  0
 16 17  2  0
 16 14  1  0
 18 16  1  0
 19 18  1  0
 19 20  1  1
 20 21  1  0
 21 22  2  0
 21 25  1  0
 23 19  1  0
 24 23  1  0
 26 23  2  0
M  END
$$$$
