KID.pdb
     RDKit          3D

 26 25  0  0  1  0  0  0  0  0999 V2000
    8.2166  -14.5985   20.1546 N   0  0  0  0  0  0  0  0  0  0  0  0
    7.5485  -15.1229   21.3057 C   0  0  1  0  0  0  0  0  0  0  0  0
    7.2859  -16.6018   21.2074 C   0  0  0  0  0  0  0  0  0  0  0  0
    6.8978  -16.9056   19.7843 C   0  0  0  0  0  0  0  0  0  0  0  0
    6.5162  -18.3487   19.5807 C   0  0  0  0  0  0  0  0  0  0  0  0
    6.0972  -18.6377   18.1614 C   0  0  0  0  0  0  0  0  0  0  0  0
    5.8416  -20.0671   18.0659 N   0  0  0  0  0  0  0  0  0  0  0  0
    8.3206  -14.7662   22.5352 C   0  0  0  0  0  0  0  0  0  0  0  0
    9.5748  -14.7554   22.5282 O   0  0  0  0  0  0  0  0  0  0  0  0
    5.7961  -11.4950   26.1607 C   0  0  0  0  0  0  0  0  0  0  0  0
    6.8927  -12.1430   25.3913 C   0  0  0  0  0  0  0  0  0  0  0  0
    7.1960  -13.5453   25.9573 C   0  0  2  0  0  0  0  0  0  0  0  0
    7.7649  -13.2459   27.3388 C   0  0  0  0  0  0  0  0  0  0  0  0
    8.1459  -14.2595   25.0497 C   0  0  2  0  0  0  0  0  0  0  0  0
    7.6084  -14.4449   23.6937 N   0  0  0  0  0  0  0  0  0  0  0  0
    8.7030  -15.5264   25.5409 C   0  0  0  0  0  0  0  0  0  0  0  0
    8.0055  -16.6162   25.4454 O   0  0  0  0  0  0  0  0  0  0  0  0
    9.9708  -15.7275   26.1332 N   0  0  0  0  0  0  0  0  0  0  0  0
   10.4613  -17.0743   26.4014 C   0  0  1  0  0  0  0  0  0  0  0  0
   11.6441  -17.4644   25.5840 C   0  0  0  0  0  0  0  0  0  0  0  0
   12.2436  -18.7642   25.9488 C   0  0  0  0  0  0  0  0  0  0  0  0
   11.6320  -19.8177   25.6684 O   0  0  0  0  0  0  0  0  0  0  0  0
   10.8267  -17.1545   27.8399 C   0  0  0  0  0  0  0  0  0  0  0  0
   11.0483  -18.3569   28.4933 O   0  0  0  0  0  0  0  0  0  0  0  0
   13.4627  -18.8560   26.5923 O   0  0  0  0  0  0  0  0  0  0  0  0
   10.9539  -16.1083   28.5449 O   0  0  0  0  0  0  0  0  0  0  0  0
  2  3  1  0
  2  1  1  6
  4  3  1  0
  5  6  1  0
  5  4  1  0
  7  6  1  0
  8  9  2  0
  8  2  1  0
 10 11  1  0
 12 11  1  0
 12 14  1  0
 12 13  1  1
 14 15  1  6
 15  8  1  0
 16 17  2  0
 16 14  1  0
 18 16  1  0
 19 18  1  0
 19 20  1  6
 20 21  1  0
 21 22  2  0
 21 25  1  0
 23 19  1  0
 24 23  1  0
 26 23  2  0
M  END
$$$$
