KID.pdb
     RDKit          3D

 26 25  0  0  1  0  0  0  0  0999 V2000
    8.2489  -18.0820   17.7034 N   0  0  0  0  0  0  0  0  0  0  0  0
    9.6148  -17.7003   17.5170 C   0  0  1  0  0  0  0  0  0  0  0  0
    9.8922  -17.1734   16.1345 C   0  0  0  0  0  0  0  0  0  0  0  0
    8.9220  -17.8314   15.1891 C   0  0  0  0  0  0  0  0  0  0  0  0
    8.4790  -16.9146   14.0788 C   0  0  0  0  0  0  0  0  0  0  0  0
    7.5414  -17.5935   13.1125 C   0  0  0  0  0  0  0  0  0  0  0  0
    7.2741  -16.6544   12.0335 N   0  0  0  0  0  0  0  0  0  0  0  0
   10.0104  -16.7288   18.5823 C   0  0  0  0  0  0  0  0  0  0  0  0
   11.2035  -16.3639   18.7108 O   0  0  0  0  0  0  0  0  0  0  0  0
    6.7906  -12.4873   19.7412 C   0  0  0  0  0  0  0  0  0  0  0  0
    8.0543  -13.2725   19.7129 C   0  0  0  0  0  0  0  0  0  0  0  0
    8.0088  -14.4095   20.7540 C   0  0  2  0  0  0  0  0  0  0  0  0
    8.0093  -13.6632   22.0825 C   0  0  0  0  0  0  0  0  0  0  0  0
    9.1845  -15.3136   20.5634 C   0  0  2  0  0  0  0  0  0  0  0  0
    9.0158  -16.2373   19.4319 N   0  0  0  0  0  0  0  0  0  0  0  0
    9.6473  -16.0537   21.7443 C   0  0  0  0  0  0  0  0  0  0  0  0
    9.0077  -17.1143   22.1307 O   0  0  0  0  0  0  0  0  0  0  0  0
   10.7619  -15.7489   22.5588 N   0  0  0  0  0  0  0  0  0  0  0  0
   11.2903  -16.7337   23.4955 C   0  0  1  0  0  0  0  0  0  0  0  0
   12.7752  -16.7234   23.6149 C   0  0  0  0  0  0  0  0  0  0  0  0
   13.3194  -17.6637   24.6157 C   0  0  0  0  0  0  0  0  0  0  0  0
   12.9055  -18.8431   24.6322 O   0  0  0  0  0  0  0  0  0  0  0  0
   10.7012  -16.4614   24.8326 C   0  0  0  0  0  0  0  0  0  0  0  0
    9.8213  -15.4161   25.0679 O   0  0  0  0  0  0  0  0  0  0  0  0
   14.2745  -17.2828   25.5384 O   0  0  0  0  0  0  0  0  0  0  0  0
   10.9825  -17.1858   25.8346 O   0  0  0  0  0  0  0  0  0  0  0  0
  2  3  1  0
  2  1  1  6
  4  3  1  0
  5  6  1  0
  5  4  1  0
  7  6  1  0
  8  9  2  0
  8  2  1  0
 10 11  1  0
 12 11  1  0
 12 14  1  0
 12 13  1  1
 14 15  1  6
 15  8  1  0
 16 17  2  0
 16 14  1  0
 18 16  1  0
 19 18  1  0
 19 20  1  1
 20 21  1  0
 21 22  2  0
 21 25  1  0
 23 19  1  0
 24 23  1  0
 26 23  2  0
M  END
$$$$
