KID.pdb
     RDKit          3D

 26 25  0  0  1  0  0  0  0  0999 V2000
    9.5317  -17.2477   17.2882 N   0  0  0  0  0  0  0  0  0  0  0  0
   10.5983  -17.6730   18.1414 C   0  0  1  0  0  0  0  0  0  0  0  0
   11.9168  -17.7779   17.4228 C   0  0  0  0  0  0  0  0  0  0  0  0
   12.3284  -19.2266   17.4279 C   0  0  0  0  0  0  0  0  0  0  0  0
   11.8611  -19.9686   16.2029 C   0  0  0  0  0  0  0  0  0  0  0  0
   12.3849  -21.3816   16.1521 C   0  0  0  0  0  0  0  0  0  0  0  0
   11.7922  -22.0235   14.9884 N   0  0  0  0  0  0  0  0  0  0  0  0
   10.6733  -16.7720   19.3320 C   0  0  0  0  0  0  0  0  0  0  0  0
   11.7746  -16.5052   19.8699 O   0  0  0  0  0  0  0  0  0  0  0  0
    6.7869  -12.8906   19.5960 C   0  0  0  0  0  0  0  0  0  0  0  0
    8.1049  -13.5588   19.7712 C   0  0  0  0  0  0  0  0  0  0  0  0
    8.0541  -14.5565   20.9462 C   0  0  2  0  0  0  0  0  0  0  0  0
    7.8405  -13.6559   22.1567 C   0  0  0  0  0  0  0  0  0  0  0  0
    9.3235  -15.3457   20.9914 C   0  0  2  0  0  0  0  0  0  0  0  0
    9.4840  -16.2340   19.8307 N   0  0  0  0  0  0  0  0  0  0  0  0
    9.5955  -16.0897   22.2279 C   0  0  0  0  0  0  0  0  0  0  0  0
    8.8995  -17.1479   22.5087 O   0  0  0  0  0  0  0  0  0  0  0  0
   10.5725  -15.7911   23.2051 N   0  0  0  0  0  0  0  0  0  0  0  0
   10.7756  -16.6737   24.3479 C   0  0  1  0  0  0  0  0  0  0  0  0
   12.1462  -16.6112   24.9282 C   0  0  0  0  0  0  0  0  0  0  0  0
   13.2232  -17.0391   24.0123 C   0  0  0  0  0  0  0  0  0  0  0  0
   12.9300  -17.7035   22.9948 O   0  0  0  0  0  0  0  0  0  0  0  0
    9.7936  -16.3007   25.3995 C   0  0  0  0  0  0  0  0  0  0  0  0
    9.0008  -15.1662   25.3193 O   0  0  0  0  0  0  0  0  0  0  0  0
   14.5497  -16.7289   24.2425 O   0  0  0  0  0  0  0  0  0  0  0  0
    9.6352  -17.0161   26.4343 O   0  0  0  0  0  0  0  0  0  0  0  0
  2  3  1  0
  2  1  1  6
  4  3  1  0
  5  6  1  0
  5  4  1  0
  7  6  1  0
  8  9  2  0
  8  2  1  0
 10 11  1  0
 12 11  1  0
 12 14  1  0
 12 13  1  1
 14 15  1  6
 15  8  1  0
 16 17  2  0
 16 14  1  0
 18 16  1  0
 19 18  1  0
 19 20  1  1
 20 21  1  0
 21 22  2  0
 21 25  1  0
 23 19  1  0
 24 23  1  0
 26 23  2  0
M  END
$$$$
