KID.pdb
     RDKit          3D

 26 25  0  0  1  0  0  0  0  0999 V2000
    7.8771  -13.6786   19.8069 N   0  0  0  0  0  0  0  0  0  0  0  0
    7.4449  -14.5745   20.8349 C   0  0  1  0  0  0  0  0  0  0  0  0
    7.5722  -16.0220   20.4419 C   0  0  0  0  0  0  0  0  0  0  0  0
    7.0688  -16.1602   19.0292 C   0  0  0  0  0  0  0  0  0  0  0  0
    6.9261  -17.5973   18.6003 C   0  0  0  0  0  0  0  0  0  0  0  0
    6.2787  -17.7311   17.2452 C   0  0  0  0  0  0  0  0  0  0  0  0
    6.1804  -19.1523   16.9486 N   0  0  0  0  0  0  0  0  0  0  0  0
    8.1743  -14.2667   22.1031 C   0  0  0  0  0  0  0  0  0  0  0  0
    9.3567  -13.8487   22.0812 O   0  0  0  0  0  0  0  0  0  0  0  0
    5.7312  -11.4723   25.7914 C   0  0  0  0  0  0  0  0  0  0  0  0
    6.8213  -12.1330   25.0235 C   0  0  0  0  0  0  0  0  0  0  0  0
    7.0907  -13.5481   25.5743 C   0  0  2  0  0  0  0  0  0  0  0  0
    7.6448  -13.2781   26.9678 C   0  0  0  0  0  0  0  0  0  0  0  0
    8.0406  -14.2673   24.6706 C   0  0  2  0  0  0  0  0  0  0  0  0
    7.5045  -14.4568   23.3145 N   0  0  0  0  0  0  0  0  0  0  0  0
    8.5949  -15.5333   25.1671 C   0  0  0  0  0  0  0  0  0  0  0  0
    7.8127  -16.5533   25.3432 O   0  0  0  0  0  0  0  0  0  0  0  0
    9.9437  -15.8039   25.4929 N   0  0  0  0  0  0  0  0  0  0  0  0
   10.3427  -17.1211   25.9747 C   0  0  1  0  0  0  0  0  0  0  0  0
   11.7621  -17.4696   25.6860 C   0  0  0  0  0  0  0  0  0  0  0  0
   12.1494  -17.3494   24.2656 C   0  0  0  0  0  0  0  0  0  0  0  0
   13.1212  -16.6257   23.9579 O   0  0  0  0  0  0  0  0  0  0  0  0
   10.1307  -17.1584   27.4453 C   0  0  0  0  0  0  0  0  0  0  0  0
   10.1688  -18.3329   28.1809 O   0  0  0  0  0  0  0  0  0  0  0  0
   11.4715  -18.0123   23.2607 O   0  0  0  0  0  0  0  0  0  0  0  0
    9.9017  -16.0990   28.1033 O   0  0  0  0  0  0  0  0  0  0  0  0
  2  3  1  0
  2  1  1  6
  4  3  1  0
  5  6  1  0
  5  4  1  0
  7  6  1  0
  8  9  2  0
  8  2  1  0
 10 11  1  0
 12 11  1  0
 12 14  1  0
 12 13  1  1
 14 15  1  6
 15  8  1  0
 16 17  2  0
 16 14  1  0
 18 16  1  0
 19 18  1  0
 19 20  1  1
 20 21  1  0
 21 22  2  0
 21 25  1  0
 23 19  1  0
 24 23  1  0
 26 23  2  0
M  END
$$$$
