KID.pdb
     RDKit          3D

 26 25  0  0  1  0  0  0  0  0999 V2000
    6.9178  -15.4563   21.4586 N   0  0  0  0  0  0  0  0  0  0  0  0
    8.1526  -14.7512   21.3024 C   0  0  1  0  0  0  0  0  0  0  0  0
    8.0141  -13.5048   20.4698 C   0  0  0  0  0  0  0  0  0  0  0  0
    7.5039  -13.9133   19.1129 C   0  0  0  0  0  0  0  0  0  0  0  0
    8.4866  -13.6200   18.0094 C   0  0  0  0  0  0  0  0  0  0  0  0
    7.9114  -13.8877   16.6415 C   0  0  0  0  0  0  0  0  0  0  0  0
    8.9350  -13.5466   15.6650 N   0  0  0  0  0  0  0  0  0  0  0  0
    8.7392  -14.4698   22.6484 C   0  0  0  0  0  0  0  0  0  0  0  0
    9.8855  -13.9731   22.7607 O   0  0  0  0  0  0  0  0  0  0  0  0
    5.7682  -12.0845   26.1511 C   0  0  0  0  0  0  0  0  0  0  0  0
    7.0123  -12.6073   25.5240 C   0  0  0  0  0  0  0  0  0  0  0  0
    7.3244  -14.0263   26.0413 C   0  0  2  0  0  0  0  0  0  0  0  0
    7.7553  -13.7829   27.4825 C   0  0  0  0  0  0  0  0  0  0  0  0
    8.3809  -14.6520   25.1877 C   0  0  2  0  0  0  0  0  0  0  0  0
    7.9771  -14.7747   23.7792 N   0  0  0  0  0  0  0  0  0  0  0  0
    8.9410  -15.9258   25.6568 C   0  0  0  0  0  0  0  0  0  0  0  0
    8.4629  -17.0443   25.2054 O   0  0  0  0  0  0  0  0  0  0  0  0
    9.9933  -16.1047   26.5838 N   0  0  0  0  0  0  0  0  0  0  0  0
   10.5102  -17.4368   26.8745 C   0  0  1  0  0  0  0  0  0  0  0  0
   11.9184  -17.6509   26.4380 C   0  0  0  0  0  0  0  0  0  0  0  0
   12.0636  -18.2220   25.0835 C   0  0  0  0  0  0  0  0  0  0  0  0
   11.0388  -18.4487   24.4045 O   0  0  0  0  0  0  0  0  0  0  0  0
   10.4263  -17.6543   28.3424 C   0  0  0  0  0  0  0  0  0  0  0  0
   10.5622  -18.9043   28.9262 O   0  0  0  0  0  0  0  0  0  0  0  0
   13.2988  -18.5157   24.5386 O   0  0  0  0  0  0  0  0  0  0  0  0
   10.2230  -16.6890   29.1392 O   0  0  0  0  0  0  0  0  0  0  0  0
  2  3  1  0
  2  1  1  1
  4  3  1  0
  5  6  1  0
  5  4  1  0
  7  6  1  0
  8  9  2  0
  8  2  1  0
 10 11  1  0
 12 11  1  0
 12 14  1  0
 12 13  1  1
 14 15  1  6
 15  8  1  0
 16 17  2  0
 16 14  1  0
 18 16  1  0
 19 18  1  0
 19 20  1  1
 20 21  1  0
 21 22  2  0
 21 25  1  0
 23 19  1  0
 24 23  1  0
 26 23  2  0
M  END
$$$$
