PIY.pdb
     RDKit          3D

 28 29  0  0  1  0  0  0  0  0999 V2000
    7.8692  -18.7295   18.8321 N   0  0  0  0  0  0  0  0  0  0  0  0
    7.3026  -18.1186   17.6461 C   0  0  0  0  0  0  0  0  0  0  0  0
    8.4109  -17.9951   16.6372 C   0  0  0  0  0  0  0  0  0  0  0  0
    9.5810  -18.7349   17.2435 C   0  0  0  0  0  0  0  0  0  0  0  0
    9.2989  -18.5981   18.7229 C   0  0  1  0  0  0  0  0  0  0  0  0
    9.6954  -17.2793   19.2500 C   0  0  0  0  0  0  0  0  0  0  0  0
   10.8022  -16.7543   18.9515 O   0  0  0  0  0  0  0  0  0  0  0  0
    6.2654  -13.1145   19.9138 C   0  0  0  0  0  0  0  0  0  0  0  0
    7.4629  -13.9869   19.7217 C   0  0  0  0  0  0  0  0  0  0  0  0
    8.1657  -14.3862   20.9683 C   0  0  2  0  0  0  0  0  0  0  0  0
    8.7044  -13.1352   21.6548 C   0  0  0  0  0  0  0  0  0  0  0  0
    9.3197  -15.3208   20.7975 C   0  0  2  0  0  0  0  0  0  0  0  0
    8.8493  -16.5271   20.1250 N   0  0  0  0  0  0  0  0  0  0  0  0
   10.0810  -15.6087   22.0316 C   0  0  0  0  0  0  0  0  0  0  0  0
   11.1683  -14.9952   22.3033 O   0  0  0  0  0  0  0  0  0  0  0  0
   10.4066  -14.7929   30.5345 O   0  0  0  0  0  0  0  0  0  0  0  0
   10.1781  -14.9001   29.1761 C   0  0  0  0  0  0  0  0  0  0  0  0
    9.1361  -14.1850   28.6296 C   0  0  0  0  0  0  0  0  0  0  0  0
    8.9019  -14.2894   27.2631 C   0  0  0  0  0  0  0  0  0  0  0  0
    9.6648  -15.0732   26.4406 C   0  0  0  0  0  0  0  0  0  0  0  0
    9.4210  -15.1820   24.9891 C   0  0  0  0  0  0  0  0  0  0  0  0
   10.0608  -16.4330   24.3783 C   0  0  2  0  0  0  0  0  0  0  0  0
    9.6643  -16.5700   22.9902 N   0  0  0  0  0  0  0  0  0  0  0  0
    9.5407  -17.5997   25.1205 C   0  0  0  0  0  0  0  0  0  0  0  0
   10.2935  -18.2624   26.0869 O   0  0  0  0  0  0  0  0  0  0  0  0
   10.7142  -15.7874   27.0190 C   0  0  0  0  0  0  0  0  0  0  0  0
   10.9621  -15.6961   28.3760 C   0  0  0  0  0  0  0  0  0  0  0  0
    8.3841  -18.0605   24.9181 O   0  0  0  0  0  0  0  0  0  0  0  0
  1  5  1  0
  2  1  1  0
  2  3  1  0
  3  4  1  0
  5  4  1  0
  5  6  1  6
  6  7  2  0
  9  8  1  0
 10  9  1  0
 10 12  1  0
 10 11  1  6
 12 13  1  1
 13  6  1  0
 14 23  1  0
 14 12  1  0
 15 14  2  0
 16 17  1  0
 17 27  2  0
 17 18  1  0
 18 19  2  0
 19 20  1  0
 20 21  1  0
 22 21  1  1
 22 23  1  0
 22 24  1  0
 24 25  1  0
 26 20  2  0
 27 26  1  0
 28 24  2  0
M  END
$$$$
