PIY.pdb
     RDKit          3D

 28 29  0  0  1  0  0  0  0  0999 V2000
    7.9930  -15.7410   20.3005 N   0  0  0  0  0  0  0  0  0  0  0  0
    8.1533  -17.1669   20.5043 C   0  0  0  0  0  0  0  0  0  0  0  0
    6.9404  -17.6480   21.2519 C   0  0  0  0  0  0  0  0  0  0  0  0
    6.0061  -16.4610   21.2943 C   0  0  0  0  0  0  0  0  0  0  0  0
    6.9757  -15.3029   21.2205 C   0  0  1  0  0  0  0  0  0  0  0  0
    7.6058  -15.0151   22.5222 C   0  0  0  0  0  0  0  0  0  0  0  0
    8.7704  -15.4140   22.7948 O   0  0  0  0  0  0  0  0  0  0  0  0
    7.0865  -11.0187   27.2253 C   0  0  0  0  0  0  0  0  0  0  0  0
    7.6190  -12.3053   26.6839 C   0  0  0  0  0  0  0  0  0  0  0  0
    7.0354  -12.7407   25.3888 C   0  0  2  0  0  0  0  0  0  0  0  0
    5.5248  -12.8783   25.5484 C   0  0  0  0  0  0  0  0  0  0  0  0
    7.5371  -14.0416   24.8501 C   0  0  2  0  0  0  0  0  0  0  0  0
    6.9328  -14.2707   23.5421 N   0  0  0  0  0  0  0  0  0  0  0  0
    7.3913  -15.1957   25.7624 C   0  0  0  0  0  0  0  0  0  0  0  0
    6.2471  -15.7025   26.0198 O   0  0  0  0  0  0  0  0  0  0  0  0
    7.4723  -23.2906   28.3861 O   0  0  0  0  0  0  0  0  0  0  0  0
    7.5511  -22.0295   27.8272 C   0  0  0  0  0  0  0  0  0  0  0  0
    8.7010  -21.6832   27.1537 C   0  0  0  0  0  0  0  0  0  0  0  0
    8.7854  -20.4154   26.5894 C   0  0  0  0  0  0  0  0  0  0  0  0
    7.7724  -19.4991   26.6764 C   0  0  0  0  0  0  0  0  0  0  0  0
    7.8580  -18.1544   26.0743 C   0  0  0  0  0  0  0  0  0  0  0  0
    8.3242  -17.0917   27.0747 C   0  0  2  0  0  0  0  0  0  0  0  0
    8.4947  -15.8164   26.4059 N   0  0  0  0  0  0  0  0  0  0  0  0
    9.6417  -17.5193   27.5882 C   0  0  0  0  0  0  0  0  0  0  0  0
   10.8198  -17.3180   26.8731 O   0  0  0  0  0  0  0  0  0  0  0  0
    6.6184  -19.8747   27.3640 C   0  0  0  0  0  0  0  0  0  0  0  0
    6.5166  -21.1311   27.9317 C   0  0  0  0  0  0  0  0  0  0  0  0
    9.7713  -18.0922   28.7045 O   0  0  0  0  0  0  0  0  0  0  0  0
  1  5  1  0
  2  1  1  0
  2  3  1  0
  3  4  1  0
  5  4  1  0
  5  6  1  1
  6  7  2  0
  9  8  1  0
 10  9  1  0
 10 12  1  0
 10 11  1  1
 12 13  1  6
 13  6  1  0
 14 23  1  0
 14 12  1  0
 15 14  2  0
 16 17  1  0
 17 27  2  0
 17 18  1  0
 18 19  2  0
 19 20  1  0
 20 21  1  0
 22 21  1  6
 22 23  1  0
 22 24  1  0
 24 25  1  0
 26 20  2  0
 27 26  1  0
 28 24  2  0
M  END
$$$$
