PIY.pdb
     RDKit          3D

 28 29  0  0  1  0  0  0  0  0999 V2000
    6.7575  -15.4095   21.1667 N   0  0  0  0  0  0  0  0  0  0  0  0
    6.5468  -14.1346   20.5103 C   0  0  0  0  0  0  0  0  0  0  0  0
    7.8568  -13.7316   19.8915 C   0  0  0  0  0  0  0  0  0  0  0  0
    8.7631  -14.9274   20.0718 C   0  0  0  0  0  0  0  0  0  0  0  0
    8.1811  -15.5712   21.3101 C   0  0  1  0  0  0  0  0  0  0  0  0
    8.6125  -14.8970   22.5485 C   0  0  0  0  0  0  0  0  0  0  0  0
    9.7973  -14.4944   22.7030 O   0  0  0  0  0  0  0  0  0  0  0  0
    5.3874  -11.5661   25.4976 C   0  0  0  0  0  0  0  0  0  0  0  0
    6.5438  -12.2601   24.8547 C   0  0  0  0  0  0  0  0  0  0  0  0
    7.0740  -13.4332   25.5963 C   0  0  2  0  0  0  0  0  0  0  0  0
    7.6005  -12.9662   26.9495 C   0  0  0  0  0  0  0  0  0  0  0  0
    8.1847  -14.1799   24.9306 C   0  0  2  0  0  0  0  0  0  0  0  0
    7.7138  -14.6640   23.6373 N   0  0  0  0  0  0  0  0  0  0  0  0
    8.8068  -15.2406   25.7512 C   0  0  0  0  0  0  0  0  0  0  0  0
    8.1548  -16.2818   26.1020 O   0  0  0  0  0  0  0  0  0  0  0  0
   14.6129  -20.2196   30.1404 O   0  0  0  0  0  0  0  0  0  0  0  0
   14.0224  -19.1886   29.4352 C   0  0  0  0  0  0  0  0  0  0  0  0
   14.0388  -19.2435   28.0595 C   0  0  0  0  0  0  0  0  0  0  0  0
   13.4459  -18.2086   27.3450 C   0  0  0  0  0  0  0  0  0  0  0  0
   12.8474  -17.1388   27.9538 C   0  0  0  0  0  0  0  0  0  0  0  0
   12.2135  -16.0413   27.1976 C   0  0  0  0  0  0  0  0  0  0  0  0
   10.7251  -16.2925   26.9347 C   0  0  2  0  0  0  0  0  0  0  0  0
   10.1532  -15.1815   26.1991 N   0  0  0  0  0  0  0  0  0  0  0  0
   10.0531  -16.3665   28.2483 C   0  0  0  0  0  0  0  0  0  0  0  0
    9.7557  -17.5798   28.8643 O   0  0  0  0  0  0  0  0  0  0  0  0
   12.8444  -17.1070   29.3483 C   0  0  0  0  0  0  0  0  0  0  0  0
   13.4291  -18.1272   30.0754 C   0  0  0  0  0  0  0  0  0  0  0  0
    9.7107  -15.3325   28.8843 O   0  0  0  0  0  0  0  0  0  0  0  0
  1  5  1  0
  2  1  1  0
  2  3  1  0
  3  4  1  0
  5  4  1  0
  5  6  1  1
  6  7  2  0
  9  8  1  0
 10  9  1  0
 10 12  1  0
 10 11  1  1
 12 13  1  6
 13  6  1  0
 14 23  1  0
 14 12  1  0
 15 14  2  0
 16 17  1  0
 17 27  2  0
 17 18  1  0
 18 19  2  0
 19 20  1  0
 20 21  1  0
 22 21  1  1
 22 23  1  0
 22 24  1  0
 24 25  1  0
 26 20  2  0
 27 26  1  0
 28 24  2  0
M  END
$$$$
