PIY.pdb
     RDKit          3D

 28 29  0  0  1  0  0  0  0  0999 V2000
    7.6684  -15.0215   20.3801 N   0  0  0  0  0  0  0  0  0  0  0  0
    8.4047  -16.2379   20.0994 C   0  0  0  0  0  0  0  0  0  0  0  0
    7.7728  -17.3366   20.9086 C   0  0  0  0  0  0  0  0  0  0  0  0
    6.5327  -16.7191   21.5123 C   0  0  0  0  0  0  0  0  0  0  0  0
    6.9205  -15.2594   21.5873 C   0  0  1  0  0  0  0  0  0  0  0  0
    7.7847  -14.9674   22.7458 C   0  0  0  0  0  0  0  0  0  0  0  0
    9.0418  -14.9686   22.6489 O   0  0  0  0  0  0  0  0  0  0  0  0
    5.9805  -11.4295   26.4196 C   0  0  0  0  0  0  0  0  0  0  0  0
    6.9503  -12.1921   25.5771 C   0  0  0  0  0  0  0  0  0  0  0  0
    7.3815  -13.5017   26.1307 C   0  0  2  0  0  0  0  0  0  0  0  0
    8.3126  -13.2563   27.3136 C   0  0  0  0  0  0  0  0  0  0  0  0
    8.1066  -14.4043   25.1852 C   0  0  2  0  0  0  0  0  0  0  0  0
    7.2459  -14.6680   24.0370 N   0  0  0  0  0  0  0  0  0  0  0  0
    8.6534  -15.6371   25.7906 C   0  0  0  0  0  0  0  0  0  0  0  0
    7.8883  -16.5649   26.2219 O   0  0  0  0  0  0  0  0  0  0  0  0
   14.0105  -22.3642   27.6787 O   0  0  0  0  0  0  0  0  0  0  0  0
   13.4799  -21.1790   27.2068 C   0  0  0  0  0  0  0  0  0  0  0  0
   13.8657  -20.0033   27.8107 C   0  0  0  0  0  0  0  0  0  0  0  0
   13.3348  -18.8078   27.3396 C   0  0  0  0  0  0  0  0  0  0  0  0
   12.4452  -18.7530   26.3009 C   0  0  0  0  0  0  0  0  0  0  0  0
   11.8838  -17.4849   25.7962 C   0  0  0  0  0  0  0  0  0  0  0  0
   10.5187  -17.1609   26.4119 C   0  0  2  0  0  0  0  0  0  0  0  0
   10.0461  -15.8769   25.9316 N   0  0  0  0  0  0  0  0  0  0  0  0
   10.7082  -17.0616   27.8737 C   0  0  0  0  0  0  0  0  0  0  0  0
   10.5796  -18.1627   28.7169 O   0  0  0  0  0  0  0  0  0  0  0  0
   12.0705  -19.9580   25.7065 C   0  0  0  0  0  0  0  0  0  0  0  0
   12.5881  -21.1565   26.1616 C   0  0  0  0  0  0  0  0  0  0  0  0
   10.9967  -15.9715   28.4388 O   0  0  0  0  0  0  0  0  0  0  0  0
  1  5  1  0
  2  1  1  0
  2  3  1  0
  3  4  1  0
  5  4  1  0
  5  6  1  1
  6  7  2  0
  9  8  1  0
 10  9  1  0
 10 12  1  0
 10 11  1  1
 12 13  1  6
 13  6  1  0
 14 23  1  0
 14 12  1  0
 15 14  2  0
 16 17  1  0
 17 27  2  0
 17 18  1  0
 18 19  2  0
 19 20  1  0
 20 21  1  0
 22 21  1  6
 22 23  1  0
 22 24  1  0
 24 25  1  0
 26 20  2  0
 27 26  1  0
 28 24  2  0
M  END
$$$$
