PIY.pdb
     RDKit          3D

 28 29  0  0  1  0  0  0  0  0999 V2000
    6.6929  -14.6781   20.1497 N   0  0  0  0  0  0  0  0  0  0  0  0
    6.2750  -13.2975   20.0086 C   0  0  0  0  0  0  0  0  0  0  0  0
    7.4436  -12.5346   19.4483 C   0  0  0  0  0  0  0  0  0  0  0  0
    8.4743  -13.5858   19.1071 C   0  0  0  0  0  0  0  0  0  0  0  0
    8.1314  -14.6837   20.0888 C   0  0  1  0  0  0  0  0  0  0  0  0
    8.6641  -14.4166   21.4376 C   0  0  0  0  0  0  0  0  0  0  0  0
    9.8894  -14.1907   21.6310 O   0  0  0  0  0  0  0  0  0  0  0  0
    5.6492  -12.1078   25.5458 C   0  0  0  0  0  0  0  0  0  0  0  0
    6.7582  -12.5263   24.6363 C   0  0  0  0  0  0  0  0  0  0  0  0
    7.3033  -13.8864   24.8817 C   0  0  2  0  0  0  0  0  0  0  0  0
    7.8916  -13.9372   26.2880 C   0  0  0  0  0  0  0  0  0  0  0  0
    8.3756  -14.3399   23.9441 C   0  0  2  0  0  0  0  0  0  0  0  0
    7.8231  -14.3994   22.5950 N   0  0  0  0  0  0  0  0  0  0  0  0
    9.0678  -15.5850   24.3388 C   0  0  0  0  0  0  0  0  0  0  0  0
    8.6820  -16.7265   23.9139 O   0  0  0  0  0  0  0  0  0  0  0  0
   10.6198  -14.8508   31.4588 O   0  0  0  0  0  0  0  0  0  0  0  0
   10.9948  -15.2879   30.2029 C   0  0  0  0  0  0  0  0  0  0  0  0
   11.1042  -14.3589   29.1925 C   0  0  0  0  0  0  0  0  0  0  0  0
   11.4813  -14.7935   27.9269 C   0  0  0  0  0  0  0  0  0  0  0  0
   11.7479  -16.1061   27.6456 C   0  0  0  0  0  0  0  0  0  0  0  0
   12.1528  -16.5692   26.3040 C   0  0  0  0  0  0  0  0  0  0  0  0
   10.9541  -16.8242   25.3844 C   0  0  2  0  0  0  0  0  0  0  0  0
   10.1952  -15.6021   25.2021 N   0  0  0  0  0  0  0  0  0  0  0  0
   10.0832  -17.8078   26.0600 C   0  0  0  0  0  0  0  0  0  0  0  0
   10.4742  -19.1284   26.2680 O   0  0  0  0  0  0  0  0  0  0  0  0
   11.6298  -17.0272   28.6864 C   0  0  0  0  0  0  0  0  0  0  0  0
   11.2559  -16.6134   29.9515 C   0  0  0  0  0  0  0  0  0  0  0  0
    8.9352  -17.5044   26.4855 O   0  0  0  0  0  0  0  0  0  0  0  0
  1  5  1  0
  2  1  1  0
  2  3  1  0
  3  4  1  0
  5  4  1  0
  5  6  1  1
  6  7  2  0
  9  8  1  0
 10  9  1  0
 10 12  1  0
 10 11  1  1
 12 13  1  6
 13  6  1  0
 14 23  1  0
 14 12  1  0
 15 14  2  0
 16 17  1  0
 17 27  2  0
 17 18  1  0
 18 19  2  0
 19 20  1  0
 20 21  1  0
 22 21  1  1
 22 23  1  0
 22 24  1  0
 24 25  1  0
 26 20  2  0
 27 26  1  0
 28 24  2  0
M  END
$$$$
