PIY.pdb
     RDKit          3D

 28 29  0  0  1  0  0  0  0  0999 V2000
    7.8096  -14.5073   20.3034 N   0  0  0  0  0  0  0  0  0  0  0  0
    8.4988  -15.7453   19.9984 C   0  0  0  0  0  0  0  0  0  0  0  0
    7.7392  -16.8545   20.6724 C   0  0  0  0  0  0  0  0  0  0  0  0
    6.4877  -16.2034   21.2143 C   0  0  0  0  0  0  0  0  0  0  0  0
    6.9480  -14.7784   21.4248 C   0  0  1  0  0  0  0  0  0  0  0  0
    7.7236  -14.6174   22.6685 C   0  0  0  0  0  0  0  0  0  0  0  0
    8.9759  -14.7621   22.6892 O   0  0  0  0  0  0  0  0  0  0  0  0
    6.0182  -11.2283   26.6839 C   0  0  0  0  0  0  0  0  0  0  0  0
    6.8872  -12.0196   25.7615 C   0  0  0  0  0  0  0  0  0  0  0  0
    7.1123  -13.4340   26.1565 C   0  0  2  0  0  0  0  0  0  0  0  0
    7.9176  -13.4638   27.4515 C   0  0  0  0  0  0  0  0  0  0  0  0
    7.8467  -14.2801   25.1670 C   0  0  2  0  0  0  0  0  0  0  0  0
    7.0998  -14.2896   23.9137 N   0  0  0  0  0  0  0  0  0  0  0  0
    8.1965  -15.6365   25.6397 C   0  0  0  0  0  0  0  0  0  0  0  0
    7.3266  -16.5709   25.6892 O   0  0  0  0  0  0  0  0  0  0  0  0
   15.1092  -15.7954   23.3030 O   0  0  0  0  0  0  0  0  0  0  0  0
   13.9630  -16.3763   23.8105 C   0  0  0  0  0  0  0  0  0  0  0  0
   12.7912  -16.2408   23.1002 C   0  0  0  0  0  0  0  0  0  0  0  0
   11.6349  -16.8234   23.6065 C   0  0  0  0  0  0  0  0  0  0  0  0
   11.6149  -17.5255   24.7812 C   0  0  0  0  0  0  0  0  0  0  0  0
   10.3896  -18.1487   25.3184 C   0  0  0  0  0  0  0  0  0  0  0  0
    9.7876  -17.3533   26.4813 C   0  0  2  0  0  0  0  0  0  0  0  0
    9.5041  -15.9941   26.0631 N   0  0  0  0  0  0  0  0  0  0  0  0
   10.8050  -17.3006   27.5511 C   0  0  0  0  0  0  0  0  0  0  0  0
   11.2830  -18.4476   28.1802 O   0  0  0  0  0  0  0  0  0  0  0  0
   12.8149  -17.6481   25.4816 C   0  0  0  0  0  0  0  0  0  0  0  0
   13.9747  -17.0754   24.9935 C   0  0  0  0  0  0  0  0  0  0  0  0
   11.2966  -16.2112   27.9543 O   0  0  0  0  0  0  0  0  0  0  0  0
  1  5  1  0
  2  1  1  0
  2  3  1  0
  3  4  1  0
  5  4  1  0
  5  6  1  1
  6  7  2  0
  9  8  1  0
 10  9  1  0
 10 12  1  0
 10 11  1  1
 12 13  1  6
 13  6  1  0
 14 23  1  0
 14 12  1  0
 15 14  2  0
 16 17  1  0
 17 27  2  0
 17 18  1  0
 18 19  2  0
 19 20  1  0
 20 21  1  0
 22 21  1  6
 22 23  1  0
 22 24  1  0
 24 25  1  0
 26 20  2  0
 27 26  1  0
 28 24  2  0
M  END
$$$$
