PIY.pdb
     RDKit          3D

 28 29  0  0  1  0  0  0  0  0999 V2000
    6.8325  -14.9535   21.1670 N   0  0  0  0  0  0  0  0  0  0  0  0
    6.3762  -13.6112   20.8661 C   0  0  0  0  0  0  0  0  0  0  0  0
    7.5484  -12.8606   20.2968 C   0  0  0  0  0  0  0  0  0  0  0  0
    8.6328  -13.8980   20.1189 C   0  0  0  0  0  0  0  0  0  0  0  0
    8.2715  -14.9074   21.1854 C   0  0  1  0  0  0  0  0  0  0  0  0
    8.7153  -14.4885   22.5277 C   0  0  0  0  0  0  0  0  0  0  0  0
    9.9046  -14.1329   22.7490 O   0  0  0  0  0  0  0  0  0  0  0  0
    5.7098  -11.6745   25.9823 C   0  0  0  0  0  0  0  0  0  0  0  0
    6.8283  -12.3338   25.2430 C   0  0  0  0  0  0  0  0  0  0  0  0
    7.3163  -13.6076   25.8316 C   0  0  2  0  0  0  0  0  0  0  0  0
    7.9712  -13.3119   27.1771 C   0  0  0  0  0  0  0  0  0  0  0  0
    8.3161  -14.3634   25.0170 C   0  0  2  0  0  0  0  0  0  0  0  0
    7.8243  -14.4628   23.6470 N   0  0  0  0  0  0  0  0  0  0  0  0
    8.7243  -15.6685   25.5788 C   0  0  0  0  0  0  0  0  0  0  0  0
    8.0732  -16.7378   25.3241 O   0  0  0  0  0  0  0  0  0  0  0  0
   15.1445  -15.9586   23.0360 O   0  0  0  0  0  0  0  0  0  0  0  0
   14.0436  -16.4738   23.6931 C   0  0  0  0  0  0  0  0  0  0  0  0
   13.9941  -16.3721   25.0653 C   0  0  0  0  0  0  0  0  0  0  0  0
   12.8885  -16.8889   25.7314 C   0  0  0  0  0  0  0  0  0  0  0  0
   11.8488  -17.4937   25.0784 C   0  0  0  0  0  0  0  0  0  0  0  0
   10.6721  -18.0389   25.7829 C   0  0  0  0  0  0  0  0  0  0  0  0
   10.2063  -17.1385   26.9316 C   0  0  2  0  0  0  0  0  0  0  0  0
    9.8531  -15.8261   26.4261 N   0  0  0  0  0  0  0  0  0  0  0  0
   11.3469  -16.9811   27.8572 C   0  0  0  0  0  0  0  0  0  0  0  0
   11.9584  -18.0690   28.4758 O   0  0  0  0  0  0  0  0  0  0  0  0
   11.9234  -17.5840   23.6884 C   0  0  0  0  0  0  0  0  0  0  0  0
   13.0150  -17.0759   23.0091 C   0  0  0  0  0  0  0  0  0  0  0  0
   11.8295  -15.8503   28.1386 O   0  0  0  0  0  0  0  0  0  0  0  0
  1  5  1  0
  2  1  1  0
  2  3  1  0
  3  4  1  0
  5  4  1  0
  5  6  1  1
  6  7  2  0
  9  8  1  0
 10  9  1  0
 10 12  1  0
 10 11  1  1
 12 13  1  6
 13  6  1  0
 14 23  1  0
 14 12  1  0
 15 14  2  0
 16 17  1  0
 17 27  2  0
 17 18  1  0
 18 19  2  0
 19 20  1  0
 20 21  1  0
 22 21  1  6
 22 23  1  0
 22 24  1  0
 24 25  1  0
 26 20  2  0
 27 26  1  0
 28 24  2  0
M  END
$$$$
