PIY.pdb
     RDKit          3D

 28 29  0  0  1  0  0  0  0  0999 V2000
    7.8388  -15.4861   20.5401 N   0  0  0  0  0  0  0  0  0  0  0  0
    7.9181  -16.9331   20.5204 C   0  0  0  0  0  0  0  0  0  0  0  0
    6.6606  -17.4558   21.1582 C   0  0  0  0  0  0  0  0  0  0  0  0
    5.7890  -16.2392   21.3676 C   0  0  0  0  0  0  0  0  0  0  0  0
    6.8196  -15.1402   21.4966 C   0  0  1  0  0  0  0  0  0  0  0  0
    7.4261  -15.0947   22.8399 C   0  0  0  0  0  0  0  0  0  0  0  0
    8.4695  -15.7466   23.1159 O   0  0  0  0  0  0  0  0  0  0  0  0
    6.2845  -10.6378   25.7575 C   0  0  0  0  0  0  0  0  0  0  0  0
    7.0984  -11.7654   25.2115 C   0  0  0  0  0  0  0  0  0  0  0  0
    6.9699  -13.0538   25.9401 C   0  0  2  0  0  0  0  0  0  0  0  0
    7.7420  -12.9592   27.2521 C   0  0  0  0  0  0  0  0  0  0  0  0
    7.4758  -14.2637   25.2229 C   0  0  2  0  0  0  0  0  0  0  0  0
    6.8658  -14.3118   23.8984 N   0  0  0  0  0  0  0  0  0  0  0  0
    7.3412  -15.5347   25.9659 C   0  0  0  0  0  0  0  0  0  0  0  0
    6.2239  -16.1499   26.0389 O   0  0  0  0  0  0  0  0  0  0  0  0
    7.5352  -23.7379   28.2292 O   0  0  0  0  0  0  0  0  0  0  0  0
    7.6586  -22.4618   27.7141 C   0  0  0  0  0  0  0  0  0  0  0  0
    6.5766  -21.6145   27.7990 C   0  0  0  0  0  0  0  0  0  0  0  0
    6.6956  -20.3294   27.2822 C   0  0  0  0  0  0  0  0  0  0  0  0
    7.8438  -19.8733   26.6933 C   0  0  0  0  0  0  0  0  0  0  0  0
    7.9740  -18.5080   26.1481 C   0  0  0  0  0  0  0  0  0  0  0  0
    8.2602  -17.4667   27.2348 C   0  0  2  0  0  0  0  0  0  0  0  0
    8.4270  -16.1554   26.6387 N   0  0  0  0  0  0  0  0  0  0  0  0
    9.5355  -17.8426   27.8788 C   0  0  0  0  0  0  0  0  0  0  0  0
    9.5947  -18.7333   28.9480 O   0  0  0  0  0  0  0  0  0  0  0  0
    8.9253  -20.7512   26.6198 C   0  0  0  0  0  0  0  0  0  0  0  0
    8.8253  -22.0330   27.1282 C   0  0  0  0  0  0  0  0  0  0  0  0
   10.6425  -17.3755   27.4950 O   0  0  0  0  0  0  0  0  0  0  0  0
  1  5  1  0
  2  1  1  0
  2  3  1  0
  3  4  1  0
  5  4  1  0
  5  6  1  1
  6  7  2  0
  9  8  1  0
 10  9  1  0
 10 12  1  0
 10 11  1  1
 12 13  1  6
 13  6  1  0
 14 23  1  0
 14 12  1  0
 15 14  2  0
 16 17  1  0
 17 27  2  0
 17 18  1  0
 18 19  2  0
 19 20  1  0
 20 21  1  0
 22 21  1  6
 22 23  1  0
 22 24  1  0
 24 25  1  0
 26 20  2  0
 27 26  1  0
 28 24  2  0
M  END
$$$$
