PIY.pdb
     RDKit          3D

 28 29  0  0  1  0  0  0  0  0999 V2000
    7.9349  -15.3548   20.6008 N   0  0  0  0  0  0  0  0  0  0  0  0
    8.1966  -16.7798   20.5652 C   0  0  0  0  0  0  0  0  0  0  0  0
    7.0165  -17.4643   21.1979 C   0  0  0  0  0  0  0  0  0  0  0  0
    5.9983  -16.3701   21.4211 C   0  0  0  0  0  0  0  0  0  0  0  0
    6.8820  -15.1510   21.5616 C   0  0  1  0  0  0  0  0  0  0  0  0
    7.4803  -15.0437   22.9050 C   0  0  0  0  0  0  0  0  0  0  0  0
    8.6254  -15.5074   23.1569 O   0  0  0  0  0  0  0  0  0  0  0  0
    5.9552  -10.7735   26.0060 C   0  0  0  0  0  0  0  0  0  0  0  0
    6.7490  -11.8522   25.3440 C   0  0  0  0  0  0  0  0  0  0  0  0
    6.7457  -13.1639   26.0416 C   0  0  2  0  0  0  0  0  0  0  0  0
    7.4686  -13.0161   27.3765 C   0  0  0  0  0  0  0  0  0  0  0  0
    7.4010  -14.2931   25.3137 C   0  0  2  0  0  0  0  0  0  0  0  0
    6.7969  -14.4104   23.9909 N   0  0  0  0  0  0  0  0  0  0  0  0
    7.4350  -15.5760   26.0475 C   0  0  0  0  0  0  0  0  0  0  0  0
    6.3629  -16.2073   26.3379 O   0  0  0  0  0  0  0  0  0  0  0  0
    7.9665  -23.6186   28.7628 O   0  0  0  0  0  0  0  0  0  0  0  0
    8.0350  -22.3872   28.1400 C   0  0  0  0  0  0  0  0  0  0  0  0
    9.2473  -21.9778   27.6316 C   0  0  0  0  0  0  0  0  0  0  0  0
    9.3217  -20.7394   27.0039 C   0  0  0  0  0  0  0  0  0  0  0  0
    8.2393  -19.9123   26.8713 C   0  0  0  0  0  0  0  0  0  0  0  0
    8.3148  -18.5994   26.2014 C   0  0  0  0  0  0  0  0  0  0  0  0
    8.6045  -17.4567   27.1800 C   0  0  2  0  0  0  0  0  0  0  0  0
    8.6422  -16.1911   26.4732 N   0  0  0  0  0  0  0  0  0  0  0  0
    9.9430  -17.6998   27.7558 C   0  0  0  0  0  0  0  0  0  0  0  0
   10.1279  -18.4357   28.9238 O   0  0  0  0  0  0  0  0  0  0  0  0
    7.0229  -20.3504   27.3949 C   0  0  0  0  0  0  0  0  0  0  0  0
    6.9300  -21.5788   28.0224 C   0  0  0  0  0  0  0  0  0  0  0  0
   10.9936  -17.2523   27.2200 O   0  0  0  0  0  0  0  0  0  0  0  0
  1  5  1  0
  2  1  1  0
  2  3  1  0
  3  4  1  0
  5  4  1  0
  5  6  1  1
  6  7  2  0
  9  8  1  0
 10  9  1  0
 10 12  1  0
 10 11  1  1
 12 13  1  6
 13  6  1  0
 14 23  1  0
 14 12  1  0
 15 14  2  0
 16 17  1  0
 17 27  2  0
 17 18  1  0
 18 19  2  0
 19 20  1  0
 20 21  1  0
 22 21  1  6
 22 23  1  0
 22 24  1  0
 24 25  1  0
 26 20  2  0
 27 26  1  0
 28 24  2  0
M  END
$$$$
