PIY.pdb
     RDKit          3D

 28 29  0  0  1  0  0  0  0  0999 V2000
    6.5503  -14.4352   20.2032 N   0  0  0  0  0  0  0  0  0  0  0  0
    6.2744  -13.0239   20.0231 C   0  0  0  0  0  0  0  0  0  0  0  0
    7.5203  -12.3956   19.4621 C   0  0  0  0  0  0  0  0  0  0  0  0
    8.4449  -13.5526   19.1613 C   0  0  0  0  0  0  0  0  0  0  0  0
    7.9818  -14.5857   20.1638 C   0  0  1  0  0  0  0  0  0  0  0  0
    8.5218  -14.3392   21.5135 C   0  0  0  0  0  0  0  0  0  0  0  0
    9.7520  -14.1416   21.7068 O   0  0  0  0  0  0  0  0  0  0  0  0
    5.6081  -11.9475   25.6084 C   0  0  0  0  0  0  0  0  0  0  0  0
    6.7332  -12.4003   24.7358 C   0  0  0  0  0  0  0  0  0  0  0  0
    7.1949  -13.7938   24.9649 C   0  0  2  0  0  0  0  0  0  0  0  0
    7.7788  -13.8967   26.3702 C   0  0  0  0  0  0  0  0  0  0  0  0
    8.2377  -14.3003   24.0214 C   0  0  2  0  0  0  0  0  0  0  0  0
    7.6827  -14.3109   22.6721 N   0  0  0  0  0  0  0  0  0  0  0  0
    8.8536  -15.5895   24.4013 C   0  0  0  0  0  0  0  0  0  0  0  0
    8.3137  -16.7046   24.0894 O   0  0  0  0  0  0  0  0  0  0  0  0
   10.8349  -14.8626   31.3644 O   0  0  0  0  0  0  0  0  0  0  0  0
   11.1113  -15.3228   30.0913 C   0  0  0  0  0  0  0  0  0  0  0  0
   11.3070  -16.6739   29.9123 C   0  0  0  0  0  0  0  0  0  0  0  0
   11.5854  -17.1423   28.6332 C   0  0  0  0  0  0  0  0  0  0  0  0
   11.6724  -16.3150   27.5463 C   0  0  0  0  0  0  0  0  0  0  0  0
   11.9633  -16.8104   26.1868 C   0  0  0  0  0  0  0  0  0  0  0  0
   10.6984  -16.9707   25.3372 C   0  0  2  0  0  0  0  0  0  0  0  0
   10.0716  -15.6803   25.1260 N   0  0  0  0  0  0  0  0  0  0  0  0
    9.7593  -17.8165   26.1021 C   0  0  0  0  0  0  0  0  0  0  0  0
    9.9931  -19.1708   26.3283 O   0  0  0  0  0  0  0  0  0  0  0  0
   11.4701  -14.9507   27.7545 C   0  0  0  0  0  0  0  0  0  0  0  0
   11.1923  -14.4668   29.0194 C   0  0  0  0  0  0  0  0  0  0  0  0
    8.6918  -17.3570   26.5923 O   0  0  0  0  0  0  0  0  0  0  0  0
  1  5  1  0
  2  1  1  0
  2  3  1  0
  3  4  1  0
  5  4  1  0
  5  6  1  1
  6  7  2  0
  9  8  1  0
 10  9  1  0
 10 12  1  0
 10 11  1  1
 12 13  1  6
 13  6  1  0
 14 23  1  0
 14 12  1  0
 15 14  2  0
 16 17  1  0
 17 27  2  0
 17 18  1  0
 18 19  2  0
 19 20  1  0
 20 21  1  0
 22 21  1  1
 22 23  1  0
 22 24  1  0
 24 25  1  0
 26 20  2  0
 27 26  1  0
 28 24  2  0
M  END
$$$$
