PIY.pdb
     RDKit          3D

 28 29  0  0  1  0  0  0  0  0999 V2000
    7.1310  -15.1783   19.8626 N   0  0  0  0  0  0  0  0  0  0  0  0
    6.2861  -14.0075   19.7366 C   0  0  0  0  0  0  0  0  0  0  0  0
    7.1472  -12.8927   19.2101 C   0  0  0  0  0  0  0  0  0  0  0  0
    8.4691  -13.5416   18.8704 C   0  0  0  0  0  0  0  0  0  0  0  0
    8.4928  -14.7120   19.8276 C   0  0  1  0  0  0  0  0  0  0  0  0
    8.8929  -14.3143   21.1900 C   0  0  0  0  0  0  0  0  0  0  0  0
   10.0257  -13.8133   21.4259 O   0  0  0  0  0  0  0  0  0  0  0  0
    6.5739  -12.0624   26.3333 C   0  0  0  0  0  0  0  0  0  0  0  0
    7.7130  -12.6141   25.5394 C   0  0  0  0  0  0  0  0  0  0  0  0
    7.3293  -13.4408   24.3661 C   0  0  2  0  0  0  0  0  0  0  0  0
    6.3417  -14.5120   24.8175 C   0  0  0  0  0  0  0  0  0  0  0  0
    8.4481  -14.1455   23.6690 C   0  0  2  0  0  0  0  0  0  0  0  0
    8.0212  -14.4747   22.3132 N   0  0  0  0  0  0  0  0  0  0  0  0
    9.0071  -15.3056   24.3949 C   0  0  0  0  0  0  0  0  0  0  0  0
    8.2738  -16.0480   25.1321 O   0  0  0  0  0  0  0  0  0  0  0  0
   11.1444  -16.7497   31.8924 O   0  0  0  0  0  0  0  0  0  0  0  0
   11.0871  -16.2786   30.5948 C   0  0  0  0  0  0  0  0  0  0  0  0
   11.6989  -17.0138   29.6043 C   0  0  0  0  0  0  0  0  0  0  0  0
   11.6442  -16.5441   28.2969 C   0  0  0  0  0  0  0  0  0  0  0  0
   11.0072  -15.3818   27.9555 C   0  0  0  0  0  0  0  0  0  0  0  0
   10.9439  -14.8836   26.5677 C   0  0  0  0  0  0  0  0  0  0  0  0
   11.1055  -16.0029   25.5341 C   0  0  2  0  0  0  0  0  0  0  0  0
   10.3766  -15.6749   24.3242 N   0  0  0  0  0  0  0  0  0  0  0  0
   10.5082  -17.2243   26.1118 C   0  0  0  0  0  0  0  0  0  0  0  0
   11.2590  -18.3684   26.3715 O   0  0  0  0  0  0  0  0  0  0  0  0
   10.3955  -14.6557   28.9774 C   0  0  0  0  0  0  0  0  0  0  0  0
   10.4397  -15.1072   30.2834 C   0  0  0  0  0  0  0  0  0  0  0  0
    9.2826  -17.2979   26.4010 O   0  0  0  0  0  0  0  0  0  0  0  0
  1  5  1  0
  2  1  1  0
  2  3  1  0
  3  4  1  0
  5  4  1  0
  5  6  1  1
  6  7  2  0
  9  8  1  0
 10  9  1  0
 10 12  1  0
 10 11  1  1
 12 13  1  6
 13  6  1  0
 14 23  1  0
 14 12  1  0
 15 14  2  0
 16 17  1  0
 17 27  2  0
 17 18  1  0
 18 19  2  0
 19 20  1  0
 20 21  1  0
 22 21  1  1
 22 23  1  0
 22 24  1  0
 24 25  1  0
 26 20  2  0
 27 26  1  0
 28 24  2  0
M  END
$$$$
