PIY.pdb
     RDKit          3D

 28 29  0  0  1  0  0  0  0  0999 V2000
    6.5706  -15.4214   21.2701 N   0  0  0  0  0  0  0  0  0  0  0  0
    6.2464  -14.0909   20.7956 C   0  0  0  0  0  0  0  0  0  0  0  0
    7.4724  -13.5519   20.1116 C   0  0  0  0  0  0  0  0  0  0  0  0
    8.4386  -14.7128   20.0608 C   0  0  0  0  0  0  0  0  0  0  0  0
    8.0067  -15.5260   21.2604 C   0  0  1  0  0  0  0  0  0  0  0  0
    8.5304  -14.9802   22.5261 C   0  0  0  0  0  0  0  0  0  0  0  0
    9.7611  -14.7627   22.6926 O   0  0  0  0  0  0  0  0  0  0  0  0
    5.5657  -11.5409   25.6249 C   0  0  0  0  0  0  0  0  0  0  0  0
    6.6442  -12.2974   24.9202 C   0  0  0  0  0  0  0  0  0  0  0  0
    7.1772  -13.4755   25.6519 C   0  0  2  0  0  0  0  0  0  0  0  0
    7.8138  -13.0022   26.9546 C   0  0  0  0  0  0  0  0  0  0  0  0
    8.2087  -14.2814   24.9303 C   0  0  2  0  0  0  0  0  0  0  0  0
    7.6740  -14.6690   23.6293 N   0  0  0  0  0  0  0  0  0  0  0  0
    8.7569  -15.4239   25.6916 C   0  0  0  0  0  0  0  0  0  0  0  0
    8.0527  -16.4611   25.9379 O   0  0  0  0  0  0  0  0  0  0  0  0
   14.0501  -21.3321   29.4437 O   0  0  0  0  0  0  0  0  0  0  0  0
   13.5387  -20.2666   28.7280 C   0  0  0  0  0  0  0  0  0  0  0  0
   13.8356  -18.9908   29.1522 C   0  0  0  0  0  0  0  0  0  0  0  0
   13.3235  -17.9151   28.4355 C   0  0  0  0  0  0  0  0  0  0  0  0
   12.5372  -18.0736   27.3266 C   0  0  0  0  0  0  0  0  0  0  0  0
   11.9961  -16.9333   26.5615 C   0  0  0  0  0  0  0  0  0  0  0  0
   10.5529  -16.5970   26.9507 C   0  0  2  0  0  0  0  0  0  0  0  0
   10.0851  -15.4522   26.1935 N   0  0  0  0  0  0  0  0  0  0  0  0
   10.5578  -16.2288   28.3814 C   0  0  0  0  0  0  0  0  0  0  0  0
   10.4602  -17.1797   29.3945 O   0  0  0  0  0  0  0  0  0  0  0  0
   12.2511  -19.3761   26.9177 C   0  0  0  0  0  0  0  0  0  0  0  0
   12.7515  -20.4580   27.6180 C   0  0  0  0  0  0  0  0  0  0  0  0
   10.6502  -15.0304   28.7639 O   0  0  0  0  0  0  0  0  0  0  0  0
  1  5  1  0
  2  1  1  0
  2  3  1  0
  3  4  1  0
  5  4  1  0
  5  6  1  1
  6  7  2  0
  9  8  1  0
 10  9  1  0
 10 12  1  0
 10 11  1  1
 12 13  1  6
 13  6  1  0
 14 23  1  0
 14 12  1  0
 15 14  2  0
 16 17  1  0
 17 27  2  0
 17 18  1  0
 18 19  2  0
 19 20  1  0
 20 21  1  0
 22 21  1  6
 22 23  1  0
 22 24  1  0
 24 25  1  0
 26 20  2  0
 27 26  1  0
 28 24  2  0
M  END
$$$$
