PIY.pdb
     RDKit          3D

 28 29  0  0  1  0  0  0  0  0999 V2000
    7.1743  -18.3928   18.9195 N   0  0  0  0  0  0  0  0  0  0  0  0
    7.3054  -17.7419   17.6312 C   0  0  0  0  0  0  0  0  0  0  0  0
    8.7360  -17.9016   17.1961 C   0  0  0  0  0  0  0  0  0  0  0  0
    9.3561  -18.8328   18.2121 C   0  0  0  0  0  0  0  0  0  0  0  0
    8.5080  -18.5635   19.4348 C   0  0  1  0  0  0  0  0  0  0  0  0
    8.9078  -17.3283   20.1338 C   0  0  0  0  0  0  0  0  0  0  0  0
   10.1093  -17.1042   20.4439 O   0  0  0  0  0  0  0  0  0  0  0  0
    7.0680  -12.2486   19.4814 C   0  0  0  0  0  0  0  0  0  0  0  0
    7.8587  -13.4615   19.8498 C   0  0  0  0  0  0  0  0  0  0  0  0
    7.5311  -14.0575   21.1708 C   0  0  2  0  0  0  0  0  0  0  0  0
    7.8570  -13.0455   22.2645 C   0  0  0  0  0  0  0  0  0  0  0  0
    8.2535  -15.3198   21.5157 C   0  0  2  0  0  0  0  0  0  0  0  0
    7.9583  -16.3213   20.4966 N   0  0  0  0  0  0  0  0  0  0  0  0
    8.0303  -15.8139   22.8910 C   0  0  0  0  0  0  0  0  0  0  0  0
    6.8635  -16.1280   23.3061 O   0  0  0  0  0  0  0  0  0  0  0  0
    7.5648  -21.1050   29.5104 O   0  0  0  0  0  0  0  0  0  0  0  0
    7.7361  -20.3587   28.3603 C   0  0  0  0  0  0  0  0  0  0  0  0
    8.8587  -20.5838   27.5955 C   0  0  0  0  0  0  0  0  0  0  0  0
    9.0358  -19.8355   26.4372 C   0  0  0  0  0  0  0  0  0  0  0  0
    8.1399  -18.8855   26.0273 C   0  0  0  0  0  0  0  0  0  0  0  0
    8.3235  -18.0931   24.7958 C   0  0  0  0  0  0  0  0  0  0  0  0
    8.8378  -16.6780   25.0793 C   0  0  2  0  0  0  0  0  0  0  0  0
    9.0798  -15.9755   23.8340 N   0  0  0  0  0  0  0  0  0  0  0  0
   10.1273  -16.8125   25.7874 C   0  0  0  0  0  0  0  0  0  0  0  0
   10.2040  -16.9778   27.1682 O   0  0  0  0  0  0  0  0  0  0  0  0
    7.0112  -18.6767   26.8197 C   0  0  0  0  0  0  0  0  0  0  0  0
    6.8183  -19.4114   27.9750 C   0  0  0  0  0  0  0  0  0  0  0  0
   11.2316  -16.7840   25.1784 O   0  0  0  0  0  0  0  0  0  0  0  0
  1  5  1  0
  2  1  1  0
  2  3  1  0
  3  4  1  0
  5  4  1  0
  5  6  1  6
  6  7  2  0
  9  8  1  0
 10  9  1  0
 10 12  1  0
 10 11  1  1
 12 13  1  6
 13  6  1  0
 14 23  1  0
 14 12  1  0
 15 14  2  0
 16 17  1  0
 17 27  2  0
 17 18  1  0
 18 19  2  0
 19 20  1  0
 20 21  1  0
 22 21  1  6
 22 23  1  0
 22 24  1  0
 24 25  1  0
 26 20  2  0
 27 26  1  0
 28 24  2  0
M  END
$$$$
