PIY.pdb
     RDKit          3D

 28 29  0  0  1  0  0  0  0  0999 V2000
    7.9798  -14.9299   20.3891 N   0  0  0  0  0  0  0  0  0  0  0  0
    8.9195  -15.9938   20.0963 C   0  0  0  0  0  0  0  0  0  0  0  0
    8.4698  -17.2072   20.8624 C   0  0  0  0  0  0  0  0  0  0  0  0
    7.1304  -16.8286   21.4510 C   0  0  0  0  0  0  0  0  0  0  0  0
    7.2603  -15.3268   21.5715 C   0  0  1  0  0  0  0  0  0  0  0  0
    8.0385  -14.9244   22.7575 C   0  0  0  0  0  0  0  0  0  0  0  0
    9.2835  -14.7340   22.6971 O   0  0  0  0  0  0  0  0  0  0  0  0
    5.6559  -11.6482   26.3864 C   0  0  0  0  0  0  0  0  0  0  0  0
    6.7421  -12.2718   25.5718 C   0  0  0  0  0  0  0  0  0  0  0  0
    7.2983  -13.5376   26.1156 C   0  0  2  0  0  0  0  0  0  0  0  0
    8.1062  -13.2239   27.3708 C   0  0  0  0  0  0  0  0  0  0  0  0
    8.1967  -14.3038   25.1991 C   0  0  2  0  0  0  0  0  0  0  0  0
    7.4259  -14.7290   24.0357 N   0  0  0  0  0  0  0  0  0  0  0  0
    8.9413  -15.4122   25.8336 C   0  0  0  0  0  0  0  0  0  0  0  0
    8.3980  -16.5503   26.0377 O   0  0  0  0  0  0  0  0  0  0  0  0
   14.5500  -19.8160   30.9595 O   0  0  0  0  0  0  0  0  0  0  0  0
   13.9786  -18.8510   30.1524 C   0  0  0  0  0  0  0  0  0  0  0  0
   14.1385  -18.9598   28.7892 C   0  0  0  0  0  0  0  0  0  0  0  0
   13.5655  -17.9914   27.9726 C   0  0  0  0  0  0  0  0  0  0  0  0
   12.8498  -16.9357   28.4690 C   0  0  0  0  0  0  0  0  0  0  0  0
   12.2368  -15.9090   27.6040 C   0  0  0  0  0  0  0  0  0  0  0  0
   10.9356  -16.3898   26.9536 C   0  0  2  0  0  0  0  0  0  0  0  0
   10.2933  -15.2951   26.2523 N   0  0  0  0  0  0  0  0  0  0  0  0
   10.0364  -16.8277   28.0408 C   0  0  0  0  0  0  0  0  0  0  0  0
    9.3476  -15.9236   28.8459 O   0  0  0  0  0  0  0  0  0  0  0  0
   12.7026  -16.8485   29.8534 C   0  0  0  0  0  0  0  0  0  0  0  0
   13.2653  -17.8022   30.6811 C   0  0  0  0  0  0  0  0  0  0  0  0
    9.8438  -18.0470   28.3002 O   0  0  0  0  0  0  0  0  0  0  0  0
  1  5  1  0
  2  1  1  0
  2  3  1  0
  3  4  1  0
  5  4  1  0
  5  6  1  1
  6  7  2  0
  9  8  1  0
 10  9  1  0
 10 12  1  0
 10 11  1  1
 12 13  1  6
 13  6  1  0
 14 23  1  0
 14 12  1  0
 15 14  2  0
 16 17  1  0
 17 27  2  0
 17 18  1  0
 18 19  2  0
 19 20  1  0
 20 21  1  0
 22 21  1  1
 22 23  1  0
 22 24  1  0
 24 25  1  0
 26 20  2  0
 27 26  1  0
 28 24  2  0
M  END
$$$$
