PIY.pdb
     RDKit          3D

 28 29  0  0  1  0  0  0  0  0999 V2000
    6.6111  -16.1858   21.4018 N   0  0  0  0  0  0  0  0  0  0  0  0
    5.9444  -15.1008   20.7099 C   0  0  0  0  0  0  0  0  0  0  0  0
    6.8981  -14.5860   19.6674 C   0  0  0  0  0  0  0  0  0  0  0  0
    8.0587  -15.5538   19.6817 C   0  0  0  0  0  0  0  0  0  0  0  0
    8.0148  -16.0666   21.1036 C   0  0  1  0  0  0  0  0  0  0  0  0
    8.6241  -15.1234   22.0592 C   0  0  0  0  0  0  0  0  0  0  0  0
    9.7946  -14.6834   21.8977 O   0  0  0  0  0  0  0  0  0  0  0  0
    5.3074  -12.4758   25.7785 C   0  0  0  0  0  0  0  0  0  0  0  0
    6.3105  -12.8660   24.7425 C   0  0  0  0  0  0  0  0  0  0  0  0
    7.5677  -13.4600   25.2660 C   0  0  2  0  0  0  0  0  0  0  0  0
    8.2412  -12.4540   26.1938 C   0  0  0  0  0  0  0  0  0  0  0  0
    8.5814  -13.8536   24.2404 C   0  0  2  0  0  0  0  0  0  0  0  0
    7.9232  -14.6584   23.2167 N   0  0  0  0  0  0  0  0  0  0  0  0
    9.8020  -14.4911   24.7781 C   0  0  0  0  0  0  0  0  0  0  0  0
   10.8742  -13.8234   24.9704 O   0  0  0  0  0  0  0  0  0  0  0  0
   11.8458  -17.4403   32.5011 O   0  0  0  0  0  0  0  0  0  0  0  0
   11.3147  -17.0354   31.2915 C   0  0  0  0  0  0  0  0  0  0  0  0
   10.5722  -17.9408   30.5671 C   0  0  0  0  0  0  0  0  0  0  0  0
   10.0356  -17.5384   29.3493 C   0  0  0  0  0  0  0  0  0  0  0  0
   10.2156  -16.2798   28.8425 C   0  0  0  0  0  0  0  0  0  0  0  0
    9.6431  -15.8490   27.5522 C   0  0  0  0  0  0  0  0  0  0  0  0
   10.4972  -16.2833   26.3567 C   0  0  2  0  0  0  0  0  0  0  0  0
    9.8693  -15.8685   25.1172 N   0  0  0  0  0  0  0  0  0  0  0  0
   10.5537  -17.7595   26.3700 C   0  0  0  0  0  0  0  0  0  0  0  0
    9.6356  -18.5452   25.6774 O   0  0  0  0  0  0  0  0  0  0  0  0
   10.9717  -15.3817   29.5957 C   0  0  0  0  0  0  0  0  0  0  0  0
   11.5132  -15.7641   30.8090 C   0  0  0  0  0  0  0  0  0  0  0  0
   11.4381  -18.3898   27.0115 O   0  0  0  0  0  0  0  0  0  0  0  0
  1  5  1  0
  2  1  1  0
  2  3  1  0
  3  4  1  0
  5  4  1  0
  5  6  1  1
  6  7  2  0
  9  8  1  0
 10  9  1  0
 10 12  1  0
 10 11  1  1
 12 13  1  6
 13  6  1  0
 14 23  1  0
 14 12  1  0
 15 14  2  0
 16 17  1  0
 17 27  2  0
 17 18  1  0
 18 19  2  0
 19 20  1  0
 20 21  1  0
 22 21  1  1
 22 23  1  0
 22 24  1  0
 24 25  1  0
 26 20  2  0
 27 26  1  0
 28 24  2  0
M  END
$$$$
