QEC.pdb
     RDKit          3D

 25 24  0  0  1  0  0  0  0  0999 V2000
    9.0814  -12.3365   19.3805 N   0  0  0  0  0  0  0  0  0  0  0  0
    8.4810  -13.0628   18.3303 C   0  0  0  0  0  0  0  0  0  0  0  0
    8.7423  -12.7535   17.1535 O   0  0  0  0  0  0  0  0  0  0  0  0
    7.5477  -14.1838   18.5955 C   0  0  0  0  0  0  0  0  0  0  0  0
    7.3303  -14.3571   20.0943 C   0  0  0  0  0  0  0  0  0  0  0  0
    7.4626  -15.8322   20.3897 C   0  0  2  0  0  0  0  0  0  0  0  0
    6.3646  -16.5919   19.8301 N   0  0  0  0  0  0  0  0  0  0  0  0
    7.5152  -16.1098   21.8432 C   0  0  0  0  0  0  0  0  0  0  0  0
    6.4551  -16.1551   22.5056 O   0  0  0  0  0  0  0  0  0  0  0  0
    8.7519  -16.3284   22.5119 N   0  0  0  0  0  0  0  0  0  0  0  0
    8.8390  -16.5286   23.9585 C   0  0  1  0  0  0  0  0  0  0  0  0
   10.0574  -17.3630   24.2576 C   0  0  0  0  0  0  0  0  0  0  0  0
   10.3552  -17.6207   25.6768 C   0  0  0  0  0  0  0  0  0  0  0  0
   11.5393  -18.4878   25.8237 C   0  0  0  0  0  0  0  0  0  0  0  0
   11.5714  -19.5982   25.2728 O   0  0  0  0  0  0  0  0  0  0  0  0
    9.0222  -15.1873   24.5624 C   0  0  0  0  0  0  0  0  0  0  0  0
    9.8924  -14.4010   24.1190 O   0  0  0  0  0  0  0  0  0  0  0  0
   12.6176  -18.0252   26.5969 O   0  0  0  0  0  0  0  0  0  0  0  0
    8.2410  -14.7102   25.6619 N   0  0  0  0  0  0  0  0  0  0  0  0
    8.5174  -13.4428   26.3180 C   0  0  1  0  0  0  0  0  0  0  0  0
    7.2886  -12.5536   26.1188 C   0  0  0  0  0  0  0  0  0  0  0  0
    5.8496  -13.1925   26.9823 S   0  0  0  0  0  0  0  0  0  0  0  0
    8.8342  -13.6119   27.7435 C   0  0  0  0  0  0  0  0  0  0  0  0
    9.1783  -12.6248   28.4703 O   0  0  0  0  0  0  0  0  0  0  0  0
    8.7793  -14.8409   28.3809 O   0  0  0  0  0  0  0  0  0  0  0  0
  1  2  1  0
  2  3  2  0
  4  5  1  0
  4  2  1  0
  5  6  1  0
  6  8  1  0
  6  7  1  1
  8  9  2  0
 10 11  1  0
 10  8  1  0
 12 13  1  0
 11 12  1  6
 13 14  1  0
 14 18  1  0
 14 15  2  0
 16 11  1  0
 17 16  2  0
 19 16  1  0
 20 19  1  0
 20 21  1  1
 22 21  1  0
 23 20  1  0
 24 23  2  0
 25 23  1  0
M  END
$$$$
