QEC.pdb
     RDKit          3D

 25 24  0  0  1  0  0  0  0  0999 V2000
    7.8696  -13.5902   16.5037 N   0  0  0  0  0  0  0  0  0  0  0  0
    8.7160  -13.5334   17.6313 C   0  0  0  0  0  0  0  0  0  0  0  0
    9.8834  -13.9532   17.5339 O   0  0  0  0  0  0  0  0  0  0  0  0
    8.2477  -12.9862   18.9272 C   0  0  0  0  0  0  0  0  0  0  0  0
    7.2832  -13.9553   19.6012 C   0  0  0  0  0  0  0  0  0  0  0  0
    8.0616  -15.2150   19.8975 C   0  0  2  0  0  0  0  0  0  0  0  0
    7.6533  -16.3110   19.0443 N   0  0  0  0  0  0  0  0  0  0  0  0
    7.9080  -15.6505   21.3044 C   0  0  0  0  0  0  0  0  0  0  0  0
    6.7661  -15.8710   21.7650 O   0  0  0  0  0  0  0  0  0  0  0  0
    9.0360  -15.8261   22.1534 N   0  0  0  0  0  0  0  0  0  0  0  0
    8.9167  -16.3070   23.5300 C   0  0  1  0  0  0  0  0  0  0  0  0
   10.1188  -17.1572   23.8499 C   0  0  0  0  0  0  0  0  0  0  0  0
   10.2548  -17.6204   25.2414 C   0  0  0  0  0  0  0  0  0  0  0  0
   11.4475  -18.4726   25.4050 C   0  0  0  0  0  0  0  0  0  0  0  0
   12.2841  -18.2126   26.2825 O   0  0  0  0  0  0  0  0  0  0  0  0
    8.9376  -15.1082   24.4017 C   0  0  0  0  0  0  0  0  0  0  0  0
    9.8481  -14.2535   24.2902 O   0  0  0  0  0  0  0  0  0  0  0  0
   11.6069  -19.5748   24.5482 O   0  0  0  0  0  0  0  0  0  0  0  0
    7.9482  -14.8504   25.4025 N   0  0  0  0  0  0  0  0  0  0  0  0
    8.0205  -13.6987   26.2866 C   0  0  1  0  0  0  0  0  0  0  0  0
    6.6711  -12.9825   26.2066 C   0  0  0  0  0  0  0  0  0  0  0  0
    6.5384  -11.6616   27.4157 S   0  0  0  0  0  0  0  0  0  0  0  0
    8.3475  -14.0781   27.6686 C   0  0  0  0  0  0  0  0  0  0  0  0
    8.2693  -15.2860   28.0632 O   0  0  0  0  0  0  0  0  0  0  0  0
    8.7570  -13.1575   28.6197 O   0  0  0  0  0  0  0  0  0  0  0  0
  1  2  1  0
  2  3  2  0
  4  5  1  0
  4  2  1  0
  5  6  1  0
  6  8  1  0
  6  7  1  6
  8  9  2  0
 10 11  1  0
 10  8  1  0
 12 13  1  0
 11 12  1  1
 13 14  1  0
 14 18  1  0
 14 15  2  0
 16 11  1  0
 17 16  2  0
 19 16  1  0
 20 19  1  0
 20 21  1  1
 22 21  1  0
 23 20  1  0
 24 23  2  0
 25 23  1  0
M  END
$$$$
