QEC.pdb
     RDKit          3D

 25 24  0  0  1  0  0  0  0  0999 V2000
    7.9766  -15.6033   17.7064 N   0  0  0  0  0  0  0  0  0  0  0  0
    7.9262  -14.5137   16.8112 C   0  0  0  0  0  0  0  0  0  0  0  0
    8.0338  -14.7278   15.5901 O   0  0  0  0  0  0  0  0  0  0  0  0
    7.7482  -13.1222   17.2908 C   0  0  0  0  0  0  0  0  0  0  0  0
    7.2721  -13.1110   18.7389 C   0  0  0  0  0  0  0  0  0  0  0  0
    8.5073  -13.1193   19.6076 C   0  0  2  0  0  0  0  0  0  0  0  0
    9.6984  -13.4245   18.8435 N   0  0  0  0  0  0  0  0  0  0  0  0
    8.4092  -14.1016   20.7113 C   0  0  0  0  0  0  0  0  0  0  0  0
    7.4303  -14.0659   21.4892 O   0  0  0  0  0  0  0  0  0  0  0  0
    9.4089  -15.0940   20.9115 N   0  0  0  0  0  0  0  0  0  0  0  0
    9.2992  -16.1232   21.9454 C   0  0  1  0  0  0  0  0  0  0  0  0
   10.4463  -17.0877   21.7898 C   0  0  0  0  0  0  0  0  0  0  0  0
   10.5319  -18.1834   22.7702 C   0  0  0  0  0  0  0  0  0  0  0  0
   11.7214  -19.0218   22.5295 C   0  0  0  0  0  0  0  0  0  0  0  0
   12.8069  -18.7291   23.0523 O   0  0  0  0  0  0  0  0  0  0  0  0
    9.4343  -15.4312   23.2493 C   0  0  0  0  0  0  0  0  0  0  0  0
   10.4578  -14.7558   23.5106 O   0  0  0  0  0  0  0  0  0  0  0  0
   11.5908  -20.1488   21.7004 O   0  0  0  0  0  0  0  0  0  0  0  0
    8.4344  -15.4843   24.2712 N   0  0  0  0  0  0  0  0  0  0  0  0
    8.6790  -15.0047   25.6217 C   0  0  1  0  0  0  0  0  0  0  0  0
    7.6953  -13.8621   25.8803 C   0  0  0  0  0  0  0  0  0  0  0  0
    5.9879  -14.4067   25.7681 S   0  0  0  0  0  0  0  0  0  0  0  0
    8.5409  -16.0711   26.6240 C   0  0  0  0  0  0  0  0  0  0  0  0
    8.0789  -17.2171   26.3170 O   0  0  0  0  0  0  0  0  0  0  0  0
    8.9002  -15.9008   27.9513 O   0  0  0  0  0  0  0  0  0  0  0  0
  1  2  1  0
  2  3  2  0
  4  5  1  0
  4  2  1  0
  5  6  1  0
  6  8  1  0
  6  7  1  6
  8  9  2  0
 10 11  1  0
 10  8  1  0
 12 13  1  0
 11 12  1  6
 13 14  1  0
 14 18  1  0
 14 15  2  0
 16 11  1  0
 17 16  2  0
 19 16  1  0
 20 19  1  0
 20 21  1  1
 22 21  1  0
 23 20  1  0
 24 23  2  0
 25 23  1  0
M  END
$$$$
