QEC.pdb
     RDKit          3D

 25 24  0  0  1  0  0  0  0  0999 V2000
    6.0683  -19.8908   18.0566 N   0  0  0  0  0  0  0  0  0  0  0  0
    7.3995  -19.4296   17.9780 C   0  0  0  0  0  0  0  0  0  0  0  0
    8.2368  -20.1013   17.3484 O   0  0  0  0  0  0  0  0  0  0  0  0
    7.8232  -18.1657   18.6267 C   0  0  0  0  0  0  0  0  0  0  0  0
    6.6521  -17.5196   19.3580 C   0  0  0  0  0  0  0  0  0  0  0  0
    7.1701  -16.2422   19.9748 C   0  0  2  0  0  0  0  0  0  0  0  0
    8.3615  -15.7672   19.3037 N   0  0  0  0  0  0  0  0  0  0  0  0
    7.4895  -16.4035   21.4116 C   0  0  0  0  0  0  0  0  0  0  0  0
    6.6415  -16.9023   22.1842 O   0  0  0  0  0  0  0  0  0  0  0  0
    8.7477  -16.0020   21.9410 N   0  0  0  0  0  0  0  0  0  0  0  0
    9.0851  -16.1408   23.3577 C   0  0  1  0  0  0  0  0  0  0  0  0
   10.4899  -16.6741   23.4692 C   0  0  0  0  0  0  0  0  0  0  0  0
   10.6585  -18.1329   23.3573 C   0  0  0  0  0  0  0  0  0  0  0  0
   12.0819  -18.5122   23.4347 C   0  0  0  0  0  0  0  0  0  0  0  0
   12.9060  -18.0024   22.6611 O   0  0  0  0  0  0  0  0  0  0  0  0
    9.0474  -14.7775   23.9386 C   0  0  0  0  0  0  0  0  0  0  0  0
    9.7706  -13.8651   23.4734 O   0  0  0  0  0  0  0  0  0  0  0  0
   12.4727  -19.4568   24.3987 O   0  0  0  0  0  0  0  0  0  0  0  0
    8.2069  -14.4183   25.0392 N   0  0  0  0  0  0  0  0  0  0  0  0
    8.3703  -13.1694   25.7651 C   0  0  1  0  0  0  0  0  0  0  0  0
    7.0556  -12.3977   25.6378 C   0  0  0  0  0  0  0  0  0  0  0  0
    5.6788  -13.2908   26.3669 S   0  0  0  0  0  0  0  0  0  0  0  0
    8.7323  -13.3876   27.1730 C   0  0  0  0  0  0  0  0  0  0  0  0
    8.7345  -14.5526   27.6866 O   0  0  0  0  0  0  0  0  0  0  0  0
    9.0904  -12.3528   28.0219 O   0  0  0  0  0  0  0  0  0  0  0  0
  1  2  1  0
  2  3  2  0
  4  5  1  0
  4  2  1  0
  5  6  1  0
  6  8  1  0
  6  7  1  6
  8  9  2  0
 10 11  1  0
 10  8  1  0
 12 13  1  0
 11 12  1  6
 13 14  1  0
 14 18  1  0
 14 15  2  0
 16 11  1  0
 17 16  2  0
 19 16  1  0
 20 19  1  0
 20 21  1  1
 22 21  1  0
 23 20  1  0
 24 23  2  0
 25 23  1  0
M  END
$$$$
