QEC.pdb
     RDKit          3D

 25 24  0  0  1  0  0  0  0  0999 V2000
   10.0932  -13.1117   19.2119 N   0  0  0  0  0  0  0  0  0  0  0  0
    8.9303  -12.9465   18.4301 C   0  0  0  0  0  0  0  0  0  0  0  0
    9.0452  -12.6093   17.2377 O   0  0  0  0  0  0  0  0  0  0  0  0
    7.5771  -13.1647   18.9950 C   0  0  0  0  0  0  0  0  0  0  0  0
    7.6636  -13.5003   20.4795 C   0  0  0  0  0  0  0  0  0  0  0  0
    8.0896  -14.9457   20.5790 C   0  0  2  0  0  0  0  0  0  0  0  0
    7.3122  -15.7957   19.7021 N   0  0  0  0  0  0  0  0  0  0  0  0
    7.9622  -15.4736   21.9566 C   0  0  0  0  0  0  0  0  0  0  0  0
    6.8374  -15.8022   22.3942 O   0  0  0  0  0  0  0  0  0  0  0  0
    9.0967  -15.6179   22.8030 N   0  0  0  0  0  0  0  0  0  0  0  0
    9.0204  -16.2532   24.1187 C   0  0  1  0  0  0  0  0  0  0  0  0
   10.0582  -17.3432   24.1891 C   0  0  0  0  0  0  0  0  0  0  0  0
    9.6422  -18.6871   23.7533 C   0  0  0  0  0  0  0  0  0  0  0  0
   10.7558  -19.6489   23.8559 C   0  0  0  0  0  0  0  0  0  0  0  0
   11.6103  -19.5211   24.7452 O   0  0  0  0  0  0  0  0  0  0  0  0
    9.3601  -15.2091   25.1146 C   0  0  0  0  0  0  0  0  0  0  0  0
   10.4736  -14.6337   25.0818 O   0  0  0  0  0  0  0  0  0  0  0  0
   10.8199  -20.7021   22.9279 O   0  0  0  0  0  0  0  0  0  0  0  0
    8.4663  -14.7971   26.1530 N   0  0  0  0  0  0  0  0  0  0  0  0
    8.8432  -13.8155   27.1570 C   0  0  1  0  0  0  0  0  0  0  0  0
    7.5530  -13.1650   27.6592 C   0  0  0  0  0  0  0  0  0  0  0  0
    6.4971  -12.6347   26.3071 S   0  0  0  0  0  0  0  0  0  0  0  0
    9.6091  -14.4139   28.2599 C   0  0  0  0  0  0  0  0  0  0  0  0
    9.7703  -15.6736   28.3513 O   0  0  0  0  0  0  0  0  0  0  0  0
   10.1980  -13.6557   29.2589 O   0  0  0  0  0  0  0  0  0  0  0  0
  1  2  1  0
  2  3  2  0
  4  5  1  0
  4  2  1  0
  5  6  1  0
  6  8  1  0
  6  7  1  6
  8  9  2  0
 10 11  1  0
 10  8  1  0
 12 13  1  0
 11 12  1  6
 13 14  1  0
 14 18  1  0
 14 15  2  0
 16 11  1  0
 17 16  2  0
 19 16  1  0
 20 19  1  0
 20 21  1  1
 22 21  1  0
 23 20  1  0
 24 23  2  0
 25 23  1  0
M  END
$$$$
