QEC.pdb
     RDKit          3D

 25 24  0  0  1  0  0  0  0  0999 V2000
    5.2819  -19.0029   18.6523 N   0  0  0  0  0  0  0  0  0  0  0  0
    6.5652  -18.5131   18.3291 C   0  0  0  0  0  0  0  0  0  0  0  0
    7.1811  -19.0148   17.3712 O   0  0  0  0  0  0  0  0  0  0  0  0
    7.1956  -17.4167   19.1026 C   0  0  0  0  0  0  0  0  0  0  0  0
    6.2357  -16.8872   20.1618 C   0  0  0  0  0  0  0  0  0  0  0  0
    6.9754  -15.8178   20.9298 C   0  0  2  0  0  0  0  0  0  0  0  0
    7.7028  -14.9299   20.0476 N   0  0  0  0  0  0  0  0  0  0  0  0
    7.9390  -16.3889   21.8982 C   0  0  0  0  0  0  0  0  0  0  0  0
    7.5381  -17.1803   22.7800 O   0  0  0  0  0  0  0  0  0  0  0  0
    9.3219  -16.0576   21.8510 N   0  0  0  0  0  0  0  0  0  0  0  0
   10.2941  -16.6040   22.7979 C   0  0  1  0  0  0  0  0  0  0  0  0
   11.6355  -16.6893   22.1169 C   0  0  0  0  0  0  0  0  0  0  0  0
   12.7852  -17.0659   22.9568 C   0  0  0  0  0  0  0  0  0  0  0  0
   14.0356  -17.0764   22.1745 C   0  0  0  0  0  0  0  0  0  0  0  0
   15.1302  -16.9677   22.7468 O   0  0  0  0  0  0  0  0  0  0  0  0
   10.3897  -15.6344   23.9151 C   0  0  0  0  0  0  0  0  0  0  0  0
   10.6844  -14.4355   23.6964 O   0  0  0  0  0  0  0  0  0  0  0  0
   13.9521  -17.2117   20.7784 O   0  0  0  0  0  0  0  0  0  0  0  0
   10.1587  -15.9891   25.2817 N   0  0  0  0  0  0  0  0  0  0  0  0
    9.9829  -14.9905   26.3235 C   0  0  1  0  0  0  0  0  0  0  0  0
    8.7517  -14.1621   25.9518 C   0  0  0  0  0  0  0  0  0  0  0  0
    8.3553  -12.9449   27.2111 S   0  0  0  0  0  0  0  0  0  0  0  0
    9.8424  -15.5956   27.6558 C   0  0  0  0  0  0  0  0  0  0  0  0
    9.3566  -16.7624   27.8088 O   0  0  0  0  0  0  0  0  0  0  0  0
   10.2249  -14.9437   28.8171 O   0  0  0  0  0  0  0  0  0  0  0  0
  1  2  1  0
  2  3  2  0
  4  5  1  0
  4  2  1  0
  5  6  1  0
  6  8  1  0
  6  7  1  6
  8  9  2  0
 10 11  1  0
 10  8  1  0
 12 13  1  0
 11 12  1  6
 13 14  1  0
 14 18  1  0
 14 15  2  0
 16 11  1  0
 17 16  2  0
 19 16  1  0
 20 19  1  0
 20 21  1  6
 22 21  1  0
 23 20  1  0
 24 23  2  0
 25 23  1  0
M  END
$$$$
