QEC.pdb
     RDKit          3D

 25 24  0  0  1  0  0  0  0  0999 V2000
   -2.3085  -24.3080   22.2058 N   0  0  0  0  0  0  0  0  0  0  0  0
   -1.8509  -23.0477   22.6457 C   0  0  0  0  0  0  0  0  0  0  0  0
   -0.8283  -22.5610   22.1298 O   0  0  0  0  0  0  0  0  0  0  0  0
   -2.5588  -22.2912   23.7061 C   0  0  0  0  0  0  0  0  0  0  0  0
   -3.7731  -23.0691   24.2000 C   0  0  0  0  0  0  0  0  0  0  0  0
   -3.7677  -22.9814   25.7076 C   0  0  2  0  0  0  0  0  0  0  0  0
   -2.5709  -23.5661   26.2745 N   0  0  0  0  0  0  0  0  0  0  0  0
   -4.9370  -23.6592   26.3123 C   0  0  0  0  0  0  0  0  0  0  0  0
   -6.0930  -23.3340   25.9620 O   0  0  0  0  0  0  0  0  0  0  0  0
   -4.7782  -24.6802   27.2904 N   0  0  0  0  0  0  0  0  0  0  0  0
   -5.9114  -25.4210   27.8449 C   0  0  1  0  0  0  0  0  0  0  0  0
   -5.4450  -26.8021   28.2259 C   0  0  0  0  0  0  0  0  0  0  0  0
   -5.6476  -27.8703   27.2325 C   0  0  0  0  0  0  0  0  0  0  0  0
   -5.0280  -29.1337   27.6748 C   0  0  0  0  0  0  0  0  0  0  0  0
   -3.8002  -29.2044   27.8326 O   0  0  0  0  0  0  0  0  0  0  0  0
   -6.3265  -24.7041   29.0742 C   0  0  0  0  0  0  0  0  0  0  0  0
   -5.4807  -24.3827   29.9422 O   0  0  0  0  0  0  0  0  0  0  0  0
   -5.8592  -30.2420   27.9097 O   0  0  0  0  0  0  0  0  0  0  0  0
   -7.6826  -24.3394   29.3478 N   0  0  0  0  0  0  0  0  0  0  0  0
   -8.0692  -23.6475   30.5665 C   0  0  1  0  0  0  0  0  0  0  0  0
   -7.3738  -22.2851   30.5524 C   0  0  0  0  0  0  0  0  0  0  0  0
   -8.5465  -20.9305   30.6723 S   0  0  0  0  0  0  0  0  0  0  0  0
   -9.5274  -23.5064   30.6872 C   0  0  0  0  0  0  0  0  0  0  0  0
  -10.0732  -23.1498   31.7808 O   0  0  0  0  0  0  0  0  0  0  0  0
  -10.3920  -23.7489   29.6319 O   0  0  0  0  0  0  0  0  0  0  0  0
  1  2  1  0
  2  3  2  0
  4  5  1  0
  4  2  1  0
  5  6  1  0
  6  8  1  0
  6  7  1  1
  8  9  2  0
 10 11  1  0
 10  8  1  0
 12 13  1  0
 11 12  1  1
 13 14  1  0
 14 18  1  0
 14 15  2  0
 16 11  1  0
 17 16  2  0
 19 16  1  0
 20 19  1  0
 20 21  1  6
 22 21  1  0
 23 20  1  0
 24 23  2  0
 25 23  1  0
M  END
$$$$
