QEC.pdb
     RDKit          3D

 25 24  0  0  1  0  0  0  0  0999 V2000
    8.2214  -12.9405   16.2922 N   0  0  0  0  0  0  0  0  0  0  0  0
    8.1903  -13.9489   15.3057 C   0  0  0  0  0  0  0  0  0  0  0  0
    8.6065  -13.6900   14.1618 O   0  0  0  0  0  0  0  0  0  0  0  0
    7.6742  -15.3073   15.5995 C   0  0  0  0  0  0  0  0  0  0  0  0
    7.4994  -15.5011   17.1014 C   0  0  0  0  0  0  0  0  0  0  0  0
    8.8725  -15.3940   17.7210 C   0  0  2  0  0  0  0  0  0  0  0  0
    9.9021  -15.8895   16.8320 N   0  0  0  0  0  0  0  0  0  0  0  0
    8.9717  -16.1414   18.9953 C   0  0  0  0  0  0  0  0  0  0  0  0
    7.9675  -16.2459   19.7339 O   0  0  0  0  0  0  0  0  0  0  0  0
   10.1910  -16.7494   19.4052 N   0  0  0  0  0  0  0  0  0  0  0  0
   10.3410  -17.4171   20.6983 C   0  0  1  0  0  0  0  0  0  0  0  0
   11.6780  -18.1111   20.7308 C   0  0  0  0  0  0  0  0  0  0  0  0
   11.9676  -18.9421   21.9117 C   0  0  0  0  0  0  0  0  0  0  0  0
   13.3126  -19.5413   21.8246 C   0  0  0  0  0  0  0  0  0  0  0  0
   14.3134  -18.8738   22.1253 O   0  0  0  0  0  0  0  0  0  0  0  0
   10.3338  -16.3520   21.7293 C   0  0  0  0  0  0  0  0  0  0  0  0
   11.2459  -15.4925   21.7656 O   0  0  0  0  0  0  0  0  0  0  0  0
   13.4263  -20.8747   21.3960 O   0  0  0  0  0  0  0  0  0  0  0  0
    9.3145  -16.2342   22.7263 N   0  0  0  0  0  0  0  0  0  0  0  0
    9.4126  -15.2915   23.8286 C   0  0  1  0  0  0  0  0  0  0  0  0
    8.0150  -14.7109   24.0520 C   0  0  0  0  0  0  0  0  0  0  0  0
    7.4315  -13.7944   22.6223 S   0  0  0  0  0  0  0  0  0  0  0  0
    9.9371  -15.9176   25.0508 C   0  0  0  0  0  0  0  0  0  0  0  0
   10.1141  -15.2472   26.1186 O   0  0  0  0  0  0  0  0  0  0  0  0
   10.2685  -17.2612   25.1196 O   0  0  0  0  0  0  0  0  0  0  0  0
  1  2  1  0
  2  3  2  0
  4  5  1  0
  4  2  1  0
  5  6  1  0
  6  8  1  0
  6  7  1  6
  8  9  2  0
 10 11  1  0
 10  8  1  0
 12 13  1  0
 11 12  1  6
 13 14  1  0
 14 18  1  0
 14 15  2  0
 16 11  1  0
 17 16  2  0
 19 16  1  0
 20 19  1  0
 20 21  1  1
 22 21  1  0
 23 20  1  0
 24 23  2  0
 25 23  1  0
M  END
$$$$
