QEC.pdb
     RDKit          3D

 25 24  0  0  1  0  0  0  0  0999 V2000
   11.9253  -14.2375   18.0817 N   0  0  0  0  0  0  0  0  0  0  0  0
   11.2570  -13.2432   18.8273 C   0  0  0  0  0  0  0  0  0  0  0  0
   11.8585  -12.6778   19.7585 O   0  0  0  0  0  0  0  0  0  0  0  0
    9.8574  -12.8570   18.5276 C   0  0  0  0  0  0  0  0  0  0  0  0
    8.9360  -13.2449   19.6784 C   0  0  0  0  0  0  0  0  0  0  0  0
    8.7706  -14.7449   19.6223 C   0  0  2  0  0  0  0  0  0  0  0  0
    7.7862  -15.1395   18.6370 N   0  0  0  0  0  0  0  0  0  0  0  0
    8.3625  -15.3126   20.9276 C   0  0  0  0  0  0  0  0  0  0  0  0
    7.1494  -15.3719   21.2270 O   0  0  0  0  0  0  0  0  0  0  0  0
    9.3234  -15.7968   21.8584 N   0  0  0  0  0  0  0  0  0  0  0  0
    8.9502  -16.3245   23.1710 C   0  0  1  0  0  0  0  0  0  0  0  0
    9.9862  -17.3317   23.5983 C   0  0  0  0  0  0  0  0  0  0  0  0
    9.8733  -17.8619   24.9677 C   0  0  0  0  0  0  0  0  0  0  0  0
   10.9544  -18.8225   25.2579 C   0  0  0  0  0  0  0  0  0  0  0  0
   11.9214  -18.4812   25.9549 O   0  0  0  0  0  0  0  0  0  0  0  0
    8.9830  -15.1807   24.1133 C   0  0  0  0  0  0  0  0  0  0  0  0
   10.0224  -14.4919   24.2453 O   0  0  0  0  0  0  0  0  0  0  0  0
   10.8583  -20.1204   24.7280 O   0  0  0  0  0  0  0  0  0  0  0  0
    7.8628  -14.7941   24.9148 N   0  0  0  0  0  0  0  0  0  0  0  0
    7.9053  -13.6458   25.8053 C   0  0  1  0  0  0  0  0  0  0  0  0
    6.4697  -13.1403   25.9592 C   0  0  0  0  0  0  0  0  0  0  0  0
    6.3436  -11.8388   27.1899 S   0  0  0  0  0  0  0  0  0  0  0  0
    8.5031  -13.9737   27.1076 C   0  0  0  0  0  0  0  0  0  0  0  0
    8.4615  -15.1552   27.5803 O   0  0  0  0  0  0  0  0  0  0  0  0
    9.1427  -13.0304   27.8955 O   0  0  0  0  0  0  0  0  0  0  0  0
  1  2  1  0
  2  3  2  0
  4  5  1  0
  4  2  1  0
  5  6  1  0
  6  8  1  0
  6  7  1  6
  8  9  2  0
 10 11  1  0
 10  8  1  0
 12 13  1  0
 11 12  1  1
 13 14  1  0
 14 18  1  0
 14 15  2  0
 16 11  1  0
 17 16  2  0
 19 16  1  0
 20 19  1  0
 20 21  1  1
 22 21  1  0
 23 20  1  0
 24 23  2  0
 25 23  1  0
M  END
$$$$
