QEC.pdb
     RDKit          3D

 25 24  0  0  1  0  0  0  0  0999 V2000
    8.5821  -12.2214   18.3972 N   0  0  0  0  0  0  0  0  0  0  0  0
    8.0101  -13.2565   17.6276 C   0  0  0  0  0  0  0  0  0  0  0  0
    8.2843  -13.3326   16.4161 O   0  0  0  0  0  0  0  0  0  0  0  0
    7.0917  -14.2537   18.2274 C   0  0  0  0  0  0  0  0  0  0  0  0
    6.8216  -13.9219   19.6905 C   0  0  0  0  0  0  0  0  0  0  0  0
    8.0524  -14.3255   20.4670 C   0  0  2  0  0  0  0  0  0  0  0  0
    8.8160  -15.3404   19.7723 N   0  0  0  0  0  0  0  0  0  0  0  0
    7.7200  -14.8461   21.8127 C   0  0  0  0  0  0  0  0  0  0  0  0
    6.7139  -14.4115   22.4156 O   0  0  0  0  0  0  0  0  0  0  0  0
    8.5229  -15.8370   22.4434 N   0  0  0  0  0  0  0  0  0  0  0  0
    8.2494  -16.3278   23.7942 C   0  0  1  0  0  0  0  0  0  0  0  0
    9.0719  -17.5676   24.0328 C   0  0  0  0  0  0  0  0  0  0  0  0
    8.9313  -18.2164   25.3475 C   0  0  0  0  0  0  0  0  0  0  0  0
    9.7367  -19.4498   25.4218 C   0  0  0  0  0  0  0  0  0  0  0  0
    9.1802  -20.5524   25.5310 O   0  0  0  0  0  0  0  0  0  0  0  0
    8.7017  -15.2707   24.7297 C   0  0  0  0  0  0  0  0  0  0  0  0
    9.8529  -14.7831   24.6337 O   0  0  0  0  0  0  0  0  0  0  0  0
   11.1366  -19.3410   25.3659 O   0  0  0  0  0  0  0  0  0  0  0  0
    7.8795  -14.7479   25.7773 N   0  0  0  0  0  0  0  0  0  0  0  0
    8.3534  -13.7304   26.7012 C   0  0  1  0  0  0  0  0  0  0  0  0
    7.1299  -12.9400   27.1688 C   0  0  0  0  0  0  0  0  0  0  0  0
    6.1781  -12.2961   25.7890 S   0  0  0  0  0  0  0  0  0  0  0  0
    9.0870  -14.3082   27.8364 C   0  0  0  0  0  0  0  0  0  0  0  0
    9.1591  -15.5674   28.0105 O   0  0  0  0  0  0  0  0  0  0  0  0
    9.7398  -13.5301   28.7788 O   0  0  0  0  0  0  0  0  0  0  0  0
  1  2  1  0
  2  3  2  0
  4  5  1  0
  4  2  1  0
  5  6  1  0
  6  8  1  0
  6  7  1  6
  8  9  2  0
 10 11  1  0
 10  8  1  0
 12 13  1  0
 11 12  1  1
 13 14  1  0
 14 18  1  0
 14 15  2  0
 16 11  1  0
 17 16  2  0
 19 16  1  0
 20 19  1  0
 20 21  1  1
 22 21  1  0
 23 20  1  0
 24 23  2  0
 25 23  1  0
M  END
$$$$
