QEC.pdb
     RDKit          3D

 25 24  0  0  1  0  0  0  0  0999 V2000
    9.1456  -12.0038   19.1456 N   0  0  0  0  0  0  0  0  0  0  0  0
    8.5310  -13.2737   19.1224 C   0  0  0  0  0  0  0  0  0  0  0  0
    9.0585  -14.1898   18.4658 O   0  0  0  0  0  0  0  0  0  0  0  0
    7.2736  -13.5417   19.8608 C   0  0  0  0  0  0  0  0  0  0  0  0
    7.5743  -13.9940   21.2851 C   0  0  0  0  0  0  0  0  0  0  0  0
    7.9489  -15.4551   21.2123 C   0  0  2  0  0  0  0  0  0  0  0  0
    6.8379  -16.2723   20.7723 N   0  0  0  0  0  0  0  0  0  0  0  0
    8.4128  -15.9801   22.5168 C   0  0  0  0  0  0  0  0  0  0  0  0
    7.6031  -16.0954   23.4632 O   0  0  0  0  0  0  0  0  0  0  0  0
    9.7682  -16.3603   22.7233 N   0  0  0  0  0  0  0  0  0  0  0  0
   10.2354  -16.9579   23.9743 C   0  0  1  0  0  0  0  0  0  0  0  0
   11.5105  -17.7129   23.7017 C   0  0  0  0  0  0  0  0  0  0  0  0
   12.1860  -18.3186   24.8618 C   0  0  0  0  0  0  0  0  0  0  0  0
   13.4136  -19.0271   24.4535 C   0  0  0  0  0  0  0  0  0  0  0  0
   13.7839  -19.0019   23.2704 O   0  0  0  0  0  0  0  0  0  0  0  0
   10.5358  -15.8354   24.8947 C   0  0  0  0  0  0  0  0  0  0  0  0
   11.2569  -14.8797   24.5220 O   0  0  0  0  0  0  0  0  0  0  0  0
   14.1430  -19.7234   25.4320 O   0  0  0  0  0  0  0  0  0  0  0  0
   10.0379  -15.7664   26.2341 N   0  0  0  0  0  0  0  0  0  0  0  0
   10.4891  -14.7575   27.1787 C   0  0  1  0  0  0  0  0  0  0  0  0
    9.5689  -13.5459   27.0191 C   0  0  0  0  0  0  0  0  0  0  0  0
    7.8568  -13.9500   27.3797 S   0  0  0  0  0  0  0  0  0  0  0  0
   10.4917  -15.2530   28.5626 C   0  0  0  0  0  0  0  0  0  0  0  0
   10.0405  -16.4065   28.8573 O   0  0  0  0  0  0  0  0  0  0  0  0
   10.9792  -14.5064   29.6231 O   0  0  0  0  0  0  0  0  0  0  0  0
  1  2  1  0
  2  3  2  0
  4  5  1  0
  4  2  1  0
  5  6  1  0
  6  8  1  0
  6  7  1  1
  8  9  2  0
 10 11  1  0
 10  8  1  0
 12 13  1  0
 11 12  1  6
 13 14  1  0
 14 18  1  0
 14 15  2  0
 16 11  1  0
 17 16  2  0
 19 16  1  0
 20 19  1  0
 20 21  1  1
 22 21  1  0
 23 20  1  0
 24 23  2  0
 25 23  1  0
M  END
$$$$
