QEC.pdb
     RDKit          3D

 25 24  0  0  1  0  0  0  0  0999 V2000
    9.0845  -13.3392   18.1425 N   0  0  0  0  0  0  0  0  0  0  0  0
    8.9803  -12.7461   19.4186 C   0  0  0  0  0  0  0  0  0  0  0  0
    9.8169  -11.8897   19.7584 O   0  0  0  0  0  0  0  0  0  0  0  0
    7.8994  -13.1186   20.3624 C   0  0  0  0  0  0  0  0  0  0  0  0
    7.0248  -14.2172   19.7692 C   0  0  0  0  0  0  0  0  0  0  0  0
    7.6575  -15.5351   20.1479 C   0  0  2  0  0  0  0  0  0  0  0  0
    6.9410  -16.6571   19.5792 N   0  0  0  0  0  0  0  0  0  0  0  0
    7.7158  -15.7273   21.6149 C   0  0  0  0  0  0  0  0  0  0  0  0
    6.6706  -15.6331   22.2956 O   0  0  0  0  0  0  0  0  0  0  0  0
    8.9413  -16.0192   22.2763 N   0  0  0  0  0  0  0  0  0  0  0  0
    9.0107  -16.3209   23.7061 C   0  0  1  0  0  0  0  0  0  0  0  0
   10.2742  -17.0966   23.9748 C   0  0  0  0  0  0  0  0  0  0  0  0
   10.2764  -18.5183   23.5905 C   0  0  0  0  0  0  0  0  0  0  0  0
   11.5761  -19.1488   23.8889 C   0  0  0  0  0  0  0  0  0  0  0  0
   11.8329  -19.5339   25.0392 O   0  0  0  0  0  0  0  0  0  0  0  0
    9.0936  -15.0195   24.4111 C   0  0  0  0  0  0  0  0  0  0  0  0
    9.9602  -14.1727   24.0884 O   0  0  0  0  0  0  0  0  0  0  0  0
   12.5042  -19.2989   22.8446 O   0  0  0  0  0  0  0  0  0  0  0  0
    8.2155  -14.6498   25.4782 N   0  0  0  0  0  0  0  0  0  0  0  0
    8.4541  -13.4815   26.3100 C   0  0  1  0  0  0  0  0  0  0  0  0
    7.1671  -12.6547   26.3071 C   0  0  0  0  0  0  0  0  0  0  0  0
    5.7400  -13.6305   26.7928 S   0  0  0  0  0  0  0  0  0  0  0  0
    8.8576  -13.8446   27.6761 C   0  0  0  0  0  0  0  0  0  0  0  0
    8.8353  -15.0526   28.0777 O   0  0  0  0  0  0  0  0  0  0  0  0
    9.2834  -12.9077   28.6039 O   0  0  0  0  0  0  0  0  0  0  0  0
  1  2  1  0
  2  3  2  0
  4  5  1  0
  4  2  1  0
  5  6  1  0
  6  8  1  0
  6  7  1  6
  8  9  2  0
 10 11  1  0
 10  8  1  0
 12 13  1  0
 11 12  1  6
 13 14  1  0
 14 18  1  0
 14 15  2  0
 16 11  1  0
 17 16  2  0
 19 16  1  0
 20 19  1  0
 20 21  1  1
 22 21  1  0
 23 20  1  0
 24 23  2  0
 25 23  1  0
M  END
$$$$
