QEC.pdb
     RDKit          3D

 25 24  0  0  1  0  0  0  0  0999 V2000
   14.9722  -14.6486   21.3710 N   0  0  0  0  0  0  0  0  0  0  0  0
   14.5000  -14.7054   20.0425 C   0  0  0  0  0  0  0  0  0  0  0  0
   15.2712  -15.0822   19.1414 O   0  0  0  0  0  0  0  0  0  0  0  0
   13.1091  -14.3274   19.6957 C   0  0  0  0  0  0  0  0  0  0  0  0
   12.2086  -14.4126   20.9228 C   0  0  0  0  0  0  0  0  0  0  0  0
   11.8514  -15.8685   21.1054 C   0  0  2  0  0  0  0  0  0  0  0  0
   11.1484  -16.3966   19.9553 N   0  0  0  0  0  0  0  0  0  0  0  0
   11.0049  -16.0920   22.2995 C   0  0  0  0  0  0  0  0  0  0  0  0
    9.7761  -15.8654   22.2410 O   0  0  0  0  0  0  0  0  0  0  0  0
   11.5583  -16.5623   23.5230 N   0  0  0  0  0  0  0  0  0  0  0  0
   10.7287  -16.9444   24.6658 C   0  0  1  0  0  0  0  0  0  0  0  0
   11.2215  -18.2644   25.1999 C   0  0  0  0  0  0  0  0  0  0  0  0
   10.9945  -19.4499   24.3562 C   0  0  0  0  0  0  0  0  0  0  0  0
   11.5443  -20.6652   24.9860 C   0  0  0  0  0  0  0  0  0  0  0  0
   12.2261  -20.5788   26.0180 O   0  0  0  0  0  0  0  0  0  0  0  0
   10.9322  -15.9063   25.7042 C   0  0  0  0  0  0  0  0  0  0  0  0
   12.0678  -15.4115   25.8982 O   0  0  0  0  0  0  0  0  0  0  0  0
   11.2765  -21.9092   24.3900 O   0  0  0  0  0  0  0  0  0  0  0  0
    9.8770  -15.4108   26.5335 N   0  0  0  0  0  0  0  0  0  0  0  0
   10.1255  -14.5245   27.6588 C   0  0  1  0  0  0  0  0  0  0  0  0
    8.8032  -13.8282   27.9858 C   0  0  0  0  0  0  0  0  0  0  0  0
    8.0291  -13.1340   26.5218 S   0  0  0  0  0  0  0  0  0  0  0  0
   10.6585  -15.2428   28.8253 C   0  0  0  0  0  0  0  0  0  0  0  0
   11.0256  -14.6252   29.8764 O   0  0  0  0  0  0  0  0  0  0  0  0
   10.7943  -16.6214   28.8566 O   0  0  0  0  0  0  0  0  0  0  0  0
  1  2  1  0
  2  3  2  0
  4  5  1  0
  4  2  1  0
  5  6  1  0
  6  8  1  0
  6  7  1  6
  8  9  2  0
 10 11  1  0
 10  8  1  0
 12 13  1  0
 11 12  1  1
 13 14  1  0
 14 18  1  0
 14 15  2  0
 16 11  1  0
 17 16  2  0
 19 16  1  0
 20 19  1  0
 20 21  1  1
 22 21  1  0
 23 20  1  0
 24 23  2  0
 25 23  1  0
M  END
$$$$
