EAD.pdb
     RDKit          3D

 23 22  0  0  1  0  0  0  0  0999 V2000
   16.9879  -11.3848  -15.5467 N   0  0  0  0  0  0  0  0  0  0  0  0
   18.1407  -10.9215  -16.2102 C   0  0  1  0  0  0  0  0  0  0  0  0
   17.9933  -10.3866  -17.5923 C   0  0  0  0  0  0  0  0  0  0  0  0
   16.9401   -9.3553  -17.7252 C   0  0  0  0  0  0  0  0  0  0  0  0
   16.7256   -8.8913  -19.0946 C   0  0  0  0  0  0  0  0  0  0  0  0
   16.8355   -7.6206  -19.3106 O   0  0  0  0  0  0  0  0  0  0  0  0
   18.8893   -9.8550  -15.4261 C   0  0  0  0  0  0  0  0  0  0  0  0
   18.0971   -9.0186  -14.9035 O   0  0  0  0  0  0  0  0  0  0  0  0
   16.4203   -9.6434  -20.1745 O   0  0  0  0  0  0  0  0  0  0  0  0
   22.4146   -9.1745  -14.2217 C   0  0  0  0  0  0  0  0  0  0  0  0
   20.9731   -8.8558  -14.4690 C   0  0  2  0  0  0  0  0  0  0  0  0
   20.2641   -9.7796  -15.2801 N   0  0  0  0  0  0  0  0  0  0  0  0
   20.8396   -7.4209  -14.8206 C   0  0  0  0  0  0  0  0  0  0  0  0
   20.8150   -7.0224  -15.9949 O   0  0  0  0  0  0  0  0  0  0  0  0
   20.7329   -6.4008  -13.8234 N   0  0  0  0  0  0  0  0  0  0  0  0
   20.6994   -4.9764  -14.2226 C   0  0  1  0  0  0  0  0  0  0  0  0
   19.6058   -4.2624  -13.4795 C   0  0  0  0  0  0  0  0  0  0  0  0
   19.5158   -2.8283  -13.7703 C   0  0  0  0  0  0  0  0  0  0  0  0
   20.3593   -2.0084  -13.2980 O   0  0  0  0  0  0  0  0  0  0  0  0
   22.0482   -4.4224  -13.9650 C   0  0  0  0  0  0  0  0  0  0  0  0
   22.9112   -5.0895  -13.1110 O   0  0  0  0  0  0  0  0  0  0  0  0
   18.5209   -2.3125  -14.5573 O   0  0  0  0  0  0  0  0  0  0  0  0
   22.4557   -3.3726  -14.4834 O   0  0  0  0  0  0  0  0  0  0  0  0
  2  3  1  0
  2  1  1  1
  3  4  1  0
  4  5  1  0
  5  6  2  0
  5  9  1  0
  7  8  2  0
  7  2  1  0
 11 10  1  6
 11 13  1  0
 11 12  1  0
 12  7  1  0
 13 15  1  0
 14 13  2  0
 15 16  1  0
 16 17  1  1
 17 18  1  0
 18 19  2  0
 18 22  1  0
 20 16  1  0
 21 20  1  0
 23 20  2  0
M  END
$$$$
