EAD.pdb
     RDKit          3D

 23 22  0  0  1  0  0  0  0  0999 V2000
   21.4649  -12.0410  -19.5109 N   0  0  0  0  0  0  0  0  0  0  0  0
   21.8436  -11.8417  -18.1690 C   0  0  1  0  0  0  0  0  0  0  0  0
   23.2963  -11.8085  -17.8424 C   0  0  0  0  0  0  0  0  0  0  0  0
   24.0023  -13.0778  -18.1272 C   0  0  0  0  0  0  0  0  0  0  0  0
   24.5604  -13.7309  -16.9446 C   0  0  0  0  0  0  0  0  0  0  0  0
   23.9762  -14.8107  -16.5365 O   0  0  0  0  0  0  0  0  0  0  0  0
   21.2497  -10.5785  -17.5654 C   0  0  0  0  0  0  0  0  0  0  0  0
   21.5940   -9.5469  -18.2115 O   0  0  0  0  0  0  0  0  0  0  0  0
   25.6271  -13.3331  -16.2174 O   0  0  0  0  0  0  0  0  0  0  0  0
   18.8966   -9.5679  -14.7657 C   0  0  0  0  0  0  0  0  0  0  0  0
   19.9234   -9.3542  -15.8338 C   0  0  2  0  0  0  0  0  0  0  0  0
   20.4300  -10.5275  -16.4508 N   0  0  0  0  0  0  0  0  0  0  0  0
   20.9227   -8.3634  -15.3646 C   0  0  0  0  0  0  0  0  0  0  0  0
   22.0147   -8.6971  -14.8804 O   0  0  0  0  0  0  0  0  0  0  0  0
   20.6884   -6.9542  -15.4385 N   0  0  0  0  0  0  0  0  0  0  0  0
   21.7157   -6.0067  -14.9524 C   0  0  1  0  0  0  0  0  0  0  0  0
   21.8898   -4.8889  -15.9415 C   0  0  0  0  0  0  0  0  0  0  0  0
   22.7720   -3.8110  -15.4843 C   0  0  0  0  0  0  0  0  0  0  0  0
   23.8443   -4.0619  -14.8565 O   0  0  0  0  0  0  0  0  0  0  0  0
   21.2830   -5.5483  -13.6126 C   0  0  0  0  0  0  0  0  0  0  0  0
   22.2147   -5.0138  -12.7376 O   0  0  0  0  0  0  0  0  0  0  0  0
   22.4778   -2.4928  -15.7102 O   0  0  0  0  0  0  0  0  0  0  0  0
   20.1079   -5.6175  -13.2237 O   0  0  0  0  0  0  0  0  0  0  0  0
  2  3  1  0
  2  1  1  6
  3  4  1  0
  4  5  1  0
  5  6  2  0
  5  9  1  0
  7  8  2  0
  7  2  1  0
 11 10  1  1
 11 13  1  0
 11 12  1  0
 12  7  1  0
 13 15  1  0
 14 13  2  0
 15 16  1  0
 16 17  1  6
 17 18  1  0
 18 19  2  0
 18 22  1  0
 20 16  1  0
 21 20  1  0
 23 20  2  0
M  END
$$$$
