EAD.pdb
     RDKit          3D

 23 22  0  0  1  0  0  0  0  0999 V2000
   20.0831  -13.9642  -16.8939 N   0  0  0  0  0  0  0  0  0  0  0  0
   19.3743  -12.7503  -16.9815 C   0  0  1  0  0  0  0  0  0  0  0  0
   18.3022  -12.4846  -15.9824 C   0  0  0  0  0  0  0  0  0  0  0  0
   17.2115  -13.4848  -15.9955 C   0  0  0  0  0  0  0  0  0  0  0  0
   16.0927  -13.1624  -15.1117 C   0  0  0  0  0  0  0  0  0  0  0  0
   15.0087  -12.7270  -15.6675 O   0  0  0  0  0  0  0  0  0  0  0  0
   20.2810  -11.5297  -16.9575 C   0  0  0  0  0  0  0  0  0  0  0  0
   20.9028  -11.4326  -15.8602 O   0  0  0  0  0  0  0  0  0  0  0  0
   16.0583  -13.2654  -13.7651 O   0  0  0  0  0  0  0  0  0  0  0  0
   21.4728   -8.7877  -19.2837 C   0  0  0  0  0  0  0  0  0  0  0  0
   21.2220   -9.4402  -17.9601 C   0  0  2  0  0  0  0  0  0  0  0  0
   20.4328  -10.6193  -17.9896 N   0  0  0  0  0  0  0  0  0  0  0  0
   20.8397   -8.4071  -16.9666 C   0  0  0  0  0  0  0  0  0  0  0  0
   19.6572   -8.1495  -16.6952 O   0  0  0  0  0  0  0  0  0  0  0  0
   21.8145   -7.6370  -16.2575 N   0  0  0  0  0  0  0  0  0  0  0  0
   21.3830   -6.6527  -15.2405 C   0  0  1  0  0  0  0  0  0  0  0  0
   22.5348   -6.3110  -14.3380 C   0  0  0  0  0  0  0  0  0  0  0  0
   22.2201   -5.3151  -13.3092 C   0  0  0  0  0  0  0  0  0  0  0  0
   21.0203   -5.0439  -13.0031 O   0  0  0  0  0  0  0  0  0  0  0  0
   20.8381   -5.4856  -15.9708 C   0  0  0  0  0  0  0  0  0  0  0  0
   21.4086   -5.1029  -17.1738 O   0  0  0  0  0  0  0  0  0  0  0  0
   23.2016   -4.6347  -12.6391 O   0  0  0  0  0  0  0  0  0  0  0  0
   19.8787   -4.8190  -15.5559 O   0  0  0  0  0  0  0  0  0  0  0  0
  2  3  1  0
  2  1  1  1
  3  4  1  0
  4  5  1  0
  5  6  2  0
  5  9  1  0
  7  8  2  0
  7  2  1  0
 11 10  1  6
 11 13  1  0
 11 12  1  0
 12  7  1  0
 13 15  1  0
 14 13  2  0
 15 16  1  0
 16 17  1  6
 17 18  1  0
 18 19  2  0
 18 22  1  0
 20 16  1  0
 21 20  1  0
 23 20  2  0
M  END
$$$$
