EAD.pdb
     RDKit          3D

 23 22  0  0  1  0  0  0  0  0999 V2000
   17.7114  -12.1427  -16.0002 N   0  0  0  0  0  0  0  0  0  0  0  0
   18.6835  -11.3483  -16.6386 C   0  0  1  0  0  0  0  0  0  0  0  0
   18.2726  -10.5454  -17.8238 C   0  0  0  0  0  0  0  0  0  0  0  0
   16.8357  -10.1912  -17.8369 C   0  0  0  0  0  0  0  0  0  0  0  0
   16.4293   -9.3802  -18.9831 C   0  0  0  0  0  0  0  0  0  0  0  0
   16.1334   -8.1418  -18.7538 O   0  0  0  0  0  0  0  0  0  0  0  0
   19.3716  -10.3765  -15.6926 C   0  0  0  0  0  0  0  0  0  0  0  0
   18.5344   -9.7301  -14.9987 O   0  0  0  0  0  0  0  0  0  0  0  0
   16.3232   -9.7778  -20.2698 O   0  0  0  0  0  0  0  0  0  0  0  0
   22.8682   -9.4157  -14.5930 C   0  0  0  0  0  0  0  0  0  0  0  0
   21.3952   -9.2249  -14.7786 C   0  0  2  0  0  0  0  0  0  0  0  0
   20.7396  -10.1975  -15.5776 N   0  0  0  0  0  0  0  0  0  0  0  0
   21.1197   -7.8031  -15.0996 C   0  0  0  0  0  0  0  0  0  0  0  0
   21.0723   -7.3805  -16.2647 O   0  0  0  0  0  0  0  0  0  0  0  0
   20.8927   -6.8243  -14.0815 N   0  0  0  0  0  0  0  0  0  0  0  0
   20.7818   -5.3935  -14.4420 C   0  0  1  0  0  0  0  0  0  0  0  0
   19.4077   -4.8863  -14.1065 C   0  0  0  0  0  0  0  0  0  0  0  0
   19.2324   -3.4441  -14.3033 C   0  0  0  0  0  0  0  0  0  0  0  0
   19.9096   -2.8125  -15.1691 O   0  0  0  0  0  0  0  0  0  0  0  0
   21.8655   -4.6812  -13.7274 C   0  0  0  0  0  0  0  0  0  0  0  0
   22.1705   -3.3747  -14.0727 O   0  0  0  0  0  0  0  0  0  0  0  0
   18.3376   -2.7182  -13.5634 O   0  0  0  0  0  0  0  0  0  0  0  0
   22.5278   -5.2011  -12.8174 O   0  0  0  0  0  0  0  0  0  0  0  0
  2  3  1  0
  2  1  1  1
  3  4  1  0
  4  5  1  0
  5  6  2  0
  5  9  1  0
  7  8  2  0
  7  2  1  0
 11 10  1  6
 11 13  1  0
 11 12  1  0
 12  7  1  0
 13 15  1  0
 14 13  2  0
 15 16  1  0
 16 17  1  1
 17 18  1  0
 18 19  2  0
 18 22  1  0
 20 16  1  0
 21 20  1  0
 23 20  2  0
M  END
$$$$
