EAD.pdb
     RDKit          3D

 23 22  0  0  1  0  0  0  0  0999 V2000
   21.0667  -12.6282  -17.2707 N   0  0  0  0  0  0  0  0  0  0  0  0
   20.2507  -11.5089  -17.0155 C   0  0  1  0  0  0  0  0  0  0  0  0
   18.9039  -11.7372  -16.4221 C   0  0  0  0  0  0  0  0  0  0  0  0
   18.1426  -12.8290  -17.0692 C   0  0  0  0  0  0  0  0  0  0  0  0
   16.8876  -13.1633  -16.3984 C   0  0  0  0  0  0  0  0  0  0  0  0
   16.3130  -12.2233  -15.7204 O   0  0  0  0  0  0  0  0  0  0  0  0
   20.9260  -10.4698  -16.1340 C   0  0  0  0  0  0  0  0  0  0  0  0
   20.2126  -10.1740  -15.1322 O   0  0  0  0  0  0  0  0  0  0  0  0
   16.2504  -14.3544  -16.4020 O   0  0  0  0  0  0  0  0  0  0  0  0
   24.2409   -8.7088  -15.7450 C   0  0  0  0  0  0  0  0  0  0  0  0
   22.7539   -8.8379  -15.6320 C   0  0  2  0  0  0  0  0  0  0  0  0
   22.1658   -9.8995  -16.3676 N   0  0  0  0  0  0  0  0  0  0  0  0
   22.1312   -7.4997  -15.7797 C   0  0  0  0  0  0  0  0  0  0  0  0
   21.7944   -7.0398  -16.8813 O   0  0  0  0  0  0  0  0  0  0  0  0
   21.8808   -6.6497  -14.6567 N   0  0  0  0  0  0  0  0  0  0  0  0
   21.3186   -5.2968  -14.8634 C   0  0  1  0  0  0  0  0  0  0  0  0
   19.8373   -5.3141  -14.6114 C   0  0  0  0  0  0  0  0  0  0  0  0
   19.2005   -3.9948  -14.6676 C   0  0  0  0  0  0  0  0  0  0  0  0
   19.5112   -3.1533  -15.5632 O   0  0  0  0  0  0  0  0  0  0  0  0
   22.0595   -4.3783  -13.9690 C   0  0  0  0  0  0  0  0  0  0  0  0
   21.8274   -3.0146  -14.0430 O   0  0  0  0  0  0  0  0  0  0  0  0
   18.2498   -3.6131  -13.7589 O   0  0  0  0  0  0  0  0  0  0  0  0
   22.8929   -4.7718  -13.1398 O   0  0  0  0  0  0  0  0  0  0  0  0
  2  3  1  0
  2  1  1  1
  3  4  1  0
  4  5  1  0
  5  6  2  0
  5  9  1  0
  7  8  2  0
  7  2  1  0
 11 10  1  6
 11 13  1  0
 11 12  1  0
 12  7  1  0
 13 15  1  0
 14 13  2  0
 15 16  1  0
 16 17  1  1
 17 18  1  0
 18 19  2  0
 18 22  1  0
 20 16  1  0
 21 20  1  0
 23 20  2  0
M  END
$$$$
