EAD.pdb
     RDKit          3D

 23 22  0  0  1  0  0  0  0  0999 V2000
   20.2986  -12.4700  -17.3889 N   0  0  0  0  0  0  0  0  0  0  0  0
   19.3876  -11.4776  -16.9776 C   0  0  1  0  0  0  0  0  0  0  0  0
   18.0989  -11.9102  -16.3693 C   0  0  0  0  0  0  0  0  0  0  0  0
   17.5878  -13.1935  -16.9008 C   0  0  0  0  0  0  0  0  0  0  0  0
   16.3340  -13.6363  -16.2936 C   0  0  0  0  0  0  0  0  0  0  0  0
   15.3569  -13.9143  -17.0946 O   0  0  0  0  0  0  0  0  0  0  0  0
   19.9957  -10.4794  -16.0047 C   0  0  0  0  0  0  0  0  0  0  0  0
   19.1467   -9.6215  -15.6259 O   0  0  0  0  0  0  0  0  0  0  0  0
   16.0721  -13.7893  -14.9772 O   0  0  0  0  0  0  0  0  0  0  0  0
   23.2735   -9.8688  -14.1958 C   0  0  0  0  0  0  0  0  0  0  0  0
   21.9061   -9.5278  -14.7003 C   0  0  2  0  0  0  0  0  0  0  0  0
   21.3088  -10.4808  -15.5658 N   0  0  0  0  0  0  0  0  0  0  0  0
   21.8858   -8.1143  -15.1499 C   0  0  0  0  0  0  0  0  0  0  0  0
   22.2054   -7.7765  -16.2997 O   0  0  0  0  0  0  0  0  0  0  0  0
   21.4972   -7.0461  -14.2815 N   0  0  0  0  0  0  0  0  0  0  0  0
   21.4547   -5.6572  -14.7900 C   0  0  1  0  0  0  0  0  0  0  0  0
   20.0284   -5.2299  -14.9928 C   0  0  0  0  0  0  0  0  0  0  0  0
   19.8684   -3.8223  -15.3701 C   0  0  0  0  0  0  0  0  0  0  0  0
   20.7719   -3.2080  -16.0130 O   0  0  0  0  0  0  0  0  0  0  0  0
   22.1909   -4.8171  -13.8180 C   0  0  0  0  0  0  0  0  0  0  0  0
   22.3951   -3.4741  -14.0898 O   0  0  0  0  0  0  0  0  0  0  0  0
   18.7445   -3.1110  -15.0442 O   0  0  0  0  0  0  0  0  0  0  0  0
   22.6430   -5.2593  -12.7517 O   0  0  0  0  0  0  0  0  0  0  0  0
  2  3  1  0
  2  1  1  1
  3  4  1  0
  4  5  1  0
  5  6  2  0
  5  9  1  0
  7  8  2  0
  7  2  1  0
 11 10  1  6
 11 13  1  0
 11 12  1  0
 12  7  1  0
 13 15  1  0
 14 13  2  0
 15 16  1  0
 16 17  1  1
 17 18  1  0
 18 19  2  0
 18 22  1  0
 20 16  1  0
 21 20  1  0
 23 20  2  0
M  END
$$$$
