EAD.pdb
     RDKit          3D

 23 22  0  0  1  0  0  0  0  0999 V2000
   24.1098  -31.1661   -9.4212 N   0  0  0  0  0  0  0  0  0  0  0  0
   24.1781  -32.5349   -9.0964 C   0  0  1  0  0  0  0  0  0  0  0  0
   25.3845  -33.3010   -9.5155 C   0  0  0  0  0  0  0  0  0  0  0  0
   25.5936  -33.3326  -10.9803 C   0  0  0  0  0  0  0  0  0  0  0  0
   25.0007  -34.4916  -11.6451 C   0  0  0  0  0  0  0  0  0  0  0  0
   24.3443  -35.3244  -10.9040 O   0  0  0  0  0  0  0  0  0  0  0  0
   24.0085  -32.8018   -7.6088 C   0  0  0  0  0  0  0  0  0  0  0  0
   24.7851  -32.0836   -6.9150 O   0  0  0  0  0  0  0  0  0  0  0  0
   25.0602  -34.7999  -12.9590 O   0  0  0  0  0  0  0  0  0  0  0  0
   21.7809  -34.7520   -5.2555 C   0  0  0  0  0  0  0  0  0  0  0  0
   23.0415  -34.0643   -5.6782 C   0  0  2  0  0  0  0  0  0  0  0  0
   23.1238  -33.7080   -7.0494 N   0  0  0  0  0  0  0  0  0  0  0  0
   24.2080  -34.7784   -5.1040 C   0  0  0  0  0  0  0  0  0  0  0  0
   25.0420  -35.3664   -5.8090 O   0  0  0  0  0  0  0  0  0  0  0  0
   24.4448  -34.8370   -3.6945 N   0  0  0  0  0  0  0  0  0  0  0  0
   25.6546  -35.5119   -3.1747 C   0  0  1  0  0  0  0  0  0  0  0  0
   26.8852  -34.7824   -3.6348 C   0  0  0  0  0  0  0  0  0  0  0  0
   28.1305  -35.2541   -3.0218 C   0  0  0  0  0  0  0  0  0  0  0  0
   28.1283  -36.1917   -2.1686 O   0  0  0  0  0  0  0  0  0  0  0  0
   25.5188  -35.5710   -1.7015 C   0  0  0  0  0  0  0  0  0  0  0  0
   24.7948  -34.5922   -1.0405 O   0  0  0  0  0  0  0  0  0  0  0  0
   29.3442  -34.7046   -3.3385 O   0  0  0  0  0  0  0  0  0  0  0  0
   26.0275  -36.4679   -1.0133 O   0  0  0  0  0  0  0  0  0  0  0  0
  2  3  1  0
  2  1  1  1
  3  4  1  0
  4  5  1  0
  5  6  2  0
  5  9  1  0
  7  8  2  0
  7  2  1  0
 11 10  1  6
 11 13  1  0
 11 12  1  0
 12  7  1  0
 13 15  1  0
 14 13  2  0
 15 16  1  0
 16 17  1  1
 17 18  1  0
 18 19  2  0
 18 22  1  0
 20 16  1  0
 21 20  1  0
 23 20  2  0
M  END
$$$$
