EAD.pdb
     RDKit          3D

 23 22  0  0  1  0  0  0  0  0999 V2000
   16.9780  -11.0193  -14.7866 N   0  0  0  0  0  0  0  0  0  0  0  0
   18.1426  -10.6204  -15.4709 C   0  0  1  0  0  0  0  0  0  0  0  0
   18.0392  -10.3206  -16.9261 C   0  0  0  0  0  0  0  0  0  0  0  0
   17.5167  -11.4461  -17.7328 C   0  0  0  0  0  0  0  0  0  0  0  0
   17.4650  -11.1801  -19.1692 C   0  0  0  0  0  0  0  0  0  0  0  0
   18.2149  -11.9086  -19.9310 O   0  0  0  0  0  0  0  0  0  0  0  0
   18.8171   -9.4115  -14.8412 C   0  0  0  0  0  0  0  0  0  0  0  0
   17.9701   -8.5640  -14.4356 O   0  0  0  0  0  0  0  0  0  0  0  0
   16.7179  -10.2495  -19.8022 O   0  0  0  0  0  0  0  0  0  0  0  0
   22.2525   -8.2301  -13.7986 C   0  0  0  0  0  0  0  0  0  0  0  0
   20.8335   -8.0578  -14.2428 C   0  0  2  0  0  0  0  0  0  0  0  0
   20.1833   -9.2295  -14.7102 N   0  0  0  0  0  0  0  0  0  0  0  0
   20.7289   -6.8510  -15.0991 C   0  0  0  0  0  0  0  0  0  0  0  0
   20.8208   -6.9014  -16.3349 O   0  0  0  0  0  0  0  0  0  0  0  0
   20.5172   -5.5466  -14.5515 N   0  0  0  0  0  0  0  0  0  0  0  0
   20.4440   -4.3710  -15.4471 C   0  0  1  0  0  0  0  0  0  0  0  0
   19.2003   -3.5805  -15.1532 C   0  0  0  0  0  0  0  0  0  0  0  0
   19.0750   -2.3428  -15.9290 C   0  0  0  0  0  0  0  0  0  0  0  0
   19.2534   -1.2093  -15.3902 O   0  0  0  0  0  0  0  0  0  0  0  0
   21.6935   -3.6005  -15.2537 C   0  0  0  0  0  0  0  0  0  0  0  0
   22.0440   -2.6225  -16.1701 O   0  0  0  0  0  0  0  0  0  0  0  0
   18.7583   -2.3550  -17.2612 O   0  0  0  0  0  0  0  0  0  0  0  0
   22.4584   -3.7863  -14.2959 O   0  0  0  0  0  0  0  0  0  0  0  0
  2  3  1  0
  2  1  1  1
  3  4  1  0
  4  5  1  0
  5  6  2  0
  5  9  1  0
  7  8  2  0
  7  2  1  0
 11 10  1  6
 11 13  1  0
 11 12  1  0
 12  7  1  0
 13 15  1  0
 14 13  2  0
 15 16  1  0
 16 17  1  1
 17 18  1  0
 18 19  2  0
 18 22  1  0
 20 16  1  0
 21 20  1  0
 23 20  2  0
M  END
$$$$
