EAD.pdb
     RDKit          3D

 23 22  0  0  1  0  0  0  0  0999 V2000
   18.4240  -12.9948  -16.0117 N   0  0  0  0  0  0  0  0  0  0  0  0
   19.2139  -12.1232  -16.7864 C   0  0  1  0  0  0  0  0  0  0  0  0
   18.5831  -11.4483  -17.9545 C   0  0  0  0  0  0  0  0  0  0  0  0
   17.1080  -11.3616  -17.8702 C   0  0  0  0  0  0  0  0  0  0  0  0
   16.4869  -10.6326  -18.9744 C   0  0  0  0  0  0  0  0  0  0  0  0
   17.2772  -10.1214  -19.8619 O   0  0  0  0  0  0  0  0  0  0  0  0
   19.8615  -11.0196  -15.9646 C   0  0  0  0  0  0  0  0  0  0  0  0
   19.0167  -10.4255  -15.2342 O   0  0  0  0  0  0  0  0  0  0  0  0
   15.1676  -10.4259  -19.1784 O   0  0  0  0  0  0  0  0  0  0  0  0
   23.2942   -9.6291  -15.1902 C   0  0  0  0  0  0  0  0  0  0  0  0
   21.8040   -9.5804  -15.3225 C   0  0  2  0  0  0  0  0  0  0  0  0
   21.2040  -10.6817  -15.9868 N   0  0  0  0  0  0  0  0  0  0  0  0
   21.3937   -8.2274  -15.7714 C   0  0  0  0  0  0  0  0  0  0  0  0
   21.1627   -7.9619  -16.9607 O   0  0  0  0  0  0  0  0  0  0  0  0
   21.2404   -7.1375  -14.8577 N   0  0  0  0  0  0  0  0  0  0  0  0
   20.9880   -5.7724  -15.3698 C   0  0  1  0  0  0  0  0  0  0  0  0
   20.0507   -5.0451  -14.4475 C   0  0  0  0  0  0  0  0  0  0  0  0
   19.7978   -3.6504  -14.8218 C   0  0  0  0  0  0  0  0  0  0  0  0
   19.7892   -3.2878  -16.0364 O   0  0  0  0  0  0  0  0  0  0  0  0
   22.3059   -5.1129  -15.5133 C   0  0  0  0  0  0  0  0  0  0  0  0
   22.5312   -4.2571  -16.5791 O   0  0  0  0  0  0  0  0  0  0  0  0
   19.5643   -2.6820  -13.8822 O   0  0  0  0  0  0  0  0  0  0  0  0
   23.2377   -5.2880  -14.7145 O   0  0  0  0  0  0  0  0  0  0  0  0
  2  3  1  0
  2  1  1  1
  3  4  1  0
  4  5  1  0
  5  6  2  0
  5  9  1  0
  7  8  2  0
  7  2  1  0
 11 10  1  6
 11 13  1  0
 11 12  1  0
 12  7  1  0
 13 15  1  0
 14 13  2  0
 15 16  1  0
 16 17  1  1
 17 18  1  0
 18 19  2  0
 18 22  1  0
 20 16  1  0
 21 20  1  0
 23 20  2  0
M  END
$$$$
