EAD.pdb
     RDKit          3D

 23 22  0  0  1  0  0  0  0  0999 V2000
   18.9009  -12.3655  -17.2289 N   0  0  0  0  0  0  0  0  0  0  0  0
   20.1153  -11.7087  -17.5076 C   0  0  1  0  0  0  0  0  0  0  0  0
   20.2662  -11.0325  -18.8260 C   0  0  0  0  0  0  0  0  0  0  0  0
   19.0082  -10.4544  -19.3490 C   0  0  0  0  0  0  0  0  0  0  0  0
   19.1156   -9.9114  -20.7018 C   0  0  0  0  0  0  0  0  0  0  0  0
   19.9526  -10.4866  -21.5032 O   0  0  0  0  0  0  0  0  0  0  0  0
   20.4831  -10.6698  -16.4596 C   0  0  0  0  0  0  0  0  0  0  0  0
   19.4959   -9.9362  -16.1641 O   0  0  0  0  0  0  0  0  0  0  0  0
   18.4361   -8.8648  -21.2194 O   0  0  0  0  0  0  0  0  0  0  0  0
   23.4169   -9.7618  -14.2372 C   0  0  0  0  0  0  0  0  0  0  0  0
   22.0917   -9.5550  -14.9020 C   0  0  2  0  0  0  0  0  0  0  0  0
   21.7310  -10.5190  -15.8792 N   0  0  0  0  0  0  0  0  0  0  0  0
   21.9522   -8.1297  -15.2887 C   0  0  0  0  0  0  0  0  0  0  0  0
   22.2405   -7.7158  -16.4218 O   0  0  0  0  0  0  0  0  0  0  0  0
   21.4767   -7.1374  -14.3748 N   0  0  0  0  0  0  0  0  0  0  0  0
   21.4204   -5.7175  -14.7875 C   0  0  1  0  0  0  0  0  0  0  0  0
   19.9911   -5.2991  -14.9876 C   0  0  0  0  0  0  0  0  0  0  0  0
   19.8167   -3.8764  -15.2958 C   0  0  0  0  0  0  0  0  0  0  0  0
   20.3074   -3.3677  -16.3481 O   0  0  0  0  0  0  0  0  0  0  0  0
   22.1250   -4.9353  -13.7462 C   0  0  0  0  0  0  0  0  0  0  0  0
   22.3993   -3.5951  -13.9644 O   0  0  0  0  0  0  0  0  0  0  0  0
   19.1235   -3.0376  -14.4646 O   0  0  0  0  0  0  0  0  0  0  0  0
   22.4895   -5.4247  -12.6670 O   0  0  0  0  0  0  0  0  0  0  0  0
  2  3  1  0
  2  1  1  1
  3  4  1  0
  4  5  1  0
  5  6  2  0
  5  9  1  0
  7  8  2  0
  7  2  1  0
 11 10  1  6
 11 13  1  0
 11 12  1  0
 12  7  1  0
 13 15  1  0
 14 13  2  0
 15 16  1  0
 16 17  1  1
 17 18  1  0
 18 19  2  0
 18 22  1  0
 20 16  1  0
 21 20  1  0
 23 20  2  0
M  END
$$$$
