FEA.pdb
     RDKit          3D

 26 26  0  0  1  0  0  0  0  0999 V2000
   28.4964  -20.8746   -9.2404 N   0  0  0  0  0  0  0  0  0  0  0  0
   27.0906  -20.7917   -9.0132 C   0  0  1  0  0  0  0  0  0  0  0  0
   26.7352  -19.6746   -8.0833 C   0  0  0  0  0  0  0  0  0  0  0  0
   27.3846  -19.7162   -6.7782 C   0  0  0  0  0  0  0  0  0  0  0  0
   28.3524  -18.8065   -6.4375 C   0  0  0  0  0  0  0  0  0  0  0  0
   28.9709  -18.8562   -5.2039 C   0  0  0  0  0  0  0  0  0  0  0  0
   28.6066  -19.8439   -4.2926 C   0  0  0  0  0  0  0  0  0  0  0  0
   27.6293  -20.7757   -4.6165 C   0  0  0  0  0  0  0  0  0  0  0  0
   27.0368  -20.6856   -5.8662 C   0  0  0  0  0  0  0  0  0  0  0  0
   26.3428  -20.5615  -10.2771 C   0  0  0  0  0  0  0  0  0  0  0  0
   26.6667  -19.6162  -11.0318 O   0  0  0  0  0  0  0  0  0  0  0  0
   25.2651  -21.3746  -10.6723 N   0  0  0  0  0  0  0  0  0  0  0  0
   24.6569  -21.2122  -11.9444 C   0  0  1  0  0  0  0  0  0  0  0  0
   24.6288  -22.5535  -12.6390 C   0  0  0  0  0  0  0  0  0  0  0  0
   25.8604  -22.6768  -13.5371 C   0  0  0  0  0  0  0  0  0  0  0  0
   25.4673  -23.3222  -14.8029 C   0  0  0  0  0  0  0  0  0  0  0  0
   25.4969  -22.6536  -15.8730 O   0  0  0  0  0  0  0  0  0  0  0  0
   23.2625  -20.7180  -11.9112 C   0  0  0  0  0  0  0  0  0  0  0  0
   22.4922  -20.9643  -10.9617 O   0  0  0  0  0  0  0  0  0  0  0  0
   25.0565  -24.6554  -14.8991 O   0  0  0  0  0  0  0  0  0  0  0  0
   21.2577  -18.5650  -14.1767 C   0  0  0  0  0  0  0  0  0  0  0  0
   21.3956  -19.4999  -12.9682 C   0  0  2  0  0  0  0  0  0  0  0  0
   22.7785  -19.9377  -12.9875 N   0  0  0  0  0  0  0  0  0  0  0  0
   20.4840  -20.6422  -13.0743 C   0  0  0  0  0  0  0  0  0  0  0  0
   19.1998  -20.6071  -12.5393 O   0  0  0  0  0  0  0  0  0  0  0  0
   20.8863  -21.6799  -13.6708 O   0  0  0  0  0  0  0  0  0  0  0  0
  2  1  1  6
  3  2  1  0
  4  9  2  0
  4  3  1  0
  5  4  1  0
  6  7  1  0
  6  5  2  0
  7  8  2  0
  8  9  1  0
 10 12  1  0
 10  2  1  0
 11 10  2  0
 13 12  1  0
 13 14  1  1
 14 15  1  0
 15 16  1  0
 16 17  2  0
 18 13  1  0
 19 18  2  0
 20 16  1  0
 22 21  1  6
 22 24  1  0
 22 23  1  0
 23 18  1  0
 24 25  1  0
 26 24  2  0
M  END
$$$$
