FEA.pdb
     RDKit          3D

 26 26  0  0  1  0  0  0  0  0999 V2000
   28.5601  -20.3660  -14.8521 N   0  0  0  0  0  0  0  0  0  0  0  0
   27.4646  -20.4173  -13.9400 C   0  0  1  0  0  0  0  0  0  0  0  0
   27.7585  -19.6909  -12.6653 C   0  0  0  0  0  0  0  0  0  0  0  0
   28.8130  -20.2722  -11.8425 C   0  0  0  0  0  0  0  0  0  0  0  0
   30.1352  -20.0076  -12.0918 C   0  0  0  0  0  0  0  0  0  0  0  0
   31.1301  -20.5682  -11.3156 C   0  0  0  0  0  0  0  0  0  0  0  0
   30.7862  -21.4140  -10.2643 C   0  0  0  0  0  0  0  0  0  0  0  0
   29.4537  -21.6962   -9.9940 C   0  0  0  0  0  0  0  0  0  0  0  0
   28.4906  -21.1100  -10.8002 C   0  0  0  0  0  0  0  0  0  0  0  0
   26.2395  -19.8053  -14.5181 C   0  0  0  0  0  0  0  0  0  0  0  0
   26.3192  -18.7320  -15.1581 O   0  0  0  0  0  0  0  0  0  0  0  0
   24.9678  -20.3896  -14.3760 N   0  0  0  0  0  0  0  0  0  0  0  0
   23.8321  -19.8297  -15.0171 C   0  0  1  0  0  0  0  0  0  0  0  0
   23.3551  -20.7931  -16.0786 C   0  0  0  0  0  0  0  0  0  0  0  0
   24.3512  -20.7912  -17.2389 C   0  0  0  0  0  0  0  0  0  0  0  0
   23.8426  -21.6695  -18.3081 C   0  0  0  0  0  0  0  0  0  0  0  0
   24.3076  -22.8373  -18.4223 O   0  0  0  0  0  0  0  0  0  0  0  0
   22.6789  -19.5675  -14.1276 C   0  0  0  0  0  0  0  0  0  0  0  0
   22.4432  -20.2656  -13.1214 O   0  0  0  0  0  0  0  0  0  0  0  0
   22.8564  -21.2871  -19.2228 O   0  0  0  0  0  0  0  0  0  0  0  0
   20.0768  -16.9303  -14.0014 C   0  0  0  0  0  0  0  0  0  0  0  0
   20.6219  -18.3090  -13.6071 C   0  0  2  0  0  0  0  0  0  0  0  0
   21.8101  -18.4898  -14.4195 N   0  0  0  0  0  0  0  0  0  0  0  0
   19.6404  -19.3637  -13.8741 C   0  0  0  0  0  0  0  0  0  0  0  0
   18.5773  -19.6112  -13.0108 O   0  0  0  0  0  0  0  0  0  0  0  0
   19.7735  -20.0589  -14.9198 O   0  0  0  0  0  0  0  0  0  0  0  0
  2  1  1  6
  3  2  1  0
  4  9  2  0
  4  3  1  0
  5  4  1  0
  6  7  1  0
  6  5  2  0
  7  8  2  0
  8  9  1  0
 10 12  1  0
 10  2  1  0
 11 10  2  0
 13 12  1  0
 13 14  1  6
 14 15  1  0
 15 16  1  0
 16 17  2  0
 18 13  1  0
 19 18  2  0
 20 16  1  0
 22 21  1  6
 22 24  1  0
 22 23  1  0
 23 18  1  0
 24 25  1  0
 26 24  2  0
M  END
$$$$
