FEA.pdb
     RDKit          3D

 26 26  0  0  1  0  0  0  0  0999 V2000
   18.7632  -11.2563  -15.5856 N   0  0  0  0  0  0  0  0  0  0  0  0
   18.4095  -10.0774  -16.3066 C   0  0  1  0  0  0  0  0  0  0  0  0
   17.0055  -10.1319  -16.8212 C   0  0  0  0  0  0  0  0  0  0  0  0
   16.7340  -11.1895  -17.7879 C   0  0  0  0  0  0  0  0  0  0  0  0
   16.0103  -12.3010  -17.4397 C   0  0  0  0  0  0  0  0  0  0  0  0
   15.7641  -13.3039  -18.3563 C   0  0  0  0  0  0  0  0  0  0  0  0
   16.2574  -13.1851  -19.6530 C   0  0  0  0  0  0  0  0  0  0  0  0
   16.9930  -12.0685  -20.0276 C   0  0  0  0  0  0  0  0  0  0  0  0
   17.2140  -11.0881  -19.0731 C   0  0  0  0  0  0  0  0  0  0  0  0
   18.5158   -8.8618  -15.4576 C   0  0  0  0  0  0  0  0  0  0  0  0
   18.1552   -8.9029  -14.2592 O   0  0  0  0  0  0  0  0  0  0  0  0
   19.0137   -7.6417  -15.9498 N   0  0  0  0  0  0  0  0  0  0  0  0
   19.0213   -6.4768  -15.1390 C   0  0  1  0  0  0  0  0  0  0  0  0
   20.4555   -6.0665  -14.8998 C   0  0  0  0  0  0  0  0  0  0  0  0
   20.4920   -4.9850  -13.8192 C   0  0  0  0  0  0  0  0  0  0  0  0
   21.8973   -4.6652  -13.5092 C   0  0  0  0  0  0  0  0  0  0  0  0
   22.2709   -3.4596  -13.5069 O   0  0  0  0  0  0  0  0  0  0  0  0
   18.3325   -5.3047  -15.7235 C   0  0  0  0  0  0  0  0  0  0  0  0
   18.5758   -4.8977  -16.8770 O   0  0  0  0  0  0  0  0  0  0  0  0
   22.8645   -5.6296  -13.2093 O   0  0  0  0  0  0  0  0  0  0  0  0
   15.5425   -3.1502  -14.5755 C   0  0  0  0  0  0  0  0  0  0  0  0
   16.6907   -3.4725  -15.5405 C   0  0  2  0  0  0  0  0  0  0  0  0
   17.3627   -4.6177  -14.9562 N   0  0  0  0  0  0  0  0  0  0  0  0
   17.6087   -2.3379  -15.6708 C   0  0  0  0  0  0  0  0  0  0  0  0
   17.3619   -1.2934  -16.5565 O   0  0  0  0  0  0  0  0  0  0  0  0
   18.6476   -2.3189  -14.9532 O   0  0  0  0  0  0  0  0  0  0  0  0
  2  1  1  1
  3  2  1  0
  4  9  2  0
  4  3  1  0
  5  4  1  0
  6  7  1  0
  6  5  2  0
  7  8  2  0
  8  9  1  0
 10 12  1  0
 10  2  1  0
 11 10  2  0
 13 12  1  0
 13 14  1  6
 14 15  1  0
 15 16  1  0
 16 17  2  0
 18 13  1  0
 19 18  2  0
 20 16  1  0
 22 21  1  1
 22 24  1  0
 22 23  1  0
 23 18  1  0
 24 25  1  0
 26 24  2  0
M  END
$$$$
