FEA.pdb
     RDKit          3D

 26 26  0  0  1  0  0  0  0  0999 V2000
   25.5280  -21.4636   -7.0599 N   0  0  0  0  0  0  0  0  0  0  0  0
   26.1887  -20.5966   -7.9800 C   0  0  1  0  0  0  0  0  0  0  0  0
   27.6685  -20.5650   -7.7610 C   0  0  0  0  0  0  0  0  0  0  0  0
   28.0979  -20.0659   -6.4597 C   0  0  0  0  0  0  0  0  0  0  0  0
   28.7354  -20.8825   -5.5612 C   0  0  0  0  0  0  0  0  0  0  0  0
   29.1315  -20.4075   -4.3267 C   0  0  0  0  0  0  0  0  0  0  0  0
   28.8805  -19.0801   -3.9891 C   0  0  0  0  0  0  0  0  0  0  0  0
   28.2361  -18.2353   -4.8832 C   0  0  0  0  0  0  0  0  0  0  0  0
   27.8577  -18.7573   -6.1101 C   0  0  0  0  0  0  0  0  0  0  0  0
   25.9652  -21.0173   -9.3881 C   0  0  0  0  0  0  0  0  0  0  0  0
   26.3728  -22.1350   -9.7787 O   0  0  0  0  0  0  0  0  0  0  0  0
   25.3026  -20.1996  -10.3215 N   0  0  0  0  0  0  0  0  0  0  0  0
   25.1687  -20.5999  -11.6765 C   0  0  1  0  0  0  0  0  0  0  0  0
   23.8417  -20.0994  -12.1972 C   0  0  0  0  0  0  0  0  0  0  0  0
   22.7120  -20.8150  -11.4555 C   0  0  0  0  0  0  0  0  0  0  0  0
   21.4207  -20.2585  -11.8983 C   0  0  0  0  0  0  0  0  0  0  0  0
   20.3523  -20.6907  -11.3838 O   0  0  0  0  0  0  0  0  0  0  0  0
   26.2108  -20.0774  -12.5879 C   0  0  0  0  0  0  0  0  0  0  0  0
   27.0834  -19.2715  -12.2075 O   0  0  0  0  0  0  0  0  0  0  0  0
   21.2984  -19.2606  -12.8703 O   0  0  0  0  0  0  0  0  0  0  0  0
   28.4226  -21.3837  -14.0516 C   0  0  0  0  0  0  0  0  0  0  0  0
   27.4580  -20.3791  -14.6949 C   0  0  2  0  0  0  0  0  0  0  0  0
   26.2270  -20.5018  -13.9373 N   0  0  0  0  0  0  0  0  0  0  0  0
   27.2346  -20.6892  -16.1095 C   0  0  0  0  0  0  0  0  0  0  0  0
   28.0853  -20.2201  -17.1059 O   0  0  0  0  0  0  0  0  0  0  0  0
   26.2404  -21.4034  -16.4193 O   0  0  0  0  0  0  0  0  0  0  0  0
  2  1  1  1
  3  2  1  0
  4  9  2  0
  4  3  1  0
  5  4  1  0
  6  7  1  0
  6  5  2  0
  7  8  2  0
  8  9  1  0
 10 12  1  0
 10  2  1  0
 11 10  2  0
 13 12  1  0
 13 14  1  6
 14 15  1  0
 15 16  1  0
 16 17  2  0
 18 13  1  0
 19 18  2  0
 20 16  1  0
 22 21  1  1
 22 24  1  0
 22 23  1  0
 23 18  1  0
 24 25  1  0
 26 24  2  0
M  END
$$$$
