FEA.pdb
     RDKit          3D

 26 26  0  0  1  0  0  0  0  0999 V2000
   28.5528   -0.4514   -8.0769 N   0  0  0  0  0  0  0  0  0  0  0  0
   27.2203   -0.2427   -7.6125 C   0  0  1  0  0  0  0  0  0  0  0  0
   26.7477   -1.3600   -6.7365 C   0  0  0  0  0  0  0  0  0  0  0  0
   26.7937   -2.6882   -7.3368 C   0  0  0  0  0  0  0  0  0  0  0  0
   26.1124   -2.9686   -8.4934 C   0  0  0  0  0  0  0  0  0  0  0  0
   26.1516   -4.2305   -9.0525 C   0  0  0  0  0  0  0  0  0  0  0  0
   26.8938   -5.2329   -8.4335 C   0  0  0  0  0  0  0  0  0  0  0  0
   27.5913   -4.9716   -7.2615 C   0  0  0  0  0  0  0  0  0  0  0  0
   27.5220   -3.6900   -6.7382 C   0  0  0  0  0  0  0  0  0  0  0  0
   27.1045    1.0105   -6.8215 C   0  0  0  0  0  0  0  0  0  0  0  0
   28.0105    1.3283   -6.0176 O   0  0  0  0  0  0  0  0  0  0  0  0
   26.0000    1.8739   -6.9373 N   0  0  0  0  0  0  0  0  0  0  0  0
   25.9212    3.0646   -6.1691 C   0  0  1  0  0  0  0  0  0  0  0  0
   25.4157    4.1775   -7.0570 C   0  0  0  0  0  0  0  0  0  0  0  0
   26.4197    4.4103   -8.1868 C   0  0  0  0  0  0  0  0  0  0  0  0
   25.6950    4.4539   -9.4698 C   0  0  0  0  0  0  0  0  0  0  0  0
   24.4332    4.4204   -9.4686 O   0  0  0  0  0  0  0  0  0  0  0  0
   25.0095    2.9978   -5.0054 C   0  0  0  0  0  0  0  0  0  0  0  0
   23.8535    2.5377   -5.0921 O   0  0  0  0  0  0  0  0  0  0  0  0
   26.3262    4.5336  -10.7151 O   0  0  0  0  0  0  0  0  0  0  0  0
   25.4787    3.6295   -1.3847 C   0  0  0  0  0  0  0  0  0  0  0  0
   24.5911    3.3088   -2.5941 C   0  0  2  0  0  0  0  0  0  0  0  0
   25.4560    3.4674   -3.7479 N   0  0  0  0  0  0  0  0  0  0  0  0
   23.4467    4.2208   -2.6692 C   0  0  0  0  0  0  0  0  0  0  0  0
   23.4535    5.3386   -3.4980 O   0  0  0  0  0  0  0  0  0  0  0  0
   22.4326    3.9738   -1.9584 O   0  0  0  0  0  0  0  0  0  0  0  0
  2  1  1  1
  3  2  1  0
  4  9  2  0
  4  3  1  0
  5  4  1  0
  6  7  1  0
  6  5  2  0
  7  8  2  0
  8  9  1  0
 10 12  1  0
 10  2  1  0
 11 10  2  0
 13 12  1  0
 13 14  1  6
 14 15  1  0
 15 16  1  0
 16 17  2  0
 18 13  1  0
 19 18  2  0
 20 16  1  0
 22 21  1  1
 22 24  1  0
 22 23  1  0
 23 18  1  0
 24 25  1  0
 26 24  2  0
M  END
$$$$
