FEA.pdb
     RDKit          3D

 26 26  0  0  1  0  0  0  0  0999 V2000
   23.5505  -12.8959  -18.8441 N   0  0  0  0  0  0  0  0  0  0  0  0
   23.4165  -12.3914  -17.5166 C   0  0  1  0  0  0  0  0  0  0  0  0
   24.7145  -12.4116  -16.7726 C   0  0  0  0  0  0  0  0  0  0  0  0
   25.2776  -13.7352  -16.5323 C   0  0  0  0  0  0  0  0  0  0  0  0
   24.8618  -14.5021  -15.4743 C   0  0  0  0  0  0  0  0  0  0  0  0
   25.4050  -15.7509  -15.2457 C   0  0  0  0  0  0  0  0  0  0  0  0
   26.3889  -16.2387  -16.1017 C   0  0  0  0  0  0  0  0  0  0  0  0
   26.8255  -15.4791  -17.1791 C   0  0  0  0  0  0  0  0  0  0  0  0
   26.2506  -14.2322  -17.3682 C   0  0  0  0  0  0  0  0  0  0  0  0
   22.9316  -10.9862  -17.5095 C   0  0  0  0  0  0  0  0  0  0  0  0
   23.3082  -10.1906  -18.4001 O   0  0  0  0  0  0  0  0  0  0  0  0
   22.0503  -10.4994  -16.5271 N   0  0  0  0  0  0  0  0  0  0  0  0
   21.5144   -9.1880  -16.6133 C   0  0  1  0  0  0  0  0  0  0  0  0
   20.0285   -9.2571  -16.3488 C   0  0  0  0  0  0  0  0  0  0  0  0
   19.4267   -7.8608  -16.5117 C   0  0  0  0  0  0  0  0  0  0  0  0
   17.9648   -7.9467  -16.3422 C   0  0  0  0  0  0  0  0  0  0  0  0
   17.3998   -7.2259  -15.4737 O   0  0  0  0  0  0  0  0  0  0  0  0
   22.0767   -8.2190  -15.6465 C   0  0  0  0  0  0  0  0  0  0  0  0
   22.3135   -8.5242  -14.4607 O   0  0  0  0  0  0  0  0  0  0  0  0
   17.1445   -8.7908  -17.0972 O   0  0  0  0  0  0  0  0  0  0  0  0
   23.3130   -4.7367  -15.9233 C   0  0  0  0  0  0  0  0  0  0  0  0
   22.8253   -5.9335  -15.0967 C   0  0  2  0  0  0  0  0  0  0  0  0
   22.3601   -6.9002  -16.0731 N   0  0  0  0  0  0  0  0  0  0  0  0
   21.7430   -5.5453  -14.1885 C   0  0  0  0  0  0  0  0  0  0  0  0
   21.9990   -4.9888  -12.9389 O   0  0  0  0  0  0  0  0  0  0  0  0
   20.5503   -5.7247  -14.5623 O   0  0  0  0  0  0  0  0  0  0  0  0
  2  1  1  6
  3  2  1  0
  4  9  2  0
  4  3  1  0
  5  4  1  0
  6  7  1  0
  6  5  2  0
  7  8  2  0
  8  9  1  0
 10 12  1  0
 10  2  1  0
 11 10  2  0
 13 12  1  0
 13 14  1  1
 14 15  1  0
 15 16  1  0
 16 17  2  0
 18 13  1  0
 19 18  2  0
 20 16  1  0
 22 21  1  6
 22 24  1  0
 22 23  1  0
 23 18  1  0
 24 25  1  0
 26 24  2  0
M  END
$$$$
