FEA.pdb
     RDKit          3D

 26 26  0  0  1  0  0  0  0  0999 V2000
   30.0447  -17.9060   11.9339 N   0  0  0  0  0  0  0  0  0  0  0  0
   30.1948  -18.7935   10.8272 C   0  0  1  0  0  0  0  0  0  0  0  0
   30.7003  -18.0913    9.6066 C   0  0  0  0  0  0  0  0  0  0  0  0
   31.0561  -18.9574    8.4885 C   0  0  0  0  0  0  0  0  0  0  0  0
   30.0966  -19.4654    7.6508 C   0  0  0  0  0  0  0  0  0  0  0  0
   30.4379  -20.2928    6.5992 C   0  0  0  0  0  0  0  0  0  0  0  0
   31.7755  -20.6157    6.3861 C   0  0  0  0  0  0  0  0  0  0  0  0
   32.7638  -20.1130    7.2221 C   0  0  0  0  0  0  0  0  0  0  0  0
   32.3727  -19.2866    8.2638 C   0  0  0  0  0  0  0  0  0  0  0  0
   31.1532  -19.8893   11.1282 C   0  0  0  0  0  0  0  0  0  0  0  0
   32.1789  -19.6537   11.8068 O   0  0  0  0  0  0  0  0  0  0  0  0
   30.9560  -21.2066   10.6759 N   0  0  0  0  0  0  0  0  0  0  0  0
   31.8307  -22.2521   11.0710 C   0  0  1  0  0  0  0  0  0  0  0  0
   31.0002  -23.4501   11.4679 C   0  0  0  0  0  0  0  0  0  0  0  0
   31.8998  -24.4739   12.1615 C   0  0  0  0  0  0  0  0  0  0  0  0
   31.1086  -25.6810   12.4614 C   0  0  0  0  0  0  0  0  0  0  0  0
   31.5600  -26.5283   13.2808 O   0  0  0  0  0  0  0  0  0  0  0  0
   32.7695  -22.7104   10.0229 C   0  0  0  0  0  0  0  0  0  0  0  0
   32.3942  -22.9728    8.8629 O   0  0  0  0  0  0  0  0  0  0  0  0
   29.8631  -25.9548   11.8874 O   0  0  0  0  0  0  0  0  0  0  0  0
   36.4545  -22.7424    9.8418 C   0  0  0  0  0  0  0  0  0  0  0  0
   35.0822  -23.1113    9.2635 C   0  0  2  0  0  0  0  0  0  0  0  0
   34.1410  -22.8570   10.3376 N   0  0  0  0  0  0  0  0  0  0  0  0
   35.0400  -24.5173    8.8532 C   0  0  0  0  0  0  0  0  0  0  0  0
   34.2471  -25.4503    9.5146 O   0  0  0  0  0  0  0  0  0  0  0  0
   35.7458  -24.8789    7.8705 O   0  0  0  0  0  0  0  0  0  0  0  0
  2  1  1  1
  3  2  1  0
  4  9  2  0
  4  3  1  0
  5  4  1  0
  6  7  1  0
  6  5  2  0
  7  8  2  0
  8  9  1  0
 10 12  1  0
 10  2  1  0
 11 10  2  0
 13 12  1  0
 13 14  1  6
 14 15  1  0
 15 16  1  0
 16 17  2  0
 18 13  1  0
 19 18  2  0
 20 16  1  0
 22 21  1  1
 22 24  1  0
 22 23  1  0
 23 18  1  0
 24 25  1  0
 26 24  2  0
M  END
$$$$
