FEA.pdb
     RDKit          3D

 26 26  0  0  1  0  0  0  0  0999 V2000
   27.9699  -21.2311  -14.3570 N   0  0  0  0  0  0  0  0  0  0  0  0
   26.9206  -20.8639  -13.4631 C   0  0  1  0  0  0  0  0  0  0  0  0
   27.3925  -19.9288  -12.3946 C   0  0  0  0  0  0  0  0  0  0  0  0
   28.3761  -20.4803  -11.4700 C   0  0  0  0  0  0  0  0  0  0  0  0
   29.7104  -20.5065  -11.7852 C   0  0  0  0  0  0  0  0  0  0  0  0
   30.6365  -21.0386  -10.9101 C   0  0  0  0  0  0  0  0  0  0  0  0
   30.2097  -21.5557   -9.6897 C   0  0  0  0  0  0  0  0  0  0  0  0
   28.8635  -21.5400   -9.3498 C   0  0  0  0  0  0  0  0  0  0  0  0
   27.9715  -20.9955  -10.2603 C   0  0  0  0  0  0  0  0  0  0  0  0
   25.8054  -20.1859  -14.1746 C   0  0  0  0  0  0  0  0  0  0  0  0
   26.0476  -19.2412  -14.9600 O   0  0  0  0  0  0  0  0  0  0  0  0
   24.4619  -20.5654  -14.0020 N   0  0  0  0  0  0  0  0  0  0  0  0
   23.4265  -19.9422  -14.7463 C   0  0  1  0  0  0  0  0  0  0  0  0
   23.1951  -20.7389  -16.0090 C   0  0  0  0  0  0  0  0  0  0  0  0
   22.2001  -19.9902  -16.8967 C   0  0  0  0  0  0  0  0  0  0  0  0
   22.0072  -20.7495  -18.1455 C   0  0  0  0  0  0  0  0  0  0  0  0
   22.5905  -21.8594  -18.2906 O   0  0  0  0  0  0  0  0  0  0  0  0
   22.1233  -19.8544  -14.0507 C   0  0  0  0  0  0  0  0  0  0  0  0
   21.7565  -20.7058  -13.2164 O   0  0  0  0  0  0  0  0  0  0  0  0
   21.2020  -20.3131  -19.2023 O   0  0  0  0  0  0  0  0  0  0  0  0
   19.3320  -17.4041  -14.1597 C   0  0  0  0  0  0  0  0  0  0  0  0
   19.9967  -18.6789  -13.6244 C   0  0  2  0  0  0  0  0  0  0  0  0
   21.2588  -18.7710  -14.3338 N   0  0  0  0  0  0  0  0  0  0  0  0
   19.1657  -19.8582  -13.8803 C   0  0  0  0  0  0  0  0  0  0  0  0
   19.2077  -20.5347  -15.0957 O   0  0  0  0  0  0  0  0  0  0  0  0
   18.3958  -20.2621  -12.9645 O   0  0  0  0  0  0  0  0  0  0  0  0
  2  1  1  6
  3  2  1  0
  4  9  2  0
  4  3  1  0
  5  4  1  0
  6  7  1  0
  6  5  2  0
  7  8  2  0
  8  9  1  0
 10 12  1  0
 10  2  1  0
 11 10  2  0
 13 12  1  0
 13 14  1  6
 14 15  1  0
 15 16  1  0
 16 17  2  0
 18 13  1  0
 19 18  2  0
 20 16  1  0
 22 21  1  6
 22 24  1  0
 22 23  1  0
 23 18  1  0
 24 25  1  0
 26 24  2  0
M  END
$$$$
