FEA.pdb
     RDKit          3D

 26 26  0  0  1  0  0  0  0  0999 V2000
   24.1808  -12.1173  -18.3235 N   0  0  0  0  0  0  0  0  0  0  0  0
   24.1375  -11.5122  -17.0325 C   0  0  1  0  0  0  0  0  0  0  0  0
   25.4984  -11.1249  -16.5460 C   0  0  0  0  0  0  0  0  0  0  0  0
   26.4548  -12.2192  -16.4255 C   0  0  0  0  0  0  0  0  0  0  0  0
   27.4840  -12.3643  -17.3200 C   0  0  0  0  0  0  0  0  0  0  0  0
   28.3813  -13.4078  -17.2069 C   0  0  0  0  0  0  0  0  0  0  0  0
   28.2394  -14.3258  -16.1696 C   0  0  0  0  0  0  0  0  0  0  0  0
   27.2044  -14.1986  -15.2526 C   0  0  0  0  0  0  0  0  0  0  0  0
   26.3290  -13.1351  -15.4068 C   0  0  0  0  0  0  0  0  0  0  0  0
   23.3068  -10.2794  -17.0314 C   0  0  0  0  0  0  0  0  0  0  0  0
   23.0824   -9.6760  -18.1054 O   0  0  0  0  0  0  0  0  0  0  0  0
   22.7496   -9.7487  -15.8538 N   0  0  0  0  0  0  0  0  0  0  0  0
   21.8520   -8.6504  -15.9021 C   0  0  1  0  0  0  0  0  0  0  0  0
   20.6165   -9.0034  -15.1075 C   0  0  0  0  0  0  0  0  0  0  0  0
   19.5911   -7.8782  -15.2522 C   0  0  0  0  0  0  0  0  0  0  0  0
   18.2373   -8.4616  -15.2552 C   0  0  0  0  0  0  0  0  0  0  0  0
   18.0281   -9.5350  -15.8855 O   0  0  0  0  0  0  0  0  0  0  0  0
   22.3786   -7.3883  -15.3367 C   0  0  0  0  0  0  0  0  0  0  0  0
   22.9620   -7.3457  -14.2352 O   0  0  0  0  0  0  0  0  0  0  0  0
   17.1462   -7.8936  -14.5901 O   0  0  0  0  0  0  0  0  0  0  0  0
   22.6801   -3.9354  -16.6470 C   0  0  0  0  0  0  0  0  0  0  0  0
   22.7448   -4.9543  -15.5019 C   0  0  2  0  0  0  0  0  0  0  0  0
   22.2212   -6.1850  -16.0637 N   0  0  0  0  0  0  0  0  0  0  0  0
   21.9404   -4.5181  -14.3575 C   0  0  0  0  0  0  0  0  0  0  0  0
   20.6870   -3.9363  -14.5219 O   0  0  0  0  0  0  0  0  0  0  0  0
   22.4081   -4.6814  -13.1960 O   0  0  0  0  0  0  0  0  0  0  0  0
  2  1  1  6
  3  2  1  0
  4  9  2  0
  4  3  1  0
  5  4  1  0
  6  7  1  0
  6  5  2  0
  7  8  2  0
  8  9  1  0
 10 12  1  0
 10  2  1  0
 11 10  2  0
 13 12  1  0
 13 14  1  1
 14 15  1  0
 15 16  1  0
 16 17  2  0
 18 13  1  0
 19 18  2  0
 20 16  1  0
 22 21  1  6
 22 24  1  0
 22 23  1  0
 23 18  1  0
 24 25  1  0
 26 24  2  0
M  END
$$$$
