FEA.pdb
     RDKit          3D

 26 26  0  0  1  0  0  0  0  0999 V2000
   23.9968  -10.0651  -18.0098 N   0  0  0  0  0  0  0  0  0  0  0  0
   23.6484   -9.1722  -16.9533 C   0  0  1  0  0  0  0  0  0  0  0  0
   24.8220   -8.3731  -16.4812 C   0  0  0  0  0  0  0  0  0  0  0  0
   26.0517   -9.1293  -16.2748 C   0  0  0  0  0  0  0  0  0  0  0  0
   27.1159   -9.0013  -17.1302 C   0  0  0  0  0  0  0  0  0  0  0  0
   28.2746   -9.7267  -16.9356 C   0  0  0  0  0  0  0  0  0  0  0  0
   28.3641  -10.6007  -15.8553 C   0  0  0  0  0  0  0  0  0  0  0  0
   27.2987  -10.7465  -14.9767 C   0  0  0  0  0  0  0  0  0  0  0  0
   26.1568   -9.9972  -15.2127 C   0  0  0  0  0  0  0  0  0  0  0  0
   22.6027   -8.2037  -17.3754 C   0  0  0  0  0  0  0  0  0  0  0  0
   22.4844   -7.8988  -18.5841 O   0  0  0  0  0  0  0  0  0  0  0  0
   21.7214   -7.6013  -16.4592 N   0  0  0  0  0  0  0  0  0  0  0  0
   20.6320   -6.8099  -16.9076 C   0  0  1  0  0  0  0  0  0  0  0  0
   19.3768   -7.2798  -16.2103 C   0  0  0  0  0  0  0  0  0  0  0  0
   18.9514   -8.6250  -16.8004 C   0  0  0  0  0  0  0  0  0  0  0  0
   17.7008   -9.0584  -16.1513 C   0  0  0  0  0  0  0  0  0  0  0  0
   17.7443   -9.5425  -14.9865 O   0  0  0  0  0  0  0  0  0  0  0  0
   20.7576   -5.3613  -16.6327 C   0  0  0  0  0  0  0  0  0  0  0  0
   21.1610   -4.9253  -15.5360 O   0  0  0  0  0  0  0  0  0  0  0  0
   16.4418   -8.9651  -16.7528 O   0  0  0  0  0  0  0  0  0  0  0  0
   20.3774   -2.3317  -18.7366 C   0  0  0  0  0  0  0  0  0  0  0  0
   20.5886   -3.0164  -17.3801 C   0  0  2  0  0  0  0  0  0  0  0  0
   20.4127   -4.4323  -17.6423 N   0  0  0  0  0  0  0  0  0  0  0  0
   19.6175   -2.5433  -16.3901 C   0  0  0  0  0  0  0  0  0  0  0  0
   18.5442   -3.3296  -15.9823 O   0  0  0  0  0  0  0  0  0  0  0  0
   19.7707   -1.3894  -15.9005 O   0  0  0  0  0  0  0  0  0  0  0  0
  2  1  1  6
  3  2  1  0
  4  9  2  0
  4  3  1  0
  5  4  1  0
  6  7  1  0
  6  5  2  0
  7  8  2  0
  8  9  1  0
 10 12  1  0
 10  2  1  0
 11 10  2  0
 13 12  1  0
 13 14  1  1
 14 15  1  0
 15 16  1  0
 16 17  2  0
 18 13  1  0
 19 18  2  0
 20 16  1  0
 22 21  1  6
 22 24  1  0
 22 23  1  0
 23 18  1  0
 24 25  1  0
 26 24  2  0
M  END
$$$$
