FEA.pdb
     RDKit          3D

 26 26  0  0  1  0  0  0  0  0999 V2000
   27.6872  -22.2684  -11.5480 N   0  0  0  0  0  0  0  0  0  0  0  0
   26.6203  -21.4749  -11.0315 C   0  0  1  0  0  0  0  0  0  0  0  0
   27.0900  -20.1313  -10.5699 C   0  0  0  0  0  0  0  0  0  0  0  0
   27.5114  -20.0607   -9.1756 C   0  0  0  0  0  0  0  0  0  0  0  0
   26.6383  -19.6814   -8.1884 C   0  0  0  0  0  0  0  0  0  0  0  0
   27.0450  -19.6071   -6.8709 C   0  0  0  0  0  0  0  0  0  0  0  0
   28.3603  -19.9220   -6.5396 C   0  0  0  0  0  0  0  0  0  0  0  0
   29.2616  -20.3081   -7.5229 C   0  0  0  0  0  0  0  0  0  0  0  0
   28.8071  -20.3683   -8.8309 C   0  0  0  0  0  0  0  0  0  0  0  0
   25.5657  -21.2410  -12.0527 C   0  0  0  0  0  0  0  0  0  0  0  0
   25.8747  -21.1621  -13.2636 O   0  0  0  0  0  0  0  0  0  0  0  0
   24.2077  -21.1013  -11.7134 N   0  0  0  0  0  0  0  0  0  0  0  0
   23.2019  -21.1014  -12.7148 C   0  0  1  0  0  0  0  0  0  0  0  0
   21.8747  -21.4129  -12.0636 C   0  0  0  0  0  0  0  0  0  0  0  0
   20.8513  -21.7459  -13.1500 C   0  0  0  0  0  0  0  0  0  0  0  0
   19.5639  -22.0732  -12.5108 C   0  0  0  0  0  0  0  0  0  0  0  0
   19.4613  -22.0014  -11.2548 O   0  0  0  0  0  0  0  0  0  0  0  0
   23.0357  -19.8182  -13.4329 C   0  0  0  0  0  0  0  0  0  0  0  0
   22.8853  -18.7352  -12.8329 O   0  0  0  0  0  0  0  0  0  0  0  0
   18.4233  -22.4646  -13.2190 O   0  0  0  0  0  0  0  0  0  0  0  0
   23.5938  -18.7690  -16.9044 C   0  0  0  0  0  0  0  0  0  0  0  0
   22.9291  -18.5409  -15.5407 C   0  0  2  0  0  0  0  0  0  0  0  0
   23.0482  -19.8096  -14.8475 N   0  0  0  0  0  0  0  0  0  0  0  0
   21.5229  -18.1584  -15.6933 C   0  0  0  0  0  0  0  0  0  0  0  0
   21.1452  -16.8461  -15.9612 O   0  0  0  0  0  0  0  0  0  0  0  0
   20.6398  -19.0535  -15.5775 O   0  0  0  0  0  0  0  0  0  0  0  0
  2  1  1  6
  3  2  1  0
  4  9  2  0
  4  3  1  0
  5  4  1  0
  6  7  1  0
  6  5  2  0
  7  8  2  0
  8  9  1  0
 10 12  1  0
 10  2  1  0
 11 10  2  0
 13 12  1  0
 13 14  1  1
 14 15  1  0
 15 16  1  0
 16 17  2  0
 18 13  1  0
 19 18  2  0
 20 16  1  0
 22 21  1  6
 22 24  1  0
 22 23  1  0
 23 18  1  0
 24 25  1  0
 26 24  2  0
M  END
$$$$
