FEA.pdb
     RDKit          3D

 26 26  0  0  1  0  0  0  0  0999 V2000
   25.3912  -10.9522  -18.4864 N   0  0  0  0  0  0  0  0  0  0  0  0
   24.7739  -10.9133  -17.2010 C   0  0  1  0  0  0  0  0  0  0  0  0
   25.7789  -10.8267  -16.0959 C   0  0  0  0  0  0  0  0  0  0  0  0
   26.6928  -11.9583  -15.9910 C   0  0  0  0  0  0  0  0  0  0  0  0
   27.9543  -11.9041  -16.5259 C   0  0  0  0  0  0  0  0  0  0  0  0
   28.8123  -12.9819  -16.4321 C   0  0  0  0  0  0  0  0  0  0  0  0
   28.3909  -14.1405  -15.7847 C   0  0  0  0  0  0  0  0  0  0  0  0
   27.1177  -14.2177  -15.2359 C   0  0  0  0  0  0  0  0  0  0  0  0
   26.2925  -13.1105  -15.3550 C   0  0  0  0  0  0  0  0  0  0  0  0
   23.8700   -9.7415  -17.0612 C   0  0  0  0  0  0  0  0  0  0  0  0
   24.0167   -8.7464  -17.8070 O   0  0  0  0  0  0  0  0  0  0  0  0
   22.8353   -9.6989  -16.1091 N   0  0  0  0  0  0  0  0  0  0  0  0
   21.9017   -8.6301  -16.0938 C   0  0  1  0  0  0  0  0  0  0  0  0
   20.5993   -9.1371  -15.5199 C   0  0  0  0  0  0  0  0  0  0  0  0
   20.0064  -10.1782  -16.4702 C   0  0  0  0  0  0  0  0  0  0  0  0
   18.9527  -10.9276  -15.7622 C   0  0  0  0  0  0  0  0  0  0  0  0
   19.1496  -12.1379  -15.4631 O   0  0  0  0  0  0  0  0  0  0  0  0
   22.3029   -7.4621  -15.2786 C   0  0  0  0  0  0  0  0  0  0  0  0
   22.8139   -7.5849  -14.1475 O   0  0  0  0  0  0  0  0  0  0  0  0
   17.7236  -10.3741  -15.3901 O   0  0  0  0  0  0  0  0  0  0  0  0
   22.5664   -3.8517  -16.0696 C   0  0  0  0  0  0  0  0  0  0  0  0
   22.7196   -5.0366  -15.1073 C   0  0  2  0  0  0  0  0  0  0  0  0
   22.1057   -6.1586  -15.7918 N   0  0  0  0  0  0  0  0  0  0  0  0
   22.0505   -4.7733  -13.8307 C   0  0  0  0  0  0  0  0  0  0  0  0
   22.6489   -4.0091  -12.8335 O   0  0  0  0  0  0  0  0  0  0  0  0
   20.8994   -5.2575  -13.6434 O   0  0  0  0  0  0  0  0  0  0  0  0
  2  1  1  6
  3  2  1  0
  4  9  2  0
  4  3  1  0
  5  4  1  0
  6  7  1  0
  6  5  2  0
  7  8  2  0
  8  9  1  0
 10 12  1  0
 10  2  1  0
 11 10  2  0
 13 12  1  0
 13 14  1  1
 14 15  1  0
 15 16  1  0
 16 17  2  0
 18 13  1  0
 19 18  2  0
 20 16  1  0
 22 21  1  6
 22 24  1  0
 22 23  1  0
 23 18  1  0
 24 25  1  0
 26 24  2  0
M  END
$$$$
