GWQ.pdb
     RDKit          3D

 28 29  0  0  1  0  0  0  0  0999 V2000
   28.1817  -23.0984  -16.3697 N   0  0  0  0  0  0  0  0  0  0  0  0
   27.8975  -21.7236  -16.0146 C   0  0  0  0  0  0  0  0  0  0  0  0
   27.1173  -21.7512  -14.7429 C   0  0  0  0  0  0  0  0  0  0  0  0
   26.0380  -22.3924  -14.6684 O   0  0  0  0  0  0  0  0  0  0  0  0
   27.5440  -21.0704  -13.5785 N   0  0  0  0  0  0  0  0  0  0  0  0
   26.7446  -21.1226  -12.3928 C   0  0  1  0  0  0  0  0  0  0  0  0
   27.4496  -20.6088  -11.1688 C   0  0  0  0  0  0  0  0  0  0  0  0
   26.6431  -20.7597   -9.9379 C   0  0  0  0  0  0  0  0  0  0  0  0
   25.4883  -21.4357   -9.6987 C   0  0  0  0  0  0  0  0  0  0  0  0
   25.1214  -21.2852   -8.4154 N   0  0  0  0  0  0  0  0  0  0  0  0
   26.0338  -20.5131   -7.8174 C   0  0  0  0  0  0  0  0  0  0  0  0
   26.1246  -20.0637   -6.5281 C   0  0  0  0  0  0  0  0  0  0  0  0
   27.1833  -19.2672   -6.1654 C   0  0  0  0  0  0  0  0  0  0  0  0
   28.1524  -18.9098   -7.0603 C   0  0  0  0  0  0  0  0  0  0  0  0
   28.0580  -19.3637   -8.3565 C   0  0  0  0  0  0  0  0  0  0  0  0
   27.0020  -20.1648   -8.7401 C   0  0  0  0  0  0  0  0  0  0  0  0
   25.5450  -20.2512  -12.6095 C   0  0  0  0  0  0  0  0  0  0  0  0
   25.6705  -19.1288  -13.1570 O   0  0  0  0  0  0  0  0  0  0  0  0
   19.7878  -20.3035  -15.8822 N   0  0  0  0  0  0  0  0  0  0  0  0
   21.1826  -20.3945  -15.7853 C   0  0  0  0  0  0  0  0  0  0  0  0
   21.8162  -21.2933  -16.3829 O   0  0  0  0  0  0  0  0  0  0  0  0
   21.9999  -19.4319  -14.9684 C   0  0  0  0  0  0  0  0  0  0  0  0
   23.1443  -20.1000  -14.3055 C   0  0  0  0  0  0  0  0  0  0  0  0
   23.0903  -20.0115  -12.8187 C   0  0  2  0  0  0  0  0  0  0  0  0
   24.2498  -20.6567  -12.2106 N   0  0  0  0  0  0  0  0  0  0  0  0
   21.8405  -20.5258  -12.2238 C   0  0  0  0  0  0  0  0  0  0  0  0
   21.8534  -21.6930  -11.4790 O   0  0  0  0  0  0  0  0  0  0  0  0
   20.7608  -19.9323  -12.3745 O   0  0  0  0  0  0  0  0  0  0  0  0
  2  1  1  0
  3  2  1  0
  4  3  2  0
  5  3  1  0
  6  5  1  0
  7  8  1  0
  6  7  1  1
  8 16  1  0
  9 10  1  0
  9  8  2  0
 10 11  1  0
 11 16  2  0
 11 12  1  0
 12 13  2  0
 13 14  1  0
 15 14  2  0
 16 15  1  0
 17  6  1  0
 17 18  2  0
 20 22  1  0
 20 19  1  0
 21 20  2  0
 24 23  1  6
 23 22  1  0
 24 25  1  0
 25 17  1  0
 26 24  1  0
 27 26  1  0
 28 26  2  0
M  END
$$$$
