GWQ.pdb
     RDKit          3D

 28 29  0  0  1  0  0  0  0  0999 V2000
   30.9662  -22.1835  -11.3730 N   0  0  0  0  0  0  0  0  0  0  0  0
   30.0976  -21.0896  -11.7546 C   0  0  0  0  0  0  0  0  0  0  0  0
   28.8068  -21.2811  -11.0307 C   0  0  0  0  0  0  0  0  0  0  0  0
   28.2312  -22.3992  -11.0345 O   0  0  0  0  0  0  0  0  0  0  0  0
   28.1771  -20.2346  -10.3170 N   0  0  0  0  0  0  0  0  0  0  0  0
   26.8880  -20.4487   -9.7336 C   0  0  1  0  0  0  0  0  0  0  0  0
   26.5520  -19.4720   -8.6417 C   0  0  0  0  0  0  0  0  0  0  0  0
   26.5093  -20.1015   -7.3037 C   0  0  0  0  0  0  0  0  0  0  0  0
   25.6850  -21.0489   -6.7834 C   0  0  0  0  0  0  0  0  0  0  0  0
   26.0278  -21.3127   -5.5119 N   0  0  0  0  0  0  0  0  0  0  0  0
   27.0734  -20.5401   -5.2018 C   0  0  0  0  0  0  0  0  0  0  0  0
   27.7935  -20.4249   -4.0439 C   0  0  0  0  0  0  0  0  0  0  0  0
   28.8408  -19.5378   -3.9874 C   0  0  0  0  0  0  0  0  0  0  0  0
   29.1847  -18.7641   -5.0601 C   0  0  0  0  0  0  0  0  0  0  0  0
   28.4583  -18.8825   -6.2234 C   0  0  0  0  0  0  0  0  0  0  0  0
   27.4027  -19.7680   -6.2998 C   0  0  0  0  0  0  0  0  0  0  0  0
   25.8620  -20.2754  -10.8119 C   0  0  0  0  0  0  0  0  0  0  0  0
   25.9756  -19.3463  -11.6481 O   0  0  0  0  0  0  0  0  0  0  0  0
   24.6773  -24.8422  -14.3685 N   0  0  0  0  0  0  0  0  0  0  0  0
   23.7843  -23.8877  -14.8731 C   0  0  0  0  0  0  0  0  0  0  0  0
   23.1743  -24.0765  -15.9496 O   0  0  0  0  0  0  0  0  0  0  0  0
   23.5031  -22.5909  -14.1651 C   0  0  0  0  0  0  0  0  0  0  0  0
   24.2499  -22.4821  -12.8900 C   0  0  0  0  0  0  0  0  0  0  0  0
   24.0172  -21.1893  -12.1859 C   0  0  2  0  0  0  0  0  0  0  0  0
   24.7473  -21.1390  -10.9230 N   0  0  0  0  0  0  0  0  0  0  0  0
   22.5934  -20.8597  -11.9742 C   0  0  0  0  0  0  0  0  0  0  0  0
   21.8105  -20.4420  -13.0371 O   0  0  0  0  0  0  0  0  0  0  0  0
   22.0693  -20.9479  -10.8524 O   0  0  0  0  0  0  0  0  0  0  0  0
  2  1  1  0
  3  2  1  0
  4  3  2  0
  5  3  1  0
  6  5  1  0
  7  8  1  0
  6  7  1  1
  8 16  1  0
  9 10  1  0
  9  8  2  0
 10 11  1  0
 11 16  2  0
 11 12  1  0
 12 13  2  0
 13 14  1  0
 15 14  2  0
 16 15  1  0
 17  6  1  0
 17 18  2  0
 20 22  1  0
 20 19  1  0
 21 20  2  0
 24 23  1  1
 23 22  1  0
 24 25  1  0
 25 17  1  0
 26 24  1  0
 27 26  1  0
 28 26  2  0
M  END
$$$$
