GWQ.pdb
     RDKit          3D

 28 29  0  0  1  0  0  0  0  0999 V2000
   21.8824  -21.3941   -6.9204 N   0  0  0  0  0  0  0  0  0  0  0  0
   23.1530  -22.0602   -7.1171 C   0  0  0  0  0  0  0  0  0  0  0  0
   24.0108  -21.1405   -7.9203 C   0  0  0  0  0  0  0  0  0  0  0  0
   23.6220  -19.9752   -8.1895 O   0  0  0  0  0  0  0  0  0  0  0  0
   25.2809  -21.5253   -8.4102 N   0  0  0  0  0  0  0  0  0  0  0  0
   26.1135  -20.5595   -9.0597 C   0  0  1  0  0  0  0  0  0  0  0  0
   27.5156  -20.5138   -8.5199 C   0  0  0  0  0  0  0  0  0  0  0  0
   27.6013  -19.8412   -7.2052 C   0  0  0  0  0  0  0  0  0  0  0  0
   26.7212  -19.0409   -6.5474 C   0  0  0  0  0  0  0  0  0  0  0  0
   27.2369  -18.6573   -5.3680 N   0  0  0  0  0  0  0  0  0  0  0  0
   28.4507  -19.2054   -5.2551 C   0  0  0  0  0  0  0  0  0  0  0  0
   29.3820  -19.1281   -4.2555 C   0  0  0  0  0  0  0  0  0  0  0  0
   30.5728  -19.7993   -4.3910 C   0  0  0  0  0  0  0  0  0  0  0  0
   30.8541  -20.5452   -5.5010 C   0  0  0  0  0  0  0  0  0  0  0  0
   29.9149  -20.6209   -6.5047 C   0  0  0  0  0  0  0  0  0  0  0  0
   28.7127  -19.9538   -6.3871 C   0  0  0  0  0  0  0  0  0  0  0  0
   26.2098  -20.9359  -10.5069 C   0  0  0  0  0  0  0  0  0  0  0  0
   27.0135  -21.8267  -10.8755 O   0  0  0  0  0  0  0  0  0  0  0  0
   25.0509  -22.5920  -15.7259 N   0  0  0  0  0  0  0  0  0  0  0  0
   25.0706  -23.5135  -14.6706 C   0  0  0  0  0  0  0  0  0  0  0  0
   25.3949  -24.7075  -14.8593 O   0  0  0  0  0  0  0  0  0  0  0  0
   24.7085  -23.1348  -13.2609 C   0  0  0  0  0  0  0  0  0  0  0  0
   24.3148  -21.7105  -13.1531 C   0  0  0  0  0  0  0  0  0  0  0  0
   25.4646  -20.8074  -12.8637 C   0  0  2  0  0  0  0  0  0  0  0  0
   25.4111  -20.3101  -11.4924 N   0  0  0  0  0  0  0  0  0  0  0  0
   25.6130  -19.6878  -13.8150 C   0  0  0  0  0  0  0  0  0  0  0  0
   25.9405  -19.9369  -15.1370 O   0  0  0  0  0  0  0  0  0  0  0  0
   25.4497  -18.5102  -13.4579 O   0  0  0  0  0  0  0  0  0  0  0  0
  2  1  1  0
  3  2  1  0
  4  3  2  0
  5  3  1  0
  6  5  1  0
  7  8  1  0
  6  7  1  1
  8 16  1  0
  9 10  1  0
  9  8  2  0
 10 11  1  0
 11 16  2  0
 11 12  1  0
 12 13  2  0
 13 14  1  0
 15 14  2  0
 16 15  1  0
 17  6  1  0
 17 18  2  0
 20 22  1  0
 20 19  1  0
 21 20  2  0
 24 23  1  6
 23 22  1  0
 24 25  1  0
 25 17  1  0
 26 24  1  0
 27 26  1  0
 28 26  2  0
M  END
$$$$
