GWQ.pdb
     RDKit          3D

 28 29  0  0  1  0  0  0  0  0999 V2000
   27.5332  -22.1059  -16.6388 N   0  0  0  0  0  0  0  0  0  0  0  0
   27.0545  -20.9349  -15.9341 C   0  0  0  0  0  0  0  0  0  0  0  0
   26.5158  -21.4015  -14.6230 C   0  0  0  0  0  0  0  0  0  0  0  0
   26.1519  -22.5954  -14.4694 O   0  0  0  0  0  0  0  0  0  0  0  0
   26.3896  -20.5408  -13.5075 N   0  0  0  0  0  0  0  0  0  0  0  0
   25.7930  -21.0260  -12.3006 C   0  0  1  0  0  0  0  0  0  0  0  0
   26.4865  -20.5525  -11.0540 C   0  0  0  0  0  0  0  0  0  0  0  0
   27.9480  -20.7781  -11.0910 C   0  0  0  0  0  0  0  0  0  0  0  0
   28.8327  -20.7625  -12.1230 C   0  0  0  0  0  0  0  0  0  0  0  0
   30.0710  -21.0266  -11.6748 N   0  0  0  0  0  0  0  0  0  0  0  0
   29.9961  -21.2141  -10.3535 C   0  0  0  0  0  0  0  0  0  0  0  0
   30.9636  -21.5072   -9.4314 C   0  0  0  0  0  0  0  0  0  0  0  0
   30.6138  -21.6517   -8.1109 C   0  0  0  0  0  0  0  0  0  0  0  0
   29.3210  -21.5103   -7.6912 C   0  0  0  0  0  0  0  0  0  0  0  0
   28.3501  -21.2153   -8.6215 C   0  0  0  0  0  0  0  0  0  0  0  0
   28.6817  -21.0663   -9.9527 C   0  0  0  0  0  0  0  0  0  0  0  0
   24.3865  -20.5122  -12.2454 C   0  0  0  0  0  0  0  0  0  0  0  0
   24.1627  -19.3163  -11.9372 O   0  0  0  0  0  0  0  0  0  0  0  0
   20.5145  -18.5309  -16.0139 N   0  0  0  0  0  0  0  0  0  0  0  0
   21.1891  -19.7589  -16.0229 C   0  0  0  0  0  0  0  0  0  0  0  0
   20.8756  -20.6644  -16.8280 O   0  0  0  0  0  0  0  0  0  0  0  0
   22.3189  -20.0667  -15.0791 C   0  0  0  0  0  0  0  0  0  0  0  0
   22.0276  -19.6129  -13.6989 C   0  0  0  0  0  0  0  0  0  0  0  0
   21.9666  -20.7326  -12.7171 C   0  0  2  0  0  0  0  0  0  0  0  0
   23.2794  -21.3440  -12.5340 N   0  0  0  0  0  0  0  0  0  0  0  0
   20.9553  -21.7619  -13.0304 C   0  0  0  0  0  0  0  0  0  0  0  0
   21.3493  -23.0071  -13.4903 O   0  0  0  0  0  0  0  0  0  0  0  0
   19.7420  -21.5396  -12.8911 O   0  0  0  0  0  0  0  0  0  0  0  0
  2  1  1  0
  3  2  1  0
  4  3  2  0
  5  3  1  0
  6  5  1  0
  7  8  1  0
  6  7  1  1
  8 16  1  0
  9 10  1  0
  9  8  2  0
 10 11  1  0
 11 16  2  0
 11 12  1  0
 12 13  2  0
 13 14  1  0
 15 14  2  0
 16 15  1  0
 17  6  1  0
 17 18  2  0
 20 22  1  0
 20 19  1  0
 21 20  2  0
 24 23  1  6
 23 22  1  0
 24 25  1  0
 25 17  1  0
 26 24  1  0
 27 26  1  0
 28 26  2  0
M  END
$$$$
