GWQ.pdb
     RDKit          3D

 28 29  0  0  1  0  0  0  0  0999 V2000
   29.0687  -19.2217  -13.2809 N   0  0  0  0  0  0  0  0  0  0  0  0
   28.2598  -18.7060  -12.1962 C   0  0  0  0  0  0  0  0  0  0  0  0
   27.5678  -19.8717  -11.5723 C   0  0  0  0  0  0  0  0  0  0  0  0
   27.7502  -21.0350  -12.0137 O   0  0  0  0  0  0  0  0  0  0  0  0
   26.6883  -19.7300  -10.4734 N   0  0  0  0  0  0  0  0  0  0  0  0
   25.9185  -20.8523  -10.0312 C   0  0  1  0  0  0  0  0  0  0  0  0
   25.5814  -20.8113   -8.5670 C   0  0  0  0  0  0  0  0  0  0  0  0
   26.4531  -19.8911   -7.8043 C   0  0  0  0  0  0  0  0  0  0  0  0
   26.7232  -18.5689   -7.9676 C   0  0  0  0  0  0  0  0  0  0  0  0
   27.5847  -18.1528   -7.0248 N   0  0  0  0  0  0  0  0  0  0  0  0
   27.8767  -19.2000   -6.2473 C   0  0  0  0  0  0  0  0  0  0  0  0
   28.6961  -19.3086   -5.1569 C   0  0  0  0  0  0  0  0  0  0  0  0
   28.8227  -20.5231   -4.5277 C   0  0  0  0  0  0  0  0  0  0  0  0
   28.1501  -21.6304   -4.9627 C   0  0  0  0  0  0  0  0  0  0  0  0
   27.3265  -21.5176   -6.0600 C   0  0  0  0  0  0  0  0  0  0  0  0
   27.1862  -20.3061   -6.7055 C   0  0  0  0  0  0  0  0  0  0  0  0
   24.6222  -20.8443  -10.7829 C   0  0  0  0  0  0  0  0  0  0  0  0
   23.9661  -19.7806  -10.8988 O   0  0  0  0  0  0  0  0  0  0  0  0
   27.0416  -21.9862  -14.9462 N   0  0  0  0  0  0  0  0  0  0  0  0
   25.8180  -21.3102  -15.0402 C   0  0  0  0  0  0  0  0  0  0  0  0
   25.7542  -20.1462  -15.4958 O   0  0  0  0  0  0  0  0  0  0  0  0
   24.5179  -21.9293  -14.6061 C   0  0  0  0  0  0  0  0  0  0  0  0
   23.8101  -21.0913  -13.6099 C   0  0  0  0  0  0  0  0  0  0  0  0
   23.1910  -21.8871  -12.5123 C   0  0  2  0  0  0  0  0  0  0  0  0
   24.1010  -22.0167  -11.3784 N   0  0  0  0  0  0  0  0  0  0  0  0
   22.6914  -23.2126  -12.9293 C   0  0  0  0  0  0  0  0  0  0  0  0
   21.3552  -23.3832  -13.2495 O   0  0  0  0  0  0  0  0  0  0  0  0
   23.4472  -24.1946  -13.0024 O   0  0  0  0  0  0  0  0  0  0  0  0
  2  1  1  0
  3  2  1  0
  4  3  2  0
  5  3  1  0
  6  5  1  0
  7  8  1  0
  6  7  1  1
  8 16  1  0
  9 10  1  0
  9  8  2  0
 10 11  1  0
 11 16  2  0
 11 12  1  0
 12 13  2  0
 13 14  1  0
 15 14  2  0
 16 15  1  0
 17  6  1  0
 17 18  2  0
 20 22  1  0
 20 19  1  0
 21 20  2  0
 24 23  1  6
 23 22  1  0
 24 25  1  0
 25 17  1  0
 26 24  1  0
 27 26  1  0
 28 26  2  0
M  END
$$$$
