GWQ.pdb
     RDKit          3D

 28 29  0  0  1  0  0  0  0  0999 V2000
   28.4918  -21.8695  -15.5081 N   0  0  0  0  0  0  0  0  0  0  0  0
   27.8880  -20.7131  -14.8796 C   0  0  0  0  0  0  0  0  0  0  0  0
   26.9752  -21.2197  -13.8133 C   0  0  0  0  0  0  0  0  0  0  0  0
   26.3804  -22.3193  -13.9499 O   0  0  0  0  0  0  0  0  0  0  0  0
   26.7371  -20.5026  -12.6175 N   0  0  0  0  0  0  0  0  0  0  0  0
   25.8464  -21.0384  -11.6339 C   0  0  1  0  0  0  0  0  0  0  0  0
   26.0614  -20.4752  -10.2570 C   0  0  0  0  0  0  0  0  0  0  0  0
   27.4069  -20.7741   -9.7199 C   0  0  0  0  0  0  0  0  0  0  0  0
   28.4387  -21.4947  -10.2337 C   0  0  0  0  0  0  0  0  0  0  0  0
   29.4754  -21.4921   -9.3797 N   0  0  0  0  0  0  0  0  0  0  0  0
   29.1223  -20.7717   -8.3106 C   0  0  0  0  0  0  0  0  0  0  0  0
   29.8090  -20.4643   -7.1677 C   0  0  0  0  0  0  0  0  0  0  0  0
   29.2045  -19.6923   -6.2057 C   0  0  0  0  0  0  0  0  0  0  0  0
   27.9310  -19.2208   -6.3594 C   0  0  0  0  0  0  0  0  0  0  0  0
   27.2430  -19.5319   -7.5105 C   0  0  0  0  0  0  0  0  0  0  0  0
   27.8332  -20.3062   -8.4885 C   0  0  0  0  0  0  0  0  0  0  0  0
   24.4480  -20.6865  -12.0413 C   0  0  0  0  0  0  0  0  0  0  0  0
   24.1537  -19.5010  -12.3298 O   0  0  0  0  0  0  0  0  0  0  0  0
   21.4863  -22.6631  -16.2562 N   0  0  0  0  0  0  0  0  0  0  0  0
   20.3260  -22.2599  -15.5822 C   0  0  0  0  0  0  0  0  0  0  0  0
   19.2829  -21.9647  -16.2076 O   0  0  0  0  0  0  0  0  0  0  0  0
   20.2575  -22.1563  -14.0833 C   0  0  0  0  0  0  0  0  0  0  0  0
   21.5578  -22.4701  -13.4459 C   0  0  0  0  0  0  0  0  0  0  0  0
   22.1526  -21.3062  -12.7297 C   0  0  2  0  0  0  0  0  0  0  0  0
   23.4268  -21.6627  -12.1134 N   0  0  0  0  0  0  0  0  0  0  0  0
   21.2557  -20.6789  -11.7384 C   0  0  0  0  0  0  0  0  0  0  0  0
   21.3757  -20.9924  -10.3951 O   0  0  0  0  0  0  0  0  0  0  0  0
   20.3828  -19.8652  -12.0802 O   0  0  0  0  0  0  0  0  0  0  0  0
  2  1  1  0
  3  2  1  0
  4  3  2  0
  5  3  1  0
  6  5  1  0
  7  8  1  0
  6  7  1  1
  8 16  1  0
  9 10  1  0
  9  8  2  0
 10 11  1  0
 11 16  2  0
 11 12  1  0
 12 13  2  0
 13 14  1  0
 15 14  2  0
 16 15  1  0
 17  6  1  0
 17 18  2  0
 20 22  1  0
 20 19  1  0
 21 20  2  0
 24 23  1  1
 23 22  1  0
 24 25  1  0
 25 17  1  0
 26 24  1  0
 27 26  1  0
 28 26  2  0
M  END
$$$$
