GWQ.pdb
     RDKit          3D

 28 29  0  0  1  0  0  0  0  0999 V2000
   27.7868  -24.4821  -16.6573 N   0  0  0  0  0  0  0  0  0  0  0  0
   26.8820  -23.3866  -16.9364 C   0  0  0  0  0  0  0  0  0  0  0  0
   26.0035  -23.2276  -15.7406 C   0  0  0  0  0  0  0  0  0  0  0  0
   25.5094  -24.2343  -15.1715 O   0  0  0  0  0  0  0  0  0  0  0  0
   25.6879  -21.9604  -15.1967 N   0  0  0  0  0  0  0  0  0  0  0  0
   24.8294  -21.8718  -14.0553 C   0  0  1  0  0  0  0  0  0  0  0  0
   24.9510  -20.5719  -13.3105 C   0  0  0  0  0  0  0  0  0  0  0  0
   24.4351  -20.6546  -11.9265 C   0  0  0  0  0  0  0  0  0  0  0  0
   24.9679  -21.2002  -10.8012 C   0  0  0  0  0  0  0  0  0  0  0  0
   24.1290  -21.0354   -9.7652 N   0  0  0  0  0  0  0  0  0  0  0  0
   23.0510  -20.3837  -10.2121 C   0  0  0  0  0  0  0  0  0  0  0  0
   21.9164  -19.9746   -9.5657 C   0  0  0  0  0  0  0  0  0  0  0  0
   20.9416  -19.3115  -10.2705 C   0  0  0  0  0  0  0  0  0  0  0  0
   21.0741  -19.0482  -11.6050 C   0  0  0  0  0  0  0  0  0  0  0  0
   22.2168  -19.4612  -12.2522 C   0  0  0  0  0  0  0  0  0  0  0  0
   23.2075  -20.1286  -11.5613 C   0  0  0  0  0  0  0  0  0  0  0  0
   23.4141  -21.9739  -14.5367 C   0  0  0  0  0  0  0  0  0  0  0  0
   23.0544  -21.3651  -15.5736 O   0  0  0  0  0  0  0  0  0  0  0  0
   20.2448  -25.0258  -16.8999 N   0  0  0  0  0  0  0  0  0  0  0  0
   19.0854  -24.6595  -16.2039 C   0  0  0  0  0  0  0  0  0  0  0  0
   17.9637  -24.6776  -16.7588 O   0  0  0  0  0  0  0  0  0  0  0  0
   19.1108  -24.2262  -14.7639 C   0  0  0  0  0  0  0  0  0  0  0  0
   20.4922  -24.1412  -14.2348 C   0  0  0  0  0  0  0  0  0  0  0  0
   21.0798  -22.7767  -14.3541 C   0  0  2  0  0  0  0  0  0  0  0  0
   22.4494  -22.7476  -13.8500 N   0  0  0  0  0  0  0  0  0  0  0  0
   20.2742  -21.7105  -13.7259 C   0  0  0  0  0  0  0  0  0  0  0  0
   19.7905  -21.8709  -12.4385 O   0  0  0  0  0  0  0  0  0  0  0  0
   20.0138  -20.6569  -14.3285 O   0  0  0  0  0  0  0  0  0  0  0  0
  2  1  1  0
  3  2  1  0
  4  3  2  0
  5  3  1  0
  6  5  1  0
  7  8  1  0
  6  7  1  6
  8 16  1  0
  9 10  1  0
  9  8  2  0
 10 11  1  0
 11 16  2  0
 11 12  1  0
 12 13  2  0
 13 14  1  0
 15 14  2  0
 16 15  1  0
 17  6  1  0
 17 18  2  0
 20 22  1  0
 20 19  1  0
 21 20  2  0
 24 23  1  1
 23 22  1  0
 24 25  1  0
 25 17  1  0
 26 24  1  0
 27 26  1  0
 28 26  2  0
M  END
$$$$
