GWQ.pdb
     RDKit          3D

 28 29  0  0  1  0  0  0  0  0999 V2000
   28.6591  -21.2329  -15.0105 N   0  0  0  0  0  0  0  0  0  0  0  0
   28.0404  -20.2177  -14.1839 C   0  0  0  0  0  0  0  0  0  0  0  0
   27.0978  -20.9167  -13.2622 C   0  0  0  0  0  0  0  0  0  0  0  0
   26.6765  -22.0704  -13.5324 O   0  0  0  0  0  0  0  0  0  0  0  0
   26.6388  -20.3284  -12.0604 N   0  0  0  0  0  0  0  0  0  0  0  0
   25.6883  -21.0238  -11.2474 C   0  0  1  0  0  0  0  0  0  0  0  0
   25.7900  -20.6915   -9.7851 C   0  0  0  0  0  0  0  0  0  0  0  0
   27.1595  -20.8632   -9.2529 C   0  0  0  0  0  0  0  0  0  0  0  0
   28.2233  -21.5673   -9.7225 C   0  0  0  0  0  0  0  0  0  0  0  0
   29.2720  -21.4281   -8.8950 N   0  0  0  0  0  0  0  0  0  0  0  0
   28.8949  -20.6351   -7.8872 C   0  0  0  0  0  0  0  0  0  0  0  0
   29.5812  -20.1867   -6.7916 C   0  0  0  0  0  0  0  0  0  0  0  0
   28.9484  -19.3664   -5.8897 C   0  0  0  0  0  0  0  0  0  0  0  0
   27.6470  -18.9843   -6.0572 C   0  0  0  0  0  0  0  0  0  0  0  0
   26.9595  -19.4372   -7.1605 C   0  0  0  0  0  0  0  0  0  0  0  0
   27.5779  -20.2620   -8.0779 C   0  0  0  0  0  0  0  0  0  0  0  0
   24.3173  -20.6200  -11.6975 C   0  0  0  0  0  0  0  0  0  0  0  0
   23.9595  -19.4187  -11.6319 O   0  0  0  0  0  0  0  0  0  0  0  0
   23.8137  -19.4525  -15.9371 N   0  0  0  0  0  0  0  0  0  0  0  0
   22.6671  -20.1996  -15.6367 C   0  0  0  0  0  0  0  0  0  0  0  0
   21.5224  -19.7542  -15.8771 O   0  0  0  0  0  0  0  0  0  0  0  0
   22.7342  -21.5670  -15.0141 C   0  0  0  0  0  0  0  0  0  0  0  0
   21.7134  -21.7446  -13.9548 C   0  0  0  0  0  0  0  0  0  0  0  0
   22.0901  -21.0963  -12.6667 C   0  0  2  0  0  0  0  0  0  0  0  0
   23.3931  -21.5636  -12.2037 N   0  0  0  0  0  0  0  0  0  0  0  0
   21.0807  -21.2349  -11.5980 C   0  0  0  0  0  0  0  0  0  0  0  0
   19.8740  -20.5620  -11.6892 O   0  0  0  0  0  0  0  0  0  0  0  0
   21.2858  -21.9492  -10.6037 O   0  0  0  0  0  0  0  0  0  0  0  0
  2  1  1  0
  3  2  1  0
  4  3  2  0
  5  3  1  0
  6  5  1  0
  7  8  1  0
  6  7  1  1
  8 16  1  0
  9 10  1  0
  9  8  2  0
 10 11  1  0
 11 16  2  0
 11 12  1  0
 12 13  2  0
 13 14  1  0
 15 14  2  0
 16 15  1  0
 17  6  1  0
 17 18  2  0
 20 22  1  0
 20 19  1  0
 21 20  2  0
 24 23  1  6
 23 22  1  0
 24 25  1  0
 25 17  1  0
 26 24  1  0
 27 26  1  0
 28 26  2  0
M  END
$$$$
