GWQ.pdb
     RDKit          3D

 28 29  0  0  1  0  0  0  0  0999 V2000
   27.4599  -23.2243  -16.6630 N   0  0  0  0  0  0  0  0  0  0  0  0
   26.0632  -22.9102  -16.8807 C   0  0  0  0  0  0  0  0  0  0  0  0
   25.6999  -21.8324  -15.9147 C   0  0  0  0  0  0  0  0  0  0  0  0
   26.2324  -21.7878  -14.7763 O   0  0  0  0  0  0  0  0  0  0  0  0
   24.7562  -20.8252  -16.2246 N   0  0  0  0  0  0  0  0  0  0  0  0
   24.4255  -19.8366  -15.2442 C   0  0  1  0  0  0  0  0  0  0  0  0
   23.9819  -18.5278  -15.8353 C   0  0  0  0  0  0  0  0  0  0  0  0
   25.0713  -17.8213  -16.5442 C   0  0  0  0  0  0  0  0  0  0  0  0
   25.0415  -16.8599  -17.5047 C   0  0  0  0  0  0  0  0  0  0  0  0
   26.2920  -16.5152  -17.8533 N   0  0  0  0  0  0  0  0  0  0  0  0
   27.1369  -17.2492  -17.1226 C   0  0  0  0  0  0  0  0  0  0  0  0
   28.5045  -17.2827  -17.0942 C   0  0  0  0  0  0  0  0  0  0  0  0
   29.1394  -18.1458  -16.2346 C   0  0  0  0  0  0  0  0  0  0  0  0
   28.4399  -18.9752  -15.4036 C   0  0  0  0  0  0  0  0  0  0  0  0
   27.0641  -18.9389  -15.4347 C   0  0  0  0  0  0  0  0  0  0  0  0
   26.4080  -18.0787  -16.2914 C   0  0  0  0  0  0  0  0  0  0  0  0
   23.2831  -20.3627  -14.4295 C   0  0  0  0  0  0  0  0  0  0  0  0
   22.5035  -21.2186  -14.9141 O   0  0  0  0  0  0  0  0  0  0  0  0
   22.8572  -20.6551   -8.1079 N   0  0  0  0  0  0  0  0  0  0  0  0
   21.6458  -21.1791   -8.5781 C   0  0  0  0  0  0  0  0  0  0  0  0
   20.7836  -21.6262   -7.7888 O   0  0  0  0  0  0  0  0  0  0  0  0
   21.3055  -21.2384  -10.0419 C   0  0  0  0  0  0  0  0  0  0  0  0
   22.3616  -20.6263  -10.8818 C   0  0  0  0  0  0  0  0  0  0  0  0
   21.9953  -20.5621  -12.3252 C   0  0  2  0  0  0  0  0  0  0  0  0
   23.0472  -19.9197  -13.1070 N   0  0  0  0  0  0  0  0  0  0  0  0
   20.6896  -19.9269  -12.5935 C   0  0  0  0  0  0  0  0  0  0  0  0
   19.5493  -20.7035  -12.7118 O   0  0  0  0  0  0  0  0  0  0  0  0
   20.5826  -18.6965  -12.7182 O   0  0  0  0  0  0  0  0  0  0  0  0
  2  1  1  0
  3  2  1  0
  4  3  2  0
  5  3  1  0
  6  5  1  0
  7  8  1  0
  6  7  1  6
  8 16  1  0
  9 10  1  0
  9  8  2  0
 10 11  1  0
 11 16  2  0
 11 12  1  0
 12 13  2  0
 13 14  1  0
 15 14  2  0
 16 15  1  0
 17  6  1  0
 17 18  2  0
 20 22  1  0
 20 19  1  0
 21 20  2  0
 24 23  1  1
 23 22  1  0
 24 25  1  0
 25 17  1  0
 26 24  1  0
 27 26  1  0
 28 26  2  0
M  END
$$$$
