GWQ.pdb
     RDKit          3D

 28 29  0  0  1  0  0  0  0  0999 V2000
   28.3530  -23.7012  -16.3096 N   0  0  0  0  0  0  0  0  0  0  0  0
   28.1460  -22.2859  -16.0837 C   0  0  0  0  0  0  0  0  0  0  0  0
   27.1660  -22.1587  -14.9656 C   0  0  0  0  0  0  0  0  0  0  0  0
   26.4581  -23.1393  -14.6209 O   0  0  0  0  0  0  0  0  0  0  0  0
   26.9870  -20.9516  -14.2501 N   0  0  0  0  0  0  0  0  0  0  0  0
   26.0848  -20.9116  -13.1400 C   0  0  1  0  0  0  0  0  0  0  0  0
   26.4875  -19.9333  -12.0723 C   0  0  0  0  0  0  0  0  0  0  0  0
   27.5586  -20.4529  -11.1942 C   0  0  0  0  0  0  0  0  0  0  0  0
   28.7955  -20.9396  -11.4789 C   0  0  0  0  0  0  0  0  0  0  0  0
   29.4233  -21.2987  -10.3471 N   0  0  0  0  0  0  0  0  0  0  0  0
   28.5991  -21.0472   -9.3253 C   0  0  0  0  0  0  0  0  0  0  0  0
   28.7559  -21.2307   -7.9784 C   0  0  0  0  0  0  0  0  0  0  0  0
   27.7347  -20.8834   -7.1279 C   0  0  0  0  0  0  0  0  0  0  0  0
   26.5617  -20.3575   -7.5918 C   0  0  0  0  0  0  0  0  0  0  0  0
   26.4073  -20.1742   -8.9474 C   0  0  0  0  0  0  0  0  0  0  0  0
   27.4217  -20.5169   -9.8179 C   0  0  0  0  0  0  0  0  0  0  0  0
   24.7452  -20.4785  -13.6529 C   0  0  0  0  0  0  0  0  0  0  0  0
   24.6632  -19.5749  -14.5201 O   0  0  0  0  0  0  0  0  0  0  0  0
   18.9235  -22.4661  -13.8783 N   0  0  0  0  0  0  0  0  0  0  0  0
   19.9606  -23.2656  -13.3801 C   0  0  0  0  0  0  0  0  0  0  0  0
   19.7202  -24.2991  -12.7164 O   0  0  0  0  0  0  0  0  0  0  0  0
   21.4114  -22.9399  -13.6063 C   0  0  0  0  0  0  0  0  0  0  0  0
   21.5839  -21.7387  -14.4566 C   0  0  0  0  0  0  0  0  0  0  0  0
   22.2762  -20.6212  -13.7543 C   0  0  2  0  0  0  0  0  0  0  0  0
   23.5454  -21.0634  -13.1848 N   0  0  0  0  0  0  0  0  0  0  0  0
   21.4558  -19.9463  -12.7286 C   0  0  0  0  0  0  0  0  0  0  0  0
   20.2507  -19.3599  -13.0768 O   0  0  0  0  0  0  0  0  0  0  0  0
   21.8210  -19.8887  -11.5436 O   0  0  0  0  0  0  0  0  0  0  0  0
  2  1  1  0
  3  2  1  0
  4  3  2  0
  5  3  1  0
  6  5  1  0
  7  8  1  0
  6  7  1  1
  8 16  1  0
  9 10  1  0
  9  8  2  0
 10 11  1  0
 11 16  2  0
 11 12  1  0
 12 13  2  0
 13 14  1  0
 15 14  2  0
 16 15  1  0
 17  6  1  0
 17 18  2  0
 20 22  1  0
 20 19  1  0
 21 20  2  0
 24 23  1  1
 23 22  1  0
 24 25  1  0
 25 17  1  0
 26 24  1  0
 27 26  1  0
 28 26  2  0
M  END
$$$$
