GWQ.pdb
     RDKit          3D

 28 29  0  0  1  0  0  0  0  0999 V2000
   28.8450  -23.0785  -16.5651 N   0  0  0  0  0  0  0  0  0  0  0  0
   28.3586  -21.7575  -16.2258 C   0  0  0  0  0  0  0  0  0  0  0  0
   27.6325  -21.8772  -14.9277 C   0  0  0  0  0  0  0  0  0  0  0  0
   26.8444  -22.8353  -14.7216 O   0  0  0  0  0  0  0  0  0  0  0  0
   27.7908  -20.9370  -13.8827 N   0  0  0  0  0  0  0  0  0  0  0  0
   27.0536  -21.0965  -12.6666 C   0  0  1  0  0  0  0  0  0  0  0  0
   27.5603  -20.2414  -11.5392 C   0  0  0  0  0  0  0  0  0  0  0  0
   26.7158  -20.3315  -10.3280 C   0  0  0  0  0  0  0  0  0  0  0  0
   25.3677  -20.4216  -10.1785 C   0  0  0  0  0  0  0  0  0  0  0  0
   25.0496  -20.4804   -8.8748 N   0  0  0  0  0  0  0  0  0  0  0  0
   26.1867  -20.4292   -8.1741 C   0  0  0  0  0  0  0  0  0  0  0  0
   26.4124  -20.4546   -6.8247 C   0  0  0  0  0  0  0  0  0  0  0  0
   27.7018  -20.3862   -6.3561 C   0  0  0  0  0  0  0  0  0  0  0  0
   28.7697  -20.2931   -7.2038 C   0  0  0  0  0  0  0  0  0  0  0  0
   28.5390  -20.2679   -8.5608 C   0  0  0  0  0  0  0  0  0  0  0  0
   27.2509  -20.3356   -9.0510 C   0  0  0  0  0  0  0  0  0  0  0  0
   25.6375  -20.6842  -12.9312 C   0  0  0  0  0  0  0  0  0  0  0  0
   25.3940  -19.5983  -13.5115 O   0  0  0  0  0  0  0  0  0  0  0  0
   19.7387  -24.3932  -13.4007 N   0  0  0  0  0  0  0  0  0  0  0  0
   20.5386  -23.7011  -14.3196 C   0  0  0  0  0  0  0  0  0  0  0  0
   20.7483  -24.1554  -15.4668 O   0  0  0  0  0  0  0  0  0  0  0  0
   21.1893  -22.3850  -13.9934 C   0  0  0  0  0  0  0  0  0  0  0  0
   22.5650  -22.5609  -13.4719 C   0  0  0  0  0  0  0  0  0  0  0  0
   23.2442  -21.2691  -13.1699 C   0  0  2  0  0  0  0  0  0  0  0  0
   24.5431  -21.4916  -12.5422 N   0  0  0  0  0  0  0  0  0  0  0  0
   22.4355  -20.3298  -12.3672 C   0  0  0  0  0  0  0  0  0  0  0  0
   21.7313  -19.3120  -12.9880 O   0  0  0  0  0  0  0  0  0  0  0  0
   22.3674  -20.4280  -11.1317 O   0  0  0  0  0  0  0  0  0  0  0  0
  2  1  1  0
  3  2  1  0
  4  3  2  0
  5  3  1  0
  6  5  1  0
  7  8  1  0
  6  7  1  1
  8 16  1  0
  9 10  1  0
  9  8  2  0
 10 11  1  0
 11 16  2  0
 11 12  1  0
 12 13  2  0
 13 14  1  0
 15 14  2  0
 16 15  1  0
 17  6  1  0
 17 18  2  0
 20 22  1  0
 20 19  1  0
 21 20  2  0
 24 23  1  1
 23 22  1  0
 24 25  1  0
 25 17  1  0
 26 24  1  0
 27 26  1  0
 28 26  2  0
M  END
$$$$
