GWQ.pdb
     RDKit          3D

 28 29  0  0  1  0  0  0  0  0999 V2000
   30.2353  -23.0255  -16.4469 N   0  0  0  0  0  0  0  0  0  0  0  0
   29.0654  -22.6546  -17.2154 C   0  0  0  0  0  0  0  0  0  0  0  0
   28.3886  -21.5479  -16.4778 C   0  0  0  0  0  0  0  0  0  0  0  0
   28.8629  -21.1165  -15.3959 O   0  0  0  0  0  0  0  0  0  0  0  0
   27.2017  -20.9394  -16.9491 N   0  0  0  0  0  0  0  0  0  0  0  0
   26.6217  -19.8545  -16.2181 C   0  0  1  0  0  0  0  0  0  0  0  0
   26.1385  -18.7307  -17.0915 C   0  0  0  0  0  0  0  0  0  0  0  0
   27.2045  -17.7571  -17.4139 C   0  0  0  0  0  0  0  0  0  0  0  0
   28.1351  -17.7405  -18.4046 C   0  0  0  0  0  0  0  0  0  0  0  0
   28.9032  -16.6437  -18.2995 N   0  0  0  0  0  0  0  0  0  0  0  0
   28.4759  -15.9452  -17.2430 C   0  0  0  0  0  0  0  0  0  0  0  0
   28.9147  -14.7639  -16.7098 C   0  0  0  0  0  0  0  0  0  0  0  0
   28.2894  -14.2531  -15.5985 C   0  0  0  0  0  0  0  0  0  0  0  0
   27.2369  -14.8947  -15.0085 C   0  0  0  0  0  0  0  0  0  0  0  0
   26.7979  -16.0829  -15.5476 C   0  0  0  0  0  0  0  0  0  0  0  0
   27.4130  -16.6122  -16.6637 C   0  0  0  0  0  0  0  0  0  0  0  0
   25.4298  -20.3838  -15.4801 C   0  0  0  0  0  0  0  0  0  0  0  0
   24.8145  -21.3886  -15.9126 O   0  0  0  0  0  0  0  0  0  0  0  0
   24.6674  -20.6680   -9.3172 N   0  0  0  0  0  0  0  0  0  0  0  0
   23.5237  -21.2817   -9.8448 C   0  0  0  0  0  0  0  0  0  0  0  0
   22.7207  -21.8975   -9.1083 O   0  0  0  0  0  0  0  0  0  0  0  0
   23.1892  -21.2421  -11.3106 C   0  0  0  0  0  0  0  0  0  0  0  0
   24.2226  -20.5274  -12.0960 C   0  0  0  0  0  0  0  0  0  0  0  0
   23.8875  -20.4249  -13.5447 C   0  0  2  0  0  0  0  0  0  0  0  0
   24.9639  -19.7789  -14.2894 N   0  0  0  0  0  0  0  0  0  0  0  0
   22.5961  -19.7660  -13.8251 C   0  0  0  0  0  0  0  0  0  0  0  0
   21.4234  -20.5022  -13.8183 O   0  0  0  0  0  0  0  0  0  0  0  0
   22.5302  -18.5510  -14.0706 O   0  0  0  0  0  0  0  0  0  0  0  0
  2  1  1  0
  3  2  1  0
  4  3  2  0
  5  3  1  0
  6  5  1  0
  7  8  1  0
  6  7  1  6
  8 16  1  0
  9 10  1  0
  9  8  2  0
 10 11  1  0
 11 16  2  0
 11 12  1  0
 12 13  2  0
 13 14  1  0
 15 14  2  0
 16 15  1  0
 17  6  1  0
 17 18  2  0
 20 22  1  0
 20 19  1  0
 21 20  2  0
 24 23  1  1
 23 22  1  0
 24 25  1  0
 25 17  1  0
 26 24  1  0
 27 26  1  0
 28 26  2  0
M  END
$$$$
