GWQ.pdb
     RDKit          3D

 28 29  0  0  1  0  0  0  0  0999 V2000
   27.8654  -21.7054  -15.0450 N   0  0  0  0  0  0  0  0  0  0  0  0
   27.2693  -20.5896  -14.3403 C   0  0  0  0  0  0  0  0  0  0  0  0
   26.5946  -21.1446  -13.1305 C   0  0  0  0  0  0  0  0  0  0  0  0
   26.3845  -22.3801  -13.0255 O   0  0  0  0  0  0  0  0  0  0  0  0
   26.1653  -20.3248  -12.0607 N   0  0  0  0  0  0  0  0  0  0  0  0
   25.5164  -20.9153  -10.9301 C   0  0  1  0  0  0  0  0  0  0  0  0
   25.8738  -20.2642   -9.6234 C   0  0  0  0  0  0  0  0  0  0  0  0
   27.2475  -20.5871   -9.1796 C   0  0  0  0  0  0  0  0  0  0  0  0
   28.2435  -21.2893   -9.7819 C   0  0  0  0  0  0  0  0  0  0  0  0
   29.3292  -21.3227   -8.9918 N   0  0  0  0  0  0  0  0  0  0  0  0
   29.0437  -20.6441   -7.8762 C   0  0  0  0  0  0  0  0  0  0  0  0
   29.7987  -20.3835   -6.7651 C   0  0  0  0  0  0  0  0  0  0  0  0
   29.2561  -19.6484   -5.7394 C   0  0  0  0  0  0  0  0  0  0  0  0
   27.9780  -19.1683   -5.7982 C   0  0  0  0  0  0  0  0  0  0  0  0
   27.2212  -19.4323   -6.9175 C   0  0  0  0  0  0  0  0  0  0  0  0
   27.7486  -20.1689   -7.9585 C   0  0  0  0  0  0  0  0  0  0  0  0
   24.0380  -20.7541  -11.1137 C   0  0  0  0  0  0  0  0  0  0  0  0
   23.5827  -19.7572  -11.7254 O   0  0  0  0  0  0  0  0  0  0  0  0
   19.5011  -24.1347   -9.5640 N   0  0  0  0  0  0  0  0  0  0  0  0
   18.7819  -23.0008   -9.9643 C   0  0  0  0  0  0  0  0  0  0  0  0
   17.5761  -23.0801  -10.2900 O   0  0  0  0  0  0  0  0  0  0  0  0
   19.4022  -21.6322  -10.0287 C   0  0  0  0  0  0  0  0  0  0  0  0
   20.8524  -21.6660   -9.7268 C   0  0  0  0  0  0  0  0  0  0  0  0
   21.7047  -21.5626  -10.9451 C   0  0  2  0  0  0  0  0  0  0  0  0
   23.1186  -21.7047  -10.6118 N   0  0  0  0  0  0  0  0  0  0  0  0
   21.4810  -20.3396  -11.7418 C   0  0  0  0  0  0  0  0  0  0  0  0
   21.0185  -20.4323  -13.0437 O   0  0  0  0  0  0  0  0  0  0  0  0
   21.6991  -19.2122  -11.2705 O   0  0  0  0  0  0  0  0  0  0  0  0
  2  1  1  0
  3  2  1  0
  4  3  2  0
  5  3  1  0
  6  5  1  0
  7  8  1  0
  6  7  1  1
  8 16  1  0
  9 10  1  0
  9  8  2  0
 10 11  1  0
 11 16  2  0
 11 12  1  0
 12 13  2  0
 13 14  1  0
 15 14  2  0
 16 15  1  0
 17  6  1  0
 17 18  2  0
 20 22  1  0
 20 19  1  0
 21 20  2  0
 24 23  1  1
 23 22  1  0
 24 25  1  0
 25 17  1  0
 26 24  1  0
 27 26  1  0
 28 26  2  0
M  END
$$$$
