GWQ.pdb
     RDKit          3D

 28 29  0  0  1  0  0  0  0  0999 V2000
   28.8901  -21.5137  -13.8522 N   0  0  0  0  0  0  0  0  0  0  0  0
   28.6084  -20.3905  -12.9828 C   0  0  0  0  0  0  0  0  0  0  0  0
   27.6196  -20.8584  -11.9678 C   0  0  0  0  0  0  0  0  0  0  0  0
   26.8583  -21.8281  -12.2161 O   0  0  0  0  0  0  0  0  0  0  0  0
   27.4910  -20.2467  -10.6988 N   0  0  0  0  0  0  0  0  0  0  0  0
   26.3983  -20.6035   -9.8464 C   0  0  1  0  0  0  0  0  0  0  0  0
   26.5585  -20.1250   -8.4306 C   0  0  0  0  0  0  0  0  0  0  0  0
   27.8915  -20.4348   -7.8689 C   0  0  0  0  0  0  0  0  0  0  0  0
   28.9373  -21.1399   -8.3759 C   0  0  0  0  0  0  0  0  0  0  0  0
   29.9531  -21.1570   -7.4973 N   0  0  0  0  0  0  0  0  0  0  0  0
   29.5724  -20.4650   -6.4190 C   0  0  0  0  0  0  0  0  0  0  0  0
   30.2305  -20.1856   -5.2523 C   0  0  0  0  0  0  0  0  0  0  0  0
   29.6010  -19.4396   -4.2858 C   0  0  0  0  0  0  0  0  0  0  0  0
   28.3303  -18.9670   -4.4582 C   0  0  0  0  0  0  0  0  0  0  0  0
   27.6711  -19.2499   -5.6331 C   0  0  0  0  0  0  0  0  0  0  0  0
   28.2868  -19.9976   -6.6160 C   0  0  0  0  0  0  0  0  0  0  0  0
   25.1608  -19.9589  -10.3928 C   0  0  0  0  0  0  0  0  0  0  0  0
   25.2412  -18.8896  -11.0449 O   0  0  0  0  0  0  0  0  0  0  0  0
   24.4023  -22.4333  -14.8507 N   0  0  0  0  0  0  0  0  0  0  0  0
   23.1077  -21.8974  -14.8436 C   0  0  0  0  0  0  0  0  0  0  0  0
   22.3770  -21.9556  -15.8581 O   0  0  0  0  0  0  0  0  0  0  0  0
   22.5181  -21.2260  -13.6339 C   0  0  0  0  0  0  0  0  0  0  0  0
   23.4692  -21.1953  -12.4981 C   0  0  0  0  0  0  0  0  0  0  0  0
   22.9219  -20.5029  -11.2971 C   0  0  2  0  0  0  0  0  0  0  0  0
   23.8792  -20.5241  -10.1955 N   0  0  0  0  0  0  0  0  0  0  0  0
   21.6077  -21.0069  -10.8507 C   0  0  0  0  0  0  0  0  0  0  0  0
   20.4704  -20.7376  -11.5932 O   0  0  0  0  0  0  0  0  0  0  0  0
   21.4909  -21.6764   -9.8119 O   0  0  0  0  0  0  0  0  0  0  0  0
  2  1  1  0
  3  2  1  0
  4  3  2  0
  5  3  1  0
  6  5  1  0
  7  8  1  0
  6  7  1  1
  8 16  1  0
  9 10  1  0
  9  8  2  0
 10 11  1  0
 11 16  2  0
 11 12  1  0
 12 13  2  0
 13 14  1  0
 15 14  2  0
 16 15  1  0
 17  6  1  0
 17 18  2  0
 20 22  1  0
 20 19  1  0
 21 20  2  0
 24 23  1  6
 23 22  1  0
 24 25  1  0
 25 17  1  0
 26 24  1  0
 27 26  1  0
 28 26  2  0
M  END
$$$$
