GWQ.pdb
     RDKit          3D

 28 29  0  0  1  0  0  0  0  0999 V2000
   28.5971  -21.4656  -15.1000 N   0  0  0  0  0  0  0  0  0  0  0  0
   27.9766  -20.3719  -14.3819 C   0  0  0  0  0  0  0  0  0  0  0  0
   27.0101  -20.9730  -13.4168 C   0  0  0  0  0  0  0  0  0  0  0  0
   26.4796  -22.0883  -13.6538 O   0  0  0  0  0  0  0  0  0  0  0  0
   26.6483  -20.3309  -12.2093 N   0  0  0  0  0  0  0  0  0  0  0  0
   25.7242  -20.9634  -11.3184 C   0  0  1  0  0  0  0  0  0  0  0  0
   25.9073  -20.5665   -9.8803 C   0  0  0  0  0  0  0  0  0  0  0  0
   27.2648  -20.8630   -9.3729 C   0  0  0  0  0  0  0  0  0  0  0  0
   28.2697  -21.6202   -9.8874 C   0  0  0  0  0  0  0  0  0  0  0  0
   29.3328  -21.5975   -9.0668 N   0  0  0  0  0  0  0  0  0  0  0  0
   29.0237  -20.8275   -8.0189 C   0  0  0  0  0  0  0  0  0  0  0  0
   29.7504  -20.4828   -6.9119 C   0  0  0  0  0  0  0  0  0  0  0  0
   29.1874  -19.6618   -5.9653 C   0  0  0  0  0  0  0  0  0  0  0  0
   27.9164  -19.1779   -6.0994 C   0  0  0  0  0  0  0  0  0  0  0  0
   27.1881  -19.5266   -7.2144 C   0  0  0  0  0  0  0  0  0  0  0  0
   27.7363  -20.3502   -8.1763 C   0  0  0  0  0  0  0  0  0  0  0  0
   24.3419  -20.5458  -11.7190 C   0  0  0  0  0  0  0  0  0  0  0  0
   24.0866  -19.3370  -11.9399 O   0  0  0  0  0  0  0  0  0  0  0  0
   19.8921  -24.4106  -14.1638 N   0  0  0  0  0  0  0  0  0  0  0  0
   19.4124  -23.7740  -13.0116 C   0  0  0  0  0  0  0  0  0  0  0  0
   18.3608  -24.1560  -12.4506 O   0  0  0  0  0  0  0  0  0  0  0  0
   20.1188  -22.6055  -12.3810 C   0  0  0  0  0  0  0  0  0  0  0  0
   21.3519  -22.2402  -13.1169 C   0  0  0  0  0  0  0  0  0  0  0  0
   22.0609  -21.0712  -12.5236 C   0  0  2  0  0  0  0  0  0  0  0  0
   23.2933  -21.4846  -11.8596 N   0  0  0  0  0  0  0  0  0  0  0  0
   21.2320  -20.2544  -11.6146 C   0  0  0  0  0  0  0  0  0  0  0  0
   21.4930  -20.2450  -10.2548 O   0  0  0  0  0  0  0  0  0  0  0  0
   20.2924  -19.5644  -12.0412 O   0  0  0  0  0  0  0  0  0  0  0  0
  2  1  1  0
  3  2  1  0
  4  3  2  0
  5  3  1  0
  6  5  1  0
  7  8  1  0
  6  7  1  1
  8 16  1  0
  9 10  1  0
  9  8  2  0
 10 11  1  0
 11 16  2  0
 11 12  1  0
 12 13  2  0
 13 14  1  0
 15 14  2  0
 16 15  1  0
 17  6  1  0
 17 18  2  0
 20 22  1  0
 20 19  1  0
 21 20  2  0
 24 23  1  1
 23 22  1  0
 24 25  1  0
 25 17  1  0
 26 24  1  0
 27 26  1  0
 28 26  2  0
M  END
$$$$
