GWQ.pdb
     RDKit          3D

 28 29  0  0  1  0  0  0  0  0999 V2000
   27.8850  -17.9586  -15.2552 N   0  0  0  0  0  0  0  0  0  0  0  0
   27.3989  -17.8187  -13.8984 C   0  0  0  0  0  0  0  0  0  0  0  0
   26.6663  -19.0748  -13.5630 C   0  0  0  0  0  0  0  0  0  0  0  0
   26.4987  -19.9688  -14.4315 O   0  0  0  0  0  0  0  0  0  0  0  0
   26.1333  -19.3191  -12.2757 N   0  0  0  0  0  0  0  0  0  0  0  0
   25.4302  -20.5386  -12.0183 C   0  0  1  0  0  0  0  0  0  0  0  0
   25.6353  -21.0692  -10.6271 C   0  0  0  0  0  0  0  0  0  0  0  0
   27.0589  -21.0881  -10.2256 C   0  0  0  0  0  0  0  0  0  0  0  0
   28.1719  -21.5061  -10.8846 C   0  0  0  0  0  0  0  0  0  0  0  0
   29.2588  -21.3294  -10.1156 N   0  0  0  0  0  0  0  0  0  0  0  0
   28.8575  -20.7972   -8.9570 C   0  0  0  0  0  0  0  0  0  0  0  0
   29.5644  -20.4291   -7.8447 C   0  0  0  0  0  0  0  0  0  0  0  0
   28.8973  -19.8969   -6.7683 C   0  0  0  0  0  0  0  0  0  0  0  0
   27.5417  -19.7242   -6.7778 C   0  0  0  0  0  0  0  0  0  0  0  0
   26.8336  -20.0954   -7.8985 C   0  0  0  0  0  0  0  0  0  0  0  0
   27.4858  -20.6319   -8.9899 C   0  0  0  0  0  0  0  0  0  0  0  0
   23.9652  -20.2655  -12.1750 C   0  0  0  0  0  0  0  0  0  0  0  0
   23.5212  -19.1004  -12.0308 O   0  0  0  0  0  0  0  0  0  0  0  0
   21.4430  -21.1758  -16.8905 N   0  0  0  0  0  0  0  0  0  0  0  0
   20.5150  -20.2870  -16.3320 C   0  0  0  0  0  0  0  0  0  0  0  0
   19.5052  -19.9175  -16.9726 O   0  0  0  0  0  0  0  0  0  0  0  0
   20.6680  -19.7255  -14.9452 C   0  0  0  0  0  0  0  0  0  0  0  0
   21.9480  -20.1332  -14.3201 C   0  0  0  0  0  0  0  0  0  0  0  0
   21.7615  -20.9378  -13.0794 C   0  0  2  0  0  0  0  0  0  0  0  0
   23.0462  -21.2949  -12.4856 N   0  0  0  0  0  0  0  0  0  0  0  0
   20.9202  -22.1387  -13.2541 C   0  0  0  0  0  0  0  0  0  0  0  0
   19.5609  -22.0793  -12.9970 O   0  0  0  0  0  0  0  0  0  0  0  0
   21.4042  -23.2178  -13.6312 O   0  0  0  0  0  0  0  0  0  0  0  0
  2  1  1  0
  3  2  1  0
  4  3  2  0
  5  3  1  0
  6  5  1  0
  7  8  1  0
  6  7  1  1
  8 16  1  0
  9 10  1  0
  9  8  2  0
 10 11  1  0
 11 16  2  0
 11 12  1  0
 12 13  2  0
 13 14  1  0
 15 14  2  0
 16 15  1  0
 17  6  1  0
 17 18  2  0
 20 22  1  0
 20 19  1  0
 21 20  2  0
 24 23  1  6
 23 22  1  0
 24 25  1  0
 25 17  1  0
 26 24  1  0
 27 26  1  0
 28 26  2  0
M  END
$$$$
