NID.pdb
     RDKit          3D

 25 24  0  0  1  0  0  0  0  0999 V2000
   11.2314  -18.8736   14.6220 N   0  0  0  0  0  0  0  0  0  0  0  0
   10.1159  -18.4043   15.3845 C   0  0  0  0  0  0  0  0  0  0  0  0
    9.0252  -19.0351   15.2395 O   0  0  0  0  0  0  0  0  0  0  0  0
   10.2306  -17.2503   16.2891 C   0  0  0  0  0  0  0  0  0  0  0  0
   10.0716  -17.7336   17.7178 C   0  0  2  0  0  0  0  0  0  0  0  0
    8.7878  -18.3361   17.9129 N   0  0  0  0  0  0  0  0  0  0  0  0
   10.3195  -16.6132   18.6911 C   0  0  0  0  0  0  0  0  0  0  0  0
   11.4282  -16.0330   18.7268 O   0  0  0  0  0  0  0  0  0  0  0  0
    6.3799  -13.0788   19.9176 C   0  0  0  0  0  0  0  0  0  0  0  0
    7.7713  -13.6596   19.7829 C   0  0  0  0  0  0  0  0  0  0  0  0
    8.1075  -14.5813   20.9520 C   0  0  2  0  0  0  0  0  0  0  0  0
    8.3110  -13.6488   22.1580 C   0  0  0  0  0  0  0  0  0  0  0  0
    9.4302  -15.2634   20.6815 C   0  0  2  0  0  0  0  0  0  0  0  0
    9.3109  -16.2058   19.5703 N   0  0  0  0  0  0  0  0  0  0  0  0
    9.9381  -15.9480   21.8725 C   0  0  0  0  0  0  0  0  0  0  0  0
    9.4557  -17.1254   22.1557 O   0  0  0  0  0  0  0  0  0  0  0  0
   10.9115  -15.5252   22.8032 N   0  0  0  0  0  0  0  0  0  0  0  0
   11.4777  -16.4068   23.8121 C   0  0  1  0  0  0  0  0  0  0  0  0
   10.5087  -17.4286   24.3482 C   0  0  0  0  0  0  0  0  0  0  0  0
   10.7598  -17.8633   25.7112 C   0  0  0  0  0  0  0  0  0  0  0  0
   11.4394  -17.1521   26.4851 O   0  0  0  0  0  0  0  0  0  0  0  0
   12.7101  -17.0307   23.3005 C   0  0  0  0  0  0  0  0  0  0  0  0
   13.8162  -16.5420   23.6427 O   0  0  0  0  0  0  0  0  0  0  0  0
   10.2616  -19.0555   26.1816 O   0  0  0  0  0  0  0  0  0  0  0  0
   12.7734  -18.1259   22.4617 O   0  0  0  0  0  0  0  0  0  0  0  0
  2  1  1  0
  2  3  2  0
  4  2  1  0
  5  4  1  0
  5  6  1  6
  7  8  2  0
  7  5  1  0
 10  9  1  0
 10 11  1  0
 11 13  1  0
 11 12  1  1
 13 14  1  6
 14  7  1  0
 15 16  2  0
 15 13  1  0
 17 15  1  0
 18 17  1  0
 18 19  1  6
 20 19  1  0
 20 21  2  0
 22 18  1  0
 23 22  2  0
 24 20  1  0
 25 22  1  0
M  END
$$$$
