NID.pdb
     RDKit          3D

 25 24  0  0  1  0  0  0  0  0999 V2000
    8.0490  -17.0277   19.2323 N   0  0  0  0  0  0  0  0  0  0  0  0
    8.0612  -15.5978   19.2675 C   0  0  0  0  0  0  0  0  0  0  0  0
    8.1142  -15.0042   18.1480 O   0  0  0  0  0  0  0  0  0  0  0  0
    8.0142  -14.8570   20.5372 C   0  0  0  0  0  0  0  0  0  0  0  0
    8.0092  -15.8521   21.6817 C   0  0  2  0  0  0  0  0  0  0  0  0
    6.6731  -16.2519   22.0045 N   0  0  0  0  0  0  0  0  0  0  0  0
    8.7325  -15.2942   22.8774 C   0  0  0  0  0  0  0  0  0  0  0  0
    9.9512  -15.0152   22.8127 O   0  0  0  0  0  0  0  0  0  0  0  0
    5.9600  -12.0016   26.0670 C   0  0  0  0  0  0  0  0  0  0  0  0
    7.1423  -12.6731   25.4017 C   0  0  0  0  0  0  0  0  0  0  0  0
    7.5949  -13.9059   26.1792 C   0  0  2  0  0  0  0  0  0  0  0  0
    8.3176  -13.3589   27.4217 C   0  0  0  0  0  0  0  0  0  0  0  0
    8.6171  -14.6617   25.3596 C   0  0  2  0  0  0  0  0  0  0  0  0
    8.0495  -15.0803   24.0790 N   0  0  0  0  0  0  0  0  0  0  0  0
    9.1391  -15.8223   26.0846 C   0  0  0  0  0  0  0  0  0  0  0  0
    8.3025  -16.7651   26.4168 O   0  0  0  0  0  0  0  0  0  0  0  0
   10.4597  -16.1024   26.4968 N   0  0  0  0  0  0  0  0  0  0  0  0
   10.8428  -17.3552   27.1288 C   0  0  1  0  0  0  0  0  0  0  0  0
   12.1982  -17.8643   26.7113 C   0  0  0  0  0  0  0  0  0  0  0  0
   12.5279  -17.6673   25.3104 C   0  0  0  0  0  0  0  0  0  0  0  0
   11.7053  -17.9765   24.4192 O   0  0  0  0  0  0  0  0  0  0  0  0
   10.7250  -17.2370   28.5923 C   0  0  0  0  0  0  0  0  0  0  0  0
   10.5956  -16.0915   29.0928 O   0  0  0  0  0  0  0  0  0  0  0  0
   13.7403  -17.1407   24.9316 O   0  0  0  0  0  0  0  0  0  0  0  0
   10.7431  -18.2848   29.4919 O   0  0  0  0  0  0  0  0  0  0  0  0
  2  1  1  0
  2  3  2  0
  4  2  1  0
  5  4  1  0
  5  6  1  1
  7  8  2  0
  7  5  1  0
 10  9  1  0
 10 11  1  0
 11 13  1  0
 11 12  1  1
 13 14  1  6
 14  7  1  0
 15 16  2  0
 15 13  1  0
 17 15  1  0
 18 17  1  0
 18 19  1  1
 20 19  1  0
 20 21  2  0
 22 18  1  0
 23 22  2  0
 24 20  1  0
 25 22  1  0
M  END
$$$$
