NID.pdb
     RDKit          3D

 25 24  0  0  1  0  0  0  0  0999 V2000
    8.0941  -21.5991   17.1540 N   0  0  0  0  0  0  0  0  0  0  0  0
    8.2508  -20.2115   16.8443 C   0  0  0  0  0  0  0  0  0  0  0  0
    7.6487  -19.7905   15.8106 O   0  0  0  0  0  0  0  0  0  0  0  0
    9.0679  -19.3215   17.6829 C   0  0  0  0  0  0  0  0  0  0  0  0
    8.8318  -17.8884   17.2463 C   0  0  2  0  0  0  0  0  0  0  0  0
    9.2777  -17.6845   15.9014 N   0  0  0  0  0  0  0  0  0  0  0  0
    9.4786  -16.9250   18.2042 C   0  0  0  0  0  0  0  0  0  0  0  0
   10.6904  -16.6314   18.0925 O   0  0  0  0  0  0  0  0  0  0  0  0
    6.3598  -12.8745   20.3789 C   0  0  0  0  0  0  0  0  0  0  0  0
    7.5746  -13.6184   19.8667 C   0  0  0  0  0  0  0  0  0  0  0  0
    8.0609  -14.6554   20.8754 C   0  0  2  0  0  0  0  0  0  0  0  0
    8.6260  -13.8424   22.0522 C   0  0  0  0  0  0  0  0  0  0  0  0
    9.2095  -15.4334   20.2724 C   0  0  2  0  0  0  0  0  0  0  0  0
    8.7311  -16.3447   19.2341 N   0  0  0  0  0  0  0  0  0  0  0  0
    9.9534  -16.1755   21.2926 C   0  0  0  0  0  0  0  0  0  0  0  0
    9.4302  -17.2768   21.7536 O   0  0  0  0  0  0  0  0  0  0  0  0
   11.2024  -15.8832   21.8817 N   0  0  0  0  0  0  0  0  0  0  0  0
   11.8783  -16.7907   22.7956 C   0  0  1  0  0  0  0  0  0  0  0  0
   13.3808  -16.7679   22.6843 C   0  0  0  0  0  0  0  0  0  0  0  0
   14.0850  -17.5927   23.6505 C   0  0  0  0  0  0  0  0  0  0  0  0
   13.9554  -18.8375   23.6308 O   0  0  0  0  0  0  0  0  0  0  0  0
   11.4239  -16.5461   24.1753 C   0  0  0  0  0  0  0  0  0  0  0  0
   10.9569  -15.4148   24.4610 O   0  0  0  0  0  0  0  0  0  0  0  0
   14.9046  -17.0324   24.6018 O   0  0  0  0  0  0  0  0  0  0  0  0
   11.4606  -17.4578   25.2120 O   0  0  0  0  0  0  0  0  0  0  0  0
  2  1  1  0
  2  3  2  0
  4  2  1  0
  5  4  1  0
  5  6  1  6
  7  8  2  0
  7  5  1  0
 10  9  1  0
 10 11  1  0
 11 13  1  0
 11 12  1  1
 13 14  1  6
 14  7  1  0
 15 16  2  0
 15 13  1  0
 17 15  1  0
 18 17  1  0
 18 19  1  1
 20 19  1  0
 20 21  2  0
 22 18  1  0
 23 22  2  0
 24 20  1  0
 25 22  1  0
M  END
$$$$
