NID.pdb
     RDKit          3D

 25 24  0  0  1  0  0  0  0  0999 V2000
    7.4525  -17.1931   19.1525 N   0  0  0  0  0  0  0  0  0  0  0  0
    7.9025  -15.8374   19.0771 C   0  0  0  0  0  0  0  0  0  0  0  0
    8.0841  -15.3649   17.9142 O   0  0  0  0  0  0  0  0  0  0  0  0
    8.1412  -15.0355   20.2866 C   0  0  0  0  0  0  0  0  0  0  0  0
    7.9027  -15.9077   21.5042 C   0  0  2  0  0  0  0  0  0  0  0  0
    6.5016  -16.0795   21.7423 N   0  0  0  0  0  0  0  0  0  0  0  0
    8.6122  -15.3496   22.7080 C   0  0  0  0  0  0  0  0  0  0  0  0
    9.8160  -15.0125   22.6394 O   0  0  0  0  0  0  0  0  0  0  0  0
    5.9047  -12.0114   25.9032 C   0  0  0  0  0  0  0  0  0  0  0  0
    7.0933  -12.7002   25.2675 C   0  0  0  0  0  0  0  0  0  0  0  0
    7.4440  -13.9947   25.9959 C   0  0  2  0  0  0  0  0  0  0  0  0
    8.1070  -13.5530   27.3114 C   0  0  0  0  0  0  0  0  0  0  0  0
    8.4852  -14.7471   25.1970 C   0  0  2  0  0  0  0  0  0  0  0  0
    7.9332  -15.2008   23.9216 N   0  0  0  0  0  0  0  0  0  0  0  0
    9.0241  -15.8835   25.9474 C   0  0  0  0  0  0  0  0  0  0  0  0
    8.2013  -16.8306   26.3012 O   0  0  0  0  0  0  0  0  0  0  0  0
   10.3488  -16.1351   26.3650 N   0  0  0  0  0  0  0  0  0  0  0  0
   10.7709  -17.4041   26.9371 C   0  0  1  0  0  0  0  0  0  0  0  0
   12.0048  -17.9859   26.2972 C   0  0  0  0  0  0  0  0  0  0  0  0
   12.4806  -19.2256   26.8861 C   0  0  0  0  0  0  0  0  0  0  0  0
   11.8066  -19.8047   27.7676 O   0  0  0  0  0  0  0  0  0  0  0  0
   10.9160  -17.2742   28.3972 C   0  0  0  0  0  0  0  0  0  0  0  0
   11.2283  -16.1529   28.8713 O   0  0  0  0  0  0  0  0  0  0  0  0
   13.6717  -19.7893   26.4933 O   0  0  0  0  0  0  0  0  0  0  0  0
   10.7389  -18.2861   29.3202 O   0  0  0  0  0  0  0  0  0  0  0  0
  2  1  1  0
  2  3  2  0
  4  2  1  0
  5  4  1  0
  5  6  1  1
  7  8  2  0
  7  5  1  0
 10  9  1  0
 10 11  1  0
 11 13  1  0
 11 12  1  1
 13 14  1  6
 14  7  1  0
 15 16  2  0
 15 13  1  0
 17 15  1  0
 18 17  1  0
 18 19  1  6
 20 19  1  0
 20 21  2  0
 22 18  1  0
 23 22  2  0
 24 20  1  0
 25 22  1  0
M  END
$$$$
