NID.pdb
     RDKit          3D

 25 24  0  0  1  0  0  0  0  0999 V2000
   10.4893  -17.8280   13.7067 N   0  0  0  0  0  0  0  0  0  0  0  0
    9.7601  -17.9356   14.9325 C   0  0  0  0  0  0  0  0  0  0  0  0
    8.9444  -18.9025   15.0232 O   0  0  0  0  0  0  0  0  0  0  0  0
    9.9486  -16.9738   16.0291 C   0  0  0  0  0  0  0  0  0  0  0  0
    9.7357  -17.6913   17.3483 C   0  0  2  0  0  0  0  0  0  0  0  0
    8.4110  -18.2276   17.4295 N   0  0  0  0  0  0  0  0  0  0  0  0
   10.0452  -16.7821   18.5065 C   0  0  0  0  0  0  0  0  0  0  0  0
   11.2300  -16.5041   18.8003 O   0  0  0  0  0  0  0  0  0  0  0  0
    6.6949  -12.5403   19.5478 C   0  0  0  0  0  0  0  0  0  0  0  0
    7.9800  -13.3399   19.5736 C   0  0  0  0  0  0  0  0  0  0  0  0
    7.9053  -14.4848   20.5800 C   0  0  2  0  0  0  0  0  0  0  0  0
    7.9821  -13.8153   21.9624 C   0  0  0  0  0  0  0  0  0  0  0  0
    9.1332  -15.3559   20.4323 C   0  0  2  0  0  0  0  0  0  0  0  0
    9.0095  -16.2354   19.2711 N   0  0  0  0  0  0  0  0  0  0  0  0
    9.3831  -16.1456   21.6402 C   0  0  0  0  0  0  0  0  0  0  0  0
    8.7836  -17.2974   21.7549 O   0  0  0  0  0  0  0  0  0  0  0  0
   10.2076  -15.8534   22.7480 N   0  0  0  0  0  0  0  0  0  0  0  0
   11.0121  -16.8595   23.4233 C   0  0  1  0  0  0  0  0  0  0  0  0
   12.3961  -17.0248   22.8508 C   0  0  0  0  0  0  0  0  0  0  0  0
   13.2588  -17.9428   23.5739 C   0  0  0  0  0  0  0  0  0  0  0  0
   12.7668  -18.9009   24.2116 O   0  0  0  0  0  0  0  0  0  0  0  0
   11.0429  -16.5903   24.8712 C   0  0  0  0  0  0  0  0  0  0  0  0
   11.6332  -17.4084   25.6207 O   0  0  0  0  0  0  0  0  0  0  0  0
   14.6247  -17.7847   23.5755 O   0  0  0  0  0  0  0  0  0  0  0  0
   10.4740  -15.5022   25.5032 O   0  0  0  0  0  0  0  0  0  0  0  0
  2  1  1  0
  2  3  2  0
  4  2  1  0
  5  4  1  0
  5  6  1  1
  7  8  2  0
  7  5  1  0
 10  9  1  0
 10 11  1  0
 11 13  1  0
 11 12  1  1
 13 14  1  6
 14  7  1  0
 15 16  2  0
 15 13  1  0
 17 15  1  0
 18 17  1  0
 18 19  1  6
 20 19  1  0
 20 21  2  0
 22 18  1  0
 23 22  2  0
 24 20  1  0
 25 22  1  0
M  END
$$$$
