NID.pdb
     RDKit          3D

 25 24  0  0  1  0  0  0  0  0999 V2000
    8.2150  -12.8188   17.9667 N   0  0  0  0  0  0  0  0  0  0  0  0
    7.9115  -13.7015   19.0506 C   0  0  0  0  0  0  0  0  0  0  0  0
    7.3126  -14.7790   18.7527 O   0  0  0  0  0  0  0  0  0  0  0  0
    8.2763  -13.3741   20.4373 C   0  0  0  0  0  0  0  0  0  0  0  0
    8.2712  -14.6504   21.2565 C   0  0  2  0  0  0  0  0  0  0  0  0
    6.9580  -15.2177   21.3093 N   0  0  0  0  0  0  0  0  0  0  0  0
    8.8321  -14.4048   22.6310 C   0  0  0  0  0  0  0  0  0  0  0  0
   10.0314  -14.0785   22.7815 O   0  0  0  0  0  0  0  0  0  0  0  0
    5.5612  -11.9066   25.9534 C   0  0  0  0  0  0  0  0  0  0  0  0
    6.8092  -12.4572   25.2970 C   0  0  0  0  0  0  0  0  0  0  0  0
    7.2574  -13.7600   25.9537 C   0  0  2  0  0  0  0  0  0  0  0  0
    7.8172  -13.3505   27.3264 C   0  0  0  0  0  0  0  0  0  0  0  0
    8.4012  -14.3488   25.1579 C   0  0  2  0  0  0  0  0  0  0  0  0
    8.0177  -14.5389   23.7601 N   0  0  0  0  0  0  0  0  0  0  0  0
    8.8629  -15.6145   25.7321 C   0  0  0  0  0  0  0  0  0  0  0  0
    9.1685  -15.6381   26.9990 O   0  0  0  0  0  0  0  0  0  0  0  0
    9.0343  -16.8709   25.1118 N   0  0  0  0  0  0  0  0  0  0  0  0
    9.4462  -18.0623   25.8375 C   0  0  1  0  0  0  0  0  0  0  0  0
    8.8021  -19.3332   25.3471 C   0  0  0  0  0  0  0  0  0  0  0  0
    7.3496  -19.3256   25.3355 C   0  0  0  0  0  0  0  0  0  0  0  0
    6.7127  -18.9337   26.3392 O   0  0  0  0  0  0  0  0  0  0  0  0
   10.9160  -18.1592   25.8523 C   0  0  0  0  0  0  0  0  0  0  0  0
   11.5599  -17.6524   24.8995 O   0  0  0  0  0  0  0  0  0  0  0  0
    6.6442  -19.7439   24.2318 O   0  0  0  0  0  0  0  0  0  0  0  0
   11.6760  -18.7663   26.8326 O   0  0  0  0  0  0  0  0  0  0  0  0
  2  1  1  0
  2  3  2  0
  4  2  1  0
  5  4  1  0
  5  6  1  1
  7  8  2  0
  7  5  1  0
 10  9  1  0
 10 11  1  0
 11 13  1  0
 11 12  1  1
 13 14  1  6
 14  7  1  0
 15 16  2  0
 15 13  1  0
 17 15  1  0
 18 17  1  0
 18 19  1  6
 20 19  1  0
 20 21  2  0
 22 18  1  0
 23 22  2  0
 24 20  1  0
 25 22  1  0
M  END
$$$$
