NID.pdb
     RDKit          3D

 25 24  0  0  1  0  0  0  0  0999 V2000
    7.5930  -15.3278   18.2954 N   0  0  0  0  0  0  0  0  0  0  0  0
    7.9087  -13.9850   18.6742 C   0  0  0  0  0  0  0  0  0  0  0  0
    7.9205  -13.1224   17.7447 O   0  0  0  0  0  0  0  0  0  0  0  0
    8.2035  -13.6264   20.0698 C   0  0  0  0  0  0  0  0  0  0  0  0
    7.9779  -14.8450   20.9440 C   0  0  2  0  0  0  0  0  0  0  0  0
    6.5796  -15.1045   21.1068 N   0  0  0  0  0  0  0  0  0  0  0  0
    8.6777  -14.6900   22.2669 C   0  0  0  0  0  0  0  0  0  0  0  0
    9.9233  -14.5765   22.3201 O   0  0  0  0  0  0  0  0  0  0  0  0
    5.8411  -11.9541   25.9029 C   0  0  0  0  0  0  0  0  0  0  0  0
    7.0840  -12.4988   25.2323 C   0  0  0  0  0  0  0  0  0  0  0  0
    7.4111  -13.9070   25.7216 C   0  0  2  0  0  0  0  0  0  0  0  0
    8.0567  -13.7160   27.1044 C   0  0  0  0  0  0  0  0  0  0  0  0
    8.4581  -14.5163   24.8157 C   0  0  2  0  0  0  0  0  0  0  0  0
    7.9424  -14.6711   23.4565 N   0  0  0  0  0  0  0  0  0  0  0  0
    8.9305  -15.8049   25.3269 C   0  0  0  0  0  0  0  0  0  0  0  0
    8.0720  -16.7818   25.4148 O   0  0  0  0  0  0  0  0  0  0  0  0
   10.2220  -16.1809   25.7547 N   0  0  0  0  0  0  0  0  0  0  0  0
   10.5771  -17.5510   26.0901 C   0  0  1  0  0  0  0  0  0  0  0  0
   11.8495  -18.0317   25.4417 C   0  0  0  0  0  0  0  0  0  0  0  0
   12.2992  -19.3473   25.8626 C   0  0  0  0  0  0  0  0  0  0  0  0
   11.8701  -20.3739   25.2894 O   0  0  0  0  0  0  0  0  0  0  0  0
   10.6062  -17.7193   27.5532 C   0  0  0  0  0  0  0  0  0  0  0  0
   10.5732  -18.8843   28.0234 O   0  0  0  0  0  0  0  0  0  0  0  0
   13.1994  -19.4966   26.8912 O   0  0  0  0  0  0  0  0  0  0  0  0
   10.6674  -16.7000   28.4830 O   0  0  0  0  0  0  0  0  0  0  0  0
  2  1  1  0
  2  3  2  0
  4  2  1  0
  5  4  1  0
  5  6  1  1
  7  8  2  0
  7  5  1  0
 10  9  1  0
 10 11  1  0
 11 13  1  0
 11 12  1  1
 13 14  1  6
 14  7  1  0
 15 16  2  0
 15 13  1  0
 17 15  1  0
 18 17  1  0
 18 19  1  1
 20 19  1  0
 20 21  2  0
 22 18  1  0
 23 22  2  0
 24 20  1  0
 25 22  1  0
M  END
$$$$
