NID.pdb
     RDKit          3D

 25 24  0  0  1  0  0  0  0  0999 V2000
    7.6649  -16.9687   19.2122 N   0  0  0  0  0  0  0  0  0  0  0  0
    7.9005  -15.5579   19.2141 C   0  0  0  0  0  0  0  0  0  0  0  0
    7.9162  -14.9849   18.0829 O   0  0  0  0  0  0  0  0  0  0  0  0
    8.1129  -14.8130   20.4644 C   0  0  0  0  0  0  0  0  0  0  0  0
    7.9672  -15.7699   21.6321 C   0  0  2  0  0  0  0  0  0  0  0  0
    6.5874  -16.0357   21.9050 N   0  0  0  0  0  0  0  0  0  0  0  0
    8.6884  -15.2463   22.8445 C   0  0  0  0  0  0  0  0  0  0  0  0
    9.9364  -15.1474   22.8510 O   0  0  0  0  0  0  0  0  0  0  0  0
    5.6590  -11.8636   25.8291 C   0  0  0  0  0  0  0  0  0  0  0  0
    6.8783  -12.4849   25.1820 C   0  0  0  0  0  0  0  0  0  0  0  0
    7.4391  -13.6254   26.0271 C   0  0  2  0  0  0  0  0  0  0  0  0
    8.1293  -12.9441   27.2207 C   0  0  0  0  0  0  0  0  0  0  0  0
    8.5099  -14.3468   25.2389 C   0  0  2  0  0  0  0  0  0  0  0  0
    7.9706  -14.8631   23.9820 N   0  0  0  0  0  0  0  0  0  0  0  0
    9.1116  -15.4333   26.0150 C   0  0  0  0  0  0  0  0  0  0  0  0
    8.3581  -16.4467   26.3381 O   0  0  0  0  0  0  0  0  0  0  0  0
   10.4345  -15.5718   26.4875 N   0  0  0  0  0  0  0  0  0  0  0  0
   10.9010  -16.7506   27.2007 C   0  0  1  0  0  0  0  0  0  0  0  0
   12.2588  -17.2356   26.7631 C   0  0  0  0  0  0  0  0  0  0  0  0
   12.7639  -18.3918   27.4830 C   0  0  0  0  0  0  0  0  0  0  0  0
   13.1756  -18.2722   28.6589 O   0  0  0  0  0  0  0  0  0  0  0  0
   10.8412  -16.5158   28.6537 C   0  0  0  0  0  0  0  0  0  0  0  0
   10.9009  -17.5070   29.4241 O   0  0  0  0  0  0  0  0  0  0  0  0
   12.8014  -19.6350   26.8967 O   0  0  0  0  0  0  0  0  0  0  0  0
   10.7231  -15.2853   29.2694 O   0  0  0  0  0  0  0  0  0  0  0  0
  2  1  1  0
  2  3  2  0
  4  2  1  0
  5  4  1  0
  5  6  1  1
  7  8  2  0
  7  5  1  0
 10  9  1  0
 10 11  1  0
 11 13  1  0
 11 12  1  1
 13 14  1  6
 14  7  1  0
 15 16  2  0
 15 13  1  0
 17 15  1  0
 18 17  1  0
 18 19  1  6
 20 19  1  0
 20 21  2  0
 22 18  1  0
 23 22  2  0
 24 20  1  0
 25 22  1  0
M  END
$$$$
