NID.pdb
     RDKit          3D

 25 24  0  0  1  0  0  0  0  0999 V2000
    9.1914  -16.8759   13.8317 N   0  0  0  0  0  0  0  0  0  0  0  0
    9.8375  -17.6568   14.8411 C   0  0  0  0  0  0  0  0  0  0  0  0
    9.8149  -18.9151   14.6845 O   0  0  0  0  0  0  0  0  0  0  0  0
   10.4932  -17.0305   15.9990 C   0  0  0  0  0  0  0  0  0  0  0  0
    9.9005  -17.6123   17.2681 C   0  0  2  0  0  0  0  0  0  0  0  0
    8.4906  -17.8151   17.1265 N   0  0  0  0  0  0  0  0  0  0  0  0
   10.2268  -16.7471   18.4551 C   0  0  0  0  0  0  0  0  0  0  0  0
   11.4166  -16.5096   18.7635 O   0  0  0  0  0  0  0  0  0  0  0  0
    6.7224  -12.6955   19.6527 C   0  0  0  0  0  0  0  0  0  0  0  0
    8.0353  -13.4467   19.5944 C   0  0  0  0  0  0  0  0  0  0  0  0
    8.1017  -14.5387   20.6585 C   0  0  2  0  0  0  0  0  0  0  0  0
    8.2883  -13.7949   21.9917 C   0  0  0  0  0  0  0  0  0  0  0  0
    9.3406  -15.3767   20.4328 C   0  0  2  0  0  0  0  0  0  0  0  0
    9.2012  -16.1965   19.2305 N   0  0  0  0  0  0  0  0  0  0  0  0
    9.6379  -16.2234   21.5903 C   0  0  0  0  0  0  0  0  0  0  0  0
    8.8717  -17.2552   21.8083 O   0  0  0  0  0  0  0  0  0  0  0  0
   10.6670  -16.1030   22.5487 N   0  0  0  0  0  0  0  0  0  0  0  0
   10.9216  -17.1092   23.5677 C   0  0  1  0  0  0  0  0  0  0  0  0
   12.2994  -17.7156   23.5012 C   0  0  0  0  0  0  0  0  0  0  0  0
   12.6389  -18.6013   24.6013 C   0  0  0  0  0  0  0  0  0  0  0  0
   11.9419  -19.6146   24.8334 O   0  0  0  0  0  0  0  0  0  0  0  0
   10.6245  -16.5604   24.9020 C   0  0  0  0  0  0  0  0  0  0  0  0
   10.5277  -15.3139   25.0296 O   0  0  0  0  0  0  0  0  0  0  0  0
   13.7246  -18.3517   25.4073 O   0  0  0  0  0  0  0  0  0  0  0  0
   10.4371  -17.2966   26.0553 O   0  0  0  0  0  0  0  0  0  0  0  0
  2  1  1  0
  2  3  2  0
  4  2  1  0
  5  4  1  0
  5  6  1  6
  7  8  2  0
  7  5  1  0
 10  9  1  0
 10 11  1  0
 11 13  1  0
 11 12  1  1
 13 14  1  6
 14  7  1  0
 15 16  2  0
 15 13  1  0
 17 15  1  0
 18 17  1  0
 18 19  1  1
 20 19  1  0
 20 21  2  0
 22 18  1  0
 23 22  2  0
 24 20  1  0
 25 22  1  0
M  END
$$$$
