NID.pdb
     RDKit          3D

 25 24  0  0  1  0  0  0  0  0999 V2000
   10.8714  -17.7514   13.9449 N   0  0  0  0  0  0  0  0  0  0  0  0
    9.8188  -17.4620   14.8691 C   0  0  0  0  0  0  0  0  0  0  0  0
    8.7100  -18.0427   14.6646 O   0  0  0  0  0  0  0  0  0  0  0  0
   10.0149  -16.5388   15.9971 C   0  0  0  0  0  0  0  0  0  0  0  0
    9.7469  -17.2854   17.2898 C   0  0  2  0  0  0  0  0  0  0  0  0
    8.4130  -17.8045   17.3121 N   0  0  0  0  0  0  0  0  0  0  0  0
   10.0283  -16.4094   18.4804 C   0  0  0  0  0  0  0  0  0  0  0  0
   11.1743  -15.9436   18.6728 O   0  0  0  0  0  0  0  0  0  0  0  0
    7.0042  -12.3293   19.9244 C   0  0  0  0  0  0  0  0  0  0  0  0
    8.1385  -13.3257   19.8148 C   0  0  0  0  0  0  0  0  0  0  0  0
    8.0223  -14.4225   20.8696 C   0  0  2  0  0  0  0  0  0  0  0  0
    8.2656  -13.7185   22.2152 C   0  0  0  0  0  0  0  0  0  0  0  0
    9.1427  -15.4198   20.6737 C   0  0  2  0  0  0  0  0  0  0  0  0
    9.0097  -16.1047   19.3891 N   0  0  0  0  0  0  0  0  0  0  0  0
    9.1931  -16.3962   21.7643 C   0  0  0  0  0  0  0  0  0  0  0  0
    8.1789  -16.4564   22.5809 O   0  0  0  0  0  0  0  0  0  0  0  0
   10.2029  -17.3279   22.0877 N   0  0  0  0  0  0  0  0  0  0  0  0
   11.1522  -17.1224   23.1704 C   0  0  1  0  0  0  0  0  0  0  0  0
   12.2091  -16.0905   22.8726 C   0  0  0  0  0  0  0  0  0  0  0  0
   13.3646  -16.5818   22.1423 C   0  0  0  0  0  0  0  0  0  0  0  0
   13.3777  -17.7507   21.6948 O   0  0  0  0  0  0  0  0  0  0  0  0
   10.4325  -16.8293   24.4217 C   0  0  0  0  0  0  0  0  0  0  0  0
   10.1093  -17.7888   25.1663 O   0  0  0  0  0  0  0  0  0  0  0  0
   14.4624  -15.7828   21.9256 O   0  0  0  0  0  0  0  0  0  0  0  0
   10.0682  -15.5748   24.8698 O   0  0  0  0  0  0  0  0  0  0  0  0
  2  1  1  0
  2  3  2  0
  4  2  1  0
  5  4  1  0
  5  6  1  6
  7  8  2  0
  7  5  1  0
 10  9  1  0
 10 11  1  0
 11 13  1  0
 11 12  1  1
 13 14  1  6
 14  7  1  0
 15 16  2  0
 15 13  1  0
 17 15  1  0
 18 17  1  0
 18 19  1  6
 20 19  1  0
 20 21  2  0
 22 18  1  0
 23 22  2  0
 24 20  1  0
 25 22  1  0
M  END
$$$$
