NID.pdb
     RDKit          3D

 25 24  0  0  1  0  0  0  0  0999 V2000
    9.7237  -18.7751   13.7489 N   0  0  0  0  0  0  0  0  0  0  0  0
    8.7008  -18.4697   14.7010 C   0  0  0  0  0  0  0  0  0  0  0  0
    7.6805  -19.2229   14.6972 O   0  0  0  0  0  0  0  0  0  0  0  0
    8.8285  -17.3406   15.6347 C   0  0  0  0  0  0  0  0  0  0  0  0
    8.9799  -17.8867   17.0415 C   0  0  2  0  0  0  0  0  0  0  0  0
    7.7404  -18.4214   17.5176 N   0  0  0  0  0  0  0  0  0  0  0  0
    9.5294  -16.8346   17.9663 C   0  0  0  0  0  0  0  0  0  0  0  0
   10.6568  -16.3305   17.7607 O   0  0  0  0  0  0  0  0  0  0  0  0
    7.3833  -12.2939   21.4444 C   0  0  0  0  0  0  0  0  0  0  0  0
    8.4756  -13.3186   21.2246 C   0  0  0  0  0  0  0  0  0  0  0  0
    7.9978  -14.4621   20.3340 C   0  0  2  0  0  0  0  0  0  0  0  0
    6.9836  -15.2435   21.1863 C   0  0  0  0  0  0  0  0  0  0  0  0
    9.1589  -15.3898   20.0519 C   0  0  2  0  0  0  0  0  0  0  0  0
    8.7848  -16.4063   19.0701 N   0  0  0  0  0  0  0  0  0  0  0  0
    9.6511  -16.0261   21.2758 C   0  0  0  0  0  0  0  0  0  0  0  0
    8.9920  -17.0490   21.7430 O   0  0  0  0  0  0  0  0  0  0  0  0
   10.7754  -15.7019   22.0652 N   0  0  0  0  0  0  0  0  0  0  0  0
   11.1545  -16.4553   23.2502 C   0  0  1  0  0  0  0  0  0  0  0  0
   12.5798  -16.2363   23.6872 C   0  0  0  0  0  0  0  0  0  0  0  0
   13.5910  -16.7107   22.7585 C   0  0  0  0  0  0  0  0  0  0  0  0
   14.5649  -15.9831   22.4606 O   0  0  0  0  0  0  0  0  0  0  0  0
   10.1976  -16.1947   24.3394 C   0  0  0  0  0  0  0  0  0  0  0  0
   10.1255  -17.0202   25.2843 O   0  0  0  0  0  0  0  0  0  0  0  0
   13.5052  -17.9593   22.1892 O   0  0  0  0  0  0  0  0  0  0  0  0
    9.3509  -15.1074   24.4284 O   0  0  0  0  0  0  0  0  0  0  0  0
  2  1  1  0
  2  3  2  0
  4  2  1  0
  5  4  1  0
  5  6  1  1
  7  8  2  0
  7  5  1  0
 10  9  1  0
 10 11  1  0
 11 13  1  0
 11 12  1  1
 13 14  1  6
 14  7  1  0
 15 16  2  0
 15 13  1  0
 17 15  1  0
 18 17  1  0
 18 19  1  1
 20 19  1  0
 20 21  2  0
 22 18  1  0
 23 22  2  0
 24 20  1  0
 25 22  1  0
M  END
$$$$
