NID.pdb
     RDKit          3D

 25 24  0  0  1  0  0  0  0  0999 V2000
    7.0676  -17.1376   18.7633 N   0  0  0  0  0  0  0  0  0  0  0  0
    7.5256  -15.7830   18.7275 C   0  0  0  0  0  0  0  0  0  0  0  0
    7.5696  -15.2301   17.5870 O   0  0  0  0  0  0  0  0  0  0  0  0
    7.9238  -15.0708   19.9512 C   0  0  0  0  0  0  0  0  0  0  0  0
    7.7447  -16.0005   21.1360 C   0  0  2  0  0  0  0  0  0  0  0  0
    6.3579  -16.1656   21.4501 N   0  0  0  0  0  0  0  0  0  0  0  0
    8.5345  -15.5139   22.3206 C   0  0  0  0  0  0  0  0  0  0  0  0
    9.7524  -15.2465   22.2089 O   0  0  0  0  0  0  0  0  0  0  0  0
    6.1521  -12.2315   25.8950 C   0  0  0  0  0  0  0  0  0  0  0  0
    7.2549  -12.9302   25.1289 C   0  0  0  0  0  0  0  0  0  0  0  0
    7.5896  -14.2863   25.7440 C   0  0  2  0  0  0  0  0  0  0  0  0
    8.3411  -13.9661   27.0471 C   0  0  0  0  0  0  0  0  0  0  0  0
    8.5531  -15.0185   24.8363 C   0  0  2  0  0  0  0  0  0  0  0  0
    7.9153  -15.3544   23.5645 N   0  0  0  0  0  0  0  0  0  0  0  0
    9.0806  -16.2278   25.4722 C   0  0  0  0  0  0  0  0  0  0  0  0
    8.2420  -17.1809   25.7680 O   0  0  0  0  0  0  0  0  0  0  0  0
   10.4085  -16.5471   25.8288 N   0  0  0  0  0  0  0  0  0  0  0  0
   10.7818  -17.8145   26.4372 C   0  0  1  0  0  0  0  0  0  0  0  0
   12.1158  -18.3456   25.9799 C   0  0  0  0  0  0  0  0  0  0  0  0
   12.5025  -17.9679   24.6317 C   0  0  0  0  0  0  0  0  0  0  0  0
   11.9612  -18.5136   23.6439 O   0  0  0  0  0  0  0  0  0  0  0  0
   10.7032  -17.7107   27.9044 C   0  0  0  0  0  0  0  0  0  0  0  0
   10.5915  -16.5698   28.4196 O   0  0  0  0  0  0  0  0  0  0  0  0
   13.4632  -17.0098   24.4086 O   0  0  0  0  0  0  0  0  0  0  0  0
   10.7410  -18.7675   28.7926 O   0  0  0  0  0  0  0  0  0  0  0  0
  2  1  1  0
  2  3  2  0
  4  2  1  0
  5  4  1  0
  5  6  1  1
  7  8  2  0
  7  5  1  0
 10  9  1  0
 10 11  1  0
 11 13  1  0
 11 12  1  1
 13 14  1  6
 14  7  1  0
 15 16  2  0
 15 13  1  0
 17 15  1  0
 18 17  1  0
 18 19  1  1
 20 19  1  0
 20 21  2  0
 22 18  1  0
 23 22  2  0
 24 20  1  0
 25 22  1  0
M  END
$$$$
