ASE.pdb
     RDKit          3D

 21 20  0  0  1  0  0  0  0  0999 V2000
   18.3930  -13.6696  -14.4828 C   0  0  0  0  0  0  0  0  0  0  0  0
   18.0220  -13.5371  -15.9654 C   0  0  2  0  0  0  0  0  0  0  0  0
   18.8041  -14.5026  -16.6828 N   0  0  0  0  0  0  0  0  0  0  0  0
   18.3273  -12.1333  -16.3422 C   0  0  0  0  0  0  0  0  0  0  0  0
   19.5371  -11.8561  -16.6066 O   0  0  0  0  0  0  0  0  0  0  0  0
   15.3743   -9.1441  -16.5580 O   0  0  0  0  0  0  0  0  0  0  0  0
   16.4216   -9.1549  -17.4467 C   0  0  0  0  0  0  0  0  0  0  0  0
   17.6558   -9.7527  -16.8096 C   0  0  2  0  0  0  0  0  0  0  0  0
   17.3762  -11.1010  -16.4272 N   0  0  0  0  0  0  0  0  0  0  0  0
   18.1545   -8.9066  -15.6885 C   0  0  0  0  0  0  0  0  0  0  0  0
   17.8488   -9.1990  -14.4825 O   0  0  0  0  0  0  0  0  0  0  0  0
   18.9678   -7.7650  -15.8715 N   0  0  0  0  0  0  0  0  0  0  0  0
   19.3646   -6.9065  -14.6961 C   0  0  1  0  0  0  0  0  0  0  0  0
   20.6958   -6.3445  -14.9600 C   0  0  0  0  0  0  0  0  0  0  0  0
   21.3433   -5.4512  -13.9757 C   0  0  0  0  0  0  0  0  0  0  0  0
   22.6570   -4.9027  -14.2944 C   0  0  0  0  0  0  0  0  0  0  0  0
   23.5947   -5.6593  -14.6379 O   0  0  0  0  0  0  0  0  0  0  0  0
   18.2534   -5.9372  -14.5677 C   0  0  0  0  0  0  0  0  0  0  0  0
   17.8354   -5.3662  -13.3803 O   0  0  0  0  0  0  0  0  0  0  0  0
   22.8912   -3.5417  -14.2276 O   0  0  0  0  0  0  0  0  0  0  0  0
   17.5939   -5.5705  -15.6019 O   0  0  0  0  0  0  0  0  0  0  0  0
  2  1  1  1
  2  4  1  0
  3  2  1  0
  4  5  2  0
  7  6  1  0
  8  7  1  1
  9  8  1  0
  9  4  1  0
 10 11  2  0
 10  8  1  0
 12 10  1  0
 13 12  1  0
 13 14  1  6
 14 15  1  0
 15 16  1  0
 16 20  1  0
 17 16  2  0
 18 13  1  0
 19 18  1  0
 21 18  2  0
M  END
$$$$
