ASE.pdb
     RDKit          3D

 21 20  0  0  1  0  0  0  0  0999 V2000
   16.6576  -11.3585  -15.7886 C   0  0  0  0  0  0  0  0  0  0  0  0
   17.4738  -10.3614  -16.6210 C   0  0  2  0  0  0  0  0  0  0  0  0
   18.0501  -11.0957  -17.7107 N   0  0  0  0  0  0  0  0  0  0  0  0
   18.4847   -9.7852  -15.6981 C   0  0  0  0  0  0  0  0  0  0  0  0
   18.0504   -9.1523  -14.6877 O   0  0  0  0  0  0  0  0  0  0  0  0
   23.1531   -9.2703  -14.4895 O   0  0  0  0  0  0  0  0  0  0  0  0
   22.1812   -9.9194  -15.2111 C   0  0  0  0  0  0  0  0  0  0  0  0
   20.8562   -9.2013  -15.0881 C   0  0  2  0  0  0  0  0  0  0  0  0
   19.8769   -9.8939  -15.8649 N   0  0  0  0  0  0  0  0  0  0  0  0
   20.9837   -7.7584  -15.4393 C   0  0  0  0  0  0  0  0  0  0  0  0
   21.0066   -7.3989  -16.6655 O   0  0  0  0  0  0  0  0  0  0  0  0
   21.0858   -6.7255  -14.4795 N   0  0  0  0  0  0  0  0  0  0  0  0
   21.2914   -5.2939  -14.9089 C   0  0  1  0  0  0  0  0  0  0  0  0
   19.9742   -4.6723  -15.0986 C   0  0  0  0  0  0  0  0  0  0  0  0
   19.8559   -3.2165  -15.3280 C   0  0  0  0  0  0  0  0  0  0  0  0
   18.5236   -2.6455  -15.4936 C   0  0  0  0  0  0  0  0  0  0  0  0
   18.3624   -1.4030  -15.5054 O   0  0  0  0  0  0  0  0  0  0  0  0
   22.1447   -4.7186  -13.8450 C   0  0  0  0  0  0  0  0  0  0  0  0
   22.3988   -5.3169  -12.6251 O   0  0  0  0  0  0  0  0  0  0  0  0
   17.4173   -3.4610  -15.6437 O   0  0  0  0  0  0  0  0  0  0  0  0
   22.7090   -3.5819  -14.0142 O   0  0  0  0  0  0  0  0  0  0  0  0
  2  1  1  1
  2  4  1  0
  3  2  1  0
  4  5  2  0
  7  6  1  0
  8  7  1  6
  9  8  1  0
  9  4  1  0
 10 11  2  0
 10  8  1  0
 12 10  1  0
 13 12  1  0
 13 14  1  1
 14 15  1  0
 15 16  1  0
 16 20  1  0
 17 16  2  0
 18 13  1  0
 19 18  1  0
 21 18  2  0
M  END
$$$$
