ASE.pdb
     RDKit          3D

 21 20  0  0  1  0  0  0  0  0999 V2000
   20.1336  -12.4566    4.8185 C   0  0  0  0  0  0  0  0  0  0  0  0
   18.6631  -12.4186    5.2539 C   0  0  2  0  0  0  0  0  0  0  0  0
   18.4636  -11.1823    5.9543 N   0  0  0  0  0  0  0  0  0  0  0  0
   18.4543  -13.6184    6.1039 C   0  0  0  0  0  0  0  0  0  0  0  0
   18.7885  -13.5270    7.3246 O   0  0  0  0  0  0  0  0  0  0  0  0
   16.4227  -17.9803    6.5945 O   0  0  0  0  0  0  0  0  0  0  0  0
   16.7195  -16.9077    5.7894 C   0  0  0  0  0  0  0  0  0  0  0  0
   17.7317  -16.0038    6.4565 C   0  0  2  0  0  0  0  0  0  0  0  0
   17.9148  -14.8363    5.6530 N   0  0  0  0  0  0  0  0  0  0  0  0
   18.9999  -16.7295    6.7507 C   0  0  0  0  0  0  0  0  0  0  0  0
   19.9042  -16.8254    5.8527 O   0  0  0  0  0  0  0  0  0  0  0  0
   19.2815  -17.3405    7.9940 N   0  0  0  0  0  0  0  0  0  0  0  0
   20.6227  -17.9825    8.2495 C   0  0  1  0  0  0  0  0  0  0  0  0
   21.4761  -17.0126    8.9483 C   0  0  0  0  0  0  0  0  0  0  0  0
   22.8270  -17.3961    9.4109 C   0  0  0  0  0  0  0  0  0  0  0  0
   23.6469  -16.3872   10.0731 C   0  0  0  0  0  0  0  0  0  0  0  0
   23.2347  -15.2096   10.1882 O   0  0  0  0  0  0  0  0  0  0  0  0
   20.2928  -19.2224    8.9875 C   0  0  0  0  0  0  0  0  0  0  0  0
   21.1011  -20.3418    9.0541 O   0  0  0  0  0  0  0  0  0  0  0  0
   24.8886  -16.7104   10.5880 O   0  0  0  0  0  0  0  0  0  0  0  0
   19.1864  -19.3196    9.6243 O   0  0  0  0  0  0  0  0  0  0  0  0
  2  1  1  1
  2  4  1  0
  3  2  1  0
  4  5  2  0
  7  6  1  0
  8  7  1  6
  9  8  1  0
  9  4  1  0
 10 11  2  0
 10  8  1  0
 12 10  1  0
 13 12  1  0
 13 14  1  1
 14 15  1  0
 15 16  1  0
 16 20  1  0
 17 16  2  0
 18 13  1  0
 19 18  1  0
 21 18  2  0
M  END
$$$$
