ASE.pdb
     RDKit          3D

 21 20  0  0  1  0  0  0  0  0999 V2000
   23.3860  -11.1807  -14.3917 C   0  0  0  0  0  0  0  0  0  0  0  0
   22.5497  -11.8406  -15.4956 C   0  0  2  0  0  0  0  0  0  0  0  0
   23.4291  -12.0791  -16.6039 N   0  0  0  0  0  0  0  0  0  0  0  0
   21.4536  -10.8880  -15.8066 C   0  0  0  0  0  0  0  0  0  0  0  0
   21.7873   -9.7532  -16.2663 O   0  0  0  0  0  0  0  0  0  0  0  0
   17.6397  -12.0234  -16.6572 O   0  0  0  0  0  0  0  0  0  0  0  0
   17.7015  -10.9653  -15.7835 C   0  0  0  0  0  0  0  0  0  0  0  0
   19.0230  -10.2420  -15.9141 C   0  0  2  0  0  0  0  0  0  0  0  0
   20.0844  -11.1558  -15.6302 N   0  0  0  0  0  0  0  0  0  0  0  0
   19.0558   -9.0111  -15.0742 C   0  0  0  0  0  0  0  0  0  0  0  0
   19.1971   -9.1056  -13.8075 O   0  0  0  0  0  0  0  0  0  0  0  0
   18.9364   -7.7034  -15.5975 N   0  0  0  0  0  0  0  0  0  0  0  0
   19.0348   -6.5005  -14.6921 C   0  0  1  0  0  0  0  0  0  0  0  0
   20.3818   -5.9297  -14.8231 C   0  0  0  0  0  0  0  0  0  0  0  0
   20.7513   -4.6992  -14.0916 C   0  0  0  0  0  0  0  0  0  0  0  0
   22.0651   -4.1139  -14.3359 C   0  0  0  0  0  0  0  0  0  0  0  0
   23.0893   -4.6123  -13.8141 O   0  0  0  0  0  0  0  0  0  0  0  0
   17.9093   -5.6380  -15.1167 C   0  0  0  0  0  0  0  0  0  0  0  0
   17.2414   -5.7459  -16.3221 O   0  0  0  0  0  0  0  0  0  0  0  0
   22.2058   -3.0039  -15.1482 O   0  0  0  0  0  0  0  0  0  0  0  0
   17.4871   -4.7037  -14.3499 O   0  0  0  0  0  0  0  0  0  0  0  0
  2  1  1  1
  2  4  1  0
  3  2  1  0
  4  5  2  0
  7  6  1  0
  8  7  1  1
  9  8  1  0
  9  4  1  0
 10 11  2  0
 10  8  1  0
 12 10  1  0
 13 12  1  0
 13 14  1  6
 14 15  1  0
 15 16  1  0
 16 20  1  0
 17 16  2  0
 18 13  1  0
 19 18  1  0
 21 18  2  0
M  END
$$$$
