ASE.pdb
     RDKit          3D

 21 20  0  0  1  0  0  0  0  0999 V2000
   18.6769  -14.0881  -16.2322 C   0  0  0  0  0  0  0  0  0  0  0  0
   18.0195  -13.0548  -15.3083 C   0  0  2  0  0  0  0  0  0  0  0  0
   16.6342  -13.4113  -15.1968 N   0  0  0  0  0  0  0  0  0  0  0  0
   18.2387  -11.7324  -15.9477 C   0  0  0  0  0  0  0  0  0  0  0  0
   19.4414  -11.3680  -16.1240 O   0  0  0  0  0  0  0  0  0  0  0  0
   16.2672  -10.2028  -18.9517 O   0  0  0  0  0  0  0  0  0  0  0  0
   16.2728   -9.2992  -17.9172 C   0  0  0  0  0  0  0  0  0  0  0  0
   17.4142   -9.5834  -16.9668 C   0  0  2  0  0  0  0  0  0  0  0  0
   17.2143  -10.8659  -16.3689 N   0  0  0  0  0  0  0  0  0  0  0  0
   17.5842   -8.4837  -15.9752 C   0  0  0  0  0  0  0  0  0  0  0  0
   16.9619   -8.5273  -14.8598 O   0  0  0  0  0  0  0  0  0  0  0  0
   18.4120   -7.3580  -16.1895 N   0  0  0  0  0  0  0  0  0  0  0  0
   18.6862   -6.3810  -15.0731 C   0  0  1  0  0  0  0  0  0  0  0  0
   20.1242   -6.4084  -14.7748 C   0  0  0  0  0  0  0  0  0  0  0  0
   20.6970   -5.5080  -13.7515 C   0  0  0  0  0  0  0  0  0  0  0  0
   22.1423   -5.5129  -13.5528 C   0  0  0  0  0  0  0  0  0  0  0  0
   22.7064   -6.4955  -13.0179 O   0  0  0  0  0  0  0  0  0  0  0  0
   18.1414   -5.0995  -15.5750 C   0  0  0  0  0  0  0  0  0  0  0  0
   17.7342   -4.0468  -14.7771 O   0  0  0  0  0  0  0  0  0  0  0  0
   22.9157   -4.4388  -13.9526 O   0  0  0  0  0  0  0  0  0  0  0  0
   18.0117   -4.9019  -16.8333 O   0  0  0  0  0  0  0  0  0  0  0  0
  2  1  1  6
  2  4  1  0
  3  2  1  0
  4  5  2  0
  7  6  1  0
  8  7  1  6
  9  8  1  0
  9  4  1  0
 10 11  2  0
 10  8  1  0
 12 10  1  0
 13 12  1  0
 13 14  1  6
 14 15  1  0
 15 16  1  0
 16 20  1  0
 17 16  2  0
 18 13  1  0
 19 18  1  0
 21 18  2  0
M  END
$$$$
