ASE.pdb
     RDKit          3D

 21 20  0  0  1  0  0  0  0  0999 V2000
   12.1663   -9.8992  -10.6305 C   0  0  0  0  0  0  0  0  0  0  0  0
   13.3374  -10.2199   -9.6930 C   0  0  2  0  0  0  0  0  0  0  0  0
   13.0034   -9.6850   -8.4042 N   0  0  0  0  0  0  0  0  0  0  0  0
   14.5363   -9.5884  -10.3010 C   0  0  0  0  0  0  0  0  0  0  0  0
   14.7193   -8.3542  -10.0698 O   0  0  0  0  0  0  0  0  0  0  0  0
   16.6705  -11.4061  -13.3258 O   0  0  0  0  0  0  0  0  0  0  0  0
   17.4311  -10.7251  -12.4069 C   0  0  0  0  0  0  0  0  0  0  0  0
   16.6110   -9.6530  -11.7252 C   0  0  2  0  0  0  0  0  0  0  0  0
   15.4744  -10.2589  -11.1061 N   0  0  0  0  0  0  0  0  0  0  0  0
   16.2603   -8.5532  -12.6680 C   0  0  0  0  0  0  0  0  0  0  0  0
   15.1224   -8.5490  -13.2499 O   0  0  0  0  0  0  0  0  0  0  0  0
   17.1271   -7.4795  -12.9749 N   0  0  0  0  0  0  0  0  0  0  0  0
   16.6820   -6.3705  -13.8959 C   0  0  1  0  0  0  0  0  0  0  0  0
   15.6252   -5.6039  -13.2228 C   0  0  0  0  0  0  0  0  0  0  0  0
   15.1377   -4.3316  -13.7967 C   0  0  0  0  0  0  0  0  0  0  0  0
   14.1037   -3.5960  -13.0768 C   0  0  0  0  0  0  0  0  0  0  0  0
   12.9698   -3.4338  -13.5846 O   0  0  0  0  0  0  0  0  0  0  0  0
   17.9306   -5.6390  -14.2072 C   0  0  0  0  0  0  0  0  0  0  0  0
   18.0979   -4.7797  -15.2769 O   0  0  0  0  0  0  0  0  0  0  0  0
   14.3525   -3.0686  -11.8232 O   0  0  0  0  0  0  0  0  0  0  0  0
   18.9642   -5.7812  -13.4651 O   0  0  0  0  0  0  0  0  0  0  0  0
  2  1  1  6
  2  4  1  0
  3  2  1  0
  4  5  2  0
  7  6  1  0
  8  7  1  6
  9  8  1  0
  9  4  1  0
 10 11  2  0
 10  8  1  0
 12 10  1  0
 13 12  1  0
 13 14  1  1
 14 15  1  0
 15 16  1  0
 16 20  1  0
 17 16  2  0
 18 13  1  0
 19 18  1  0
 21 18  2  0
M  END
$$$$
