ASE.pdb
     RDKit          3D

 21 20  0  0  1  0  0  0  0  0999 V2000
   13.9783  -13.4499  -13.6043 C   0  0  0  0  0  0  0  0  0  0  0  0
   15.2554  -12.8650  -12.9875 C   0  0  2  0  0  0  0  0  0  0  0  0
   15.6467  -13.7410  -11.9206 N   0  0  0  0  0  0  0  0  0  0  0  0
   14.9018  -11.4976  -12.5284 C   0  0  0  0  0  0  0  0  0  0  0  0
   13.8015  -11.0168  -12.9386 O   0  0  0  0  0  0  0  0  0  0  0  0
   13.8637   -8.6392   -9.3628 O   0  0  0  0  0  0  0  0  0  0  0  0
   14.1730   -9.7665  -10.0840 C   0  0  0  0  0  0  0  0  0  0  0  0
   15.2826   -9.4809  -11.0708 C   0  0  2  0  0  0  0  0  0  0  0  0
   15.6946  -10.7078  -11.6767 N   0  0  0  0  0  0  0  0  0  0  0  0
   16.3989   -8.7274  -10.4323 C   0  0  0  0  0  0  0  0  0  0  0  0
   17.1043   -9.2804   -9.5213 O   0  0  0  0  0  0  0  0  0  0  0  0
   16.7429   -7.3995  -10.7741 N   0  0  0  0  0  0  0  0  0  0  0  0
   18.0254   -6.7835  -10.2723 C   0  0  1  0  0  0  0  0  0  0  0  0
   18.9932   -6.7614  -11.3770 C   0  0  0  0  0  0  0  0  0  0  0  0
   20.2939   -6.0755  -11.2234 C   0  0  0  0  0  0  0  0  0  0  0  0
   21.2233   -6.0887  -12.3479 C   0  0  0  0  0  0  0  0  0  0  0  0
   20.9626   -6.7506  -13.3793 O   0  0  0  0  0  0  0  0  0  0  0  0
   17.6070   -5.4688   -9.7361 C   0  0  0  0  0  0  0  0  0  0  0  0
   18.3187   -4.7297   -8.8100 O   0  0  0  0  0  0  0  0  0  0  0  0
   22.4039   -5.3708  -12.2993 O   0  0  0  0  0  0  0  0  0  0  0  0
   16.5095   -4.9341  -10.1219 O   0  0  0  0  0  0  0  0  0  0  0  0
  2  1  1  1
  2  4  1  0
  3  2  1  0
  4  5  2  0
  7  6  1  0
  8  7  1  1
  9  8  1  0
  9  4  1  0
 10 11  2  0
 10  8  1  0
 12 10  1  0
 13 12  1  0
 13 14  1  6
 14 15  1  0
 15 16  1  0
 16 20  1  0
 17 16  2  0
 18 13  1  0
 19 18  1  0
 21 18  2  0
M  END
$$$$
