ASE.pdb
     RDKit          3D

 21 20  0  0  1  0  0  0  0  0999 V2000
   20.6202  -11.6388  -19.5111 C   0  0  0  0  0  0  0  0  0  0  0  0
   20.7647  -12.2470  -18.1102 C   0  0  2  0  0  0  0  0  0  0  0  0
   19.8940  -13.3861  -18.0542 N   0  0  0  0  0  0  0  0  0  0  0  0
   20.3926  -11.1727  -17.1547 C   0  0  0  0  0  0  0  0  0  0  0  0
   19.2054  -10.7289  -17.2178 O   0  0  0  0  0  0  0  0  0  0  0  0
   22.6060  -10.2764  -13.7591 O   0  0  0  0  0  0  0  0  0  0  0  0
   21.2582  -10.0357  -13.8698 C   0  0  0  0  0  0  0  0  0  0  0  0
   20.9100   -9.5853  -15.2707 C   0  0  2  0  0  0  0  0  0  0  0  0
   21.2572  -10.6204  -16.1928 N   0  0  0  0  0  0  0  0  0  0  0  0
   21.5322   -8.2692  -15.5904 C   0  0  0  0  0  0  0  0  0  0  0  0
   22.5931   -8.2199  -16.3014 O   0  0  0  0  0  0  0  0  0  0  0  0
   21.0150   -7.0307  -15.1466 N   0  0  0  0  0  0  0  0  0  0  0  0
   21.7378   -5.7418  -15.4506 C   0  0  1  0  0  0  0  0  0  0  0  0
   20.8937   -4.9352  -16.3419 C   0  0  0  0  0  0  0  0  0  0  0  0
   21.3027   -3.5688  -16.7316 C   0  0  0  0  0  0  0  0  0  0  0  0
   20.4007   -2.7863  -17.5697 C   0  0  0  0  0  0  0  0  0  0  0  0
   20.7122   -2.5085  -18.7511 O   0  0  0  0  0  0  0  0  0  0  0  0
   22.0252   -5.1677  -14.1169 C   0  0  0  0  0  0  0  0  0  0  0  0
   22.9826   -4.2043  -13.8603 O   0  0  0  0  0  0  0  0  0  0  0  0
   19.1870   -2.3406  -17.0798 O   0  0  0  0  0  0  0  0  0  0  0  0
   21.3704   -5.5619  -13.0897 O   0  0  0  0  0  0  0  0  0  0  0  0
  2  1  1  6
  2  4  1  0
  3  2  1  0
  4  5  2  0
  7  6  1  0
  8  7  1  1
  9  8  1  0
  9  4  1  0
 10 11  2  0
 10  8  1  0
 12 10  1  0
 13 12  1  0
 13 14  1  6
 14 15  1  0
 15 16  1  0
 16 20  1  0
 17 16  2  0
 18 13  1  0
 19 18  1  0
 21 18  2  0
M  END
$$$$
