ASE.pdb
     RDKit          3D

 21 20  0  0  1  0  0  0  0  0999 V2000
   17.4659  -11.0916  -17.3282 C   0  0  0  0  0  0  0  0  0  0  0  0
   18.6643  -11.9261  -16.8581 C   0  0  2  0  0  0  0  0  0  0  0  0
   18.1403  -13.1477  -16.3180 N   0  0  0  0  0  0  0  0  0  0  0  0
   19.3762  -11.0948  -15.8541 C   0  0  0  0  0  0  0  0  0  0  0  0
   18.6978  -10.6713  -14.8690 O   0  0  0  0  0  0  0  0  0  0  0  0
   23.5249  -10.4586  -15.9680 O   0  0  0  0  0  0  0  0  0  0  0  0
   22.8342  -10.5220  -14.7824 C   0  0  0  0  0  0  0  0  0  0  0  0
   21.4371   -9.9680  -14.9487 C   0  0  2  0  0  0  0  0  0  0  0  0
   20.7380  -10.7502  -15.9192 N   0  0  0  0  0  0  0  0  0  0  0  0
   21.4624   -8.5114  -15.2636 C   0  0  0  0  0  0  0  0  0  0  0  0
   21.2477   -8.1122  -16.4586 O   0  0  0  0  0  0  0  0  0  0  0  0
   21.7170   -7.5072  -14.3018 N   0  0  0  0  0  0  0  0  0  0  0  0
   21.7048   -6.0493  -14.6898 C   0  0  1  0  0  0  0  0  0  0  0  0
   20.3570   -5.7057  -15.1619 C   0  0  0  0  0  0  0  0  0  0  0  0
   19.9892   -4.2984  -15.4266 C   0  0  0  0  0  0  0  0  0  0  0  0
   18.6172   -4.0021  -15.8244 C   0  0  0  0  0  0  0  0  0  0  0  0
   18.1184   -2.8760  -15.5942 O   0  0  0  0  0  0  0  0  0  0  0  0
   22.1755   -5.3496  -13.4734 C   0  0  0  0  0  0  0  0  0  0  0  0
   22.6948   -4.0688  -13.4488 O   0  0  0  0  0  0  0  0  0  0  0  0
   17.8444   -4.9534  -16.4643 O   0  0  0  0  0  0  0  0  0  0  0  0
   22.1250   -5.9311  -12.3339 O   0  0  0  0  0  0  0  0  0  0  0  0
  2  1  1  1
  2  4  1  0
  3  2  1  0
  4  5  2  0
  7  6  1  0
  8  7  1  6
  9  8  1  0
  9  4  1  0
 10 11  2  0
 10  8  1  0
 12 10  1  0
 13 12  1  0
 13 14  1  1
 14 15  1  0
 15 16  1  0
 16 20  1  0
 17 16  2  0
 18 13  1  0
 19 18  1  0
 21 18  2  0
M  END
$$$$
