ASE.pdb
     RDKit          3D

 21 20  0  0  1  0  0  0  0  0999 V2000
   15.2753  -10.4075  -15.8740 C   0  0  0  0  0  0  0  0  0  0  0  0
   16.7471  -10.5518  -15.4658 C   0  0  2  0  0  0  0  0  0  0  0  0
   16.8211  -11.6438  -14.5380 N   0  0  0  0  0  0  0  0  0  0  0  0
   17.1399   -9.2475  -14.8742 C   0  0  0  0  0  0  0  0  0  0  0  0
   17.2177   -8.2557  -15.6620 O   0  0  0  0  0  0  0  0  0  0  0  0
   18.2140   -8.7927  -10.8179 O   0  0  0  0  0  0  0  0  0  0  0  0
   17.5140   -7.8026  -11.4632 C   0  0  0  0  0  0  0  0  0  0  0  0
   17.8384   -7.7956  -12.9401 C   0  0  2  0  0  0  0  0  0  0  0  0
   17.4268   -9.0382  -13.5135 N   0  0  0  0  0  0  0  0  0  0  0  0
   19.2739   -7.4746  -13.1811 C   0  0  0  0  0  0  0  0  0  0  0  0
   20.1530   -8.4009  -13.1300 O   0  0  0  0  0  0  0  0  0  0  0  0
   19.7470   -6.1744  -13.4705 N   0  0  0  0  0  0  0  0  0  0  0  0
   21.2034   -5.9381  -13.7855 C   0  0  1  0  0  0  0  0  0  0  0  0
   21.4277   -6.2462  -15.2040 C   0  0  0  0  0  0  0  0  0  0  0  0
   22.7707   -6.0936  -15.8033 C   0  0  0  0  0  0  0  0  0  0  0  0
   22.9492   -6.4483  -17.2071 C   0  0  0  0  0  0  0  0  0  0  0  0
   22.2986   -7.3931  -17.7110 O   0  0  0  0  0  0  0  0  0  0  0  0
   21.4382   -4.5368  -13.3701 C   0  0  0  0  0  0  0  0  0  0  0  0
   22.6668   -4.0127  -13.0146 O   0  0  0  0  0  0  0  0  0  0  0  0
   23.8339   -5.7491  -18.0071 O   0  0  0  0  0  0  0  0  0  0  0  0
   20.4637   -3.7084  -13.3138 O   0  0  0  0  0  0  0  0  0  0  0  0
  2  1  1  1
  2  4  1  0
  3  2  1  0
  4  5  2  0
  7  6  1  0
  8  7  1  1
  9  8  1  0
  9  4  1  0
 10 11  2  0
 10  8  1  0
 12 10  1  0
 13 12  1  0
 13 14  1  6
 14 15  1  0
 15 16  1  0
 16 20  1  0
 17 16  2  0
 18 13  1  0
 19 18  1  0
 21 18  2  0
M  END
$$$$
