ASE.pdb
     RDKit          3D

 21 20  0  0  1  0  0  0  0  0999 V2000
   16.5921  -10.0839  -17.2059 C   0  0  0  0  0  0  0  0  0  0  0  0
   17.6791  -11.1046  -16.8455 C   0  0  2  0  0  0  0  0  0  0  0  0
   17.0290  -12.1906  -16.1697 N   0  0  0  0  0  0  0  0  0  0  0  0
   18.6572  -10.3809  -15.9938 C   0  0  0  0  0  0  0  0  0  0  0  0
   18.1902   -9.6873  -15.0393 O   0  0  0  0  0  0  0  0  0  0  0  0
   23.2960   -9.8054  -14.7152 O   0  0  0  0  0  0  0  0  0  0  0  0
   22.3661  -10.3715  -15.5528 C   0  0  0  0  0  0  0  0  0  0  0  0
   21.0037   -9.7535  -15.3327 C   0  0  2  0  0  0  0  0  0  0  0  0
   20.0520  -10.4132  -16.1702 N   0  0  0  0  0  0  0  0  0  0  0  0
   21.0390   -8.2753  -15.5206 C   0  0  0  0  0  0  0  0  0  0  0  0
   21.0083   -7.7801  -16.6984 O   0  0  0  0  0  0  0  0  0  0  0  0
   21.1078   -7.3522  -14.4522 N   0  0  0  0  0  0  0  0  0  0  0  0
   21.1913   -5.8699  -14.7205 C   0  0  1  0  0  0  0  0  0  0  0  0
   19.8260   -5.3433  -14.8474 C   0  0  0  0  0  0  0  0  0  0  0  0
   19.5866   -3.8866  -14.9299 C   0  0  0  0  0  0  0  0  0  0  0  0
   18.2086   -3.4117  -14.9942 C   0  0  0  0  0  0  0  0  0  0  0  0
   17.2572   -4.2262  -15.0261 O   0  0  0  0  0  0  0  0  0  0  0  0
   21.9980   -5.3459  -13.5954 C   0  0  0  0  0  0  0  0  0  0  0  0
   22.2931   -6.0459  -12.4406 O   0  0  0  0  0  0  0  0  0  0  0  0
   17.9265   -2.0584  -15.0174 O   0  0  0  0  0  0  0  0  0  0  0  0
   22.4774   -4.1597  -13.6425 O   0  0  0  0  0  0  0  0  0  0  0  0
  2  1  1  1
  2  4  1  0
  3  2  1  0
  4  5  2  0
  7  6  1  0
  8  7  1  6
  9  8  1  0
  9  4  1  0
 10 11  2  0
 10  8  1  0
 12 10  1  0
 13 12  1  0
 13 14  1  1
 14 15  1  0
 15 16  1  0
 16 20  1  0
 17 16  2  0
 18 13  1  0
 19 18  1  0
 21 18  2  0
M  END
$$$$
