ASE.pdb
     RDKit          3D

 21 20  0  0  1  0  0  0  0  0999 V2000
   18.1673  -10.1990  -18.4423 C   0  0  0  0  0  0  0  0  0  0  0  0
   19.4046  -10.9515  -17.9362 C   0  0  2  0  0  0  0  0  0  0  0  0
   18.9645  -12.2514  -17.5177 N   0  0  0  0  0  0  0  0  0  0  0  0
   19.9604  -10.1322  -16.8292 C   0  0  0  0  0  0  0  0  0  0  0  0
   19.1303   -9.6063  -16.0264 O   0  0  0  0  0  0  0  0  0  0  0  0
   24.0772   -9.2897  -16.4020 O   0  0  0  0  0  0  0  0  0  0  0  0
   23.3148   -9.6019  -15.3029 C   0  0  0  0  0  0  0  0  0  0  0  0
   21.8792   -9.1747  -15.5107 C   0  0  2  0  0  0  0  0  0  0  0  0
   21.3307   -9.9034  -16.6109 N   0  0  0  0  0  0  0  0  0  0  0  0
   21.7669   -7.6960  -15.6604 C   0  0  0  0  0  0  0  0  0  0  0  0
   21.9084   -7.1576  -16.8108 O   0  0  0  0  0  0  0  0  0  0  0  0
   21.5076   -6.8180  -14.5833 N   0  0  0  0  0  0  0  0  0  0  0  0
   21.4242   -5.3284  -14.8078 C   0  0  1  0  0  0  0  0  0  0  0  0
   20.0094   -4.9578  -14.9440 C   0  0  0  0  0  0  0  0  0  0  0  0
   19.6008   -3.5369  -14.9412 C   0  0  0  0  0  0  0  0  0  0  0  0
   18.1760   -3.2239  -14.9257 C   0  0  0  0  0  0  0  0  0  0  0  0
   17.7878   -2.0343  -14.8640 O   0  0  0  0  0  0  0  0  0  0  0  0
   22.1491   -4.7499  -13.6542 C   0  0  0  0  0  0  0  0  0  0  0  0
   22.3593   -5.3932  -12.4490 O   0  0  0  0  0  0  0  0  0  0  0  0
   17.2294   -4.2301  -14.9821 O   0  0  0  0  0  0  0  0  0  0  0  0
   22.6331   -3.5666  -13.7235 O   0  0  0  0  0  0  0  0  0  0  0  0
  2  1  1  1
  2  4  1  0
  3  2  1  0
  4  5  2  0
  7  6  1  0
  8  7  1  6
  9  8  1  0
  9  4  1  0
 10 11  2  0
 10  8  1  0
 12 10  1  0
 13 12  1  0
 13 14  1  1
 14 15  1  0
 15 16  1  0
 16 20  1  0
 17 16  2  0
 18 13  1  0
 19 18  1  0
 21 18  2  0
M  END
$$$$
