TQE.pdb
     RDKit          3D

 26 25  0  0  1  0  0  0  0  0999 V2000
   16.9637   -9.2199  -17.5618 C   0  0  0  0  0  0  0  0  0  0  0  0
   16.9474  -10.2451  -16.4615 C   0  0  1  0  0  0  0  0  0  0  0  0
   16.2784  -11.3825  -16.9063 O   0  0  0  0  0  0  0  0  0  0  0  0
   18.3667  -10.6112  -16.0140 C   0  0  2  0  0  0  0  0  0  0  0  0
   18.2559  -11.6650  -15.0445 N   0  0  0  0  0  0  0  0  0  0  0  0
   18.9786   -9.3827  -15.4520 C   0  0  0  0  0  0  0  0  0  0  0  0
   18.4616   -8.9047  -14.4092 O   0  0  0  0  0  0  0  0  0  0  0  0
   21.7444   -5.7065  -13.1653 N   0  0  0  0  0  0  0  0  0  0  0  0
   22.1302   -7.0281  -12.7793 C   0  0  0  0  0  0  0  0  0  0  0  0
   22.3470   -7.2570  -11.5660 O   0  0  0  0  0  0  0  0  0  0  0  0
   22.2817   -8.1226  -13.7523 C   0  0  0  0  0  0  0  0  0  0  0  0
   22.0345   -7.6991  -15.1494 C   0  0  0  0  0  0  0  0  0  0  0  0
   20.6035   -7.4393  -15.5243 C   0  0  2  0  0  0  0  0  0  0  0  0
   20.0860   -8.7289  -16.0061 N   0  0  0  0  0  0  0  0  0  0  0  0
   20.4309   -6.4555  -16.5854 C   0  0  0  0  0  0  0  0  0  0  0  0
   20.7593   -6.7183  -17.7636 O   0  0  0  0  0  0  0  0  0  0  0  0
   19.8874   -5.1859  -16.2938 N   0  0  0  0  0  0  0  0  0  0  0  0
   19.6216   -4.1761  -17.2902 C   0  0  1  0  0  0  0  0  0  0  0  0
   18.4483   -3.3380  -16.7714 C   0  0  0  0  0  0  0  0  0  0  0  0
   17.1946   -4.1462  -16.9460 C   0  0  0  0  0  0  0  0  0  0  0  0
   16.4998   -4.2405  -15.6511 C   0  0  0  0  0  0  0  0  0  0  0  0
   16.1096   -3.2152  -15.0578 O   0  0  0  0  0  0  0  0  0  0  0  0
   20.7677   -3.2452  -17.4286 C   0  0  0  0  0  0  0  0  0  0  0  0
   21.4776   -2.9982  -16.4210 O   0  0  0  0  0  0  0  0  0  0  0  0
   16.2843   -5.5031  -15.0962 O   0  0  0  0  0  0  0  0  0  0  0  0
   21.1009   -2.6281  -18.6177 O   0  0  0  0  0  0  0  0  0  0  0  0
  2  1  1  6
  3  2  1  0
  4  6  1  0
  4  2  1  0
  4  5  1  1
  6  7  2  0
  8  9  1  0
  9 10  2  0
  9 11  1  0
 11 12  1  0
 13 12  1  6
 14 13  1  0
 14  6  1  0
 15 17  1  0
 15 13  1  0
 16 15  2  0
 18 19  1  1
 18 17  1  0
 19 20  1  0
 20 21  1  0
 21 22  2  0
 23 18  1  0
 23 26  1  0
 24 23  2  0
 25 21  1  0
M  END
$$$$
