TQE.pdb
     RDKit          3D

 26 25  0  0  1  0  0  0  0  0999 V2000
   17.2230   -7.9176  -15.0648 C   0  0  0  0  0  0  0  0  0  0  0  0
   16.9480   -8.3029  -13.6374 C   0  0  1  0  0  0  0  0  0  0  0  0
   15.6955   -8.9065  -13.5599 O   0  0  0  0  0  0  0  0  0  0  0  0
   18.0230   -9.2509  -13.0947 C   0  0  2  0  0  0  0  0  0  0  0  0
   17.6680   -9.5779  -11.7420 N   0  0  0  0  0  0  0  0  0  0  0  0
   19.3207   -8.5389  -13.1863 C   0  0  0  0  0  0  0  0  0  0  0  0
   19.5673   -7.6718  -12.3085 O   0  0  0  0  0  0  0  0  0  0  0  0
   24.0116  -10.6116  -16.6906 N   0  0  0  0  0  0  0  0  0  0  0  0
   23.7984  -10.9061  -15.3077 C   0  0  0  0  0  0  0  0  0  0  0  0
   24.3099  -11.9474  -14.8326 O   0  0  0  0  0  0  0  0  0  0  0  0
   23.0025  -10.0341  -14.4281 C   0  0  0  0  0  0  0  0  0  0  0  0
   22.4443   -8.8542  -15.1269 C   0  0  0  0  0  0  0  0  0  0  0  0
   21.5135   -7.9857  -14.3300 C   0  0  2  0  0  0  0  0  0  0  0  0
   20.2789   -8.7709  -14.1808 N   0  0  0  0  0  0  0  0  0  0  0  0
   21.1738   -6.7229  -14.9732 C   0  0  0  0  0  0  0  0  0  0  0  0
   20.4982   -6.7004  -16.0258 O   0  0  0  0  0  0  0  0  0  0  0  0
   21.6064   -5.5022  -14.4118 N   0  0  0  0  0  0  0  0  0  0  0  0
   21.2375   -4.2048  -14.9252 C   0  0  1  0  0  0  0  0  0  0  0  0
   19.7078   -4.1267  -14.8779 C   0  0  0  0  0  0  0  0  0  0  0  0
   19.3012   -2.7754  -15.3918 C   0  0  0  0  0  0  0  0  0  0  0  0
   17.8423   -2.7564  -15.5909 C   0  0  0  0  0  0  0  0  0  0  0  0
   17.2616   -1.7200  -15.9706 O   0  0  0  0  0  0  0  0  0  0  0  0
   21.7360   -3.1193  -14.0463 C   0  0  0  0  0  0  0  0  0  0  0  0
   22.1369   -3.4067  -12.8901 O   0  0  0  0  0  0  0  0  0  0  0  0
   17.1169   -3.9235  -15.3462 O   0  0  0  0  0  0  0  0  0  0  0  0
   21.7843   -1.7951  -14.4337 O   0  0  0  0  0  0  0  0  0  0  0  0
  2  1  1  6
  3  2  1  0
  4  6  1  0
  4  2  1  0
  4  5  1  1
  6  7  2  0
  8  9  1  0
  9 10  2  0
  9 11  1  0
 11 12  1  0
 13 12  1  6
 14 13  1  0
 14  6  1  0
 15 17  1  0
 15 13  1  0
 16 15  2  0
 18 19  1  1
 18 17  1  0
 19 20  1  0
 20 21  1  0
 21 22  2  0
 23 18  1  0
 23 26  1  0
 24 23  2  0
 25 21  1  0
M  END
$$$$
