TQE.pdb
     RDKit          3D

 26 25  0  0  1  0  0  0  0  0999 V2000
   15.6598  -10.7639  -16.1342 C   0  0  0  0  0  0  0  0  0  0  0  0
   15.8651  -12.0199  -15.3329 C   0  0  1  0  0  0  0  0  0  0  0  0
   14.6513  -12.6926  -15.2181 O   0  0  0  0  0  0  0  0  0  0  0  0
   16.9131  -12.9329  -15.9787 C   0  0  2  0  0  0  0  0  0  0  0  0
   16.9868  -14.1314  -15.1906 N   0  0  0  0  0  0  0  0  0  0  0  0
   18.1933  -12.1843  -15.9972 C   0  0  0  0  0  0  0  0  0  0  0  0
   18.7116  -11.8984  -14.8869 O   0  0  0  0  0  0  0  0  0  0  0  0
   21.9729  -12.1426  -20.9583 N   0  0  0  0  0  0  0  0  0  0  0  0
   22.6411  -11.2202  -20.0939 C   0  0  0  0  0  0  0  0  0  0  0  0
   23.7445  -10.7505  -20.4595 O   0  0  0  0  0  0  0  0  0  0  0  0
   22.0817  -10.8065  -18.7964 C   0  0  0  0  0  0  0  0  0  0  0  0
   20.7494  -11.3913  -18.5228 C   0  0  0  0  0  0  0  0  0  0  0  0
   20.1552  -11.0957  -17.1754 C   0  0  2  0  0  0  0  0  0  0  0  0
   18.8537  -11.7805  -17.1642 N   0  0  0  0  0  0  0  0  0  0  0  0
   19.9256   -9.6795  -16.9192 C   0  0  0  0  0  0  0  0  0  0  0  0
   18.8979   -9.1086  -17.3466 O   0  0  0  0  0  0  0  0  0  0  0  0
   20.8669   -8.9309  -16.1805 N   0  0  0  0  0  0  0  0  0  0  0  0
   20.7218   -7.5266  -15.8811 C   0  0  1  0  0  0  0  0  0  0  0  0
   21.5581   -7.2507  -14.6271 C   0  0  0  0  0  0  0  0  0  0  0  0
   21.4315   -5.7897  -14.3033 C   0  0  0  0  0  0  0  0  0  0  0  0
   22.2707   -5.4827  -13.1328 C   0  0  0  0  0  0  0  0  0  0  0  0
   22.9291   -4.4249  -13.0770 O   0  0  0  0  0  0  0  0  0  0  0  0
   21.2992   -6.6866  -16.9583 C   0  0  0  0  0  0  0  0  0  0  0  0
   20.7344   -5.6037  -17.2559 O   0  0  0  0  0  0  0  0  0  0  0  0
   22.3170   -6.4001  -12.0818 O   0  0  0  0  0  0  0  0  0  0  0  0
   22.4364   -7.0336  -17.6600 O   0  0  0  0  0  0  0  0  0  0  0  0
  2  1  1  6
  3  2  1  0
  4  6  1  0
  4  2  1  0
  4  5  1  1
  6  7  2  0
  8  9  1  0
  9 10  2  0
  9 11  1  0
 11 12  1  0
 13 12  1  6
 14 13  1  0
 14  6  1  0
 15 17  1  0
 15 13  1  0
 16 15  2  0
 18 19  1  1
 18 17  1  0
 19 20  1  0
 20 21  1  0
 21 22  2  0
 23 18  1  0
 23 26  1  0
 24 23  2  0
 25 21  1  0
M  END
$$$$
