TQE.pdb
     RDKit          3D

 26 25  0  0  1  0  0  0  0  0999 V2000
   17.0862  -11.7448  -18.2554 C   0  0  0  0  0  0  0  0  0  0  0  0
   18.1121  -11.0931  -17.3695 C   0  0  1  0  0  0  0  0  0  0  0  0
   17.4690  -10.2394  -16.4769 O   0  0  0  0  0  0  0  0  0  0  0  0
   18.9338  -12.1344  -16.6019 C   0  0  2  0  0  0  0  0  0  0  0  0
   18.0299  -12.8563  -15.7507 N   0  0  0  0  0  0  0  0  0  0  0  0
   19.9693  -11.3974  -15.8376 C   0  0  0  0  0  0  0  0  0  0  0  0
   19.6728  -11.0260  -14.6726 O   0  0  0  0  0  0  0  0  0  0  0  0
   26.0609  -12.0704  -16.6772 N   0  0  0  0  0  0  0  0  0  0  0  0
   26.0374  -10.8972  -15.8602 C   0  0  0  0  0  0  0  0  0  0  0  0
   27.1289  -10.4132  -15.4778 O   0  0  0  0  0  0  0  0  0  0  0  0
   24.7828  -10.2424  -15.4541 C   0  0  0  0  0  0  0  0  0  0  0  0
   23.5746  -10.9329  -15.9596 C   0  0  0  0  0  0  0  0  0  0  0  0
   22.2530  -10.3298  -15.5782 C   0  0  2  0  0  0  0  0  0  0  0  0
   21.2446  -11.0928  -16.3293 N   0  0  0  0  0  0  0  0  0  0  0  0
   22.1125   -8.9225  -15.9297 C   0  0  0  0  0  0  0  0  0  0  0  0
   21.8282   -8.5784  -17.0983 O   0  0  0  0  0  0  0  0  0  0  0  0
   22.2969   -7.9247  -14.9486 N   0  0  0  0  0  0  0  0  0  0  0  0
   21.9885   -6.5296  -15.1517 C   0  0  1  0  0  0  0  0  0  0  0  0
   20.4895   -6.4459  -15.4585 C   0  0  0  0  0  0  0  0  0  0  0  0
   20.1410   -4.9981  -15.6530 C   0  0  0  0  0  0  0  0  0  0  0  0
   18.8025   -4.9036  -16.2593 C   0  0  0  0  0  0  0  0  0  0  0  0
   17.7791   -4.8602  -15.5477 O   0  0  0  0  0  0  0  0  0  0  0  0
   22.2025   -5.7472  -13.9101 C   0  0  0  0  0  0  0  0  0  0  0  0
   22.1417   -6.3354  -12.8008 O   0  0  0  0  0  0  0  0  0  0  0  0
   18.6979   -4.8631  -17.6507 O   0  0  0  0  0  0  0  0  0  0  0  0
   22.4679   -4.3924  -13.9066 O   0  0  0  0  0  0  0  0  0  0  0  0
  2  1  1  1
  3  2  1  0
  4  6  1  0
  4  2  1  0
  4  5  1  1
  6  7  2  0
  8  9  1  0
  9 10  2  0
  9 11  1  0
 11 12  1  0
 13 12  1  6
 14 13  1  0
 14  6  1  0
 15 17  1  0
 15 13  1  0
 16 15  2  0
 18 19  1  1
 18 17  1  0
 19 20  1  0
 20 21  1  0
 21 22  2  0
 23 18  1  0
 23 26  1  0
 24 23  2  0
 25 21  1  0
M  END
$$$$
