TQE.pdb
     RDKit          3D

 26 25  0  0  1  0  0  0  0  0999 V2000
   25.6592  -20.9312  -19.1736 C   0  0  0  0  0  0  0  0  0  0  0  0
   26.8806  -20.7676  -18.3115 C   0  0  1  0  0  0  0  0  0  0  0  0
   27.9388  -20.3196  -19.0981 O   0  0  0  0  0  0  0  0  0  0  0  0
   26.6287  -19.7869  -17.1610 C   0  0  2  0  0  0  0  0  0  0  0  0
   27.8939  -19.5195  -16.5361 N   0  0  0  0  0  0  0  0  0  0  0  0
   25.6637  -20.4333  -16.2388 C   0  0  0  0  0  0  0  0  0  0  0  0
   24.7519  -21.1315  -16.7529 O   0  0  0  0  0  0  0  0  0  0  0  0
   26.4372  -20.5581   -9.9730 N   0  0  0  0  0  0  0  0  0  0  0  0
   25.0942  -21.0272  -10.1174 C   0  0  0  0  0  0  0  0  0  0  0  0
   24.4624  -21.3577   -9.0862 O   0  0  0  0  0  0  0  0  0  0  0  0
   24.4321  -21.1358  -11.4279 C   0  0  0  0  0  0  0  0  0  0  0  0
   25.3224  -20.7956  -12.5609 C   0  0  0  0  0  0  0  0  0  0  0  0
   24.7420  -20.9563  -13.9368 C   0  0  2  0  0  0  0  0  0  0  0  0
   25.7054  -20.3147  -14.8441 N   0  0  0  0  0  0  0  0  0  0  0  0
   23.4473  -20.3130  -14.1202 C   0  0  0  0  0  0  0  0  0  0  0  0
   23.3570  -19.0691  -14.2170 O   0  0  0  0  0  0  0  0  0  0  0  0
   22.2722  -21.0917  -14.1910 N   0  0  0  0  0  0  0  0  0  0  0  0
   20.9469  -20.5378  -14.3311 C   0  0  1  0  0  0  0  0  0  0  0  0
   19.9962  -21.7153  -14.5714 C   0  0  0  0  0  0  0  0  0  0  0  0
   18.6279  -21.1543  -14.8333 C   0  0  0  0  0  0  0  0  0  0  0  0
   17.6703  -22.2652  -14.9639 C   0  0  0  0  0  0  0  0  0  0  0  0
   18.0372  -23.4477  -14.8135 O   0  0  0  0  0  0  0  0  0  0  0  0
   20.4998  -19.8934  -13.0724 C   0  0  0  0  0  0  0  0  0  0  0  0
   20.9186  -20.3423  -11.9755 O   0  0  0  0  0  0  0  0  0  0  0  0
   16.3384  -21.9710  -15.2604 O   0  0  0  0  0  0  0  0  0  0  0  0
   19.6387  -18.8148  -13.0399 O   0  0  0  0  0  0  0  0  0  0  0  0
  2  1  1  6
  3  2  1  0
  4  6  1  0
  4  2  1  0
  4  5  1  1
  6  7  2  0
  8  9  1  0
  9 10  2  0
  9 11  1  0
 11 12  1  0
 13 12  1  1
 14 13  1  0
 14  6  1  0
 15 17  1  0
 15 13  1  0
 16 15  2  0
 18 19  1  1
 18 17  1  0
 19 20  1  0
 20 21  1  0
 21 22  2  0
 23 18  1  0
 23 26  1  0
 24 23  2  0
 25 21  1  0
M  END
$$$$
