TQE.pdb
     RDKit          3D

 26 25  0  0  1  0  0  0  0  0999 V2000
   26.6557  -10.6480  -15.5151 C   0  0  0  0  0  0  0  0  0  0  0  0
   26.4104  -11.7441  -16.5151 C   0  0  1  0  0  0  0  0  0  0  0  0
   27.4596  -12.6579  -16.4585 O   0  0  0  0  0  0  0  0  0  0  0  0
   25.0786  -12.4558  -16.2528 C   0  0  2  0  0  0  0  0  0  0  0  0
   25.0264  -13.6055  -17.1119 N   0  0  0  0  0  0  0  0  0  0  0  0
   23.9981  -11.4813  -16.5397 C   0  0  0  0  0  0  0  0  0  0  0  0
   23.7083  -11.2787  -17.7473 O   0  0  0  0  0  0  0  0  0  0  0  0
   18.6315  -11.3857  -14.0101 N   0  0  0  0  0  0  0  0  0  0  0  0
   18.9881  -11.8145  -15.3267 C   0  0  0  0  0  0  0  0  0  0  0  0
   18.2355  -12.6262  -15.9153 O   0  0  0  0  0  0  0  0  0  0  0  0
   20.2023  -11.3392  -16.0104 C   0  0  0  0  0  0  0  0  0  0  0  0
   20.9850  -10.3744  -15.2051 C   0  0  0  0  0  0  0  0  0  0  0  0
   22.2192   -9.8128  -15.8512 C   0  0  2  0  0  0  0  0  0  0  0  0
   23.2877  -10.7799  -15.5577 N   0  0  0  0  0  0  0  0  0  0  0  0
   22.6281   -8.5132  -15.3341 C   0  0  0  0  0  0  0  0  0  0  0  0
   23.2986   -8.4234  -14.2818 O   0  0  0  0  0  0  0  0  0  0  0  0
   22.2697   -7.3325  -16.0196 N   0  0  0  0  0  0  0  0  0  0  0  0
   22.5630   -6.0032  -15.5404 C   0  0  1  0  0  0  0  0  0  0  0  0
   21.9624   -5.0230  -16.5536 C   0  0  0  0  0  0  0  0  0  0  0  0
   22.2550   -3.6303  -16.0738 C   0  0  0  0  0  0  0  0  0  0  0  0
   21.6019   -2.6650  -16.9738 C   0  0  0  0  0  0  0  0  0  0  0  0
   20.9845   -3.0506  -17.9865 O   0  0  0  0  0  0  0  0  0  0  0  0
   21.8819   -5.7362  -14.2504 C   0  0  0  0  0  0  0  0  0  0  0  0
   22.4317   -4.9722  -13.4174 O   0  0  0  0  0  0  0  0  0  0  0  0
   21.6860   -1.3046  -16.6729 O   0  0  0  0  0  0  0  0  0  0  0  0
   20.6626   -6.2878  -13.9111 O   0  0  0  0  0  0  0  0  0  0  0  0
  2  1  1  1
  3  2  1  0
  4  6  1  0
  4  2  1  0
  4  5  1  6
  6  7  2  0
  8  9  1  0
  9 10  2  0
  9 11  1  0
 11 12  1  0
 13 12  1  1
 14 13  1  0
 14  6  1  0
 15 17  1  0
 15 13  1  0
 16 15  2  0
 18 19  1  6
 18 17  1  0
 19 20  1  0
 20 21  1  0
 21 22  2  0
 23 18  1  0
 23 26  1  0
 24 23  2  0
 25 21  1  0
M  END
$$$$
