TQE.pdb
     RDKit          3D

 26 25  0  0  1  0  0  0  0  0999 V2000
   14.4639   -9.6405  -14.6519 C   0  0  0  0  0  0  0  0  0  0  0  0
   14.4111  -10.1528  -13.2389 C   0  0  1  0  0  0  0  0  0  0  0  0
   13.8209  -11.4140  -13.2317 O   0  0  0  0  0  0  0  0  0  0  0  0
   15.8090  -10.2229  -12.6145 C   0  0  2  0  0  0  0  0  0  0  0  0
   15.7007  -10.9748  -11.3956 N   0  0  0  0  0  0  0  0  0  0  0  0
   16.2557   -8.8275  -12.3847 C   0  0  0  0  0  0  0  0  0  0  0  0
   16.3920   -8.0904  -13.3953 O   0  0  0  0  0  0  0  0  0  0  0  0
   15.5834   -5.8013   -6.9358 N   0  0  0  0  0  0  0  0  0  0  0  0
   14.6241   -5.9527   -7.9852 C   0  0  0  0  0  0  0  0  0  0  0  0
   13.4164   -5.7367   -7.7267 O   0  0  0  0  0  0  0  0  0  0  0  0
   15.0033   -6.3523   -9.3505 C   0  0  0  0  0  0  0  0  0  0  0  0
   16.4608   -6.5535   -9.5154 C   0  0  0  0  0  0  0  0  0  0  0  0
   16.9353   -6.8890  -10.9004 C   0  0  2  0  0  0  0  0  0  0  0  0
   16.5323   -8.2858  -11.1233 N   0  0  0  0  0  0  0  0  0  0  0  0
   18.3790   -6.7989  -11.0778 C   0  0  0  0  0  0  0  0  0  0  0  0
   19.1403   -7.6647  -10.5923 O   0  0  0  0  0  0  0  0  0  0  0  0
   18.9385   -5.7260  -11.8045 N   0  0  0  0  0  0  0  0  0  0  0  0
   20.3042   -5.6949  -12.2701 C   0  0  1  0  0  0  0  0  0  0  0  0
   20.4465   -6.8159  -13.3052 C   0  0  0  0  0  0  0  0  0  0  0  0
   21.8702   -6.8210  -13.7832 C   0  0  0  0  0  0  0  0  0  0  0  0
   22.0638   -7.9544  -14.7032 C   0  0  0  0  0  0  0  0  0  0  0  0
   22.1712   -7.7702  -15.9320 O   0  0  0  0  0  0  0  0  0  0  0  0
   20.5977   -4.4294  -12.9856 C   0  0  0  0  0  0  0  0  0  0  0  0
   19.6581   -3.8197  -13.5561 O   0  0  0  0  0  0  0  0  0  0  0  0
   22.1254   -9.2446  -14.1740 O   0  0  0  0  0  0  0  0  0  0  0  0
   21.8614   -3.8785  -13.0597 O   0  0  0  0  0  0  0  0  0  0  0  0
  2  1  1  6
  3  2  1  0
  4  6  1  0
  4  2  1  0
  4  5  1  1
  6  7  2  0
  8  9  1  0
  9 10  2  0
  9 11  1  0
 11 12  1  0
 13 12  1  1
 14 13  1  0
 14  6  1  0
 15 17  1  0
 15 13  1  0
 16 15  2  0
 18 19  1  6
 18 17  1  0
 19 20  1  0
 20 21  1  0
 21 22  2  0
 23 18  1  0
 23 26  1  0
 24 23  2  0
 25 21  1  0
M  END
$$$$
