TQE.pdb
     RDKit          3D

 26 25  0  0  1  0  0  0  0  0999 V2000
   22.7763  -21.1966  -11.1277 C   0  0  0  0  0  0  0  0  0  0  0  0
   23.5343  -20.3844  -10.1140 C   0  0  1  0  0  0  0  0  0  0  0  0
   23.0322  -20.6548   -8.8436 O   0  0  0  0  0  0  0  0  0  0  0  0
   25.0360  -20.6870  -10.1613 C   0  0  2  0  0  0  0  0  0  0  0  0
   25.6610  -19.9392   -9.1064 N   0  0  0  0  0  0  0  0  0  0  0  0
   25.5202  -20.2888  -11.5054 C   0  0  0  0  0  0  0  0  0  0  0  0
   26.4747  -19.4707  -11.5567 O   0  0  0  0  0  0  0  0  0  0  0  0
   28.2394  -19.5775  -16.1119 N   0  0  0  0  0  0  0  0  0  0  0  0
   28.0652  -20.9934  -16.2095 C   0  0  0  0  0  0  0  0  0  0  0  0
   28.5253  -21.5843  -17.2150 O   0  0  0  0  0  0  0  0  0  0  0  0
   27.3672  -21.7764  -15.1764 C   0  0  0  0  0  0  0  0  0  0  0  0
   26.9470  -20.9630  -14.0129 C   0  0  0  0  0  0  0  0  0  0  0  0
   25.5368  -20.4464  -14.0347 C   0  0  2  0  0  0  0  0  0  0  0  0
   24.9846  -20.7636  -12.7090 N   0  0  0  0  0  0  0  0  0  0  0  0
   24.6863  -21.0677  -15.0417 C   0  0  0  0  0  0  0  0  0  0  0  0
   24.3289  -22.2615  -14.9317 O   0  0  0  0  0  0  0  0  0  0  0  0
   24.2529  -20.3242  -16.1606 N   0  0  0  0  0  0  0  0  0  0  0  0
   22.8674  -20.0496  -16.4567 C   0  0  1  0  0  0  0  0  0  0  0  0
   22.3277  -19.1952  -15.3048 C   0  0  0  0  0  0  0  0  0  0  0  0
   20.8703  -18.9425  -15.5646 C   0  0  0  0  0  0  0  0  0  0  0  0
   20.0724  -19.6370  -14.5402 C   0  0  0  0  0  0  0  0  0  0  0  0
   20.3166  -20.8207  -14.2323 O   0  0  0  0  0  0  0  0  0  0  0  0
   22.7347  -19.2255  -17.6825 C   0  0  0  0  0  0  0  0  0  0  0  0
   23.6736  -18.4535  -18.0027 O   0  0  0  0  0  0  0  0  0  0  0  0
   19.0330  -18.9447  -13.9165 O   0  0  0  0  0  0  0  0  0  0  0  0
   21.6230  -19.2607  -18.5003 O   0  0  0  0  0  0  0  0  0  0  0  0
  2  1  1  6
  3  2  1  0
  4  6  1  0
  4  2  1  0
  4  5  1  1
  6  7  2  0
  8  9  1  0
  9 10  2  0
  9 11  1  0
 11 12  1  0
 13 12  1  1
 14 13  1  0
 14  6  1  0
 15 17  1  0
 15 13  1  0
 16 15  2  0
 18 19  1  1
 18 17  1  0
 19 20  1  0
 20 21  1  0
 21 22  2  0
 23 18  1  0
 23 26  1  0
 24 23  2  0
 25 21  1  0
M  END
$$$$
