TQE.pdb
     RDKit          3D

 26 25  0  0  1  0  0  0  0  0999 V2000
   25.5463  -12.5272  -18.0691 C   0  0  0  0  0  0  0  0  0  0  0  0
   24.3605  -11.6455  -17.7895 C   0  0  1  0  0  0  0  0  0  0  0  0
   23.2860  -12.4369  -17.3917 O   0  0  0  0  0  0  0  0  0  0  0  0
   24.6762  -10.6058  -16.7088 C   0  0  2  0  0  0  0  0  0  0  0  0
   24.9492  -11.3171  -15.4913 N   0  0  0  0  0  0  0  0  0  0  0  0
   23.4931   -9.7185  -16.5965 C   0  0  0  0  0  0  0  0  0  0  0  0
   23.2737   -8.9248  -17.5478 O   0  0  0  0  0  0  0  0  0  0  0  0
   18.0232  -10.5193  -15.4584 N   0  0  0  0  0  0  0  0  0  0  0  0
   18.0238   -9.2961  -14.7180 C   0  0  0  0  0  0  0  0  0  0  0  0
   16.9294   -8.7187  -14.5168 O   0  0  0  0  0  0  0  0  0  0  0  0
   19.2585   -8.6944  -14.1877 C   0  0  0  0  0  0  0  0  0  0  0  0
   20.4756   -9.4659  -14.5276 C   0  0  0  0  0  0  0  0  0  0  0  0
   21.5103   -8.7515  -15.3492 C   0  0  2  0  0  0  0  0  0  0  0  0
   22.6141   -9.7107  -15.5064 N   0  0  0  0  0  0  0  0  0  0  0  0
   22.0416   -7.5454  -14.7273 C   0  0  0  0  0  0  0  0  0  0  0  0
   23.1669   -7.5478  -14.1807 O   0  0  0  0  0  0  0  0  0  0  0  0
   21.2873   -6.3524  -14.7348 N   0  0  0  0  0  0  0  0  0  0  0  0
   21.8695   -5.0320  -14.7135 C   0  0  1  0  0  0  0  0  0  0  0  0
   22.6156   -4.8538  -16.0401 C   0  0  0  0  0  0  0  0  0  0  0  0
   23.2761   -3.5053  -16.0175 C   0  0  0  0  0  0  0  0  0  0  0  0
   24.0223   -3.3149  -17.2726 C   0  0  0  0  0  0  0  0  0  0  0  0
   23.6696   -2.4535  -18.1027 O   0  0  0  0  0  0  0  0  0  0  0  0
   20.8203   -3.9843  -14.6832 C   0  0  0  0  0  0  0  0  0  0  0  0
   19.7453   -4.1799  -15.3046 O   0  0  0  0  0  0  0  0  0  0  0  0
   25.1366   -4.1188  -17.5188 O   0  0  0  0  0  0  0  0  0  0  0  0
   20.9621   -2.7921  -14.0016 O   0  0  0  0  0  0  0  0  0  0  0  0
  2  1  1  1
  3  2  1  0
  4  6  1  0
  4  2  1  0
  4  5  1  1
  6  7  2  0
  8  9  1  0
  9 10  2  0
  9 11  1  0
 11 12  1  0
 13 12  1  1
 14 13  1  0
 14  6  1  0
 15 17  1  0
 15 13  1  0
 16 15  2  0
 18 19  1  6
 18 17  1  0
 19 20  1  0
 20 21  1  0
 21 22  2  0
 23 18  1  0
 23 26  1  0
 24 23  2  0
 25 21  1  0
M  END
$$$$
