TQE.pdb
     RDKit          3D

 26 25  0  0  1  0  0  0  0  0999 V2000
   18.0425  -10.7670  -10.4920 C   0  0  0  0  0  0  0  0  0  0  0  0
   16.8053  -11.3762  -11.0920 C   0  0  1  0  0  0  0  0  0  0  0  0
   16.8639  -12.7605  -10.9530 O   0  0  0  0  0  0  0  0  0  0  0  0
   15.5344  -10.8344  -10.4288 C   0  0  2  0  0  0  0  0  0  0  0  0
   14.4188  -11.5477  -10.9851 N   0  0  0  0  0  0  0  0  0  0  0  0
   15.4787   -9.3798  -10.7129 C   0  0  0  0  0  0  0  0  0  0  0  0
   15.0488   -9.0276  -11.8417 O   0  0  0  0  0  0  0  0  0  0  0  0
   14.0658   -5.0018   -6.7180 N   0  0  0  0  0  0  0  0  0  0  0  0
   14.5544   -4.2050   -7.8001 C   0  0  0  0  0  0  0  0  0  0  0  0
   14.4489   -2.9584   -7.7196 O   0  0  0  0  0  0  0  0  0  0  0  0
   15.1726   -4.7950   -8.9990 C   0  0  0  0  0  0  0  0  0  0  0  0
   15.2379   -6.2734   -8.9538 C   0  0  0  0  0  0  0  0  0  0  0  0
   15.8886   -6.9485  -10.1272 C   0  0  2  0  0  0  0  0  0  0  0  0
   15.8719   -8.3845   -9.8097 N   0  0  0  0  0  0  0  0  0  0  0  0
   17.2714   -6.5501  -10.3570 C   0  0  0  0  0  0  0  0  0  0  0  0
   18.1305   -6.6649   -9.4549 O   0  0  0  0  0  0  0  0  0  0  0  0
   17.6598   -6.0265  -11.6088 N   0  0  0  0  0  0  0  0  0  0  0  0
   19.0166   -5.6675  -11.9451 C   0  0  1  0  0  0  0  0  0  0  0  0
   19.4622   -6.6141  -13.0648 C   0  0  0  0  0  0  0  0  0  0  0  0
   20.3988   -7.6240  -12.4662 C   0  0  0  0  0  0  0  0  0  0  0  0
   20.7571   -8.6153  -13.4945 C   0  0  0  0  0  0  0  0  0  0  0  0
   20.3395   -8.5036  -14.6644 O   0  0  0  0  0  0  0  0  0  0  0  0
   19.0845   -4.2972  -12.5082 C   0  0  0  0  0  0  0  0  0  0  0  0
   18.0296   -3.7578  -12.9281 O   0  0  0  0  0  0  0  0  0  0  0  0
   21.5760   -9.6873  -13.1359 O   0  0  0  0  0  0  0  0  0  0  0  0
   20.2569   -3.5738  -12.5972 O   0  0  0  0  0  0  0  0  0  0  0  0
  2  1  1  1
  3  2  1  0
  4  6  1  0
  4  2  1  0
  4  5  1  6
  6  7  2  0
  8  9  1  0
  9 10  2  0
  9 11  1  0
 11 12  1  0
 13 12  1  1
 14 13  1  0
 14  6  1  0
 15 17  1  0
 15 13  1  0
 16 15  2  0
 18 19  1  6
 18 17  1  0
 19 20  1  0
 20 21  1  0
 21 22  2  0
 23 18  1  0
 23 26  1  0
 24 23  2  0
 25 21  1  0
M  END
$$$$
