TQE.pdb
     RDKit          3D

 26 25  0  0  1  0  0  0  0  0999 V2000
   19.3227  -13.7741  -16.5109 C   0  0  0  0  0  0  0  0  0  0  0  0
   18.2797  -14.8547  -16.5900 C   0  0  1  0  0  0  0  0  0  0  0  0
   18.8749  -16.0850  -16.3232 O   0  0  0  0  0  0  0  0  0  0  0  0
   17.1326  -14.6011  -15.6058 C   0  0  2  0  0  0  0  0  0  0  0  0
   16.2006  -15.6856  -15.7396 N   0  0  0  0  0  0  0  0  0  0  0  0
   16.5352  -13.2904  -15.9589 C   0  0  0  0  0  0  0  0  0  0  0  0
   15.7549  -13.2579  -16.9454 O   0  0  0  0  0  0  0  0  0  0  0  0
   11.9303  -11.1149  -15.4280 N   0  0  0  0  0  0  0  0  0  0  0  0
   12.7115  -11.2261  -14.2356 C   0  0  0  0  0  0  0  0  0  0  0  0
   12.1150  -11.3319  -13.1380 O   0  0  0  0  0  0  0  0  0  0  0  0
   14.1837  -11.2195  -14.2524 C   0  0  0  0  0  0  0  0  0  0  0  0
   14.7503  -10.9371  -15.5908 C   0  0  0  0  0  0  0  0  0  0  0  0
   16.2432  -10.7902  -15.6656 C   0  0  2  0  0  0  0  0  0  0  0  0
   16.7845  -12.0984  -15.2675 N   0  0  0  0  0  0  0  0  0  0  0  0
   16.7917   -9.7799  -14.7700 C   0  0  0  0  0  0  0  0  0  0  0  0
   17.3703  -10.1079  -13.7105 O   0  0  0  0  0  0  0  0  0  0  0  0
   16.6756   -8.4101  -15.0902 N   0  0  0  0  0  0  0  0  0  0  0  0
   17.4435   -7.3670  -14.4537 C   0  0  1  0  0  0  0  0  0  0  0  0
   18.9114   -7.6084  -14.8213 C   0  0  0  0  0  0  0  0  0  0  0  0
   19.7421   -6.6020  -14.0780 C   0  0  0  0  0  0  0  0  0  0  0  0
   21.1607   -6.8066  -14.4158 C   0  0  0  0  0  0  0  0  0  0  0  0
   21.8277   -5.9005  -14.9540 O   0  0  0  0  0  0  0  0  0  0  0  0
   17.0924   -6.0338  -15.0003 C   0  0  0  0  0  0  0  0  0  0  0  0
   16.6679   -5.9513  -16.1806 O   0  0  0  0  0  0  0  0  0  0  0  0
   21.7490   -8.0379  -14.1221 O   0  0  0  0  0  0  0  0  0  0  0  0
   17.2079   -4.8650  -14.2746 O   0  0  0  0  0  0  0  0  0  0  0  0
  2  1  1  1
  3  2  1  0
  4  6  1  0
  4  2  1  0
  4  5  1  6
  6  7  2  0
  8  9  1  0
  9 10  2  0
  9 11  1  0
 11 12  1  0
 13 12  1  1
 14 13  1  0
 14  6  1  0
 15 17  1  0
 15 13  1  0
 16 15  2  0
 18 19  1  6
 18 17  1  0
 19 20  1  0
 20 21  1  0
 21 22  2  0
 23 18  1  0
 23 26  1  0
 24 23  2  0
 25 21  1  0
M  END
$$$$
