TQE.pdb
     RDKit          3D

 26 25  0  0  1  0  0  0  0  0999 V2000
   14.5109  -13.0876  -15.0968 C   0  0  0  0  0  0  0  0  0  0  0  0
   15.1549  -14.1896  -14.3013 C   0  0  1  0  0  0  0  0  0  0  0  0
   14.1680  -15.0556  -13.8376 O   0  0  0  0  0  0  0  0  0  0  0  0
   16.1803  -14.9613  -15.1391 C   0  0  2  0  0  0  0  0  0  0  0  0
   16.6431  -16.0657  -14.3460 N   0  0  0  0  0  0  0  0  0  0  0  0
   17.2672  -14.0125  -15.4828 C   0  0  0  0  0  0  0  0  0  0  0  0
   17.8675  -13.4516  -14.5298 O   0  0  0  0  0  0  0  0  0  0  0  0
   22.1870  -14.3058  -18.4510 N   0  0  0  0  0  0  0  0  0  0  0  0
   21.7488  -12.9448  -18.4383 C   0  0  0  0  0  0  0  0  0  0  0  0
   22.5009  -12.0794  -17.9313 O   0  0  0  0  0  0  0  0  0  0  0  0
   20.4516  -12.5275  -18.9959 C   0  0  0  0  0  0  0  0  0  0  0  0
   19.3067  -13.2807  -18.4356 C   0  0  0  0  0  0  0  0  0  0  0  0
   18.7656  -12.7923  -17.1223 C   0  0  2  0  0  0  0  0  0  0  0  0
   17.6619  -13.7062  -16.7909 N   0  0  0  0  0  0  0  0  0  0  0  0
   18.2360  -11.4351  -17.1596 C   0  0  0  0  0  0  0  0  0  0  0  0
   17.0102  -11.2284  -17.2991 O   0  0  0  0  0  0  0  0  0  0  0  0
   19.1065  -10.3307  -17.0379 N   0  0  0  0  0  0  0  0  0  0  0  0
   18.6634   -8.9579  -16.9936 C   0  0  1  0  0  0  0  0  0  0  0  0
   17.8412   -8.7975  -15.7105 C   0  0  0  0  0  0  0  0  0  0  0  0
   17.4651   -7.3490  -15.5846 C   0  0  0  0  0  0  0  0  0  0  0  0
   16.6470   -7.1687  -14.3736 C   0  0  0  0  0  0  0  0  0  0  0  0
   16.3883   -8.1332  -13.6264 O   0  0  0  0  0  0  0  0  0  0  0  0
   19.8120   -8.0279  -16.8698 C   0  0  0  0  0  0  0  0  0  0  0  0
   20.9535   -8.4973  -16.6318 O   0  0  0  0  0  0  0  0  0  0  0  0
   16.1636   -5.8938  -14.0746 O   0  0  0  0  0  0  0  0  0  0  0  0
   19.6939   -6.6589  -17.0033 O   0  0  0  0  0  0  0  0  0  0  0  0
  2  1  1  6
  3  2  1  0
  4  6  1  0
  4  2  1  0
  4  5  1  1
  6  7  2  0
  8  9  1  0
  9 10  2  0
  9 11  1  0
 11 12  1  0
 13 12  1  6
 14 13  1  0
 14  6  1  0
 15 17  1  0
 15 13  1  0
 16 15  2  0
 18 19  1  1
 18 17  1  0
 19 20  1  0
 20 21  1  0
 21 22  2  0
 23 18  1  0
 23 26  1  0
 24 23  2  0
 25 21  1  0
M  END
$$$$
