TQE.pdb
     RDKit          3D

 26 25  0  0  1  0  0  0  0  0999 V2000
   20.1093  -14.8263  -17.1971 C   0  0  0  0  0  0  0  0  0  0  0  0
   19.5285  -13.4497  -17.3685 C   0  0  1  0  0  0  0  0  0  0  0  0
   18.2982  -13.5496  -18.0131 O   0  0  0  0  0  0  0  0  0  0  0  0
   19.3599  -12.7396  -16.0209 C   0  0  2  0  0  0  0  0  0  0  0  0
   18.3964  -13.4830  -15.2581 N   0  0  0  0  0  0  0  0  0  0  0  0
   18.9122  -11.3554  -16.3089 C   0  0  0  0  0  0  0  0  0  0  0  0
   19.7253  -10.5954  -16.8959 O   0  0  0  0  0  0  0  0  0  0  0  0
   12.9515   -9.3779  -15.7712 N   0  0  0  0  0  0  0  0  0  0  0  0
   13.6622   -8.1414  -15.8727 C   0  0  0  0  0  0  0  0  0  0  0  0
   13.0075   -7.0724  -15.8546 O   0  0  0  0  0  0  0  0  0  0  0  0
   15.1279   -8.0808  -15.9981 C   0  0  0  0  0  0  0  0  0  0  0  0
   15.7722   -9.4132  -15.9565 C   0  0  0  0  0  0  0  0  0  0  0  0
   17.2634   -9.4388  -16.1341 C   0  0  2  0  0  0  0  0  0  0  0  0
   17.6517  -10.8479  -15.9705 N   0  0  0  0  0  0  0  0  0  0  0  0
   17.9975   -8.6486  -15.1540 C   0  0  0  0  0  0  0  0  0  0  0  0
   18.5491   -9.1946  -14.1729 O   0  0  0  0  0  0  0  0  0  0  0  0
   18.0950   -7.2482  -15.3017 N   0  0  0  0  0  0  0  0  0  0  0  0
   18.9428   -6.4103  -14.4881 C   0  0  1  0  0  0  0  0  0  0  0  0
   20.3894   -6.7216  -14.8865 C   0  0  0  0  0  0  0  0  0  0  0  0
   21.2936   -5.9210  -13.9938 C   0  0  0  0  0  0  0  0  0  0  0  0
   22.6930   -6.2716  -14.2890 C   0  0  0  0  0  0  0  0  0  0  0  0
   23.4713   -5.4340  -14.7871 O   0  0  0  0  0  0  0  0  0  0  0  0
   18.7281   -4.9748  -14.7923 C   0  0  0  0  0  0  0  0  0  0  0  0
   18.1819   -4.6570  -15.8790 O   0  0  0  0  0  0  0  0  0  0  0  0
   23.1358   -7.5635  -14.0003 O   0  0  0  0  0  0  0  0  0  0  0  0
   19.0998   -3.9570  -13.9368 O   0  0  0  0  0  0  0  0  0  0  0  0
  2  1  1  1
  3  2  1  0
  4  6  1  0
  4  2  1  0
  4  5  1  1
  6  7  2  0
  8  9  1  0
  9 10  2  0
  9 11  1  0
 11 12  1  0
 13 12  1  1
 14 13  1  0
 14  6  1  0
 15 17  1  0
 15 13  1  0
 16 15  2  0
 18 19  1  6
 18 17  1  0
 19 20  1  0
 20 21  1  0
 21 22  2  0
 23 18  1  0
 23 26  1  0
 24 23  2  0
 25 21  1  0
M  END
$$$$
