TQE.pdb
     RDKit          3D

 26 25  0  0  1  0  0  0  0  0999 V2000
   17.5891  -26.3095  -12.5147 C   0  0  0  0  0  0  0  0  0  0  0  0
   18.0638  -24.9008  -12.7428 C   0  0  1  0  0  0  0  0  0  0  0  0
   16.9881  -24.0277  -12.6030 O   0  0  0  0  0  0  0  0  0  0  0  0
   19.1809  -24.5195  -11.7654 C   0  0  2  0  0  0  0  0  0  0  0  0
   18.6091  -24.4827  -10.4484 N   0  0  0  0  0  0  0  0  0  0  0  0
   19.7065  -23.2008  -12.1948 C   0  0  0  0  0  0  0  0  0  0  0  0
   19.3700  -22.1960  -11.5164 O   0  0  0  0  0  0  0  0  0  0  0  0
   24.8453  -22.5747  -15.7158 N   0  0  0  0  0  0  0  0  0  0  0  0
   24.8777  -21.8735  -14.4701 C   0  0  0  0  0  0  0  0  0  0  0  0
   25.9861  -21.4854  -14.0313 O   0  0  0  0  0  0  0  0  0  0  0  0
   23.6613  -21.5943  -13.6890 C   0  0  0  0  0  0  0  0  0  0  0  0
   22.4203  -22.0370  -14.3644 C   0  0  0  0  0  0  0  0  0  0  0  0
   21.1296  -21.7100  -13.6694 C   0  0  2  0  0  0  0  0  0  0  0  0
   20.5462  -23.0082  -13.2987 N   0  0  0  0  0  0  0  0  0  0  0  0
   20.1654  -20.9989  -14.4991 C   0  0  0  0  0  0  0  0  0  0  0  0
   19.4016  -21.6202  -15.2708 O   0  0  0  0  0  0  0  0  0  0  0  0
   20.0818  -19.5911  -14.4409 N   0  0  0  0  0  0  0  0  0  0  0  0
   19.1278  -18.8099  -15.1908 C   0  0  1  0  0  0  0  0  0  0  0  0
   19.2770  -17.3581  -14.7235 C   0  0  0  0  0  0  0  0  0  0  0  0
   18.1807  -16.5553  -15.3630 C   0  0  0  0  0  0  0  0  0  0  0  0
   18.2861  -15.1564  -14.9154 C   0  0  0  0  0  0  0  0  0  0  0  0
   17.4571  -14.3015  -15.2861 O   0  0  0  0  0  0  0  0  0  0  0  0
   19.4505  -18.8154  -16.6382 C   0  0  0  0  0  0  0  0  0  0  0  0
   18.5168  -18.6966  -17.4714 O   0  0  0  0  0  0  0  0  0  0  0  0
   19.3347  -14.8017  -14.0650 O   0  0  0  0  0  0  0  0  0  0  0  0
   20.7356  -18.9456  -17.1257 O   0  0  0  0  0  0  0  0  0  0  0  0
  2  1  1  1
  3  2  1  0
  4  6  1  0
  4  2  1  0
  4  5  1  1
  6  7  2  0
  8  9  1  0
  9 10  2  0
  9 11  1  0
 11 12  1  0
 13 12  1  6
 14 13  1  0
 14  6  1  0
 15 17  1  0
 15 13  1  0
 16 15  2  0
 18 19  1  1
 18 17  1  0
 19 20  1  0
 20 21  1  0
 21 22  2  0
 23 18  1  0
 23 26  1  0
 24 23  2  0
 25 21  1  0
M  END
$$$$
