MMY.pdb
     RDKit          3D

 29 29  0  0  1  0  0  0  0  0999 V2000
    7.7121  -12.0131   17.7327 C   0  0  0  0  0  0  0  0  0  0  0  0
    6.9928  -13.5039   17.0305 S   0  0  0  0  0  0  0  0  0  0  0  0
    7.3532  -14.9710   18.0508 C   0  0  0  0  0  0  0  0  0  0  0  0
    8.6146  -14.6931   18.8265 C   0  0  0  0  0  0  0  0  0  0  0  0
    8.8615  -15.8322   19.7926 C   0  0  2  0  0  0  0  0  0  0  0  0
    7.6149  -16.5132   20.0277 N   0  0  0  0  0  0  0  0  0  0  0  0
    9.3302  -15.2895   21.1234 C   0  0  0  0  0  0  0  0  0  0  0  0
   10.4989  -14.8755   21.2409 O   0  0  0  0  0  0  0  0  0  0  0  0
    6.1531  -11.7530   25.9034 C   0  0  0  0  0  0  0  0  0  0  0  0
    7.1022  -13.0741   26.6964 S   0  0  0  0  0  0  0  0  0  0  0  0
    7.2577  -14.4620   25.5143 C   0  0  0  0  0  0  0  0  0  0  0  0
    7.6904  -13.9391   24.1555 C   0  0  0  0  0  0  0  0  0  0  0  0
    8.7378  -14.7915   23.5403 C   0  0  2  0  0  0  0  0  0  0  0  0
    8.4459  -15.2526   22.2303 N   0  0  0  0  0  0  0  0  0  0  0  0
    9.1756  -15.8686   24.4911 C   0  0  0  0  0  0  0  0  0  0  0  0
    8.3473  -16.7018   24.9251 O   0  0  0  0  0  0  0  0  0  0  0  0
   10.6024  -13.8831   31.3589 O   0  0  0  0  0  0  0  0  0  0  0  0
   10.4320  -14.7267   30.2601 C   0  0  0  0  0  0  0  0  0  0  0  0
   10.8689  -16.0443   30.3407 C   0  0  0  0  0  0  0  0  0  0  0  0
   10.6860  -16.8583   29.2338 C   0  0  0  0  0  0  0  0  0  0  0  0
   10.0944  -16.4060   28.0776 C   0  0  0  0  0  0  0  0  0  0  0  0
    9.9329  -17.2812   26.9363 C   0  0  0  0  0  0  0  0  0  0  0  0
   10.9013  -17.0929   25.8243 C   0  0  2  0  0  0  0  0  0  0  0  0
   10.5148  -16.0027   24.9403 N   0  0  0  0  0  0  0  0  0  0  0  0
   11.1677  -18.3345   25.0787 C   0  0  0  0  0  0  0  0  0  0  0  0
   10.9910  -18.3881   23.7191 O   0  0  0  0  0  0  0  0  0  0  0  0
    9.6743  -15.0977   28.0321 C   0  0  0  0  0  0  0  0  0  0  0  0
    9.8358  -14.2409   29.1182 C   0  0  0  0  0  0  0  0  0  0  0  0
   11.5603  -19.3629   25.6832 O   0  0  0  0  0  0  0  0  0  0  0  0
  2  1  1  0
  3  2  1  0
  4  5  1  0
  4  3  1  0
  5  6  1  1
  7  8  2  0
  7  5  1  0
  9 10  1  0
 10 11  1  0
 11 12  1  0
 13 12  1  1
 13 14  1  0
 14  7  1  0
 15 16  2  0
 15 13  1  0
 18 17  1  0
 19 18  2  0
 20 19  1  0
 21 20  2  0
 21 27  1  0
 22 21  1  0
 23 22  1  1
 23 24  1  0
 24 15  1  0
 25 23  1  0
 26 25  1  0
 27 28  2  0
 28 18  1  0
 29 25  2  0
M  END
$$$$
