MMY.pdb
     RDKit          3D

 29 29  0  0  1  0  0  0  0  0999 V2000
    2.4807  -18.3076   20.7918 C   0  0  0  0  0  0  0  0  0  0  0  0
    3.9366  -18.7835   19.8502 S   0  0  0  0  0  0  0  0  0  0  0  0
    5.4415  -18.7606   20.8789 C   0  0  0  0  0  0  0  0  0  0  0  0
    5.0272  -18.4463   22.2929 C   0  0  0  0  0  0  0  0  0  0  0  0
    6.2285  -18.5891   23.2030 C   0  0  2  0  0  0  0  0  0  0  0  0
    5.7869  -18.4707   24.5684 N   0  0  0  0  0  0  0  0  0  0  0  0
    7.2049  -17.4628   22.9518 C   0  0  0  0  0  0  0  0  0  0  0  0
    7.8430  -17.4298   21.8828 O   0  0  0  0  0  0  0  0  0  0  0  0
    5.9975  -12.4431   26.5346 C   0  0  0  0  0  0  0  0  0  0  0  0
    6.4784  -11.9411   24.8637 S   0  0  0  0  0  0  0  0  0  0  0  0
    6.9277  -13.4414   23.9176 C   0  0  0  0  0  0  0  0  0  0  0  0
    8.0331  -14.1953   24.6364 C   0  0  0  0  0  0  0  0  0  0  0  0
    8.3987  -15.4495   23.9324 C   0  0  2  0  0  0  0  0  0  0  0  0
    7.3935  -16.4512   23.9263 N   0  0  0  0  0  0  0  0  0  0  0  0
    9.7508  -15.9336   24.3724 C   0  0  0  0  0  0  0  0  0  0  0  0
   10.7197  -15.1414   24.4199 O   0  0  0  0  0  0  0  0  0  0  0  0
    9.3541  -13.8358   30.0601 O   0  0  0  0  0  0  0  0  0  0  0  0
    9.8210  -14.8597   29.2345 C   0  0  0  0  0  0  0  0  0  0  0  0
    8.9070  -15.7171   28.6319 C   0  0  0  0  0  0  0  0  0  0  0  0
    9.4004  -16.7242   27.8173 C   0  0  0  0  0  0  0  0  0  0  0  0
   10.7462  -16.8958   27.5926 C   0  0  0  0  0  0  0  0  0  0  0  0
   11.2256  -17.9678   26.7467 C   0  0  0  0  0  0  0  0  0  0  0  0
   11.2954  -17.6725   25.2914 C   0  0  2  0  0  0  0  0  0  0  0  0
   10.0029  -17.2778   24.7502 N   0  0  0  0  0  0  0  0  0  0  0  0
   11.9053  -18.7635   24.5129 C   0  0  0  0  0  0  0  0  0  0  0  0
   13.1523  -19.2398   24.8302 O   0  0  0  0  0  0  0  0  0  0  0  0
   11.6221  -16.0304   28.2042 C   0  0  0  0  0  0  0  0  0  0  0  0
   11.1752  -15.0030   29.0314 C   0  0  0  0  0  0  0  0  0  0  0  0
   11.2873  -19.2710   23.5446 O   0  0  0  0  0  0  0  0  0  0  0  0
  2  1  1  0
  3  2  1  0
  4  5  1  0
  4  3  1  0
  5  6  1  1
  7  8  2  0
  7  5  1  0
  9 10  1  0
 10 11  1  0
 11 12  1  0
 13 12  1  1
 13 14  1  0
 14  7  1  0
 15 16  2  0
 15 13  1  0
 18 17  1  0
 19 18  2  0
 20 19  1  0
 21 20  2  0
 21 27  1  0
 22 21  1  0
 23 22  1  1
 23 24  1  0
 24 15  1  0
 25 23  1  0
 26 25  1  0
 27 28  2  0
 28 18  1  0
 29 25  2  0
M  END
$$$$
