MMY.pdb
     RDKit          3D

 29 29  0  0  1  0  0  0  0  0999 V2000
    7.8650  -11.5110   18.4530 C   0  0  0  0  0  0  0  0  0  0  0  0
    7.6673  -13.0012   17.4664 S   0  0  0  0  0  0  0  0  0  0  0  0
    7.2729  -14.4481   18.5029 C   0  0  0  0  0  0  0  0  0  0  0  0
    7.7067  -14.1365   19.9117 C   0  0  0  0  0  0  0  0  0  0  0  0
    8.4257  -15.3393   20.4846 C   0  0  2  0  0  0  0  0  0  0  0  0
    7.4732  -16.4055   20.6550 N   0  0  0  0  0  0  0  0  0  0  0  0
    8.9749  -15.0100   21.8540 C   0  0  0  0  0  0  0  0  0  0  0  0
   10.0687  -14.4227   21.9524 O   0  0  0  0  0  0  0  0  0  0  0  0
    5.9234  -11.1551   25.9276 C   0  0  0  0  0  0  0  0  0  0  0  0
    6.9450  -12.5907   26.3406 S   0  0  0  0  0  0  0  0  0  0  0  0
    6.6681  -13.8797   25.0719 C   0  0  0  0  0  0  0  0  0  0  0  0
    7.5566  -15.0798   25.3503 C   0  0  0  0  0  0  0  0  0  0  0  0
    8.6608  -15.1936   24.3655 C   0  0  2  0  0  0  0  0  0  0  0  0
    8.2503  -15.3676   23.0183 N   0  0  0  0  0  0  0  0  0  0  0  0
    9.6903  -16.1837   24.8305 C   0  0  0  0  0  0  0  0  0  0  0  0
    9.3732  -17.3799   25.0231 O   0  0  0  0  0  0  0  0  0  0  0  0
   10.9560  -14.8630   31.5513 O   0  0  0  0  0  0  0  0  0  0  0  0
   11.0917  -15.5458   30.3416 C   0  0  0  0  0  0  0  0  0  0  0  0
   10.4634  -15.0474   29.2057 C   0  0  0  0  0  0  0  0  0  0  0  0
   10.6164  -15.7470   28.0189 C   0  0  0  0  0  0  0  0  0  0  0  0
   11.3598  -16.9010   27.9356 C   0  0  0  0  0  0  0  0  0  0  0  0
   11.4856  -17.6126   26.6816 C   0  0  0  0  0  0  0  0  0  0  0  0
   12.0033  -16.8261   25.5313 C   0  0  2  0  0  0  0  0  0  0  0  0
   11.0438  -15.8327   25.0710 N   0  0  0  0  0  0  0  0  0  0  0  0
   12.4868  -17.6731   24.4280 C   0  0  0  0  0  0  0  0  0  0  0  0
   13.3912  -18.6786   24.6599 O   0  0  0  0  0  0  0  0  0  0  0  0
   11.9672  -17.3658   29.0780 C   0  0  0  0  0  0  0  0  0  0  0  0
   11.8433  -16.6984   30.2940 C   0  0  0  0  0  0  0  0  0  0  0  0
   12.0750  -17.4819   23.2572 O   0  0  0  0  0  0  0  0  0  0  0  0
  2  1  1  0
  3  2  1  0
  4  5  1  0
  4  3  1  0
  5  6  1  1
  7  8  2  0
  7  5  1  0
  9 10  1  0
 10 11  1  0
 11 12  1  0
 13 12  1  1
 13 14  1  0
 14  7  1  0
 15 16  2  0
 15 13  1  0
 18 17  1  0
 19 18  2  0
 20 19  1  0
 21 20  2  0
 21 27  1  0
 22 21  1  0
 23 22  1  1
 23 24  1  0
 24 15  1  0
 25 23  1  0
 26 25  1  0
 27 28  2  0
 28 18  1  0
 29 25  2  0
M  END
$$$$
