MMY.pdb
     RDKit          3D

 29 29  0  0  1  0  0  0  0  0999 V2000
    7.6270  -12.6480   17.5870 C   0  0  0  0  0  0  0  0  0  0  0  0
    6.1510  -13.5742   18.0306 S   0  0  0  0  0  0  0  0  0  0  0  0
    6.5257  -14.9166   19.2057 C   0  0  0  0  0  0  0  0  0  0  0  0
    8.0045  -14.8783   19.4913 C   0  0  0  0  0  0  0  0  0  0  0  0
    8.3404  -15.9537   20.5025 C   0  0  2  0  0  0  0  0  0  0  0  0
    7.1462  -16.2830   21.2364 N   0  0  0  0  0  0  0  0  0  0  0  0
    9.3462  -15.4287   21.5014 C   0  0  0  0  0  0  0  0  0  0  0  0
   10.5031  -15.1612   21.1257 O   0  0  0  0  0  0  0  0  0  0  0  0
    5.5031  -13.5214   27.0475 C   0  0  0  0  0  0  0  0  0  0  0  0
    6.9991  -12.8464   26.2850 S   0  0  0  0  0  0  0  0  0  0  0  0
    7.8278  -14.1868   25.3553 C   0  0  0  0  0  0  0  0  0  0  0  0
    9.1090  -13.6661   24.7272 C   0  0  0  0  0  0  0  0  0  0  0  0
    9.7765  -14.6955   23.8925 C   0  0  2  0  0  0  0  0  0  0  0  0
    8.9757  -15.2426   22.8566 N   0  0  0  0  0  0  0  0  0  0  0  0
   10.4581  -15.7206   24.7533 C   0  0  0  0  0  0  0  0  0  0  0  0
   11.4889  -15.4186   25.3974 O   0  0  0  0  0  0  0  0  0  0  0  0
   11.4778  -14.6795   30.9337 O   0  0  0  0  0  0  0  0  0  0  0  0
   11.1804  -15.6068   29.9339 C   0  0  0  0  0  0  0  0  0  0  0  0
   12.1227  -15.8650   28.9444 C   0  0  0  0  0  0  0  0  0  0  0  0
   11.7992  -16.7908   27.9649 C   0  0  0  0  0  0  0  0  0  0  0  0
   10.5922  -17.4497   27.9452 C   0  0  0  0  0  0  0  0  0  0  0  0
   10.2837  -18.4000   26.8981 C   0  0  0  0  0  0  0  0  0  0  0  0
   10.7956  -18.0696   25.5421 C   0  0  2  0  0  0  0  0  0  0  0  0
    9.9876  -17.0527   24.8846 N   0  0  0  0  0  0  0  0  0  0  0  0
   10.9784  -19.2581   24.6922 C   0  0  0  0  0  0  0  0  0  0  0  0
   11.7525  -20.3097   25.1137 O   0  0  0  0  0  0  0  0  0  0  0  0
    9.6837  -17.1703   28.9385 C   0  0  0  0  0  0  0  0  0  0  0  0
    9.9623  -16.2483   29.9443 C   0  0  0  0  0  0  0  0  0  0  0  0
   10.4256  -19.3212   23.5664 O   0  0  0  0  0  0  0  0  0  0  0  0
  2  1  1  0
  3  2  1  0
  4  5  1  0
  4  3  1  0
  5  6  1  1
  7  8  2  0
  7  5  1  0
  9 10  1  0
 10 11  1  0
 11 12  1  0
 13 12  1  1
 13 14  1  0
 14  7  1  0
 15 16  2  0
 15 13  1  0
 18 17  1  0
 19 18  2  0
 20 19  1  0
 21 20  2  0
 21 27  1  0
 22 21  1  0
 23 22  1  1
 23 24  1  0
 24 15  1  0
 25 23  1  0
 26 25  1  0
 27 28  2  0
 28 18  1  0
 29 25  2  0
M  END
$$$$
