MMY.pdb
     RDKit          3D

 29 29  0  0  1  0  0  0  0  0999 V2000
    9.8314  -17.5872   18.1556 C   0  0  0  0  0  0  0  0  0  0  0  0
    8.4769  -17.0702   17.0922 S   0  0  0  0  0  0  0  0  0  0  0  0
    7.5485  -15.6767   17.8130 C   0  0  0  0  0  0  0  0  0  0  0  0
    8.2057  -15.3127   19.1189 C   0  0  0  0  0  0  0  0  0  0  0  0
    7.4498  -14.1621   19.7487 C   0  0  2  0  0  0  0  0  0  0  0  0
    7.6247  -12.9931   18.9265 N   0  0  0  0  0  0  0  0  0  0  0  0
    8.0317  -13.8423   21.1067 C   0  0  0  0  0  0  0  0  0  0  0  0
    9.1167  -13.2357   21.1828 O   0  0  0  0  0  0  0  0  0  0  0  0
    8.0104  -11.8387   26.1446 C   0  0  0  0  0  0  0  0  0  0  0  0
    6.2463  -12.2419   26.1545 S   0  0  0  0  0  0  0  0  0  0  0  0
    5.8926  -13.3185   24.7179 C   0  0  0  0  0  0  0  0  0  0  0  0
    6.8810  -14.4711   24.6787 C   0  0  0  0  0  0  0  0  0  0  0  0
    7.8838  -14.3063   23.5973 C   0  0  2  0  0  0  0  0  0  0  0  0
    7.3476  -14.2305   22.2856 N   0  0  0  0  0  0  0  0  0  0  0  0
    9.0022  -15.2970   23.7513 C   0  0  0  0  0  0  0  0  0  0  0  0
    9.0050  -16.3544   23.0801 O   0  0  0  0  0  0  0  0  0  0  0  0
   10.3592  -15.7836   31.1326 O   0  0  0  0  0  0  0  0  0  0  0  0
   10.7980  -15.7688   29.8077 C   0  0  0  0  0  0  0  0  0  0  0  0
   11.4139  -16.8997   29.2832 C   0  0  0  0  0  0  0  0  0  0  0  0
   11.8389  -16.8554   27.9646 C   0  0  0  0  0  0  0  0  0  0  0  0
   11.6711  -15.7424   27.1744 C   0  0  0  0  0  0  0  0  0  0  0  0
   12.1406  -15.7278   25.8055 C   0  0  0  0  0  0  0  0  0  0  0  0
   11.1430  -16.0967   24.7669 C   0  0  2  0  0  0  0  0  0  0  0  0
   10.0906  -15.0989   24.6397 N   0  0  0  0  0  0  0  0  0  0  0  0
   10.5947  -17.4506   24.9530 C   0  0  0  0  0  0  0  0  0  0  0  0
   11.4077  -18.5533   24.8774 O   0  0  0  0  0  0  0  0  0  0  0  0
   11.0584  -14.6417   27.7250 C   0  0  0  0  0  0  0  0  0  0  0  0
   10.6140  -14.6375   29.0449 C   0  0  0  0  0  0  0  0  0  0  0  0
    9.3705  -17.6107   25.1828 O   0  0  0  0  0  0  0  0  0  0  0  0
  2  1  1  0
  3  2  1  0
  4  5  1  0
  4  3  1  0
  5  6  1  6
  7  8  2  0
  7  5  1  0
  9 10  1  0
 10 11  1  0
 11 12  1  0
 13 12  1  1
 13 14  1  0
 14  7  1  0
 15 16  2  0
 15 13  1  0
 18 17  1  0
 19 18  2  0
 20 19  1  0
 21 20  2  0
 21 27  1  0
 22 21  1  0
 23 22  1  1
 23 24  1  0
 24 15  1  0
 25 23  1  0
 26 25  1  0
 27 28  2  0
 28 18  1  0
 29 25  2  0
M  END
$$$$
