MMY.pdb
     RDKit          3D

 29 29  0  0  1  0  0  0  0  0999 V2000
    7.4991  -21.4830   22.7871 C   0  0  0  0  0  0  0  0  0  0  0  0
    9.0959  -20.7628   22.3817 S   0  0  0  0  0  0  0  0  0  0  0  0
    8.9215  -19.2927   21.3179 C   0  0  0  0  0  0  0  0  0  0  0  0
    7.4729  -18.8791   21.3388 C   0  0  0  0  0  0  0  0  0  0  0  0
    7.2824  -17.6996   20.4091 C   0  0  2  0  0  0  0  0  0  0  0  0
    7.9106  -18.0018   19.1493 N   0  0  0  0  0  0  0  0  0  0  0  0
    7.9765  -16.4802   20.9715 C   0  0  0  0  0  0  0  0  0  0  0  0
    9.0878  -16.1435   20.5212 O   0  0  0  0  0  0  0  0  0  0  0  0
    5.3890  -12.7911   25.9999 C   0  0  0  0  0  0  0  0  0  0  0  0
    7.0629  -12.1960   25.6550 S   0  0  0  0  0  0  0  0  0  0  0  0
    7.4073  -12.4422   23.8750 C   0  0  0  0  0  0  0  0  0  0  0  0
    6.8738  -13.7916   23.4260 C   0  0  0  0  0  0  0  0  0  0  0  0
    7.8505  -14.5213   22.5799 C   0  0  2  0  0  0  0  0  0  0  0  0
    7.3672  -15.7251   22.0045 N   0  0  0  0  0  0  0  0  0  0  0  0
    9.1691  -14.6598   23.2859 C   0  0  0  0  0  0  0  0  0  0  0  0
    9.8782  -13.6503   23.5014 O   0  0  0  0  0  0  0  0  0  0  0  0
   11.6726  -15.9735   31.3042 O   0  0  0  0  0  0  0  0  0  0  0  0
   11.1507  -15.8397   30.0167 C   0  0  0  0  0  0  0  0  0  0  0  0
   10.7027  -14.5940   29.5911 C   0  0  0  0  0  0  0  0  0  0  0  0
   10.1897  -14.4919   28.3075 C   0  0  0  0  0  0  0  0  0  0  0  0
   10.1128  -15.5705   27.4578 C   0  0  0  0  0  0  0  0  0  0  0  0
    9.5578  -15.4290   26.1288 C   0  0  0  0  0  0  0  0  0  0  0  0
   10.3550  -16.0164   25.0201 C   0  0  2  0  0  0  0  0  0  0  0  0
    9.6742  -15.9063   23.7380 N   0  0  0  0  0  0  0  0  0  0  0  0
   10.7882  -17.3970   25.2934 C   0  0  0  0  0  0  0  0  0  0  0  0
   11.6737  -17.6669   26.3062 O   0  0  0  0  0  0  0  0  0  0  0  0
   10.5645  -16.7874   27.9110 C   0  0  0  0  0  0  0  0  0  0  0  0
   11.0884  -16.9406   29.1923 C   0  0  0  0  0  0  0  0  0  0  0  0
   10.3502  -18.3464   24.5978 O   0  0  0  0  0  0  0  0  0  0  0  0
  2  1  1  0
  3  2  1  0
  4  5  1  0
  4  3  1  0
  5  6  1  6
  7  8  2  0
  7  5  1  0
  9 10  1  0
 10 11  1  0
 11 12  1  0
 13 12  1  1
 13 14  1  0
 14  7  1  0
 15 16  2  0
 15 13  1  0
 18 17  1  0
 19 18  2  0
 20 19  1  0
 21 20  2  0
 21 27  1  0
 22 21  1  0
 23 22  1  1
 23 24  1  0
 24 15  1  0
 25 23  1  0
 26 25  1  0
 27 28  2  0
 28 18  1  0
 29 25  2  0
M  END
$$$$
