MMY.pdb
     RDKit          3D

 29 29  0  0  1  0  0  0  0  0999 V2000
    7.2155  -11.4162   19.2391 C   0  0  0  0  0  0  0  0  0  0  0  0
    8.0543  -12.9777   18.9373 S   0  0  0  0  0  0  0  0  0  0  0  0
    7.7708  -14.1672   20.2894 C   0  0  0  0  0  0  0  0  0  0  0  0
    8.4440  -15.4612   19.9121 C   0  0  0  0  0  0  0  0  0  0  0  0
    8.3788  -16.4130   21.0875 C   0  0  2  0  0  0  0  0  0  0  0  0
    6.9961  -16.6923   21.3761 N   0  0  0  0  0  0  0  0  0  0  0  0
    8.9667  -15.7583   22.3167 C   0  0  0  0  0  0  0  0  0  0  0  0
   10.1896  -15.5273   22.3645 O   0  0  0  0  0  0  0  0  0  0  0  0
    5.4293  -11.9093   25.9119 C   0  0  0  0  0  0  0  0  0  0  0  0
    6.7026  -12.1342   27.1780 S   0  0  0  0  0  0  0  0  0  0  0  0
    7.9856  -13.2563   26.5129 C   0  0  0  0  0  0  0  0  0  0  0  0
    7.4844  -13.9208   25.2423 C   0  0  0  0  0  0  0  0  0  0  0  0
    8.5251  -14.7706   24.6123 C   0  0  2  0  0  0  0  0  0  0  0  0
    8.1321  -15.4102   23.4079 N   0  0  0  0  0  0  0  0  0  0  0  0
    9.1487  -15.6888   25.6243 C   0  0  0  0  0  0  0  0  0  0  0  0
    8.4605  -16.1558   26.5608 O   0  0  0  0  0  0  0  0  0  0  0  0
    6.8122  -21.3243   28.9415 O   0  0  0  0  0  0  0  0  0  0  0  0
    7.6286  -20.6175   28.0572 C   0  0  0  0  0  0  0  0  0  0  0  0
    8.9901  -20.5176   28.3214 C   0  0  0  0  0  0  0  0  0  0  0  0
    9.7755  -19.8096   27.4252 C   0  0  0  0  0  0  0  0  0  0  0  0
    9.2539  -19.2132   26.3011 C   0  0  0  0  0  0  0  0  0  0  0  0
   10.1027  -18.4697   25.3950 C   0  0  0  0  0  0  0  0  0  0  0  0
   10.9333  -17.3987   26.0058 C   0  0  2  0  0  0  0  0  0  0  0  0
   10.5143  -16.0711   25.5801 N   0  0  0  0  0  0  0  0  0  0  0  0
   12.3772  -17.6078   25.8061 C   0  0  0  0  0  0  0  0  0  0  0  0
   13.1522  -18.1473   26.8015 O   0  0  0  0  0  0  0  0  0  0  0  0
    7.9037  -19.3316   26.0706 C   0  0  0  0  0  0  0  0  0  0  0  0
    7.0731  -20.0327   26.9414 C   0  0  0  0  0  0  0  0  0  0  0  0
   12.9169  -17.2916   24.7171 O   0  0  0  0  0  0  0  0  0  0  0  0
  2  1  1  0
  3  2  1  0
  4  5  1  0
  4  3  1  0
  5  6  1  1
  7  8  2  0
  7  5  1  0
  9 10  1  0
 10 11  1  0
 11 12  1  0
 13 12  1  1
 13 14  1  0
 14  7  1  0
 15 16  2  0
 15 13  1  0
 18 17  1  0
 19 18  2  0
 20 19  1  0
 21 20  2  0
 21 27  1  0
 22 21  1  0
 23 22  1  6
 23 24  1  0
 24 15  1  0
 25 23  1  0
 26 25  1  0
 27 28  2  0
 28 18  1  0
 29 25  2  0
M  END
$$$$
