MMY.pdb
     RDKit          3D

 29 29  0  0  1  0  0  0  0  0999 V2000
    7.5686  -12.4797   17.7708 C   0  0  0  0  0  0  0  0  0  0  0  0
    7.2131  -14.0158   16.9067 S   0  0  0  0  0  0  0  0  0  0  0  0
    7.5190  -15.4696   17.9632 C   0  0  0  0  0  0  0  0  0  0  0  0
    7.1224  -15.1069   19.3707 C   0  0  0  0  0  0  0  0  0  0  0  0
    7.3686  -16.2956   20.2752 C   0  0  2  0  0  0  0  0  0  0  0  0
    6.2813  -17.2261   20.1168 N   0  0  0  0  0  0  0  0  0  0  0  0
    7.3697  -15.8543   21.7210 C   0  0  0  0  0  0  0  0  0  0  0  0
    6.3013  -15.5058   22.2579 O   0  0  0  0  0  0  0  0  0  0  0  0
    7.3882  -11.8592   27.6828 C   0  0  0  0  0  0  0  0  0  0  0  0
    6.8891  -13.2256   26.6062 S   0  0  0  0  0  0  0  0  0  0  0  0
    8.3182  -13.6884   25.5616 C   0  0  0  0  0  0  0  0  0  0  0  0
    7.8947  -14.7231   24.5334 C   0  0  0  0  0  0  0  0  0  0  0  0
    8.9330  -14.9302   23.4936 C   0  0  2  0  0  0  0  0  0  0  0  0
    8.5783  -15.8364   22.4608 N   0  0  0  0  0  0  0  0  0  0  0  0
   10.2701  -15.2018   24.1217 C   0  0  0  0  0  0  0  0  0  0  0  0
   10.8255  -14.3276   24.8258 O   0  0  0  0  0  0  0  0  0  0  0  0
   10.0653  -13.9165   30.4541 O   0  0  0  0  0  0  0  0  0  0  0  0
   10.1424  -14.7974   29.3743 C   0  0  0  0  0  0  0  0  0  0  0  0
   11.3894  -15.2355   28.9424 C   0  0  0  0  0  0  0  0  0  0  0  0
   11.4344  -16.1100   27.8679 C   0  0  0  0  0  0  0  0  0  0  0  0
   10.2988  -16.5486   27.2281 C   0  0  0  0  0  0  0  0  0  0  0  0
   10.3854  -17.4511   26.1000 C   0  0  0  0  0  0  0  0  0  0  0  0
   11.4601  -17.1651   25.1135 C   0  0  2  0  0  0  0  0  0  0  0  0
   10.9626  -16.4296   23.9599 N   0  0  0  0  0  0  0  0  0  0  0  0
   12.2083  -18.3690   24.7146 C   0  0  0  0  0  0  0  0  0  0  0  0
   11.8510  -19.0784   23.5958 O   0  0  0  0  0  0  0  0  0  0  0  0
    9.0824  -16.0955   27.6811 C   0  0  0  0  0  0  0  0  0  0  0  0
    8.9854  -15.2163   28.7569 C   0  0  0  0  0  0  0  0  0  0  0  0
   13.1855  -18.7615   25.3987 O   0  0  0  0  0  0  0  0  0  0  0  0
  2  1  1  0
  3  2  1  0
  4  5  1  0
  4  3  1  0
  5  6  1  1
  7  8  2  0
  7  5  1  0
  9 10  1  0
 10 11  1  0
 11 12  1  0
 13 12  1  1
 13 14  1  0
 14  7  1  0
 15 16  2  0
 15 13  1  0
 18 17  1  0
 19 18  2  0
 20 19  1  0
 21 20  2  0
 21 27  1  0
 22 21  1  0
 23 22  1  1
 23 24  1  0
 24 15  1  0
 25 23  1  0
 26 25  1  0
 27 28  2  0
 28 18  1  0
 29 25  2  0
M  END
$$$$
