MMY.pdb
     RDKit          3D

 29 29  0  0  1  0  0  0  0  0999 V2000
    7.6653  -11.7128   26.5952 C   0  0  0  0  0  0  0  0  0  0  0  0
    6.3258  -12.5389   27.4649 S   0  0  0  0  0  0  0  0  0  0  0  0
    5.8432  -14.0914   26.6400 C   0  0  0  0  0  0  0  0  0  0  0  0
    6.9965  -14.5306   25.7757 C   0  0  0  0  0  0  0  0  0  0  0  0
    6.5923  -15.7692   25.0046 C   0  0  2  0  0  0  0  0  0  0  0  0
    6.3567  -16.8368   25.9416 N   0  0  0  0  0  0  0  0  0  0  0  0
    7.7231  -16.2095   24.1032 C   0  0  0  0  0  0  0  0  0  0  0  0
    8.3961  -17.2124   24.4071 O   0  0  0  0  0  0  0  0  0  0  0  0
    6.6211  -12.3280   18.6338 C   0  0  0  0  0  0  0  0  0  0  0  0
    8.2484  -12.7406   19.3095 S   0  0  0  0  0  0  0  0  0  0  0  0
    8.0265  -13.9959   20.6221 C   0  0  0  0  0  0  0  0  0  0  0  0
    9.3744  -14.3710   21.2132 C   0  0  0  0  0  0  0  0  0  0  0  0
    9.2553  -15.4452   22.2302 C   0  0  2  0  0  0  0  0  0  0  0  0
    8.0161  -15.4858   22.9205 N   0  0  0  0  0  0  0  0  0  0  0  0
   10.4618  -15.4692   23.1246 C   0  0  0  0  0  0  0  0  0  0  0  0
   10.5692  -14.6446   24.0611 O   0  0  0  0  0  0  0  0  0  0  0  0
   10.1771  -14.0851   29.4883 O   0  0  0  0  0  0  0  0  0  0  0  0
   10.4930  -14.9195   28.4151 C   0  0  0  0  0  0  0  0  0  0  0  0
   11.1405  -16.1255   28.6595 C   0  0  0  0  0  0  0  0  0  0  0  0
   11.4412  -16.9332   27.5739 C   0  0  0  0  0  0  0  0  0  0  0  0
   11.1223  -16.5802   26.2835 C   0  0  0  0  0  0  0  0  0  0  0  0
   11.4648  -17.4428   25.1731 C   0  0  0  0  0  0  0  0  0  0  0  0
   12.3089  -16.8375   24.1096 C   0  0  2  0  0  0  0  0  0  0  0  0
   11.5200  -16.4010   22.9666 N   0  0  0  0  0  0  0  0  0  0  0  0
   13.4291  -17.7028   23.7038 C   0  0  0  0  0  0  0  0  0  0  0  0
   14.4603  -17.9677   24.5693 O   0  0  0  0  0  0  0  0  0  0  0  0
   10.4825  -15.3808   26.0778 C   0  0  0  0  0  0  0  0  0  0  0  0
   10.1592  -14.5350   27.1359 C   0  0  0  0  0  0  0  0  0  0  0  0
   13.4528  -18.2089   22.5547 O   0  0  0  0  0  0  0  0  0  0  0  0
  2  1  1  0
  3  2  1  0
  4  5  1  0
  4  3  1  0
  5  6  1  1
  7  8  2  0
  7  5  1  0
  9 10  1  0
 10 11  1  0
 11 12  1  0
 13 12  1  1
 13 14  1  0
 14  7  1  0
 15 16  2  0
 15 13  1  0
 18 17  1  0
 19 18  2  0
 20 19  1  0
 21 20  2  0
 21 27  1  0
 22 21  1  0
 23 22  1  1
 23 24  1  0
 24 15  1  0
 25 23  1  0
 26 25  1  0
 27 28  2  0
 28 18  1  0
 29 25  2  0
M  END
$$$$
