MMY.pdb
     RDKit          3D

 29 29  0  0  1  0  0  0  0  0999 V2000
    9.6600  -21.4248   25.0397 C   0  0  0  0  0  0  0  0  0  0  0  0
    8.2552  -22.3511   24.4061 S   0  0  0  0  0  0  0  0  0  0  0  0
    6.7751  -21.3000   24.2391 C   0  0  0  0  0  0  0  0  0  0  0  0
    7.2392  -19.8880   23.9928 C   0  0  0  0  0  0  0  0  0  0  0  0
    6.0382  -18.9664   23.9911 C   0  0  2  0  0  0  0  0  0  0  0  0
    5.0409  -19.5135   23.1084 N   0  0  0  0  0  0  0  0  0  0  0  0
    6.4254  -17.6128   23.4407 C   0  0  0  0  0  0  0  0  0  0  0  0
    5.6634  -17.0322   22.6449 O   0  0  0  0  0  0  0  0  0  0  0  0
    6.3822  -11.1340   26.7831 C   0  0  0  0  0  0  0  0  0  0  0  0
    6.0085  -12.8872   26.5348 S   0  0  0  0  0  0  0  0  0  0  0  0
    7.1812  -13.5577   25.3008 C   0  0  0  0  0  0  0  0  0  0  0  0
    6.9263  -15.0411   25.0966 C   0  0  0  0  0  0  0  0  0  0  0  0
    7.8672  -15.6364   24.1155 C   0  0  2  0  0  0  0  0  0  0  0  0
    7.6477  -17.0084   23.8270 N   0  0  0  0  0  0  0  0  0  0  0  0
    9.2881  -15.2984   24.4662 C   0  0  0  0  0  0  0  0  0  0  0  0
    9.6068  -14.1184   24.7390 O   0  0  0  0  0  0  0  0  0  0  0  0
    9.7342  -16.3980   30.6204 O   0  0  0  0  0  0  0  0  0  0  0  0
   10.3026  -16.0401   29.3970 C   0  0  0  0  0  0  0  0  0  0  0  0
   10.0809  -14.7637   28.8920 C   0  0  0  0  0  0  0  0  0  0  0  0
   10.6583  -14.4372   27.6749 C   0  0  0  0  0  0  0  0  0  0  0  0
   11.4314  -15.3260   26.9652 C   0  0  0  0  0  0  0  0  0  0  0  0
   12.0068  -14.9543   25.6903 C   0  0  0  0  0  0  0  0  0  0  0  0
   11.7219  -15.8671   24.5521 C   0  0  2  0  0  0  0  0  0  0  0  0
   10.3231  -16.2680   24.5087 N   0  0  0  0  0  0  0  0  0  0  0  0
   12.6263  -17.0283   24.5073 C   0  0  0  0  0  0  0  0  0  0  0  0
   12.1267  -18.3058   24.4746 O   0  0  0  0  0  0  0  0  0  0  0  0
   11.6301  -16.5796   27.4936 C   0  0  0  0  0  0  0  0  0  0  0  0
   11.0711  -16.9549   28.7128 C   0  0  0  0  0  0  0  0  0  0  0  0
   13.8708  -16.8603   24.4997 O   0  0  0  0  0  0  0  0  0  0  0  0
  2  1  1  0
  3  2  1  0
  4  5  1  0
  4  3  1  0
  5  6  1  6
  7  8  2  0
  7  5  1  0
  9 10  1  0
 10 11  1  0
 11 12  1  0
 13 12  1  1
 13 14  1  0
 14  7  1  0
 15 16  2  0
 15 13  1  0
 18 17  1  0
 19 18  2  0
 20 19  1  0
 21 20  2  0
 21 27  1  0
 22 21  1  0
 23 22  1  1
 23 24  1  0
 24 15  1  0
 25 23  1  0
 26 25  1  0
 27 28  2  0
 28 18  1  0
 29 25  2  0
M  END
$$$$
