MMY.pdb
     RDKit          3D

 29 29  0  0  1  0  0  0  0  0999 V2000
    7.1395  -12.1114   18.3756 C   0  0  0  0  0  0  0  0  0  0  0  0
    6.7062  -13.7214   17.7026 S   0  0  0  0  0  0  0  0  0  0  0  0
    7.1828  -15.0731   18.8292 C   0  0  0  0  0  0  0  0  0  0  0  0
    8.2148  -14.5329   19.7848 C   0  0  0  0  0  0  0  0  0  0  0  0
    8.6351  -15.6356   20.7332 C   0  0  2  0  0  0  0  0  0  0  0  0
    7.4539  -16.2023   21.3306 N   0  0  0  0  0  0  0  0  0  0  0  0
    9.4703  -15.0625   21.8553 C   0  0  0  0  0  0  0  0  0  0  0  0
   10.6655  -14.7798   21.6490 O   0  0  0  0  0  0  0  0  0  0  0  0
    7.0117  -12.4358   27.5365 C   0  0  0  0  0  0  0  0  0  0  0  0
    7.1929  -11.5368   25.9764 S   0  0  0  0  0  0  0  0  0  0  0  0
    7.7572  -12.7141   24.6945 C   0  0  0  0  0  0  0  0  0  0  0  0
    8.6823  -13.7484   25.3122 C   0  0  0  0  0  0  0  0  0  0  0  0
    9.5608  -14.3835   24.2988 C   0  0  2  0  0  0  0  0  0  0  0  0
    8.8975  -14.8489   23.1339 N   0  0  0  0  0  0  0  0  0  0  0  0
   10.4687  -15.3948   24.9385 C   0  0  0  0  0  0  0  0  0  0  0  0
   11.3638  -15.0256   25.7329 O   0  0  0  0  0  0  0  0  0  0  0  0
    9.5654  -14.6767   30.8245 O   0  0  0  0  0  0  0  0  0  0  0  0
    9.7810  -15.5756   29.7788 C   0  0  0  0  0  0  0  0  0  0  0  0
   10.9150  -16.3801   29.7972 C   0  0  0  0  0  0  0  0  0  0  0  0
   11.1022  -17.2631   28.7452 C   0  0  0  0  0  0  0  0  0  0  0  0
   10.2122  -17.3634   27.7016 C   0  0  0  0  0  0  0  0  0  0  0  0
   10.4480  -18.2874   26.6128 C   0  0  0  0  0  0  0  0  0  0  0  0
   11.1748  -17.7416   25.4364 C   0  0  2  0  0  0  0  0  0  0  0  0
   10.3683  -16.7878   24.6887 N   0  0  0  0  0  0  0  0  0  0  0  0
   11.7285  -18.7922   24.5658 C   0  0  0  0  0  0  0  0  0  0  0  0
   12.5740  -19.7479   25.0701 O   0  0  0  0  0  0  0  0  0  0  0  0
    9.1018  -16.5529   27.7150 C   0  0  0  0  0  0  0  0  0  0  0  0
    8.8696  -15.6499   28.7496 C   0  0  0  0  0  0  0  0  0  0  0  0
   11.4317  -18.8236   23.3459 O   0  0  0  0  0  0  0  0  0  0  0  0
  2  1  1  0
  3  2  1  0
  4  5  1  0
  4  3  1  0
  5  6  1  1
  7  8  2  0
  7  5  1  0
  9 10  1  0
 10 11  1  0
 11 12  1  0
 13 12  1  1
 13 14  1  0
 14  7  1  0
 15 16  2  0
 15 13  1  0
 18 17  1  0
 19 18  2  0
 20 19  1  0
 21 20  2  0
 21 27  1  0
 22 21  1  0
 23 22  1  1
 23 24  1  0
 24 15  1  0
 25 23  1  0
 26 25  1  0
 27 28  2  0
 28 18  1  0
 29 25  2  0
M  END
$$$$
