MMY.pdb
     RDKit          3D

 29 29  0  0  1  0  0  0  0  0999 V2000
    8.1204  -12.3627   17.9617 C   0  0  0  0  0  0  0  0  0  0  0  0
    6.6258  -13.2729   18.3747 S   0  0  0  0  0  0  0  0  0  0  0  0
    6.9560  -14.5983   19.5821 C   0  0  0  0  0  0  0  0  0  0  0  0
    8.1615  -15.3656   19.1044 C   0  0  0  0  0  0  0  0  0  0  0  0
    8.5703  -16.3580   20.1721 C   0  0  2  0  0  0  0  0  0  0  0  0
    7.3826  -16.9679   20.7110 N   0  0  0  0  0  0  0  0  0  0  0  0
    9.2575  -15.6393   21.3107 C   0  0  0  0  0  0  0  0  0  0  0  0
   10.4816  -15.4182   21.2481 O   0  0  0  0  0  0  0  0  0  0  0  0
    5.8531  -12.7943   26.6044 C   0  0  0  0  0  0  0  0  0  0  0  0
    7.4489  -11.9835   26.3383 S   0  0  0  0  0  0  0  0  0  0  0  0
    8.6128  -13.2140   25.6463 C   0  0  0  0  0  0  0  0  0  0  0  0
    7.9987  -13.8792   24.4267 C   0  0  0  0  0  0  0  0  0  0  0  0
    9.0171  -14.5760   23.6023 C   0  0  2  0  0  0  0  0  0  0  0  0
    8.5142  -15.2203   22.4422 N   0  0  0  0  0  0  0  0  0  0  0  0
    9.8949  -15.4428   24.4591 C   0  0  0  0  0  0  0  0  0  0  0  0
   10.9161  -14.9637   25.0034 O   0  0  0  0  0  0  0  0  0  0  0  0
   10.8945  -13.8524   30.6305 O   0  0  0  0  0  0  0  0  0  0  0  0
   10.6766  -14.8604   29.6901 C   0  0  0  0  0  0  0  0  0  0  0  0
   11.4642  -16.0058   29.7267 C   0  0  0  0  0  0  0  0  0  0  0  0
   11.2245  -16.9896   28.7801 C   0  0  0  0  0  0  0  0  0  0  0  0
   10.2457  -16.8660   27.8220 C   0  0  0  0  0  0  0  0  0  0  0  0
   10.0335  -17.9082   26.8406 C   0  0  0  0  0  0  0  0  0  0  0  0
   10.5469  -17.6341   25.4727 C   0  0  2  0  0  0  0  0  0  0  0  0
    9.6267  -16.8157   24.6963 N   0  0  0  0  0  0  0  0  0  0  0  0
   10.9360  -18.8567   24.7499 C   0  0  0  0  0  0  0  0  0  0  0  0
   10.3801  -19.1590   23.5325 O   0  0  0  0  0  0  0  0  0  0  0  0
    9.4855  -15.7204   27.8146 C   0  0  0  0  0  0  0  0  0  0  0  0
    9.6881  -14.7038   28.7446 C   0  0  0  0  0  0  0  0  0  0  0  0
   11.7843  -19.6399   25.2438 O   0  0  0  0  0  0  0  0  0  0  0  0
  2  1  1  0
  3  2  1  0
  4  5  1  0
  4  3  1  0
  5  6  1  1
  7  8  2  0
  7  5  1  0
  9 10  1  0
 10 11  1  0
 11 12  1  0
 13 12  1  1
 13 14  1  0
 14  7  1  0
 15 16  2  0
 15 13  1  0
 18 17  1  0
 19 18  2  0
 20 19  1  0
 21 20  2  0
 21 27  1  0
 22 21  1  0
 23 22  1  1
 23 24  1  0
 24 15  1  0
 25 23  1  0
 26 25  1  0
 27 28  2  0
 28 18  1  0
 29 25  2  0
M  END
$$$$
