ILA.pdb
     RDKit          3D

 22 21  0  0  1  0  0  0  0  0999 V2000
    7.2438  -18.4719   20.4629 C   0  0  0  0  0  0  0  0  0  0  0  0
    7.7729  -17.0765   20.6324 C   0  0  0  0  0  0  0  0  0  0  0  0
    6.7218  -16.0246   20.7662 C   0  0  2  0  0  0  0  0  0  0  0  0
    5.9500  -15.9943   19.4604 C   0  0  0  0  0  0  0  0  0  0  0  0
    7.3601  -14.6854   21.0583 C   0  0  2  0  0  0  0  0  0  0  0  0
    8.3557  -14.4103   20.0618 N   0  0  0  0  0  0  0  0  0  0  0  0
    7.9870  -14.6753   22.4023 C   0  0  0  0  0  0  0  0  0  0  0  0
    9.2345  -14.7502   22.4521 O   0  0  0  0  0  0  0  0  0  0  0  0
    7.9470  -11.6625   26.0649 C   0  0  0  0  0  0  0  0  0  0  0  0
    6.7590  -12.5698   25.9480 C   0  0  2  0  0  0  0  0  0  0  0  0
    5.6366  -12.0732   26.8100 C   0  0  0  0  0  0  0  0  0  0  0  0
    7.0108  -14.0109   25.9077 C   0  0  0  0  0  0  0  0  0  0  0  0
    7.9171  -14.6026   24.9144 C   0  0  2  0  0  0  0  0  0  0  0  0
    7.2508  -14.5870   23.5996 N   0  0  0  0  0  0  0  0  0  0  0  0
    8.5497  -15.8815   25.1779 C   0  0  0  0  0  0  0  0  0  0  0  0
    7.8459  -16.9134   25.2742 O   0  0  0  0  0  0  0  0  0  0  0  0
   11.8714  -17.5366   24.9430 C   0  0  0  0  0  0  0  0  0  0  0  0
   10.5131  -17.3675   25.5985 C   0  0  2  0  0  0  0  0  0  0  0  0
    9.9552  -16.0646   25.3417 N   0  0  0  0  0  0  0  0  0  0  0  0
   10.6717  -17.5395   27.0567 C   0  0  0  0  0  0  0  0  0  0  0  0
   11.1551  -18.5947   27.5025 O   0  0  0  0  0  0  0  0  0  0  0  0
   10.2782  -16.5156   27.9328 O   0  0  0  0  0  0  0  0  0  0  0  0
  2  1  1  0
  3  2  1  0
  3  4  1  6
  5  3  1  0
  5  6  1  6
  7  5  1  0
  7  8  2  0
 10  9  1  1
 10 12  1  0
 10 11  1  0
 13 12  1  1
 13 14  1  0
 14  7  1  0
 15 13  1  0
 15 19  1  0
 16 15  2  0
 18 17  1  6
 18 20  1  0
 19 18  1  0
 20 21  2  0
 20 22  1  0
M  END
$$$$
