ILA.pdb
     RDKit          3D

 22 21  0  0  1  0  0  0  0  0999 V2000
    6.7036  -20.9252   21.2585 C   0  0  0  0  0  0  0  0  0  0  0  0
    6.6606  -19.4510   20.9747 C   0  0  0  0  0  0  0  0  0  0  0  0
    7.3718  -18.6035   21.9774 C   0  0  2  0  0  0  0  0  0  0  0  0
    6.8589  -19.0053   23.3475 C   0  0  0  0  0  0  0  0  0  0  0  0
    7.1107  -17.1402   21.7005 C   0  0  2  0  0  0  0  0  0  0  0  0
    7.6043  -16.8122   20.3932 N   0  0  0  0  0  0  0  0  0  0  0  0
    7.7726  -16.2798   22.7110 C   0  0  0  0  0  0  0  0  0  0  0  0
    9.0069  -16.1117   22.5989 O   0  0  0  0  0  0  0  0  0  0  0  0
    6.1024  -12.2937   27.1360 C   0  0  0  0  0  0  0  0  0  0  0  0
    7.2221  -12.8837   26.3320 C   0  0  2  0  0  0  0  0  0  0  0  0
    8.2892  -11.8576   26.0922 C   0  0  0  0  0  0  0  0  0  0  0  0
    6.8642  -13.7762   25.2287 C   0  0  0  0  0  0  0  0  0  0  0  0
    7.7858  -14.8183   24.7567 C   0  0  2  0  0  0  0  0  0  0  0  0
    7.0829  -15.6577   23.7696 N   0  0  0  0  0  0  0  0  0  0  0  0
    8.5253  -15.6221   25.7119 C   0  0  0  0  0  0  0  0  0  0  0  0
    7.9077  -16.3864   26.4890 O   0  0  0  0  0  0  0  0  0  0  0  0
   12.0317  -16.8799   26.0421 C   0  0  0  0  0  0  0  0  0  0  0  0
   10.6351  -16.6362   26.5839 C   0  0  2  0  0  0  0  0  0  0  0  0
    9.9461  -15.6119   25.8417 N   0  0  0  0  0  0  0  0  0  0  0  0
   10.7469  -16.2103   27.9935 C   0  0  0  0  0  0  0  0  0  0  0  0
   10.3508  -15.0801   28.3278 O   0  0  0  0  0  0  0  0  0  0  0  0
   11.2979  -17.0785   28.9492 O   0  0  0  0  0  0  0  0  0  0  0  0
  2  1  1  0
  3  2  1  0
  3  4  1  1
  5  3  1  0
  5  6  1  6
  7  5  1  0
  7  8  2  0
 10  9  1  6
 10 12  1  0
 10 11  1  0
 13 12  1  1
 13 14  1  0
 14  7  1  0
 15 13  1  0
 15 19  1  0
 16 15  2  0
 18 17  1  6
 18 20  1  0
 19 18  1  0
 20 21  2  0
 20 22  1  0
M  END
$$$$
