ILA.pdb
     RDKit          3D

 22 21  0  0  1  0  0  0  0  0999 V2000
    9.0772  -19.9122   20.3270 C   0  0  0  0  0  0  0  0  0  0  0  0
    8.6862  -18.4689   20.1873 C   0  0  0  0  0  0  0  0  0  0  0  0
    8.8935  -17.6466   21.4163 C   0  0  2  0  0  0  0  0  0  0  0  0
    8.1655  -18.3443   22.5498 C   0  0  0  0  0  0  0  0  0  0  0  0
    8.3628  -16.2471   21.2015 C   0  0  2  0  0  0  0  0  0  0  0  0
    8.9607  -15.6922   20.0205 N   0  0  0  0  0  0  0  0  0  0  0  0
    8.6636  -15.3784   22.3652 C   0  0  0  0  0  0  0  0  0  0  0  0
    9.8211  -14.9116   22.4465 O   0  0  0  0  0  0  0  0  0  0  0  0
    5.6921  -12.4729   26.9878 C   0  0  0  0  0  0  0  0  0  0  0  0
    6.9903  -12.8420   26.3345 C   0  0  2  0  0  0  0  0  0  0  0  0
    7.9466  -11.6878   26.3855 C   0  0  0  0  0  0  0  0  0  0  0  0
    6.9268  -13.6301   25.1030 C   0  0  0  0  0  0  0  0  0  0  0  0
    8.1054  -14.3374   24.5847 C   0  0  2  0  0  0  0  0  0  0  0  0
    7.7193  -15.0642   23.3617 N   0  0  0  0  0  0  0  0  0  0  0  0
    8.9038  -15.1656   25.4690 C   0  0  0  0  0  0  0  0  0  0  0  0
    9.5438  -14.6347   26.4060 O   0  0  0  0  0  0  0  0  0  0  0  0
    9.0593  -18.5787   26.7721 C   0  0  0  0  0  0  0  0  0  0  0  0
    9.8031  -17.3452   26.2939 C   0  0  2  0  0  0  0  0  0  0  0  0
    9.0227  -16.5827   25.3535 N   0  0  0  0  0  0  0  0  0  0  0  0
   11.0532  -17.7771   25.6369 C   0  0  0  0  0  0  0  0  0  0  0  0
   11.2443  -17.5045   24.4389 O   0  0  0  0  0  0  0  0  0  0  0  0
   12.0192  -18.4916   26.3629 O   0  0  0  0  0  0  0  0  0  0  0  0
  2  1  1  0
  3  2  1  0
  3  4  1  1
  5  3  1  0
  5  6  1  6
  7  5  1  0
  7  8  2  0
 10  9  1  6
 10 12  1  0
 10 11  1  0
 13 12  1  1
 13 14  1  0
 14  7  1  0
 15 13  1  0
 15 19  1  0
 16 15  2  0
 18 17  1  6
 18 20  1  0
 19 18  1  0
 20 21  2  0
 20 22  1  0
M  END
$$$$
