ILA.pdb
     RDKit          3D

 22 21  0  0  1  0  0  0  0  0999 V2000
    7.3902  -13.1181   17.8190 C   0  0  0  0  0  0  0  0  0  0  0  0
    7.7673  -14.1862   18.8052 C   0  0  0  0  0  0  0  0  0  0  0  0
    7.8973  -13.7130   20.2153 C   0  0  2  0  0  0  0  0  0  0  0  0
    8.9813  -12.6517   20.2333 C   0  0  0  0  0  0  0  0  0  0  0  0
    8.2471  -14.8710   21.1226 C   0  0  2  0  0  0  0  0  0  0  0  0
    7.1742  -15.8243   21.1053 N   0  0  0  0  0  0  0  0  0  0  0  0
    8.4777  -14.4085   22.5127 C   0  0  0  0  0  0  0  0  0  0  0  0
    9.5636  -13.8361   22.7524 O   0  0  0  0  0  0  0  0  0  0  0  0
    5.5199  -12.3426   27.4172 C   0  0  0  0  0  0  0  0  0  0  0  0
    6.8130  -12.7340   26.7668 C   0  0  2  0  0  0  0  0  0  0  0  0
    7.8445  -11.6648   26.9716 C   0  0  0  0  0  0  0  0  0  0  0  0
    6.7413  -13.3798   25.4555 C   0  0  0  0  0  0  0  0  0  0  0  0
    7.8532  -14.1886   24.9381 C   0  0  2  0  0  0  0  0  0  0  0  0
    7.5438  -14.5840   23.5521 N   0  0  0  0  0  0  0  0  0  0  0  0
    8.3615  -15.3058   25.7120 C   0  0  0  0  0  0  0  0  0  0  0  0
    8.7394  -15.1219   26.8921 O   0  0  0  0  0  0  0  0  0  0  0  0
    8.3499  -19.0451   25.6725 C   0  0  0  0  0  0  0  0  0  0  0  0
    8.9543  -17.7075   26.0585 C   0  0  2  0  0  0  0  0  0  0  0  0
    8.4691  -16.6411   25.2207 N   0  0  0  0  0  0  0  0  0  0  0  0
   10.4214  -17.7972   25.9149 C   0  0  0  0  0  0  0  0  0  0  0  0
   11.0073  -17.0516   25.1107 O   0  0  0  0  0  0  0  0  0  0  0  0
   11.1485  -18.7201   26.6832 O   0  0  0  0  0  0  0  0  0  0  0  0
  2  1  1  0
  3  2  1  0
  3  4  1  6
  5  3  1  0
  5  6  1  1
  7  5  1  0
  7  8  2  0
 10  9  1  6
 10 12  1  0
 10 11  1  0
 13 12  1  1
 13 14  1  0
 14  7  1  0
 15 13  1  0
 15 19  1  0
 16 15  2  0
 18 17  1  6
 18 20  1  0
 19 18  1  0
 20 21  2  0
 20 22  1  0
M  END
$$$$
