ILA.pdb
     RDKit          3D

 22 21  0  0  1  0  0  0  0  0999 V2000
    7.8468  -12.0366   19.7194 C   0  0  0  0  0  0  0  0  0  0  0  0
    7.7171  -13.2798   20.5520 C   0  0  0  0  0  0  0  0  0  0  0  0
    8.6892  -14.3607   20.2114 C   0  0  2  0  0  0  0  0  0  0  0  0
    8.3895  -14.8010   18.7908 C   0  0  0  0  0  0  0  0  0  0  0  0
    8.5506  -15.5104   21.1837 C   0  0  2  0  0  0  0  0  0  0  0  0
    7.2365  -16.0748   21.0622 N   0  0  0  0  0  0  0  0  0  0  0  0
    8.7693  -15.0580   22.5790 C   0  0  0  0  0  0  0  0  0  0  0  0
    9.9333  -14.7302   22.8984 O   0  0  0  0  0  0  0  0  0  0  0  0
    5.5857  -12.3411   27.0768 C   0  0  0  0  0  0  0  0  0  0  0  0
    6.8818  -12.8065   26.4837 C   0  0  2  0  0  0  0  0  0  0  0  0
    7.8581  -11.6706   26.4071 C   0  0  0  0  0  0  0  0  0  0  0  0
    6.8133  -13.7334   25.3532 C   0  0  0  0  0  0  0  0  0  0  0  0
    7.9962  -14.4774   24.8999 C   0  0  2  0  0  0  0  0  0  0  0  0
    7.7417  -14.9842   23.5392 N   0  0  0  0  0  0  0  0  0  0  0  0
    8.5835  -15.4970   25.7489 C   0  0  0  0  0  0  0  0  0  0  0  0
    8.8945  -15.2171   26.9297 O   0  0  0  0  0  0  0  0  0  0  0  0
    8.8842  -19.2157   25.9143 C   0  0  0  0  0  0  0  0  0  0  0  0
    9.3627  -17.8160   26.2538 C   0  0  2  0  0  0  0  0  0  0  0  0
    8.8438  -16.8369   25.3335 N   0  0  0  0  0  0  0  0  0  0  0  0
   10.8379  -17.7965   26.1893 C   0  0  0  0  0  0  0  0  0  0  0  0
   11.4970  -18.5079   26.9674 O   0  0  0  0  0  0  0  0  0  0  0  0
   11.4906  -16.9782   25.2537 O   0  0  0  0  0  0  0  0  0  0  0  0
  2  1  1  0
  3  2  1  0
  3  4  1  6
  5  3  1  0
  5  6  1  1
  7  5  1  0
  7  8  2  0
 10  9  1  6
 10 12  1  0
 10 11  1  0
 13 12  1  1
 13 14  1  0
 14  7  1  0
 15 13  1  0
 15 19  1  0
 16 15  2  0
 18 17  1  6
 18 20  1  0
 19 18  1  0
 20 21  2  0
 20 22  1  0
M  END
$$$$
