ILA.pdb
     RDKit          3D

 22 21  0  0  1  0  0  0  0  0999 V2000
    7.9632  -21.8851   25.6605 C   0  0  0  0  0  0  0  0  0  0  0  0
    7.0695  -20.8596   25.0239 C   0  0  0  0  0  0  0  0  0  0  0  0
    7.6178  -19.4708   25.0239 C   0  0  2  0  0  0  0  0  0  0  0  0
    7.9012  -19.1013   26.4678 C   0  0  0  0  0  0  0  0  0  0  0  0
    6.6235  -18.5189   24.3982 C   0  0  2  0  0  0  0  0  0  0  0  0
    6.3434  -18.9444   23.0563 N   0  0  0  0  0  0  0  0  0  0  0  0
    7.1513  -17.1330   24.3793 C   0  0  0  0  0  0  0  0  0  0  0  0
    8.1138  -16.8977   23.6161 O   0  0  0  0  0  0  0  0  0  0  0  0
    7.7448  -11.8813   24.9617 C   0  0  0  0  0  0  0  0  0  0  0  0
    6.4464  -12.3639   25.5359 C   0  0  2  0  0  0  0  0  0  0  0  0
    5.9649  -11.4231   26.6000 C   0  0  0  0  0  0  0  0  0  0  0  0
    6.3046  -13.8013   25.7717 C   0  0  0  0  0  0  0  0  0  0  0  0
    7.2651  -14.7663   25.2202 C   0  0  2  0  0  0  0  0  0  0  0  0
    6.6243  -16.0929   25.1692 N   0  0  0  0  0  0  0  0  0  0  0  0
    8.6101  -14.8429   25.7593 C   0  0  0  0  0  0  0  0  0  0  0  0
    9.5908  -14.6136   25.0143 O   0  0  0  0  0  0  0  0  0  0  0  0
   10.4875  -13.9256   28.5218 C   0  0  0  0  0  0  0  0  0  0  0  0
   10.2679  -15.1171   27.6076 C   0  0  2  0  0  0  0  0  0  0  0  0
    8.9156  -15.1690   27.1143 N   0  0  0  0  0  0  0  0  0  0  0  0
   10.5450  -16.3507   28.3707 C   0  0  0  0  0  0  0  0  0  0  0  0
    9.6666  -17.2256   28.4655 O   0  0  0  0  0  0  0  0  0  0  0  0
   11.7942  -16.5325   28.9849 O   0  0  0  0  0  0  0  0  0  0  0  0
  2  1  1  0
  3  2  1  0
  3  4  1  1
  5  3  1  0
  5  6  1  6
  7  5  1  0
  7  8  2  0
 10  9  1  1
 10 12  1  0
 10 11  1  0
 13 12  1  1
 13 14  1  0
 14  7  1  0
 15 13  1  0
 15 19  1  0
 16 15  2  0
 18 17  1  1
 18 20  1  0
 19 18  1  0
 20 21  2  0
 20 22  1  0
M  END
$$$$
