ILA.pdb
     RDKit          3D

 22 21  0  0  1  0  0  0  0  0999 V2000
    7.9151  -18.7368   20.6107 C   0  0  0  0  0  0  0  0  0  0  0  0
    8.1654  -17.2833   20.8944 C   0  0  0  0  0  0  0  0  0  0  0  0
    6.9307  -16.4602   21.0597 C   0  0  2  0  0  0  0  0  0  0  0  0
    6.1081  -16.6282   19.7960 C   0  0  0  0  0  0  0  0  0  0  0  0
    7.2979  -15.0113   21.2875 C   0  0  2  0  0  0  0  0  0  0  0  0
    8.1377  -14.5631   20.2132 N   0  0  0  0  0  0  0  0  0  0  0  0
    8.0080  -14.8377   22.5779 C   0  0  0  0  0  0  0  0  0  0  0  0
    9.2583  -14.8409   22.5479 O   0  0  0  0  0  0  0  0  0  0  0  0
    7.9364  -11.5031   25.7092 C   0  0  0  0  0  0  0  0  0  0  0  0
    6.8510  -12.5186   25.9068 C   0  0  2  0  0  0  0  0  0  0  0  0
    5.7884  -11.9763   26.8156 C   0  0  0  0  0  0  0  0  0  0  0  0
    7.2550  -13.9151   26.0759 C   0  0  0  0  0  0  0  0  0  0  0  0
    8.0920  -14.5963   25.0791 C   0  0  2  0  0  0  0  0  0  0  0  0
    7.3459  -14.6731   23.8101 N   0  0  0  0  0  0  0  0  0  0  0  0
    8.7262  -15.8604   25.4037 C   0  0  0  0  0  0  0  0  0  0  0  0
    8.0264  -16.8925   25.5234 O   0  0  0  0  0  0  0  0  0  0  0  0
   12.0733  -17.4594   25.1951 C   0  0  0  0  0  0  0  0  0  0  0  0
   10.7002  -17.3309   25.8286 C   0  0  2  0  0  0  0  0  0  0  0  0
   10.1289  -16.0279   25.6042 N   0  0  0  0  0  0  0  0  0  0  0  0
   10.8328  -17.5495   27.2831 C   0  0  0  0  0  0  0  0  0  0  0  0
   11.3517  -18.5987   27.7026 O   0  0  0  0  0  0  0  0  0  0  0  0
   10.3747  -16.5766   28.1855 O   0  0  0  0  0  0  0  0  0  0  0  0
  2  1  1  0
  3  2  1  0
  3  4  1  6
  5  3  1  0
  5  6  1  6
  7  5  1  0
  7  8  2  0
 10  9  1  1
 10 12  1  0
 10 11  1  0
 13 12  1  1
 13 14  1  0
 14  7  1  0
 15 13  1  0
 15 19  1  0
 16 15  2  0
 18 17  1  6
 18 20  1  0
 19 18  1  0
 20 21  2  0
 20 22  1  0
M  END
$$$$
