ILA.pdb
     RDKit          3D

 22 21  0  0  1  0  0  0  0  0999 V2000
    8.0169  -11.9169   20.2437 C   0  0  0  0  0  0  0  0  0  0  0  0
    7.7279  -13.1921   20.9827 C   0  0  0  0  0  0  0  0  0  0  0  0
    8.5329  -14.3669   20.5343 C   0  0  2  0  0  0  0  0  0  0  0  0
    8.1324  -14.6634   19.1013 C   0  0  0  0  0  0  0  0  0  0  0  0
    8.2692  -15.5526   21.4349 C   0  0  2  0  0  0  0  0  0  0  0  0
    6.8796  -15.9036   21.3576 N   0  0  0  0  0  0  0  0  0  0  0  0
    8.6256  -15.2438   22.8410 C   0  0  0  0  0  0  0  0  0  0  0  0
    9.8231  -14.9751   23.0819 O   0  0  0  0  0  0  0  0  0  0  0  0
    7.8989  -11.8319   25.7441 C   0  0  0  0  0  0  0  0  0  0  0  0
    6.7207  -12.7566   25.6718 C   0  0  2  0  0  0  0  0  0  0  0  0
    5.5231  -12.1269   26.3187 C   0  0  0  0  0  0  0  0  0  0  0  0
    6.9635  -14.1800   25.9097 C   0  0  0  0  0  0  0  0  0  0  0  0
    8.0828  -14.8836   25.2694 C   0  0  2  0  0  0  0  0  0  0  0  0
    7.6904  -15.2410   23.8941 N   0  0  0  0  0  0  0  0  0  0  0  0
    8.7273  -15.9933   25.9467 C   0  0  0  0  0  0  0  0  0  0  0  0
    8.9896  -15.9060   27.1686 O   0  0  0  0  0  0  0  0  0  0  0  0
    9.5349  -19.6254   25.3620 C   0  0  0  0  0  0  0  0  0  0  0  0
    9.7098  -18.2873   26.0563 C   0  0  2  0  0  0  0  0  0  0  0  0
    9.0985  -17.2162   25.3122 N   0  0  0  0  0  0  0  0  0  0  0  0
   11.1549  -18.0127   26.1876 C   0  0  0  0  0  0  0  0  0  0  0  0
   11.6811  -17.1359   25.4803 O   0  0  0  0  0  0  0  0  0  0  0  0
   11.9285  -18.7391   27.1067 O   0  0  0  0  0  0  0  0  0  0  0  0
  2  1  1  0
  3  2  1  0
  3  4  1  6
  5  3  1  0
  5  6  1  1
  7  5  1  0
  7  8  2  0
 10  9  1  1
 10 12  1  0
 10 11  1  0
 13 12  1  1
 13 14  1  0
 14  7  1  0
 15 13  1  0
 15 19  1  0
 16 15  2  0
 18 17  1  6
 18 20  1  0
 19 18  1  0
 20 21  2  0
 20 22  1  0
M  END
$$$$
