ILA.pdb
     RDKit          3D

 22 21  0  0  1  0  0  0  0  0999 V2000
    7.3629  -18.1604   19.2480 C   0  0  0  0  0  0  0  0  0  0  0  0
    7.3152  -16.7322   19.7102 C   0  0  0  0  0  0  0  0  0  0  0  0
    7.7879  -16.5151   21.1097 C   0  0  2  0  0  0  0  0  0  0  0  0
    7.0379  -17.4948   21.9926 C   0  0  0  0  0  0  0  0  0  0  0  0
    7.5284  -15.0863   21.5309 C   0  0  2  0  0  0  0  0  0  0  0  0
    8.0419  -14.1982   20.5270 N   0  0  0  0  0  0  0  0  0  0  0  0
    8.1727  -14.7888   22.8331 C   0  0  0  0  0  0  0  0  0  0  0  0
    9.3934  -14.5167   22.8185 O   0  0  0  0  0  0  0  0  0  0  0  0
    8.0357  -11.4517   25.8032 C   0  0  0  0  0  0  0  0  0  0  0  0
    6.9203  -12.4396   25.9723 C   0  0  2  0  0  0  0  0  0  0  0  0
    5.8068  -11.8366   26.7758 C   0  0  0  0  0  0  0  0  0  0  0  0
    7.2853  -13.8319   26.2372 C   0  0  0  0  0  0  0  0  0  0  0  0
    8.1794  -14.5737   25.3381 C   0  0  2  0  0  0  0  0  0  0  0  0
    7.4810  -14.8002   24.0598 N   0  0  0  0  0  0  0  0  0  0  0  0
    8.8452  -15.7759   25.8038 C   0  0  0  0  0  0  0  0  0  0  0  0
    9.4095  -15.7786   26.9222 O   0  0  0  0  0  0  0  0  0  0  0  0
    9.2344  -19.4131   24.8480 C   0  0  0  0  0  0  0  0  0  0  0  0
    9.6205  -18.1397   25.5778 C   0  0  2  0  0  0  0  0  0  0  0  0
    8.9111  -16.9954   25.0660 N   0  0  0  0  0  0  0  0  0  0  0  0
   11.0702  -17.9199   25.4020 C   0  0  0  0  0  0  0  0  0  0  0  0
   11.4719  -16.8861   24.8400 O   0  0  0  0  0  0  0  0  0  0  0  0
   11.9882  -18.8745   25.8678 O   0  0  0  0  0  0  0  0  0  0  0  0
  2  1  1  0
  3  2  1  0
  3  4  1  1
  5  3  1  0
  5  6  1  6
  7  5  1  0
  7  8  2  0
 10  9  1  1
 10 12  1  0
 10 11  1  0
 13 12  1  1
 13 14  1  0
 14  7  1  0
 15 13  1  0
 15 19  1  0
 16 15  2  0
 18 17  1  6
 18 20  1  0
 19 18  1  0
 20 21  2  0
 20 22  1  0
M  END
$$$$
