ILA.pdb
     RDKit          3D

 22 21  0  0  1  0  0  0  0  0999 V2000
    8.0493  -18.3942   20.6672 C   0  0  0  0  0  0  0  0  0  0  0  0
    8.3508  -16.9490   20.9432 C   0  0  0  0  0  0  0  0  0  0  0  0
    7.1472  -16.0724   21.0526 C   0  0  2  0  0  0  0  0  0  0  0  0
    6.3947  -16.1793   19.7396 C   0  0  0  0  0  0  0  0  0  0  0  0
    7.5657  -14.6464   21.3314 C   0  0  2  0  0  0  0  0  0  0  0  0
    8.5644  -14.2532   20.3785 N   0  0  0  0  0  0  0  0  0  0  0  0
    8.1086  -14.5089   22.7047 C   0  0  0  0  0  0  0  0  0  0  0  0
    9.3451  -14.3595   22.8187 O   0  0  0  0  0  0  0  0  0  0  0  0
    7.6080  -11.3453   26.0912 C   0  0  0  0  0  0  0  0  0  0  0  0
    6.4829  -12.3351   26.0369 C   0  0  2  0  0  0  0  0  0  0  0  0
    5.3368  -11.8691   26.8847 C   0  0  0  0  0  0  0  0  0  0  0  0
    6.8310  -13.7562   26.0701 C   0  0  0  0  0  0  0  0  0  0  0  0
    7.8779  -14.3088   25.2003 C   0  0  2  0  0  0  0  0  0  0  0  0
    7.3057  -14.5391   23.8614 N   0  0  0  0  0  0  0  0  0  0  0  0
    8.6704  -15.4401   25.6447 C   0  0  0  0  0  0  0  0  0  0  0  0
    9.2094  -15.4138   26.7752 O   0  0  0  0  0  0  0  0  0  0  0  0
    9.4149  -18.9980   24.6171 C   0  0  0  0  0  0  0  0  0  0  0  0
    9.6648  -17.7177   25.3929 C   0  0  2  0  0  0  0  0  0  0  0  0
    8.8925  -16.6190   24.8723 N   0  0  0  0  0  0  0  0  0  0  0  0
   11.0995  -17.3818   25.2932 C   0  0  0  0  0  0  0  0  0  0  0  0
   11.4446  -16.3059   24.7744 O   0  0  0  0  0  0  0  0  0  0  0  0
   12.0666  -18.2741   25.7824 O   0  0  0  0  0  0  0  0  0  0  0  0
  2  1  1  0
  3  2  1  0
  3  4  1  6
  5  3  1  0
  5  6  1  6
  7  5  1  0
  7  8  2  0
 10  9  1  1
 10 12  1  0
 10 11  1  0
 13 12  1  1
 13 14  1  0
 14  7  1  0
 15 13  1  0
 15 19  1  0
 16 15  2  0
 18 17  1  6
 18 20  1  0
 19 18  1  0
 20 21  2  0
 20 22  1  0
M  END
$$$$
