ILA.pdb
     RDKit          3D

 22 21  0  0  1  0  0  0  0  0999 V2000
   10.5070  -20.7296   21.7186 C   0  0  0  0  0  0  0  0  0  0  0  0
    9.4854  -19.6487   21.5097 C   0  0  0  0  0  0  0  0  0  0  0  0
    9.7067  -18.4177   22.3253 C   0  0  2  0  0  0  0  0  0  0  0  0
    9.7799  -18.8501   23.7777 C   0  0  0  0  0  0  0  0  0  0  0  0
    8.5795  -17.4352   22.1007 C   0  0  2  0  0  0  0  0  0  0  0  0
    8.5263  -17.0887   20.7088 N   0  0  0  0  0  0  0  0  0  0  0  0
    8.7725  -16.2079   22.9106 C   0  0  0  0  0  0  0  0  0  0  0  0
    9.7095  -15.4473   22.5822 O   0  0  0  0  0  0  0  0  0  0  0  0
    5.5797  -12.6011   26.7910 C   0  0  0  0  0  0  0  0  0  0  0  0
    6.8248  -12.8621   25.9973 C   0  0  2  0  0  0  0  0  0  0  0  0
    7.2514  -11.6203   25.2726 C   0  0  0  0  0  0  0  0  0  0  0  0
    6.9195  -14.1396   25.2896 C   0  0  0  0  0  0  0  0  0  0  0  0
    8.2074  -14.6520   24.8030 C   0  0  2  0  0  0  0  0  0  0  0  0
    7.9612  -15.8710   24.0114 N   0  0  0  0  0  0  0  0  0  0  0  0
    9.3151  -14.8272   25.7236 C   0  0  0  0  0  0  0  0  0  0  0  0
   10.4886  -14.6483   25.3232 O   0  0  0  0  0  0  0  0  0  0  0  0
   10.1360  -14.0407   29.0233 C   0  0  0  0  0  0  0  0  0  0  0  0
   10.2882  -15.1523   28.0012 C   0  0  2  0  0  0  0  0  0  0  0  0
    9.1708  -15.1991   27.0935 N   0  0  0  0  0  0  0  0  0  0  0  0
   10.3742  -16.4402   28.7187 C   0  0  0  0  0  0  0  0  0  0  0  0
   11.2872  -16.6258   29.5420 O   0  0  0  0  0  0  0  0  0  0  0  0
    9.4290  -17.4481   28.4709 O   0  0  0  0  0  0  0  0  0  0  0  0
  2  1  1  0
  3  2  1  0
  3  4  1  1
  5  3  1  0
  5  6  1  6
  7  5  1  0
  7  8  2  0
 10  9  1  6
 10 12  1  0
 10 11  1  0
 13 12  1  1
 13 14  1  0
 14  7  1  0
 15 13  1  0
 15 19  1  0
 16 15  2  0
 18 17  1  1
 18 20  1  0
 19 18  1  0
 20 21  2  0
 20 22  1  0
M  END
$$$$
