ILA.pdb
     RDKit          3D

 22 21  0  0  1  0  0  0  0  0999 V2000
    7.7773  -11.8509   20.3486 C   0  0  0  0  0  0  0  0  0  0  0  0
    7.5581  -13.1632   21.0454 C   0  0  0  0  0  0  0  0  0  0  0  0
    8.4096  -14.2830   20.5451 C   0  0  2  0  0  0  0  0  0  0  0  0
    8.0361  -14.5152   19.0931 C   0  0  0  0  0  0  0  0  0  0  0  0
    8.1784  -15.5242   21.3771 C   0  0  2  0  0  0  0  0  0  0  0  0
    6.7863  -15.8707   21.3304 N   0  0  0  0  0  0  0  0  0  0  0  0
    8.5885  -15.3060   22.7855 C   0  0  0  0  0  0  0  0  0  0  0  0
    9.7979  -15.0694   22.9992 O   0  0  0  0  0  0  0  0  0  0  0  0
    7.8765  -12.2385   26.1350 C   0  0  0  0  0  0  0  0  0  0  0  0
    6.7862  -13.2457   25.9222 C   0  0  2  0  0  0  0  0  0  0  0  0
    5.5008  -12.7573   26.5208 C   0  0  0  0  0  0  0  0  0  0  0  0
    7.1300  -14.6586   26.0876 C   0  0  0  0  0  0  0  0  0  0  0  0
    8.1658  -15.2964   25.2640 C   0  0  2  0  0  0  0  0  0  0  0  0
    7.6908  -15.3536   23.8697 N   0  0  0  0  0  0  0  0  0  0  0  0
    8.7530  -16.5561   25.6807 C   0  0  0  0  0  0  0  0  0  0  0  0
    8.0093  -17.5248   25.9597 O   0  0  0  0  0  0  0  0  0  0  0  0
   11.9867  -18.3603   25.3876 C   0  0  0  0  0  0  0  0  0  0  0  0
   10.6722  -18.0992   26.0997 C   0  0  2  0  0  0  0  0  0  0  0  0
   10.1556  -16.7879   25.8025 N   0  0  0  0  0  0  0  0  0  0  0  0
   10.8988  -18.2039   27.5553 C   0  0  0  0  0  0  0  0  0  0  0  0
   11.3706  -19.2516   28.0305 O   0  0  0  0  0  0  0  0  0  0  0  0
   10.5824  -17.1251   28.3960 O   0  0  0  0  0  0  0  0  0  0  0  0
  2  1  1  0
  3  2  1  0
  3  4  1  6
  5  3  1  0
  5  6  1  1
  7  5  1  0
  7  8  2  0
 10  9  1  1
 10 12  1  0
 10 11  1  0
 13 12  1  1
 13 14  1  0
 14  7  1  0
 15 13  1  0
 15 19  1  0
 16 15  2  0
 18 17  1  6
 18 20  1  0
 19 18  1  0
 20 21  2  0
 20 22  1  0
M  END
$$$$
