MDG.pdb
     RDKit          3D

 21 20  0  0  1  0  0  0  0  0999 V2000
   28.7131  -11.7993  -16.3582 C   0  0  0  0  0  0  0  0  0  0  0  0
   27.9510  -13.1825  -15.4532 S   0  0  0  0  0  0  0  0  0  0  0  0
   26.2232  -13.3357  -16.0510 C   0  0  0  0  0  0  0  0  0  0  0  0
   25.7435  -11.9520  -16.3396 C   0  0  0  0  0  0  0  0  0  0  0  0
   24.5916  -11.5024  -15.4873 C   0  0  2  0  0  0  0  0  0  0  0  0
   23.5260  -12.4458  -15.3776 N   0  0  0  0  0  0  0  0  0  0  0  0
   24.0987  -10.1568  -15.8738 C   0  0  0  0  0  0  0  0  0  0  0  0
   24.9309   -9.2240  -16.0134 O   0  0  0  0  0  0  0  0  0  0  0  0
   22.7305   -9.8454  -16.1004 N   0  0  0  0  0  0  0  0  0  0  0  0
   22.2898   -8.5389  -16.5772 C   0  0  1  0  0  0  0  0  0  0  0  0
   20.9082   -8.7235  -17.1422 C   0  0  0  0  0  0  0  0  0  0  0  0
   20.7578   -9.7653  -18.1478 C   0  0  0  0  0  0  0  0  0  0  0  0
   21.4962   -9.7634  -19.1657 O   0  0  0  0  0  0  0  0  0  0  0  0
   22.4304   -7.4956  -15.5704 C   0  0  0  0  0  0  0  0  0  0  0  0
   22.1955   -7.7521  -14.3399 O   0  0  0  0  0  0  0  0  0  0  0  0
   19.8212  -10.7724  -18.0262 O   0  0  0  0  0  0  0  0  0  0  0  0
   22.8265   -6.1635  -15.8591 N   0  0  0  0  0  0  0  0  0  0  0  0
   23.0778   -5.2179  -14.7874 C   0  0  0  0  0  0  0  0  0  0  0  0
   21.8148   -4.6182  -14.3180 C   0  0  0  0  0  0  0  0  0  0  0  0
   21.7295   -3.6570  -13.3265 O   0  0  0  0  0  0  0  0  0  0  0  0
   20.7290   -4.9932  -14.8430 O   0  0  0  0  0  0  0  0  0  0  0  0
  2  1  1  0
  3  2  1  0
  4  3  1  0
  4  5  1  0
  5  6  1  6
  7  8  2  0
  7  5  1  0
  9  7  1  0
 10  9  1  0
 10 14  1  0
 10 11  1  1
 12 16  1  0
 12 11  1  0
 13 12  2  0
 14 15  2  0
 14 17  1  0
 17 18  1  0
 19 18  1  0
 19 20  1  0
 21 19  2  0
M  END
$$$$
