MDG.pdb
     RDKit          3D

 21 20  0  0  1  0  0  0  0  0999 V2000
   26.2552  -19.8102   -7.3912 C   0  0  0  0  0  0  0  0  0  0  0  0
   25.9247  -21.1180   -8.6132 S   0  0  0  0  0  0  0  0  0  0  0  0
   26.7717  -20.6349  -10.1674 C   0  0  0  0  0  0  0  0  0  0  0  0
   26.3063  -21.5818  -11.2232 C   0  0  0  0  0  0  0  0  0  0  0  0
   26.6951  -21.1949  -12.6213 C   0  0  2  0  0  0  0  0  0  0  0  0
   27.9954  -20.6183  -12.7415 N   0  0  0  0  0  0  0  0  0  0  0  0
   25.6597  -20.3615  -13.2818 C   0  0  0  0  0  0  0  0  0  0  0  0
   26.0015  -19.2655  -13.7958 O   0  0  0  0  0  0  0  0  0  0  0  0
   24.2880  -20.7224  -13.3750 N   0  0  0  0  0  0  0  0  0  0  0  0
   23.3532  -20.0380  -14.2615 C   0  0  1  0  0  0  0  0  0  0  0  0
   23.9166  -20.1390  -15.6523 C   0  0  0  0  0  0  0  0  0  0  0  0
   23.6276  -19.0271  -16.5464 C   0  0  0  0  0  0  0  0  0  0  0  0
   22.8589  -19.1965  -17.5271 O   0  0  0  0  0  0  0  0  0  0  0  0
   21.9812  -20.4988  -14.0966 C   0  0  0  0  0  0  0  0  0  0  0  0
   21.7352  -21.7422  -13.9288 O   0  0  0  0  0  0  0  0  0  0  0  0
   24.1728  -17.7728  -16.3570 O   0  0  0  0  0  0  0  0  0  0  0  0
   20.8504  -19.6410  -14.1051 N   0  0  0  0  0  0  0  0  0  0  0  0
   19.5109  -20.1816  -13.9661 C   0  0  0  0  0  0  0  0  0  0  0  0
   19.1382  -20.2845  -12.5428 C   0  0  0  0  0  0  0  0  0  0  0  0
   17.9081  -20.7265  -12.0892 O   0  0  0  0  0  0  0  0  0  0  0  0
   19.9833  -19.9522  -11.6651 O   0  0  0  0  0  0  0  0  0  0  0  0
  2  1  1  0
  3  2  1  0
  4  3  1  0
  4  5  1  0
  5  6  1  1
  7  8  2  0
  7  5  1  0
  9  7  1  0
 10  9  1  0
 10 14  1  0
 10 11  1  6
 12 16  1  0
 12 11  1  0
 13 12  2  0
 14 15  2  0
 14 17  1  0
 17 18  1  0
 19 18  1  0
 19 20  1  0
 21 19  2  0
M  END
$$$$
