MDG.pdb
     RDKit          3D

 21 20  0  0  1  0  0  0  0  0999 V2000
   28.8747  -13.7931  -15.1510 C   0  0  0  0  0  0  0  0  0  0  0  0
   27.7672  -12.3535  -15.2693 S   0  0  0  0  0  0  0  0  0  0  0  0
   27.5677  -11.9675  -17.0518 C   0  0  0  0  0  0  0  0  0  0  0  0
   26.7881  -10.6971  -17.1322 C   0  0  0  0  0  0  0  0  0  0  0  0
   25.5125  -10.6985  -16.3397 C   0  0  2  0  0  0  0  0  0  0  0  0
   24.6826  -11.8414  -16.5460 N   0  0  0  0  0  0  0  0  0  0  0  0
   24.7542   -9.4319  -16.4938 C   0  0  0  0  0  0  0  0  0  0  0  0
   25.3579   -8.3407  -16.3291 O   0  0  0  0  0  0  0  0  0  0  0  0
   23.3722   -9.3664  -16.8196 N   0  0  0  0  0  0  0  0  0  0  0  0
   22.6649   -8.1028  -16.9965 C   0  0  1  0  0  0  0  0  0  0  0  0
   21.4442   -8.3978  -17.8241 C   0  0  0  0  0  0  0  0  0  0  0  0
   20.5950   -7.2604  -18.1470 C   0  0  0  0  0  0  0  0  0  0  0  0
   19.6661   -6.9315  -17.3659 O   0  0  0  0  0  0  0  0  0  0  0  0
   22.4268   -7.4100  -15.7374 C   0  0  0  0  0  0  0  0  0  0  0  0
   22.2436   -8.0752  -14.6609 O   0  0  0  0  0  0  0  0  0  0  0  0
   20.7722   -6.5156  -19.2961 O   0  0  0  0  0  0  0  0  0  0  0  0
   22.3833   -5.9974  -15.6058 N   0  0  0  0  0  0  0  0  0  0  0  0
   22.1154   -5.3825  -14.3189 C   0  0  0  0  0  0  0  0  0  0  0  0
   22.1411   -3.9121  -14.4313 C   0  0  0  0  0  0  0  0  0  0  0  0
   21.9691   -3.0459  -13.3662 O   0  0  0  0  0  0  0  0  0  0  0  0
   22.3313   -3.3900  -15.5654 O   0  0  0  0  0  0  0  0  0  0  0  0
  2  1  1  0
  3  2  1  0
  4  3  1  0
  4  5  1  0
  5  6  1  6
  7  8  2  0
  7  5  1  0
  9  7  1  0
 10  9  1  0
 10 14  1  0
 10 11  1  1
 12 16  1  0
 12 11  1  0
 13 12  2  0
 14 15  2  0
 14 17  1  0
 17 18  1  0
 19 18  1  0
 19 20  1  0
 21 19  2  0
M  END
$$$$
