MDG.pdb
     RDKit          3D

 21 20  0  0  1  0  0  0  0  0999 V2000
   27.1660  -11.5858  -14.7248 C   0  0  0  0  0  0  0  0  0  0  0  0
   26.8997  -12.2616  -16.3937 S   0  0  0  0  0  0  0  0  0  0  0  0
   25.0922  -12.2364  -16.7073 C   0  0  0  0  0  0  0  0  0  0  0  0
   24.5176  -11.1763  -15.8276 C   0  0  0  0  0  0  0  0  0  0  0  0
   23.0546  -10.9144  -16.0430 C   0  0  2  0  0  0  0  0  0  0  0  0
   22.6327  -10.9678  -17.4057 N   0  0  0  0  0  0  0  0  0  0  0  0
   22.6027   -9.6686  -15.3747 C   0  0  0  0  0  0  0  0  0  0  0  0
   22.7706   -9.5520  -14.1336 O   0  0  0  0  0  0  0  0  0  0  0  0
   21.9842   -8.5821  -16.0510 N   0  0  0  0  0  0  0  0  0  0  0  0
   21.5689   -7.3630  -15.3657 C   0  0  1  0  0  0  0  0  0  0  0  0
   22.7938   -6.7961  -14.7023 C   0  0  0  0  0  0  0  0  0  0  0  0
   22.6156   -5.5414  -13.9860 C   0  0  0  0  0  0  0  0  0  0  0  0
   22.1535   -5.5489  -12.8165 O   0  0  0  0  0  0  0  0  0  0  0  0
   20.8367   -6.4509  -16.2340 C   0  0  0  0  0  0  0  0  0  0  0  0
   21.2058   -6.2799  -17.4461 O   0  0  0  0  0  0  0  0  0  0  0  0
   22.9394   -4.3230  -14.5490 O   0  0  0  0  0  0  0  0  0  0  0  0
   19.6979   -5.7092  -15.8245 N   0  0  0  0  0  0  0  0  0  0  0  0
   19.0687   -4.7621  -16.7261 C   0  0  0  0  0  0  0  0  0  0  0  0
   17.7767   -5.2849  -17.2086 C   0  0  0  0  0  0  0  0  0  0  0  0
   16.9304   -4.6025  -18.0643 O   0  0  0  0  0  0  0  0  0  0  0  0
   17.4004   -6.4285  -16.8271 O   0  0  0  0  0  0  0  0  0  0  0  0
  2  1  1  0
  3  2  1  0
  4  3  1  0
  4  5  1  0
  5  6  1  6
  7  8  2  0
  7  5  1  0
  9  7  1  0
 10  9  1  0
 10 14  1  0
 10 11  1  6
 12 16  1  0
 12 11  1  0
 13 12  2  0
 14 15  2  0
 14 17  1  0
 17 18  1  0
 19 18  1  0
 19 20  1  0
 21 19  2  0
M  END
$$$$
