MDG.pdb
     RDKit          3D

 21 20  0  0  1  0  0  0  0  0999 V2000
   37.3582  -14.0659   -8.2410 C   0  0  0  0  0  0  0  0  0  0  0  0
   38.3566  -12.5454   -8.3060 S   0  0  0  0  0  0  0  0  0  0  0  0
   39.9159  -12.8810   -7.3994 C   0  0  0  0  0  0  0  0  0  0  0  0
   40.7514  -11.6489   -7.5095 C   0  0  0  0  0  0  0  0  0  0  0  0
   40.2035  -10.4581   -6.7765 C   0  0  2  0  0  0  0  0  0  0  0  0
   38.7963  -10.4978   -6.5405 N   0  0  0  0  0  0  0  0  0  0  0  0
   40.6224   -9.1760   -7.3958 C   0  0  0  0  0  0  0  0  0  0  0  0
   41.8065   -8.7835   -7.2339 O   0  0  0  0  0  0  0  0  0  0  0  0
   39.7647   -8.3490   -8.1709 N   0  0  0  0  0  0  0  0  0  0  0  0
   40.2014   -7.0795   -8.7419 C   0  0  1  0  0  0  0  0  0  0  0  0
   41.4764   -7.3532   -9.4912 C   0  0  0  0  0  0  0  0  0  0  0  0
   42.1087   -6.2062  -10.1265 C   0  0  0  0  0  0  0  0  0  0  0  0
   41.7001   -5.8076  -11.2470 O   0  0  0  0  0  0  0  0  0  0  0  0
   39.1507   -6.4115   -9.4980 C   0  0  0  0  0  0  0  0  0  0  0  0
   38.3437   -7.0925  -10.2190 O   0  0  0  0  0  0  0  0  0  0  0  0
   43.1567   -5.5270   -9.5377 O   0  0  0  0  0  0  0  0  0  0  0  0
   38.9422   -5.0075   -9.4952 N   0  0  0  0  0  0  0  0  0  0  0  0
   37.7585   -4.4343  -10.1085 C   0  0  0  0  0  0  0  0  0  0  0  0
   37.8132   -4.5777  -11.5753 C   0  0  0  0  0  0  0  0  0  0  0  0
   38.8091   -5.2556  -12.2556 O   0  0  0  0  0  0  0  0  0  0  0  0
   36.9003   -4.0548  -12.2741 O   0  0  0  0  0  0  0  0  0  0  0  0
  2  1  1  0
  3  2  1  0
  4  3  1  0
  4  5  1  0
  5  6  1  6
  7  8  2  0
  7  5  1  0
  9  7  1  0
 10  9  1  0
 10 14  1  0
 10 11  1  6
 12 16  1  0
 12 11  1  0
 13 12  2  0
 14 15  2  0
 14 17  1  0
 17 18  1  0
 19 18  1  0
 19 20  1  0
 21 19  2  0
M  END
$$$$
