MDG.pdb
     RDKit          3D

 21 20  0  0  1  0  0  0  0  0999 V2000
   16.3960   -9.1742  -19.1266 C   0  0  0  0  0  0  0  0  0  0  0  0
   15.6377  -10.5591  -18.2211 S   0  0  0  0  0  0  0  0  0  0  0  0
   16.8945  -11.1898  -17.0426 C   0  0  0  0  0  0  0  0  0  0  0  0
   17.2692  -10.0458  -16.1601 C   0  0  0  0  0  0  0  0  0  0  0  0
   18.3724  -10.3463  -15.1864 C   0  0  2  0  0  0  0  0  0  0  0  0
   18.1173  -11.4493  -14.3169 N   0  0  0  0  0  0  0  0  0  0  0  0
   18.8025   -9.1406  -14.4353 C   0  0  0  0  0  0  0  0  0  0  0  0
   18.1815   -8.8262  -13.3875 O   0  0  0  0  0  0  0  0  0  0  0  0
   19.8840   -8.3044  -14.8244 N   0  0  0  0  0  0  0  0  0  0  0  0
   20.2285   -7.0803  -14.1094 C   0  0  1  0  0  0  0  0  0  0  0  0
   21.7295   -6.9846  -14.1055 C   0  0  0  0  0  0  0  0  0  0  0  0
   22.2976   -5.8029  -13.4730 C   0  0  0  0  0  0  0  0  0  0  0  0
   22.1150   -5.6017  -12.2451 O   0  0  0  0  0  0  0  0  0  0  0  0
   19.5186   -5.9137  -14.6163 C   0  0  0  0  0  0  0  0  0  0  0  0
   19.6510   -4.7793  -14.0414 O   0  0  0  0  0  0  0  0  0  0  0  0
   23.0416   -4.8789  -14.1794 O   0  0  0  0  0  0  0  0  0  0  0  0
   18.6589   -5.9375  -15.7454 N   0  0  0  0  0  0  0  0  0  0  0  0
   17.9975   -4.7274  -16.1971 C   0  0  0  0  0  0  0  0  0  0  0  0
   17.1891   -4.9966  -17.4010 C   0  0  0  0  0  0  0  0  0  0  0  0
   16.3731   -4.0641  -18.0165 O   0  0  0  0  0  0  0  0  0  0  0  0
   17.2308   -6.1476  -17.9192 O   0  0  0  0  0  0  0  0  0  0  0  0
  2  1  1  0
  3  2  1  0
  4  3  1  0
  4  5  1  0
  5  6  1  1
  7  8  2  0
  7  5  1  0
  9  7  1  0
 10  9  1  0
 10 14  1  0
 10 11  1  6
 12 16  1  0
 12 11  1  0
 13 12  2  0
 14 15  2  0
 14 17  1  0
 17 18  1  0
 19 18  1  0
 19 20  1  0
 21 19  2  0
M  END
$$$$
