MDG.pdb
     RDKit          3D

 21 20  0  0  1  0  0  0  0  0999 V2000
   28.7745  -19.7657   -3.8623 C   0  0  0  0  0  0  0  0  0  0  0  0
   28.7696  -19.7838   -5.6824 S   0  0  0  0  0  0  0  0  0  0  0  0
   27.0222  -19.9417   -6.2187 C   0  0  0  0  0  0  0  0  0  0  0  0
   27.0263  -19.9180   -7.7112 C   0  0  0  0  0  0  0  0  0  0  0  0
   25.6861  -20.1677   -8.3412 C   0  0  2  0  0  0  0  0  0  0  0  0
   25.0336  -21.3596   -7.9040 N   0  0  0  0  0  0  0  0  0  0  0  0
   25.7362  -20.0784   -9.8219 C   0  0  0  0  0  0  0  0  0  0  0  0
   26.1160  -19.0023  -10.3512 O   0  0  0  0  0  0  0  0  0  0  0  0
   25.3794  -21.1411  -10.6957 N   0  0  0  0  0  0  0  0  0  0  0  0
   25.2654  -20.9674  -12.1397 C   0  0  1  0  0  0  0  0  0  0  0  0
   26.2171  -21.9443  -12.7736 C   0  0  0  0  0  0  0  0  0  0  0  0
   27.3043  -21.3705  -13.5533 C   0  0  0  0  0  0  0  0  0  0  0  0
   28.4450  -21.2459  -13.0390 O   0  0  0  0  0  0  0  0  0  0  0  0
   23.8870  -21.0288  -12.6068 C   0  0  0  0  0  0  0  0  0  0  0  0
   22.9949  -21.6177  -11.9053 O   0  0  0  0  0  0  0  0  0  0  0  0
   27.1297  -20.9506  -14.8570 O   0  0  0  0  0  0  0  0  0  0  0  0
   23.4376  -20.4609  -13.8276 N   0  0  0  0  0  0  0  0  0  0  0  0
   22.0424  -20.5515  -14.2161 C   0  0  0  0  0  0  0  0  0  0  0  0
   21.6501  -19.3780  -15.0187 C   0  0  0  0  0  0  0  0  0  0  0  0
   20.9570  -19.4476  -16.2141 O   0  0  0  0  0  0  0  0  0  0  0  0
   21.9577  -18.2251  -14.6047 O   0  0  0  0  0  0  0  0  0  0  0  0
  2  1  1  0
  3  2  1  0
  4  3  1  0
  4  5  1  0
  5  6  1  6
  7  8  2  0
  7  5  1  0
  9  7  1  0
 10  9  1  0
 10 14  1  0
 10 11  1  6
 12 16  1  0
 12 11  1  0
 13 12  2  0
 14 15  2  0
 14 17  1  0
 17 18  1  0
 19 18  1  0
 19 20  1  0
 21 19  2  0
M  END
$$$$
