MDG.pdb
     RDKit          3D

 21 20  0  0  1  0  0  0  0  0999 V2000
   32.9811  -21.3455  -11.0278 C   0  0  0  0  0  0  0  0  0  0  0  0
   31.4070  -22.0454  -11.6155 S   0  0  0  0  0  0  0  0  0  0  0  0
   30.4046  -20.6542  -12.2680 C   0  0  0  0  0  0  0  0  0  0  0  0
   29.1145  -21.2379  -12.7402 C   0  0  0  0  0  0  0  0  0  0  0  0
   28.1293  -20.2307  -13.2604 C   0  0  2  0  0  0  0  0  0  0  0  0
   28.0386  -19.0317  -12.4911 N   0  0  0  0  0  0  0  0  0  0  0  0
   26.7935  -20.8282  -13.5089 C   0  0  0  0  0  0  0  0  0  0  0  0
   26.7037  -21.8033  -14.2984 O   0  0  0  0  0  0  0  0  0  0  0  0
   25.5912  -20.3674  -12.9069 N   0  0  0  0  0  0  0  0  0  0  0  0
   24.3252  -21.0814  -13.0320 C   0  0  1  0  0  0  0  0  0  0  0  0
   23.7991  -21.2852  -11.6378 C   0  0  0  0  0  0  0  0  0  0  0  0
   24.7910  -21.5663  -10.6101 C   0  0  0  0  0  0  0  0  0  0  0  0
   25.5001  -22.6016  -10.6916 O   0  0  0  0  0  0  0  0  0  0  0  0
   23.4102  -20.4446  -13.9697 C   0  0  0  0  0  0  0  0  0  0  0  0
   22.3377  -21.0410  -14.3287 O   0  0  0  0  0  0  0  0  0  0  0  0
   24.9877  -20.7271   -9.5315 O   0  0  0  0  0  0  0  0  0  0  0  0
   23.6229  -19.1611  -14.5372 N   0  0  0  0  0  0  0  0  0  0  0  0
   22.6729  -18.6034  -15.4818 C   0  0  0  0  0  0  0  0  0  0  0  0
   21.3590  -18.4071  -14.8413 C   0  0  0  0  0  0  0  0  0  0  0  0
   21.0887  -18.6900  -13.5142 O   0  0  0  0  0  0  0  0  0  0  0  0
   20.4051  -17.9518  -15.5325 O   0  0  0  0  0  0  0  0  0  0  0  0
  2  1  1  0
  3  2  1  0
  4  3  1  0
  4  5  1  0
  5  6  1  1
  7  8  2  0
  7  5  1  0
  9  7  1  0
 10  9  1  0
 10 14  1  0
 10 11  1  1
 12 16  1  0
 12 11  1  0
 13 12  2  0
 14 15  2  0
 14 17  1  0
 17 18  1  0
 19 18  1  0
 19 20  1  0
 21 19  2  0
M  END
$$$$
