MDG.pdb
     RDKit          3D

 21 20  0  0  1  0  0  0  0  0999 V2000
   30.7043  -22.8828   -8.6191 C   0  0  0  0  0  0  0  0  0  0  0  0
   29.5427  -21.8293   -7.6951 S   0  0  0  0  0  0  0  0  0  0  0  0
   28.9633  -20.5223   -8.8449 C   0  0  0  0  0  0  0  0  0  0  0  0
   28.1441  -21.2020   -9.8914 C   0  0  0  0  0  0  0  0  0  0  0  0
   27.6660  -20.2984  -10.9916 C   0  0  2  0  0  0  0  0  0  0  0  0
   27.2638  -18.9974  -10.5634 N   0  0  0  0  0  0  0  0  0  0  0  0
   26.6322  -20.9437  -11.8389 C   0  0  0  0  0  0  0  0  0  0  0  0
   26.8732  -22.0755  -12.3318 O   0  0  0  0  0  0  0  0  0  0  0  0
   25.3698  -20.3618  -12.1357 N   0  0  0  0  0  0  0  0  0  0  0  0
   24.4221  -20.9699  -13.0632 C   0  0  1  0  0  0  0  0  0  0  0  0
   23.0444  -20.6150  -12.5751 C   0  0  0  0  0  0  0  0  0  0  0  0
   22.7390  -20.9684  -11.1963 C   0  0  0  0  0  0  0  0  0  0  0  0
   23.6064  -21.5447  -10.4914 O   0  0  0  0  0  0  0  0  0  0  0  0
   24.7072  -20.6436  -14.4539 C   0  0  0  0  0  0  0  0  0  0  0  0
   23.9477  -21.0781  -15.3862 O   0  0  0  0  0  0  0  0  0  0  0  0
   21.5144  -20.6911  -10.6221 O   0  0  0  0  0  0  0  0  0  0  0  0
   25.8048  -19.8466  -14.8722 N   0  0  0  0  0  0  0  0  0  0  0  0
   25.9698  -19.4898  -16.2691 C   0  0  0  0  0  0  0  0  0  0  0  0
   27.0898  -20.2401  -16.8673 C   0  0  0  0  0  0  0  0  0  0  0  0
   27.6963  -19.9108  -18.0664 O   0  0  0  0  0  0  0  0  0  0  0  0
   27.5392  -21.2525  -16.2606 O   0  0  0  0  0  0  0  0  0  0  0  0
  2  1  1  0
  3  2  1  0
  4  3  1  0
  4  5  1  0
  5  6  1  1
  7  8  2  0
  7  5  1  0
  9  7  1  0
 10  9  1  0
 10 14  1  0
 10 11  1  1
 12 16  1  0
 12 11  1  0
 13 12  2  0
 14 15  2  0
 14 17  1  0
 17 18  1  0
 19 18  1  0
 19 20  1  0
 21 19  2  0
M  END
$$$$
