RLG.pdb
     RDKit          3D

 24 23  0  0  1  0  0  0  0  0999 V2000
    5.8049  -18.2593   17.7808 N   0  0  0  0  0  0  0  0  0  0  0  0
    6.9773  -17.8483   17.0512 C   0  0  0  0  0  0  0  0  0  0  0  0
    7.1247  -18.3296   15.8695 N   0  0  0  0  0  0  0  0  0  0  0  0
    7.8696  -16.9621   17.6680 N   0  0  0  0  0  0  0  0  0  0  0  0
    7.4697  -16.3363   18.9364 C   0  0  0  0  0  0  0  0  0  0  0  0
    8.5107  -15.3871   19.4152 C   0  0  0  0  0  0  0  0  0  0  0  0
    8.3293  -14.8223   20.7791 C   0  0  0  0  0  0  0  0  0  0  0  0
    8.7504  -15.7402   21.8731 C   0  0  2  0  0  0  0  0  0  0  0  0
    7.8264  -16.8199   22.1342 N   0  0  0  0  0  0  0  0  0  0  0  0
    8.9662  -15.0218   23.1615 C   0  0  0  0  0  0  0  0  0  0  0  0
    9.8255  -14.1120   23.2344 O   0  0  0  0  0  0  0  0  0  0  0  0
    7.9408  -18.1545   15.2669 C   0  0  0  0  0  0  0  0  0  0  0  0
    7.6288  -11.6985   25.9581 C   0  0  2  0  0  0  0  0  0  0  0  0
    6.5818  -12.7594   25.5430 C   0  0  0  0  0  0  0  0  0  0  0  0
    5.2975  -12.3135   26.1402 C   0  0  0  0  0  0  0  0  0  0  0  0
    7.0797  -14.0491   26.0513 C   0  0  2  0  0  0  0  0  0  0  0  0
    8.3756  -14.5732   25.5893 N   0  0  0  0  0  0  0  0  0  0  0  0
    8.2270  -15.3280   24.3342 C   0  0  0  0  0  0  0  0  0  0  0  0
    9.1028  -15.3775   26.5830 O   0  0  0  0  0  0  0  0  0  0  0  0
    9.1959  -15.0906   27.8047 N   0  0  0  0  0  0  0  0  0  0  0  0
    9.7320  -16.5772   26.1105 C   0  0  0  0  0  0  0  0  0  0  0  0
   10.3687  -17.5288   26.9289 C   0  0  0  0  0  0  0  0  0  0  0  0
   10.9176  -18.7435   26.3092 O   0  0  0  0  0  0  0  0  0  0  0  0
   11.5046  -19.6970   27.1867 O   0  0  0  0  0  0  0  0  0  0  0  0
  1  2  1  0
  2  4  1  0
  3  2  2  0
  4  5  1  0
  5  6  1  0
  7  8  1  0
  7  6  1  0
  8  9  1  1
  8 10  1  0
 10 11  2  0
 13 12  1  6
 13 15  1  0
 14 13  1  0
 16 15  1  6
 16 18  1  0
 17 10  1  0
 17 16  1  0
 18 19  2  0
 20 21  1  0
 20 18  1  0
 21 22  1  0
 22 24  2  0
 22 23  1  0
M  END
$$$$
