RLG.pdb
     RDKit          3D

 24 23  0  0  1  0  0  0  0  0999 V2000
    7.8958  -13.5654   17.2013 N   0  0  0  0  0  0  0  0  0  0  0  0
    7.8045  -13.2629   18.6070 C   0  0  0  0  0  0  0  0  0  0  0  0
    8.1600  -12.0838   18.9720 N   0  0  0  0  0  0  0  0  0  0  0  0
    7.3403  -14.2598   19.4746 N   0  0  0  0  0  0  0  0  0  0  0  0
    8.1472  -15.4776   19.6366 C   0  0  0  0  0  0  0  0  0  0  0  0
    9.4654  -15.1669   20.2528 C   0  0  0  0  0  0  0  0  0  0  0  0
   10.0275  -16.1804   21.1849 C   0  0  0  0  0  0  0  0  0  0  0  0
    9.0967  -16.5773   22.2772 C   0  0  2  0  0  0  0  0  0  0  0  0
    7.6968  -16.4717   21.9353 N   0  0  0  0  0  0  0  0  0  0  0  0
    9.3098  -15.7797   23.5186 C   0  0  0  0  0  0  0  0  0  0  0  0
   10.4554  -15.3562   23.8014 O   0  0  0  0  0  0  0  0  0  0  0  0
    8.1316  -11.7411   19.9423 C   0  0  0  0  0  0  0  0  0  0  0  0
    5.8550  -12.1712   26.6294 C   0  0  1  0  0  0  0  0  0  0  0  0
    7.2636  -12.5947   26.1493 C   0  0  0  0  0  0  0  0  0  0  0  0
    7.4428  -11.9619   24.8180 C   0  0  0  0  0  0  0  0  0  0  0  0
    7.2670  -14.0675   26.1339 C   0  0  2  0  0  0  0  0  0  0  0  0
    8.4710  -14.7979   25.7042 N   0  0  0  0  0  0  0  0  0  0  0  0
    8.2520  -15.4715   24.4137 C   0  0  0  0  0  0  0  0  0  0  0  0
    8.9969  -15.7516   26.6926 O   0  0  0  0  0  0  0  0  0  0  0  0
    9.4260  -15.4355   27.8326 N   0  0  0  0  0  0  0  0  0  0  0  0
    8.9999  -17.1367   26.3187 C   0  0  0  0  0  0  0  0  0  0  0  0
    9.4269  -18.1931   27.1447 C   0  0  0  0  0  0  0  0  0  0  0  0
   10.8669  -18.4635   27.2631 O   0  0  0  0  0  0  0  0  0  0  0  0
   11.7461  -17.4723   26.7455 O   0  0  0  0  0  0  0  0  0  0  0  0
  1  2  1  0
  2  4  1  0
  3  2  2  0
  4  5  1  0
  5  6  1  0
  7  8  1  0
  7  6  1  0
  8  9  1  6
  8 10  1  0
 10 11  2  0
 13 12  1  1
 13 15  1  0
 14 13  1  0
 16 15  1  6
 16 18  1  0
 17 10  1  0
 17 16  1  0
 18 19  2  0
 20 21  1  0
 20 18  1  0
 21 22  1  0
 22 24  2  0
 22 23  1  0
M  END
$$$$
