RLG.pdb
     RDKit          3D

 24 23  0  0  1  0  0  0  0  0999 V2000
    8.6309  -14.5319   17.1361 N   0  0  0  0  0  0  0  0  0  0  0  0
    8.5360  -13.3023   17.8812 C   0  0  0  0  0  0  0  0  0  0  0  0
    9.3851  -12.3822   17.5945 N   0  0  0  0  0  0  0  0  0  0  0  0
    7.5378  -13.1898   18.8573 N   0  0  0  0  0  0  0  0  0  0  0  0
    6.7321  -14.3775   19.1743 C   0  0  0  0  0  0  0  0  0  0  0  0
    7.4748  -15.3027   20.0723 C   0  0  0  0  0  0  0  0  0  0  0  0
    7.7581  -14.8194   21.4500 C   0  0  0  0  0  0  0  0  0  0  0  0
    8.3546  -15.8524   22.3409 C   0  0  2  0  0  0  0  0  0  0  0  0
    7.4384  -16.8955   22.7413 N   0  0  0  0  0  0  0  0  0  0  0  0
    8.9249  -15.2634   23.5861 C   0  0  0  0  0  0  0  0  0  0  0  0
    9.9660  -14.5674   23.5292 O   0  0  0  0  0  0  0  0  0  0  0  0
    9.3900  -11.4426   18.0150 C   0  0  0  0  0  0  0  0  0  0  0  0
    7.8210  -11.8306   25.5477 C   0  0  2  0  0  0  0  0  0  0  0  0
    6.9020  -13.0421   25.8334 C   0  0  0  0  0  0  0  0  0  0  0  0
    5.6959  -12.4856   26.4970 C   0  0  0  0  0  0  0  0  0  0  0  0
    7.6889  -13.9673   26.6667 C   0  0  2  0  0  0  0  0  0  0  0  0
    8.7826  -14.7504   26.0682 N   0  0  0  0  0  0  0  0  0  0  0  0
    8.3299  -15.4591   24.8600 C   0  0  0  0  0  0  0  0  0  0  0  0
    9.4434  -15.6873   26.9895 O   0  0  0  0  0  0  0  0  0  0  0  0
    9.8096  -15.4009   28.1589 N   0  0  0  0  0  0  0  0  0  0  0  0
    9.6647  -17.0208   26.5089 C   0  0  0  0  0  0  0  0  0  0  0  0
   10.2581  -18.0573   27.2535 C   0  0  0  0  0  0  0  0  0  0  0  0
   11.6905  -18.3317   27.0708 O   0  0  0  0  0  0  0  0  0  0  0  0
   12.2240  -19.4379   27.7887 O   0  0  0  0  0  0  0  0  0  0  0  0
  1  2  1  0
  2  4  1  0
  3  2  2  0
  4  5  1  0
  5  6  1  0
  7  8  1  0
  7  6  1  0
  8  9  1  1
  8 10  1  0
 10 11  2  0
 13 12  1  6
 13 15  1  0
 14 13  1  0
 16 15  1  6
 16 18  1  0
 17 10  1  0
 17 16  1  0
 18 19  2  0
 20 21  1  0
 20 18  1  0
 21 22  1  0
 22 24  2  0
 22 23  1  0
M  END
$$$$
