RLG.pdb
     RDKit          3D

 24 23  0  0  1  0  0  0  0  0999 V2000
    8.1450  -13.4123   16.5607 N   0  0  0  0  0  0  0  0  0  0  0  0
    8.3038  -13.6117   17.9788 C   0  0  0  0  0  0  0  0  0  0  0  0
    9.1409  -12.8474   18.5829 N   0  0  0  0  0  0  0  0  0  0  0  0
    7.5460  -14.6125   18.6001 N   0  0  0  0  0  0  0  0  0  0  0  0
    8.2256  -15.5345   19.5212 C   0  0  0  0  0  0  0  0  0  0  0  0
    7.7950  -15.2999   20.9260 C   0  0  0  0  0  0  0  0  0  0  0  0
    8.3978  -16.1726   21.9687 C   0  0  0  0  0  0  0  0  0  0  0  0
    7.8776  -15.9207   23.3408 C   0  0  2  0  0  0  0  0  0  0  0  0
    6.8535  -14.9039   23.4128 N   0  0  0  0  0  0  0  0  0  0  0  0
    8.9574  -15.5284   24.2910 C   0  0  0  0  0  0  0  0  0  0  0  0
    9.6401  -14.4999   24.0724 O   0  0  0  0  0  0  0  0  0  0  0  0
    9.3743  -12.9149   19.5832 C   0  0  0  0  0  0  0  0  0  0  0  0
    9.8682  -13.0163   27.1545 C   0  0  2  0  0  0  0  0  0  0  0  0
    8.9407  -14.1578   27.6351 C   0  0  0  0  0  0  0  0  0  0  0  0
    8.4361  -13.7340   28.9656 C   0  0  0  0  0  0  0  0  0  0  0  0
    9.7656  -15.3780   27.6520 C   0  0  2  0  0  0  0  0  0  0  0  0
   10.3228  -15.9090   26.3969 N   0  0  0  0  0  0  0  0  0  0  0  0
    9.2537  -16.2827   25.4565 C   0  0  0  0  0  0  0  0  0  0  0  0
   11.2641  -17.0264   26.5665 O   0  0  0  0  0  0  0  0  0  0  0  0
   12.3528  -16.9547   27.1935 N   0  0  0  0  0  0  0  0  0  0  0  0
   10.8911  -18.2821   25.9815 C   0  0  0  0  0  0  0  0  0  0  0  0
   11.6255  -19.4766   26.1020 C   0  0  0  0  0  0  0  0  0  0  0  0
   11.9072  -20.0038   27.4448 O   0  0  0  0  0  0  0  0  0  0  0  0
   12.6582  -21.2101   27.5113 O   0  0  0  0  0  0  0  0  0  0  0  0
  1  2  1  0
  2  4  1  0
  3  2  2  0
  4  5  1  0
  5  6  1  0
  7  8  1  0
  7  6  1  0
  8  9  1  6
  8 10  1  0
 10 11  2  0
 13 12  1  6
 13 15  1  0
 14 13  1  0
 16 15  1  6
 16 18  1  0
 17 10  1  0
 17 16  1  0
 18 19  2  0
 20 21  1  0
 20 18  1  0
 21 22  1  0
 22 24  2  0
 22 23  1  0
M  END
$$$$
