RLG.pdb
     RDKit          3D

 24 23  0  0  1  0  0  0  0  0999 V2000
    7.9547  -13.8566   16.5794 N   0  0  0  0  0  0  0  0  0  0  0  0
    8.2140  -13.3177   17.8902 C   0  0  0  0  0  0  0  0  0  0  0  0
    7.6323  -12.2123   18.1895 N   0  0  0  0  0  0  0  0  0  0  0  0
    9.0720  -14.0234   18.7432 N   0  0  0  0  0  0  0  0  0  0  0  0
    9.0618  -15.4921   18.6874 C   0  0  0  0  0  0  0  0  0  0  0  0
    8.6413  -16.0732   19.9910 C   0  0  0  0  0  0  0  0  0  0  0  0
    9.3054  -15.5400   21.2103 C   0  0  0  0  0  0  0  0  0  0  0  0
    9.1221  -16.3910   22.4182 C   0  0  2  0  0  0  0  0  0  0  0  0
    7.8100  -16.9847   22.5356 N   0  0  0  0  0  0  0  0  0  0  0  0
    9.3834  -15.6431   23.6811 C   0  0  0  0  0  0  0  0  0  0  0  0
   10.4762  -15.0506   23.8428 O   0  0  0  0  0  0  0  0  0  0  0  0
    7.7329  -11.7269   19.0917 C   0  0  0  0  0  0  0  0  0  0  0  0
    7.9207  -11.8377   25.9476 C   0  0  2  0  0  0  0  0  0  0  0  0
    6.8601  -12.9428   25.7292 C   0  0  0  0  0  0  0  0  0  0  0  0
    5.5993  -12.4112   26.3060 C   0  0  0  0  0  0  0  0  0  0  0  0
    7.3795  -14.1487   26.3968 C   0  0  2  0  0  0  0  0  0  0  0  0
    8.6396  -14.7589   25.9415 N   0  0  0  0  0  0  0  0  0  0  0  0
    8.4306  -15.5701   24.7309 C   0  0  0  0  0  0  0  0  0  0  0  0
    9.3467  -15.5448   26.9640 O   0  0  0  0  0  0  0  0  0  0  0  0
    9.6013  -15.1389   28.1277 N   0  0  0  0  0  0  0  0  0  0  0  0
    9.7546  -16.8699   26.5955 C   0  0  0  0  0  0  0  0  0  0  0  0
   10.3750  -17.7913   27.4597 C   0  0  0  0  0  0  0  0  0  0  0  0
   10.9023  -19.0443   26.9005 O   0  0  0  0  0  0  0  0  0  0  0  0
   10.9516  -19.1381   25.4819 O   0  0  0  0  0  0  0  0  0  0  0  0
  1  2  1  0
  2  4  1  0
  3  2  2  0
  4  5  1  0
  5  6  1  0
  7  8  1  0
  7  6  1  0
  8  9  1  1
  8 10  1  0
 10 11  2  0
 13 12  1  6
 13 15  1  0
 14 13  1  0
 16 15  1  6
 16 18  1  0
 17 10  1  0
 17 16  1  0
 18 19  2  0
 20 21  1  0
 20 18  1  0
 21 22  1  0
 22 24  2  0
 22 23  1  0
M  END
$$$$
