RLG.pdb
     RDKit          3D

 24 23  0  0  1  0  0  0  0  0999 V2000
    7.5688  -13.8834   15.9522 N   0  0  0  0  0  0  0  0  0  0  0  0
    8.8444  -14.4282   16.3422 C   0  0  0  0  0  0  0  0  0  0  0  0
    9.3549  -15.3207   15.5724 N   0  0  0  0  0  0  0  0  0  0  0  0
    9.4386  -13.9569   17.5198 N   0  0  0  0  0  0  0  0  0  0  0  0
    8.6750  -13.0288   18.3659 C   0  0  0  0  0  0  0  0  0  0  0  0
    7.7448  -13.7661   19.2631 C   0  0  0  0  0  0  0  0  0  0  0  0
    7.9044  -13.5451   20.7252 C   0  0  0  0  0  0  0  0  0  0  0  0
    8.2031  -14.7849   21.4936 C   0  0  2  0  0  0  0  0  0  0  0  0
    7.0971  -15.7101   21.5859 N   0  0  0  0  0  0  0  0  0  0  0  0
    8.6522  -14.4927   22.8848 C   0  0  0  0  0  0  0  0  0  0  0  0
    9.6645  -13.7791   23.0788 O   0  0  0  0  0  0  0  0  0  0  0  0
   10.2922  -15.7283   15.6947 C   0  0  0  0  0  0  0  0  0  0  0  0
    7.7800  -11.7693   26.4003 C   0  0  2  0  0  0  0  0  0  0  0  0
    6.6254  -12.6535   25.8721 C   0  0  0  0  0  0  0  0  0  0  0  0
    5.4268  -12.2620   26.6562 C   0  0  0  0  0  0  0  0  0  0  0  0
    7.0555  -14.0491   26.0645 C   0  0  2  0  0  0  0  0  0  0  0  0
    8.2679  -14.5464   25.3936 N   0  0  0  0  0  0  0  0  0  0  0  0
    7.9710  -14.9966   24.0238 C   0  0  0  0  0  0  0  0  0  0  0  0
    8.9903  -15.5959   26.1283 O   0  0  0  0  0  0  0  0  0  0  0  0
    9.2206  -15.5730   27.3652 N   0  0  0  0  0  0  0  0  0  0  0  0
    9.4443  -16.7242   25.3672 C   0  0  0  0  0  0  0  0  0  0  0  0
   10.0907  -17.8521   25.9064 C   0  0  0  0  0  0  0  0  0  0  0  0
   10.5179  -18.9264   24.9986 O   0  0  0  0  0  0  0  0  0  0  0  0
   11.5416  -19.7924   25.4734 O   0  0  0  0  0  0  0  0  0  0  0  0
  1  2  1  0
  2  4  1  0
  3  2  2  0
  4  5  1  0
  5  6  1  0
  7  8  1  0
  7  6  1  0
  8  9  1  1
  8 10  1  0
 10 11  2  0
 13 12  1  6
 13 15  1  0
 14 13  1  0
 16 15  1  6
 16 18  1  0
 17 10  1  0
 17 16  1  0
 18 19  2  0
 20 21  1  0
 20 18  1  0
 21 22  1  0
 22 24  2  0
 22 23  1  0
M  END
$$$$
