RLG.pdb
     RDKit          3D

 24 23  0  0  1  0  0  0  0  0999 V2000
    7.7696  -12.3170   19.0472 N   0  0  0  0  0  0  0  0  0  0  0  0
    7.7842  -13.4833   18.2014 C   0  0  0  0  0  0  0  0  0  0  0  0
    8.4249  -13.3889   17.0922 N   0  0  0  0  0  0  0  0  0  0  0  0
    7.1081  -14.6304   18.6361 N   0  0  0  0  0  0  0  0  0  0  0  0
    7.6259  -15.3444   19.8119 C   0  0  0  0  0  0  0  0  0  0  0  0
    9.0134  -14.9122   20.1310 C   0  0  0  0  0  0  0  0  0  0  0  0
    9.8064  -15.8008   21.0219 C   0  0  0  0  0  0  0  0  0  0  0  0
    9.0367  -16.3393   22.1770 C   0  0  2  0  0  0  0  0  0  0  0  0
    7.6040  -16.3423   21.9893 N   0  0  0  0  0  0  0  0  0  0  0  0
    9.3156  -15.5947   23.4381 C   0  0  0  0  0  0  0  0  0  0  0  0
   10.4282  -15.0416   23.6052 O   0  0  0  0  0  0  0  0  0  0  0  0
    8.4819  -14.1366   16.3869 C   0  0  0  0  0  0  0  0  0  0  0  0
    8.0306  -11.7598   25.9416 C   0  0  2  0  0  0  0  0  0  0  0  0
    6.9138  -12.7808   25.6188 C   0  0  0  0  0  0  0  0  0  0  0  0
    5.6768  -12.2316   26.2293 C   0  0  0  0  0  0  0  0  0  0  0  0
    7.3574  -14.0672   26.1828 C   0  0  2  0  0  0  0  0  0  0  0  0
    8.5990  -14.6948   25.7010 N   0  0  0  0  0  0  0  0  0  0  0  0
    8.3583  -15.4813   24.4801 C   0  0  0  0  0  0  0  0  0  0  0  0
    9.3031  -15.5115   26.7013 O   0  0  0  0  0  0  0  0  0  0  0  0
    9.6401  -15.1077   27.8445 N   0  0  0  0  0  0  0  0  0  0  0  0
    9.6058  -16.8653   26.3354 C   0  0  0  0  0  0  0  0  0  0  0  0
   10.3037  -17.7814   27.1444 C   0  0  0  0  0  0  0  0  0  0  0  0
   10.4891  -19.1571   26.6607 O   0  0  0  0  0  0  0  0  0  0  0  0
   10.2985  -20.1979   27.6114 O   0  0  0  0  0  0  0  0  0  0  0  0
  1  2  1  0
  2  4  1  0
  3  2  2  0
  4  5  1  0
  5  6  1  0
  7  8  1  0
  7  6  1  0
  8  9  1  6
  8 10  1  0
 10 11  2  0
 13 12  1  6
 13 15  1  0
 14 13  1  0
 16 15  1  6
 16 18  1  0
 17 10  1  0
 17 16  1  0
 18 19  2  0
 20 21  1  0
 20 18  1  0
 21 22  1  0
 22 24  2  0
 22 23  1  0
M  END
$$$$
