RLG.pdb
     RDKit          3D

 24 23  0  0  1  0  0  0  0  0999 V2000
    8.3552  -12.1735   17.0429 N   0  0  0  0  0  0  0  0  0  0  0  0
    8.0586  -13.4844   16.5240 C   0  0  0  0  0  0  0  0  0  0  0  0
    8.4926  -13.7549   15.3458 N   0  0  0  0  0  0  0  0  0  0  0  0
    7.3258  -14.3686   17.3259 N   0  0  0  0  0  0  0  0  0  0  0  0
    7.0450  -13.9834   18.7163 C   0  0  0  0  0  0  0  0  0  0  0  0
    7.6756  -14.9339   19.6717 C   0  0  0  0  0  0  0  0  0  0  0  0
    7.4423  -14.6860   21.1195 C   0  0  0  0  0  0  0  0  0  0  0  0
    8.0634  -15.7019   22.0133 C   0  0  2  0  0  0  0  0  0  0  0  0
    7.1543  -16.7261   22.4739 N   0  0  0  0  0  0  0  0  0  0  0  0
    8.6851  -15.0872   23.2209 C   0  0  0  0  0  0  0  0  0  0  0  0
    9.6243  -14.2668   23.0924 O   0  0  0  0  0  0  0  0  0  0  0  0
    8.3968  -14.6708   14.8857 C   0  0  0  0  0  0  0  0  0  0  0  0
    7.6562  -11.8771   25.5780 C   0  0  2  0  0  0  0  0  0  0  0  0
    6.8303  -13.1478   25.8898 C   0  0  0  0  0  0  0  0  0  0  0  0
    5.7115  -12.6988   26.7565 C   0  0  0  0  0  0  0  0  0  0  0  0
    7.7595  -14.0952   26.5291 C   0  0  2  0  0  0  0  0  0  0  0  0
    8.8137  -14.7453   25.7330 N   0  0  0  0  0  0  0  0  0  0  0  0
    8.2526  -15.3954   24.5374 C   0  0  0  0  0  0  0  0  0  0  0  0
    9.6521  -15.6941   26.4813 O   0  0  0  0  0  0  0  0  0  0  0  0
   10.2371  -15.4310   27.5640 N   0  0  0  0  0  0  0  0  0  0  0  0
    9.7895  -17.0116   25.9303 C   0  0  0  0  0  0  0  0  0  0  0  0
   10.4636  -18.0787   26.5527 C   0  0  0  0  0  0  0  0  0  0  0  0
   10.6307  -18.0571   28.0130 O   0  0  0  0  0  0  0  0  0  0  0  0
   11.9114  -18.4216   28.5133 O   0  0  0  0  0  0  0  0  0  0  0  0
  1  2  1  0
  2  4  1  0
  3  2  2  0
  4  5  1  0
  5  6  1  0
  7  8  1  0
  7  6  1  0
  8  9  1  1
  8 10  1  0
 10 11  2  0
 13 12  1  6
 13 15  1  0
 14 13  1  0
 16 15  1  6
 16 18  1  0
 17 10  1  0
 17 16  1  0
 18 19  2  0
 20 21  1  0
 20 18  1  0
 21 22  1  0
 22 24  2  0
 22 23  1  0
M  END
$$$$
