RLG.pdb
     RDKit          3D

 24 23  0  0  1  0  0  0  0  0999 V2000
    8.2130  -12.6015   16.8611 N   0  0  0  0  0  0  0  0  0  0  0  0
    8.3263  -13.9598   16.3940 C   0  0  0  0  0  0  0  0  0  0  0  0
    7.8554  -14.2139   15.2264 N   0  0  0  0  0  0  0  0  0  0  0  0
    8.9343  -14.9040   17.2311 N   0  0  0  0  0  0  0  0  0  0  0  0
    9.2088  -14.5289   18.6255 C   0  0  0  0  0  0  0  0  0  0  0  0
    7.9904  -14.6732   19.4672 C   0  0  0  0  0  0  0  0  0  0  0  0
    8.1101  -14.2796   20.8965 C   0  0  0  0  0  0  0  0  0  0  0  0
    8.1572  -15.4323   21.8377 C   0  0  2  0  0  0  0  0  0  0  0  0
    6.8892  -16.0980   22.0289 N   0  0  0  0  0  0  0  0  0  0  0  0
    8.6584  -15.0405   23.1860 C   0  0  0  0  0  0  0  0  0  0  0  0
    9.7935  -14.5221   23.3054 O   0  0  0  0  0  0  0  0  0  0  0  0
    7.8940  -15.1362   14.7708 C   0  0  0  0  0  0  0  0  0  0  0  0
    8.0189  -11.7015   26.0004 C   0  0  2  0  0  0  0  0  0  0  0  0
    6.8212  -12.6568   25.7841 C   0  0  0  0  0  0  0  0  0  0  0  0
    5.6729  -12.0287   26.4852 C   0  0  0  0  0  0  0  0  0  0  0  0
    7.2330  -13.9620   26.3285 C   0  0  2  0  0  0  0  0  0  0  0  0
    8.3141  -14.7233   25.6810 N   0  0  0  0  0  0  0  0  0  0  0  0
    7.8922  -15.2321   24.3656 C   0  0  0  0  0  0  0  0  0  0  0  0
    8.8690  -15.8158   26.4945 O   0  0  0  0  0  0  0  0  0  0  0  0
    9.2165  -15.7045   27.6989 N   0  0  0  0  0  0  0  0  0  0  0  0
    9.0029  -17.0943   25.8575 C   0  0  0  0  0  0  0  0  0  0  0  0
    9.5260  -18.2485   26.4699 C   0  0  0  0  0  0  0  0  0  0  0  0
   10.9848  -18.4027   26.5634 O   0  0  0  0  0  0  0  0  0  0  0  0
   11.4615  -19.5915   27.1823 O   0  0  0  0  0  0  0  0  0  0  0  0
  1  2  1  0
  2  4  1  0
  3  2  2  0
  4  5  1  0
  5  6  1  0
  7  8  1  0
  7  6  1  0
  8  9  1  1
  8 10  1  0
 10 11  2  0
 13 12  1  6
 13 15  1  0
 14 13  1  0
 16 15  1  6
 16 18  1  0
 17 10  1  0
 17 16  1  0
 18 19  2  0
 20 21  1  0
 20 18  1  0
 21 22  1  0
 22 24  2  0
 22 23  1  0
M  END
$$$$
