RLG.pdb
     RDKit          3D

 24 23  0  0  1  0  0  0  0  0999 V2000
    9.6304  -15.0356   16.8332 N   0  0  0  0  0  0  0  0  0  0  0  0
    8.4653  -14.3919   16.2818 C   0  0  0  0  0  0  0  0  0  0  0  0
    8.0655  -14.8003   15.1316 N   0  0  0  0  0  0  0  0  0  0  0  0
    7.8510  -13.3757   17.0247 N   0  0  0  0  0  0  0  0  0  0  0  0
    8.3881  -13.0596   18.3558 C   0  0  0  0  0  0  0  0  0  0  0  0
    8.1466  -14.1768   19.3084 C   0  0  0  0  0  0  0  0  0  0  0  0
    8.5383  -13.9492   20.7250 C   0  0  0  0  0  0  0  0  0  0  0  0
    8.4429  -15.1644   21.5800 C   0  0  2  0  0  0  0  0  0  0  0  0
    7.1299  -15.7663   21.6162 N   0  0  0  0  0  0  0  0  0  0  0  0
    8.8450  -14.8957   22.9902 C   0  0  0  0  0  0  0  0  0  0  0  0
    9.9813  -14.4283   23.2388 O   0  0  0  0  0  0  0  0  0  0  0  0
    7.2718  -14.3977   14.6141 C   0  0  0  0  0  0  0  0  0  0  0  0
    7.7735  -11.7559   26.0313 C   0  0  2  0  0  0  0  0  0  0  0  0
    6.6581  -12.7518   25.6336 C   0  0  0  0  0  0  0  0  0  0  0  0
    5.4238  -12.2606   26.2969 C   0  0  0  0  0  0  0  0  0  0  0  0
    7.1112  -14.0783   26.0859 C   0  0  2  0  0  0  0  0  0  0  0  0
    8.2839  -14.7104   25.4591 N   0  0  0  0  0  0  0  0  0  0  0  0
    7.9810  -15.1508   24.0874 C   0  0  0  0  0  0  0  0  0  0  0  0
    8.8714  -15.8166   26.2300 O   0  0  0  0  0  0  0  0  0  0  0  0
    9.1039  -15.7817   27.4663 N   0  0  0  0  0  0  0  0  0  0  0  0
    9.1814  -17.0168   25.5077 C   0  0  0  0  0  0  0  0  0  0  0  0
    9.7583  -18.1700   26.0716 C   0  0  0  0  0  0  0  0  0  0  0  0
   11.1908  -18.1581   26.4009 O   0  0  0  0  0  0  0  0  0  0  0  0
   11.7229  -19.3464   26.9738 O   0  0  0  0  0  0  0  0  0  0  0  0
  1  2  1  0
  2  4  1  0
  3  2  2  0
  4  5  1  0
  5  6  1  0
  7  8  1  0
  7  6  1  0
  8  9  1  1
  8 10  1  0
 10 11  2  0
 13 12  1  6
 13 15  1  0
 14 13  1  0
 16 15  1  6
 16 18  1  0
 17 10  1  0
 17 16  1  0
 18 19  2  0
 20 21  1  0
 20 18  1  0
 21 22  1  0
 22 24  2  0
 22 23  1  0
M  END
$$$$
