RLG.pdb
     RDKit          3D

 24 23  0  0  1  0  0  0  0  0999 V2000
    8.6295  -13.9467   17.1581 N   0  0  0  0  0  0  0  0  0  0  0  0
    8.5108  -12.9124   18.1540 C   0  0  0  0  0  0  0  0  0  0  0  0
    9.2574  -11.8774   18.0086 N   0  0  0  0  0  0  0  0  0  0  0  0
    7.6015  -13.0983   19.2030 N   0  0  0  0  0  0  0  0  0  0  0  0
    7.1251  -14.4603   19.4829 C   0  0  0  0  0  0  0  0  0  0  0  0
    8.0024  -15.1400   20.4740 C   0  0  0  0  0  0  0  0  0  0  0  0
    7.3446  -16.0776   21.4227 C   0  0  0  0  0  0  0  0  0  0  0  0
    8.2870  -16.7437   22.3635 C   0  0  2  0  0  0  0  0  0  0  0  0
    7.7459  -17.9096   23.0235 N   0  0  0  0  0  0  0  0  0  0  0  0
    8.7712  -15.8184   23.4275 C   0  0  0  0  0  0  0  0  0  0  0  0
    9.7320  -15.0471   23.1963 O   0  0  0  0  0  0  0  0  0  0  0  0
    9.2850  -11.0826   18.6623 C   0  0  0  0  0  0  0  0  0  0  0  0
    7.5686  -12.1254   25.6914 C   0  0  2  0  0  0  0  0  0  0  0  0
    6.6943  -13.3567   26.0286 C   0  0  0  0  0  0  0  0  0  0  0  0
    5.6444  -12.8638   26.9556 C   0  0  0  0  0  0  0  0  0  0  0  0
    7.6035  -14.3597   26.6090 C   0  0  2  0  0  0  0  0  0  0  0  0
    8.6997  -14.9175   25.7997 N   0  0  0  0  0  0  0  0  0  0  0  0
    8.1812  -15.7704   24.7178 C   0  0  0  0  0  0  0  0  0  0  0  0
    9.7256  -15.6387   26.5682 O   0  0  0  0  0  0  0  0  0  0  0  0
   10.3283  -15.1718   27.5694 N   0  0  0  0  0  0  0  0  0  0  0  0
   10.0378  -16.9720   26.1403 C   0  0  0  0  0  0  0  0  0  0  0  0
   10.9770  -17.8176   26.7595 C   0  0  0  0  0  0  0  0  0  0  0  0
   10.5378  -18.6707   27.8731 O   0  0  0  0  0  0  0  0  0  0  0  0
   11.5424  -19.4446   28.5176 O   0  0  0  0  0  0  0  0  0  0  0  0
  1  2  1  0
  2  4  1  0
  3  2  2  0
  4  5  1  0
  5  6  1  0
  7  8  1  0
  7  6  1  0
  8  9  1  1
  8 10  1  0
 10 11  2  0
 13 12  1  6
 13 15  1  0
 14 13  1  0
 16 15  1  6
 16 18  1  0
 17 10  1  0
 17 16  1  0
 18 19  2  0
 20 21  1  0
 20 18  1  0
 21 22  1  0
 22 24  2  0
 22 23  1  0
M  END
$$$$
