RLG.pdb
     RDKit          3D

 24 23  0  0  1  0  0  0  0  0999 V2000
    8.2731  -13.9015   16.3854 N   0  0  0  0  0  0  0  0  0  0  0  0
    8.1311  -13.2422   17.6586 C   0  0  0  0  0  0  0  0  0  0  0  0
    8.3552  -11.9778   17.6864 N   0  0  0  0  0  0  0  0  0  0  0  0
    7.7628  -14.0111   18.7699 N   0  0  0  0  0  0  0  0  0  0  0  0
    7.5846  -15.4591   18.5910 C   0  0  0  0  0  0  0  0  0  0  0  0
    7.5889  -16.1638   19.9014 C   0  0  0  0  0  0  0  0  0  0  0  0
    8.7017  -15.8420   20.8342 C   0  0  0  0  0  0  0  0  0  0  0  0
    8.6424  -16.5849   22.1231 C   0  0  2  0  0  0  0  0  0  0  0  0
    7.3397  -17.1226   22.4419 N   0  0  0  0  0  0  0  0  0  0  0  0
    9.0690  -15.7456   23.2790 C   0  0  0  0  0  0  0  0  0  0  0  0
    9.9636  -14.8805   23.1278 O   0  0  0  0  0  0  0  0  0  0  0  0
    8.2827  -11.3918   18.5296 C   0  0  0  0  0  0  0  0  0  0  0  0
    8.1279  -12.1242   25.6856 C   0  0  2  0  0  0  0  0  0  0  0  0
    7.0811  -13.2634   25.6986 C   0  0  0  0  0  0  0  0  0  0  0  0
    5.9077  -12.7242   26.4314 C   0  0  0  0  0  0  0  0  0  0  0  0
    7.7337  -14.4138   26.3469 C   0  0  2  0  0  0  0  0  0  0  0  0
    8.9003  -15.0523   25.7153 N   0  0  0  0  0  0  0  0  0  0  0  0
    8.4960  -15.8847   24.5704 C   0  0  0  0  0  0  0  0  0  0  0  0
    9.7485  -15.8278   26.6331 O   0  0  0  0  0  0  0  0  0  0  0  0
   10.2595  -15.3736   27.6896 N   0  0  0  0  0  0  0  0  0  0  0  0
    9.9873  -17.2004   26.2910 C   0  0  0  0  0  0  0  0  0  0  0  0
   10.7771  -18.0918   27.0408 C   0  0  0  0  0  0  0  0  0  0  0  0
   10.3475  -18.4486   28.4006 O   0  0  0  0  0  0  0  0  0  0  0  0
   11.2135  -18.0679   29.4629 O   0  0  0  0  0  0  0  0  0  0  0  0
  1  2  1  0
  2  4  1  0
  3  2  2  0
  4  5  1  0
  5  6  1  0
  7  8  1  0
  7  6  1  0
  8  9  1  1
  8 10  1  0
 10 11  2  0
 13 12  1  6
 13 15  1  0
 14 13  1  0
 16 15  1  6
 16 18  1  0
 17 10  1  0
 17 16  1  0
 18 19  2  0
 20 21  1  0
 20 18  1  0
 21 22  1  0
 22 24  2  0
 22 23  1  0
M  END
$$$$
