RLG.pdb
     RDKit          3D

 24 23  0  0  1  0  0  0  0  0999 V2000
    8.5720  -11.6149   18.5911 N   0  0  0  0  0  0  0  0  0  0  0  0
    8.5381  -13.0553   18.5840 C   0  0  0  0  0  0  0  0  0  0  0  0
    9.5112  -13.6565   17.9997 N   0  0  0  0  0  0  0  0  0  0  0  0
    7.4613  -13.6998   19.2061 N   0  0  0  0  0  0  0  0  0  0  0  0
    7.3577  -15.1612   19.0880 C   0  0  0  0  0  0  0  0  0  0  0  0
    7.3664  -15.8073   20.4284 C   0  0  0  0  0  0  0  0  0  0  0  0
    8.5244  -15.5070   21.3120 C   0  0  0  0  0  0  0  0  0  0  0  0
    8.6236  -16.3985   22.5004 C   0  0  2  0  0  0  0  0  0  0  0  0
    7.3809  -17.0335   22.8746 N   0  0  0  0  0  0  0  0  0  0  0  0
    9.1333  -15.6810   23.7037 C   0  0  0  0  0  0  0  0  0  0  0  0
   10.2781  -15.1704   23.6898 O   0  0  0  0  0  0  0  0  0  0  0  0
    9.5725  -14.6759   17.8703 C   0  0  0  0  0  0  0  0  0  0  0  0
    7.7505  -11.9312   25.4007 C   0  0  2  0  0  0  0  0  0  0  0  0
    6.8440  -13.1188   25.8031 C   0  0  0  0  0  0  0  0  0  0  0  0
    5.6823  -12.5188   26.5068 C   0  0  0  0  0  0  0  0  0  0  0  0
    7.6743  -14.0059   26.6357 C   0  0  2  0  0  0  0  0  0  0  0  0
    8.8041  -14.7355   26.0365 N   0  0  0  0  0  0  0  0  0  0  0  0
    8.3646  -15.5472   24.8897 C   0  0  0  0  0  0  0  0  0  0  0  0
    9.5716  -15.5624   26.9802 O   0  0  0  0  0  0  0  0  0  0  0  0
    9.7457  -15.2851   28.1952 N   0  0  0  0  0  0  0  0  0  0  0  0
   10.1423  -16.7734   26.4646 C   0  0  0  0  0  0  0  0  0  0  0  0
   10.8441  -17.7230   27.2305 C   0  0  0  0  0  0  0  0  0  0  0  0
   11.3934  -18.9098   26.5593 O   0  0  0  0  0  0  0  0  0  0  0  0
   12.0394  -19.8687   27.3880 O   0  0  0  0  0  0  0  0  0  0  0  0
  1  2  1  0
  2  4  1  0
  3  2  2  0
  4  5  1  0
  5  6  1  0
  7  8  1  0
  7  6  1  0
  8  9  1  1
  8 10  1  0
 10 11  2  0
 13 12  1  6
 13 15  1  0
 14 13  1  0
 16 15  1  6
 16 18  1  0
 17 10  1  0
 17 16  1  0
 18 19  2  0
 20 21  1  0
 20 18  1  0
 21 22  1  0
 22 24  2  0
 22 23  1  0
M  END
$$$$
