RLG.pdb
     RDKit          3D

 24 23  0  0  1  0  0  0  0  0999 V2000
    9.7967  -14.3349   16.9052 N   0  0  0  0  0  0  0  0  0  0  0  0
    8.4403  -13.9393   16.6230 C   0  0  0  0  0  0  0  0  0  0  0  0
    8.0153  -14.1338   15.4267 N   0  0  0  0  0  0  0  0  0  0  0  0
    7.6817  -13.3755   17.6567 N   0  0  0  0  0  0  0  0  0  0  0  0
    8.3374  -13.1210   18.9473 C   0  0  0  0  0  0  0  0  0  0  0  0
    8.6407  -14.3954   19.6528 C   0  0  0  0  0  0  0  0  0  0  0  0
    9.4158  -14.2954   20.9182 C   0  0  0  0  0  0  0  0  0  0  0  0
    9.0800  -15.3480   21.9162 C   0  0  2  0  0  0  0  0  0  0  0  0
    7.7552  -15.9063   21.7709 N   0  0  0  0  0  0  0  0  0  0  0  0
    9.2009  -14.8562   23.3183 C   0  0  0  0  0  0  0  0  0  0  0  0
   10.2053  -14.1902   23.6635 O   0  0  0  0  0  0  0  0  0  0  0  0
    7.0733  -13.8835   15.0953 C   0  0  0  0  0  0  0  0  0  0  0  0
    7.6710  -11.7339   26.3484 C   0  0  2  0  0  0  0  0  0  0  0  0
    6.6123  -12.6791   25.7324 C   0  0  0  0  0  0  0  0  0  0  0  0
    5.3062  -12.2326   26.2796 C   0  0  0  0  0  0  0  0  0  0  0  0
    7.0053  -14.0447   26.1201 C   0  0  2  0  0  0  0  0  0  0  0  0
    8.2967  -14.5947   25.6760 N   0  0  0  0  0  0  0  0  0  0  0  0
    8.2092  -15.1133   24.3011 C   0  0  0  0  0  0  0  0  0  0  0  0
    8.8702  -15.6137   26.5681 O   0  0  0  0  0  0  0  0  0  0  0  0
    8.9187  -15.5200   27.8221 N   0  0  0  0  0  0  0  0  0  0  0  0
    9.3933  -16.7971   25.9482 C   0  0  0  0  0  0  0  0  0  0  0  0
    9.8931  -17.9156   26.6410 C   0  0  0  0  0  0  0  0  0  0  0  0
   10.2855  -19.1073   25.8751 O   0  0  0  0  0  0  0  0  0  0  0  0
   11.6417  -19.5208   25.9903 O   0  0  0  0  0  0  0  0  0  0  0  0
  1  2  1  0
  2  4  1  0
  3  2  2  0
  4  5  1  0
  5  6  1  0
  7  8  1  0
  7  6  1  0
  8  9  1  6
  8 10  1  0
 10 11  2  0
 13 12  1  6
 13 15  1  0
 14 13  1  0
 16 15  1  6
 16 18  1  0
 17 10  1  0
 17 16  1  0
 18 19  2  0
 20 21  1  0
 20 18  1  0
 21 22  1  0
 22 24  2  0
 22 23  1  0
M  END
$$$$
