QFR.pdb
     RDKit          3D

 32 32  0  0  1  0  0  0  0  0999 V2000
    9.4687  -13.8823   16.3720 N   0  0  0  0  0  0  0  0  0  0  0  0
    8.2231  -13.6138   16.9824 C   0  0  0  0  0  0  0  0  0  0  0  0
    7.4765  -12.7160   16.5144 O   0  0  0  0  0  0  0  0  0  0  0  0
    7.8058  -14.3876   18.1641 C   0  0  0  0  0  0  0  0  0  0  0  0
    8.8280  -15.4735   18.4797 C   0  0  0  0  0  0  0  0  0  0  0  0
    8.2690  -16.2513   19.6542 C   0  0  2  0  0  0  0  0  0  0  0  0
    6.8258  -16.2413   19.6675 N   0  0  0  0  0  0  0  0  0  0  0  0
    8.7368  -15.6165   20.9212 C   0  0  0  0  0  0  0  0  0  0  0  0
    9.9354  -15.3729   21.1462 O   0  0  0  0  0  0  0  0  0  0  0  0
    7.7794  -15.2746   21.9132 N   0  0  0  0  0  0  0  0  0  0  0  0
    8.1723  -14.6207   23.1870 C   0  0  1  0  0  0  0  0  0  0  0  0
    7.0708  -13.7053   23.5048 C   0  0  0  0  0  0  0  0  0  0  0  0
    7.0453  -12.9764   24.7421 C   0  0  0  0  0  0  0  0  0  0  0  0
    7.8181  -11.8359   24.9857 C   0  0  0  0  0  0  0  0  0  0  0  0
    7.7371  -11.1656   26.1869 C   0  0  0  0  0  0  0  0  0  0  0  0
    6.9071  -11.5768   27.1892 C   0  0  0  0  0  0  0  0  0  0  0  0
    6.1391  -12.6984   26.9658 C   0  0  0  0  0  0  0  0  0  0  0  0
    6.2161  -13.3729   25.7656 C   0  0  0  0  0  0  0  0  0  0  0  0
    8.4412  -15.7146   24.1368 C   0  0  0  0  0  0  0  0  0  0  0  0
    7.6071  -16.6858   24.2218 O   0  0  0  0  0  0  0  0  0  0  0  0
   14.5875  -19.5636   21.9361 N   0  0  0  0  0  0  0  0  0  0  0  0
   14.3068  -20.5517   22.9554 C   0  0  0  0  0  0  0  0  0  0  0  0
   15.1837  -21.4251   23.2452 N   0  0  0  0  0  0  0  0  0  0  0  0
   13.0487  -20.5043   23.6021 N   0  0  0  0  0  0  0  0  0  0  0  0
   12.1980  -19.3512   23.4981 C   0  0  0  0  0  0  0  0  0  0  0  0
   12.4270  -18.3015   24.5627 C   0  0  0  0  0  0  0  0  0  0  0  0
   11.5372  -17.1116   24.3850 C   0  0  0  0  0  0  0  0  0  0  0  0
   10.2654  -17.1140   25.1569 C   0  0  2  0  0  0  0  0  0  0  0  0
    9.5586  -15.8268   24.9979 N   0  0  0  0  0  0  0  0  0  0  0  0
   10.5446  -17.3086   26.5974 C   0  0  0  0  0  0  0  0  0  0  0  0
   10.1700  -16.3920   27.5523 O   0  0  0  0  0  0  0  0  0  0  0  0
   11.1472  -18.3333   27.0325 O   0  0  0  0  0  0  0  0  0  0  0  0
  1  2  1  0
  2  4  1  0
  3  2  2  0
  4  5  1  0
  6  7  1  1
  6  5  1  0
  8  9  2  0
  8  6  1  0
 10  8  1  0
 11 10  1  0
 11 12  1  1
 13 14  2  0
 13 12  1  0
 15 14  1  0
 16 15  2  0
 17 16  1  0
 17 18  2  0
 18 13  1  0
 19 20  2  0
 19 11  1  0
 22 23  2  0
 22 21  1  0
 24 22  1  0
 25 24  1  0
 26 27  1  0
 26 25  1  0
 28 29  1  0
 28 27  1  6
 29 19  1  0
 30 28  1  0
 31 30  1  0
 32 30  2  0
M  END
$$$$
