QFR.pdb
     RDKit          3D

 32 32  0  0  1  0  0  0  0  0999 V2000
    8.2371  -12.5595   16.7419 N   0  0  0  0  0  0  0  0  0  0  0  0
    7.8924  -13.8597   16.3094 C   0  0  0  0  0  0  0  0  0  0  0  0
    7.8725  -14.1265   15.0802 O   0  0  0  0  0  0  0  0  0  0  0  0
    7.5582  -14.8958   17.3013 C   0  0  0  0  0  0  0  0  0  0  0  0
    7.6106  -14.3212   18.7122 C   0  0  0  0  0  0  0  0  0  0  0  0
    8.0763  -15.4493   19.6108 C   0  0  2  0  0  0  0  0  0  0  0  0
    7.0258  -16.4075   19.8587 N   0  0  0  0  0  0  0  0  0  0  0  0
    8.4884  -14.8801   20.9273 C   0  0  0  0  0  0  0  0  0  0  0  0
    9.4396  -14.0881   21.0471 O   0  0  0  0  0  0  0  0  0  0  0  0
    7.7691  -15.2544   22.0937 N   0  0  0  0  0  0  0  0  0  0  0  0
    8.1343  -14.7383   23.4370 C   0  0  1  0  0  0  0  0  0  0  0  0
    6.8565  -14.4891   24.1134 C   0  0  0  0  0  0  0  0  0  0  0  0
    6.7884  -13.6735   25.2937 C   0  0  0  0  0  0  0  0  0  0  0  0
    5.6103  -13.4511   26.0149 C   0  0  0  0  0  0  0  0  0  0  0  0
    5.6095  -12.6739   27.1527 C   0  0  0  0  0  0  0  0  0  0  0  0
    6.7466  -12.0880   27.6284 C   0  0  0  0  0  0  0  0  0  0  0  0
    7.9156  -12.2968   26.9299 C   0  0  0  0  0  0  0  0  0  0  0  0
    7.9221  -13.0737   25.7908 C   0  0  0  0  0  0  0  0  0  0  0  0
    9.0297  -15.7480   24.0284 C   0  0  0  0  0  0  0  0  0  0  0  0
    8.5895  -16.9386   24.2158 O   0  0  0  0  0  0  0  0  0  0  0  0
   18.0459  -17.3497   23.1800 N   0  0  0  0  0  0  0  0  0  0  0  0
   17.2753  -18.0992   24.1489 C   0  0  0  0  0  0  0  0  0  0  0  0
   17.6314  -19.2789   24.4610 N   0  0  0  0  0  0  0  0  0  0  0  0
   16.1398  -17.4787   24.7223 N   0  0  0  0  0  0  0  0  0  0  0  0
   15.0576  -17.0011   23.9069 C   0  0  0  0  0  0  0  0  0  0  0  0
   13.6847  -17.4480   24.3576 C   0  0  0  0  0  0  0  0  0  0  0  0
   12.6655  -16.3596   24.2317 C   0  0  0  0  0  0  0  0  0  0  0  0
   11.2757  -16.7032   24.6364 C   0  0  2  0  0  0  0  0  0  0  0  0
   10.3737  -15.5525   24.4259 N   0  0  0  0  0  0  0  0  0  0  0  0
   11.2370  -17.0589   26.0727 C   0  0  0  0  0  0  0  0  0  0  0  0
   11.6929  -18.2673   26.5464 O   0  0  0  0  0  0  0  0  0  0  0  0
   10.7793  -16.2680   26.9487 O   0  0  0  0  0  0  0  0  0  0  0  0
  1  2  1  0
  2  4  1  0
  3  2  2  0
  4  5  1  0
  6  7  1  1
  6  5  1  0
  8  9  2  0
  8  6  1  0
 10  8  1  0
 11 10  1  0
 11 12  1  1
 13 14  2  0
 13 12  1  0
 15 14  1  0
 16 15  2  0
 17 16  1  0
 17 18  2  0
 18 13  1  0
 19 20  2  0
 19 11  1  0
 22 23  2  0
 22 21  1  0
 24 22  1  0
 25 24  1  0
 26 27  1  0
 26 25  1  0
 28 29  1  0
 28 27  1  1
 29 19  1  0
 30 28  1  0
 31 30  1  0
 32 30  2  0
M  END
$$$$
