QFR.pdb
     RDKit          3D

 32 32  0  0  1  0  0  0  0  0999 V2000
    5.7482  -21.8277   27.7803 N   0  0  0  0  0  0  0  0  0  0  0  0
    5.5812  -22.9009   26.8766 C   0  0  0  0  0  0  0  0  0  0  0  0
    5.6744  -24.0863   27.2874 O   0  0  0  0  0  0  0  0  0  0  0  0
    5.2985  -22.6251   25.4577 C   0  0  0  0  0  0  0  0  0  0  0  0
    5.0571  -21.1358   25.2409 C   0  0  0  0  0  0  0  0  0  0  0  0
    6.4058  -20.5343   24.9001 C   0  0  2  0  0  0  0  0  0  0  0  0
    7.3328  -20.6344   26.0018 N   0  0  0  0  0  0  0  0  0  0  0  0
    6.2251  -19.0853   24.5921 C   0  0  0  0  0  0  0  0  0  0  0  0
    5.4194  -18.6771   23.7372 O   0  0  0  0  0  0  0  0  0  0  0  0
    7.0016  -18.1297   25.3004 N   0  0  0  0  0  0  0  0  0  0  0  0
    6.9260  -16.6789   24.9945 C   0  0  1  0  0  0  0  0  0  0  0  0
    7.0930  -16.0045   26.2866 C   0  0  0  0  0  0  0  0  0  0  0  0
    7.1716  -14.5729   26.3719 C   0  0  0  0  0  0  0  0  0  0  0  0
    8.3718  -13.8573   26.3020 C   0  0  0  0  0  0  0  0  0  0  0  0
    8.3838  -12.4811   26.3700 C   0  0  0  0  0  0  0  0  0  0  0  0
    7.2367  -11.7545   26.5077 C   0  0  0  0  0  0  0  0  0  0  0  0
    6.0460  -12.4437   26.5781 C   0  0  0  0  0  0  0  0  0  0  0  0
    6.0282  -13.8208   26.5105 C   0  0  0  0  0  0  0  0  0  0  0  0
    7.9469  -16.4295   23.9618 C   0  0  0  0  0  0  0  0  0  0  0  0
    8.9965  -17.1670   23.9316 O   0  0  0  0  0  0  0  0  0  0  0  0
    7.7847  -11.8006   16.3302 N   0  0  0  0  0  0  0  0  0  0  0  0
    8.5842  -12.9645   16.0134 C   0  0  0  0  0  0  0  0  0  0  0  0
    8.9376  -13.1783   14.8113 N   0  0  0  0  0  0  0  0  0  0  0  0
    8.9497  -13.8308   17.0713 N   0  0  0  0  0  0  0  0  0  0  0  0
    8.4657  -13.6235   18.4081 C   0  0  0  0  0  0  0  0  0  0  0  0
    9.1016  -14.5131   19.4531 C   0  0  0  0  0  0  0  0  0  0  0  0
    8.3165  -14.5406   20.7266 C   0  0  0  0  0  0  0  0  0  0  0  0
    8.7228  -15.5575   21.7337 C   0  0  2  0  0  0  0  0  0  0  0  0
    7.9022  -15.4352   22.9559 N   0  0  0  0  0  0  0  0  0  0  0  0
   10.1402  -15.3612   22.1120 C   0  0  0  0  0  0  0  0  0  0  0  0
   11.1812  -15.8073   21.3311 O   0  0  0  0  0  0  0  0  0  0  0  0
   10.4749  -14.7704   23.1802 O   0  0  0  0  0  0  0  0  0  0  0  0
  1  2  1  0
  2  4  1  0
  3  2  2  0
  4  5  1  0
  6  7  1  1
  6  5  1  0
  8  9  2  0
  8  6  1  0
 10  8  1  0
 11 10  1  0
 11 12  1  1
 13 14  2  0
 13 12  1  0
 15 14  1  0
 16 15  2  0
 17 16  1  0
 17 18  2  0
 18 13  1  0
 19 20  2  0
 19 11  1  0
 22 23  2  0
 22 21  1  0
 24 22  1  0
 25 24  1  0
 26 27  1  0
 26 25  1  0
 28 29  1  0
 28 27  1  6
 29 19  1  0
 30 28  1  0
 31 30  1  0
 32 30  2  0
M  END
$$$$
