QFR.pdb
     RDKit          3D

 32 32  0  0  1  0  0  0  0  0999 V2000
    5.7312  -17.6836   18.6315 N   0  0  0  0  0  0  0  0  0  0  0  0
    6.4407  -18.7468   19.2337 C   0  0  0  0  0  0  0  0  0  0  0  0
    5.8267  -19.5926   19.9338 O   0  0  0  0  0  0  0  0  0  0  0  0
    7.8961  -18.8585   19.0379 C   0  0  0  0  0  0  0  0  0  0  0  0
    8.6400  -18.3938   20.2845 C   0  0  0  0  0  0  0  0  0  0  0  0
    9.1015  -16.9788   19.9983 C   0  0  2  0  0  0  0  0  0  0  0  0
   10.3268  -16.9571   19.2358 N   0  0  0  0  0  0  0  0  0  0  0  0
    9.3628  -16.2843   21.2930 C   0  0  0  0  0  0  0  0  0  0  0  0
   10.4354  -16.4005   21.9115 O   0  0  0  0  0  0  0  0  0  0  0  0
    8.3497  -15.4561   21.8458 N   0  0  0  0  0  0  0  0  0  0  0  0
    8.4886  -14.8423   23.1905 C   0  0  1  0  0  0  0  0  0  0  0  0
    7.4539  -13.8038   23.2475 C   0  0  0  0  0  0  0  0  0  0  0  0
    7.1762  -13.0992   24.4680 C   0  0  0  0  0  0  0  0  0  0  0  0
    5.9851  -13.2376   25.1888 C   0  0  0  0  0  0  0  0  0  0  0  0
    5.7824  -12.5498   26.3655 C   0  0  0  0  0  0  0  0  0  0  0  0
    6.7241  -11.7074   26.8814 C   0  0  0  0  0  0  0  0  0  0  0  0
    7.9028  -11.5596   26.1839 C   0  0  0  0  0  0  0  0  0  0  0  0
    8.1110  -12.2454   25.0060 C   0  0  0  0  0  0  0  0  0  0  0  0
    8.3897  -15.9526   24.1540 C   0  0  0  0  0  0  0  0  0  0  0  0
    7.6240  -16.9462   23.8840 O   0  0  0  0  0  0  0  0  0  0  0  0
   14.1828  -19.2248   23.4726 N   0  0  0  0  0  0  0  0  0  0  0  0
   13.8287  -20.3986   24.2413 C   0  0  0  0  0  0  0  0  0  0  0  0
   14.7052  -20.9647   24.9673 N   0  0  0  0  0  0  0  0  0  0  0  0
   12.4991  -20.8760   24.1558 N   0  0  0  0  0  0  0  0  0  0  0  0
   11.3874  -20.0711   24.5806 C   0  0  0  0  0  0  0  0  0  0  0  0
   11.7691  -18.7342   25.1763 C   0  0  0  0  0  0  0  0  0  0  0  0
   10.8171  -17.6479   24.7854 C   0  0  0  0  0  0  0  0  0  0  0  0
    9.7558  -17.3102   25.7718 C   0  0  2  0  0  0  0  0  0  0  0  0
    9.0707  -16.0585   25.3899 N   0  0  0  0  0  0  0  0  0  0  0  0
   10.3507  -17.1160   27.1132 C   0  0  0  0  0  0  0  0  0  0  0  0
   10.2978  -18.0821   28.0911 O   0  0  0  0  0  0  0  0  0  0  0  0
   10.9430  -16.0451   27.4369 O   0  0  0  0  0  0  0  0  0  0  0  0
  1  2  1  0
  2  4  1  0
  3  2  2  0
  4  5  1  0
  6  7  1  6
  6  5  1  0
  8  9  2  0
  8  6  1  0
 10  8  1  0
 11 10  1  0
 11 12  1  1
 13 14  2  0
 13 12  1  0
 15 14  1  0
 16 15  2  0
 17 16  1  0
 17 18  2  0
 18 13  1  0
 19 20  2  0
 19 11  1  0
 22 23  2  0
 22 21  1  0
 24 22  1  0
 25 24  1  0
 26 27  1  0
 26 25  1  0
 28 29  1  0
 28 27  1  6
 29 19  1  0
 30 28  1  0
 31 30  1  0
 32 30  2  0
M  END
$$$$
