QFR.pdb
     RDKit          3D

 32 32  0  0  1  0  0  0  0  0999 V2000
    6.4751  -18.7253   21.4041 N   0  0  0  0  0  0  0  0  0  0  0  0
    7.1248  -19.4088   20.3520 C   0  0  0  0  0  0  0  0  0  0  0  0
    6.4465  -20.0473   19.5066 O   0  0  0  0  0  0  0  0  0  0  0  0
    8.5936  -19.3695   20.2512 C   0  0  0  0  0  0  0  0  0  0  0  0
    9.1848  -18.5401   21.3852 C   0  0  0  0  0  0  0  0  0  0  0  0
    9.3009  -17.1243   20.8570 C   0  0  2  0  0  0  0  0  0  0  0  0
   10.4004  -16.9840   19.9326 N   0  0  0  0  0  0  0  0  0  0  0  0
    9.5524  -16.2003   22.0016 C   0  0  0  0  0  0  0  0  0  0  0  0
   10.6880  -16.0079   22.4707 O   0  0  0  0  0  0  0  0  0  0  0  0
    8.4549  -15.5105   22.5825 N   0  0  0  0  0  0  0  0  0  0  0  0
    8.6225  -14.6300   23.7661 C   0  0  1  0  0  0  0  0  0  0  0  0
    7.4060  -13.8114   23.8114 C   0  0  0  0  0  0  0  0  0  0  0  0
    7.1599  -12.9075   24.9002 C   0  0  0  0  0  0  0  0  0  0  0  0
    6.2608  -13.1721   25.9389 C   0  0  0  0  0  0  0  0  0  0  0  0
    6.0803  -12.2745   26.9687 C   0  0  0  0  0  0  0  0  0  0  0  0
    6.7629  -11.0941   27.0262 C   0  0  0  0  0  0  0  0  0  0  0  0
    7.6522  -10.8178   26.0111 C   0  0  0  0  0  0  0  0  0  0  0  0
    7.8368  -11.7125   24.9782 C   0  0  0  0  0  0  0  0  0  0  0  0
    8.8788  -15.5285   24.9054 C   0  0  0  0  0  0  0  0  0  0  0  0
    9.1957  -15.0214   26.0406 O   0  0  0  0  0  0  0  0  0  0  0  0
    6.3292  -23.8834   26.8057 N   0  0  0  0  0  0  0  0  0  0  0  0
    5.6903  -22.8446   27.5846 C   0  0  0  0  0  0  0  0  0  0  0  0
    4.6248  -23.1038   28.2275 N   0  0  0  0  0  0  0  0  0  0  0  0
    6.2878  -21.5617   27.6032 N   0  0  0  0  0  0  0  0  0  0  0  0
    7.4597  -21.2717   26.8243 C   0  0  0  0  0  0  0  0  0  0  0  0
    8.1149  -19.9460   27.1420 C   0  0  0  0  0  0  0  0  0  0  0  0
    8.1235  -19.0224   25.9647 C   0  0  0  0  0  0  0  0  0  0  0  0
    8.7920  -17.7076   26.1588 C   0  0  2  0  0  0  0  0  0  0  0  0
    8.8093  -16.9419   24.8957 N   0  0  0  0  0  0  0  0  0  0  0  0
   10.1929  -17.9079   26.5925 C   0  0  0  0  0  0  0  0  0  0  0  0
   11.2662  -17.5459   25.8119 O   0  0  0  0  0  0  0  0  0  0  0  0
   10.4826  -18.4266   27.7102 O   0  0  0  0  0  0  0  0  0  0  0  0
  1  2  1  0
  2  4  1  0
  3  2  2  0
  4  5  1  0
  6  7  1  6
  6  5  1  0
  8  9  2  0
  8  6  1  0
 10  8  1  0
 11 10  1  0
 11 12  1  1
 13 14  2  0
 13 12  1  0
 15 14  1  0
 16 15  2  0
 17 16  1  0
 17 18  2  0
 18 13  1  0
 19 20  2  0
 19 11  1  0
 22 23  2  0
 22 21  1  0
 24 22  1  0
 25 24  1  0
 26 27  1  0
 26 25  1  0
 28 29  1  0
 28 27  1  6
 29 19  1  0
 30 28  1  0
 31 30  1  0
 32 30  2  0
M  END
$$$$
