QFR.pdb
     RDKit          3D

 32 32  0  0  1  0  0  0  0  0999 V2000
    9.2847  -17.1618   16.4453 N   0  0  0  0  0  0  0  0  0  0  0  0
    8.3630  -17.9767   17.1401 C   0  0  0  0  0  0  0  0  0  0  0  0
    7.6980  -18.8431   16.5159 O   0  0  0  0  0  0  0  0  0  0  0  0
    8.1864  -17.8068   18.5923 C   0  0  0  0  0  0  0  0  0  0  0  0
    9.1580  -16.7626   19.1300 C   0  0  0  0  0  0  0  0  0  0  0  0
    8.3098  -15.5953   19.5934 C   0  0  2  0  0  0  0  0  0  0  0  0
    8.4125  -14.4677   18.6983 N   0  0  0  0  0  0  0  0  0  0  0  0
    8.7893  -15.1518   20.9353 C   0  0  0  0  0  0  0  0  0  0  0  0
    9.9960  -15.0254   21.2079 O   0  0  0  0  0  0  0  0  0  0  0  0
    7.8337  -14.8613   21.9454 N   0  0  0  0  0  0  0  0  0  0  0  0
    8.2395  -14.3903   23.2936 C   0  0  1  0  0  0  0  0  0  0  0  0
    7.2071  -13.4267   23.6909 C   0  0  0  0  0  0  0  0  0  0  0  0
    7.1733  -12.8807   25.0190 C   0  0  0  0  0  0  0  0  0  0  0  0
    8.0869  -11.9316   25.4901 C   0  0  0  0  0  0  0  0  0  0  0  0
    7.9930  -11.4285   26.7695 C   0  0  0  0  0  0  0  0  0  0  0  0
    7.0137  -11.8270   27.6325 C   0  0  0  0  0  0  0  0  0  0  0  0
    6.1058  -12.7612   27.1844 C   0  0  0  0  0  0  0  0  0  0  0  0
    6.1950  -13.2680   25.9052 C   0  0  0  0  0  0  0  0  0  0  0  0
    8.3894  -15.6027   24.1174 C   0  0  0  0  0  0  0  0  0  0  0  0
    7.8247  -16.6897   23.7356 O   0  0  0  0  0  0  0  0  0  0  0  0
   10.4688  -22.8919   22.7915 N   0  0  0  0  0  0  0  0  0  0  0  0
   11.5073  -21.9906   23.2425 C   0  0  0  0  0  0  0  0  0  0  0  0
   12.6820  -22.0946   22.7681 N   0  0  0  0  0  0  0  0  0  0  0  0
   11.1685  -21.0114   24.2065 N   0  0  0  0  0  0  0  0  0  0  0  0
   11.7504  -19.6981   24.1742 C   0  0  0  0  0  0  0  0  0  0  0  0
   11.3470  -18.8021   25.3240 C   0  0  0  0  0  0  0  0  0  0  0  0
   10.6065  -17.5868   24.8616 C   0  0  0  0  0  0  0  0  0  0  0  0
    9.5972  -17.0284   25.8012 C   0  0  2  0  0  0  0  0  0  0  0  0
    9.1159  -15.7150   25.3266 N   0  0  0  0  0  0  0  0  0  0  0  0
   10.1983  -16.8393   27.1406 C   0  0  0  0  0  0  0  0  0  0  0  0
   10.5430  -17.8963   27.9508 O   0  0  0  0  0  0  0  0  0  0  0  0
   10.4286  -15.6896   27.6175 O   0  0  0  0  0  0  0  0  0  0  0  0
  1  2  1  0
  2  4  1  0
  3  2  2  0
  4  5  1  0
  6  7  1  6
  6  5  1  0
  8  9  2  0
  8  6  1  0
 10  8  1  0
 11 10  1  0
 11 12  1  1
 13 14  2  0
 13 12  1  0
 15 14  1  0
 16 15  2  0
 17 16  1  0
 17 18  2  0
 18 13  1  0
 19 20  2  0
 19 11  1  0
 22 23  2  0
 22 21  1  0
 24 22  1  0
 25 24  1  0
 26 27  1  0
 26 25  1  0
 28 29  1  0
 28 27  1  6
 29 19  1  0
 30 28  1  0
 31 30  1  0
 32 30  2  0
M  END
$$$$
