QFR.pdb
     RDKit          3D

 32 32  0  0  1  0  0  0  0  0999 V2000
    6.5595  -19.7900   19.6718 N   0  0  0  0  0  0  0  0  0  0  0  0
    7.8708  -19.5033   19.2308 C   0  0  0  0  0  0  0  0  0  0  0  0
    8.6504  -20.4437   18.9302 O   0  0  0  0  0  0  0  0  0  0  0  0
    8.3174  -18.1038   19.1254 C   0  0  0  0  0  0  0  0  0  0  0  0
    7.1790  -17.1521   19.4741 C   0  0  0  0  0  0  0  0  0  0  0  0
    7.7341  -15.7514   19.3105 C   0  0  2  0  0  0  0  0  0  0  0  0
    8.7766  -15.6995   18.3136 N   0  0  0  0  0  0  0  0  0  0  0  0
    8.3271  -15.3118   20.6074 C   0  0  0  0  0  0  0  0  0  0  0  0
    9.5394  -15.4224   20.8620 O   0  0  0  0  0  0  0  0  0  0  0  0
    7.4780  -14.7436   21.5943 N   0  0  0  0  0  0  0  0  0  0  0  0
    8.0046  -14.2634   22.8967 C   0  0  1  0  0  0  0  0  0  0  0  0
    6.9319  -13.4395   23.4647 C   0  0  0  0  0  0  0  0  0  0  0  0
    7.0127  -12.9394   24.8088 C   0  0  0  0  0  0  0  0  0  0  0  0
    6.1793  -13.3695   25.8470 C   0  0  0  0  0  0  0  0  0  0  0  0
    6.3164  -12.8675   27.1229 C   0  0  0  0  0  0  0  0  0  0  0  0
    7.2628  -11.9347   27.4345 C   0  0  0  0  0  0  0  0  0  0  0  0
    8.0917  -11.5003   26.4236 C   0  0  0  0  0  0  0  0  0  0  0  0
    7.9589  -11.9993   25.1451 C   0  0  0  0  0  0  0  0  0  0  0  0
    8.4005  -15.4707   23.6428 C   0  0  0  0  0  0  0  0  0  0  0  0
    7.6435  -16.5058   23.6010 O   0  0  0  0  0  0  0  0  0  0  0  0
   13.8381  -20.3260   27.4320 N   0  0  0  0  0  0  0  0  0  0  0  0
   14.4968  -20.2990   26.1438 C   0  0  0  0  0  0  0  0  0  0  0  0
   15.7665  -20.3153   26.0846 N   0  0  0  0  0  0  0  0  0  0  0  0
   13.6892  -20.2581   24.9823 N   0  0  0  0  0  0  0  0  0  0  0  0
   13.1439  -19.0216   24.4944 C   0  0  0  0  0  0  0  0  0  0  0  0
   11.8117  -18.6386   25.0996 C   0  0  0  0  0  0  0  0  0  0  0  0
   11.2506  -17.3924   24.4902 C   0  0  0  0  0  0  0  0  0  0  0  0
    9.9232  -16.9480   24.9940 C   0  0  2  0  0  0  0  0  0  0  0  0
    9.5668  -15.6309   24.4280 N   0  0  0  0  0  0  0  0  0  0  0  0
    9.9552  -16.8197   26.4683 C   0  0  0  0  0  0  0  0  0  0  0  0
   10.2677  -15.6382   27.0998 O   0  0  0  0  0  0  0  0  0  0  0  0
    9.6966  -17.7945   27.2333 O   0  0  0  0  0  0  0  0  0  0  0  0
  1  2  1  0
  2  4  1  0
  3  2  2  0
  4  5  1  0
  6  7  1  6
  6  5  1  0
  8  9  2  0
  8  6  1  0
 10  8  1  0
 11 10  1  0
 11 12  1  1
 13 14  2  0
 13 12  1  0
 15 14  1  0
 16 15  2  0
 17 16  1  0
 17 18  2  0
 18 13  1  0
 19 20  2  0
 19 11  1  0
 22 23  2  0
 22 21  1  0
 24 22  1  0
 25 24  1  0
 26 27  1  0
 26 25  1  0
 28 29  1  0
 28 27  1  6
 29 19  1  0
 30 28  1  0
 31 30  1  0
 32 30  2  0
M  END
$$$$
