QFR.pdb
     RDKit          3D

 32 32  0  0  1  0  0  0  0  0999 V2000
    8.4122  -21.0235   20.6302 N   0  0  0  0  0  0  0  0  0  0  0  0
    8.2852  -20.4672   19.3377 C   0  0  0  0  0  0  0  0  0  0  0  0
    8.0775  -21.2181   18.3500 O   0  0  0  0  0  0  0  0  0  0  0  0
    8.3967  -19.0101   19.1544 C   0  0  0  0  0  0  0  0  0  0  0  0
    8.6612  -18.3225   20.4888 C   0  0  0  0  0  0  0  0  0  0  0  0
    8.6490  -16.8335   20.2066 C   0  0  2  0  0  0  0  0  0  0  0  0
    9.5603  -16.4804   19.1445 N   0  0  0  0  0  0  0  0  0  0  0  0
    9.0828  -16.1051   21.4347 C   0  0  0  0  0  0  0  0  0  0  0  0
   10.2734  -16.0344   21.7869 O   0  0  0  0  0  0  0  0  0  0  0  0
    8.1010  -15.4651   22.2374 N   0  0  0  0  0  0  0  0  0  0  0  0
    8.4508  -14.7954   23.5154 C   0  0  1  0  0  0  0  0  0  0  0  0
    7.3223  -13.9034   23.8034 C   0  0  0  0  0  0  0  0  0  0  0  0
    7.2547  -13.1655   25.0338 C   0  0  0  0  0  0  0  0  0  0  0  0
    8.1898  -12.1942   25.4072 C   0  0  0  0  0  0  0  0  0  0  0  0
    8.0625  -11.5035   26.5927 C   0  0  0  0  0  0  0  0  0  0  0  0
    7.0281  -11.7304   27.4536 C   0  0  0  0  0  0  0  0  0  0  0  0
    6.0983  -12.6839   27.1012 C   0  0  0  0  0  0  0  0  0  0  0  0
    6.2208  -13.3779   25.9160 C   0  0  0  0  0  0  0  0  0  0  0  0
    8.7233  -15.8775   24.4776 C   0  0  0  0  0  0  0  0  0  0  0  0
    7.9266  -16.8821   24.5284 O   0  0  0  0  0  0  0  0  0  0  0  0
   13.8682  -20.8214   22.4189 N   0  0  0  0  0  0  0  0  0  0  0  0
   13.7033  -19.4177   22.1079 C   0  0  0  0  0  0  0  0  0  0  0  0
   13.9128  -19.0056   20.9238 N   0  0  0  0  0  0  0  0  0  0  0  0
   13.3060  -18.5458   23.1495 N   0  0  0  0  0  0  0  0  0  0  0  0
   12.7001  -19.0459   24.3524 C   0  0  0  0  0  0  0  0  0  0  0  0
   11.3194  -18.4978   24.6370 C   0  0  0  0  0  0  0  0  0  0  0  0
   11.2413  -17.8255   25.9716 C   0  0  0  0  0  0  0  0  0  0  0  0
    9.9747  -17.1084   26.2792 C   0  0  2  0  0  0  0  0  0  0  0  0
    9.8064  -15.9441   25.3858 N   0  0  0  0  0  0  0  0  0  0  0  0
    9.9945  -16.6160   27.6749 C   0  0  0  0  0  0  0  0  0  0  0  0
   10.0439  -17.4646   28.7565 O   0  0  0  0  0  0  0  0  0  0  0  0
    9.9660  -15.3812   27.9521 O   0  0  0  0  0  0  0  0  0  0  0  0
  1  2  1  0
  2  4  1  0
  3  2  2  0
  4  5  1  0
  6  7  1  6
  6  5  1  0
  8  9  2  0
  8  6  1  0
 10  8  1  0
 11 10  1  0
 11 12  1  1
 13 14  2  0
 13 12  1  0
 15 14  1  0
 16 15  2  0
 17 16  1  0
 17 18  2  0
 18 13  1  0
 19 20  2  0
 19 11  1  0
 22 23  2  0
 22 21  1  0
 24 22  1  0
 25 24  1  0
 26 27  1  0
 26 25  1  0
 28 29  1  0
 28 27  1  6
 29 19  1  0
 30 28  1  0
 31 30  1  0
 32 30  2  0
M  END
$$$$
