QFR.pdb
     RDKit          3D

 32 32  0  0  1  0  0  0  0  0999 V2000
   10.0667  -16.8702   16.6243 N   0  0  0  0  0  0  0  0  0  0  0  0
    8.6859  -16.7722   16.3415 C   0  0  0  0  0  0  0  0  0  0  0  0
    8.1928  -17.4313   15.3903 O   0  0  0  0  0  0  0  0  0  0  0  0
    7.8314  -15.8980   17.1629 C   0  0  0  0  0  0  0  0  0  0  0  0
    8.6405  -15.2656   18.2894 C   0  0  0  0  0  0  0  0  0  0  0  0
    8.5878  -16.2422   19.4472 C   0  0  2  0  0  0  0  0  0  0  0  0
    7.2480  -16.7243   19.6830 N   0  0  0  0  0  0  0  0  0  0  0  0
    9.0425  -15.5472   20.6870 C   0  0  0  0  0  0  0  0  0  0  0  0
   10.1667  -15.0252   20.7890 O   0  0  0  0  0  0  0  0  0  0  0  0
    8.1605  -15.4759   21.7982 N   0  0  0  0  0  0  0  0  0  0  0  0
    8.5723  -14.8616   23.0855 C   0  0  1  0  0  0  0  0  0  0  0  0
    7.4217  -14.0585   23.5136 C   0  0  0  0  0  0  0  0  0  0  0  0
    7.4259  -13.3682   24.7732 C   0  0  0  0  0  0  0  0  0  0  0  0
    8.1895  -12.2237   25.0270 C   0  0  0  0  0  0  0  0  0  0  0  0
    8.1380  -11.5918   26.2505 C   0  0  0  0  0  0  0  0  0  0  0  0
    7.3474  -12.0464   27.2657 C   0  0  0  0  0  0  0  0  0  0  0  0
    6.5890  -13.1725   27.0325 C   0  0  0  0  0  0  0  0  0  0  0  0
    6.6366  -13.8088   25.8101 C   0  0  0  0  0  0  0  0  0  0  0  0
    8.9809  -15.9791   23.9544 C   0  0  0  0  0  0  0  0  0  0  0  0
    8.2924  -17.0618   23.9431 O   0  0  0  0  0  0  0  0  0  0  0  0
   15.2358  -21.3652   26.6781 N   0  0  0  0  0  0  0  0  0  0  0  0
   14.3800  -21.5098   25.5201 C   0  0  0  0  0  0  0  0  0  0  0  0
   14.8798  -21.8693   24.4079 N   0  0  0  0  0  0  0  0  0  0  0  0
   12.9984  -21.2445   25.6742 N   0  0  0  0  0  0  0  0  0  0  0  0
   12.3826  -20.1044   25.0535 C   0  0  0  0  0  0  0  0  0  0  0  0
   12.4026  -18.8445   25.8901 C   0  0  0  0  0  0  0  0  0  0  0  0
   11.8394  -17.6685   25.1558 C   0  0  0  0  0  0  0  0  0  0  0  0
   10.4685  -17.2399   25.5433 C   0  0  2  0  0  0  0  0  0  0  0  0
   10.0908  -16.0015   24.8321 N   0  0  0  0  0  0  0  0  0  0  0  0
   10.4119  -16.9687   26.9973 C   0  0  0  0  0  0  0  0  0  0  0  0
   10.5177  -17.9660   27.9389 O   0  0  0  0  0  0  0  0  0  0  0  0
   10.2613  -15.7990   27.4572 O   0  0  0  0  0  0  0  0  0  0  0  0
  1  2  1  0
  2  4  1  0
  3  2  2  0
  4  5  1  0
  6  7  1  1
  6  5  1  0
  8  9  2  0
  8  6  1  0
 10  8  1  0
 11 10  1  0
 11 12  1  1
 13 14  2  0
 13 12  1  0
 15 14  1  0
 16 15  2  0
 17 16  1  0
 17 18  2  0
 18 13  1  0
 19 20  2  0
 19 11  1  0
 22 23  2  0
 22 21  1  0
 24 22  1  0
 25 24  1  0
 26 27  1  0
 26 25  1  0
 28 29  1  0
 28 27  1  6
 29 19  1  0
 30 28  1  0
 31 30  1  0
 32 30  2  0
M  END
$$$$
