QFR.pdb
     RDKit          3D

 32 32  0  0  1  0  0  0  0  0999 V2000
    9.0719  -21.2079   21.1177 N   0  0  0  0  0  0  0  0  0  0  0  0
    8.6289  -20.8140   19.8352 C   0  0  0  0  0  0  0  0  0  0  0  0
    8.3496  -21.6867   18.9733 O   0  0  0  0  0  0  0  0  0  0  0  0
    8.4966  -19.3826   19.5148 C   0  0  0  0  0  0  0  0  0  0  0  0
    8.7348  -18.5328   20.7577 C   0  0  0  0  0  0  0  0  0  0  0  0
    8.4641  -17.0991   20.3475 C   0  0  2  0  0  0  0  0  0  0  0  0
    9.2084  -16.7280   19.1679 N   0  0  0  0  0  0  0  0  0  0  0  0
    8.8885  -16.1915   21.4534 C   0  0  0  0  0  0  0  0  0  0  0  0
   10.0829  -15.9486   21.7004 O   0  0  0  0  0  0  0  0  0  0  0  0
    7.8929  -15.5777   22.2596 N   0  0  0  0  0  0  0  0  0  0  0  0
    8.2411  -14.7968   23.4733 C   0  0  1  0  0  0  0  0  0  0  0  0
    7.1062  -13.8921   23.6869 C   0  0  0  0  0  0  0  0  0  0  0  0
    7.0052  -13.0968   24.8787 C   0  0  0  0  0  0  0  0  0  0  0  0
    6.1931  -13.4322   25.9675 C   0  0  0  0  0  0  0  0  0  0  0  0
    6.1516  -12.6398   27.0940 C   0  0  0  0  0  0  0  0  0  0  0  0
    6.8933  -11.4993   27.2029 C   0  0  0  0  0  0  0  0  0  0  0  0
    7.6984  -11.1545   26.1396 C   0  0  0  0  0  0  0  0  0  0  0  0
    7.7438  -11.9438   25.0099 C   0  0  0  0  0  0  0  0  0  0  0  0
    8.5253  -15.7890   24.5248 C   0  0  0  0  0  0  0  0  0  0  0  0
    7.6967  -16.7499   24.7159 O   0  0  0  0  0  0  0  0  0  0  0  0
   13.1206  -20.7497   22.6139 N   0  0  0  0  0  0  0  0  0  0  0  0
   13.2643  -19.4321   22.0331 C   0  0  0  0  0  0  0  0  0  0  0  0
   14.0741  -19.2527   21.0698 N   0  0  0  0  0  0  0  0  0  0  0  0
   12.4833  -18.3791   22.5664 N   0  0  0  0  0  0  0  0  0  0  0  0
   12.4893  -18.0820   23.9721 C   0  0  0  0  0  0  0  0  0  0  0  0
   11.1703  -18.3221   24.6722 C   0  0  0  0  0  0  0  0  0  0  0  0
   11.1115  -17.6581   26.0119 C   0  0  0  0  0  0  0  0  0  0  0  0
    9.8594  -16.9211   26.3319 C   0  0  2  0  0  0  0  0  0  0  0  0
    9.6524  -15.8105   25.3802 N   0  0  0  0  0  0  0  0  0  0  0  0
    9.9399  -16.3482   27.6943 C   0  0  0  0  0  0  0  0  0  0  0  0
    9.8037  -15.0012   27.9378 O   0  0  0  0  0  0  0  0  0  0  0  0
   10.1404  -17.0689   28.7154 O   0  0  0  0  0  0  0  0  0  0  0  0
  1  2  1  0
  2  4  1  0
  3  2  2  0
  4  5  1  0
  6  7  1  6
  6  5  1  0
  8  9  2  0
  8  6  1  0
 10  8  1  0
 11 10  1  0
 11 12  1  1
 13 14  2  0
 13 12  1  0
 15 14  1  0
 16 15  2  0
 17 16  1  0
 17 18  2  0
 18 13  1  0
 19 20  2  0
 19 11  1  0
 22 23  2  0
 22 21  1  0
 24 22  1  0
 25 24  1  0
 26 27  1  0
 26 25  1  0
 28 29  1  0
 28 27  1  6
 29 19  1  0
 30 28  1  0
 31 30  1  0
 32 30  2  0
M  END
$$$$
