QFR.pdb
     RDKit          3D

 32 32  0  0  1  0  0  0  0  0999 V2000
    8.1602  -18.7806   18.4512 N   0  0  0  0  0  0  0  0  0  0  0  0
    8.7656  -17.5752   18.0307 C   0  0  0  0  0  0  0  0  0  0  0  0
    9.5479  -17.5774   17.0455 O   0  0  0  0  0  0  0  0  0  0  0  0
    8.4769  -16.3223   18.7489 C   0  0  0  0  0  0  0  0  0  0  0  0
    7.3870  -16.5433   19.7914 C   0  0  0  0  0  0  0  0  0  0  0  0
    7.1114  -15.1867   20.4086 C   0  0  2  0  0  0  0  0  0  0  0  0
    7.3858  -14.1110   19.4863 N   0  0  0  0  0  0  0  0  0  0  0  0
    8.0013  -15.0045   21.5927 C   0  0  0  0  0  0  0  0  0  0  0  0
    9.1282  -14.4850   21.5107 O   0  0  0  0  0  0  0  0  0  0  0  0
    7.5483  -15.4398   22.8667 N   0  0  0  0  0  0  0  0  0  0  0  0
    8.2919  -15.1219   24.1118 C   0  0  1  0  0  0  0  0  0  0  0  0
    7.2596  -14.9093   25.1322 C   0  0  0  0  0  0  0  0  0  0  0  0
    6.9825  -13.5966   25.6454 C   0  0  0  0  0  0  0  0  0  0  0  0
    7.1206  -13.2464   26.9928 C   0  0  0  0  0  0  0  0  0  0  0  0
    6.8587  -11.9642   27.4243 C   0  0  0  0  0  0  0  0  0  0  0  0
    6.4555  -10.9816   26.5673 C   0  0  0  0  0  0  0  0  0  0  0  0
    6.3144  -11.3098   25.2368 C   0  0  0  0  0  0  0  0  0  0  0  0
    6.5751  -12.5912   24.7995 C   0  0  0  0  0  0  0  0  0  0  0  0
    9.2307  -16.2385   24.3184 C   0  0  0  0  0  0  0  0  0  0  0  0
    8.7749  -17.4372   24.3584 O   0  0  0  0  0  0  0  0  0  0  0  0
   16.4336  -19.2591   23.0473 N   0  0  0  0  0  0  0  0  0  0  0  0
   15.3375  -20.1612   22.7660 C   0  0  0  0  0  0  0  0  0  0  0  0
   15.4257  -21.3841   23.1014 N   0  0  0  0  0  0  0  0  0  0  0  0
   14.1913  -19.6378   22.1215 N   0  0  0  0  0  0  0  0  0  0  0  0
   13.5404  -18.4505   22.6022 C   0  0  0  0  0  0  0  0  0  0  0  0
   13.7545  -18.1662   24.0723 C   0  0  0  0  0  0  0  0  0  0  0  0
   12.8963  -17.0426   24.5623 C   0  0  0  0  0  0  0  0  0  0  0  0
   11.4504  -17.3431   24.7424 C   0  0  2  0  0  0  0  0  0  0  0  0
   10.6332  -16.1409   24.4800 N   0  0  0  0  0  0  0  0  0  0  0  0
   11.1904  -17.7794   26.1327 C   0  0  0  0  0  0  0  0  0  0  0  0
   10.6846  -16.9311   27.0902 O   0  0  0  0  0  0  0  0  0  0  0  0
   11.4210  -18.9623   26.5199 O   0  0  0  0  0  0  0  0  0  0  0  0
  1  2  1  0
  2  4  1  0
  3  2  2  0
  4  5  1  0
  6  7  1  6
  6  5  1  0
  8  9  2  0
  8  6  1  0
 10  8  1  0
 11 10  1  0
 11 12  1  1
 13 14  2  0
 13 12  1  0
 15 14  1  0
 16 15  2  0
 17 16  1  0
 17 18  2  0
 18 13  1  0
 19 20  2  0
 19 11  1  0
 22 23  2  0
 22 21  1  0
 24 22  1  0
 25 24  1  0
 26 27  1  0
 26 25  1  0
 28 29  1  0
 28 27  1  1
 29 19  1  0
 30 28  1  0
 31 30  1  0
 32 30  2  0
M  END
$$$$
