QFR.pdb
     RDKit          3D

 32 32  0  0  1  0  0  0  0  0999 V2000
    6.6423  -13.6528   15.7688 N   0  0  0  0  0  0  0  0  0  0  0  0
    7.9832  -13.3116   16.0550 C   0  0  0  0  0  0  0  0  0  0  0  0
    8.7395  -12.9144   15.1315 O   0  0  0  0  0  0  0  0  0  0  0  0
    8.4878  -13.4228   17.4342 C   0  0  0  0  0  0  0  0  0  0  0  0
    7.4173  -14.0062   18.3492 C   0  0  0  0  0  0  0  0  0  0  0  0
    8.0542  -15.1953   19.0401 C   0  0  2  0  0  0  0  0  0  0  0  0
    7.0964  -16.2440   19.2970 N   0  0  0  0  0  0  0  0  0  0  0  0
    8.6035  -14.7531   20.3553 C   0  0  0  0  0  0  0  0  0  0  0  0
    9.6941  -14.1652   20.4628 O   0  0  0  0  0  0  0  0  0  0  0  0
    7.8552  -15.0113   21.5348 N   0  0  0  0  0  0  0  0  0  0  0  0
    8.3203  -14.5599   22.8706 C   0  0  1  0  0  0  0  0  0  0  0  0
    7.1935  -13.8102   23.4367 C   0  0  0  0  0  0  0  0  0  0  0  0
    7.2396  -13.3026   24.7796 C   0  0  0  0  0  0  0  0  0  0  0  0
    6.6165  -13.9267   25.8656 C   0  0  0  0  0  0  0  0  0  0  0  0
    6.7118  -13.4032   27.1367 C   0  0  0  0  0  0  0  0  0  0  0  0
    7.4118  -12.2609   27.3971 C   0  0  0  0  0  0  0  0  0  0  0  0
    8.0314  -11.6336   26.3386 C   0  0  0  0  0  0  0  0  0  0  0  0
    7.9395  -12.1532   25.0646 C   0  0  0  0  0  0  0  0  0  0  0  0
    8.7515  -15.7765   23.5810 C   0  0  0  0  0  0  0  0  0  0  0  0
    8.0636  -16.8518   23.4505 O   0  0  0  0  0  0  0  0  0  0  0  0
   13.1391  -21.4548   23.3576 N   0  0  0  0  0  0  0  0  0  0  0  0
   14.0969  -21.1535   24.3997 C   0  0  0  0  0  0  0  0  0  0  0  0
   14.6026  -22.0983   25.0834 N   0  0  0  0  0  0  0  0  0  0  0  0
   14.4409  -19.7981   24.6182 N   0  0  0  0  0  0  0  0  0  0  0  0
   13.5724  -18.9146   25.3458 C   0  0  0  0  0  0  0  0  0  0  0  0
   12.1249  -18.9537   24.9089 C   0  0  0  0  0  0  0  0  0  0  0  0
   11.6255  -17.6086   24.4839 C   0  0  0  0  0  0  0  0  0  0  0  0
   10.2737  -17.2202   24.9687 C   0  0  2  0  0  0  0  0  0  0  0  0
    9.8832  -15.9051   24.4208 N   0  0  0  0  0  0  0  0  0  0  0  0
   10.2717  -17.1202   26.4454 C   0  0  0  0  0  0  0  0  0  0  0  0
    9.9698  -15.9519   27.1059 O   0  0  0  0  0  0  0  0  0  0  0  0
   10.5500  -18.1083   27.1861 O   0  0  0  0  0  0  0  0  0  0  0  0
  1  2  1  0
  2  4  1  0
  3  2  2  0
  4  5  1  0
  6  7  1  1
  6  5  1  0
  8  9  2  0
  8  6  1  0
 10  8  1  0
 11 10  1  0
 11 12  1  1
 13 14  2  0
 13 12  1  0
 15 14  1  0
 16 15  2  0
 17 16  1  0
 17 18  2  0
 18 13  1  0
 19 20  2  0
 19 11  1  0
 22 23  2  0
 22 21  1  0
 24 22  1  0
 25 24  1  0
 26 27  1  0
 26 25  1  0
 28 29  1  0
 28 27  1  6
 29 19  1  0
 30 28  1  0
 31 30  1  0
 32 30  2  0
M  END
$$$$
