QFR.pdb
     RDKit          3D

 32 32  0  0  1  0  0  0  0  0999 V2000
    7.6810  -19.3848   16.8303 N   0  0  0  0  0  0  0  0  0  0  0  0
    6.7468  -19.1631   17.8668 C   0  0  0  0  0  0  0  0  0  0  0  0
    6.3355  -20.1310   18.5572 O   0  0  0  0  0  0  0  0  0  0  0  0
    6.2597  -17.7989   18.1330 C   0  0  0  0  0  0  0  0  0  0  0  0
    7.3191  -16.9878   18.8700 C   0  0  0  0  0  0  0  0  0  0  0  0
    7.3780  -17.5488   20.2767 C   0  0  2  0  0  0  0  0  0  0  0  0
    6.0617  -17.8240   20.8010 N   0  0  0  0  0  0  0  0  0  0  0  0
    8.0195  -16.5421   21.1723 C   0  0  0  0  0  0  0  0  0  0  0  0
    8.9524  -15.8099   20.7980 O   0  0  0  0  0  0  0  0  0  0  0  0
    7.5499  -16.4105   22.5064 N   0  0  0  0  0  0  0  0  0  0  0  0
    8.1342  -15.4217   23.4473 C   0  0  1  0  0  0  0  0  0  0  0  0
    6.9915  -14.8700   24.1835 C   0  0  0  0  0  0  0  0  0  0  0  0
    7.1818  -13.9331   25.2554 C   0  0  0  0  0  0  0  0  0  0  0  0
    7.6760  -14.2872   26.5155 C   0  0  0  0  0  0  0  0  0  0  0  0
    7.8561  -13.3402   27.5002 C   0  0  0  0  0  0  0  0  0  0  0  0
    7.5643  -12.0225   27.2974 C   0  0  0  0  0  0  0  0  0  0  0  0
    7.0765  -11.6568   26.0620 C   0  0  0  0  0  0  0  0  0  0  0  0
    6.8944  -12.6002   25.0731 C   0  0  0  0  0  0  0  0  0  0  0  0
    9.1517  -16.1532   24.2223 C   0  0  0  0  0  0  0  0  0  0  0  0
    8.8928  -17.3441   24.6237 O   0  0  0  0  0  0  0  0  0  0  0  0
   14.3473  -16.0842   19.5641 N   0  0  0  0  0  0  0  0  0  0  0  0
   14.7228  -14.9140   20.3280 C   0  0  0  0  0  0  0  0  0  0  0  0
   15.3730  -13.9768   19.7669 N   0  0  0  0  0  0  0  0  0  0  0  0
   14.3429  -14.8563   21.6901 N   0  0  0  0  0  0  0  0  0  0  0  0
   14.4680  -16.0005   22.5500 C   0  0  0  0  0  0  0  0  0  0  0  0
   13.1532  -16.5791   23.0236 C   0  0  0  0  0  0  0  0  0  0  0  0
   12.8189  -16.1564   24.4195 C   0  0  0  0  0  0  0  0  0  0  0  0
   11.5115  -16.6200   24.9572 C   0  0  2  0  0  0  0  0  0  0  0  0
   10.4343  -15.6795   24.5868 N   0  0  0  0  0  0  0  0  0  0  0  0
   11.5664  -16.6952   26.4344 C   0  0  0  0  0  0  0  0  0  0  0  0
   11.7319  -17.8834   27.1074 O   0  0  0  0  0  0  0  0  0  0  0  0
   11.4626  -15.6658   27.1638 O   0  0  0  0  0  0  0  0  0  0  0  0
  1  2  1  0
  2  4  1  0
  3  2  2  0
  4  5  1  0
  6  7  1  1
  6  5  1  0
  8  9  2  0
  8  6  1  0
 10  8  1  0
 11 10  1  0
 11 12  1  1
 13 14  2  0
 13 12  1  0
 15 14  1  0
 16 15  2  0
 17 16  1  0
 17 18  2  0
 18 13  1  0
 19 20  2  0
 19 11  1  0
 22 23  2  0
 22 21  1  0
 24 22  1  0
 25 24  1  0
 26 27  1  0
 26 25  1  0
 28 29  1  0
 28 27  1  1
 29 19  1  0
 30 28  1  0
 31 30  1  0
 32 30  2  0
M  END
$$$$
