QFR.pdb
     RDKit          3D

 32 32  0  0  1  0  0  0  0  0999 V2000
   11.1264  -18.9324   18.2335 N   0  0  0  0  0  0  0  0  0  0  0  0
    9.8595  -19.0510   17.6192 C   0  0  0  0  0  0  0  0  0  0  0  0
    9.7535  -19.6327   16.5089 O   0  0  0  0  0  0  0  0  0  0  0  0
    8.6696  -18.4923   18.2833 C   0  0  0  0  0  0  0  0  0  0  0  0
    9.0256  -17.9781   19.6734 C   0  0  0  0  0  0  0  0  0  0  0  0
    8.1986  -16.7260   19.8854 C   0  0  2  0  0  0  0  0  0  0  0  0
    8.2892  -15.8253   18.7612 N   0  0  0  0  0  0  0  0  0  0  0  0
    8.7137  -16.0037   21.0854 C   0  0  0  0  0  0  0  0  0  0  0  0
    9.9280  -15.8540   21.3077 O   0  0  0  0  0  0  0  0  0  0  0  0
    7.7845  -15.4635   22.0142 N   0  0  0  0  0  0  0  0  0  0  0  0
    8.2271  -14.7219   23.2218 C   0  0  1  0  0  0  0  0  0  0  0  0
    7.0747  -13.9030   23.6138 C   0  0  0  0  0  0  0  0  0  0  0  0
    7.0588  -13.1936   24.8626 C   0  0  0  0  0  0  0  0  0  0  0  0
    7.8529  -12.0725   25.1270 C   0  0  0  0  0  0  0  0  0  0  0  0
    7.7805  -11.4200   26.3386 C   0  0  0  0  0  0  0  0  0  0  0  0
    6.9390  -11.8308   27.3313 C   0  0  0  0  0  0  0  0  0  0  0  0
    6.1500  -12.9335   27.0873 C   0  0  0  0  0  0  0  0  0  0  0  0
    6.2183  -13.5901   25.8768 C   0  0  0  0  0  0  0  0  0  0  0  0
    8.6897  -15.7439   24.1770 C   0  0  0  0  0  0  0  0  0  0  0  0
    8.0026  -16.8177   24.3228 O   0  0  0  0  0  0  0  0  0  0  0  0
   13.6228  -21.5578   27.3690 N   0  0  0  0  0  0  0  0  0  0  0  0
   12.7973  -21.8955   26.2295 C   0  0  0  0  0  0  0  0  0  0  0  0
   12.4177  -23.0967   26.0599 N   0  0  0  0  0  0  0  0  0  0  0  0
   12.4365  -20.8585   25.3363 N   0  0  0  0  0  0  0  0  0  0  0  0
   11.5554  -19.7977   25.7397 C   0  0  0  0  0  0  0  0  0  0  0  0
   12.2405  -18.4744   25.9994 C   0  0  0  0  0  0  0  0  0  0  0  0
   11.6079  -17.3509   25.2400 C   0  0  0  0  0  0  0  0  0  0  0  0
   10.3030  -16.8552   25.7547 C   0  0  2  0  0  0  0  0  0  0  0  0
    9.8520  -15.6800   24.9817 N   0  0  0  0  0  0  0  0  0  0  0  0
   10.4362  -16.4482   27.1715 C   0  0  0  0  0  0  0  0  0  0  0  0
   10.4858  -17.3603   28.2001 O   0  0  0  0  0  0  0  0  0  0  0  0
   10.5110  -15.2328   27.5172 O   0  0  0  0  0  0  0  0  0  0  0  0
  1  2  1  0
  2  4  1  0
  3  2  2  0
  4  5  1  0
  6  7  1  6
  6  5  1  0
  8  9  2  0
  8  6  1  0
 10  8  1  0
 11 10  1  0
 11 12  1  1
 13 14  2  0
 13 12  1  0
 15 14  1  0
 16 15  2  0
 17 16  1  0
 17 18  2  0
 18 13  1  0
 19 20  2  0
 19 11  1  0
 22 23  2  0
 22 21  1  0
 24 22  1  0
 25 24  1  0
 26 27  1  0
 26 25  1  0
 28 29  1  0
 28 27  1  6
 29 19  1  0
 30 28  1  0
 31 30  1  0
 32 30  2  0
M  END
$$$$
