QFR.pdb
     RDKit          3D

 32 32  0  0  1  0  0  0  0  0999 V2000
  -29.2349   22.2233   18.5670 N   0  0  0  0  0  0  0  0  0  0  0  0
  -29.0653   21.9619   19.9451 C   0  0  0  0  0  0  0  0  0  0  0  0
  -27.9566   21.5493   20.3727 O   0  0  0  0  0  0  0  0  0  0  0  0
  -30.1887   22.1744   20.8735 C   0  0  0  0  0  0  0  0  0  0  0  0
  -29.9282   21.4667   22.1981 C   0  0  0  0  0  0  0  0  0  0  0  0
  -29.1095   22.4277   23.0367 C   0  0  2  0  0  0  0  0  0  0  0  0
  -29.5647   22.4684   24.4058 N   0  0  0  0  0  0  0  0  0  0  0  0
  -29.2503   23.8023   22.4729 C   0  0  0  0  0  0  0  0  0  0  0  0
  -29.6987   24.0165   21.3328 O   0  0  0  0  0  0  0  0  0  0  0  0
  -28.8582   24.9141   23.2653 N   0  0  0  0  0  0  0  0  0  0  0  0
  -29.0853   26.3117   22.8188 C   0  0  1  0  0  0  0  0  0  0  0  0
  -30.3067   26.7417   23.5082 C   0  0  0  0  0  0  0  0  0  0  0  0
  -31.0085   27.9280   23.1041 C   0  0  0  0  0  0  0  0  0  0  0  0
  -30.7907   29.1882   23.6713 C   0  0  0  0  0  0  0  0  0  0  0  0
  -31.4807   30.2958   23.2287 C   0  0  0  0  0  0  0  0  0  0  0  0
  -32.4021   30.2195   22.2248 C   0  0  0  0  0  0  0  0  0  0  0  0
  -32.6288   28.9857   21.6553 C   0  0  0  0  0  0  0  0  0  0  0  0
  -31.9411   27.8741   22.0943 C   0  0  0  0  0  0  0  0  0  0  0  0
  -27.8416   27.0406   23.1233 C   0  0  0  0  0  0  0  0  0  0  0  0
  -26.9251   26.4534   23.8027 O   0  0  0  0  0  0  0  0  0  0  0  0
  -24.1985   33.0057   23.5563 N   0  0  0  0  0  0  0  0  0  0  0  0
  -23.5857   31.6996   23.6689 C   0  0  0  0  0  0  0  0  0  0  0  0
  -22.9134   31.2327   22.6963 N   0  0  0  0  0  0  0  0  0  0  0  0
  -23.7587   30.9833   24.8773 N   0  0  0  0  0  0  0  0  0  0  0  0
  -23.9567   29.5603   24.8808 C   0  0  0  0  0  0  0  0  0  0  0  0
  -25.2582   29.1041   24.2597 C   0  0  0  0  0  0  0  0  0  0  0  0
  -25.3514   29.4662   22.8108 C   0  0  0  0  0  0  0  0  0  0  0  0
  -26.2863   28.6562   21.9842 C   0  0  2  0  0  0  0  0  0  0  0  0
  -27.5242   28.3639   22.7352 N   0  0  0  0  0  0  0  0  0  0  0  0
  -25.6567   27.3672   21.6190 C   0  0  0  0  0  0  0  0  0  0  0  0
  -24.7130   27.2624   20.6237 O   0  0  0  0  0  0  0  0  0  0  0  0
  -25.9538   26.2848   22.2042 O   0  0  0  0  0  0  0  0  0  0  0  0
  1  2  1  0
  2  4  1  0
  3  2  2  0
  4  5  1  0
  6  7  1  1
  6  5  1  0
  8  9  2  0
  8  6  1  0
 10  8  1  0
 11 10  1  0
 11 12  1  1
 13 14  2  0
 13 12  1  0
 15 14  1  0
 16 15  2  0
 17 16  1  0
 17 18  2  0
 18 13  1  0
 19 20  2  0
 19 11  1  0
 22 23  2  0
 22 21  1  0
 24 22  1  0
 25 24  1  0
 26 27  1  0
 26 25  1  0
 28 29  1  0
 28 27  1  1
 29 19  1  0
 30 28  1  0
 31 30  1  0
 32 30  2  0
M  END
$$$$
