KTK.pdb
     RDKit          3D

 26 25  0  0  1  0  0  0  0  0999 V2000
   22.7166  -20.4680  -13.6968 N   0  0  0  0  0  0  0  0  0  0  0  0
   21.8402  -20.0229  -12.6316 C   0  0  1  0  0  0  0  0  0  0  0  0
   20.4757  -19.7883  -13.2412 C   0  0  0  0  0  0  0  0  0  0  0  0
   20.6089  -19.1393  -14.6199 C   0  0  0  0  0  0  0  0  0  0  0  0
   19.2655  -18.8121  -15.2003 C   0  0  0  0  0  0  0  0  0  0  0  0
   19.3573  -18.1842  -16.5717 C   0  0  0  0  0  0  0  0  0  0  0  0
   17.9970  -17.9679  -17.0324 N   0  0  0  0  0  0  0  0  0  0  0  0
   21.7347  -21.0148  -11.5454 C   0  0  0  0  0  0  0  0  0  0  0  0
   21.9462  -22.2233  -11.8587 O   0  0  0  0  0  0  0  0  0  0  0  0
   23.4213  -20.8700   -8.0476 C   0  0  0  0  0  0  0  0  0  0  0  0
   21.9513  -21.1970   -7.8953 C   0  0  1  0  0  0  0  0  0  0  0  0
   21.2146  -20.0932   -7.5009 O   0  0  0  0  0  0  0  0  0  0  0  0
   21.4358  -21.7515   -9.2270 C   0  0  2  0  0  0  0  0  0  0  0  0
   21.4189  -20.7115  -10.2022 N   0  0  0  0  0  0  0  0  0  0  0  0
   20.0834  -22.2999   -8.9406 C   0  0  0  0  0  0  0  0  0  0  0  0
   19.0774  -21.6441   -9.3076 O   0  0  0  0  0  0  0  0  0  0  0  0
   19.9235  -23.5379   -8.2671 N   0  0  0  0  0  0  0  0  0  0  0  0
   18.6182  -24.0596   -7.8713 C   0  0  1  0  0  0  0  0  0  0  0  0
   18.4629  -25.4858   -8.2958 C   0  0  0  0  0  0  0  0  0  0  0  0
   17.0947  -26.0559   -8.0452 C   0  0  0  0  0  0  0  0  0  0  0  0
   17.0007  -27.4974   -8.5456 C   0  0  0  0  0  0  0  0  0  0  0  0
   15.6197  -28.0390   -8.4053 C   0  0  0  0  0  0  0  0  0  0  0  0
   15.6236  -29.4165   -8.8796 N   0  0  0  0  0  0  0  0  0  0  0  0
   18.5059  -23.9039   -6.4117 C   0  0  0  0  0  0  0  0  0  0  0  0
   17.3545  -23.9685   -5.8828 O   0  0  0  0  0  0  0  0  0  0  0  0
   19.5489  -23.6915   -5.5349 O   0  0  0  0  0  0  0  0  0  0  0  0
  2  1  1  6
  3  2  1  0
  4  3  1  0
  5  4  1  0
  6  5  1  0
  7  6  1  0
  8  9  2  0
  8  2  1  0
 11 10  1  6
 11 13  1  0
 12 11  1  0
 13 14  1  6
 14  8  1  0
 15 13  1  0
 16 15  2  0
 17 15  1  0
 18 17  1  0
 18 24  1  0
 18 19  1  1
 20 19  1  0
 21 20  1  0
 21 22  1  0
 22 23  1  0
 24 26  1  0
 25 24  2  0
M  END
$$$$
