KTK.pdb
     RDKit          3D

 26 25  0  0  1  0  0  0  0  0999 V2000
   16.6896  -26.7132   -9.5270 N   0  0  0  0  0  0  0  0  0  0  0  0
   17.2495  -25.3788   -9.4436 C   0  0  1  0  0  0  0  0  0  0  0  0
   18.3078  -25.4027   -8.3629 C   0  0  0  0  0  0  0  0  0  0  0  0
   17.9180  -26.3795   -7.2524 C   0  0  0  0  0  0  0  0  0  0  0  0
   17.4195  -25.6538   -6.0384 C   0  0  0  0  0  0  0  0  0  0  0  0
   17.0219  -26.5886   -4.9196 C   0  0  0  0  0  0  0  0  0  0  0  0
   16.6153  -25.7605   -3.7978 N   0  0  0  0  0  0  0  0  0  0  0  0
   17.8515  -24.9462  -10.7185 C   0  0  0  0  0  0  0  0  0  0  0  0
   18.3019  -25.8592  -11.4715 O   0  0  0  0  0  0  0  0  0  0  0  0
   16.3967  -23.3792  -13.7308 C   0  0  0  0  0  0  0  0  0  0  0  0
   17.5069  -22.4764  -13.2373 C   0  0  1  0  0  0  0  0  0  0  0  0
   17.0202  -21.4289  -12.4741 O   0  0  0  0  0  0  0  0  0  0  0  0
   18.5011  -23.3220  -12.4352 C   0  0  2  0  0  0  0  0  0  0  0  0
   17.9573  -23.6044  -11.1478 N   0  0  0  0  0  0  0  0  0  0  0  0
   19.7539  -22.5231  -12.3731 C   0  0  0  0  0  0  0  0  0  0  0  0
   19.9661  -21.8136  -11.3590 O   0  0  0  0  0  0  0  0  0  0  0  0
   20.6957  -22.5556  -13.4331 N   0  0  0  0  0  0  0  0  0  0  0  0
   21.9278  -21.7717  -13.4201 C   0  0  1  0  0  0  0  0  0  0  0  0
   22.8643  -22.2324  -14.4921 C   0  0  0  0  0  0  0  0  0  0  0  0
   24.2276  -21.6023  -14.4294 C   0  0  0  0  0  0  0  0  0  0  0  0
   25.0518  -21.9528  -15.6684 C   0  0  0  0  0  0  0  0  0  0  0  0
   26.3695  -21.2572  -15.6668 C   0  0  0  0  0  0  0  0  0  0  0  0
   27.1388  -21.7429  -16.8047 N   0  0  0  0  0  0  0  0  0  0  0  0
   21.5520  -20.3581  -13.5871 C   0  0  0  0  0  0  0  0  0  0  0  0
   20.6158  -20.0719  -14.3940 O   0  0  0  0  0  0  0  0  0  0  0  0
   22.1247  -19.2835  -12.9398 O   0  0  0  0  0  0  0  0  0  0  0  0
  2  1  1  6
  3  2  1  0
  4  3  1  0
  5  4  1  0
  6  5  1  0
  7  6  1  0
  8  9  2  0
  8  2  1  0
 11 10  1  1
 11 13  1  0
 12 11  1  0
 13 14  1  1
 14  8  1  0
 15 13  1  0
 16 15  2  0
 17 15  1  0
 18 17  1  0
 18 24  1  0
 18 19  1  6
 20 19  1  0
 21 20  1  0
 21 22  1  0
 22 23  1  0
 24 26  1  0
 25 24  2  0
M  END
$$$$
