KTK.pdb
     RDKit          3D

 26 25  0  0  1  0  0  0  0  0999 V2000
   23.1458  -21.2013   -8.2195 N   0  0  0  0  0  0  0  0  0  0  0  0
   22.4805  -21.2429   -9.5066 C   0  0  1  0  0  0  0  0  0  0  0  0
   21.1464  -20.5481   -9.3451 C   0  0  0  0  0  0  0  0  0  0  0  0
   20.0101  -21.5714   -9.3079 C   0  0  0  0  0  0  0  0  0  0  0  0
   19.9444  -22.2648   -7.9798 C   0  0  0  0  0  0  0  0  0  0  0  0
   18.7903  -23.2353   -7.8825 C   0  0  0  0  0  0  0  0  0  0  0  0
   18.8790  -23.8724   -6.5803 N   0  0  0  0  0  0  0  0  0  0  0  0
   23.2644  -20.5734  -10.5611 C   0  0  0  0  0  0  0  0  0  0  0  0
   23.7277  -19.4284  -10.2827 O   0  0  0  0  0  0  0  0  0  0  0  0
   26.4578  -21.3871  -12.1820 C   0  0  0  0  0  0  0  0  0  0  0  0
   25.4517  -21.2099  -13.2990 C   0  0  1  0  0  0  0  0  0  0  0  0
   24.9963  -22.4248  -13.7818 O   0  0  0  0  0  0  0  0  0  0  0  0
   24.2901  -20.3585  -12.7767 C   0  0  2  0  0  0  0  0  0  0  0  0
   23.5281  -21.1152  -11.8390 N   0  0  0  0  0  0  0  0  0  0  0  0
   23.5061  -19.9638  -13.9772 C   0  0  0  0  0  0  0  0  0  0  0  0
   22.3787  -20.4863  -14.1588 O   0  0  0  0  0  0  0  0  0  0  0  0
   24.0134  -19.0173  -14.9037 N   0  0  0  0  0  0  0  0  0  0  0  0
   23.2450  -18.5454  -16.0524 C   0  0  1  0  0  0  0  0  0  0  0  0
   23.8983  -17.3534  -16.6777 C   0  0  0  0  0  0  0  0  0  0  0  0
   23.1717  -16.8137  -17.8778 C   0  0  0  0  0  0  0  0  0  0  0  0
   23.8824  -15.5833  -18.4422 C   0  0  0  0  0  0  0  0  0  0  0  0
   23.2334  -15.0992  -19.6931 C   0  0  0  0  0  0  0  0  0  0  0  0
   23.9538  -13.9176  -20.1483 N   0  0  0  0  0  0  0  0  0  0  0  0
   23.1296  -19.6689  -16.9967 C   0  0  0  0  0  0  0  0  0  0  0  0
   24.1002  -20.4803  -17.0935 O   0  0  0  0  0  0  0  0  0  0  0  0
   22.0478  -19.9408  -17.8075 O   0  0  0  0  0  0  0  0  0  0  0  0
  2  1  1  1
  3  2  1  0
  4  3  1  0
  5  4  1  0
  6  5  1  0
  7  6  1  0
  8  9  2  0
  8  2  1  0
 11 10  1  1
 11 13  1  0
 12 11  1  0
 13 14  1  1
 14  8  1  0
 15 13  1  0
 16 15  2  0
 17 15  1  0
 18 17  1  0
 18 24  1  0
 18 19  1  6
 20 19  1  0
 21 20  1  0
 21 22  1  0
 22 23  1  0
 24 26  1  0
 25 24  2  0
M  END
$$$$
