KTK.pdb
     RDKit          3D

 26 25  0  0  1  0  0  0  0  0999 V2000
   21.5480  -13.6211  -18.3554 N   0  0  0  0  0  0  0  0  0  0  0  0
   21.6314  -12.2018  -18.6372 C   0  0  1  0  0  0  0  0  0  0  0  0
   20.3300  -11.7970  -19.2936 C   0  0  0  0  0  0  0  0  0  0  0  0
   19.9444  -12.7993  -20.3828 C   0  0  0  0  0  0  0  0  0  0  0  0
   18.6935  -12.3771  -21.0940 C   0  0  0  0  0  0  0  0  0  0  0  0
   18.2803  -13.3463  -22.1772 C   0  0  0  0  0  0  0  0  0  0  0  0
   18.0171  -14.6199  -21.5306 N   0  0  0  0  0  0  0  0  0  0  0  0
   21.8410  -11.4024  -17.4159 C   0  0  0  0  0  0  0  0  0  0  0  0
   21.1972  -11.7608  -16.3862 O   0  0  0  0  0  0  0  0  0  0  0  0
   24.6658  -11.0774  -15.3228 C   0  0  0  0  0  0  0  0  0  0  0  0
   24.2899   -9.6414  -15.6190 C   0  0  1  0  0  0  0  0  0  0  0  0
   25.1177   -9.0771  -16.5745 O   0  0  0  0  0  0  0  0  0  0  0  0
   22.8270   -9.6052  -16.0724 C   0  0  2  0  0  0  0  0  0  0  0  0
   22.6974  -10.2828  -17.3200 N   0  0  0  0  0  0  0  0  0  0  0  0
   22.4643   -8.1652  -16.1539 C   0  0  0  0  0  0  0  0  0  0  0  0
   22.2231   -7.6679  -17.2814 O   0  0  0  0  0  0  0  0  0  0  0  0
   22.3898   -7.3623  -14.9872 N   0  0  0  0  0  0  0  0  0  0  0  0
   22.1027   -5.9310  -15.0296 C   0  0  1  0  0  0  0  0  0  0  0  0
   20.8507   -5.6610  -15.8029 C   0  0  0  0  0  0  0  0  0  0  0  0
   20.4038   -4.2262  -15.7670 C   0  0  0  0  0  0  0  0  0  0  0  0
   19.1023   -4.0370  -16.5466 C   0  0  0  0  0  0  0  0  0  0  0  0
   18.7307   -2.5981  -16.6549 C   0  0  0  0  0  0  0  0  0  0  0  0
   17.4734   -2.5094  -17.3854 N   0  0  0  0  0  0  0  0  0  0  0  0
   22.0031   -5.4604  -13.6383 C   0  0  0  0  0  0  0  0  0  0  0  0
   22.0281   -4.2111  -13.4185 O   0  0  0  0  0  0  0  0  0  0  0  0
   21.8803   -6.2559  -12.5186 O   0  0  0  0  0  0  0  0  0  0  0  0
  2  1  1  1
  3  2  1  0
  4  3  1  0
  5  4  1  0
  6  5  1  0
  7  6  1  0
  8  9  2  0
  8  2  1  0
 11 10  1  6
 11 13  1  0
 12 11  1  0
 13 14  1  6
 14  8  1  0
 15 13  1  0
 16 15  2  0
 17 15  1  0
 18 17  1  0
 18 24  1  0
 18 19  1  6
 20 19  1  0
 21 20  1  0
 21 22  1  0
 22 23  1  0
 24 26  1  0
 25 24  2  0
M  END
$$$$
