KTK.pdb
     RDKit          3D

 26 25  0  0  1  0  0  0  0  0999 V2000
   17.7413  -16.0289  -16.1737 N   0  0  0  0  0  0  0  0  0  0  0  0
   18.7526  -15.0621  -15.7947 C   0  0  1  0  0  0  0  0  0  0  0  0
   20.0427  -15.4742  -16.4687 C   0  0  0  0  0  0  0  0  0  0  0  0
   20.3424  -16.9492  -16.1965 C   0  0  0  0  0  0  0  0  0  0  0  0
   21.5485  -17.4101  -16.9592 C   0  0  0  0  0  0  0  0  0  0  0  0
   21.8638  -18.8701  -16.7296 C   0  0  0  0  0  0  0  0  0  0  0  0
   23.0072  -19.1945  -17.5644 N   0  0  0  0  0  0  0  0  0  0  0  0
   18.3945  -13.6914  -16.2042 C   0  0  0  0  0  0  0  0  0  0  0  0
   17.9401  -13.5506  -17.3776 O   0  0  0  0  0  0  0  0  0  0  0  0
   16.7896   -9.2582  -15.4460 C   0  0  0  0  0  0  0  0  0  0  0  0
   16.9533  -10.7269  -15.1185 C   0  0  1  0  0  0  0  0  0  0  0  0
   15.8060  -11.4496  -15.3978 O   0  0  0  0  0  0  0  0  0  0  0  0
   18.1484  -11.2710  -15.9075 C   0  0  2  0  0  0  0  0  0  0  0  0
   18.5225  -12.5450  -15.3884 N   0  0  0  0  0  0  0  0  0  0  0  0
   19.2218  -10.2509  -15.7705 C   0  0  0  0  0  0  0  0  0  0  0  0
   19.8824  -10.2113  -14.7033 O   0  0  0  0  0  0  0  0  0  0  0  0
   19.5010   -9.3371  -16.8187 N   0  0  0  0  0  0  0  0  0  0  0  0
   20.5736   -8.3491  -16.7414 C   0  0  1  0  0  0  0  0  0  0  0  0
   20.6450   -7.5400  -17.9979 C   0  0  0  0  0  0  0  0  0  0  0  0
   21.7030   -6.4724  -17.9818 C   0  0  0  0  0  0  0  0  0  0  0  0
   21.6910   -5.6681  -19.2820 C   0  0  0  0  0  0  0  0  0  0  0  0
   22.7830   -4.6548  -19.3116 C   0  0  0  0  0  0  0  0  0  0  0  0
   24.0532   -5.3543  -19.1708 N   0  0  0  0  0  0  0  0  0  0  0  0
   20.3150   -7.5100  -15.5598 C   0  0  0  0  0  0  0  0  0  0  0  0
   21.2659   -7.3001  -14.7465 O   0  0  0  0  0  0  0  0  0  0  0  0
   19.1161   -6.9103  -15.2361 O   0  0  0  0  0  0  0  0  0  0  0  0
  2  1  1  6
  3  2  1  0
  4  3  1  0
  5  4  1  0
  6  5  1  0
  7  6  1  0
  8  9  2  0
  8  2  1  0
 11 10  1  6
 11 13  1  0
 12 11  1  0
 13 14  1  1
 14  8  1  0
 15 13  1  0
 16 15  2  0
 17 15  1  0
 18 17  1  0
 18 24  1  0
 18 19  1  6
 20 19  1  0
 21 20  1  0
 21 22  1  0
 22 23  1  0
 24 26  1  0
 25 24  2  0
M  END
$$$$
