KTK.pdb
     RDKit          3D

 26 25  0  0  1  0  0  0  0  0999 V2000
   29.4359  -32.7812  -16.3074 N   0  0  0  0  0  0  0  0  0  0  0  0
   28.6781  -31.9738  -17.2427 C   0  0  1  0  0  0  0  0  0  0  0  0
   27.3741  -32.6947  -17.5042 C   0  0  0  0  0  0  0  0  0  0  0  0
   27.4978  -33.5982  -18.7323 C   0  0  0  0  0  0  0  0  0  0  0  0
   28.0922  -34.9273  -18.3734 C   0  0  0  0  0  0  0  0  0  0  0  0
   28.1606  -35.8747  -19.5487 C   0  0  0  0  0  0  0  0  0  0  0  0
   28.7201  -37.1218  -19.0577 N   0  0  0  0  0  0  0  0  0  0  0  0
   28.4023  -30.6237  -16.7177 C   0  0  0  0  0  0  0  0  0  0  0  0
   28.5433  -30.4609  -15.4699 O   0  0  0  0  0  0  0  0  0  0  0  0
   30.2261  -27.5984  -17.0198 C   0  0  0  0  0  0  0  0  0  0  0  0
   28.8340  -27.2515  -17.5026 C   0  0  1  0  0  0  0  0  0  0  0  0
   28.7482  -27.2639  -18.8843 O   0  0  0  0  0  0  0  0  0  0  0  0
   27.8436  -28.2431  -16.8840 C   0  0  2  0  0  0  0  0  0  0  0  0
   27.9983  -29.5192  -17.5006 N   0  0  0  0  0  0  0  0  0  0  0  0
   26.4947  -27.6548  -17.0989 C   0  0  0  0  0  0  0  0  0  0  0  0
   25.7484  -28.1624  -17.9720 O   0  0  0  0  0  0  0  0  0  0  0  0
   26.0516  -26.5430  -16.3378 N   0  0  0  0  0  0  0  0  0  0  0  0
   24.7521  -25.9101  -16.5459 C   0  0  1  0  0  0  0  0  0  0  0  0
   24.4863  -24.8798  -15.4941 C   0  0  0  0  0  0  0  0  0  0  0  0
   23.1590  -24.1879  -15.6334 C   0  0  0  0  0  0  0  0  0  0  0  0
   22.9653  -23.1453  -14.5322 C   0  0  0  0  0  0  0  0  0  0  0  0
   21.6255  -22.4988  -14.6168 C   0  0  0  0  0  0  0  0  0  0  0  0
   21.5805  -21.4212  -13.6375 N   0  0  0  0  0  0  0  0  0  0  0  0
   24.7572  -25.3282  -17.8982 C   0  0  0  0  0  0  0  0  0  0  0  0
   23.6627  -25.2723  -18.5373 O   0  0  0  0  0  0  0  0  0  0  0  0
   25.8558  -24.8220  -18.5605 O   0  0  0  0  0  0  0  0  0  0  0  0
  2  1  1  1
  3  2  1  0
  4  3  1  0
  5  4  1  0
  6  5  1  0
  7  6  1  0
  8  9  2  0
  8  2  1  0
 11 10  1  6
 11 13  1  0
 12 11  1  0
 13 14  1  6
 14  8  1  0
 15 13  1  0
 16 15  2  0
 17 15  1  0
 18 17  1  0
 18 24  1  0
 18 19  1  1
 20 19  1  0
 21 20  1  0
 21 22  1  0
 22 23  1  0
 24 26  1  0
 25 24  2  0
M  END
$$$$
