KTK.pdb
     RDKit          3D

 26 25  0  0  1  0  0  0  0  0999 V2000
   20.1993  -13.9555  -16.9995 N   0  0  0  0  0  0  0  0  0  0  0  0
   20.2319  -12.6159  -17.5523 C   0  0  1  0  0  0  0  0  0  0  0  0
   18.8366  -12.2989  -18.0435 C   0  0  0  0  0  0  0  0  0  0  0  0
   18.3735  -13.3476  -19.0560 C   0  0  0  0  0  0  0  0  0  0  0  0
   17.0703  -12.9575  -19.6872 C   0  0  0  0  0  0  0  0  0  0  0  0
   16.5746  -13.9781  -20.6854 C   0  0  0  0  0  0  0  0  0  0  0  0
   16.0614  -15.1033  -19.9238 N   0  0  0  0  0  0  0  0  0  0  0  0
   20.6475  -11.6116  -16.5557 C   0  0  0  0  0  0  0  0  0  0  0  0
   20.0341  -11.6244  -15.4480 O   0  0  0  0  0  0  0  0  0  0  0  0
   23.5247  -11.4220  -14.6489 C   0  0  0  0  0  0  0  0  0  0  0  0
   23.4519  -10.0326  -15.2449 C   0  0  1  0  0  0  0  0  0  0  0  0
   24.3299   -9.8780  -16.3041 O   0  0  0  0  0  0  0  0  0  0  0  0
   22.0092   -9.7681  -15.6871 C   0  0  2  0  0  0  0  0  0  0  0  0
   21.6666  -10.6529  -16.7513 N   0  0  0  0  0  0  0  0  0  0  0  0
   21.9644   -8.3362  -16.0862 C   0  0  0  0  0  0  0  0  0  0  0  0
   21.7108   -8.0521  -17.2828 O   0  0  0  0  0  0  0  0  0  0  0  0
   22.2021   -7.3055  -15.1413 N   0  0  0  0  0  0  0  0  0  0  0  0
   22.1280   -5.8875  -15.4829 C   0  0  1  0  0  0  0  0  0  0  0  0
   20.8046   -5.5553  -16.0966 C   0  0  0  0  0  0  0  0  0  0  0  0
   20.5862   -4.0861  -16.3280 C   0  0  0  0  0  0  0  0  0  0  0  0
   19.2029   -3.8240  -16.9239 C   0  0  0  0  0  0  0  0  0  0  0  0
   18.9542   -2.3675  -17.1160 C   0  0  0  0  0  0  0  0  0  0  0  0
   17.5947   -2.2025  -17.6132 N   0  0  0  0  0  0  0  0  0  0  0  0
   22.3698   -5.1239  -14.2477 C   0  0  0  0  0  0  0  0  0  0  0  0
   22.0994   -5.6707  -13.1353 O   0  0  0  0  0  0  0  0  0  0  0  0
   22.8744   -3.8429  -14.1703 O   0  0  0  0  0  0  0  0  0  0  0  0
  2  1  1  1
  3  2  1  0
  4  3  1  0
  5  4  1  0
  6  5  1  0
  7  6  1  0
  8  9  2  0
  8  2  1  0
 11 10  1  6
 11 13  1  0
 12 11  1  0
 13 14  1  6
 14  8  1  0
 15 13  1  0
 16 15  2  0
 17 15  1  0
 18 17  1  0
 18 24  1  0
 18 19  1  1
 20 19  1  0
 21 20  1  0
 21 22  1  0
 22 23  1  0
 24 26  1  0
 25 24  2  0
M  END
$$$$
