KTK.pdb
     RDKit          3D

 26 25  0  0  1  0  0  0  0  0999 V2000
   26.1818  -21.2945  -10.7755 N   0  0  0  0  0  0  0  0  0  0  0  0
   25.1699  -20.9003  -11.7356 C   0  0  1  0  0  0  0  0  0  0  0  0
   24.0773  -20.1879  -10.9693 C   0  0  0  0  0  0  0  0  0  0  0  0
   22.8852  -21.1194  -10.7447 C   0  0  0  0  0  0  0  0  0  0  0  0
   22.0838  -21.2917  -12.0004 C   0  0  0  0  0  0  0  0  0  0  0  0
   20.9081  -22.2241  -11.8215 C   0  0  0  0  0  0  0  0  0  0  0  0
   20.2448  -22.3241  -13.1098 N   0  0  0  0  0  0  0  0  0  0  0  0
   25.7086  -20.0071  -12.7781 C   0  0  0  0  0  0  0  0  0  0  0  0
   26.0121  -18.8322  -12.4166 O   0  0  0  0  0  0  0  0  0  0  0  0
   28.7346  -19.6352  -14.2886 C   0  0  0  0  0  0  0  0  0  0  0  0
   27.8158  -19.7724  -15.4836 C   0  0  1  0  0  0  0  0  0  0  0  0
   27.8491  -21.0495  -16.0170 O   0  0  0  0  0  0  0  0  0  0  0  0
   26.3951  -19.3972  -15.0504 C   0  0  2  0  0  0  0  0  0  0  0  0
   25.9049  -20.3690  -14.1296 N   0  0  0  0  0  0  0  0  0  0  0  0
   25.5952  -19.3290  -16.3023 C   0  0  0  0  0  0  0  0  0  0  0  0
   24.6299  -20.1195  -16.4440 O   0  0  0  0  0  0  0  0  0  0  0  0
   25.9089  -18.3933  -17.3210 N   0  0  0  0  0  0  0  0  0  0  0  0
   25.0870  -18.2203  -18.5157 C   0  0  1  0  0  0  0  0  0  0  0  0
   25.5601  -17.0535  -19.3240 C   0  0  0  0  0  0  0  0  0  0  0  0
   24.6899  -16.7324  -20.5069 C   0  0  0  0  0  0  0  0  0  0  0  0
   25.2689  -15.5708  -21.3150 C   0  0  0  0  0  0  0  0  0  0  0  0
   24.3532  -15.1560  -22.4148 C   0  0  0  0  0  0  0  0  0  0  0  0
   24.9847  -14.0623  -23.1410 N   0  0  0  0  0  0  0  0  0  0  0  0
   25.1469  -19.4786  -19.2774 C   0  0  0  0  0  0  0  0  0  0  0  0
   24.1092  -19.8592  -19.9002 O   0  0  0  0  0  0  0  0  0  0  0  0
   26.2424  -20.3087  -19.3899 O   0  0  0  0  0  0  0  0  0  0  0  0
  2  1  1  1
  3  2  1  0
  4  3  1  0
  5  4  1  0
  6  5  1  0
  7  6  1  0
  8  9  2  0
  8  2  1  0
 11 10  1  1
 11 13  1  0
 12 11  1  0
 13 14  1  1
 14  8  1  0
 15 13  1  0
 16 15  2  0
 17 15  1  0
 18 17  1  0
 18 24  1  0
 18 19  1  6
 20 19  1  0
 21 20  1  0
 21 22  1  0
 22 23  1  0
 24 26  1  0
 25 24  2  0
M  END
$$$$
