KTK.pdb
     RDKit          3D

 26 25  0  0  1  0  0  0  0  0999 V2000
   24.0042  -21.6467  -16.9156 N   0  0  0  0  0  0  0  0  0  0  0  0
   22.6057  -21.2790  -17.0160 C   0  0  1  0  0  0  0  0  0  0  0  0
   22.0365  -22.0018  -18.2169 C   0  0  0  0  0  0  0  0  0  0  0  0
   22.5120  -21.3443  -19.5134 C   0  0  0  0  0  0  0  0  0  0  0  0
   23.7333  -22.0260  -20.0542 C   0  0  0  0  0  0  0  0  0  0  0  0
   24.2446  -21.3894  -21.3258 C   0  0  0  0  0  0  0  0  0  0  0  0
   25.5070  -22.0324  -21.6455 N   0  0  0  0  0  0  0  0  0  0  0  0
   21.8443  -21.6474  -15.8080 C   0  0  0  0  0  0  0  0  0  0  0  0
   22.1167  -22.7684  -15.2861 O   0  0  0  0  0  0  0  0  0  0  0  0
   21.6217  -19.8557  -12.5320 C   0  0  0  0  0  0  0  0  0  0  0  0
   20.2050  -20.1322  -12.9878 C   0  0  1  0  0  0  0  0  0  0  0  0
   19.6110  -19.0096  -13.5386 O   0  0  0  0  0  0  0  0  0  0  0  0
   20.2347  -21.2857  -13.9955 C   0  0  2  0  0  0  0  0  0  0  0  0
   20.8487  -20.8467  -15.2050 N   0  0  0  0  0  0  0  0  0  0  0  0
   18.8178  -21.6977  -14.1806 C   0  0  0  0  0  0  0  0  0  0  0  0
   18.2546  -21.4435  -15.2738 O   0  0  0  0  0  0  0  0  0  0  0  0
   18.1090  -22.3647  -13.1490 N   0  0  0  0  0  0  0  0  0  0  0  0
   16.7361  -22.8358  -13.3101 C   0  0  1  0  0  0  0  0  0  0  0  0
   16.3394  -23.7219  -12.1717 C   0  0  0  0  0  0  0  0  0  0  0  0
   15.0010  -24.3838  -12.3459 C   0  0  0  0  0  0  0  0  0  0  0  0
   14.7290  -25.3777  -11.2166 C   0  0  0  0  0  0  0  0  0  0  0  0
   13.4757  -26.1483  -11.4525 C   0  0  0  0  0  0  0  0  0  0  0  0
   13.3301  -27.1165  -10.3736 N   0  0  0  0  0  0  0  0  0  0  0  0
   15.8720  -21.6482  -13.4108 C   0  0  0  0  0  0  0  0  0  0  0  0
   16.1541  -20.6327  -12.7045 O   0  0  0  0  0  0  0  0  0  0  0  0
   14.7593  -21.5191  -14.2151 O   0  0  0  0  0  0  0  0  0  0  0  0
  2  1  1  1
  3  2  1  0
  4  3  1  0
  5  4  1  0
  6  5  1  0
  7  6  1  0
  8  9  2  0
  8  2  1  0
 11 10  1  6
 11 13  1  0
 12 11  1  0
 13 14  1  6
 14  8  1  0
 15 13  1  0
 16 15  2  0
 17 15  1  0
 18 17  1  0
 18 24  1  0
 18 19  1  1
 20 19  1  0
 21 20  1  0
 21 22  1  0
 22 23  1  0
 24 26  1  0
 25 24  2  0
M  END
$$$$
