KTK.pdb
     RDKit          3D

 26 25  0  0  1  0  0  0  0  0999 V2000
   27.7115  -22.8231  -16.6632 N   0  0  0  0  0  0  0  0  0  0  0  0
   26.4147  -23.4638  -16.5708 C   0  0  1  0  0  0  0  0  0  0  0  0
   26.6493  -24.8901  -16.1244 C   0  0  0  0  0  0  0  0  0  0  0  0
   27.4315  -25.6628  -17.1877 C   0  0  0  0  0  0  0  0  0  0  0  0
   27.5954  -27.1033  -16.8043 C   0  0  0  0  0  0  0  0  0  0  0  0
   28.3370  -27.9063  -17.8477 C   0  0  0  0  0  0  0  0  0  0  0  0
   28.4478  -29.2629  -17.3409 N   0  0  0  0  0  0  0  0  0  0  0  0
   25.5240  -22.7838  -15.6121 C   0  0  0  0  0  0  0  0  0  0  0  0
   26.0244  -22.4827  -14.4886 O   0  0  0  0  0  0  0  0  0  0  0  0
   24.2859  -19.5664  -15.1407 C   0  0  0  0  0  0  0  0  0  0  0  0
   23.0364  -20.4171  -15.2207 C   0  0  1  0  0  0  0  0  0  0  0  0
   22.4670  -20.3816  -16.4821 O   0  0  0  0  0  0  0  0  0  0  0  0
   23.3986  -21.8518  -14.8240 C   0  0  2  0  0  0  0  0  0  0  0  0
   24.1733  -22.4519  -15.8597 N   0  0  0  0  0  0  0  0  0  0  0  0
   22.1043  -22.5462  -14.5913 C   0  0  0  0  0  0  0  0  0  0  0  0
   21.6156  -23.2361  -15.5198 O   0  0  0  0  0  0  0  0  0  0  0  0
   21.4284  -22.4371  -13.3492 N   0  0  0  0  0  0  0  0  0  0  0  0
   20.1172  -23.0330  -13.1078 C   0  0  1  0  0  0  0  0  0  0  0  0
   19.9174  -23.3101  -11.6511 C   0  0  0  0  0  0  0  0  0  0  0  0
   18.5525  -23.8382  -11.3078 C   0  0  0  0  0  0  0  0  0  0  0  0
   18.4187  -24.0765   -9.8035 C   0  0  0  0  0  0  0  0  0  0  0  0
   17.1069  -24.6938   -9.4594 C   0  0  0  0  0  0  0  0  0  0  0  0
   17.0815  -24.9306   -8.0222 N   0  0  0  0  0  0  0  0  0  0  0  0
   19.1064  -22.1016  -13.6350 C   0  0  0  0  0  0  0  0  0  0  0  0
   19.3094  -20.8552  -13.5126 O   0  0  0  0  0  0  0  0  0  0  0  0
   17.9313  -22.4505  -14.2667 O   0  0  0  0  0  0  0  0  0  0  0  0
  2  1  1  1
  3  2  1  0
  4  3  1  0
  5  4  1  0
  6  5  1  0
  7  6  1  0
  8  9  2  0
  8  2  1  0
 11 10  1  6
 11 13  1  0
 12 11  1  0
 13 14  1  6
 14  8  1  0
 15 13  1  0
 16 15  2  0
 17 15  1  0
 18 17  1  0
 18 24  1  0
 18 19  1  1
 20 19  1  0
 21 20  1  0
 21 22  1  0
 22 23  1  0
 24 26  1  0
 25 24  2  0
M  END
$$$$
