KTK.pdb
     RDKit          3D

 26 25  0  0  1  0  0  0  0  0999 V2000
   27.8093  -21.6745  -11.2771 N   0  0  0  0  0  0  0  0  0  0  0  0
   26.4336  -21.2183  -11.2597 C   0  0  1  0  0  0  0  0  0  0  0  0
   26.4238  -19.8459  -10.6232 C   0  0  0  0  0  0  0  0  0  0  0  0
   26.7009  -19.9490   -9.1225 C   0  0  0  0  0  0  0  0  0  0  0  0
   25.5194  -20.5074   -8.3871 C   0  0  0  0  0  0  0  0  0  0  0  0
   25.6506  -20.3819   -6.8869 C   0  0  0  0  0  0  0  0  0  0  0  0
   24.4587  -20.9733   -6.3048 N   0  0  0  0  0  0  0  0  0  0  0  0
   25.8547  -21.1416  -12.6139 C   0  0  0  0  0  0  0  0  0  0  0  0
   26.6321  -20.7728  -13.5428 O   0  0  0  0  0  0  0  0  0  0  0  0
   24.3562  -23.7799  -14.6983 C   0  0  0  0  0  0  0  0  0  0  0  0
   23.3543  -22.6454  -14.6870 C   0  0  1  0  0  0  0  0  0  0  0  0
   22.2979  -22.8975  -13.8284 O   0  0  0  0  0  0  0  0  0  0  0  0
   24.0832  -21.3566  -14.2939 C   0  0  2  0  0  0  0  0  0  0  0  0
   24.5139  -21.4468  -12.9378 N   0  0  0  0  0  0  0  0  0  0  0  0
   23.1096  -20.2557  -14.5213 C   0  0  0  0  0  0  0  0  0  0  0  0
   22.5649  -19.7182  -13.5257 O   0  0  0  0  0  0  0  0  0  0  0  0
   22.7965  -19.8151  -15.8326 N   0  0  0  0  0  0  0  0  0  0  0  0
   21.8250  -18.7582  -16.1005 C   0  0  1  0  0  0  0  0  0  0  0  0
   21.8709  -18.3433  -17.5372 C   0  0  0  0  0  0  0  0  0  0  0  0
   20.8955  -17.2566  -17.8943 C   0  0  0  0  0  0  0  0  0  0  0  0
   20.9325  -16.9567  -19.3930 C   0  0  0  0  0  0  0  0  0  0  0  0
   20.0630  -15.7985  -19.7434 C   0  0  0  0  0  0  0  0  0  0  0  0
   20.1687  -15.5713  -21.1785 N   0  0  0  0  0  0  0  0  0  0  0  0
   20.4994  -19.2712  -15.7173 C   0  0  0  0  0  0  0  0  0  0  0  0
   20.2382  -20.4939  -15.9324 O   0  0  0  0  0  0  0  0  0  0  0  0
   19.4849  -18.5434  -15.1317 O   0  0  0  0  0  0  0  0  0  0  0  0
  2  1  1  6
  3  2  1  0
  4  3  1  0
  5  4  1  0
  6  5  1  0
  7  6  1  0
  8  9  2  0
  8  2  1  0
 11 10  1  1
 11 13  1  0
 12 11  1  0
 13 14  1  1
 14  8  1  0
 15 13  1  0
 16 15  2  0
 17 15  1  0
 18 17  1  0
 18 24  1  0
 18 19  1  6
 20 19  1  0
 21 20  1  0
 21 22  1  0
 22 23  1  0
 24 26  1  0
 25 24  2  0
M  END
$$$$
