MGD.pdb
     RDKit          3D

 21 20  0  0  1  0  0  0  0  0999 V2000
   28.2170   -9.0712  -16.9626 C   0  0  0  0  0  0  0  0  0  0  0  0
   28.6744  -10.7172  -17.5717 S   0  0  0  0  0  0  0  0  0  0  0  0
   27.3022  -11.8922  -17.3792 C   0  0  0  0  0  0  0  0  0  0  0  0
   26.7929  -11.9152  -15.9605 C   0  0  0  0  0  0  0  0  0  0  0  0
   25.5993  -12.8210  -15.8149 C   0  0  2  0  0  0  0  0  0  0  0  0
   25.6618  -13.8185  -16.8635 N   0  0  0  0  0  0  0  0  0  0  0  0
   24.3161  -12.0962  -15.8556 C   0  0  0  0  0  0  0  0  0  0  0  0
   24.0841  -11.2463  -14.9605 O   0  0  0  0  0  0  0  0  0  0  0  0
   23.3259  -12.3005  -16.8462 N   0  0  0  0  0  0  0  0  0  0  0  0
   22.0777  -11.6231  -16.9230 C   0  0  0  0  0  0  0  0  0  0  0  0
   22.1430  -10.1567  -17.0499 C   0  0  0  0  0  0  0  0  0  0  0  0
   22.8504   -9.6853  -17.9653 O   0  0  0  0  0  0  0  0  0  0  0  0
   21.4494   -9.2943  -16.1867 N   0  0  0  0  0  0  0  0  0  0  0  0
   21.4091   -7.8374  -16.3521 C   0  0  1  0  0  0  0  0  0  0  0  0
   20.3927   -7.4617  -17.3646 C   0  0  0  0  0  0  0  0  0  0  0  0
   20.2139   -6.0127  -17.5725 C   0  0  0  0  0  0  0  0  0  0  0  0
   21.1376   -5.1871  -17.3739 O   0  0  0  0  0  0  0  0  0  0  0  0
   21.1896   -7.2033  -15.0180 C   0  0  0  0  0  0  0  0  0  0  0  0
   20.9731   -8.0145  -13.9024 O   0  0  0  0  0  0  0  0  0  0  0  0
   18.9895   -5.5211  -18.0029 O   0  0  0  0  0  0  0  0  0  0  0  0
   21.1812   -5.9718  -14.8024 O   0  0  0  0  0  0  0  0  0  0  0  0
  2  1  1  0
  3  2  1  0
  4  5  1  0
  4  3  1  0
  5  6  1  6
  7  8  2  0
  7  5  1  0
  9  7  1  0
 10  9  1  0
 10 11  1  0
 11 13  1  0
 12 11  2  0
 13 14  1  0
 14 18  1  0
 14 15  1  6
 16 15  1  0
 17 16  2  0
 18 19  1  0
 20 16  1  0
 21 18  2  0
M  END
$$$$
