MGD.pdb
     RDKit          3D

 21 20  0  0  1  0  0  0  0  0999 V2000
   28.6448  -22.5966  -16.6794 C   0  0  0  0  0  0  0  0  0  0  0  0
   27.4466  -22.5149  -15.3203 S   0  0  0  0  0  0  0  0  0  0  0  0
   27.7052  -21.0296  -14.3067 C   0  0  0  0  0  0  0  0  0  0  0  0
   26.7660  -20.9979  -13.1279 C   0  0  0  0  0  0  0  0  0  0  0  0
   25.3276  -21.0889  -13.5629 C   0  0  2  0  0  0  0  0  0  0  0  0
   25.0174  -19.9057  -14.3391 N   0  0  0  0  0  0  0  0  0  0  0  0
   24.3911  -21.2365  -12.4339 C   0  0  0  0  0  0  0  0  0  0  0  0
   24.3031  -22.3586  -11.8767 O   0  0  0  0  0  0  0  0  0  0  0  0
   23.5823  -20.1863  -11.9374 N   0  0  0  0  0  0  0  0  0  0  0  0
   22.6883  -20.2783  -10.8352 C   0  0  0  0  0  0  0  0  0  0  0  0
   21.2590  -20.4060  -11.1689 C   0  0  0  0  0  0  0  0  0  0  0  0
   20.6114  -19.3541  -11.3552 O   0  0  0  0  0  0  0  0  0  0  0  0
   20.6191  -21.6504  -11.2775 N   0  0  0  0  0  0  0  0  0  0  0  0
   19.2295  -21.8148  -11.7173 C   0  0  1  0  0  0  0  0  0  0  0  0
   19.1860  -22.2753  -13.1263 C   0  0  0  0  0  0  0  0  0  0  0  0
   17.8388  -22.5496  -13.6599 C   0  0  0  0  0  0  0  0  0  0  0  0
   16.8869  -21.7432  -13.5258 O   0  0  0  0  0  0  0  0  0  0  0  0
   18.5239  -22.7251  -10.7668 C   0  0  0  0  0  0  0  0  0  0  0  0
   19.2627  -23.4113   -9.8008 O   0  0  0  0  0  0  0  0  0  0  0  0
   17.5910  -23.7346  -14.3382 O   0  0  0  0  0  0  0  0  0  0  0  0
   17.2916  -22.9361  -10.7574 O   0  0  0  0  0  0  0  0  0  0  0  0
  2  1  1  0
  3  2  1  0
  4  5  1  0
  4  3  1  0
  5  6  1  1
  7  8  2  0
  7  5  1  0
  9  7  1  0
 10  9  1  0
 10 11  1  0
 11 13  1  0
 12 11  2  0
 13 14  1  0
 14 18  1  0
 14 15  1  6
 16 15  1  0
 17 16  2  0
 18 19  1  0
 20 16  1  0
 21 18  2  0
M  END
$$$$
