MGD.pdb
     RDKit          3D

 21 20  0  0  1  0  0  0  0  0999 V2000
   28.0407  -19.0080   -3.7652 C   0  0  0  0  0  0  0  0  0  0  0  0
   28.4433  -19.9894   -5.2364 S   0  0  0  0  0  0  0  0  0  0  0  0
   27.2810  -19.6482   -6.5903 C   0  0  0  0  0  0  0  0  0  0  0  0
   27.6262  -20.4420   -7.8246 C   0  0  0  0  0  0  0  0  0  0  0  0
   26.6330  -20.2059   -8.9310 C   0  0  2  0  0  0  0  0  0  0  0  0
   25.3960  -20.8696   -8.5734 N   0  0  0  0  0  0  0  0  0  0  0  0
   27.1140  -20.6657  -10.2466 C   0  0  0  0  0  0  0  0  0  0  0  0
   28.0896  -20.0686  -10.7653 O   0  0  0  0  0  0  0  0  0  0  0  0
   26.5411  -21.7435  -10.9634 N   0  0  0  0  0  0  0  0  0  0  0  0
   25.1490  -21.9911  -11.1158 C   0  0  0  0  0  0  0  0  0  0  0  0
   24.4635  -21.2145  -12.1634 C   0  0  0  0  0  0  0  0  0  0  0  0
   25.1001  -20.2872  -12.7072 O   0  0  0  0  0  0  0  0  0  0  0  0
   23.1426  -21.4807  -12.5559 N   0  0  0  0  0  0  0  0  0  0  0  0
   22.4039  -20.6691  -13.5291 C   0  0  1  0  0  0  0  0  0  0  0  0
   22.8730  -20.9610  -14.9053 C   0  0  0  0  0  0  0  0  0  0  0  0
   22.1379  -20.2726  -15.9825 C   0  0  0  0  0  0  0  0  0  0  0  0
   21.6427  -19.1295  -15.8329 O   0  0  0  0  0  0  0  0  0  0  0  0
   20.9400  -20.8911  -13.3347 C   0  0  0  0  0  0  0  0  0  0  0  0
   20.0467  -19.8587  -13.6280 O   0  0  0  0  0  0  0  0  0  0  0  0
   21.9752  -20.8910  -17.2143 O   0  0  0  0  0  0  0  0  0  0  0  0
   20.4247  -21.9516  -12.9189 O   0  0  0  0  0  0  0  0  0  0  0  0
  2  1  1  0
  3  2  1  0
  4  5  1  0
  4  3  1  0
  5  6  1  1
  7  8  2  0
  7  5  1  0
  9  7  1  0
 10  9  1  0
 10 11  1  0
 11 13  1  0
 12 11  2  0
 13 14  1  0
 14 18  1  0
 14 15  1  6
 16 15  1  0
 17 16  2  0
 18 19  1  0
 20 16  1  0
 21 18  2  0
M  END
$$$$
