MGD.pdb
     RDKit          3D

 21 20  0  0  1  0  0  0  0  0999 V2000
   29.9698  -19.5899   -5.4755 C   0  0  0  0  0  0  0  0  0  0  0  0
   28.4501  -20.3247   -4.8118 S   0  0  0  0  0  0  0  0  0  0  0  0
   27.0486  -20.0609   -5.9374 C   0  0  0  0  0  0  0  0  0  0  0  0
   27.3839  -20.4904   -7.3431 C   0  0  0  0  0  0  0  0  0  0  0  0
   26.2199  -20.2893   -8.2764 C   0  0  2  0  0  0  0  0  0  0  0  0
   25.1168  -21.0981   -7.7994 N   0  0  0  0  0  0  0  0  0  0  0  0
   26.5411  -20.6137   -9.6782 C   0  0  0  0  0  0  0  0  0  0  0  0
   27.4258  -19.9366  -10.2579 O   0  0  0  0  0  0  0  0  0  0  0  0
   25.9107  -21.6462  -10.4132 N   0  0  0  0  0  0  0  0  0  0  0  0
   25.6005  -21.6059  -11.8006 C   0  0  0  0  0  0  0  0  0  0  0  0
   24.4157  -20.8152  -12.1770 C   0  0  0  0  0  0  0  0  0  0  0  0
   24.2843  -19.6860  -11.6589 O   0  0  0  0  0  0  0  0  0  0  0  0
   23.4505  -21.2876  -13.0798 N   0  0  0  0  0  0  0  0  0  0  0  0
   22.2371  -20.5445  -13.4359 C   0  0  1  0  0  0  0  0  0  0  0  0
   22.4501  -19.7799  -14.6886 C   0  0  0  0  0  0  0  0  0  0  0  0
   21.2796  -19.0264  -15.1755 C   0  0  0  0  0  0  0  0  0  0  0  0
   20.5509  -18.3502  -14.4100 O   0  0  0  0  0  0  0  0  0  0  0  0
   21.0873  -21.4952  -13.5016 C   0  0  0  0  0  0  0  0  0  0  0  0
   21.3371  -22.8677  -13.5600 O   0  0  0  0  0  0  0  0  0  0  0  0
   20.9528  -19.0507  -16.5240 O   0  0  0  0  0  0  0  0  0  0  0  0
   19.8820  -21.1629  -13.5102 O   0  0  0  0  0  0  0  0  0  0  0  0
  2  1  1  0
  3  2  1  0
  4  5  1  0
  4  3  1  0
  5  6  1  1
  7  8  2  0
  7  5  1  0
  9  7  1  0
 10  9  1  0
 10 11  1  0
 11 13  1  0
 12 11  2  0
 13 14  1  0
 14 18  1  0
 14 15  1  6
 16 15  1  0
 17 16  2  0
 18 19  1  0
 20 16  1  0
 21 18  2  0
M  END
$$$$
