MGD.pdb
     RDKit          3D

 21 20  0  0  1  0  0  0  0  0999 V2000
   14.4086  -15.9389  -17.7773 C   0  0  0  0  0  0  0  0  0  0  0  0
   15.6129  -14.6405  -18.1687 S   0  0  0  0  0  0  0  0  0  0  0  0
   16.1157  -13.7401  -16.6730 C   0  0  0  0  0  0  0  0  0  0  0  0
   16.9640  -12.5409  -17.0121 C   0  0  0  0  0  0  0  0  0  0  0  0
   17.3769  -11.7870  -15.7762 C   0  0  2  0  0  0  0  0  0  0  0  0
   16.3823  -12.0266  -14.7505 N   0  0  0  0  0  0  0  0  0  0  0  0
   17.5502  -10.3421  -16.0121 C   0  0  0  0  0  0  0  0  0  0  0  0
   18.4429   -9.9731  -16.8146 O   0  0  0  0  0  0  0  0  0  0  0  0
   16.7682   -9.3414  -15.3869 N   0  0  0  0  0  0  0  0  0  0  0  0
   16.8194   -7.9494  -15.6735 C   0  0  0  0  0  0  0  0  0  0  0  0
   17.8704   -7.1834  -14.9810 C   0  0  0  0  0  0  0  0  0  0  0  0
   17.9215   -7.2654  -13.7355 O   0  0  0  0  0  0  0  0  0  0  0  0
   18.7930   -6.3793  -15.6680 N   0  0  0  0  0  0  0  0  0  0  0  0
   19.8599   -5.6195  -15.0076 C   0  0  1  0  0  0  0  0  0  0  0  0
   21.1854   -6.1923  -15.3454 C   0  0  0  0  0  0  0  0  0  0  0  0
   22.3455   -5.4691  -14.7923 C   0  0  0  0  0  0  0  0  0  0  0  0
   22.2235   -4.5573  -13.9391 O   0  0  0  0  0  0  0  0  0  0  0  0
   19.7212   -4.1764  -15.3657 C   0  0  0  0  0  0  0  0  0  0  0  0
   19.0802   -3.8254  -16.5555 O   0  0  0  0  0  0  0  0  0  0  0  0
   23.6276   -5.7909  -15.2150 O   0  0  0  0  0  0  0  0  0  0  0  0
   20.1413   -3.2228  -14.6748 O   0  0  0  0  0  0  0  0  0  0  0  0
  2  1  1  0
  3  2  1  0
  4  5  1  0
  4  3  1  0
  5  6  1  1
  7  8  2  0
  7  5  1  0
  9  7  1  0
 10  9  1  0
 10 11  1  0
 11 13  1  0
 12 11  2  0
 13 14  1  0
 14 18  1  0
 14 15  1  6
 16 15  1  0
 17 16  2  0
 18 19  1  0
 20 16  1  0
 21 18  2  0
M  END
$$$$
