MGD.pdb
     RDKit          3D

 21 20  0  0  1  0  0  0  0  0999 V2000
   12.2256  -11.4974    5.0602 C   0  0  0  0  0  0  0  0  0  0  0  0
   12.8035  -12.7416    6.2466 S   0  0  0  0  0  0  0  0  0  0  0  0
   14.4345  -13.3887    5.7757 C   0  0  0  0  0  0  0  0  0  0  0  0
   14.3117  -14.6652    4.9830 C   0  0  0  0  0  0  0  0  0  0  0  0
   15.6568  -15.1693    4.5326 C   0  0  2  0  0  0  0  0  0  0  0  0
   16.3761  -14.0609    3.9387 N   0  0  0  0  0  0  0  0  0  0  0  0
   15.5641  -16.2998    3.5908 C   0  0  0  0  0  0  0  0  0  0  0  0
   14.4864  -16.4687    2.9685 O   0  0  0  0  0  0  0  0  0  0  0  0
   16.6199  -17.2097    3.3442 N   0  0  0  0  0  0  0  0  0  0  0  0
   16.5243  -18.4019    2.5748 C   0  0  0  0  0  0  0  0  0  0  0  0
   16.2713  -19.6418    3.3295 C   0  0  0  0  0  0  0  0  0  0  0  0
   15.6093  -19.5525    4.3851 O   0  0  0  0  0  0  0  0  0  0  0  0
   16.7465  -20.8923    2.9050 N   0  0  0  0  0  0  0  0  0  0  0  0
   16.5762  -22.1305    3.6727 C   0  0  1  0  0  0  0  0  0  0  0  0
   16.5979  -23.3051    2.7677 C   0  0  0  0  0  0  0  0  0  0  0  0
   16.3928  -24.6106    3.4221 C   0  0  0  0  0  0  0  0  0  0  0  0
   16.1428  -24.7153    4.6472 O   0  0  0  0  0  0  0  0  0  0  0  0
   17.6122  -22.1819    4.7470 C   0  0  0  0  0  0  0  0  0  0  0  0
   17.2692  -22.6826    6.0046 O   0  0  0  0  0  0  0  0  0  0  0  0
   16.4742  -25.7787    2.6772 O   0  0  0  0  0  0  0  0  0  0  0  0
   18.7972  -21.8044    4.6189 O   0  0  0  0  0  0  0  0  0  0  0  0
  2  1  1  0
  3  2  1  0
  4  5  1  0
  4  3  1  0
  5  6  1  6
  7  8  2  0
  7  5  1  0
  9  7  1  0
 10  9  1  0
 10 11  1  0
 11 13  1  0
 12 11  2  0
 13 14  1  0
 14 18  1  0
 14 15  1  6
 16 15  1  0
 17 16  2  0
 18 19  1  0
 20 16  1  0
 21 18  2  0
M  END
$$$$
