MGD.pdb
     RDKit          3D

 21 20  0  0  1  0  0  0  0  0999 V2000
   27.9478  -19.1937   -6.8975 C   0  0  0  0  0  0  0  0  0  0  0  0
   26.8743  -20.6545   -6.8404 S   0  0  0  0  0  0  0  0  0  0  0  0
   25.7537  -20.7009   -8.2696 C   0  0  0  0  0  0  0  0  0  0  0  0
   26.5002  -21.0028   -9.5441 C   0  0  0  0  0  0  0  0  0  0  0  0
   25.9340  -20.2399  -10.7119 C   0  0  2  0  0  0  0  0  0  0  0  0
   24.5476  -20.6283  -10.8725 N   0  0  0  0  0  0  0  0  0  0  0  0
   26.6871  -20.4536  -11.9611 C   0  0  0  0  0  0  0  0  0  0  0  0
   26.5798  -21.5641  -12.5379 O   0  0  0  0  0  0  0  0  0  0  0  0
   27.5269  -19.4796  -12.5524 N   0  0  0  0  0  0  0  0  0  0  0  0
   27.6579  -19.2343  -13.9471 C   0  0  0  0  0  0  0  0  0  0  0  0
   26.4935  -18.6207  -14.6093 C   0  0  0  0  0  0  0  0  0  0  0  0
   26.0365  -17.5668  -14.1182 O   0  0  0  0  0  0  0  0  0  0  0  0
   25.8953  -19.1782  -15.7500 N   0  0  0  0  0  0  0  0  0  0  0  0
   24.7218  -18.6034  -16.4163 C   0  0  1  0  0  0  0  0  0  0  0  0
   24.8946  -18.6422  -17.8886 C   0  0  0  0  0  0  0  0  0  0  0  0
   25.9866  -17.8049  -18.4188 C   0  0  0  0  0  0  0  0  0  0  0  0
   27.1613  -18.2297  -18.5370 O   0  0  0  0  0  0  0  0  0  0  0  0
   23.4967  -19.3106  -15.9373 C   0  0  0  0  0  0  0  0  0  0  0  0
   22.2657  -18.6532  -15.9827 O   0  0  0  0  0  0  0  0  0  0  0  0
   25.7302  -16.4975  -18.8075 O   0  0  0  0  0  0  0  0  0  0  0  0
   23.4726  -20.4754  -15.4839 O   0  0  0  0  0  0  0  0  0  0  0  0
  2  1  1  0
  3  2  1  0
  4  5  1  0
  4  3  1  0
  5  6  1  6
  7  8  2  0
  7  5  1  0
  9  7  1  0
 10  9  1  0
 10 11  1  0
 11 13  1  0
 12 11  2  0
 13 14  1  0
 14 18  1  0
 14 15  1  6
 16 15  1  0
 17 16  2  0
 18 19  1  0
 20 16  1  0
 21 18  2  0
M  END
$$$$
