MGD.pdb
     RDKit          3D

 21 20  0  0  1  0  0  0  0  0999 V2000
   18.0468  -12.3433  -18.6998 C   0  0  0  0  0  0  0  0  0  0  0  0
   18.9610  -13.1274  -17.3438 S   0  0  0  0  0  0  0  0  0  0  0  0
   20.7532  -12.9152  -17.5525 C   0  0  0  0  0  0  0  0  0  0  0  0
   21.0794  -11.5872  -18.1874 C   0  0  0  0  0  0  0  0  0  0  0  0
   22.5657  -11.3831  -18.3124 C   0  0  2  0  0  0  0  0  0  0  0  0
   23.1910  -11.8840  -17.1055 N   0  0  0  0  0  0  0  0  0  0  0  0
   22.9372   -9.9765  -18.5512 C   0  0  0  0  0  0  0  0  0  0  0  0
   22.4916   -9.4098  -19.5795 O   0  0  0  0  0  0  0  0  0  0  0  0
   23.7687   -9.2229  -17.6884 N   0  0  0  0  0  0  0  0  0  0  0  0
   24.0066   -7.8237  -17.7796 C   0  0  0  0  0  0  0  0  0  0  0  0
   23.2062   -6.9704  -16.8841 C   0  0  0  0  0  0  0  0  0  0  0  0
   23.4996   -5.7576  -16.8245 O   0  0  0  0  0  0  0  0  0  0  0  0
   22.1483   -7.4734  -16.1110 N   0  0  0  0  0  0  0  0  0  0  0  0
   21.3266   -6.6466  -15.2207 C   0  0  1  0  0  0  0  0  0  0  0  0
   20.1832   -6.0664  -15.9658 C   0  0  0  0  0  0  0  0  0  0  0  0
   19.2328   -5.2832  -15.1546 C   0  0  0  0  0  0  0  0  0  0  0  0
   19.6065   -4.5336  -14.2203 O   0  0  0  0  0  0  0  0  0  0  0  0
   20.9198   -7.4629  -14.0383 C   0  0  0  0  0  0  0  0  0  0  0  0
   20.3472   -6.8289  -12.9337 O   0  0  0  0  0  0  0  0  0  0  0  0
   17.8719   -5.3614  -15.4151 O   0  0  0  0  0  0  0  0  0  0  0  0
   21.0502   -8.7028  -13.9440 O   0  0  0  0  0  0  0  0  0  0  0  0
  2  1  1  0
  3  2  1  0
  4  5  1  0
  4  3  1  0
  5  6  1  1
  7  8  2  0
  7  5  1  0
  9  7  1  0
 10  9  1  0
 10 11  1  0
 11 13  1  0
 12 11  2  0
 13 14  1  0
 14 18  1  0
 14 15  1  6
 16 15  1  0
 17 16  2  0
 18 19  1  0
 20 16  1  0
 21 18  2  0
M  END
$$$$
