MGD.pdb
     RDKit          3D

 21 20  0  0  1  0  0  0  0  0999 V2000
   21.3020  -17.6458  -20.6900 C   0  0  0  0  0  0  0  0  0  0  0  0
   20.3657  -16.2016  -20.1179 S   0  0  0  0  0  0  0  0  0  0  0  0
   21.4764  -14.9007  -19.5058 C   0  0  0  0  0  0  0  0  0  0  0  0
   20.7120  -13.6565  -19.1310 C   0  0  0  0  0  0  0  0  0  0  0  0
   21.6191  -12.6003  -18.5582 C   0  0  2  0  0  0  0  0  0  0  0  0
   22.3328  -13.1802  -17.4388 N   0  0  0  0  0  0  0  0  0  0  0  0
   20.8987  -11.3816  -18.1469 C   0  0  0  0  0  0  0  0  0  0  0  0
   20.2740  -10.7352  -19.0240 O   0  0  0  0  0  0  0  0  0  0  0  0
   20.8679  -10.8939  -16.8185 N   0  0  0  0  0  0  0  0  0  0  0  0
   20.1794   -9.7299  -16.3783 C   0  0  0  0  0  0  0  0  0  0  0  0
   21.0114   -8.6737  -15.7759 C   0  0  0  0  0  0  0  0  0  0  0  0
   21.7528   -8.9935  -14.8226 O   0  0  0  0  0  0  0  0  0  0  0  0
   20.9913   -7.3467  -16.2322 N   0  0  0  0  0  0  0  0  0  0  0  0
   21.7611   -6.2621  -15.6138 C   0  0  1  0  0  0  0  0  0  0  0  0
   21.8040   -5.0832  -16.5125 C   0  0  0  0  0  0  0  0  0  0  0  0
   22.5254   -3.9111  -15.9830 C   0  0  0  0  0  0  0  0  0  0  0  0
   21.9342   -2.9539  -15.4273 O   0  0  0  0  0  0  0  0  0  0  0  0
   21.1893   -5.9681  -14.2660 C   0  0  0  0  0  0  0  0  0  0  0  0
   19.9640   -6.5322  -13.9050 O   0  0  0  0  0  0  0  0  0  0  0  0
   23.9072   -3.8416  -16.0912 O   0  0  0  0  0  0  0  0  0  0  0  0
   21.7250   -5.2385  -13.4036 O   0  0  0  0  0  0  0  0  0  0  0  0
  2  1  1  0
  3  2  1  0
  4  5  1  0
  4  3  1  0
  5  6  1  1
  7  8  2  0
  7  5  1  0
  9  7  1  0
 10  9  1  0
 10 11  1  0
 11 13  1  0
 12 11  2  0
 13 14  1  0
 14 18  1  0
 14 15  1  6
 16 15  1  0
 17 16  2  0
 18 19  1  0
 20 16  1  0
 21 18  2  0
M  END
$$$$
