MGD.pdb
     RDKit          3D

 21 20  0  0  1  0  0  0  0  0999 V2000
   18.8907  -13.9034  -14.6208 C   0  0  0  0  0  0  0  0  0  0  0  0
   18.8076  -12.1752  -15.1648 S   0  0  0  0  0  0  0  0  0  0  0  0
   20.0885  -11.8150  -16.4019 C   0  0  0  0  0  0  0  0  0  0  0  0
   19.9479  -10.4168  -16.9478 C   0  0  0  0  0  0  0  0  0  0  0  0
   21.1309  -10.0313  -17.7953 C   0  0  2  0  0  0  0  0  0  0  0  0
   22.3352  -10.3257  -17.0459 N   0  0  0  0  0  0  0  0  0  0  0  0
   21.1054   -8.6179  -18.2138 C   0  0  0  0  0  0  0  0  0  0  0  0
   20.1041   -8.2034  -18.8486 O   0  0  0  0  0  0  0  0  0  0  0  0
   22.1446   -7.6960  -17.9425 N   0  0  0  0  0  0  0  0  0  0  0  0
   22.1567   -6.3252  -18.3211 C   0  0  0  0  0  0  0  0  0  0  0  0
   21.8539   -5.3554  -17.2540 C   0  0  0  0  0  0  0  0  0  0  0  0
   21.9373   -4.1409  -17.5343 O   0  0  0  0  0  0  0  0  0  0  0  0
   21.4855   -5.7511  -15.9588 N   0  0  0  0  0  0  0  0  0  0  0  0
   21.1239   -4.8105  -14.8930 C   0  0  1  0  0  0  0  0  0  0  0  0
   19.7614   -5.1046  -14.3866 C   0  0  0  0  0  0  0  0  0  0  0  0
   18.6572   -4.7262  -15.2879 C   0  0  0  0  0  0  0  0  0  0  0  0
   18.5505   -3.5732  -15.7712 O   0  0  0  0  0  0  0  0  0  0  0  0
   22.1776   -4.8469  -13.8353 C   0  0  0  0  0  0  0  0  0  0  0  0
   22.0584   -4.0124  -12.7222 O   0  0  0  0  0  0  0  0  0  0  0  0
   17.6899   -5.6613  -15.6280 O   0  0  0  0  0  0  0  0  0  0  0  0
   23.1901   -5.5799  -13.8572 O   0  0  0  0  0  0  0  0  0  0  0  0
  2  1  1  0
  3  2  1  0
  4  5  1  0
  4  3  1  0
  5  6  1  1
  7  8  2  0
  7  5  1  0
  9  7  1  0
 10  9  1  0
 10 11  1  0
 11 13  1  0
 12 11  2  0
 13 14  1  0
 14 18  1  0
 14 15  1  1
 16 15  1  0
 17 16  2  0
 18 19  1  0
 20 16  1  0
 21 18  2  0
M  END
$$$$
