MGD.pdb
     RDKit          3D

 21 20  0  0  1  0  0  0  0  0999 V2000
   28.2501  -19.3919   -4.8953 C   0  0  0  0  0  0  0  0  0  0  0  0
   27.4244  -20.1086   -6.3424 S   0  0  0  0  0  0  0  0  0  0  0  0
   26.8600  -18.8128   -7.4839 C   0  0  0  0  0  0  0  0  0  0  0  0
   26.1036  -19.3980   -8.6493 C   0  0  0  0  0  0  0  0  0  0  0  0
   26.6347  -20.7543   -9.0297 C   0  0  2  0  0  0  0  0  0  0  0  0
   28.0272  -20.6037   -9.4000 N   0  0  0  0  0  0  0  0  0  0  0  0
   25.8684  -21.3904  -10.1167 C   0  0  0  0  0  0  0  0  0  0  0  0
   24.6898  -21.7540   -9.8799 O   0  0  0  0  0  0  0  0  0  0  0  0
   26.3820  -21.6169  -11.4162 N   0  0  0  0  0  0  0  0  0  0  0  0
   26.1753  -20.7795  -12.5470 C   0  0  0  0  0  0  0  0  0  0  0  0
   24.8830  -20.9310  -13.2380 C   0  0  0  0  0  0  0  0  0  0  0  0
   24.7704  -20.4230  -14.3738 O   0  0  0  0  0  0  0  0  0  0  0  0
   23.7980  -21.6128  -12.6656 N   0  0  0  0  0  0  0  0  0  0  0  0
   22.4143  -21.4780  -13.1334 C   0  0  1  0  0  0  0  0  0  0  0  0
   21.5015  -22.2753  -12.2788 C   0  0  0  0  0  0  0  0  0  0  0  0
   20.0737  -22.2036  -12.6409 C   0  0  0  0  0  0  0  0  0  0  0  0
   19.6883  -21.8859  -13.7920 O   0  0  0  0  0  0  0  0  0  0  0  0
   22.0625  -20.0281  -13.1972 C   0  0  0  0  0  0  0  0  0  0  0  0
   21.5188  -19.5073  -14.3732 O   0  0  0  0  0  0  0  0  0  0  0  0
   19.1035  -22.4935  -11.6919 O   0  0  0  0  0  0  0  0  0  0  0  0
   22.2163  -19.2114  -12.2632 O   0  0  0  0  0  0  0  0  0  0  0  0
  2  1  1  0
  3  2  1  0
  4  5  1  0
  4  3  1  0
  5  6  1  6
  7  8  2  0
  7  5  1  0
  9  7  1  0
 10  9  1  0
 10 11  1  0
 11 13  1  0
 12 11  2  0
 13 14  1  0
 14 18  1  0
 14 15  1  1
 16 15  1  0
 17 16  2  0
 18 19  1  0
 20 16  1  0
 21 18  2  0
M  END
$$$$
