MGD.pdb
     RDKit          3D

 21 20  0  0  1  0  0  0  0  0999 V2000
   30.0989  -20.2085   -5.8402 C   0  0  0  0  0  0  0  0  0  0  0  0
   28.7811  -19.1963   -5.1132 S   0  0  0  0  0  0  0  0  0  0  0  0
   27.2438  -19.3349   -6.0712 C   0  0  0  0  0  0  0  0  0  0  0  0
   27.4933  -19.9486   -7.4255 C   0  0  0  0  0  0  0  0  0  0  0  0
   26.2211  -20.0716   -8.2210 C   0  0  2  0  0  0  0  0  0  0  0  0
   25.3014  -20.9030   -7.4717 N   0  0  0  0  0  0  0  0  0  0  0  0
   26.4365  -20.6150   -9.5744 C   0  0  0  0  0  0  0  0  0  0  0  0
   26.2822  -21.8487   -9.7517 O   0  0  0  0  0  0  0  0  0  0  0  0
   26.8080  -19.8277  -10.6906 N   0  0  0  0  0  0  0  0  0  0  0  0
   26.8262  -20.2644  -12.0439 C   0  0  0  0  0  0  0  0  0  0  0  0
   25.5287  -20.6707  -12.6114 C   0  0  0  0  0  0  0  0  0  0  0  0
   24.5073  -20.0771  -12.2050 O   0  0  0  0  0  0  0  0  0  0  0  0
   25.4118  -21.6866  -13.5727 N   0  0  0  0  0  0  0  0  0  0  0  0
   24.1552  -22.0259  -14.2489 C   0  0  1  0  0  0  0  0  0  0  0  0
   23.6762  -20.8760  -15.0535 C   0  0  0  0  0  0  0  0  0  0  0  0
   22.2590  -20.5166  -14.8604 C   0  0  0  0  0  0  0  0  0  0  0  0
   21.4627  -21.2459  -14.2214 O   0  0  0  0  0  0  0  0  0  0  0  0
   24.3539  -23.2736  -15.0450 C   0  0  0  0  0  0  0  0  0  0  0  0
   23.2384  -23.9804  -15.4988 O   0  0  0  0  0  0  0  0  0  0  0  0
   21.7656  -19.3347  -15.3949 O   0  0  0  0  0  0  0  0  0  0  0  0
   25.4645  -23.7592  -15.3514 O   0  0  0  0  0  0  0  0  0  0  0  0
  2  1  1  0
  3  2  1  0
  4  5  1  0
  4  3  1  0
  5  6  1  1
  7  8  2  0
  7  5  1  0
  9  7  1  0
 10  9  1  0
 10 11  1  0
 11 13  1  0
 12 11  2  0
 13 14  1  0
 14 18  1  0
 14 15  1  6
 16 15  1  0
 17 16  2  0
 18 19  1  0
 20 16  1  0
 21 18  2  0
M  END
$$$$
