VTM.pdb
     RDKit          3D

 23 22  0  0  1  0  0  0  0  0999 V2000
   10.5927  -20.4911   21.7444 C   0  0  0  0  0  0  0  0  0  0  0  0
   10.3295  -19.0714   22.2558 C   0  0  2  0  0  0  0  0  0  0  0  0
    8.9736  -19.0906   22.9243 C   0  0  0  0  0  0  0  0  0  0  0  0
   10.3389  -18.1714   21.0390 C   0  0  2  0  0  0  0  0  0  0  0  0
   11.5962  -18.2972   20.3859 N   0  0  0  0  0  0  0  0  0  0  0  0
   10.0406  -16.7977   21.5064 C   0  0  0  0  0  0  0  0  0  0  0  0
   10.8814  -16.2253   22.2378 O   0  0  0  0  0  0  0  0  0  0  0  0
    7.2455  -12.6859   21.2440 C   0  0  0  0  0  0  0  0  0  0  0  0
    7.5288  -14.0918   20.7586 C   0  0  1  0  0  0  0  0  0  0  0  0
    8.1441  -13.9629   19.5074 O   0  0  0  0  0  0  0  0  0  0  0  0
    8.5189  -14.7974   21.6630 C   0  0  2  0  0  0  0  0  0  0  0  0
    8.8572  -16.1120   21.1644 N   0  0  0  0  0  0  0  0  0  0  0  0
    8.0091  -14.9432   23.0308 C   0  0  0  0  0  0  0  0  0  0  0  0
    7.3237  -15.9349   23.3376 O   0  0  0  0  0  0  0  0  0  0  0  0
   11.1336  -15.0890   28.6292 C   0  0  0  0  0  0  0  0  0  0  0  0
    9.9636  -13.7079   28.8373 S   0  0  0  0  0  0  0  0  0  0  0  0
    8.5080  -13.9557   27.7715 C   0  0  0  0  0  0  0  0  0  0  0  0
    8.9710  -13.8841   26.3409 C   0  0  0  0  0  0  0  0  0  0  0  0
    7.8319  -14.1283   25.3719 C   0  0  2  0  0  0  0  0  0  0  0  0
    8.2905  -13.9667   23.9992 N   0  0  0  0  0  0  0  0  0  0  0  0
    6.7177  -13.1917   25.5877 C   0  0  0  0  0  0  0  0  0  0  0  0
    5.6748  -13.5232   26.4177 O   0  0  0  0  0  0  0  0  0  0  0  0
    6.7244  -12.0874   25.0092 O   0  0  0  0  0  0  0  0  0  0  0  0
  2  3  1  6
  2  1  1  0
  4  2  1  0
  4  5  1  1
  6  7  2  0
  6  4  1  0
  9  8  1  1
  9 10  1  0
  9 11  1  0
 11 12  1  6
 12  6  1  0
 13 11  1  0
 13 20  1  0
 14 13  2  0
 15 16  1  0
 16 17  1  0
 19 18  1  1
 18 17  1  0
 19 20  1  0
 19 21  1  0
 21 22  1  0
 23 21  2  0
M  END
$$$$
