VTM.pdb
     RDKit          3D

 23 22  0  0  1  0  0  0  0  0999 V2000
    8.5156  -12.4631   17.8285 C   0  0  0  0  0  0  0  0  0  0  0  0
    8.1000  -13.2341   19.0852 C   0  0  2  0  0  0  0  0  0  0  0  0
    8.8373  -12.6083   20.2473 C   0  0  0  0  0  0  0  0  0  0  0  0
    8.5235  -14.6702   18.8639 C   0  0  2  0  0  0  0  0  0  0  0  0
    7.8570  -15.1721   17.7120 N   0  0  0  0  0  0  0  0  0  0  0  0
    8.2164  -15.4153   20.1069 C   0  0  0  0  0  0  0  0  0  0  0  0
    7.0215  -15.7108   20.3402 O   0  0  0  0  0  0  0  0  0  0  0  0
    9.1535  -18.7308   20.9472 C   0  0  0  0  0  0  0  0  0  0  0  0
    9.6072  -17.9438   22.1583 C   0  0  1  0  0  0  0  0  0  0  0  0
   10.9773  -17.7096   21.9886 O   0  0  0  0  0  0  0  0  0  0  0  0
    8.9350  -16.5870   22.2168 C   0  0  2  0  0  0  0  0  0  0  0  0
    9.2066  -15.8032   21.0323 N   0  0  0  0  0  0  0  0  0  0  0  0
    9.3600  -15.8113   23.3871 C   0  0  0  0  0  0  0  0  0  0  0  0
   10.3506  -15.0627   23.3118 O   0  0  0  0  0  0  0  0  0  0  0  0
    5.5643  -12.4012   26.2744 C   0  0  0  0  0  0  0  0  0  0  0  0
    6.7436  -12.2790   27.6579 S   0  0  0  0  0  0  0  0  0  0  0  0
    8.1327  -13.4275   27.3986 C   0  0  0  0  0  0  0  0  0  0  0  0
    7.8059  -14.2774   26.1999 C   0  0  0  0  0  0  0  0  0  0  0  0
    9.0088  -15.0724   25.7338 C   0  0  2  0  0  0  0  0  0  0  0  0
    8.6536  -15.9093   24.5962 N   0  0  0  0  0  0  0  0  0  0  0  0
    9.5303  -15.9503   26.7933 C   0  0  0  0  0  0  0  0  0  0  0  0
   10.2271  -15.4284   27.8555 O   0  0  0  0  0  0  0  0  0  0  0  0
    9.3355  -17.1796   26.7217 O   0  0  0  0  0  0  0  0  0  0  0  0
  2  3  1  1
  2  1  1  0
  4  2  1  0
  4  5  1  6
  6  7  2  0
  6  4  1  0
  9  8  1  6
  9 10  1  0
  9 11  1  0
 11 12  1  6
 12  6  1  0
 13 11  1  0
 13 20  1  0
 14 13  2  0
 15 16  1  0
 16 17  1  0
 19 18  1  1
 18 17  1  0
 19 20  1  0
 19 21  1  0
 21 22  1  0
 23 21  2  0
M  END
$$$$
