VTM.pdb
     RDKit          3D

 23 22  0  0  1  0  0  0  0  0999 V2000
    8.4277  -20.0308   22.3026 C   0  0  0  0  0  0  0  0  0  0  0  0
    6.9431  -19.7270   22.0796 C   0  0  2  0  0  0  0  0  0  0  0  0
    6.2144  -21.0512   22.1151 C   0  0  0  0  0  0  0  0  0  0  0  0
    6.8418  -19.0708   20.7195 C   0  0  2  0  0  0  0  0  0  0  0  0
    7.3414  -19.9711   19.7382 N   0  0  0  0  0  0  0  0  0  0  0  0
    7.5844  -17.7911   20.7927 C   0  0  0  0  0  0  0  0  0  0  0  0
    8.8290  -17.8197   20.6519 O   0  0  0  0  0  0  0  0  0  0  0  0
    7.8681  -12.9283   20.3866 C   0  0  0  0  0  0  0  0  0  0  0  0
    7.1342  -14.2407   20.2102 C   0  0  1  0  0  0  0  0  0  0  0  0
    7.4133  -14.6795   18.9100 O   0  0  0  0  0  0  0  0  0  0  0  0
    7.6664  -15.3003   21.1537 C   0  0  2  0  0  0  0  0  0  0  0  0
    6.9527  -16.5501   21.0129 N   0  0  0  0  0  0  0  0  0  0  0  0
    7.5833  -14.8807   22.5570 C   0  0  0  0  0  0  0  0  0  0  0  0
    6.4730  -14.7115   23.0917 O   0  0  0  0  0  0  0  0  0  0  0  0
    6.9700  -10.7484   26.9455 C   0  0  0  0  0  0  0  0  0  0  0  0
    6.0124  -12.2744   26.6737 S   0  0  0  0  0  0  0  0  0  0  0  0
    7.1326  -13.7070   26.5791 C   0  0  0  0  0  0  0  0  0  0  0  0
    7.2386  -14.1100   25.1326 C   0  0  0  0  0  0  0  0  0  0  0  0
    8.6806  -14.3123   24.7131 C   0  0  2  0  0  0  0  0  0  0  0  0
    8.7533  -14.6674   23.3027 N   0  0  0  0  0  0  0  0  0  0  0  0
    9.3302  -15.3857   25.4818 C   0  0  0  0  0  0  0  0  0  0  0  0
    9.7794  -16.5225   24.8555 O   0  0  0  0  0  0  0  0  0  0  0  0
    9.4720  -15.2579   26.7138 O   0  0  0  0  0  0  0  0  0  0  0  0
  2  3  1  6
  2  1  1  0
  4  2  1  0
  4  5  1  6
  6  7  2  0
  6  4  1  0
  9  8  1  1
  9 10  1  0
  9 11  1  0
 11 12  1  1
 12  6  1  0
 13 11  1  0
 13 20  1  0
 14 13  2  0
 15 16  1  0
 16 17  1  0
 19 18  1  1
 18 17  1  0
 19 20  1  0
 19 21  1  0
 21 22  1  0
 23 21  2  0
M  END
$$$$
