VTM.pdb
     RDKit          3D

 23 22  0  0  1  0  0  0  0  0999 V2000
    7.4229  -14.6655   18.2465 C   0  0  0  0  0  0  0  0  0  0  0  0
    7.8563  -13.3838   18.9645 C   0  0  2  0  0  0  0  0  0  0  0  0
    8.0123  -12.3182   17.9034 C   0  0  0  0  0  0  0  0  0  0  0  0
    9.1748  -13.6975   19.6382 C   0  0  2  0  0  0  0  0  0  0  0  0
   10.0750  -14.2135   18.6654 N   0  0  0  0  0  0  0  0  0  0  0  0
    8.8887  -14.6359   20.7482 C   0  0  0  0  0  0  0  0  0  0  0  0
    7.9969  -14.3250   21.5715 O   0  0  0  0  0  0  0  0  0  0  0  0
    9.8463  -19.0097   22.9965 C   0  0  0  0  0  0  0  0  0  0  0  0
   10.1404  -18.0430   21.8691 C   0  0  1  0  0  0  0  0  0  0  0  0
    9.7149  -18.6673   20.6901 O   0  0  0  0  0  0  0  0  0  0  0  0
    9.3286  -16.7710   22.0086 C   0  0  2  0  0  0  0  0  0  0  0  0
    9.5738  -15.8565   20.9156 N   0  0  0  0  0  0  0  0  0  0  0  0
    9.6140  -16.0701   23.2653 C   0  0  0  0  0  0  0  0  0  0  0  0
   10.6994  -15.4819   23.4178 O   0  0  0  0  0  0  0  0  0  0  0  0
    6.4788  -11.2315   28.3953 C   0  0  0  0  0  0  0  0  0  0  0  0
    6.3594  -12.3301   26.9467 S   0  0  0  0  0  0  0  0  0  0  0  0
    7.8261  -13.4054   26.8550 C   0  0  0  0  0  0  0  0  0  0  0  0
    7.7163  -14.2226   25.5956 C   0  0  0  0  0  0  0  0  0  0  0  0
    8.8554  -15.2142   25.4717 C   0  0  2  0  0  0  0  0  0  0  0  0
    8.6666  -16.0596   24.3011 N   0  0  0  0  0  0  0  0  0  0  0  0
    8.9504  -16.0908   26.6497 C   0  0  0  0  0  0  0  0  0  0  0  0
    9.5365  -15.6449   27.8090 O   0  0  0  0  0  0  0  0  0  0  0  0
    8.4932  -17.2490   26.5903 O   0  0  0  0  0  0  0  0  0  0  0  0
  2  3  1  6
  2  1  1  0
  4  2  1  0
  4  5  1  6
  6  7  2  0
  6  4  1  0
  9  8  1  1
  9 10  1  0
  9 11  1  0
 11 12  1  6
 12  6  1  0
 13 11  1  0
 13 20  1  0
 14 13  2  0
 15 16  1  0
 16 17  1  0
 19 18  1  1
 18 17  1  0
 19 20  1  0
 19 21  1  0
 21 22  1  0
 23 21  2  0
M  END
$$$$
