VTM.pdb
     RDKit          3D

 23 22  0  0  1  0  0  0  0  0999 V2000
   11.6897  -18.6982   20.3361 C   0  0  0  0  0  0  0  0  0  0  0  0
   10.2320  -19.0877   20.0726 C   0  0  2  0  0  0  0  0  0  0  0  0
   10.2496  -20.4815   19.4872 C   0  0  0  0  0  0  0  0  0  0  0  0
    9.6917  -18.0750   19.0861 C   0  0  2  0  0  0  0  0  0  0  0  0
   10.4908  -18.1099   17.9099 N   0  0  0  0  0  0  0  0  0  0  0  0
    9.6838  -16.7593   19.7669 C   0  0  0  0  0  0  0  0  0  0  0  0
   10.6396  -15.9774   19.5557 O   0  0  0  0  0  0  0  0  0  0  0  0
    7.5809  -13.8599   19.4539 C   0  0  0  0  0  0  0  0  0  0  0  0
    7.4946  -14.2109   20.9241 C   0  0  1  0  0  0  0  0  0  0  0  0
    6.3276  -14.9681   21.0832 O   0  0  0  0  0  0  0  0  0  0  0  0
    8.6508  -15.0938   21.3481 C   0  0  2  0  0  0  0  0  0  0  0  0
    8.6518  -16.3531   20.6373 N   0  0  0  0  0  0  0  0  0  0  0  0
    8.6272  -15.3797   22.7868 C   0  0  0  0  0  0  0  0  0  0  0  0
    8.1150  -16.4337   23.2040 O   0  0  0  0  0  0  0  0  0  0  0  0
    6.0687  -11.6181   28.3384 C   0  0  0  0  0  0  0  0  0  0  0  0
    7.0183  -11.9490   26.8191 S   0  0  0  0  0  0  0  0  0  0  0  0
    6.3540  -13.4190   25.9744 C   0  0  0  0  0  0  0  0  0  0  0  0
    7.1292  -13.6019   24.6969 C   0  0  0  0  0  0  0  0  0  0  0  0
    8.5079  -14.1745   24.9569 C   0  0  2  0  0  0  0  0  0  0  0  0
    9.1806  -14.4675   23.6991 N   0  0  0  0  0  0  0  0  0  0  0  0
    8.4463  -15.4213   25.7359 C   0  0  0  0  0  0  0  0  0  0  0  0
    9.4241  -15.7241   26.6515 O   0  0  0  0  0  0  0  0  0  0  0  0
    7.4952  -16.2078   25.5595 O   0  0  0  0  0  0  0  0  0  0  0  0
  2  3  1  6
  2  1  1  0
  4  2  1  0
  4  5  1  6
  6  7  2  0
  6  4  1  0
  9  8  1  6
  9 10  1  0
  9 11  1  0
 11 12  1  6
 12  6  1  0
 13 11  1  0
 13 20  1  0
 14 13  2  0
 15 16  1  0
 16 17  1  0
 19 18  1  6
 18 17  1  0
 19 20  1  0
 19 21  1  0
 21 22  1  0
 23 21  2  0
M  END
$$$$
