VTM.pdb
     RDKit          3D

 23 22  0  0  1  0  0  0  0  0999 V2000
    7.8217  -12.2154   18.4651 C   0  0  0  0  0  0  0  0  0  0  0  0
    7.7262  -13.2665   19.5752 C   0  0  2  0  0  0  0  0  0  0  0  0
    8.4039  -12.6806   20.7931 C   0  0  0  0  0  0  0  0  0  0  0  0
    8.4550  -14.4915   19.0664 C   0  0  2  0  0  0  0  0  0  0  0  0
    7.8315  -14.9294   17.8653 N   0  0  0  0  0  0  0  0  0  0  0  0
    8.4355  -15.4975   20.1536 C   0  0  0  0  0  0  0  0  0  0  0  0
    7.3665  -16.1135   20.3714 O   0  0  0  0  0  0  0  0  0  0  0  0
   10.4473  -18.8548   22.9821 C   0  0  0  0  0  0  0  0  0  0  0  0
   10.5894  -17.7980   21.9073 C   0  0  1  0  0  0  0  0  0  0  0  0
   10.3342  -18.4362   20.6873 O   0  0  0  0  0  0  0  0  0  0  0  0
    9.5434  -16.7124   22.0609 C   0  0  2  0  0  0  0  0  0  0  0  0
    9.5629  -15.7887   20.9485 N   0  0  0  0  0  0  0  0  0  0  0  0
    9.7237  -15.9443   23.2976 C   0  0  0  0  0  0  0  0  0  0  0  0
   10.0757  -14.7524   23.2448 O   0  0  0  0  0  0  0  0  0  0  0  0
    7.0941  -11.0681   26.2929 C   0  0  0  0  0  0  0  0  0  0  0  0
    6.4747  -12.7810   26.2512 S   0  0  0  0  0  0  0  0  0  0  0  0
    7.8087  -13.9391   26.6926 C   0  0  0  0  0  0  0  0  0  0  0  0
    8.0942  -14.7902   25.4842 C   0  0  0  0  0  0  0  0  0  0  0  0
    9.2511  -15.7378   25.7287 C   0  0  2  0  0  0  0  0  0  0  0  0
    9.5014  -16.5484   24.5451 N   0  0  0  0  0  0  0  0  0  0  0  0
    8.9847  -16.6506   26.8516 C   0  0  0  0  0  0  0  0  0  0  0  0
    9.4084  -16.3417   28.1210 O   0  0  0  0  0  0  0  0  0  0  0  0
    8.3682  -17.7140   26.6440 O   0  0  0  0  0  0  0  0  0  0  0  0
  2  3  1  1
  2  1  1  0
  4  2  1  0
  4  5  1  6
  6  7  2  0
  6  4  1  0
  9  8  1  1
  9 10  1  0
  9 11  1  0
 11 12  1  6
 12  6  1  0
 13 11  1  0
 13 20  1  0
 14 13  2  0
 15 16  1  0
 16 17  1  0
 19 18  1  6
 18 17  1  0
 19 20  1  0
 19 21  1  0
 21 22  1  0
 23 21  2  0
M  END
$$$$
