VTM.pdb
     RDKit          3D

 23 22  0  0  1  0  0  0  0  0999 V2000
    7.9971  -12.8011   18.4159 C   0  0  0  0  0  0  0  0  0  0  0  0
    7.8359  -13.4982   19.7703 C   0  0  2  0  0  0  0  0  0  0  0  0
    8.5664  -12.6523   20.7884 C   0  0  0  0  0  0  0  0  0  0  0  0
    8.4683  -14.8654   19.6240 C   0  0  2  0  0  0  0  0  0  0  0  0
    7.8367  -15.5497   18.5488 N   0  0  0  0  0  0  0  0  0  0  0  0
    8.3384  -15.5516   20.9304 C   0  0  0  0  0  0  0  0  0  0  0  0
    7.1928  -15.8844   21.3133 O   0  0  0  0  0  0  0  0  0  0  0  0
    9.7867  -18.7482   21.9749 C   0  0  0  0  0  0  0  0  0  0  0  0
   10.1878  -17.7779   23.0657 C   0  0  1  0  0  0  0  0  0  0  0  0
   11.5017  -17.3845   22.7831 O   0  0  0  0  0  0  0  0  0  0  0  0
    9.3375  -16.5242   23.0273 C   0  0  2  0  0  0  0  0  0  0  0  0
    9.4434  -15.8439   21.7557 N   0  0  0  0  0  0  0  0  0  0  0  0
    9.7042  -15.5770   24.0858 C   0  0  0  0  0  0  0  0  0  0  0  0
   10.1920  -14.4714   23.7907 O   0  0  0  0  0  0  0  0  0  0  0  0
    6.8204  -11.0252   26.0780 C   0  0  0  0  0  0  0  0  0  0  0  0
    6.7676  -12.1217   27.5322 S   0  0  0  0  0  0  0  0  0  0  0  0
    8.3056  -13.0905   27.6407 C   0  0  0  0  0  0  0  0  0  0  0  0
    8.3080  -14.0743   26.5013 C   0  0  0  0  0  0  0  0  0  0  0  0
    9.5833  -14.8922   26.4718 C   0  0  2  0  0  0  0  0  0  0  0  0
    9.5077  -15.9118   25.4348 N   0  0  0  0  0  0  0  0  0  0  0  0
    9.8296  -15.5709   27.7538 C   0  0  0  0  0  0  0  0  0  0  0  0
   10.3605  -14.8851   28.8188 O   0  0  0  0  0  0  0  0  0  0  0  0
    9.5523  -16.7808   27.8700 O   0  0  0  0  0  0  0  0  0  0  0  0
  2  3  1  1
  2  1  1  0
  4  2  1  0
  4  5  1  6
  6  7  2  0
  6  4  1  0
  9  8  1  6
  9 10  1  0
  9 11  1  0
 11 12  1  6
 12  6  1  0
 13 11  1  0
 13 20  1  0
 14 13  2  0
 15 16  1  0
 16 17  1  0
 19 18  1  1
 18 17  1  0
 19 20  1  0
 19 21  1  0
 21 22  1  0
 23 21  2  0
M  END
$$$$
