VTM.pdb
     RDKit          3D

 23 22  0  0  1  0  0  0  0  0999 V2000
    8.1931  -12.3977   18.1500 C   0  0  0  0  0  0  0  0  0  0  0  0
    7.8701  -13.3339   19.3185 C   0  0  2  0  0  0  0  0  0  0  0  0
    8.4433  -12.6953   20.5632 C   0  0  0  0  0  0  0  0  0  0  0  0
    8.5441  -14.6527   19.0071 C   0  0  2  0  0  0  0  0  0  0  0  0
    7.9759  -15.1881   17.8181 N   0  0  0  0  0  0  0  0  0  0  0  0
    8.3788  -15.5220   20.1951 C   0  0  0  0  0  0  0  0  0  0  0  0
    7.2691  -16.0754   20.3742 O   0  0  0  0  0  0  0  0  0  0  0  0
   11.6163  -17.4218   21.8777 C   0  0  0  0  0  0  0  0  0  0  0  0
   10.1877  -17.8309   22.1673 C   0  0  1  0  0  0  0  0  0  0  0  0
   10.1977  -18.4413   23.4275 O   0  0  0  0  0  0  0  0  0  0  0  0
    9.2796  -16.6225   22.2732 C   0  0  2  0  0  0  0  0  0  0  0  0
    9.4117  -15.7511   21.1268 N   0  0  0  0  0  0  0  0  0  0  0  0
    9.5489  -15.8348   23.4811 C   0  0  0  0  0  0  0  0  0  0  0  0
   10.5006  -15.0340   23.5030 O   0  0  0  0  0  0  0  0  0  0  0  0
    6.4430  -11.1541   26.2579 C   0  0  0  0  0  0  0  0  0  0  0  0
    6.4692  -12.4396   27.5488 S   0  0  0  0  0  0  0  0  0  0  0  0
    7.9398  -13.4950   27.3503 C   0  0  0  0  0  0  0  0  0  0  0  0
    7.7546  -14.3064   26.0960 C   0  0  0  0  0  0  0  0  0  0  0  0
    8.9668  -15.1672   25.8031 C   0  0  2  0  0  0  0  0  0  0  0  0
    8.7368  -15.9799   24.6168 N   0  0  0  0  0  0  0  0  0  0  0  0
    9.2770  -16.0756   26.9183 C   0  0  0  0  0  0  0  0  0  0  0  0
    9.8232  -15.5940   28.0828 O   0  0  0  0  0  0  0  0  0  0  0  0
    9.0403  -17.2939   26.8004 O   0  0  0  0  0  0  0  0  0  0  0  0
  2  3  1  1
  2  1  1  0
  4  2  1  0
  4  5  1  6
  6  7  2  0
  6  4  1  0
  9  8  1  1
  9 10  1  0
  9 11  1  0
 11 12  1  6
 12  6  1  0
 13 11  1  0
 13 20  1  0
 14 13  2  0
 15 16  1  0
 16 17  1  0
 19 18  1  1
 18 17  1  0
 19 20  1  0
 19 21  1  0
 21 22  1  0
 23 21  2  0
M  END
$$$$
