VTM.pdb
     RDKit          3D

 23 22  0  0  1  0  0  0  0  0999 V2000
    8.0807  -12.3173   18.4523 C   0  0  0  0  0  0  0  0  0  0  0  0
    7.7937  -13.3287   19.5662 C   0  0  2  0  0  0  0  0  0  0  0  0
    8.2667  -12.7032   20.8588 C   0  0  0  0  0  0  0  0  0  0  0  0
    8.5850  -14.5733   19.2263 C   0  0  2  0  0  0  0  0  0  0  0  0
    8.1263  -15.0814   17.9795 N   0  0  0  0  0  0  0  0  0  0  0  0
    8.4233  -15.5187   20.3553 C   0  0  0  0  0  0  0  0  0  0  0  0
    7.3220  -16.1013   20.4868 O   0  0  0  0  0  0  0  0  0  0  0  0
    9.7322  -18.6759   21.0435 C   0  0  0  0  0  0  0  0  0  0  0  0
   10.0947  -17.9213   22.3050 C   0  0  1  0  0  0  0  0  0  0  0  0
   11.4348  -17.5394   22.1676 O   0  0  0  0  0  0  0  0  0  0  0  0
    9.2869  -16.6458   22.4349 C   0  0  2  0  0  0  0  0  0  0  0  0
    9.4508  -15.7883   21.2822 N   0  0  0  0  0  0  0  0  0  0  0  0
    9.6539  -15.8804   23.6314 C   0  0  0  0  0  0  0  0  0  0  0  0
   10.2657  -14.8032   23.5182 O   0  0  0  0  0  0  0  0  0  0  0  0
    6.0638  -12.2752   26.0218 C   0  0  0  0  0  0  0  0  0  0  0  0
    7.6323  -12.0118   26.9107 S   0  0  0  0  0  0  0  0  0  0  0  0
    8.3875  -13.6138   27.3341 C   0  0  0  0  0  0  0  0  0  0  0  0
    8.3092  -14.4930   26.1147 C   0  0  0  0  0  0  0  0  0  0  0  0
    9.4411  -15.4997   26.0780 C   0  0  2  0  0  0  0  0  0  0  0  0
    9.3185  -16.3581   24.9080 N   0  0  0  0  0  0  0  0  0  0  0  0
    9.4476  -16.3619   27.2704 C   0  0  0  0  0  0  0  0  0  0  0  0
    9.9091  -15.8887   28.4743 O   0  0  0  0  0  0  0  0  0  0  0  0
    9.0291  -17.5329   27.1823 O   0  0  0  0  0  0  0  0  0  0  0  0
  2  3  1  1
  2  1  1  0
  4  2  1  0
  4  5  1  6
  6  7  2  0
  6  4  1  0
  9  8  1  6
  9 10  1  0
  9 11  1  0
 11 12  1  6
 12  6  1  0
 13 11  1  0
 13 20  1  0
 14 13  2  0
 15 16  1  0
 16 17  1  0
 19 18  1  1
 18 17  1  0
 19 20  1  0
 19 21  1  0
 21 22  1  0
 23 21  2  0
M  END
$$$$
