VTM.pdb
     RDKit          3D

 23 22  0  0  1  0  0  0  0  0999 V2000
    7.1549  -13.0968   19.9596 C   0  0  0  0  0  0  0  0  0  0  0  0
    8.6112  -13.2145   19.4998 C   0  0  2  0  0  0  0  0  0  0  0  0
    8.8062  -12.1987   18.3970 C   0  0  0  0  0  0  0  0  0  0  0  0
    8.7851  -14.6296   18.9920 C   0  0  2  0  0  0  0  0  0  0  0  0
    7.9648  -14.8082   17.8437 N   0  0  0  0  0  0  0  0  0  0  0  0
    8.4561  -15.5418   20.1118 C   0  0  0  0  0  0  0  0  0  0  0  0
    7.6192  -16.4516   19.9082 O   0  0  0  0  0  0  0  0  0  0  0  0
    8.8777  -18.2475   20.7082 C   0  0  0  0  0  0  0  0  0  0  0  0
    9.4946  -17.7596   22.0018 C   0  0  1  0  0  0  0  0  0  0  0  0
   10.8508  -17.5354   21.7347 O   0  0  0  0  0  0  0  0  0  0  0  0
    8.9059  -16.4290   22.4252 C   0  0  2  0  0  0  0  0  0  0  0  0
    9.0418  -15.4293   21.3892 N   0  0  0  0  0  0  0  0  0  0  0  0
    9.5336  -15.9120   23.6462 C   0  0  0  0  0  0  0  0  0  0  0  0
   10.5333  -15.1759   23.5688 O   0  0  0  0  0  0  0  0  0  0  0  0
    6.4996  -11.6038   25.7910 C   0  0  0  0  0  0  0  0  0  0  0  0
    6.6293  -12.4522   27.3982 S   0  0  0  0  0  0  0  0  0  0  0  0
    8.0681  -13.5682   27.4017 C   0  0  0  0  0  0  0  0  0  0  0  0
    7.9546  -14.4647   26.1977 C   0  0  0  0  0  0  0  0  0  0  0  0
    9.1774  -15.3456   26.0396 C   0  0  2  0  0  0  0  0  0  0  0  0
    9.0115  -16.2446   24.9061 N   0  0  0  0  0  0  0  0  0  0  0  0
    9.4194  -16.1683   27.2353 C   0  0  0  0  0  0  0  0  0  0  0  0
    9.9798  -15.6184   28.3622 O   0  0  0  0  0  0  0  0  0  0  0  0
    9.1112  -17.3762   27.2208 O   0  0  0  0  0  0  0  0  0  0  0  0
  2  3  1  6
  2  1  1  0
  4  2  1  0
  4  5  1  6
  6  7  2  0
  6  4  1  0
  9  8  1  6
  9 10  1  0
  9 11  1  0
 11 12  1  6
 12  6  1  0
 13 11  1  0
 13 20  1  0
 14 13  2  0
 15 16  1  0
 16 17  1  0
 19 18  1  1
 18 17  1  0
 19 20  1  0
 19 21  1  0
 21 22  1  0
 23 21  2  0
M  END
$$$$
