VTM.pdb
     RDKit          3D

 23 22  0  0  1  0  0  0  0  0999 V2000
    3.9706  -22.1041   23.5800 C   0  0  0  0  0  0  0  0  0  0  0  0
    5.0908  -21.0599   23.5502 C   0  0  2  0  0  0  0  0  0  0  0  0
    4.4286  -19.7112   23.3818 C   0  0  0  0  0  0  0  0  0  0  0  0
    5.9638  -21.4050   22.3630 C   0  0  2  0  0  0  0  0  0  0  0  0
    6.3347  -22.7754   22.4501 N   0  0  0  0  0  0  0  0  0  0  0  0
    7.1132  -20.4705   22.3765 C   0  0  0  0  0  0  0  0  0  0  0  0
    7.9827  -20.6140   23.2670 O   0  0  0  0  0  0  0  0  0  0  0  0
   10.0797  -17.4119   19.9006 C   0  0  0  0  0  0  0  0  0  0  0  0
    8.8212  -18.2521   19.9499 C   0  0  1  0  0  0  0  0  0  0  0  0
    9.1348  -19.4723   19.3387 O   0  0  0  0  0  0  0  0  0  0  0  0
    8.4250  -18.5668   21.3783 C   0  0  2  0  0  0  0  0  0  0  0  0
    7.2683  -19.4329   21.4348 N   0  0  0  0  0  0  0  0  0  0  0  0
    8.1272  -17.3538   22.1477 C   0  0  0  0  0  0  0  0  0  0  0  0
    7.1531  -16.6442   21.8395 O   0  0  0  0  0  0  0  0  0  0  0  0
    6.2889  -12.3202   27.2424 C   0  0  0  0  0  0  0  0  0  0  0  0
    6.4060  -13.9950   26.5345 S   0  0  0  0  0  0  0  0  0  0  0  0
    7.8023  -14.0849   25.3692 C   0  0  0  0  0  0  0  0  0  0  0  0
    7.7871  -15.4532   24.7417 C   0  0  0  0  0  0  0  0  0  0  0  0
    8.9183  -15.6251   23.7483 C   0  0  2  0  0  0  0  0  0  0  0  0
    8.9382  -16.9870   23.2332 N   0  0  0  0  0  0  0  0  0  0  0  0
   10.2299  -15.3550   24.3581 C   0  0  0  0  0  0  0  0  0  0  0  0
   11.1755  -16.3465   24.4534 O   0  0  0  0  0  0  0  0  0  0  0  0
   10.4809  -14.2134   24.7915 O   0  0  0  0  0  0  0  0  0  0  0  0
  2  3  1  6
  2  1  1  0
  4  2  1  0
  4  5  1  1
  6  7  2  0
  6  4  1  0
  9  8  1  1
  9 10  1  0
  9 11  1  0
 11 12  1  6
 12  6  1  0
 13 11  1  0
 13 20  1  0
 14 13  2  0
 15 16  1  0
 16 17  1  0
 19 18  1  1
 18 17  1  0
 19 20  1  0
 19 21  1  0
 21 22  1  0
 23 21  2  0
M  END
$$$$
