VTM.pdb
     RDKit          3D

 23 22  0  0  1  0  0  0  0  0999 V2000
    7.1288  -13.2667   19.8964 C   0  0  0  0  0  0  0  0  0  0  0  0
    8.5719  -13.2701   19.3828 C   0  0  2  0  0  0  0  0  0  0  0  0
    8.6468  -12.2395   18.2791 C   0  0  0  0  0  0  0  0  0  0  0  0
    8.8356  -14.6662   18.8612 C   0  0  2  0  0  0  0  0  0  0  0  0
    7.9320  -14.9356   17.7963 N   0  0  0  0  0  0  0  0  0  0  0  0
    8.7055  -15.5953   20.0077 C   0  0  0  0  0  0  0  0  0  0  0  0
    7.5791  -16.0901   20.2442 O   0  0  0  0  0  0  0  0  0  0  0  0
   10.5648  -18.8538   23.1362 C   0  0  0  0  0  0  0  0  0  0  0  0
   10.6933  -17.9421   21.9343 C   0  0  1  0  0  0  0  0  0  0  0  0
   10.3858  -18.7203   20.8115 O   0  0  0  0  0  0  0  0  0  0  0  0
    9.6749  -16.8210   21.9823 C   0  0  2  0  0  0  0  0  0  0  0  0
    9.7899  -15.9436   20.8386 N   0  0  0  0  0  0  0  0  0  0  0  0
    9.8055  -16.0094   23.1974 C   0  0  0  0  0  0  0  0  0  0  0  0
   10.7207  -15.1724   23.2919 O   0  0  0  0  0  0  0  0  0  0  0  0
    6.3814  -11.5887   28.4373 C   0  0  0  0  0  0  0  0  0  0  0  0
    6.3304  -12.6724   26.9736 S   0  0  0  0  0  0  0  0  0  0  0  0
    7.8272  -13.7075   26.9097 C   0  0  0  0  0  0  0  0  0  0  0  0
    7.8208  -14.4403   25.5947 C   0  0  0  0  0  0  0  0  0  0  0  0
    9.0157  -15.3629   25.4633 C   0  0  2  0  0  0  0  0  0  0  0  0
    8.9009  -16.1726   24.2583 N   0  0  0  0  0  0  0  0  0  0  0  0
    9.1321  -16.2768   26.6106 C   0  0  0  0  0  0  0  0  0  0  0  0
    9.8067  -15.8951   27.7445 O   0  0  0  0  0  0  0  0  0  0  0  0
    8.6118  -17.4079   26.5485 O   0  0  0  0  0  0  0  0  0  0  0  0
  2  3  1  6
  2  1  1  0
  4  2  1  0
  4  5  1  6
  6  7  2  0
  6  4  1  0
  9  8  1  1
  9 10  1  0
  9 11  1  0
 11 12  1  6
 12  6  1  0
 13 11  1  0
 13 20  1  0
 14 13  2  0
 15 16  1  0
 16 17  1  0
 19 18  1  1
 18 17  1  0
 19 20  1  0
 19 21  1  0
 21 22  1  0
 23 21  2  0
M  END
$$$$
