VTM.pdb
     RDKit          3D

 23 22  0  0  1  0  0  0  0  0999 V2000
    6.0761  -11.1541   25.8227 C   0  0  0  0  0  0  0  0  0  0  0  0
    6.9992  -12.3587   25.6159 C   0  0  2  0  0  0  0  0  0  0  0  0
    7.9873  -11.9739   24.5382 C   0  0  0  0  0  0  0  0  0  0  0  0
    6.1131  -13.5045   25.1770 C   0  0  2  0  0  0  0  0  0  0  0  0
    5.0931  -13.6935   26.1501 N   0  0  0  0  0  0  0  0  0  0  0  0
    6.9857  -14.6862   24.9853 C   0  0  0  0  0  0  0  0  0  0  0  0
    7.2914  -15.3661   25.9923 O   0  0  0  0  0  0  0  0  0  0  0  0
    7.0755  -16.7052   21.3816 C   0  0  0  0  0  0  0  0  0  0  0  0
    8.4331  -16.5820   22.0403 C   0  0  1  0  0  0  0  0  0  0  0  0
    9.0712  -15.4934   21.4332 O   0  0  0  0  0  0  0  0  0  0  0  0
    8.3024  -16.2477   23.5126 C   0  0  2  0  0  0  0  0  0  0  0  0
    7.4832  -15.0751   23.7249 N   0  0  0  0  0  0  0  0  0  0  0  0
    9.6066  -16.0158   24.1429 C   0  0  0  0  0  0  0  0  0  0  0  0
   10.1817  -14.9221   24.0001 O   0  0  0  0  0  0  0  0  0  0  0  0
   11.2690  -14.0222   29.5555 C   0  0  0  0  0  0  0  0  0  0  0  0
    9.7731  -14.7415   28.8044 S   0  0  0  0  0  0  0  0  0  0  0  0
   10.2190  -16.1724   27.7701 C   0  0  0  0  0  0  0  0  0  0  0  0
   11.1749  -15.6913   26.7114 C   0  0  0  0  0  0  0  0  0  0  0  0
   11.4287  -16.7552   25.6626 C   0  0  2  0  0  0  0  0  0  0  0  0
   10.2122  -17.0244   24.9087 N   0  0  0  0  0  0  0  0  0  0  0  0
   11.8761  -18.0219   26.2630 C   0  0  0  0  0  0  0  0  0  0  0  0
   11.1030  -19.1531   26.1689 O   0  0  0  0  0  0  0  0  0  0  0  0
   12.9685  -18.0640   26.8622 O   0  0  0  0  0  0  0  0  0  0  0  0
  2  3  1  6
  2  1  1  0
  4  2  1  0
  4  5  1  1
  6  7  2  0
  6  4  1  0
  9  8  1  6
  9 10  1  0
  9 11  1  0
 11 12  1  6
 12  6  1  0
 13 11  1  0
 13 20  1  0
 14 13  2  0
 15 16  1  0
 16 17  1  0
 19 18  1  1
 18 17  1  0
 19 20  1  0
 19 21  1  0
 21 22  1  0
 23 21  2  0
M  END
$$$$
