VTM.pdb
     RDKit          3D

 23 22  0  0  1  0  0  0  0  0999 V2000
    7.9230  -12.4118   18.4319 C   0  0  0  0  0  0  0  0  0  0  0  0
    7.7216  -13.3867   19.5960 C   0  0  2  0  0  0  0  0  0  0  0  0
    8.2489  -12.7026   20.8369 C   0  0  0  0  0  0  0  0  0  0  0  0
    8.5233  -14.6252   19.2585 C   0  0  2  0  0  0  0  0  0  0  0  0
    8.0402  -15.1640   18.0339 N   0  0  0  0  0  0  0  0  0  0  0  0
    8.4063  -15.5514   20.4087 C   0  0  0  0  0  0  0  0  0  0  0  0
    7.3071  -16.1211   20.6008 O   0  0  0  0  0  0  0  0  0  0  0  0
    9.8966  -18.7150   21.2087 C   0  0  0  0  0  0  0  0  0  0  0  0
   10.2332  -17.8601   22.4120 C   0  0  1  0  0  0  0  0  0  0  0  0
   11.5440  -17.4058   22.2216 O   0  0  0  0  0  0  0  0  0  0  0  0
    9.3492  -16.6312   22.4790 C   0  0  2  0  0  0  0  0  0  0  0  0
    9.4736  -15.8165   21.2908 N   0  0  0  0  0  0  0  0  0  0  0  0
    9.6570  -15.7936   23.6433 C   0  0  0  0  0  0  0  0  0  0  0  0
   10.5095  -14.8921   23.5540 O   0  0  0  0  0  0  0  0  0  0  0  0
    6.0970  -12.0166   25.9864 C   0  0  0  0  0  0  0  0  0  0  0  0
    7.2908  -11.8832   27.3563 S   0  0  0  0  0  0  0  0  0  0  0  0
    8.2327  -13.4333   27.5179 C   0  0  0  0  0  0  0  0  0  0  0  0
    8.0955  -14.1890   26.2232 C   0  0  0  0  0  0  0  0  0  0  0  0
    9.2530  -15.1428   26.0075 C   0  0  2  0  0  0  0  0  0  0  0  0
    8.9936  -16.0041   24.8623 N   0  0  0  0  0  0  0  0  0  0  0  0
    9.4786  -16.0055   27.1780 C   0  0  0  0  0  0  0  0  0  0  0  0
    9.3790  -17.3711   27.0711 O   0  0  0  0  0  0  0  0  0  0  0  0
    9.7625  -15.4873   28.2757 O   0  0  0  0  0  0  0  0  0  0  0  0
  2  3  1  1
  2  1  1  0
  4  2  1  0
  4  5  1  6
  6  7  2  0
  6  4  1  0
  9  8  1  6
  9 10  1  0
  9 11  1  0
 11 12  1  6
 12  6  1  0
 13 11  1  0
 13 20  1  0
 14 13  2  0
 15 16  1  0
 16 17  1  0
 19 18  1  1
 18 17  1  0
 19 20  1  0
 19 21  1  0
 21 22  1  0
 23 21  2  0
M  END
$$$$
