VCL.pdb
     RDKit          3D

 22 21  0  0  1  0  0  0  0  0999 V2000
   12.2833  -20.7412   21.1262 C   0  0  0  0  0  0  0  0  0  0  0  0
   12.0463  -19.3998   21.7856 C   0  0  2  0  0  0  0  0  0  0  0  0
   11.6997  -19.6125   23.2370 C   0  0  0  0  0  0  0  0  0  0  0  0
   10.9476  -18.6501   21.0548 C   0  0  2  0  0  0  0  0  0  0  0  0
   11.3271  -18.5587   19.6758 N   0  0  0  0  0  0  0  0  0  0  0  0
   10.7309  -17.3063   21.6631 C   0  0  0  0  0  0  0  0  0  0  0  0
   11.6457  -16.4456   21.4875 O   0  0  0  0  0  0  0  0  0  0  0  0
    9.5765  -16.9977   22.3956 N   0  0  0  0  0  0  0  0  0  0  0  0
    9.4576  -15.6990   23.0866 C   0  0  1  0  0  0  0  0  0  0  0  0
    8.0059  -15.3714   23.1883 C   0  0  0  0  0  0  0  0  0  0  0  0
    7.5802  -13.8983   24.0967 S   0  0  0  0  0  0  0  0  0  0  0  0
   10.1189  -15.7799   24.3784 C   0  0  0  0  0  0  0  0  0  0  0  0
   11.3190  -15.3459   24.5497 O   0  0  0  0  0  0  0  0  0  0  0  0
   11.0897  -13.4482   27.9019 C   0  0  0  0  0  0  0  0  0  0  0  0
    9.7007  -14.0537   27.7112 C   0  0  2  0  0  0  0  0  0  0  0  0
    8.6832  -13.2701   28.4401 C   0  0  0  0  0  0  0  0  0  0  0  0
    9.7239  -15.5322   27.8973 C   0  0  0  0  0  0  0  0  0  0  0  0
   10.2469  -16.3714   26.7919 C   0  0  2  0  0  0  0  0  0  0  0  0
    9.5161  -16.3221   25.5344 N   0  0  0  0  0  0  0  0  0  0  0  0
   10.3202  -17.8194   27.2369 C   0  0  0  0  0  0  0  0  0  0  0  0
   11.0571  -18.0460   28.2183 O   0  0  0  0  0  0  0  0  0  0  0  0
    9.6548  -18.8583   26.6496 O   0  0  0  0  0  0  0  0  0  0  0  0
  2  1  1  6
  2  3  1  0
  4  2  1  0
  4  5  1  6
  6  4  1  0
  6  8  1  0
  7  6  2  0
  9  8  1  0
  9 12  1  0
  9 10  1  1
 11 10  1  0
 12 19  1  0
 12 13  2  0
 15 17  1  0
 15 14  1  1
 16 15  1  0
 18 20  1  0
 18 17  1  1
 19 18  1  0
 20 22  1  0
 21 20  2  0
M  END
$$$$
