VCL.pdb
     RDKit          3D

 22 21  0  0  1  0  0  0  0  0999 V2000
    8.1721  -12.6588   17.6767 C   0  0  0  0  0  0  0  0  0  0  0  0
    7.8135  -13.4797   18.8965 C   0  0  2  0  0  0  0  0  0  0  0  0
    8.2114  -12.7253   20.1393 C   0  0  0  0  0  0  0  0  0  0  0  0
    8.4926  -14.8352   18.8266 C   0  0  2  0  0  0  0  0  0  0  0  0
    7.9958  -15.5106   17.6644 N   0  0  0  0  0  0  0  0  0  0  0  0
    8.2440  -15.6149   20.0729 C   0  0  0  0  0  0  0  0  0  0  0  0
    7.0960  -16.1392   20.1992 O   0  0  0  0  0  0  0  0  0  0  0  0
    9.2234  -15.7678   21.0636 N   0  0  0  0  0  0  0  0  0  0  0  0
    8.9227  -16.5170   22.2992 C   0  0  1  0  0  0  0  0  0  0  0  0
    9.8592  -17.6762   22.3652 C   0  0  0  0  0  0  0  0  0  0  0  0
   11.5989  -17.3063   22.2510 S   0  0  0  0  0  0  0  0  0  0  0  0
    9.0337  -15.6246   23.4411 C   0  0  0  0  0  0  0  0  0  0  0  0
    9.8505  -14.6292   23.4418 O   0  0  0  0  0  0  0  0  0  0  0  0
    5.9787  -12.1948   27.1878 C   0  0  0  0  0  0  0  0  0  0  0  0
    7.3493  -12.8231   26.9455 C   0  0  2  0  0  0  0  0  0  0  0  0
    8.4088  -11.7947   26.9714 C   0  0  0  0  0  0  0  0  0  0  0  0
    7.3140  -13.7754   25.7997 C   0  0  0  0  0  0  0  0  0  0  0  0
    8.3918  -14.7890   25.6951 C   0  0  2  0  0  0  0  0  0  0  0  0
    8.2690  -15.7621   24.6201 N   0  0  0  0  0  0  0  0  0  0  0  0
    8.5131  -15.5464   27.0035 C   0  0  0  0  0  0  0  0  0  0  0  0
    7.7491  -16.5246   27.1340 O   0  0  0  0  0  0  0  0  0  0  0  0
    9.3753  -15.2349   28.0166 O   0  0  0  0  0  0  0  0  0  0  0  0
  2  1  1  6
  2  3  1  0
  4  2  1  0
  4  5  1  6
  6  4  1  0
  6  8  1  0
  7  6  2  0
  9  8  1  0
  9 12  1  0
  9 10  1  1
 11 10  1  0
 12 19  1  0
 12 13  2  0
 15 17  1  0
 15 14  1  6
 16 15  1  0
 18 20  1  0
 18 17  1  1
 19 18  1  0
 20 22  1  0
 21 20  2  0
M  END
$$$$
