VCL.pdb
     RDKit          3D

 22 21  0  0  1  0  0  0  0  0999 V2000
    9.1595  -12.5216   19.6677 C   0  0  0  0  0  0  0  0  0  0  0  0
    8.5170  -13.2690   18.5192 C   0  0  2  0  0  0  0  0  0  0  0  0
    7.0176  -13.1751   18.6405 C   0  0  0  0  0  0  0  0  0  0  0  0
    8.9859  -14.7125   18.5137 C   0  0  2  0  0  0  0  0  0  0  0  0
    8.5313  -15.3122   17.2940 N   0  0  0  0  0  0  0  0  0  0  0  0
    8.4778  -15.4368   19.7137 C   0  0  0  0  0  0  0  0  0  0  0  0
    7.2907  -15.8791   19.6539 O   0  0  0  0  0  0  0  0  0  0  0  0
    9.2646  -15.6259   20.8581 N   0  0  0  0  0  0  0  0  0  0  0  0
    8.6911  -16.2626   22.0598 C   0  0  1  0  0  0  0  0  0  0  0  0
    9.4245  -17.5412   22.2884 C   0  0  0  0  0  0  0  0  0  0  0  0
   11.1834  -17.4188   22.5485 S   0  0  0  0  0  0  0  0  0  0  0  0
    8.7813  -15.3416   23.1806 C   0  0  0  0  0  0  0  0  0  0  0  0
    9.7629  -14.5167   23.2981 O   0  0  0  0  0  0  0  0  0  0  0  0
    5.4576  -11.8955   26.9834 C   0  0  0  0  0  0  0  0  0  0  0  0
    6.8407  -12.4663   26.6777 C   0  0  2  0  0  0  0  0  0  0  0  0
    7.8636  -11.4016   26.7015 C   0  0  0  0  0  0  0  0  0  0  0  0
    6.8008  -13.3846   25.5046 C   0  0  0  0  0  0  0  0  0  0  0  0
    7.9576  -14.2845   25.2771 C   0  0  2  0  0  0  0  0  0  0  0  0
    7.8197  -15.2664   24.2120 N   0  0  0  0  0  0  0  0  0  0  0  0
    8.2926  -15.0240   26.5581 C   0  0  0  0  0  0  0  0  0  0  0  0
    7.7304  -16.1282   26.7069 O   0  0  0  0  0  0  0  0  0  0  0  0
    9.1408  -14.5722   27.5293 O   0  0  0  0  0  0  0  0  0  0  0  0
  2  1  1  1
  2  3  1  0
  4  2  1  0
  4  5  1  6
  6  4  1  0
  6  8  1  0
  7  6  2  0
  9  8  1  0
  9 12  1  0
  9 10  1  1
 11 10  1  0
 12 19  1  0
 12 13  2  0
 15 17  1  0
 15 14  1  6
 16 15  1  0
 18 20  1  0
 18 17  1  1
 19 18  1  0
 20 22  1  0
 21 20  2  0
M  END
$$$$
