VCL.pdb
     RDKit          3D

 22 21  0  0  1  0  0  0  0  0999 V2000
    8.1456  -12.6485   17.8812 C   0  0  0  0  0  0  0  0  0  0  0  0
    7.8581  -13.4881   19.1071 C   0  0  2  0  0  0  0  0  0  0  0  0
    8.3895  -12.7835   20.3291 C   0  0  0  0  0  0  0  0  0  0  0  0
    8.4735  -14.8661   18.9472 C   0  0  2  0  0  0  0  0  0  0  0  0
    7.8198  -15.5086   17.8455 N   0  0  0  0  0  0  0  0  0  0  0  0
    8.3428  -15.6518   20.2076 C   0  0  0  0  0  0  0  0  0  0  0  0
    7.1912  -16.1086   20.4791 O   0  0  0  0  0  0  0  0  0  0  0  0
    9.4324  -15.8811   21.0587 N   0  0  0  0  0  0  0  0  0  0  0  0
    9.2417  -16.5910   22.3386 C   0  0  1  0  0  0  0  0  0  0  0  0
   10.3393  -17.5927   22.4687 C   0  0  0  0  0  0  0  0  0  0  0  0
   10.5706  -18.3209   24.0789 S   0  0  0  0  0  0  0  0  0  0  0  0
    9.2153  -15.6250   23.4243 C   0  0  0  0  0  0  0  0  0  0  0  0
   10.0651  -14.6599   23.4886 O   0  0  0  0  0  0  0  0  0  0  0  0
    5.7157  -12.1534   26.9158 C   0  0  0  0  0  0  0  0  0  0  0  0
    7.1216  -12.7002   26.6778 C   0  0  2  0  0  0  0  0  0  0  0  0
    8.0994  -11.5995   26.5643 C   0  0  0  0  0  0  0  0  0  0  0  0
    7.1210  -13.7585   25.6285 C   0  0  0  0  0  0  0  0  0  0  0  0
    8.3067  -14.6432   25.5223 C   0  0  2  0  0  0  0  0  0  0  0  0
    8.2737  -15.6542   24.4761 N   0  0  0  0  0  0  0  0  0  0  0  0
    8.5448  -15.3439   26.8461 C   0  0  0  0  0  0  0  0  0  0  0  0
    7.9467  -16.4286   26.9982 O   0  0  0  0  0  0  0  0  0  0  0  0
    9.3443  -14.8775   27.8512 O   0  0  0  0  0  0  0  0  0  0  0  0
  2  1  1  6
  2  3  1  0
  4  2  1  0
  4  5  1  6
  6  4  1  0
  6  8  1  0
  7  6  2  0
  9  8  1  0
  9 12  1  0
  9 10  1  1
 11 10  1  0
 12 19  1  0
 12 13  2  0
 15 17  1  0
 15 14  1  6
 16 15  1  0
 18 20  1  0
 18 17  1  1
 19 18  1  0
 20 22  1  0
 21 20  2  0
M  END
$$$$
