VCL.pdb
     RDKit          3D

 22 21  0  0  1  0  0  0  0  0999 V2000
    8.2621  -12.5982   18.2306 C   0  0  0  0  0  0  0  0  0  0  0  0
    7.6901  -13.4176   19.3672 C   0  0  2  0  0  0  0  0  0  0  0  0
    7.9345  -12.7005   20.6703 C   0  0  0  0  0  0  0  0  0  0  0  0
    8.3092  -14.8033   19.3696 C   0  0  2  0  0  0  0  0  0  0  0  0
    7.9791  -15.4287   18.1230 N   0  0  0  0  0  0  0  0  0  0  0  0
    7.8246  -15.5957   20.5358 C   0  0  0  0  0  0  0  0  0  0  0  0
    6.6072  -15.9511   20.5188 O   0  0  0  0  0  0  0  0  0  0  0  0
    8.6642  -15.9372   21.6048 N   0  0  0  0  0  0  0  0  0  0  0  0
    8.1040  -16.5448   22.8276 C   0  0  1  0  0  0  0  0  0  0  0  0
    8.4945  -17.9844   22.8378 C   0  0  0  0  0  0  0  0  0  0  0  0
    8.1998  -18.8823   24.3489 S   0  0  0  0  0  0  0  0  0  0  0  0
    8.5810  -15.8132   23.9894 C   0  0  0  0  0  0  0  0  0  0  0  0
    9.8308  -15.5519   24.1550 O   0  0  0  0  0  0  0  0  0  0  0  0
    7.7690  -11.6274   25.3840 C   0  0  0  0  0  0  0  0  0  0  0  0
    6.7671  -12.6248   25.9617 C   0  0  2  0  0  0  0  0  0  0  0  0
    5.5807  -11.9258   26.4952 C   0  0  0  0  0  0  0  0  0  0  0  0
    7.4432  -13.6336   26.8254 C   0  0  0  0  0  0  0  0  0  0  0  0
    8.2965  -14.6572   26.1743 C   0  0  2  0  0  0  0  0  0  0  0  0
    7.7357  -15.3292   25.0118 N   0  0  0  0  0  0  0  0  0  0  0  0
    8.6899  -15.7166   27.1857 C   0  0  0  0  0  0  0  0  0  0  0  0
    8.0901  -16.8065   27.0871 O   0  0  0  0  0  0  0  0  0  0  0  0
    9.6267  -15.5584   28.1677 O   0  0  0  0  0  0  0  0  0  0  0  0
  2  1  1  6
  2  3  1  0
  4  2  1  0
  4  5  1  6
  6  4  1  0
  6  8  1  0
  7  6  2  0
  9  8  1  0
  9 12  1  0
  9 10  1  1
 11 10  1  0
 12 19  1  0
 12 13  2  0
 15 17  1  0
 15 14  1  1
 16 15  1  0
 18 20  1  0
 18 17  1  1
 19 18  1  0
 20 22  1  0
 21 20  2  0
M  END
$$$$
