VCL.pdb
     RDKit          3D

 22 21  0  0  1  0  0  0  0  0999 V2000
    8.8989  -13.1056   18.3570 C   0  0  0  0  0  0  0  0  0  0  0  0
    7.9063  -13.6700   19.3504 C   0  0  2  0  0  0  0  0  0  0  0  0
    7.9174  -12.8266   20.5996 C   0  0  0  0  0  0  0  0  0  0  0  0
    8.2433  -15.1184   19.6534 C   0  0  2  0  0  0  0  0  0  0  0  0
    8.1810  -15.8461   18.4204 N   0  0  0  0  0  0  0  0  0  0  0  0
    7.3113  -15.6741   20.6759 C   0  0  0  0  0  0  0  0  0  0  0  0
    6.1019  -15.8244   20.3249 O   0  0  0  0  0  0  0  0  0  0  0  0
    7.7394  -16.0175   21.9656 N   0  0  0  0  0  0  0  0  0  0  0  0
    6.7546  -16.3421   23.0158 C   0  0  1  0  0  0  0  0  0  0  0  0
    6.8128  -17.8139   23.2519 C   0  0  0  0  0  0  0  0  0  0  0  0
    8.3822  -18.4788   23.7726 S   0  0  0  0  0  0  0  0  0  0  0  0
    7.0450  -15.5588   24.2052 C   0  0  0  0  0  0  0  0  0  0  0  0
    6.3128  -14.5565   24.5476 O   0  0  0  0  0  0  0  0  0  0  0  0
    7.7722  -11.8323   25.7974 C   0  0  0  0  0  0  0  0  0  0  0  0
    6.9178  -12.9795   26.3324 C   0  0  2  0  0  0  0  0  0  0  0  0
    5.8362  -12.4676   27.1978 C   0  0  0  0  0  0  0  0  0  0  0  0
    7.7652  -14.0945   26.8419 C   0  0  0  0  0  0  0  0  0  0  0  0
    8.6896  -14.7639   25.8947 C   0  0  2  0  0  0  0  0  0  0  0  0
    8.1256  -15.8251   25.0741 N   0  0  0  0  0  0  0  0  0  0  0  0
    9.8752  -15.3331   26.6500 C   0  0  0  0  0  0  0  0  0  0  0  0
    9.9914  -16.5752   26.6158 O   0  0  0  0  0  0  0  0  0  0  0  0
   10.7929  -14.5971   27.3451 O   0  0  0  0  0  0  0  0  0  0  0  0
  2  1  1  6
  2  3  1  0
  4  2  1  0
  4  5  1  6
  6  4  1  0
  6  8  1  0
  7  6  2  0
  9  8  1  0
  9 12  1  0
  9 10  1  1
 11 10  1  0
 12 19  1  0
 12 13  2  0
 15 17  1  0
 15 14  1  1
 16 15  1  0
 18 20  1  0
 18 17  1  1
 19 18  1  0
 20 22  1  0
 21 20  2  0
M  END
$$$$
