VCL.pdb
     RDKit          3D

 22 21  0  0  1  0  0  0  0  0999 V2000
    7.2165  -13.1529   20.3800 C   0  0  0  0  0  0  0  0  0  0  0  0
    8.4537  -13.3445   19.5296 C   0  0  2  0  0  0  0  0  0  0  0  0
    8.3370  -12.5039   18.2839 C   0  0  0  0  0  0  0  0  0  0  0  0
    8.6299  -14.8143   19.1950 C   0  0  2  0  0  0  0  0  0  0  0  0
    7.5782  -15.1838   18.2943 N   0  0  0  0  0  0  0  0  0  0  0  0
    8.6183  -15.6427   20.4346 C   0  0  0  0  0  0  0  0  0  0  0  0
    7.4848  -16.0260   20.8550 O   0  0  0  0  0  0  0  0  0  0  0  0
    9.7964  -15.9874   21.1110 N   0  0  0  0  0  0  0  0  0  0  0  0
    9.7335  -16.7143   22.3940 C   0  0  1  0  0  0  0  0  0  0  0  0
   10.9678  -17.5446   22.5051 C   0  0  0  0  0  0  0  0  0  0  0  0
   11.2533  -18.3475   24.0704 S   0  0  0  0  0  0  0  0  0  0  0  0
    9.5849  -15.7599   23.4801 C   0  0  0  0  0  0  0  0  0  0  0  0
   10.2046  -14.6313   23.4751 O   0  0  0  0  0  0  0  0  0  0  0  0
    6.0076  -12.5119   26.8570 C   0  0  0  0  0  0  0  0  0  0  0  0
    7.4066  -13.1232   26.8217 C   0  0  2  0  0  0  0  0  0  0  0  0
    8.4373  -12.0838   27.0160 C   0  0  0  0  0  0  0  0  0  0  0  0
    7.5575  -14.0655   25.6771 C   0  0  0  0  0  0  0  0  0  0  0  0
    8.7114  -14.9974   25.6815 C   0  0  2  0  0  0  0  0  0  0  0  0
    8.7619  -15.9771   24.6067 N   0  0  0  0  0  0  0  0  0  0  0  0
    8.7637  -15.7435   27.0009 C   0  0  0  0  0  0  0  0  0  0  0  0
    9.0122  -15.0466   28.0059 O   0  0  0  0  0  0  0  0  0  0  0  0
    8.5653  -17.0867   27.1543 O   0  0  0  0  0  0  0  0  0  0  0  0
  2  1  1  1
  2  3  1  0
  4  2  1  0
  4  5  1  6
  6  4  1  0
  6  8  1  0
  7  6  2  0
  9  8  1  0
  9 12  1  0
  9 10  1  1
 11 10  1  0
 12 19  1  0
 12 13  2  0
 15 17  1  0
 15 14  1  6
 16 15  1  0
 18 20  1  0
 18 17  1  1
 19 18  1  0
 20 22  1  0
 21 20  2  0
M  END
$$$$
