VCL.pdb
     RDKit          3D

 22 21  0  0  1  0  0  0  0  0999 V2000
    8.9124  -13.1679   17.7420 C   0  0  0  0  0  0  0  0  0  0  0  0
    8.1428  -13.6814   18.9398 C   0  0  2  0  0  0  0  0  0  0  0  0
    8.5836  -12.9345   20.1726 C   0  0  0  0  0  0  0  0  0  0  0  0
    8.3545  -15.1768   19.0892 C   0  0  2  0  0  0  0  0  0  0  0  0
    7.8563  -15.8068   17.9023 N   0  0  0  0  0  0  0  0  0  0  0  0
    7.6772  -15.6855   20.3162 C   0  0  0  0  0  0  0  0  0  0  0  0
    6.5876  -16.3127   20.1488 O   0  0  0  0  0  0  0  0  0  0  0  0
    8.2091  -15.4864   21.5974 N   0  0  0  0  0  0  0  0  0  0  0  0
    7.5679  -16.1039   22.7747 C   0  0  1  0  0  0  0  0  0  0  0  0
    7.6703  -17.5842   22.6217 C   0  0  0  0  0  0  0  0  0  0  0  0
    7.3888  -18.5608   24.0857 S   0  0  0  0  0  0  0  0  0  0  0  0
    8.2036  -15.6071   23.9837 C   0  0  0  0  0  0  0  0  0  0  0  0
    9.4843  -15.5219   24.0857 O   0  0  0  0  0  0  0  0  0  0  0  0
    7.3963  -11.6041   25.5431 C   0  0  0  0  0  0  0  0  0  0  0  0
    6.5304  -12.5513   26.3709 C   0  0  2  0  0  0  0  0  0  0  0  0
    5.5514  -11.7954   27.1778 C   0  0  0  0  0  0  0  0  0  0  0  0
    7.3578  -13.5885   27.0495 C   0  0  0  0  0  0  0  0  0  0  0  0
    8.1783  -14.4936   26.2086 C   0  0  2  0  0  0  0  0  0  0  0  0
    7.4902  -15.1774   25.1240 N   0  0  0  0  0  0  0  0  0  0  0  0
    8.8421  -15.5427   27.0799 C   0  0  0  0  0  0  0  0  0  0  0  0
    8.4089  -16.7057   26.9495 O   0  0  0  0  0  0  0  0  0  0  0  0
    9.8495  -15.3032   27.9714 O   0  0  0  0  0  0  0  0  0  0  0  0
  2  1  1  6
  2  3  1  0
  4  2  1  0
  4  5  1  6
  6  4  1  0
  6  8  1  0
  7  6  2  0
  9  8  1  0
  9 12  1  0
  9 10  1  6
 11 10  1  0
 12 19  1  0
 12 13  2  0
 15 17  1  0
 15 14  1  1
 16 15  1  0
 18 20  1  0
 18 17  1  1
 19 18  1  0
 20 22  1  0
 21 20  2  0
M  END
$$$$
