VCL.pdb
     RDKit          3D

 22 21  0  0  1  0  0  0  0  0999 V2000
    6.9952  -13.1304   20.2372 C   0  0  0  0  0  0  0  0  0  0  0  0
    8.4476  -13.1634   19.8128 C   0  0  2  0  0  0  0  0  0  0  0  0
    8.6532  -12.2070   18.6661 C   0  0  0  0  0  0  0  0  0  0  0  0
    8.8450  -14.5787   19.4355 C   0  0  2  0  0  0  0  0  0  0  0  0
    8.1550  -14.9158   18.2255 N   0  0  0  0  0  0  0  0  0  0  0  0
    8.5279  -15.5281   20.5405 C   0  0  0  0  0  0  0  0  0  0  0  0
    7.4350  -16.1654   20.4501 O   0  0  0  0  0  0  0  0  0  0  0  0
    9.3879  -15.7156   21.6312 N   0  0  0  0  0  0  0  0  0  0  0  0
    8.9831  -16.5761   22.7599 C   0  0  1  0  0  0  0  0  0  0  0  0
    9.7369  -17.8582   22.6450 C   0  0  0  0  0  0  0  0  0  0  0  0
   11.5149  -17.7399   22.6085 S   0  0  0  0  0  0  0  0  0  0  0  0
    9.2293  -15.8763   24.0098 C   0  0  0  0  0  0  0  0  0  0  0  0
   10.2768  -15.1469   24.1789 O   0  0  0  0  0  0  0  0  0  0  0  0
    8.1916  -12.0869   26.0151 C   0  0  0  0  0  0  0  0  0  0  0  0
    7.1348  -13.1869   26.0903 C   0  0  2  0  0  0  0  0  0  0  0  0
    5.8063  -12.6169   26.3915 C   0  0  0  0  0  0  0  0  0  0  0  0
    7.6113  -14.3416   26.9031 C   0  0  0  0  0  0  0  0  0  0  0  0
    8.6802  -15.2027   26.3413 C   0  0  2  0  0  0  0  0  0  0  0  0
    8.3592  -15.9271   25.1207 N   0  0  0  0  0  0  0  0  0  0  0  0
    9.1279  -16.2106   27.3824 C   0  0  0  0  0  0  0  0  0  0  0  0
    8.8083  -17.3961   27.1588 O   0  0  0  0  0  0  0  0  0  0  0  0
    9.8334  -15.9131   28.5141 O   0  0  0  0  0  0  0  0  0  0  0  0
  2  1  1  6
  2  3  1  0
  4  2  1  0
  4  5  1  6
  6  4  1  0
  6  8  1  0
  7  6  2  0
  9  8  1  0
  9 12  1  0
  9 10  1  1
 11 10  1  0
 12 19  1  0
 12 13  2  0
 15 17  1  0
 15 14  1  1
 16 15  1  0
 18 20  1  0
 18 17  1  1
 19 18  1  0
 20 22  1  0
 21 20  2  0
M  END
$$$$
