VCL.pdb
     RDKit          3D

 22 21  0  0  1  0  0  0  0  0999 V2000
    8.7263  -19.2212   26.7463 C   0  0  0  0  0  0  0  0  0  0  0  0
    7.3010  -19.2260   26.2374 C   0  0  2  0  0  0  0  0  0  0  0  0
    6.4796  -20.1804   27.0659 C   0  0  0  0  0  0  0  0  0  0  0  0
    7.2771  -19.6023   24.7673 C   0  0  2  0  0  0  0  0  0  0  0  0
    7.7467  -20.9517   24.6565 N   0  0  0  0  0  0  0  0  0  0  0  0
    8.1064  -18.6564   23.9670 C   0  0  0  0  0  0  0  0  0  0  0  0
    9.3033  -19.0041   23.7321 O   0  0  0  0  0  0  0  0  0  0  0  0
    7.5990  -17.4393   23.4921 N   0  0  0  0  0  0  0  0  0  0  0  0
    8.4989  -16.4495   22.8684 C   0  0  1  0  0  0  0  0  0  0  0  0
    7.7764  -15.8467   21.7109 C   0  0  0  0  0  0  0  0  0  0  0  0
    6.1113  -15.2867   22.0113 S   0  0  0  0  0  0  0  0  0  0  0  0
    8.9016  -15.4713   23.8652 C   0  0  0  0  0  0  0  0  0  0  0  0
    9.8675  -14.6477   23.6497 O   0  0  0  0  0  0  0  0  0  0  0  0
    5.8157  -11.9570   26.6240 C   0  0  0  0  0  0  0  0  0  0  0  0
    7.1899  -12.3413   26.0796 C   0  0  2  0  0  0  0  0  0  0  0  0
    7.1906  -12.3280   24.6029 C   0  0  0  0  0  0  0  0  0  0  0  0
    7.7333  -13.5406   26.7777 C   0  0  0  0  0  0  0  0  0  0  0  0
    8.7624  -14.3517   26.0829 C   0  0  2  0  0  0  0  0  0  0  0  0
    8.2797  -15.3357   25.1256 N   0  0  0  0  0  0  0  0  0  0  0  0
    9.6240  -15.0711   27.1029 C   0  0  0  0  0  0  0  0  0  0  0  0
   10.1601  -14.3452   27.9649 O   0  0  0  0  0  0  0  0  0  0  0  0
    9.8458  -16.4190   27.1357 O   0  0  0  0  0  0  0  0  0  0  0  0
  2  1  1  1
  2  3  1  0
  4  2  1  0
  4  5  1  1
  6  4  1  0
  6  8  1  0
  7  6  2  0
  9  8  1  0
  9 12  1  0
  9 10  1  6
 11 10  1  0
 12 19  1  0
 12 13  2  0
 15 17  1  0
 15 14  1  6
 16 15  1  0
 18 20  1  0
 18 17  1  1
 19 18  1  0
 20 22  1  0
 21 20  2  0
M  END
$$$$
