VCL.pdb
     RDKit          3D

 22 21  0  0  1  0  0  0  0  0999 V2000
    6.9551  -12.9903   19.4731 C   0  0  0  0  0  0  0  0  0  0  0  0
    8.4274  -13.1499   19.1606 C   0  0  2  0  0  0  0  0  0  0  0  0
    8.7840  -12.2788   17.9833 C   0  0  0  0  0  0  0  0  0  0  0  0
    8.7442  -14.6092   18.8897 C   0  0  2  0  0  0  0  0  0  0  0  0
    8.0908  -14.9761   17.6681 N   0  0  0  0  0  0  0  0  0  0  0  0
    8.3108  -15.4640   20.0318 C   0  0  0  0  0  0  0  0  0  0  0  0
    7.4143  -16.3282   19.7904 O   0  0  0  0  0  0  0  0  0  0  0  0
    8.8600  -15.3285   21.3141 N   0  0  0  0  0  0  0  0  0  0  0  0
    8.3643  -16.1594   22.4286 C   0  0  1  0  0  0  0  0  0  0  0  0
    8.3945  -17.5821   21.9809 C   0  0  0  0  0  0  0  0  0  0  0  0
    9.8515  -18.1134   21.1029 S   0  0  0  0  0  0  0  0  0  0  0  0
    9.1753  -15.9127   23.6093 C   0  0  0  0  0  0  0  0  0  0  0  0
   10.2710  -15.2395   23.5458 O   0  0  0  0  0  0  0  0  0  0  0  0
    6.0683  -12.6312   26.6587 C   0  0  0  0  0  0  0  0  0  0  0  0
    7.3972  -13.3614   26.8400 C   0  0  2  0  0  0  0  0  0  0  0  0
    8.4852  -12.4052   27.1276 C   0  0  0  0  0  0  0  0  0  0  0  0
    7.6095  -14.3748   25.7681 C   0  0  0  0  0  0  0  0  0  0  0  0
    8.6314  -15.4269   25.9882 C   0  0  2  0  0  0  0  0  0  0  0  0
    8.8381  -16.3720   24.9012 N   0  0  0  0  0  0  0  0  0  0  0  0
    8.2955  -16.2152   27.2395 C   0  0  0  0  0  0  0  0  0  0  0  0
    7.3137  -16.9801   27.1485 O   0  0  0  0  0  0  0  0  0  0  0  0
    8.9754  -16.1420   28.4225 O   0  0  0  0  0  0  0  0  0  0  0  0
  2  1  1  6
  2  3  1  0
  4  2  1  0
  4  5  1  6
  6  4  1  0
  6  8  1  0
  7  6  2  0
  9  8  1  0
  9 12  1  0
  9 10  1  6
 11 10  1  0
 12 19  1  0
 12 13  2  0
 15 17  1  0
 15 14  1  6
 16 15  1  0
 18 20  1  0
 18 17  1  6
 19 18  1  0
 20 22  1  0
 21 20  2  0
M  END
$$$$
