EAH.pdb
     RDKit          3D

 25 25  0  0  1  0  0  0  0  0999 V2000
    8.5645  -17.4127   16.9091 N   0  0  0  0  0  0  0  0  0  0  0  0
    7.5281  -16.6985   17.6127 C   0  0  1  0  0  0  0  0  0  0  0  0
    6.4926  -17.6049   18.1659 C   0  0  0  0  0  0  0  0  0  0  0  0
    6.9092  -18.6671   19.0955 C   0  0  0  0  0  0  0  0  0  0  0  0
    6.4168  -20.0154   18.9137 C   0  0  0  0  0  0  0  0  0  0  0  0
    5.1915  -20.1199   18.5438 O   0  0  0  0  0  0  0  0  0  0  0  0
    8.1644  -15.9377   18.7248 C   0  0  0  0  0  0  0  0  0  0  0  0
    9.2266  -16.3804   19.2892 O   0  0  0  0  0  0  0  0  0  0  0  0
    7.0637  -21.2161   19.0791 O   0  0  0  0  0  0  0  0  0  0  0  0
    7.7045  -12.6403   20.5576 C   0  0  0  0  0  0  0  0  0  0  0  0
    8.3228  -13.9697   20.2829 C   0  0  2  0  0  0  0  0  0  0  0  0
    7.6559  -14.7138   19.2195 N   0  0  0  0  0  0  0  0  0  0  0  0
    8.3352  -14.8039   21.5214 C   0  0  0  0  0  0  0  0  0  0  0  0
    7.2946  -15.3588   21.9599 O   0  0  0  0  0  0  0  0  0  0  0  0
    9.5338  -14.9697   22.2092 N   0  0  0  0  0  0  0  0  0  0  0  0
    9.6842  -15.7601   23.4509 C   0  0  1  0  0  0  0  0  0  0  0  0
    9.2603  -17.1373   23.0873 C   0  0  0  0  0  0  0  0  0  0  0  0
    7.8252  -17.4111   23.1135 C   0  0  0  0  0  0  0  0  0  0  0  0
    7.0127  -16.8523   24.1092 C   0  0  0  0  0  0  0  0  0  0  0  0
    5.7534  -17.2629   23.8933 N   0  0  0  0  0  0  0  0  0  0  0  0
    5.7734  -18.0398   22.8176 C   0  0  0  0  0  0  0  0  0  0  0  0
    7.0225  -18.1277   22.3497 N   0  0  0  0  0  0  0  0  0  0  0  0
   11.0845  -15.6492   23.8852 C   0  0  0  0  0  0  0  0  0  0  0  0
   11.4344  -15.9078   25.0618 O   0  0  0  0  0  0  0  0  0  0  0  0
   12.0661  -15.2530   22.9993 O   0  0  0  0  0  0  0  0  0  0  0  0
  2  1  1  1
  2  7  1  0
  3  4  1  0
  3  2  1  0
  4  5  1  0
  5  9  1  0
  6  5  2  0
  7 12  1  0
  7  8  2  0
 11 10  1  1
 11 13  1  0
 12 11  1  0
 13 14  2  0
 15 13  1  0
 15 16  1  0
 16 23  1  0
 16 17  1  6
 17 18  1  0
 18 19  2  0
 18 22  1  0
 19 20  1  0
 20 21  1  0
 22 21  2  0
 23 25  1  0
 24 23  2  0
M  END
$$$$
