EAH.pdb
     RDKit          3D

 25 25  0  0  1  0  0  0  0  0999 V2000
   10.3121  -13.1734   19.0767 N   0  0  0  0  0  0  0  0  0  0  0  0
    8.9089  -13.3637   19.3493 C   0  0  1  0  0  0  0  0  0  0  0  0
    8.1422  -13.7335   18.1347 C   0  0  0  0  0  0  0  0  0  0  0  0
    8.7958  -14.5712   17.1164 C   0  0  0  0  0  0  0  0  0  0  0  0
    8.0321  -15.0588   15.9883 C   0  0  0  0  0  0  0  0  0  0  0  0
    7.2844  -16.0778   16.2156 O   0  0  0  0  0  0  0  0  0  0  0  0
    8.7782  -14.4459   20.3652 C   0  0  0  0  0  0  0  0  0  0  0  0
    7.6244  -14.7805   20.8119 O   0  0  0  0  0  0  0  0  0  0  0  0
    7.9833  -14.5966   14.6955 O   0  0  0  0  0  0  0  0  0  0  0  0
   10.7636  -17.3584   21.5724 C   0  0  0  0  0  0  0  0  0  0  0  0
    9.7178  -16.3124   21.7649 C   0  0  2  0  0  0  0  0  0  0  0  0
    9.8832  -15.1555   20.8911 N   0  0  0  0  0  0  0  0  0  0  0  0
    9.7016  -15.8473   23.1838 C   0  0  0  0  0  0  0  0  0  0  0  0
   10.3629  -14.8465   23.5631 O   0  0  0  0  0  0  0  0  0  0  0  0
    8.9327  -16.5439   24.1115 N   0  0  0  0  0  0  0  0  0  0  0  0
    8.8436  -16.2042   25.5489 C   0  0  1  0  0  0  0  0  0  0  0  0
    7.4047  -15.9229   25.7920 C   0  0  0  0  0  0  0  0  0  0  0  0
    6.9984  -14.5194   25.7776 C   0  0  0  0  0  0  0  0  0  0  0  0
    7.9564  -13.5028   25.6651 C   0  0  0  0  0  0  0  0  0  0  0  0
    7.3124  -12.3255   25.6750 N   0  0  0  0  0  0  0  0  0  0  0  0
    6.0166  -12.5884   25.7880 C   0  0  0  0  0  0  0  0  0  0  0  0
    5.8299  -13.9106   25.8498 N   0  0  0  0  0  0  0  0  0  0  0  0
    9.3786  -17.3416   26.3116 C   0  0  0  0  0  0  0  0  0  0  0  0
    9.5433  -17.2857   27.5540 O   0  0  0  0  0  0  0  0  0  0  0  0
    9.7183  -18.5180   25.6745 O   0  0  0  0  0  0  0  0  0  0  0  0
  2  1  1  6
  2  7  1  0
  3  4  1  0
  3  2  1  0
  4  5  1  0
  5  9  1  0
  6  5  2  0
  7 12  1  0
  7  8  2  0
 11 10  1  1
 11 13  1  0
 12 11  1  0
 13 14  2  0
 15 13  1  0
 15 16  1  0
 16 23  1  0
 16 17  1  1
 17 18  1  0
 18 19  2  0
 18 22  1  0
 19 20  1  0
 20 21  1  0
 22 21  2  0
 23 25  1  0
 24 23  2  0
M  END
$$$$
