EAH.pdb
     RDKit          3D

 25 25  0  0  1  0  0  0  0  0999 V2000
    7.4116  -20.0086   19.3299 N   0  0  0  0  0  0  0  0  0  0  0  0
    6.4039  -19.0306   19.6578 C   0  0  1  0  0  0  0  0  0  0  0  0
    5.5018  -18.7437   18.5160 C   0  0  0  0  0  0  0  0  0  0  0  0
    5.2857  -19.7933   17.5074 C   0  0  0  0  0  0  0  0  0  0  0  0
    4.3754  -19.5572   16.4077 C   0  0  0  0  0  0  0  0  0  0  0  0
    3.2701  -20.2100   16.4447 O   0  0  0  0  0  0  0  0  0  0  0  0
    5.6041  -19.5562   20.7999 C   0  0  0  0  0  0  0  0  0  0  0  0
    4.7458  -18.8089   21.3893 O   0  0  0  0  0  0  0  0  0  0  0  0
    4.5122  -18.7347   15.3159 O   0  0  0  0  0  0  0  0  0  0  0  0
    4.2010  -22.5865   22.1981 C   0  0  0  0  0  0  0  0  0  0  0  0
    4.9824  -21.3427   22.4576 C   0  0  2  0  0  0  0  0  0  0  0  0
    5.7336  -20.8741   21.2977 N   0  0  0  0  0  0  0  0  0  0  0  0
    5.9286  -21.5499   23.5941 C   0  0  0  0  0  0  0  0  0  0  0  0
    5.5706  -22.1055   24.6646 O   0  0  0  0  0  0  0  0  0  0  0  0
    7.2438  -21.1137   23.4629 N   0  0  0  0  0  0  0  0  0  0  0  0
    8.2867  -21.2746   24.5000 C   0  0  1  0  0  0  0  0  0  0  0  0
    9.5667  -20.9574   23.8148 C   0  0  0  0  0  0  0  0  0  0  0  0
   10.0921  -21.9711   22.9029 C   0  0  0  0  0  0  0  0  0  0  0  0
    9.4717  -23.2232   22.7978 C   0  0  0  0  0  0  0  0  0  0  0  0
   10.1530  -23.9473   21.8963 N   0  0  0  0  0  0  0  0  0  0  0  0
   11.1502  -23.1894   21.4576 C   0  0  0  0  0  0  0  0  0  0  0  0
   11.1115  -21.9996   22.0655 N   0  0  0  0  0  0  0  0  0  0  0  0
    7.9532  -20.3743   25.6135 C   0  0  0  0  0  0  0  0  0  0  0  0
    7.2719  -19.3349   25.4422 O   0  0  0  0  0  0  0  0  0  0  0  0
    8.3850  -20.6509   26.8951 O   0  0  0  0  0  0  0  0  0  0  0  0
  2  1  1  6
  2  7  1  0
  3  4  1  0
  3  2  1  0
  4  5  1  0
  5  9  1  0
  6  5  2  0
  7 12  1  0
  7  8  2  0
 11 10  1  6
 11 13  1  0
 12 11  1  0
 13 14  2  0
 15 13  1  0
 15 16  1  0
 16 23  1  0
 16 17  1  6
 17 18  1  0
 18 19  2  0
 18 22  1  0
 19 20  1  0
 20 21  1  0
 22 21  2  0
 23 25  1  0
 24 23  2  0
M  END
$$$$
