EAH.pdb
     RDKit          3D

 25 25  0  0  1  0  0  0  0  0999 V2000
   10.1132  -15.7751   18.1411 N   0  0  0  0  0  0  0  0  0  0  0  0
   10.9179  -16.3092   19.2119 C   0  0  1  0  0  0  0  0  0  0  0  0
   12.0092  -15.3883   19.6124 C   0  0  0  0  0  0  0  0  0  0  0  0
   13.1194  -15.1603   18.6736 C   0  0  0  0  0  0  0  0  0  0  0  0
   14.2037  -14.2764   19.0433 C   0  0  0  0  0  0  0  0  0  0  0  0
   15.2884  -14.8485   19.4244 O   0  0  0  0  0  0  0  0  0  0  0  0
   10.0266  -16.5574   20.3801 C   0  0  0  0  0  0  0  0  0  0  0  0
    9.1906  -15.6632   20.7597 O   0  0  0  0  0  0  0  0  0  0  0  0
   14.2532  -12.9036   19.0518 O   0  0  0  0  0  0  0  0  0  0  0  0
    8.8821  -19.4490   22.5018 C   0  0  0  0  0  0  0  0  0  0  0  0
    9.1107  -18.0013   22.2245 C   0  0  2  0  0  0  0  0  0  0  0  0
   10.0420  -17.7582   21.1277 N   0  0  0  0  0  0  0  0  0  0  0  0
    9.6151  -17.3101   23.4483 C   0  0  0  0  0  0  0  0  0  0  0  0
   10.8093  -16.9283   23.5518 O   0  0  0  0  0  0  0  0  0  0  0  0
    8.7365  -17.0842   24.5039 N   0  0  0  0  0  0  0  0  0  0  0  0
    9.1343  -16.5470   25.8240 C   0  0  1  0  0  0  0  0  0  0  0  0
    7.9042  -15.9201   26.3738 C   0  0  0  0  0  0  0  0  0  0  0  0
    7.5557  -14.5972   25.8605 C   0  0  0  0  0  0  0  0  0  0  0  0
    8.4229  -13.9199   24.9928 C   0  0  0  0  0  0  0  0  0  0  0  0
    7.8583  -12.7433   24.6800 N   0  0  0  0  0  0  0  0  0  0  0  0
    6.6963  -12.6840   25.3183 C   0  0  0  0  0  0  0  0  0  0  0  0
    6.5163  -13.8018   26.0288 N   0  0  0  0  0  0  0  0  0  0  0  0
    9.6569  -17.6651   26.6231 C   0  0  0  0  0  0  0  0  0  0  0  0
    9.4604  -18.8601   26.2961 O   0  0  0  0  0  0  0  0  0  0  0  0
   10.3883  -17.4284   27.7696 O   0  0  0  0  0  0  0  0  0  0  0  0
  2  1  1  6
  2  7  1  0
  3  4  1  0
  3  2  1  0
  4  5  1  0
  5  9  1  0
  6  5  2  0
  7 12  1  0
  7  8  2  0
 11 10  1  1
 11 13  1  0
 12 11  1  0
 13 14  2  0
 15 13  1  0
 15 16  1  0
 16 23  1  0
 16 17  1  1
 17 18  1  0
 18 19  2  0
 18 22  1  0
 19 20  1  0
 20 21  1  0
 22 21  2  0
 23 25  1  0
 24 23  2  0
M  END
$$$$
