EAH.pdb
     RDKit          3D

 25 25  0  0  1  0  0  0  0  0999 V2000
   11.0852  -17.7302   16.8797 N   0  0  0  0  0  0  0  0  0  0  0  0
   10.4636  -18.3650   18.0155 C   0  0  1  0  0  0  0  0  0  0  0  0
   10.6571  -19.8354   18.0173 C   0  0  0  0  0  0  0  0  0  0  0  0
   11.4047  -20.4494   16.9082 C   0  0  0  0  0  0  0  0  0  0  0  0
   11.7673  -21.8487   16.9732 C   0  0  0  0  0  0  0  0  0  0  0  0
   12.8853  -22.1121   17.5474 O   0  0  0  0  0  0  0  0  0  0  0  0
   11.0603  -17.7862   19.2522 C   0  0  0  0  0  0  0  0  0  0  0  0
   12.3191  -17.5545   19.3181 O   0  0  0  0  0  0  0  0  0  0  0  0
   11.0941  -22.9525   16.5088 O   0  0  0  0  0  0  0  0  0  0  0  0
    9.9690  -16.2503   22.5260 C   0  0  0  0  0  0  0  0  0  0  0  0
   10.9229  -16.9568   21.6226 C   0  0  2  0  0  0  0  0  0  0  0  0
   10.3030  -17.4639   20.4028 N   0  0  0  0  0  0  0  0  0  0  0  0
   11.5759  -18.0919   22.3403 C   0  0  0  0  0  0  0  0  0  0  0  0
   11.4650  -19.2808   21.9443 O   0  0  0  0  0  0  0  0  0  0  0  0
   12.3275  -17.8237   23.4806 N   0  0  0  0  0  0  0  0  0  0  0  0
   13.4403  -18.6686   23.9678 C   0  0  1  0  0  0  0  0  0  0  0  0
   14.4421  -18.6606   22.8701 C   0  0  0  0  0  0  0  0  0  0  0  0
   14.3834  -19.7686   21.9194 C   0  0  0  0  0  0  0  0  0  0  0  0
   13.3576  -20.7199   21.9984 C   0  0  0  0  0  0  0  0  0  0  0  0
   13.5447  -21.6119   21.0134 N   0  0  0  0  0  0  0  0  0  0  0  0
   14.6322  -21.2405   20.3496 C   0  0  0  0  0  0  0  0  0  0  0  0
   15.1357  -20.1301   20.8973 N   0  0  0  0  0  0  0  0  0  0  0  0
   13.9191  -18.0924   25.2329 C   0  0  0  0  0  0  0  0  0  0  0  0
   14.2479  -18.8135   26.2053 O   0  0  0  0  0  0  0  0  0  0  0  0
   14.0222  -16.7247   25.3880 O   0  0  0  0  0  0  0  0  0  0  0  0
  2  1  1  6
  2  7  1  0
  3  4  1  0
  3  2  1  0
  4  5  1  0
  5  9  1  0
  6  5  2  0
  7 12  1  0
  7  8  2  0
 11 10  1  1
 11 13  1  0
 12 11  1  0
 13 14  2  0
 15 13  1  0
 15 16  1  0
 16 23  1  0
 16 17  1  6
 17 18  1  0
 18 19  2  0
 18 22  1  0
 19 20  1  0
 20 21  1  0
 22 21  2  0
 23 25  1  0
 24 23  2  0
M  END
$$$$
