EAH.pdb
     RDKit          3D

 25 25  0  0  1  0  0  0  0  0999 V2000
    9.1204  -13.2181   18.1722 N   0  0  0  0  0  0  0  0  0  0  0  0
    9.3546  -14.5947   18.5320 C   0  0  1  0  0  0  0  0  0  0  0  0
   10.7894  -14.8783   18.7786 C   0  0  0  0  0  0  0  0  0  0  0  0
   11.6653  -13.7715   19.1952 C   0  0  0  0  0  0  0  0  0  0  0  0
   13.0506  -14.0340   19.5200 C   0  0  0  0  0  0  0  0  0  0  0  0
   13.9177  -13.5730   18.6925 O   0  0  0  0  0  0  0  0  0  0  0  0
    8.5732  -14.8890   19.7662 C   0  0  0  0  0  0  0  0  0  0  0  0
    8.2749  -13.9490   20.5848 O   0  0  0  0  0  0  0  0  0  0  0  0
   13.5891  -14.7097   20.5881 O   0  0  0  0  0  0  0  0  0  0  0  0
    6.7741  -17.8060   21.3933 C   0  0  0  0  0  0  0  0  0  0  0  0
    7.3979  -16.4518   21.3480 C   0  0  2  0  0  0  0  0  0  0  0  0
    8.1220  -16.1851   20.1095 N   0  0  0  0  0  0  0  0  0  0  0  0
    8.3293  -16.2689   22.5008 C   0  0  0  0  0  0  0  0  0  0  0  0
    9.5765  -16.2138   22.3457 O   0  0  0  0  0  0  0  0  0  0  0  0
    7.7993  -16.1576   23.7830 N   0  0  0  0  0  0  0  0  0  0  0  0
    8.6086  -16.0423   25.0163 C   0  0  1  0  0  0  0  0  0  0  0  0
    7.6969  -15.4388   26.0229 C   0  0  0  0  0  0  0  0  0  0  0  0
    7.4366  -14.0064   25.8978 C   0  0  0  0  0  0  0  0  0  0  0  0
    8.1286  -13.2378   24.9524 C   0  0  0  0  0  0  0  0  0  0  0  0
    7.6951  -11.9716   25.0524 N   0  0  0  0  0  0  0  0  0  0  0  0
    6.7781  -11.9458   26.0114 C   0  0  0  0  0  0  0  0  0  0  0  0
    6.6242  -13.1726   26.5192 N   0  0  0  0  0  0  0  0  0  0  0  0
    9.0918  -17.3872   25.3619 C   0  0  0  0  0  0  0  0  0  0  0  0
    8.6424  -18.4156   24.8013 O   0  0  0  0  0  0  0  0  0  0  0  0
   10.0662  -17.5585   26.3244 O   0  0  0  0  0  0  0  0  0  0  0  0
  2  1  1  1
  2  7  1  0
  3  4  1  0
  3  2  1  0
  4  5  1  0
  5  9  1  0
  6  5  2  0
  7 12  1  0
  7  8  2  0
 11 10  1  6
 11 13  1  0
 12 11  1  0
 13 14  2  0
 15 13  1  0
 15 16  1  0
 16 23  1  0
 16 17  1  1
 17 18  1  0
 18 19  2  0
 18 22  1  0
 19 20  1  0
 20 21  1  0
 22 21  2  0
 23 25  1  0
 24 23  2  0
M  END
$$$$
