EAH.pdb
     RDKit          3D

 25 25  0  0  1  0  0  0  0  0999 V2000
    9.9769  -16.3510   16.2816 N   0  0  0  0  0  0  0  0  0  0  0  0
    9.1310  -16.5679   17.4291 C   0  0  1  0  0  0  0  0  0  0  0  0
    9.5471  -17.7495   18.2229 C   0  0  0  0  0  0  0  0  0  0  0  0
   10.9426  -17.8340   18.6827 C   0  0  0  0  0  0  0  0  0  0  0  0
   11.3543  -18.9299   19.5331 C   0  0  0  0  0  0  0  0  0  0  0  0
   10.4431  -19.7863   19.8248 O   0  0  0  0  0  0  0  0  0  0  0  0
    9.1929  -15.3500   18.2856 C   0  0  0  0  0  0  0  0  0  0  0  0
   10.2403  -14.6113   18.2881 O   0  0  0  0  0  0  0  0  0  0  0  0
   12.5832  -19.1988   20.0852 O   0  0  0  0  0  0  0  0  0  0  0  0
    6.8032  -12.9830   19.8325 C   0  0  0  0  0  0  0  0  0  0  0  0
    8.1390  -13.6461   19.8060 C   0  0  2  0  0  0  0  0  0  0  0  0
    8.1344  -14.9388   19.1292 N   0  0  0  0  0  0  0  0  0  0  0  0
    8.6566  -13.8301   21.1946 C   0  0  0  0  0  0  0  0  0  0  0  0
    8.4586  -12.9758   22.0967 O   0  0  0  0  0  0  0  0  0  0  0  0
    9.3796  -14.9804   21.4964 N   0  0  0  0  0  0  0  0  0  0  0  0
    9.6891  -15.4389   22.8687 C   0  0  1  0  0  0  0  0  0  0  0  0
    8.3805  -15.8400   23.4476 C   0  0  0  0  0  0  0  0  0  0  0  0
    7.6510  -14.8167   24.1933 C   0  0  0  0  0  0  0  0  0  0  0  0
    8.2670  -13.6018   24.5222 C   0  0  0  0  0  0  0  0  0  0  0  0
    7.3773  -12.8569   25.1964 N   0  0  0  0  0  0  0  0  0  0  0  0
    6.2599  -13.5671   25.2868 C   0  0  0  0  0  0  0  0  0  0  0  0
    6.4273  -14.7473   24.6820 N   0  0  0  0  0  0  0  0  0  0  0  0
   10.6690  -16.5302   22.7657 C   0  0  0  0  0  0  0  0  0  0  0  0
   11.5805  -16.6827   23.6140 O   0  0  0  0  0  0  0  0  0  0  0  0
   10.6126  -17.4294   21.7199 O   0  0  0  0  0  0  0  0  0  0  0  0
  2  1  1  6
  2  7  1  0
  3  4  1  0
  3  2  1  0
  4  5  1  0
  5  9  1  0
  6  5  2  0
  7 12  1  0
  7  8  2  0
 11 10  1  1
 11 13  1  0
 12 11  1  0
 13 14  2  0
 15 13  1  0
 15 16  1  0
 16 23  1  0
 16 17  1  6
 17 18  1  0
 18 19  2  0
 18 22  1  0
 19 20  1  0
 20 21  1  0
 22 21  2  0
 23 25  1  0
 24 23  2  0
M  END
$$$$
