EAH.pdb
     RDKit          3D

 25 25  0  0  1  0  0  0  0  0999 V2000
    7.4407  -18.7861   16.3430 N   0  0  0  0  0  0  0  0  0  0  0  0
    8.7635  -18.8331   16.9153 C   0  0  1  0  0  0  0  0  0  0  0  0
    9.6556  -17.7845   16.3638 C   0  0  0  0  0  0  0  0  0  0  0  0
   10.0674  -17.8793   14.9540 C   0  0  0  0  0  0  0  0  0  0  0  0
   11.2373  -18.6524   14.5972 C   0  0  0  0  0  0  0  0  0  0  0  0
   12.3103  -18.3783   15.2473 O   0  0  0  0  0  0  0  0  0  0  0  0
    8.6363  -18.6494   18.3886 C   0  0  0  0  0  0  0  0  0  0  0  0
    7.7749  -17.8304   18.8683 O   0  0  0  0  0  0  0  0  0  0  0  0
   11.3809  -19.6448   13.6582 O   0  0  0  0  0  0  0  0  0  0  0  0
    9.8355  -20.2844   21.5755 C   0  0  0  0  0  0  0  0  0  0  0  0
    9.2635  -19.1680   20.7684 C   0  0  2  0  0  0  0  0  0  0  0  0
    9.4329  -19.3430   19.3296 N   0  0  0  0  0  0  0  0  0  0  0  0
    9.8756  -17.8671   21.1719 C   0  0  0  0  0  0  0  0  0  0  0  0
   10.7875  -17.3235   20.4970 O   0  0  0  0  0  0  0  0  0  0  0  0
    9.4228  -17.2407   22.3294 N   0  0  0  0  0  0  0  0  0  0  0  0
    9.9015  -15.9265   22.8122 C   0  0  1  0  0  0  0  0  0  0  0  0
    8.7000  -15.0518   22.8101 C   0  0  0  0  0  0  0  0  0  0  0  0
    8.3221  -14.4584   21.5294 C   0  0  0  0  0  0  0  0  0  0  0  0
    9.1017  -14.6784   20.3860 C   0  0  0  0  0  0  0  0  0  0  0  0
    8.5283  -14.0256   19.3633 N   0  0  0  0  0  0  0  0  0  0  0  0
    7.4443  -13.4260   19.8394 C   0  0  0  0  0  0  0  0  0  0  0  0
    7.3223  -13.6880   21.1444 N   0  0  0  0  0  0  0  0  0  0  0  0
   10.5043  -16.1292   24.1378 C   0  0  0  0  0  0  0  0  0  0  0  0
   10.2146  -17.1193   24.8515 O   0  0  0  0  0  0  0  0  0  0  0  0
   11.4180  -15.2249   24.6405 O   0  0  0  0  0  0  0  0  0  0  0  0
  2  1  1  6
  2  7  1  0
  3  4  1  0
  3  2  1  0
  4  5  1  0
  5  9  1  0
  6  5  2  0
  7 12  1  0
  7  8  2  0
 11 10  1  1
 11 13  1  0
 12 11  1  0
 13 14  2  0
 15 13  1  0
 15 16  1  0
 16 23  1  0
 16 17  1  1
 17 18  1  0
 18 19  2  0
 18 22  1  0
 19 20  1  0
 20 21  1  0
 22 21  2  0
 23 25  1  0
 24 23  2  0
M  END
$$$$
