EAH.pdb
     RDKit          3D

 25 25  0  0  1  0  0  0  0  0999 V2000
    7.5089  -19.0720   16.5501 N   0  0  0  0  0  0  0  0  0  0  0  0
    8.4537  -19.7419   17.4092 C   0  0  1  0  0  0  0  0  0  0  0  0
    9.8476  -19.6253   16.9161 C   0  0  0  0  0  0  0  0  0  0  0  0
   10.2122  -18.4537   16.1035 C   0  0  0  0  0  0  0  0  0  0  0  0
   11.5102  -18.3961   15.4668 C   0  0  0  0  0  0  0  0  0  0  0  0
   11.7779  -17.3097   14.8366 O   0  0  0  0  0  0  0  0  0  0  0  0
    8.3566  -19.1333   18.7660 C   0  0  0  0  0  0  0  0  0  0  0  0
    7.9824  -17.9155   18.9055 O   0  0  0  0  0  0  0  0  0  0  0  0
   12.5122  -19.3352   15.4296 O   0  0  0  0  0  0  0  0  0  0  0  0
    8.5252  -20.2620   22.3829 C   0  0  0  0  0  0  0  0  0  0  0  0
    8.4130  -19.2675   21.2769 C   0  0  2  0  0  0  0  0  0  0  0  0
    8.6622  -19.8349   19.9558 N   0  0  0  0  0  0  0  0  0  0  0  0
    9.3564  -18.1317   21.5003 C   0  0  0  0  0  0  0  0  0  0  0  0
   10.4725  -18.0709   20.9230 O   0  0  0  0  0  0  0  0  0  0  0  0
    8.9879  -17.1127   22.3739 N   0  0  0  0  0  0  0  0  0  0  0  0
    9.8306  -15.9397   22.6951 C   0  0  1  0  0  0  0  0  0  0  0  0
    8.8973  -14.7832   22.7049 C   0  0  0  0  0  0  0  0  0  0  0  0
    8.5074  -14.2431   21.4043 C   0  0  0  0  0  0  0  0  0  0  0  0
    9.1133  -14.7094   20.2300 C   0  0  0  0  0  0  0  0  0  0  0  0
    8.5694  -14.0507   19.1950 N   0  0  0  0  0  0  0  0  0  0  0  0
    7.6683  -13.2134   19.6931 C   0  0  0  0  0  0  0  0  0  0  0  0
    7.6329  -13.3310   21.0241 N   0  0  0  0  0  0  0  0  0  0  0  0
   10.4892  -16.2010   23.9834 C   0  0  0  0  0  0  0  0  0  0  0  0
   10.1106  -17.1237   24.7444 O   0  0  0  0  0  0  0  0  0  0  0  0
   11.5565  -15.4295   24.3968 O   0  0  0  0  0  0  0  0  0  0  0  0
  2  1  1  6
  2  7  1  0
  3  4  1  0
  3  2  1  0
  4  5  1  0
  5  9  1  0
  6  5  2  0
  7 12  1  0
  7  8  2  0
 11 10  1  1
 11 13  1  0
 12 11  1  0
 13 14  2  0
 15 13  1  0
 15 16  1  0
 16 23  1  0
 16 17  1  1
 17 18  1  0
 18 19  2  0
 18 22  1  0
 19 20  1  0
 20 21  1  0
 22 21  2  0
 23 25  1  0
 24 23  2  0
M  END
$$$$
