EAH.pdb
     RDKit          3D

 25 25  0  0  1  0  0  0  0  0999 V2000
   11.1389  -16.7740   16.6938 N   0  0  0  0  0  0  0  0  0  0  0  0
    9.9526  -16.0170   17.0085 C   0  0  1  0  0  0  0  0  0  0  0  0
    8.8957  -16.1685   15.9791 C   0  0  0  0  0  0  0  0  0  0  0  0
    9.2959  -16.2566   14.5656 C   0  0  0  0  0  0  0  0  0  0  0  0
    8.3162  -16.6118   13.5618 C   0  0  0  0  0  0  0  0  0  0  0  0
    7.5934  -17.6406   13.8229 O   0  0  0  0  0  0  0  0  0  0  0  0
    9.4353  -16.4937   18.3222 C   0  0  0  0  0  0  0  0  0  0  0  0
    8.4046  -15.9454   18.8512 O   0  0  0  0  0  0  0  0  0  0  0  0
    8.0368  -16.0133   12.3572 O   0  0  0  0  0  0  0  0  0  0  0  0
    9.9423  -19.3477   20.7425 C   0  0  0  0  0  0  0  0  0  0  0  0
    9.5242  -17.9685   20.3576 C   0  0  2  0  0  0  0  0  0  0  0  0
   10.0278  -17.5497   19.0536 N   0  0  0  0  0  0  0  0  0  0  0  0
    9.9706  -16.9829   21.3868 C   0  0  0  0  0  0  0  0  0  0  0  0
   11.1061  -16.4430   21.3421 O   0  0  0  0  0  0  0  0  0  0  0  0
    9.1036  -16.6549   22.4250 N   0  0  0  0  0  0  0  0  0  0  0  0
    9.4420  -15.7467   23.5431 C   0  0  1  0  0  0  0  0  0  0  0  0
    8.3325  -14.7592   23.5895 C   0  0  0  0  0  0  0  0  0  0  0  0
    8.3133  -13.7432   22.5395 C   0  0  0  0  0  0  0  0  0  0  0  0
    9.3584  -13.6617   21.6096 C   0  0  0  0  0  0  0  0  0  0  0  0
    9.0848  -12.6528   20.7681 N   0  0  0  0  0  0  0  0  0  0  0  0
    7.9276  -12.1271   21.1496 C   0  0  0  0  0  0  0  0  0  0  0  0
    7.4649  -12.7854   22.2169 N   0  0  0  0  0  0  0  0  0  0  0  0
    9.5804  -16.5641   24.7574 C   0  0  0  0  0  0  0  0  0  0  0  0
    9.1307  -17.7334   24.8221 O   0  0  0  0  0  0  0  0  0  0  0  0
   10.2176  -16.0620   25.8742 O   0  0  0  0  0  0  0  0  0  0  0  0
  2  1  1  6
  2  7  1  0
  3  4  1  0
  3  2  1  0
  4  5  1  0
  5  9  1  0
  6  5  2  0
  7 12  1  0
  7  8  2  0
 11 10  1  1
 11 13  1  0
 12 11  1  0
 13 14  2  0
 15 13  1  0
 15 16  1  0
 16 23  1  0
 16 17  1  1
 17 18  1  0
 18 19  2  0
 18 22  1  0
 19 20  1  0
 20 21  1  0
 22 21  2  0
 23 25  1  0
 24 23  2  0
M  END
$$$$
