EAH.pdb
     RDKit          3D

 25 25  0  0  1  0  0  0  0  0999 V2000
   14.3150  -16.9309   16.9342 N   0  0  0  0  0  0  0  0  0  0  0  0
   14.8783  -15.6039   16.9688 C   0  0  1  0  0  0  0  0  0  0  0  0
   14.8512  -14.9436   15.6411 C   0  0  0  0  0  0  0  0  0  0  0  0
   14.0829  -15.5741   14.5557 C   0  0  0  0  0  0  0  0  0  0  0  0
   14.6636  -15.6868   13.2352 C   0  0  0  0  0  0  0  0  0  0  0  0
   15.1687  -16.8301   12.9405 O   0  0  0  0  0  0  0  0  0  0  0  0
   14.0915  -14.7931   17.9405 C   0  0  0  0  0  0  0  0  0  0  0  0
   14.4447  -13.5932   18.2200 O   0  0  0  0  0  0  0  0  0  0  0  0
   14.7615  -14.7489   12.2362 O   0  0  0  0  0  0  0  0  0  0  0  0
   10.7268  -14.4900   19.3655 C   0  0  0  0  0  0  0  0  0  0  0  0
   12.2041  -14.4702   19.5711 C   0  0  2  0  0  0  0  0  0  0  0  0
   12.9381  -15.2766   18.6014 N   0  0  0  0  0  0  0  0  0  0  0  0
   12.5446  -14.9408   20.9468 C   0  0  0  0  0  0  0  0  0  0  0  0
   11.9513  -14.5018   21.9656 O   0  0  0  0  0  0  0  0  0  0  0  0
   13.5486  -15.8919   21.1033 N   0  0  0  0  0  0  0  0  0  0  0  0
   13.9121  -16.5213   22.3921 C   0  0  1  0  0  0  0  0  0  0  0  0
   14.2665  -17.9240   22.0520 C   0  0  0  0  0  0  0  0  0  0  0  0
   13.1561  -18.8565   21.8715 C   0  0  0  0  0  0  0  0  0  0  0  0
   11.8326  -18.4272   22.0381 C   0  0  0  0  0  0  0  0  0  0  0  0
   11.0267  -19.4761   21.8120 N   0  0  0  0  0  0  0  0  0  0  0  0
   11.8035  -20.5113   21.5187 C   0  0  0  0  0  0  0  0  0  0  0  0
   13.0858  -20.1357   21.5553 N   0  0  0  0  0  0  0  0  0  0  0  0
   15.0120  -15.7405   22.9770 C   0  0  0  0  0  0  0  0  0  0  0  0
   15.5450  -14.7857   22.3622 O   0  0  0  0  0  0  0  0  0  0  0  0
   15.4948  -16.0391   24.2353 O   0  0  0  0  0  0  0  0  0  0  0  0
  2  1  1  6
  2  7  1  0
  3  4  1  0
  3  2  1  0
  4  5  1  0
  5  9  1  0
  6  5  2  0
  7 12  1  0
  7  8  2  0
 11 10  1  6
 11 13  1  0
 12 11  1  0
 13 14  2  0
 15 13  1  0
 15 16  1  0
 16 23  1  0
 16 17  1  6
 17 18  1  0
 18 19  2  0
 18 22  1  0
 19 20  1  0
 20 21  1  0
 22 21  2  0
 23 25  1  0
 24 23  2  0
M  END
$$$$
