EAH.pdb
     RDKit          3D

 25 25  0  0  1  0  0  0  0  0999 V2000
   10.8460  -16.6336   18.0626 N   0  0  0  0  0  0  0  0  0  0  0  0
    9.8599  -17.2607   18.9074 C   0  0  1  0  0  0  0  0  0  0  0  0
   10.2903  -18.5985   19.3816 C   0  0  0  0  0  0  0  0  0  0  0  0
   11.5593  -19.1496   18.8798 C   0  0  0  0  0  0  0  0  0  0  0  0
   12.5058  -19.7333   19.8056 C   0  0  0  0  0  0  0  0  0  0  0  0
   12.3635  -20.9885   20.0361 O   0  0  0  0  0  0  0  0  0  0  0  0
    9.6243  -16.3725   20.0804 C   0  0  0  0  0  0  0  0  0  0  0  0
   10.5983  -15.7364   20.6185 O   0  0  0  0  0  0  0  0  0  0  0  0
   13.5445  -19.1457   20.4862 O   0  0  0  0  0  0  0  0  0  0  0  0
    6.7514  -15.3414   22.3479 C   0  0  0  0  0  0  0  0  0  0  0  0
    8.1625  -15.3710   21.8653 C   0  0  2  0  0  0  0  0  0  0  0  0
    8.3504  -16.1771   20.6636 N   0  0  0  0  0  0  0  0  0  0  0  0
    9.0684  -15.8829   22.9365 C   0  0  0  0  0  0  0  0  0  0  0  0
   10.3200  -15.7901   22.8494 O   0  0  0  0  0  0  0  0  0  0  0  0
    8.5089  -16.4806   24.0621 N   0  0  0  0  0  0  0  0  0  0  0  0
    9.0466  -16.3492   25.4344 C   0  0  1  0  0  0  0  0  0  0  0  0
    9.0234  -14.8913   25.7216 C   0  0  0  0  0  0  0  0  0  0  0  0
    9.4731  -14.4762   27.0485 C   0  0  0  0  0  0  0  0  0  0  0  0
    9.9577  -15.4210   27.9629 C   0  0  0  0  0  0  0  0  0  0  0  0
   10.2990  -14.7712   29.0864 N   0  0  0  0  0  0  0  0  0  0  0  0
   10.0420  -13.4843   28.8884 C   0  0  0  0  0  0  0  0  0  0  0  0
    9.5444  -13.3092   27.6602 N   0  0  0  0  0  0  0  0  0  0  0  0
    8.2021  -17.1584   26.3253 C   0  0  0  0  0  0  0  0  0  0  0  0
    6.9500  -17.1345   26.2514 O   0  0  0  0  0  0  0  0  0  0  0  0
    8.7701  -17.9781   27.2796 O   0  0  0  0  0  0  0  0  0  0  0  0
  2  1  1  6
  2  7  1  0
  3  4  1  0
  3  2  1  0
  4  5  1  0
  5  9  1  0
  6  5  2  0
  7 12  1  0
  7  8  2  0
 11 10  1  1
 11 13  1  0
 12 11  1  0
 13 14  2  0
 15 13  1  0
 15 16  1  0
 16 23  1  0
 16 17  1  1
 17 18  1  0
 18 19  2  0
 18 22  1  0
 19 20  1  0
 20 21  1  0
 22 21  2  0
 23 25  1  0
 24 23  2  0
M  END
$$$$
