EAH.pdb
     RDKit          3D

 25 25  0  0  1  0  0  0  0  0999 V2000
   12.0617  -15.5777   16.2802 N   0  0  0  0  0  0  0  0  0  0  0  0
   12.5697  -16.5531   17.2129 C   0  0  1  0  0  0  0  0  0  0  0  0
   13.8779  -16.1570   17.7885 C   0  0  0  0  0  0  0  0  0  0  0  0
   14.2443  -14.7317   17.7913 C   0  0  0  0  0  0  0  0  0  0  0  0
   15.5277  -14.3203   18.3179 C   0  0  0  0  0  0  0  0  0  0  0  0
   16.2636  -13.6286   17.5247 O   0  0  0  0  0  0  0  0  0  0  0  0
   11.5729  -16.7065   18.3098 C   0  0  0  0  0  0  0  0  0  0  0  0
   10.7396  -15.7668   18.5653 O   0  0  0  0  0  0  0  0  0  0  0  0
   16.0890  -14.5590   19.5489 O   0  0  0  0  0  0  0  0  0  0  0  0
   10.3870  -19.3983   20.7128 C   0  0  0  0  0  0  0  0  0  0  0  0
   10.4216  -18.0349   20.1086 C   0  0  2  0  0  0  0  0  0  0  0  0
   11.4810  -17.8625   19.1201 N   0  0  0  0  0  0  0  0  0  0  0  0
   10.5798  -16.9982   21.1717 C   0  0  0  0  0  0  0  0  0  0  0  0
   11.7057  -16.5305   21.4821 O   0  0  0  0  0  0  0  0  0  0  0  0
    9.4472  -16.5389   21.8376 N   0  0  0  0  0  0  0  0  0  0  0  0
    9.4722  -15.6129   22.9914 C   0  0  1  0  0  0  0  0  0  0  0  0
    8.2706  -14.7543   22.8252 C   0  0  0  0  0  0  0  0  0  0  0  0
    8.2697  -13.8397   21.6856 C   0  0  0  0  0  0  0  0  0  0  0  0
    9.4263  -13.6632   20.9144 C   0  0  0  0  0  0  0  0  0  0  0  0
    9.1446  -12.7805   19.9436 N   0  0  0  0  0  0  0  0  0  0  0  0
    7.8765  -12.4206   20.0968 C   0  0  0  0  0  0  0  0  0  0  0  0
    7.3517  -13.0598   21.1469 N   0  0  0  0  0  0  0  0  0  0  0  0
    9.4750  -16.4250   24.2171 C   0  0  0  0  0  0  0  0  0  0  0  0
    9.5571  -15.9040   25.3553 O   0  0  0  0  0  0  0  0  0  0  0  0
    9.3856  -17.8007   24.1492 O   0  0  0  0  0  0  0  0  0  0  0  0
  2  1  1  6
  2  7  1  0
  3  4  1  0
  3  2  1  0
  4  5  1  0
  5  9  1  0
  6  5  2  0
  7 12  1  0
  7  8  2  0
 11 10  1  1
 11 13  1  0
 12 11  1  0
 13 14  2  0
 15 13  1  0
 15 16  1  0
 16 23  1  0
 16 17  1  1
 17 18  1  0
 18 19  2  0
 18 22  1  0
 19 20  1  0
 20 21  1  0
 22 21  2  0
 23 25  1  0
 24 23  2  0
M  END
$$$$
