KRI.pdb
     RDKit          3D

 29 28  0  0  1  0  0  0  0  0999 V2000
   28.9881  -21.8924  -12.6649 N   0  0  0  0  0  0  0  0  0  0  0  0
   28.2049  -21.3829  -11.5853 C   0  0  1  0  0  0  0  0  0  0  0  0
   28.9948  -20.4652  -10.7325 C   0  0  0  0  0  0  0  0  0  0  0  0
   30.4578  -20.6754  -10.6815 C   0  0  0  0  0  0  0  0  0  0  0  0
   30.9521  -22.0020  -10.2476 C   0  0  0  0  0  0  0  0  0  0  0  0
   32.4892  -22.0635  -10.2531 C   0  0  0  0  0  0  0  0  0  0  0  0
   32.8745  -23.4053   -9.9225 N   0  0  0  0  0  0  0  0  0  0  0  0
   26.9025  -20.8226  -12.0291 C   0  0  0  0  0  0  0  0  0  0  0  0
   26.1621  -20.1779  -11.2247 O   0  0  0  0  0  0  0  0  0  0  0  0
   21.0625  -21.1069  -16.9682 N   0  0  0  0  0  0  0  0  0  0  0  0
   21.1433  -19.8163  -17.6153 C   0  0  0  0  0  0  0  0  0  0  0  0
   20.0784  -19.2373  -18.0583 N   0  0  0  0  0  0  0  0  0  0  0  0
   22.4060  -19.1868  -17.7609 N   0  0  0  0  0  0  0  0  0  0  0  0
   23.6342  -19.7439  -17.2403 C   0  0  0  0  0  0  0  0  0  0  0  0
   23.6180  -19.8707  -15.7311 C   0  0  0  0  0  0  0  0  0  0  0  0
   24.9658  -20.3037  -15.2755 C   0  0  0  0  0  0  0  0  0  0  0  0
   25.1219  -20.5055  -13.8122 C   0  0  2  0  0  0  0  0  0  0  0  0
   26.3975  -20.9603  -13.3485 N   0  0  0  0  0  0  0  0  0  0  0  0
   23.9816  -21.1639  -13.1585 C   0  0  0  0  0  0  0  0  0  0  0  0
   23.8031  -22.3809  -13.2785 O   0  0  0  0  0  0  0  0  0  0  0  0
   20.1661  -18.3202  -18.5133 C   0  0  0  0  0  0  0  0  0  0  0  0
   21.2846  -21.0802   -7.8326 C   0  0  0  0  0  0  0  0  0  0  0  0
   21.0621  -21.4234   -9.2845 C   0  0  2  0  0  0  0  0  0  0  0  0
   22.0495  -20.7781  -10.1717 C   0  0  0  0  0  0  0  0  0  0  0  0
   21.9685  -19.2647   -9.9738 C   0  0  2  0  0  0  0  0  0  0  0  0
   21.9828  -21.0401  -11.6189 N   0  0  0  0  0  0  0  0  0  0  0  0
   23.0750  -20.4234  -12.3912 C   0  0  0  0  0  0  0  0  0  0  0  0
   20.6830  -20.7531  -12.2787 O   0  0  0  0  0  0  0  0  0  0  0  0
   19.6012  -21.6138  -12.2319 O   0  0  0  0  0  0  0  0  0  0  0  0
  2  1  1  6
  2  8  1  0
  3  4  1  0
  3  2  1  0
  5  6  1  0
  5  4  1  0
  7  6  1  0
  8 18  1  0
  8  9  2  0
 11 13  1  0
 11 10  1  0
 12 11  2  0
 14 15  1  0
 14 13  1  0
 17 16  1  6
 16 15  1  0
 17 19  1  0
 18 17  1  0
 19 20  2  0
 21 22  1  0
 22 23  1  0
 23 25  1  0
 23 24  1  6
 25 27  1  0
 25 26  1  6
 26 19  1  0
 27 29  2  0
 27 28  1  0
M  END
$$$$
