KRI.pdb
     RDKit          3D

 29 28  0  0  1  0  0  0  0  0999 V2000
   22.1219  -18.2207  -17.6646 N   0  0  0  0  0  0  0  0  0  0  0  0
   23.3641  -17.9773  -17.0041 C   0  0  1  0  0  0  0  0  0  0  0  0
   23.7309  -16.5434  -17.0571 C   0  0  0  0  0  0  0  0  0  0  0  0
   23.2084  -15.7499  -18.1905 C   0  0  0  0  0  0  0  0  0  0  0  0
   22.0597  -14.8511  -17.9352 C   0  0  0  0  0  0  0  0  0  0  0  0
   21.7028  -14.0201  -19.1796 C   0  0  0  0  0  0  0  0  0  0  0  0
   20.7381  -14.7619  -19.9393 N   0  0  0  0  0  0  0  0  0  0  0  0
   23.4191  -18.5638  -15.6402 C   0  0  0  0  0  0  0  0  0  0  0  0
   24.4425  -18.4105  -14.9055 O   0  0  0  0  0  0  0  0  0  0  0  0
   18.1957  -23.2184  -10.6288 N   0  0  0  0  0  0  0  0  0  0  0  0
   19.2075  -22.8833   -9.6516 C   0  0  0  0  0  0  0  0  0  0  0  0
   19.2754  -23.5228   -8.5326 N   0  0  0  0  0  0  0  0  0  0  0  0
   20.1298  -21.8427   -9.9312 N   0  0  0  0  0  0  0  0  0  0  0  0
   20.0848  -21.0462  -11.1368 C   0  0  0  0  0  0  0  0  0  0  0  0
   21.1908  -21.4035  -12.1080 C   0  0  0  0  0  0  0  0  0  0  0  0
   21.0876  -20.5136  -13.2949 C   0  0  0  0  0  0  0  0  0  0  0  0
   22.3594  -19.9036  -13.7608 C   0  0  2  0  0  0  0  0  0  0  0  0
   22.3631  -19.3203  -15.0680 N   0  0  0  0  0  0  0  0  0  0  0  0
   23.5643  -20.6888  -13.4559 C   0  0  0  0  0  0  0  0  0  0  0  0
   23.7614  -21.7789  -14.0040 O   0  0  0  0  0  0  0  0  0  0  0  0
   20.0693  -23.3415   -7.9060 C   0  0  0  0  0  0  0  0  0  0  0  0
   29.4416  -20.3686  -12.8070 C   0  0  0  0  0  0  0  0  0  0  0  0
   28.2296  -21.1199  -12.3151 C   0  0  2  0  0  0  0  0  0  0  0  0
   26.9698  -20.4130  -12.6177 C   0  0  0  0  0  0  0  0  0  0  0  0
   27.0649  -18.9891  -12.0703 C   0  0  2  0  0  0  0  0  0  0  0  0
   25.7006  -20.9871  -12.1414 N   0  0  0  0  0  0  0  0  0  0  0  0
   24.5083  -20.2176  -12.5363 C   0  0  0  0  0  0  0  0  0  0  0  0
   25.6282  -21.3084  -10.6927 O   0  0  0  0  0  0  0  0  0  0  0  0
   26.3404  -22.3393  -10.1070 O   0  0  0  0  0  0  0  0  0  0  0  0
  2  1  1  1
  2  8  1  0
  3  4  1  0
  3  2  1  0
  5  6  1  0
  5  4  1  0
  7  6  1  0
  8 18  1  0
  8  9  2  0
 11 13  1  0
 11 10  1  0
 12 11  2  0
 14 15  1  0
 14 13  1  0
 17 16  1  6
 16 15  1  0
 17 19  1  0
 18 17  1  0
 19 20  2  0
 21 22  1  0
 22 23  1  0
 23 25  1  0
 23 24  1  6
 25 27  1  0
 25 26  1  1
 26 19  1  0
 27 29  2  0
 27 28  1  0
M  END
$$$$
