KRI.pdb
     RDKit          3D

 29 28  0  0  1  0  0  0  0  0999 V2000
   18.8855  -25.5183  -19.6614 N   0  0  0  0  0  0  0  0  0  0  0  0
   19.0022  -24.3739  -18.8156 C   0  0  1  0  0  0  0  0  0  0  0  0
   17.7269  -23.6242  -18.7442 C   0  0  0  0  0  0  0  0  0  0  0  0
   17.6823  -22.2960  -19.3930 C   0  0  0  0  0  0  0  0  0  0  0  0
   16.7092  -22.0938  -20.4906 C   0  0  0  0  0  0  0  0  0  0  0  0
   16.8157  -20.6809  -21.0893 C   0  0  0  0  0  0  0  0  0  0  0  0
   15.9368  -20.6180  -22.2215 N   0  0  0  0  0  0  0  0  0  0  0  0
   19.5898  -24.6923  -17.4888 C   0  0  0  0  0  0  0  0  0  0  0  0
   19.3459  -25.7984  -16.9163 O   0  0  0  0  0  0  0  0  0  0  0  0
   24.7658  -25.5250  -15.7537 N   0  0  0  0  0  0  0  0  0  0  0  0
   25.4827  -24.3601  -15.2846 C   0  0  0  0  0  0  0  0  0  0  0  0
   26.3332  -23.7620  -16.0491 N   0  0  0  0  0  0  0  0  0  0  0  0
   25.2443  -23.8757  -13.9730 N   0  0  0  0  0  0  0  0  0  0  0  0
   24.1492  -22.9923  -13.6410 C   0  0  0  0  0  0  0  0  0  0  0  0
   22.8001  -23.6675  -13.7747 C   0  0  0  0  0  0  0  0  0  0  0  0
   22.2426  -23.3549  -15.1174 C   0  0  0  0  0  0  0  0  0  0  0  0
   20.9593  -24.0210  -15.4580 C   0  0  2  0  0  0  0  0  0  0  0  0
   20.4447  -23.8106  -16.7771 N   0  0  0  0  0  0  0  0  0  0  0  0
   19.9370  -23.9591  -14.4034 C   0  0  0  0  0  0  0  0  0  0  0  0
   19.1773  -22.9880  -14.3184 O   0  0  0  0  0  0  0  0  0  0  0  0
   26.8651  -22.9679  -15.6720 C   0  0  0  0  0  0  0  0  0  0  0  0
   17.3056  -27.7975  -10.2677 C   0  0  0  0  0  0  0  0  0  0  0  0
   17.5102  -26.3787  -10.7369 C   0  0  2  0  0  0  0  0  0  0  0  0
   18.5749  -26.2714  -11.7534 C   0  0  0  0  0  0  0  0  0  0  0  0
   19.8776  -26.8006  -11.1541 C   0  0  2  0  0  0  0  0  0  0  0  0
   18.8622  -24.9546  -12.3456 N   0  0  0  0  0  0  0  0  0  0  0  0
   19.8082  -24.9975  -13.4738 C   0  0  0  0  0  0  0  0  0  0  0  0
   19.2651  -23.8829  -11.3988 O   0  0  0  0  0  0  0  0  0  0  0  0
   18.3894  -23.2864  -10.5096 O   0  0  0  0  0  0  0  0  0  0  0  0
  2  1  1  1
  2  8  1  0
  3  4  1  0
  3  2  1  0
  5  6  1  0
  5  4  1  0
  7  6  1  0
  8 18  1  0
  8  9  2  0
 11 13  1  0
 11 10  1  0
 12 11  2  0
 14 15  1  0
 14 13  1  0
 17 16  1  1
 16 15  1  0
 17 19  1  0
 18 17  1  0
 19 20  2  0
 21 22  1  0
 22 23  1  0
 23 25  1  0
 23 24  1  6
 25 27  1  0
 25 26  1  1
 26 19  1  0
 27 29  2  0
 27 28  1  0
M  END
$$$$
