KRI.pdb
     RDKit          3D

 29 28  0  0  1  0  0  0  0  0999 V2000
   28.2935  -20.8062  -17.6305 N   0  0  0  0  0  0  0  0  0  0  0  0
   26.8755  -20.9539  -17.5542 C   0  0  1  0  0  0  0  0  0  0  0  0
   26.3750  -21.8925  -18.5847 C   0  0  0  0  0  0  0  0  0  0  0  0
   27.1555  -23.1273  -18.8156 C   0  0  0  0  0  0  0  0  0  0  0  0
   27.6286  -23.4002  -20.1919 C   0  0  0  0  0  0  0  0  0  0  0  0
   29.0658  -22.8959  -20.4075 C   0  0  0  0  0  0  0  0  0  0  0  0
   29.4184  -23.1506  -21.7747 N   0  0  0  0  0  0  0  0  0  0  0  0
   26.3981  -21.2563  -16.1803 C   0  0  0  0  0  0  0  0  0  0  0  0
   25.2556  -21.7739  -15.9863 O   0  0  0  0  0  0  0  0  0  0  0  0
   30.8165  -21.1945   -8.6408 N   0  0  0  0  0  0  0  0  0  0  0  0
   30.7738  -21.8078   -9.9496 C   0  0  0  0  0  0  0  0  0  0  0  0
   31.8115  -22.4096  -10.4257 N   0  0  0  0  0  0  0  0  0  0  0  0
   29.5788  -21.7443  -10.7109 N   0  0  0  0  0  0  0  0  0  0  0  0
   28.3695  -21.1097  -10.2368 C   0  0  0  0  0  0  0  0  0  0  0  0
   27.2140  -21.2721  -11.2024 C   0  0  0  0  0  0  0  0  0  0  0  0
   27.7117  -21.0372  -12.5839 C   0  0  0  0  0  0  0  0  0  0  0  0
   26.6923  -21.1108  -13.6618 C   0  0  2  0  0  0  0  0  0  0  0  0
   27.1590  -20.9975  -15.0103 N   0  0  0  0  0  0  0  0  0  0  0  0
   25.4597  -20.3560  -13.3932 C   0  0  0  0  0  0  0  0  0  0  0  0
   25.4770  -19.1217  -13.3334 O   0  0  0  0  0  0  0  0  0  0  0  0
   31.7648  -22.8016  -11.3743 C   0  0  0  0  0  0  0  0  0  0  0  0
   20.2845  -19.1774  -15.5059 C   0  0  0  0  0  0  0  0  0  0  0  0
   20.9115  -19.3809  -14.1492 C   0  0  2  0  0  0  0  0  0  0  0  0
   22.1934  -20.1083  -14.2264 C   0  0  0  0  0  0  0  0  0  0  0  0
   21.9399  -21.4799  -14.8514 C   0  0  2  0  0  0  0  0  0  0  0  0
   22.9661  -20.3200  -12.9913 N   0  0  0  0  0  0  0  0  0  0  0  0
   24.2446  -21.0221  -13.1963 C   0  0  0  0  0  0  0  0  0  0  0  0
   22.2339  -20.9402  -11.8572 O   0  0  0  0  0  0  0  0  0  0  0  0
   21.3064  -20.2599  -11.0891 O   0  0  0  0  0  0  0  0  0  0  0  0
  2  1  1  1
  2  8  1  0
  3  4  1  0
  3  2  1  0
  5  6  1  0
  5  4  1  0
  7  6  1  0
  8 18  1  0
  8  9  2  0
 11 13  1  0
 11 10  1  0
 12 11  2  0
 14 15  1  0
 14 13  1  0
 17 16  1  1
 16 15  1  0
 17 19  1  0
 18 17  1  0
 19 20  2  0
 21 22  1  0
 22 23  1  0
 23 25  1  0
 23 24  1  6
 25 27  1  0
 25 26  1  1
 26 19  1  0
 27 29  2  0
 27 28  1  0
M  END
$$$$
