KRI.pdb
     RDKit          3D

 29 28  0  0  1  0  0  0  0  0999 V2000
   16.9486  -14.1698  -15.4353 N   0  0  0  0  0  0  0  0  0  0  0  0
   17.7860  -13.4650  -16.3521 C   0  0  1  0  0  0  0  0  0  0  0  0
   17.3714  -13.7035  -17.7537 C   0  0  0  0  0  0  0  0  0  0  0  0
   16.7118  -14.9919  -18.0574 C   0  0  0  0  0  0  0  0  0  0  0  0
   16.2993  -15.2459  -19.4566 C   0  0  0  0  0  0  0  0  0  0  0  0
   15.6742  -16.6420  -19.6186 C   0  0  0  0  0  0  0  0  0  0  0  0
   15.7867  -17.3207  -18.3596 N   0  0  0  0  0  0  0  0  0  0  0  0
   17.9434  -12.0289  -16.0058 C   0  0  0  0  0  0  0  0  0  0  0  0
   18.8820  -11.3367  -16.5065 O   0  0  0  0  0  0  0  0  0  0  0  0
   13.1912  -11.2979  -11.2129 N   0  0  0  0  0  0  0  0  0  0  0  0
   13.3169   -9.8860  -10.9269 C   0  0  0  0  0  0  0  0  0  0  0  0
   13.1635   -9.4446   -9.7238 N   0  0  0  0  0  0  0  0  0  0  0  0
   13.6115   -8.9842  -11.9813 N   0  0  0  0  0  0  0  0  0  0  0  0
   13.6589   -9.3783  -13.3714 C   0  0  0  0  0  0  0  0  0  0  0  0
   14.8935  -10.1915  -13.7006 C   0  0  0  0  0  0  0  0  0  0  0  0
   15.9023   -9.2940  -14.3236 C   0  0  0  0  0  0  0  0  0  0  0  0
   17.1546   -9.9467  -14.7842 C   0  0  2  0  0  0  0  0  0  0  0  0
   17.0826  -11.3378  -15.1135 N   0  0  0  0  0  0  0  0  0  0  0  0
   18.3557   -9.5769  -14.0215 C   0  0  0  0  0  0  0  0  0  0  0  0
   18.5058   -9.9619  -12.8567 O   0  0  0  0  0  0  0  0  0  0  0  0
   13.2234   -8.4327   -9.5562 C   0  0  0  0  0  0  0  0  0  0  0  0
   23.9115  -10.5287  -13.8585 C   0  0  0  0  0  0  0  0  0  0  0  0
   22.9786   -9.3921  -13.5225 C   0  0  2  0  0  0  0  0  0  0  0  0
   21.6687   -9.5248  -14.1895 C   0  0  0  0  0  0  0  0  0  0  0  0
   21.8947   -9.5996  -15.6993 C   0  0  2  0  0  0  0  0  0  0  0  0
   20.6397   -8.5006  -13.9455 N   0  0  0  0  0  0  0  0  0  0  0  0
   19.3495   -8.7786  -14.5995 C   0  0  0  0  0  0  0  0  0  0  0  0
   21.0384   -7.0939  -14.2091 O   0  0  0  0  0  0  0  0  0  0  0  0
   20.3790   -6.2730  -15.1060 O   0  0  0  0  0  0  0  0  0  0  0  0
  2  1  1  1
  2  8  1  0
  3  4  1  0
  3  2  1  0
  5  6  1  0
  5  4  1  0
  7  6  1  0
  8 18  1  0
  8  9  2  0
 11 13  1  0
 11 10  1  0
 12 11  2  0
 14 15  1  0
 14 13  1  0
 17 16  1  1
 16 15  1  0
 17 19  1  0
 18 17  1  0
 19 20  2  0
 21 22  1  0
 22 23  1  0
 23 25  1  0
 23 24  1  1
 25 27  1  0
 25 26  1  6
 26 19  1  0
 27 29  2  0
 27 28  1  0
M  END
$$$$
