KRI.pdb
     RDKit          3D

 29 28  0  0  1  0  0  0  0  0999 V2000
   25.9543  -22.4127  -17.7487 N   0  0  0  0  0  0  0  0  0  0  0  0
   26.1569  -21.2119  -17.0035 C   0  0  1  0  0  0  0  0  0  0  0  0
   25.1295  -20.1959  -17.3285 C   0  0  0  0  0  0  0  0  0  0  0  0
   24.8138  -19.9818  -18.7574 C   0  0  0  0  0  0  0  0  0  0  0  0
   23.8994  -18.8705  -19.1056 C   0  0  0  0  0  0  0  0  0  0  0  0
   23.6444  -18.7999  -20.6210 C   0  0  0  0  0  0  0  0  0  0  0  0
   22.6879  -17.7568  -20.8556 N   0  0  0  0  0  0  0  0  0  0  0  0
   26.3247  -21.4555  -15.5476 C   0  0  0  0  0  0  0  0  0  0  0  0
   25.4243  -22.0483  -14.8778 O   0  0  0  0  0  0  0  0  0  0  0  0
   33.4365  -21.3495  -10.4097 N   0  0  0  0  0  0  0  0  0  0  0  0
   32.5483  -22.4891  -10.4667 C   0  0  0  0  0  0  0  0  0  0  0  0
   32.9823  -23.6729  -10.1911 N   0  0  0  0  0  0  0  0  0  0  0  0
   31.1904  -22.2978  -10.8289 N   0  0  0  0  0  0  0  0  0  0  0  0
   30.5923  -20.9930  -11.0016 C   0  0  0  0  0  0  0  0  0  0  0  0
   29.1252  -21.0731  -11.3690 C   0  0  0  0  0  0  0  0  0  0  0  0
   29.0019  -21.0198  -12.8500 C   0  0  0  0  0  0  0  0  0  0  0  0
   27.6217  -21.1199  -13.3900 C   0  0  2  0  0  0  0  0  0  0  0  0
   27.4710  -21.0559  -14.8120 N   0  0  0  0  0  0  0  0  0  0  0  0
   26.6154  -20.3453  -12.6493 C   0  0  0  0  0  0  0  0  0  0  0  0
   26.5377  -19.1195  -12.7861 O   0  0  0  0  0  0  0  0  0  0  0  0
   32.3506  -24.4735  -10.3159 C   0  0  0  0  0  0  0  0  0  0  0  0
   20.9836  -19.7142  -11.2396 C   0  0  0  0  0  0  0  0  0  0  0  0
   22.3588  -19.5458  -10.6432 C   0  0  2  0  0  0  0  0  0  0  0  0
   23.3819  -20.3316  -11.3601 C   0  0  0  0  0  0  0  0  0  0  0  0
   22.9748  -21.8046  -11.3321 C   0  0  2  0  0  0  0  0  0  0  0  0
   24.7825  -20.2502  -10.9138 N   0  0  0  0  0  0  0  0  0  0  0  0
   25.7294  -20.9820  -11.7727 C   0  0  0  0  0  0  0  0  0  0  0  0
   25.0384  -20.5884   -9.4900 O   0  0  0  0  0  0  0  0  0  0  0  0
   25.7268  -21.7195   -9.0900 O   0  0  0  0  0  0  0  0  0  0  0  0
  2  1  1  6
  2  8  1  0
  3  4  1  0
  3  2  1  0
  5  6  1  0
  5  4  1  0
  7  6  1  0
  8 18  1  0
  8  9  2  0
 11 13  1  0
 11 10  1  0
 12 11  2  0
 14 15  1  0
 14 13  1  0
 17 16  1  6
 16 15  1  0
 17 19  1  0
 18 17  1  0
 19 20  2  0
 21 22  1  0
 22 23  1  0
 23 25  1  0
 23 24  1  6
 25 27  1  0
 25 26  1  1
 26 19  1  0
 27 29  2  0
 27 28  1  0
M  END
$$$$
