KRI.pdb
     RDKit          3D

 29 28  0  0  1  0  0  0  0  0999 V2000
   17.2199  -22.9265  -13.6859 N   0  0  0  0  0  0  0  0  0  0  0  0
   18.4582  -23.3150  -13.0909 C   0  0  1  0  0  0  0  0  0  0  0  0
   19.3353  -22.1445  -12.8585 C   0  0  0  0  0  0  0  0  0  0  0  0
   20.3217  -21.8151  -13.9101 C   0  0  0  0  0  0  0  0  0  0  0  0
   21.3339  -20.7771  -13.6094 C   0  0  0  0  0  0  0  0  0  0  0  0
   22.2294  -20.4893  -14.8267 C   0  0  0  0  0  0  0  0  0  0  0  0
   23.1388  -19.4412  -14.4628 N   0  0  0  0  0  0  0  0  0  0  0  0
   18.2802  -24.1815  -11.8973 C   0  0  0  0  0  0  0  0  0  0  0  0
   17.3349  -23.9741  -11.0762 O   0  0  0  0  0  0  0  0  0  0  0  0
   22.2149  -31.7730  -10.2174 N   0  0  0  0  0  0  0  0  0  0  0  0
   21.2623  -31.2291  -11.1595 C   0  0  0  0  0  0  0  0  0  0  0  0
   21.0925  -31.7821  -12.3132 N   0  0  0  0  0  0  0  0  0  0  0  0
   20.5114  -30.0787  -10.8067 N   0  0  0  0  0  0  0  0  0  0  0  0
   20.5130  -29.5075   -9.4787 C   0  0  0  0  0  0  0  0  0  0  0  0
   19.5573  -28.3396   -9.3499 C   0  0  0  0  0  0  0  0  0  0  0  0
   19.8007  -27.3993  -10.4759 C   0  0  0  0  0  0  0  0  0  0  0  0
   19.0009  -26.1476  -10.4601 C   0  0  2  0  0  0  0  0  0  0  0  0
   19.1284  -25.2773  -11.5894 N   0  0  0  0  0  0  0  0  0  0  0  0
   18.9833  -25.4471   -9.1678 C   0  0  0  0  0  0  0  0  0  0  0  0
   19.8356  -24.5922   -8.9027 O   0  0  0  0  0  0  0  0  0  0  0  0
   20.4079  -31.3743  -12.9619 C   0  0  0  0  0  0  0  0  0  0  0  0
   14.6615  -23.2317   -5.5696 C   0  0  0  0  0  0  0  0  0  0  0  0
   16.1075  -23.6598   -5.6050 C   0  0  2  0  0  0  0  0  0  0  0  0
   16.4302  -24.4486   -6.8100 C   0  0  0  0  0  0  0  0  0  0  0  0
   15.4995  -25.6597   -6.8648 C   0  0  2  0  0  0  0  0  0  0  0  0
   17.8066  -24.9386   -6.9912 N   0  0  0  0  0  0  0  0  0  0  0  0
   18.0029  -25.7385   -8.2124 C   0  0  0  0  0  0  0  0  0  0  0  0
   18.4100  -25.6446   -5.8315 O   0  0  0  0  0  0  0  0  0  0  0  0
   18.7582  -26.9830   -5.8546 O   0  0  0  0  0  0  0  0  0  0  0  0
  2  1  1  1
  2  8  1  0
  3  4  1  0
  3  2  1  0
  5  6  1  0
  5  4  1  0
  7  6  1  0
  8 18  1  0
  8  9  2  0
 11 13  1  0
 11 10  1  0
 12 11  2  0
 14 15  1  0
 14 13  1  0
 17 16  1  1
 16 15  1  0
 17 19  1  0
 18 17  1  0
 19 20  2  0
 21 22  1  0
 22 23  1  0
 23 25  1  0
 23 24  1  6
 25 27  1  0
 25 26  1  1
 26 19  1  0
 27 29  2  0
 27 28  1  0
M  END
$$$$
