KRI.pdb
     RDKit          3D

 29 28  0  0  1  0  0  0  0  0999 V2000
   19.5365  -22.5091  -15.8246 N   0  0  0  0  0  0  0  0  0  0  0  0
   19.8444  -22.6215  -14.4350 C   0  0  1  0  0  0  0  0  0  0  0  0
   18.9886  -23.6331  -13.7734 C   0  0  0  0  0  0  0  0  0  0  0  0
   17.5255  -23.4240  -13.8252 C   0  0  0  0  0  0  0  0  0  0  0  0
   16.9512  -22.3400  -12.9960 C   0  0  0  0  0  0  0  0  0  0  0  0
   15.4134  -22.3512  -13.0345 C   0  0  0  0  0  0  0  0  0  0  0  0
   14.9473  -21.2693  -12.2158 N   0  0  0  0  0  0  0  0  0  0  0  0
   21.2967  -22.7980  -14.1763 C   0  0  0  0  0  0  0  0  0  0  0  0
   21.7558  -22.7730  -12.9933 O   0  0  0  0  0  0  0  0  0  0  0  0
   27.8607  -26.5273  -16.1761 N   0  0  0  0  0  0  0  0  0  0  0  0
   26.6594  -26.6038  -16.9774 C   0  0  0  0  0  0  0  0  0  0  0  0
   26.0809  -27.7387  -17.1847 N   0  0  0  0  0  0  0  0  0  0  0  0
   26.1175  -25.4185  -17.5370 N   0  0  0  0  0  0  0  0  0  0  0  0
   26.6128  -24.0965  -17.2257 C   0  0  0  0  0  0  0  0  0  0  0  0
   25.9587  -23.5091  -15.9924 C   0  0  0  0  0  0  0  0  0  0  0  0
   24.4832  -23.5419  -16.1750 C   0  0  0  0  0  0  0  0  0  0  0  0
   23.6763  -23.0644  -15.0229 C   0  0  2  0  0  0  0  0  0  0  0  0
   22.2574  -23.0018  -15.2011 N   0  0  0  0  0  0  0  0  0  0  0  0
   24.2395  -21.9034  -14.3186 C   0  0  0  0  0  0  0  0  0  0  0  0
   23.9531  -20.7535  -14.6697 O   0  0  0  0  0  0  0  0  0  0  0  0
   25.2104  -27.7585  -17.7302 C   0  0  0  0  0  0  0  0  0  0  0  0
   26.2107  -20.5747   -8.6644 C   0  0  0  0  0  0  0  0  0  0  0  0
   26.1357  -20.1303  -10.1038 C   0  0  2  0  0  0  0  0  0  0  0  0
   25.7757  -21.2347  -11.0145 C   0  0  0  0  0  0  0  0  0  0  0  0
   26.7939  -22.3616  -10.8420 C   0  0  2  0  0  0  0  0  0  0  0  0
   25.6601  -20.9584  -12.4559 N   0  0  0  0  0  0  0  0  0  0  0  0
   25.1136  -22.0794  -13.2397 C   0  0  0  0  0  0  0  0  0  0  0  0
   26.8787  -20.4320  -13.1231 O   0  0  0  0  0  0  0  0  0  0  0  0
   27.2862  -19.1136  -13.0296 O   0  0  0  0  0  0  0  0  0  0  0  0
  2  1  1  6
  2  8  1  0
  3  4  1  0
  3  2  1  0
  5  6  1  0
  5  4  1  0
  7  6  1  0
  8 18  1  0
  8  9  2  0
 11 13  1  0
 11 10  1  0
 12 11  2  0
 14 15  1  0
 14 13  1  0
 17 16  1  6
 16 15  1  0
 17 19  1  0
 18 17  1  0
 19 20  2  0
 21 22  1  0
 22 23  1  0
 23 25  1  0
 23 24  1  6
 25 27  1  0
 25 26  1  6
 26 19  1  0
 27 29  2  0
 27 28  1  0
M  END
$$$$
