KRI.pdb
     RDKit          3D

 29 28  0  0  1  0  0  0  0  0999 V2000
   20.4223  -31.9409   -8.9006 N   0  0  0  0  0  0  0  0  0  0  0  0
   19.9289  -31.2950  -10.0744 C   0  0  1  0  0  0  0  0  0  0  0  0
   18.6476  -31.8900  -10.5189 C   0  0  0  0  0  0  0  0  0  0  0  0
   18.7163  -33.1343  -11.3153 C   0  0  0  0  0  0  0  0  0  0  0  0
   18.9225  -33.0108  -12.7763 C   0  0  0  0  0  0  0  0  0  0  0  0
   18.7999  -34.3716  -13.4830 C   0  0  0  0  0  0  0  0  0  0  0  0
   18.8599  -34.1373  -14.8971 N   0  0  0  0  0  0  0  0  0  0  0  0
   19.8955  -29.8150   -9.9500 C   0  0  0  0  0  0  0  0  0  0  0  0
   19.8789  -29.2568   -8.8103 O   0  0  0  0  0  0  0  0  0  0  0  0
   18.5104  -22.4681  -11.9031 N   0  0  0  0  0  0  0  0  0  0  0  0
   19.0687  -22.5337  -13.2354 C   0  0  0  0  0  0  0  0  0  0  0  0
   18.4598  -21.9797  -14.2294 N   0  0  0  0  0  0  0  0  0  0  0  0
   20.2957  -23.2135  -13.4448 N   0  0  0  0  0  0  0  0  0  0  0  0
   20.4147  -24.6543  -13.4398 C   0  0  0  0  0  0  0  0  0  0  0  0
   19.9389  -25.2697  -12.1402 C   0  0  0  0  0  0  0  0  0  0  0  0
   20.0752  -26.7475  -12.2356 C   0  0  0  0  0  0  0  0  0  0  0  0
   19.7395  -27.5105  -11.0061 C   0  0  2  0  0  0  0  0  0  0  0  0
   19.8793  -28.9340  -11.0628 N   0  0  0  0  0  0  0  0  0  0  0  0
   18.5219  -27.0590  -10.3171 C   0  0  0  0  0  0  0  0  0  0  0  0
   17.4101  -27.4679  -10.6694 O   0  0  0  0  0  0  0  0  0  0  0  0
   18.8638  -22.0693  -15.1698 C   0  0  0  0  0  0  0  0  0  0  0  0
   16.9684  -25.3359   -4.6595 C   0  0  0  0  0  0  0  0  0  0  0  0
   16.5741  -25.2826   -6.1145 C   0  0  2  0  0  0  0  0  0  0  0  0
   17.6497  -25.7599   -7.0055 C   0  0  0  0  0  0  0  0  0  0  0  0
   18.9145  -24.9500   -6.7218 C   0  0  2  0  0  0  0  0  0  0  0  0
   17.4280  -25.7405   -8.4608 N   0  0  0  0  0  0  0  0  0  0  0  0
   18.5996  -26.1546   -9.2517 C   0  0  0  0  0  0  0  0  0  0  0  0
   16.8669  -24.4849   -9.0226 O   0  0  0  0  0  0  0  0  0  0  0  0
   15.5404  -24.1178   -8.8854 O   0  0  0  0  0  0  0  0  0  0  0  0
  2  1  1  1
  2  8  1  0
  3  4  1  0
  3  2  1  0
  5  6  1  0
  5  4  1  0
  7  6  1  0
  8 18  1  0
  8  9  2  0
 11 13  1  0
 11 10  1  0
 12 11  2  0
 14 15  1  0
 14 13  1  0
 17 16  1  6
 16 15  1  0
 17 19  1  0
 18 17  1  0
 19 20  2  0
 21 22  1  0
 22 23  1  0
 23 25  1  0
 23 24  1  6
 25 27  1  0
 25 26  1  6
 26 19  1  0
 27 29  2  0
 27 28  1  0
M  END
$$$$
