IGC.pdb
     RDKit          3D

 19 18  0  0  1  0  0  0  0  0999 V2000
    7.7095  -13.7224   17.9168 C   0  0  0  0  0  0  0  0  0  0  0  0
    8.5184  -14.4125   18.9903 C   0  0  0  0  0  0  0  0  0  0  0  0
    7.8484  -14.1495   20.3163 C   0  0  2  0  0  0  0  0  0  0  0  0
    8.0261  -12.6772   20.6290 C   0  0  0  0  0  0  0  0  0  0  0  0
    8.4921  -14.9282   21.4419 C   0  0  2  0  0  0  0  0  0  0  0  0
    8.2038  -16.3449   21.3235 N   0  0  0  0  0  0  0  0  0  0  0  0
    8.0738  -14.4772   22.7665 C   0  0  0  0  0  0  0  0  0  0  0  0
    8.4454  -13.3641   23.2214 O   0  0  0  0  0  0  0  0  0  0  0  0
    7.2272  -15.2426   23.6386 N   0  0  0  0  0  0  0  0  0  0  0  0
    6.8601  -14.7669   24.9504 C   0  0  0  0  0  0  0  0  0  0  0  0
    7.9186  -14.7737   25.9421 C   0  0  0  0  0  0  0  0  0  0  0  0
    7.6082  -14.3906   27.1228 O   0  0  0  0  0  0  0  0  0  0  0  0
    9.2685  -15.1527   25.7764 N   0  0  0  0  0  0  0  0  0  0  0  0
   10.2497  -15.1038   26.8494 C   0  0  1  0  0  0  0  0  0  0  0  0
    9.4763  -14.9031   28.1383 C   0  0  0  0  0  0  0  0  0  0  0  0
   10.4605  -14.1628   29.4395 S   0  0  0  0  0  0  0  0  0  0  0  0
   11.0701  -16.3316   26.8959 C   0  0  0  0  0  0  0  0  0  0  0  0
   12.0182  -16.3719   27.7190 O   0  0  0  0  0  0  0  0  0  0  0  0
   10.8611  -17.4278   26.0980 O   0  0  0  0  0  0  0  0  0  0  0  0
  2  3  1  0
  2  1  1  0
  3  4  1  1
  5  6  1  6
  5  3  1  0
  7  5  1  0
  8  7  2  0
  9  7  1  0
 10  9  1  0
 11 13  1  0
 11 10  1  0
 12 11  2  0
 14 15  1  1
 14 17  1  0
 14 13  1  0
 15 16  1  0
 17 19  1  0
 18 17  2  0
M  END
$$$$
