IGC.pdb
     RDKit          3D

 19 18  0  0  1  0  0  0  0  0999 V2000
    9.9499  -21.0967   23.8026 C   0  0  0  0  0  0  0  0  0  0  0  0
    8.5413  -20.6409   23.5008 C   0  0  0  0  0  0  0  0  0  0  0  0
    8.6286  -19.3570   22.7132 C   0  0  2  0  0  0  0  0  0  0  0  0
    9.3346  -18.3381   23.5852 C   0  0  0  0  0  0  0  0  0  0  0  0
    7.2619  -18.7977   22.3861 C   0  0  2  0  0  0  0  0  0  0  0  0
    6.5718  -19.6413   21.4289 N   0  0  0  0  0  0  0  0  0  0  0  0
    7.3083  -17.4366   21.8584 C   0  0  0  0  0  0  0  0  0  0  0  0
    8.1525  -17.1065   20.9854 O   0  0  0  0  0  0  0  0  0  0  0  0
    6.4204  -16.3883   22.2781 N   0  0  0  0  0  0  0  0  0  0  0  0
    6.7252  -14.9971   22.0467 C   0  0  0  0  0  0  0  0  0  0  0  0
    7.2456  -14.2679   23.1875 C   0  0  0  0  0  0  0  0  0  0  0  0
    8.4925  -13.9810   23.1714 O   0  0  0  0  0  0  0  0  0  0  0  0
    6.5490  -13.8248   24.3328 N   0  0  0  0  0  0  0  0  0  0  0  0
    7.1996  -13.1858   25.4664 C   0  0  1  0  0  0  0  0  0  0  0  0
    6.0976  -12.5971   26.3261 C   0  0  0  0  0  0  0  0  0  0  0  0
    6.6850  -11.3324   27.4510 S   0  0  0  0  0  0  0  0  0  0  0  0
    8.0298  -14.1404   26.2293 C   0  0  0  0  0  0  0  0  0  0  0  0
    7.6920  -15.3502   26.2176 O   0  0  0  0  0  0  0  0  0  0  0  0
    9.1440  -13.7883   26.9480 O   0  0  0  0  0  0  0  0  0  0  0  0
  2  3  1  0
  2  1  1  0
  3  4  1  1
  5  6  1  6
  5  3  1  0
  7  5  1  0
  8  7  2  0
  9  7  1  0
 10  9  1  0
 11 13  1  0
 11 10  1  0
 12 11  2  0
 14 15  1  1
 14 17  1  0
 14 13  1  0
 15 16  1  0
 17 19  1  0
 18 17  2  0
M  END
$$$$
