IGC.pdb
     RDKit          3D

 19 18  0  0  1  0  0  0  0  0999 V2000
    7.6567  -12.0484   26.7854 C   0  0  0  0  0  0  0  0  0  0  0  0
    7.0704  -13.4230   27.0082 C   0  0  0  0  0  0  0  0  0  0  0  0
    7.4061  -14.2703   25.8059 C   0  0  2  0  0  0  0  0  0  0  0  0
    6.7650  -13.6164   24.5982 C   0  0  0  0  0  0  0  0  0  0  0  0
    6.8336  -15.6659   25.9173 C   0  0  2  0  0  0  0  0  0  0  0  0
    7.2638  -16.3063   27.1457 N   0  0  0  0  0  0  0  0  0  0  0  0
    7.1925  -16.5266   24.7933 C   0  0  0  0  0  0  0  0  0  0  0  0
    8.2816  -17.1571   24.7795 O   0  0  0  0  0  0  0  0  0  0  0  0
    6.3579  -16.7218   23.6406 N   0  0  0  0  0  0  0  0  0  0  0  0
    6.7884  -17.5192   22.5178 C   0  0  0  0  0  0  0  0  0  0  0  0
    7.8141  -16.9267   21.6806 C   0  0  0  0  0  0  0  0  0  0  0  0
    8.3282  -17.6743   20.7783 O   0  0  0  0  0  0  0  0  0  0  0  0
    8.3300  -15.6134   21.7286 N   0  0  0  0  0  0  0  0  0  0  0  0
    9.4423  -15.1613   20.9071 C   0  0  1  0  0  0  0  0  0  0  0  0
    9.2008  -13.6925   20.6168 C   0  0  0  0  0  0  0  0  0  0  0  0
    7.4895  -13.3247   20.2347 S   0  0  0  0  0  0  0  0  0  0  0  0
   10.7403  -15.3738   21.5799 C   0  0  0  0  0  0  0  0  0  0  0  0
   11.7833  -15.0642   20.9519 O   0  0  0  0  0  0  0  0  0  0  0  0
   10.8769  -15.8869   22.8448 O   0  0  0  0  0  0  0  0  0  0  0  0
  2  3  1  0
  2  1  1  0
  3  4  1  6
  5  6  1  1
  5  3  1  0
  7  5  1  0
  8  7  2  0
  9  7  1  0
 10  9  1  0
 11 13  1  0
 11 10  1  0
 12 11  2  0
 14 15  1  1
 14 17  1  0
 14 13  1  0
 15 16  1  0
 17 19  1  0
 18 17  2  0
M  END
$$$$
