IGC.pdb
     RDKit          3D

 19 18  0  0  1  0  0  0  0  0999 V2000
    5.5790  -11.5998   26.4708 C   0  0  0  0  0  0  0  0  0  0  0  0
    5.4565  -12.9412   25.7864 C   0  0  0  0  0  0  0  0  0  0  0  0
    6.8406  -13.5304   25.6706 C   0  0  2  0  0  0  0  0  0  0  0  0
    7.6311  -12.6467   24.7264 C   0  0  0  0  0  0  0  0  0  0  0  0
    6.8182  -14.9193   25.0723 C   0  0  2  0  0  0  0  0  0  0  0  0
    5.8928  -15.7772   25.7877 N   0  0  0  0  0  0  0  0  0  0  0  0
    8.1303  -15.5606   25.0567 C   0  0  0  0  0  0  0  0  0  0  0  0
    8.5158  -16.2752   26.0182 O   0  0  0  0  0  0  0  0  0  0  0  0
    9.0663  -15.4345   23.9745 N   0  0  0  0  0  0  0  0  0  0  0  0
   10.3207  -16.1475   23.9686 C   0  0  0  0  0  0  0  0  0  0  0  0
   11.1019  -16.0581   25.1874 C   0  0  0  0  0  0  0  0  0  0  0  0
   12.3729  -16.1461   25.0682 O   0  0  0  0  0  0  0  0  0  0  0  0
   10.6403  -15.8839   26.5102 N   0  0  0  0  0  0  0  0  0  0  0  0
   11.4908  -16.0386   27.6804 C   0  0  1  0  0  0  0  0  0  0  0  0
   11.0684  -14.9701   28.6703 C   0  0  0  0  0  0  0  0  0  0  0  0
   10.4630  -13.4807   27.8797 S   0  0  0  0  0  0  0  0  0  0  0  0
   11.3779  -17.3915   28.2631 C   0  0  0  0  0  0  0  0  0  0  0  0
   10.5847  -18.1994   27.7188 O   0  0  0  0  0  0  0  0  0  0  0  0
   12.0837  -17.8191   29.3589 O   0  0  0  0  0  0  0  0  0  0  0  0
  2  3  1  0
  2  1  1  0
  3  4  1  6
  5  6  1  1
  5  3  1  0
  7  5  1  0
  8  7  2  0
  9  7  1  0
 10  9  1  0
 11 13  1  0
 11 10  1  0
 12 11  2  0
 14 15  1  1
 14 17  1  0
 14 13  1  0
 15 16  1  0
 17 19  1  0
 18 17  2  0
M  END
$$$$
