IGC.pdb
     RDKit          3D

 19 18  0  0  1  0  0  0  0  0999 V2000
    7.9902  -12.1273   19.6643 C   0  0  0  0  0  0  0  0  0  0  0  0
    7.4680  -13.5333   19.8468 C   0  0  0  0  0  0  0  0  0  0  0  0
    7.9224  -14.0244   21.1991 C   0  0  2  0  0  0  0  0  0  0  0  0
    9.4360  -14.0973   21.1690 C   0  0  0  0  0  0  0  0  0  0  0  0
    7.4120  -15.4164   21.4985 C   0  0  2  0  0  0  0  0  0  0  0  0
    5.9802  -15.5014   21.2820 N   0  0  0  0  0  0  0  0  0  0  0  0
    7.7037  -15.8559   22.8604 C   0  0  0  0  0  0  0  0  0  0  0  0
    6.9985  -15.4758   23.8310 O   0  0  0  0  0  0  0  0  0  0  0  0
    8.7887  -16.7340   23.1994 N   0  0  0  0  0  0  0  0  0  0  0  0
    9.0199  -17.1665   24.5564 C   0  0  0  0  0  0  0  0  0  0  0  0
    9.6341  -16.1880   25.4335 C   0  0  0  0  0  0  0  0  0  0  0  0
   10.8862  -15.9757   25.2771 O   0  0  0  0  0  0  0  0  0  0  0  0
    9.0253  -15.4256   26.4539 N   0  0  0  0  0  0  0  0  0  0  0  0
    9.7675  -14.5509   27.3488 C   0  0  1  0  0  0  0  0  0  0  0  0
    8.7572  -13.6082   27.9735 C   0  0  0  0  0  0  0  0  0  0  0  0
    7.7233  -12.7853   26.7637 S   0  0  0  0  0  0  0  0  0  0  0  0
   10.5012  -15.3169   28.3772 C   0  0  0  0  0  0  0  0  0  0  0  0
   10.2882  -16.5527   28.4505 O   0  0  0  0  0  0  0  0  0  0  0  0
   11.3987  -14.7635   29.2549 O   0  0  0  0  0  0  0  0  0  0  0  0
  2  3  1  0
  2  1  1  0
  3  4  1  6
  5  6  1  1
  5  3  1  0
  7  5  1  0
  8  7  2  0
  9  7  1  0
 10  9  1  0
 11 13  1  0
 11 10  1  0
 12 11  2  0
 14 15  1  1
 14 17  1  0
 14 13  1  0
 15 16  1  0
 17 19  1  0
 18 17  2  0
M  END
$$$$
