IGC.pdb
     RDKit          3D

 19 18  0  0  1  0  0  0  0  0999 V2000
    5.5838  -11.3762   26.5222 C   0  0  0  0  0  0  0  0  0  0  0  0
    5.5029  -12.6989   25.7964 C   0  0  0  0  0  0  0  0  0  0  0  0
    6.9117  -13.1828   25.5570 C   0  0  2  0  0  0  0  0  0  0  0  0
    7.6091  -12.1418   24.7043 C   0  0  0  0  0  0  0  0  0  0  0  0
    6.9417  -14.4854   24.7888 C   0  0  2  0  0  0  0  0  0  0  0  0
    6.1607  -15.5040   25.4645 N   0  0  0  0  0  0  0  0  0  0  0  0
    8.2928  -14.9983   24.5780 C   0  0  0  0  0  0  0  0  0  0  0  0
    9.2081  -14.2561   24.1363 O   0  0  0  0  0  0  0  0  0  0  0  0
    8.6819  -16.3543   24.8487 N   0  0  0  0  0  0  0  0  0  0  0  0
   10.0209  -16.8259   24.5908 C   0  0  0  0  0  0  0  0  0  0  0  0
   10.9145  -16.8408   25.7332 C   0  0  0  0  0  0  0  0  0  0  0  0
   12.0801  -17.3360   25.5500 O   0  0  0  0  0  0  0  0  0  0  0  0
   10.6666  -16.3742   27.0424 N   0  0  0  0  0  0  0  0  0  0  0  0
   11.5739  -16.6012   28.1569 C   0  0  1  0  0  0  0  0  0  0  0  0
   11.4322  -15.4093   29.0838 C   0  0  0  0  0  0  0  0  0  0  0  0
   10.4683  -14.0773   28.3720 S   0  0  0  0  0  0  0  0  0  0  0  0
   11.2753  -17.8684   28.8551 C   0  0  0  0  0  0  0  0  0  0  0  0
   10.2585  -18.5113   28.4933 O   0  0  0  0  0  0  0  0  0  0  0  0
   12.0377  -18.3854   29.8717 O   0  0  0  0  0  0  0  0  0  0  0  0
  2  3  1  0
  2  1  1  0
  3  4  1  6
  5  6  1  1
  5  3  1  0
  7  5  1  0
  8  7  2  0
  9  7  1  0
 10  9  1  0
 11 13  1  0
 11 10  1  0
 12 11  2  0
 14 15  1  1
 14 17  1  0
 14 13  1  0
 15 16  1  0
 17 19  1  0
 18 17  2  0
M  END
$$$$
