IGC.pdb
     RDKit          3D

 19 18  0  0  1  0  0  0  0  0999 V2000
    5.5260  -11.6599   26.7802 C   0  0  0  0  0  0  0  0  0  0  0  0
    5.3875  -12.8642   25.8784 C   0  0  0  0  0  0  0  0  0  0  0  0
    6.7746  -13.3553   25.5450 C   0  0  2  0  0  0  0  0  0  0  0  0
    7.4555  -12.2716   24.7333 C   0  0  0  0  0  0  0  0  0  0  0  0
    6.7449  -14.6036   24.6914 C   0  0  2  0  0  0  0  0  0  0  0  0
    6.0669  -15.6860   25.3790 N   0  0  0  0  0  0  0  0  0  0  0  0
    8.0740  -15.0629   24.2970 C   0  0  0  0  0  0  0  0  0  0  0  0
    8.8290  -14.3414   23.5945 O   0  0  0  0  0  0  0  0  0  0  0  0
    8.6181  -16.3400   24.6659 N   0  0  0  0  0  0  0  0  0  0  0  0
    9.9943  -16.6840   24.4021 C   0  0  0  0  0  0  0  0  0  0  0  0
   10.8880  -16.6261   25.5430 C   0  0  0  0  0  0  0  0  0  0  0  0
   12.0932  -17.0129   25.3546 O   0  0  0  0  0  0  0  0  0  0  0  0
   10.6018  -16.1930   26.8559 N   0  0  0  0  0  0  0  0  0  0  0  0
   11.5048  -16.3946   27.9787 C   0  0  1  0  0  0  0  0  0  0  0  0
   11.2790  -15.2375   28.9326 C   0  0  0  0  0  0  0  0  0  0  0  0
   10.4184  -13.8609   28.1749 S   0  0  0  0  0  0  0  0  0  0  0  0
   11.2721  -17.6949   28.6403 C   0  0  0  0  0  0  0  0  0  0  0  0
   10.2880  -18.3775   28.2610 O   0  0  0  0  0  0  0  0  0  0  0  0
   12.0621  -18.2020   29.6407 O   0  0  0  0  0  0  0  0  0  0  0  0
  2  3  1  0
  2  1  1  0
  3  4  1  6
  5  6  1  1
  5  3  1  0
  7  5  1  0
  8  7  2  0
  9  7  1  0
 10  9  1  0
 11 13  1  0
 11 10  1  0
 12 11  2  0
 14 15  1  1
 14 17  1  0
 14 13  1  0
 15 16  1  0
 17 19  1  0
 18 17  2  0
M  END
$$$$
