IGC.pdb
     RDKit          3D

 19 18  0  0  1  0  0  0  0  0999 V2000
    7.8137  -12.4505   19.3114 C   0  0  0  0  0  0  0  0  0  0  0  0
    8.7105  -13.1187   20.3273 C   0  0  0  0  0  0  0  0  0  0  0  0
    7.9074  -14.1923   21.0191 C   0  0  2  0  0  0  0  0  0  0  0  0
    6.8215  -13.5007   21.8189 C   0  0  0  0  0  0  0  0  0  0  0  0
    8.7454  -14.9882   21.9948 C   0  0  2  0  0  0  0  0  0  0  0  0
    9.8358  -15.6603   21.3140 N   0  0  0  0  0  0  0  0  0  0  0  0
    7.9757  -15.9836   22.7363 C   0  0  0  0  0  0  0  0  0  0  0  0
    7.7377  -17.1181   22.2463 O   0  0  0  0  0  0  0  0  0  0  0  0
    7.4396  -15.7599   24.0500 N   0  0  0  0  0  0  0  0  0  0  0  0
    6.6810  -16.7729   24.7431 C   0  0  0  0  0  0  0  0  0  0  0  0
    7.4589  -17.7346   25.5006 C   0  0  0  0  0  0  0  0  0  0  0  0
    6.8097  -18.6579   26.1035 O   0  0  0  0  0  0  0  0  0  0  0  0
    8.8600  -17.7895   25.6648 N   0  0  0  0  0  0  0  0  0  0  0  0
    9.5376  -18.8461   26.4005 C   0  0  1  0  0  0  0  0  0  0  0  0
   10.7097  -19.2891   25.5462 C   0  0  0  0  0  0  0  0  0  0  0  0
   11.8215  -20.4024   26.4031 S   0  0  0  0  0  0  0  0  0  0  0  0
    9.9817  -18.3863   27.7324 C   0  0  0  0  0  0  0  0  0  0  0  0
   10.2459  -17.1662   27.8730 O   0  0  0  0  0  0  0  0  0  0  0  0
   10.1232  -19.2070   28.8225 O   0  0  0  0  0  0  0  0  0  0  0  0
  2  3  1  0
  2  1  1  0
  3  4  1  1
  5  6  1  6
  5  3  1  0
  7  5  1  0
  8  7  2  0
  9  7  1  0
 10  9  1  0
 11 13  1  0
 11 10  1  0
 12 11  2  0
 14 15  1  6
 14 17  1  0
 14 13  1  0
 15 16  1  0
 17 19  1  0
 18 17  2  0
M  END
$$$$
