IGC.pdb
     RDKit          3D

 19 18  0  0  1  0  0  0  0  0999 V2000
    5.7642  -11.7858   26.6222 C   0  0  0  0  0  0  0  0  0  0  0  0
    5.5606  -13.1101   25.9238 C   0  0  0  0  0  0  0  0  0  0  0  0
    6.9169  -13.7372   25.7153 C   0  0  2  0  0  0  0  0  0  0  0  0
    7.6800  -12.8541   24.7483 C   0  0  0  0  0  0  0  0  0  0  0  0
    6.8173  -15.1094   25.0869 C   0  0  2  0  0  0  0  0  0  0  0  0
    5.8803  -15.9454   25.8129 N   0  0  0  0  0  0  0  0  0  0  0  0
    8.1003  -15.8033   25.0136 C   0  0  0  0  0  0  0  0  0  0  0  0
    8.4690  -16.5858   25.9277 O   0  0  0  0  0  0  0  0  0  0  0  0
    9.0247  -15.6568   23.9240 N   0  0  0  0  0  0  0  0  0  0  0  0
   10.2964  -16.3384   23.9102 C   0  0  0  0  0  0  0  0  0  0  0  0
   11.0622  -16.2681   25.1400 C   0  0  0  0  0  0  0  0  0  0  0  0
   12.2528  -16.7358   25.1081 O   0  0  0  0  0  0  0  0  0  0  0  0
   10.6634  -15.7440   26.3887 N   0  0  0  0  0  0  0  0  0  0  0  0
   11.4542  -15.8806   27.6022 C   0  0  1  0  0  0  0  0  0  0  0  0
   10.7975  -15.0042   28.6513 C   0  0  0  0  0  0  0  0  0  0  0  0
   10.5591  -13.3146   28.1052 S   0  0  0  0  0  0  0  0  0  0  0  0
   11.5355  -17.2875   28.0459 C   0  0  0  0  0  0  0  0  0  0  0  0
   12.5219  -17.6247   28.7468 O   0  0  0  0  0  0  0  0  0  0  0  0
   10.6028  -18.2461   27.7406 O   0  0  0  0  0  0  0  0  0  0  0  0
  2  3  1  0
  2  1  1  0
  3  4  1  6
  5  6  1  1
  5  3  1  0
  7  5  1  0
  8  7  2  0
  9  7  1  0
 10  9  1  0
 11 13  1  0
 11 10  1  0
 12 11  2  0
 14 15  1  1
 14 17  1  0
 14 13  1  0
 15 16  1  0
 17 19  1  0
 18 17  2  0
M  END
$$$$
