IGC.pdb
     RDKit          3D

 19 18  0  0  1  0  0  0  0  0999 V2000
    7.7209  -12.7658   17.2298 C   0  0  0  0  0  0  0  0  0  0  0  0
    8.5831  -13.7776   17.9480 C   0  0  0  0  0  0  0  0  0  0  0  0
    7.8655  -14.1841   19.2114 C   0  0  2  0  0  0  0  0  0  0  0  0
    7.7689  -12.9547   20.0926 C   0  0  0  0  0  0  0  0  0  0  0  0
    8.6313  -15.2329   19.9868 C   0  0  2  0  0  0  0  0  0  0  0  0
    8.8232  -16.4297   19.1899 N   0  0  0  0  0  0  0  0  0  0  0  0
    7.9843  -15.6078   21.2414 C   0  0  0  0  0  0  0  0  0  0  0  0
    7.5815  -16.7836   21.4388 O   0  0  0  0  0  0  0  0  0  0  0  0
    7.7587  -14.6936   22.3261 N   0  0  0  0  0  0  0  0  0  0  0  0
    7.2939  -15.1450   23.6153 C   0  0  0  0  0  0  0  0  0  0  0  0
    8.0223  -14.6354   24.7615 C   0  0  0  0  0  0  0  0  0  0  0  0
    9.2936  -14.5464   24.6465 O   0  0  0  0  0  0  0  0  0  0  0  0
    7.5080  -14.2172   26.0080 N   0  0  0  0  0  0  0  0  0  0  0  0
    8.3170  -13.5714   27.0303 C   0  0  1  0  0  0  0  0  0  0  0  0
    7.3961  -12.6335   27.7866 C   0  0  0  0  0  0  0  0  0  0  0  0
    6.0600  -11.9965   26.7772 S   0  0  0  0  0  0  0  0  0  0  0  0
    8.9458  -14.5574   27.9331 C   0  0  0  0  0  0  0  0  0  0  0  0
    8.5771  -15.7547   27.8411 O   0  0  0  0  0  0  0  0  0  0  0  0
    9.9050  -14.2472   28.8636 O   0  0  0  0  0  0  0  0  0  0  0  0
  2  3  1  0
  2  1  1  0
  3  4  1  1
  5  6  1  6
  5  3  1  0
  7  5  1  0
  8  7  2  0
  9  7  1  0
 10  9  1  0
 11 13  1  0
 11 10  1  0
 12 11  2  0
 14 15  1  1
 14 17  1  0
 14 13  1  0
 15 16  1  0
 17 19  1  0
 18 17  2  0
M  END
$$$$
