IGC.pdb
     RDKit          3D

 19 18  0  0  1  0  0  0  0  0999 V2000
    8.0223  -11.9715   21.3108 C   0  0  0  0  0  0  0  0  0  0  0  0
    7.8247  -13.3983   21.7671 C   0  0  0  0  0  0  0  0  0  0  0  0
    8.2096  -14.3071   20.6260 C   0  0  2  0  0  0  0  0  0  0  0  0
    7.1617  -14.1429   19.5434 C   0  0  0  0  0  0  0  0  0  0  0  0
    8.2081  -15.7634   21.0348 C   0  0  2  0  0  0  0  0  0  0  0  0
    6.9400  -16.1322   21.6348 N   0  0  0  0  0  0  0  0  0  0  0  0
    9.2801  -16.1003   21.9678 C   0  0  0  0  0  0  0  0  0  0  0  0
   10.4844  -15.8697   21.6846 O   0  0  0  0  0  0  0  0  0  0  0  0
    9.0586  -16.7062   23.2512 N   0  0  0  0  0  0  0  0  0  0  0  0
   10.1488  -17.0066   24.1473 C   0  0  0  0  0  0  0  0  0  0  0  0
   10.5078  -15.9536   25.0780 C   0  0  0  0  0  0  0  0  0  0  0  0
   11.6361  -15.3787   24.8945 O   0  0  0  0  0  0  0  0  0  0  0  0
    9.7666  -15.4696   26.1778 N   0  0  0  0  0  0  0  0  0  0  0  0
   10.3394  -14.6339   27.2219 C   0  0  1  0  0  0  0  0  0  0  0  0
    9.4997  -13.3725   27.2801 C   0  0  0  0  0  0  0  0  0  0  0  0
    7.7551  -13.6774   27.0089 S   0  0  0  0  0  0  0  0  0  0  0  0
   10.3640  -15.3284   28.5257 C   0  0  0  0  0  0  0  0  0  0  0  0
   10.8164  -14.7009   29.5154 O   0  0  0  0  0  0  0  0  0  0  0  0
    9.9245  -16.6131   28.7220 O   0  0  0  0  0  0  0  0  0  0  0  0
  2  3  1  0
  2  1  1  0
  3  4  1  6
  5  6  1  1
  5  3  1  0
  7  5  1  0
  8  7  2  0
  9  7  1  0
 10  9  1  0
 11 13  1  0
 11 10  1  0
 12 11  2  0
 14 15  1  1
 14 17  1  0
 14 13  1  0
 15 16  1  0
 17 19  1  0
 18 17  2  0
M  END
$$$$
