IGC.pdb
     RDKit          3D

 19 18  0  0  1  0  0  0  0  0999 V2000
    2.9282  -18.7213   20.4870 C   0  0  0  0  0  0  0  0  0  0  0  0
    4.2234  -18.0373   20.1164 C   0  0  0  0  0  0  0  0  0  0  0  0
    4.7681  -17.3733   21.3568 C   0  0  2  0  0  0  0  0  0  0  0  0
    5.4631  -16.0992   20.9201 C   0  0  0  0  0  0  0  0  0  0  0  0
    5.8005  -18.2315   22.0534 C   0  0  2  0  0  0  0  0  0  0  0  0
    5.3106  -19.5842   22.2389 N   0  0  0  0  0  0  0  0  0  0  0  0
    6.2078  -17.7018   23.3521 C   0  0  0  0  0  0  0  0  0  0  0  0
    5.5065  -17.8906   24.3799 O   0  0  0  0  0  0  0  0  0  0  0  0
    7.4087  -16.9421   23.5620 N   0  0  0  0  0  0  0  0  0  0  0  0
    7.7301  -16.3696   24.8469 C   0  0  0  0  0  0  0  0  0  0  0  0
    9.0585  -15.7998   24.9681 C   0  0  0  0  0  0  0  0  0  0  0  0
    9.3950  -14.9254   24.0967 O   0  0  0  0  0  0  0  0  0  0  0  0
   10.0466  -16.0854   25.9351 N   0  0  0  0  0  0  0  0  0  0  0  0
   10.4029  -15.1700   27.0083 C   0  0  1  0  0  0  0  0  0  0  0  0
    9.1947  -14.2843   27.2445 C   0  0  0  0  0  0  0  0  0  0  0  0
    9.5169  -12.9500   28.3959 S   0  0  0  0  0  0  0  0  0  0  0  0
   10.7925  -15.8929   28.2364 C   0  0  0  0  0  0  0  0  0  0  0  0
   10.1103  -16.8941   28.5682 O   0  0  0  0  0  0  0  0  0  0  0  0
   11.8505  -15.5394   29.0349 O   0  0  0  0  0  0  0  0  0  0  0  0
  2  3  1  0
  2  1  1  0
  3  4  1  6
  5  6  1  1
  5  3  1  0
  7  5  1  0
  8  7  2  0
  9  7  1  0
 10  9  1  0
 11 13  1  0
 11 10  1  0
 12 11  2  0
 14 15  1  1
 14 17  1  0
 14 13  1  0
 15 16  1  0
 17 19  1  0
 18 17  2  0
M  END
$$$$
