IGC.pdb
     RDKit          3D

 19 18  0  0  1  0  0  0  0  0999 V2000
    5.8018  -11.3000   26.8591 C   0  0  0  0  0  0  0  0  0  0  0  0
    5.7884  -12.5107   25.9554 C   0  0  0  0  0  0  0  0  0  0  0  0
    6.9151  -13.4192   26.3813 C   0  0  2  0  0  0  0  0  0  0  0  0
    8.2070  -12.6428   26.2230 C   0  0  0  0  0  0  0  0  0  0  0  0
    7.0182  -14.6460   25.5026 C   0  0  2  0  0  0  0  0  0  0  0  0
    5.7468  -15.3406   25.4305 N   0  0  0  0  0  0  0  0  0  0  0  0
    8.0394  -15.5898   25.9494 C   0  0  0  0  0  0  0  0  0  0  0  0
    7.7235  -16.6793   26.4944 O   0  0  0  0  0  0  0  0  0  0  0  0
    9.4508  -15.3624   25.8094 N   0  0  0  0  0  0  0  0  0  0  0  0
   10.4203  -16.3766   26.1460 C   0  0  0  0  0  0  0  0  0  0  0  0
   11.3008  -16.7885   25.0694 C   0  0  0  0  0  0  0  0  0  0  0  0
   11.8591  -17.9341   25.1844 O   0  0  0  0  0  0  0  0  0  0  0  0
   11.6299  -16.0831   23.8916 N   0  0  0  0  0  0  0  0  0  0  0  0
   12.5410  -16.5969   22.8804 C   0  0  1  0  0  0  0  0  0  0  0  0
   11.9611  -16.2090   21.5339 C   0  0  0  0  0  0  0  0  0  0  0  0
   10.1900  -16.4602   21.4337 S   0  0  0  0  0  0  0  0  0  0  0  0
   13.9078  -16.0640   23.0550 C   0  0  0  0  0  0  0  0  0  0  0  0
   14.1124  -15.2786   24.0138 O   0  0  0  0  0  0  0  0  0  0  0  0
   14.9648  -16.3729   22.2369 O   0  0  0  0  0  0  0  0  0  0  0  0
  2  3  1  0
  2  1  1  0
  3  4  1  6
  5  6  1  1
  5  3  1  0
  7  5  1  0
  8  7  2  0
  9  7  1  0
 10  9  1  0
 11 13  1  0
 11 10  1  0
 12 11  2  0
 14 15  1  6
 14 17  1  0
 14 13  1  0
 15 16  1  0
 17 19  1  0
 18 17  2  0
M  END
$$$$
