MYK.pdb
     RDKit          3D

 30 30  0  0  1  0  0  0  0  0999 V2000
    8.1326  -11.5846   19.4923 C   0  0  0  0  0  0  0  0  0  0  0  0
    6.8033  -12.7625   19.0614 S   0  0  0  0  0  0  0  0  0  0  0  0
    7.2827  -14.4283   19.6258 C   0  0  0  0  0  0  0  0  0  0  0  0
    8.7041  -14.4268   20.0937 C   0  0  0  0  0  0  0  0  0  0  0  0
    9.0891  -15.7615   20.6417 C   0  0  2  0  0  0  0  0  0  0  0  0
    7.7963  -16.4674   20.8534 N   0  0  0  0  0  0  0  0  0  0  0  0
    9.7469  -15.6304   21.9597 C   0  0  0  0  0  0  0  0  0  0  0  0
   10.9347  -15.1774   22.0753 O   0  0  0  0  0  0  0  0  0  0  0  0
   10.6212  -15.3598   30.7975 O   0  0  0  0  0  0  0  0  0  0  0  0
   10.1495  -15.4344   29.4919 C   0  0  0  0  0  0  0  0  0  0  0  0
    9.6774  -16.6133   28.9568 C   0  0  0  0  0  0  0  0  0  0  0  0
    9.2238  -16.6152   27.6532 C   0  0  0  0  0  0  0  0  0  0  0  0
    9.2211  -15.4917   26.8610 C   0  0  0  0  0  0  0  0  0  0  0  0
    8.7554  -15.4745   25.4747 C   0  0  0  0  0  0  0  0  0  0  0  0
    9.8407  -15.8529   24.4585 C   0  0  2  0  0  0  0  0  0  0  0  0
    9.1240  -15.9873   23.2064 N   0  0  0  0  0  0  0  0  0  0  0  0
   10.4060  -17.1452   24.8402 C   0  0  0  0  0  0  0  0  0  0  0  0
    9.6238  -18.1609   24.7912 O   0  0  0  0  0  0  0  0  0  0  0  0
    9.6981  -14.3252   27.4186 C   0  0  0  0  0  0  0  0  0  0  0  0
   10.1632  -14.2878   28.7311 C   0  0  0  0  0  0  0  0  0  0  0  0
   11.7262  -17.3824   25.2549 N   0  0  0  0  0  0  0  0  0  0  0  0
   12.1037  -18.7472   25.6292 C   0  0  1  0  0  0  0  0  0  0  0  0
   13.1456  -19.2812   24.6973 C   0  0  0  0  0  0  0  0  0  0  0  0
   12.6154  -19.3332   23.2956 C   0  0  0  0  0  0  0  0  0  0  0  0
   13.6026  -19.8913   22.2994 C   0  0  0  0  0  0  0  0  0  0  0  0
   12.8987  -19.8931   20.9372 C   0  0  0  0  0  0  0  0  0  0  0  0
   13.8391  -20.4245   19.9749 N   0  0  0  0  0  0  0  0  0  0  0  0
   12.5340  -18.7413   27.0461 C   0  0  0  0  0  0  0  0  0  0  0  0
   12.7301  -19.9464   27.7105 O   0  0  0  0  0  0  0  0  0  0  0  0
   12.7373  -17.7030   27.6996 O   0  0  0  0  0  0  0  0  0  0  0  0
  1  2  1  0
  2  3  1  0
  4  5  1  0
  4  3  1  0
  5  6  1  1
  7  5  1  0
  7  8  2  0
  9 10  1  0
 10 11  2  0
 11 12  1  0
 13 12  2  0
 13 14  1  0
 15 14  1  1
 15 16  1  0
 16  7  1  0
 17 15  1  0
 18 17  2  0
 19 13  1  0
 20 10  1  0
 20 19  2  0
 21 17  1  0
 22 21  1  0
 22 28  1  0
 22 23  1  6
 24 23  1  0
 25 26  1  0
 25 24  1  0
 27 26  1  0
 28 29  1  0
 30 28  2  0
M  END
$$$$
