MYK.pdb
     RDKit          3D

 30 30  0  0  1  0  0  0  0  0999 V2000
    7.9593  -11.4417   19.8772 C   0  0  0  0  0  0  0  0  0  0  0  0
    7.4007  -12.6328   18.6085 S   0  0  0  0  0  0  0  0  0  0  0  0
    7.5333  -14.3213   19.2827 C   0  0  0  0  0  0  0  0  0  0  0  0
    8.5817  -14.3715   20.3493 C   0  0  0  0  0  0  0  0  0  0  0  0
    8.7274  -15.7549   20.8924 C   0  0  2  0  0  0  0  0  0  0  0  0
    7.3412  -16.1697   21.2399 N   0  0  0  0  0  0  0  0  0  0  0  0
    9.5207  -15.7600   22.1405 C   0  0  0  0  0  0  0  0  0  0  0  0
   10.7939  -15.6679   22.1274 O   0  0  0  0  0  0  0  0  0  0  0  0
   11.1594  -15.1563   30.8734 O   0  0  0  0  0  0  0  0  0  0  0  0
   10.6023  -15.1430   29.5997 C   0  0  0  0  0  0  0  0  0  0  0  0
   10.6603  -14.0269   28.7935 C   0  0  0  0  0  0  0  0  0  0  0  0
   10.0861  -14.0841   27.5397 C   0  0  0  0  0  0  0  0  0  0  0  0
    9.4567  -15.2065   27.0560 C   0  0  0  0  0  0  0  0  0  0  0  0
    8.8327  -15.2845   25.7356 C   0  0  0  0  0  0  0  0  0  0  0  0
    9.7815  -15.7814   24.6373 C   0  0  2  0  0  0  0  0  0  0  0  0
    8.9467  -15.8615   23.4557 N   0  0  0  0  0  0  0  0  0  0  0  0
   10.2508  -17.1178   24.9967 C   0  0  0  0  0  0  0  0  0  0  0  0
    9.3590  -18.0272   25.1497 O   0  0  0  0  0  0  0  0  0  0  0  0
    9.4117  -16.3096   27.8809 C   0  0  0  0  0  0  0  0  0  0  0  0
    9.9811  -16.2865   29.1521 C   0  0  0  0  0  0  0  0  0  0  0  0
   11.5871  -17.5030   25.1895 N   0  0  0  0  0  0  0  0  0  0  0  0
   11.8665  -18.8992   25.5325 C   0  0  1  0  0  0  0  0  0  0  0  0
   12.8078  -19.5082   24.5415 C   0  0  0  0  0  0  0  0  0  0  0  0
   12.2726  -19.3532   23.1493 C   0  0  0  0  0  0  0  0  0  0  0  0
   13.1733  -19.9402   22.0898 C   0  0  0  0  0  0  0  0  0  0  0  0
   12.4899  -19.6842   20.7412 C   0  0  0  0  0  0  0  0  0  0  0  0
   13.3791  -20.1820   19.7143 N   0  0  0  0  0  0  0  0  0  0  0  0
   12.3711  -18.9468   26.9240 C   0  0  0  0  0  0  0  0  0  0  0  0
   12.5778  -20.1759   27.5392 O   0  0  0  0  0  0  0  0  0  0  0  0
   12.6293  -17.9338   27.5977 O   0  0  0  0  0  0  0  0  0  0  0  0
  1  2  1  0
  2  3  1  0
  4  5  1  0
  4  3  1  0
  5  6  1  1
  7  5  1  0
  7  8  2  0
  9 10  1  0
 10 11  2  0
 11 12  1  0
 13 12  2  0
 13 14  1  0
 15 14  1  1
 15 16  1  0
 16  7  1  0
 17 15  1  0
 18 17  2  0
 19 13  1  0
 20 10  1  0
 20 19  2  0
 21 17  1  0
 22 21  1  0
 22 28  1  0
 22 23  1  6
 24 23  1  0
 25 26  1  0
 25 24  1  0
 27 26  1  0
 28 29  1  0
 30 28  2  0
M  END
$$$$
