MYK.pdb
     RDKit          3D

 30 30  0  0  1  0  0  0  0  0999 V2000
    8.3353  -11.5354   20.3480 C   0  0  0  0  0  0  0  0  0  0  0  0
    6.9129  -12.4818   19.6989 S   0  0  0  0  0  0  0  0  0  0  0  0
    7.0127  -14.1956   20.3121 C   0  0  0  0  0  0  0  0  0  0  0  0
    8.4280  -14.6796   20.2667 C   0  0  0  0  0  0  0  0  0  0  0  0
    8.5385  -16.0641   20.8153 C   0  0  2  0  0  0  0  0  0  0  0  0
    7.1307  -16.5248   20.9578 N   0  0  0  0  0  0  0  0  0  0  0  0
    9.1450  -16.0595   22.1640 C   0  0  0  0  0  0  0  0  0  0  0  0
   10.3976  -15.8832   22.3365 O   0  0  0  0  0  0  0  0  0  0  0  0
    6.2713  -10.5861   26.4227 O   0  0  0  0  0  0  0  0  0  0  0  0
    6.7107  -11.8940   26.2521 C   0  0  0  0  0  0  0  0  0  0  0  0
    8.0023  -12.2706   26.5502 C   0  0  0  0  0  0  0  0  0  0  0  0
    8.3707  -13.5866   26.3568 C   0  0  0  0  0  0  0  0  0  0  0  0
    7.5061  -14.5426   25.8788 C   0  0  0  0  0  0  0  0  0  0  0  0
    7.8789  -15.9391   25.6563 C   0  0  0  0  0  0  0  0  0  0  0  0
    9.0425  -16.1138   24.6718 C   0  0  2  0  0  0  0  0  0  0  0  0
    8.3988  -16.2433   23.3801 N   0  0  0  0  0  0  0  0  0  0  0  0
    9.7445  -17.3539   24.9955 C   0  0  0  0  0  0  0  0  0  0  0  0
    9.1337  -18.4529   24.7409 O   0  0  0  0  0  0  0  0  0  0  0  0
    6.2201  -14.1414   25.5879 C   0  0  0  0  0  0  0  0  0  0  0  0
    5.8147  -12.8213   25.7714 C   0  0  0  0  0  0  0  0  0  0  0  0
   11.0265  -17.4578   25.5584 N   0  0  0  0  0  0  0  0  0  0  0  0
   11.5823  -18.7944   25.7820 C   0  0  1  0  0  0  0  0  0  0  0  0
   12.9676  -18.8903   25.2245 C   0  0  0  0  0  0  0  0  0  0  0  0
   13.5761  -20.2182   25.5633 C   0  0  0  0  0  0  0  0  0  0  0  0
   14.9863  -20.3820   25.0505 C   0  0  0  0  0  0  0  0  0  0  0  0
   15.4295  -21.8002   25.4290 C   0  0  0  0  0  0  0  0  0  0  0  0
   16.8306  -21.9121   25.0863 N   0  0  0  0  0  0  0  0  0  0  0  0
   11.5129  -19.0931   27.2308 C   0  0  0  0  0  0  0  0  0  0  0  0
   11.2583  -20.3925   27.6538 O   0  0  0  0  0  0  0  0  0  0  0  0
   11.6712  -18.2368   28.1187 O   0  0  0  0  0  0  0  0  0  0  0  0
  1  2  1  0
  2  3  1  0
  4  5  1  0
  4  3  1  0
  5  6  1  1
  7  5  1  0
  7  8  2  0
  9 10  1  0
 10 11  2  0
 11 12  1  0
 13 12  2  0
 13 14  1  0
 15 14  1  1
 15 16  1  0
 16  7  1  0
 17 15  1  0
 18 17  2  0
 19 13  1  0
 20 10  1  0
 20 19  2  0
 21 17  1  0
 22 21  1  0
 22 28  1  0
 22 23  1  1
 24 23  1  0
 25 26  1  0
 25 24  1  0
 27 26  1  0
 28 29  1  0
 30 28  2  0
M  END
$$$$
