MYK.pdb
     RDKit          3D

 30 30  0  0  1  0  0  0  0  0999 V2000
    5.2945  -18.6619   19.7903 C   0  0  0  0  0  0  0  0  0  0  0  0
    6.9691  -18.9043   19.0994 S   0  0  0  0  0  0  0  0  0  0  0  0
    7.8843  -17.3309   19.1997 C   0  0  0  0  0  0  0  0  0  0  0  0
    6.9575  -16.1781   18.9732 C   0  0  0  0  0  0  0  0  0  0  0  0
    7.6662  -14.8767   19.1579 C   0  0  2  0  0  0  0  0  0  0  0  0
    8.8412  -14.9568   18.2483 N   0  0  0  0  0  0  0  0  0  0  0  0
    8.1790  -14.7367   20.5379 C   0  0  0  0  0  0  0  0  0  0  0  0
    9.3534  -15.1197   20.8601 O   0  0  0  0  0  0  0  0  0  0  0  0
    8.2470  -12.9427   29.2298 O   0  0  0  0  0  0  0  0  0  0  0  0
    7.8842  -13.0466   27.8918 C   0  0  0  0  0  0  0  0  0  0  0  0
    6.7028  -13.6408   27.5040 C   0  0  0  0  0  0  0  0  0  0  0  0
    6.4058  -13.7095   26.1578 C   0  0  0  0  0  0  0  0  0  0  0  0
    7.2364  -13.2110   25.1824 C   0  0  0  0  0  0  0  0  0  0  0  0
    6.9460  -13.2833   23.7509 C   0  0  0  0  0  0  0  0  0  0  0  0
    7.9839  -14.0844   22.9543 C   0  0  2  0  0  0  0  0  0  0  0  0
    7.4236  -14.1647   21.6204 N   0  0  0  0  0  0  0  0  0  0  0  0
    8.0774  -15.4253   23.5275 C   0  0  0  0  0  0  0  0  0  0  0  0
    7.3759  -16.3460   22.9744 O   0  0  0  0  0  0  0  0  0  0  0  0
    8.4119  -12.6217   25.5953 C   0  0  0  0  0  0  0  0  0  0  0  0
    8.7428  -12.5354   26.9457 C   0  0  0  0  0  0  0  0  0  0  0  0
    8.8643  -15.8035   24.6271 N   0  0  0  0  0  0  0  0  0  0  0  0
    9.3760  -17.1750   24.6779 C   0  0  1  0  0  0  0  0  0  0  0  0
   10.1695  -17.4884   23.4486 C   0  0  0  0  0  0  0  0  0  0  0  0
   10.7536  -18.8664   23.5412 C   0  0  0  0  0  0  0  0  0  0  0  0
   11.5306  -19.2741   22.3130 C   0  0  0  0  0  0  0  0  0  0  0  0
   12.0078  -20.7115   22.5522 C   0  0  0  0  0  0  0  0  0  0  0  0
   11.3352  -21.5482   21.5824 N   0  0  0  0  0  0  0  0  0  0  0  0
   10.1487  -17.3395   25.9305 C   0  0  0  0  0  0  0  0  0  0  0  0
   10.3047  -16.2580   26.7896 O   0  0  0  0  0  0  0  0  0  0  0  0
   10.6820  -18.4088   26.2751 O   0  0  0  0  0  0  0  0  0  0  0  0
  1  2  1  0
  2  3  1  0
  4  5  1  0
  4  3  1  0
  5  6  1  6
  7  5  1  0
  7  8  2  0
  9 10  1  0
 10 11  2  0
 11 12  1  0
 13 12  2  0
 13 14  1  0
 15 14  1  1
 15 16  1  0
 16  7  1  0
 17 15  1  0
 18 17  2  0
 19 13  1  0
 20 10  1  0
 20 19  2  0
 21 17  1  0
 22 21  1  0
 22 28  1  0
 22 23  1  6
 24 23  1  0
 25 26  1  0
 25 24  1  0
 27 26  1  0
 28 29  1  0
 30 28  2  0
M  END
$$$$
