MYK.pdb
     RDKit          3D

 30 30  0  0  1  0  0  0  0  0999 V2000
    7.9295  -11.4290   19.6248 C   0  0  0  0  0  0  0  0  0  0  0  0
    7.0000  -12.6466   18.6279 S   0  0  0  0  0  0  0  0  0  0  0  0
    7.4700  -14.3267   19.1566 C   0  0  0  0  0  0  0  0  0  0  0  0
    8.3338  -14.2623   20.3768 C   0  0  0  0  0  0  0  0  0  0  0  0
    8.7076  -15.6315   20.8413 C   0  0  2  0  0  0  0  0  0  0  0  0
    7.4088  -16.2962   21.1342 N   0  0  0  0  0  0  0  0  0  0  0  0
    9.4761  -15.5782   22.1036 C   0  0  0  0  0  0  0  0  0  0  0  0
   10.7396  -15.3959   22.1134 O   0  0  0  0  0  0  0  0  0  0  0  0
   10.9801  -15.3328   30.8863 O   0  0  0  0  0  0  0  0  0  0  0  0
   10.4364  -15.2818   29.6078 C   0  0  0  0  0  0  0  0  0  0  0  0
   10.4774  -14.1336   28.8468 C   0  0  0  0  0  0  0  0  0  0  0  0
    9.9180  -14.1541   27.5852 C   0  0  0  0  0  0  0  0  0  0  0  0
    9.3199  -15.2703   27.0504 C   0  0  0  0  0  0  0  0  0  0  0  0
    8.7119  -15.3101   25.7208 C   0  0  0  0  0  0  0  0  0  0  0  0
    9.7049  -15.6523   24.6025 C   0  0  2  0  0  0  0  0  0  0  0  0
    8.8867  -15.7178   23.4085 N   0  0  0  0  0  0  0  0  0  0  0  0
   10.2787  -16.9682   24.8757 C   0  0  0  0  0  0  0  0  0  0  0  0
    9.4601  -17.9500   24.9837 O   0  0  0  0  0  0  0  0  0  0  0  0
    9.2914  -16.4060   27.8307 C   0  0  0  0  0  0  0  0  0  0  0  0
    9.8465  -16.4203   29.1083 C   0  0  0  0  0  0  0  0  0  0  0  0
   11.6430  -17.2615   25.0301 N   0  0  0  0  0  0  0  0  0  0  0  0
   12.0340  -18.6546   25.2580 C   0  0  1  0  0  0  0  0  0  0  0  0
   13.0347  -19.0959   24.2367 C   0  0  0  0  0  0  0  0  0  0  0  0
   12.4833  -18.9165   22.8538 C   0  0  0  0  0  0  0  0  0  0  0  0
   13.4421  -19.3338   21.7652 C   0  0  0  0  0  0  0  0  0  0  0  0
   12.7347  -19.0678   20.4310 C   0  0  0  0  0  0  0  0  0  0  0  0
   13.6737  -19.3963   19.3806 N   0  0  0  0  0  0  0  0  0  0  0  0
   12.5241  -18.7809   26.6497 C   0  0  0  0  0  0  0  0  0  0  0  0
   12.7528  -17.6366   27.4049 O   0  0  0  0  0  0  0  0  0  0  0  0
   12.7511  -19.8711   27.2034 O   0  0  0  0  0  0  0  0  0  0  0  0
  1  2  1  0
  2  3  1  0
  4  5  1  0
  4  3  1  0
  5  6  1  1
  7  5  1  0
  7  8  2  0
  9 10  1  0
 10 11  2  0
 11 12  1  0
 13 12  2  0
 13 14  1  0
 15 14  1  1
 15 16  1  0
 16  7  1  0
 17 15  1  0
 18 17  2  0
 19 13  1  0
 20 10  1  0
 20 19  2  0
 21 17  1  0
 22 21  1  0
 22 28  1  0
 22 23  1  6
 24 23  1  0
 25 26  1  0
 25 24  1  0
 27 26  1  0
 28 29  1  0
 30 28  2  0
M  END
$$$$
