MYK.pdb
     RDKit          3D

 30 30  0  0  1  0  0  0  0  0999 V2000
    8.4158  -11.5873   20.2572 C   0  0  0  0  0  0  0  0  0  0  0  0
    6.7901  -12.3252   20.6482 S   0  0  0  0  0  0  0  0  0  0  0  0
    7.0451  -14.0113   21.2928 C   0  0  0  0  0  0  0  0  0  0  0  0
    8.0184  -14.7527   20.4312 C   0  0  0  0  0  0  0  0  0  0  0  0
    8.3073  -16.1062   20.9920 C   0  0  2  0  0  0  0  0  0  0  0  0
    6.9694  -16.7344   21.1646 N   0  0  0  0  0  0  0  0  0  0  0  0
    8.9311  -16.0104   22.3295 C   0  0  0  0  0  0  0  0  0  0  0  0
   10.1415  -15.6340   22.4806 O   0  0  0  0  0  0  0  0  0  0  0  0
    6.4641  -10.6543   26.5885 O   0  0  0  0  0  0  0  0  0  0  0  0
    6.7613  -11.9974   26.3867 C   0  0  0  0  0  0  0  0  0  0  0  0
    5.8696  -12.8549   25.7796 C   0  0  0  0  0  0  0  0  0  0  0  0
    6.2305  -14.1765   25.6112 C   0  0  0  0  0  0  0  0  0  0  0  0
    7.4423  -14.6789   26.0224 C   0  0  0  0  0  0  0  0  0  0  0  0
    7.8398  -16.0773   25.8635 C   0  0  0  0  0  0  0  0  0  0  0  0
    8.9496  -16.2851   24.8248 C   0  0  2  0  0  0  0  0  0  0  0  0
    8.2482  -16.3197   23.5574 N   0  0  0  0  0  0  0  0  0  0  0  0
    9.5810  -17.5799   25.0704 C   0  0  0  0  0  0  0  0  0  0  0  0
    9.1620  -18.5738   24.3760 O   0  0  0  0  0  0  0  0  0  0  0  0
    8.3167  -13.8018   26.6269 C   0  0  0  0  0  0  0  0  0  0  0  0
    7.9848  -12.4616   26.8125 C   0  0  0  0  0  0  0  0  0  0  0  0
   10.6055  -17.8403   25.9944 N   0  0  0  0  0  0  0  0  0  0  0  0
   11.3046  -19.1250   25.9149 C   0  0  1  0  0  0  0  0  0  0  0  0
   11.9736  -19.2805   24.5855 C   0  0  0  0  0  0  0  0  0  0  0  0
   12.7855  -20.5409   24.5537 C   0  0  0  0  0  0  0  0  0  0  0  0
   13.5021  -20.7619   23.2437 C   0  0  0  0  0  0  0  0  0  0  0  0
   14.3242  -22.0463   23.4039 C   0  0  0  0  0  0  0  0  0  0  0  0
   15.1540  -22.1681   22.2251 N   0  0  0  0  0  0  0  0  0  0  0  0
   12.2433  -19.2179   27.0565 C   0  0  0  0  0  0  0  0  0  0  0  0
   12.3781  -20.4206   27.7400 O   0  0  0  0  0  0  0  0  0  0  0  0
   12.9379  -18.2667   27.4558 O   0  0  0  0  0  0  0  0  0  0  0  0
  1  2  1  0
  2  3  1  0
  4  5  1  0
  4  3  1  0
  5  6  1  1
  7  5  1  0
  7  8  2  0
  9 10  1  0
 10 11  2  0
 11 12  1  0
 13 12  2  0
 13 14  1  0
 15 14  1  1
 15 16  1  0
 16  7  1  0
 17 15  1  0
 18 17  2  0
 19 13  1  0
 20 10  1  0
 20 19  2  0
 21 17  1  0
 22 21  1  0
 22 28  1  0
 22 23  1  6
 24 23  1  0
 25 26  1  0
 25 24  1  0
 27 26  1  0
 28 29  1  0
 30 28  2  0
M  END
$$$$
