MYK.pdb
     RDKit          3D

 30 30  0  0  1  0  0  0  0  0999 V2000
    6.0457  -19.6635   20.3200 C   0  0  0  0  0  0  0  0  0  0  0  0
    6.4821  -18.9588   18.6911 S   0  0  0  0  0  0  0  0  0  0  0  0
    6.6387  -17.1497   18.8516 C   0  0  0  0  0  0  0  0  0  0  0  0
    7.5861  -16.8087   19.9586 C   0  0  0  0  0  0  0  0  0  0  0  0
    7.5017  -15.3594   20.3085 C   0  0  2  0  0  0  0  0  0  0  0  0
    8.1280  -14.6578   19.1553 N   0  0  0  0  0  0  0  0  0  0  0  0
    8.3070  -15.0501   21.5096 C   0  0  0  0  0  0  0  0  0  0  0  0
    9.5681  -14.8631   21.4429 O   0  0  0  0  0  0  0  0  0  0  0  0
   10.1534  -14.8242   30.2055 O   0  0  0  0  0  0  0  0  0  0  0  0
    9.5274  -14.7956   28.9645 C   0  0  0  0  0  0  0  0  0  0  0  0
    8.9478  -15.9199   28.4176 C   0  0  0  0  0  0  0  0  0  0  0  0
    8.3430  -15.8194   27.1810 C   0  0  0  0  0  0  0  0  0  0  0  0
    8.2917  -14.6458   26.4669 C   0  0  0  0  0  0  0  0  0  0  0  0
    7.6659  -14.5203   25.1510 C   0  0  0  0  0  0  0  0  0  0  0  0
    8.6263  -14.7949   23.9866 C   0  0  2  0  0  0  0  0  0  0  0  0
    7.7584  -14.9284   22.8340 N   0  0  0  0  0  0  0  0  0  0  0  0
    9.3090  -16.0628   24.2349 C   0  0  0  0  0  0  0  0  0  0  0  0
    8.5951  -17.1278   24.1900 O   0  0  0  0  0  0  0  0  0  0  0  0
    8.8784  -13.5355   27.0347 C   0  0  0  0  0  0  0  0  0  0  0  0
    9.4972  -13.6015   28.2811 C   0  0  0  0  0  0  0  0  0  0  0  0
   10.6744  -16.2275   24.5170 N   0  0  0  0  0  0  0  0  0  0  0  0
   11.2098  -17.5887   24.5951 C   0  0  1  0  0  0  0  0  0  0  0  0
   12.3232  -17.7752   23.6130 C   0  0  0  0  0  0  0  0  0  0  0  0
   12.9167  -19.1455   23.7502 C   0  0  0  0  0  0  0  0  0  0  0  0
   14.0383  -19.4154   22.7769 C   0  0  0  0  0  0  0  0  0  0  0  0
   14.4450  -20.8811   22.9708 C   0  0  0  0  0  0  0  0  0  0  0  0
   15.4984  -21.1581   22.0186 N   0  0  0  0  0  0  0  0  0  0  0  0
   11.6145  -17.8522   25.9950 C   0  0  0  0  0  0  0  0  0  0  0  0
   11.5197  -19.1408   26.5075 O   0  0  0  0  0  0  0  0  0  0  0  0
   12.0451  -16.9749   26.7641 O   0  0  0  0  0  0  0  0  0  0  0  0
  1  2  1  0
  2  3  1  0
  4  5  1  0
  4  3  1  0
  5  6  1  6
  7  5  1  0
  7  8  2  0
  9 10  1  0
 10 11  2  0
 11 12  1  0
 13 12  2  0
 13 14  1  0
 15 14  1  1
 15 16  1  0
 16  7  1  0
 17 15  1  0
 18 17  2  0
 19 13  1  0
 20 10  1  0
 20 19  2  0
 21 17  1  0
 22 21  1  0
 22 28  1  0
 22 23  1  6
 24 23  1  0
 25 26  1  0
 25 24  1  0
 27 26  1  0
 28 29  1  0
 30 28  2  0
M  END
$$$$
