MYK.pdb
     RDKit          3D

 30 30  0  0  1  0  0  0  0  0999 V2000
    7.5589  -11.3067   19.8208 C   0  0  0  0  0  0  0  0  0  0  0  0
    7.0521  -12.4873   18.5208 S   0  0  0  0  0  0  0  0  0  0  0  0
    7.5636  -14.1661   19.0139 C   0  0  0  0  0  0  0  0  0  0  0  0
    8.4736  -14.1021   20.2001 C   0  0  0  0  0  0  0  0  0  0  0  0
    8.8245  -15.4718   20.6806 C   0  0  2  0  0  0  0  0  0  0  0  0
    7.5150  -16.1094   20.9859 N   0  0  0  0  0  0  0  0  0  0  0  0
    9.5981  -15.4165   21.9397 C   0  0  0  0  0  0  0  0  0  0  0  0
   10.8467  -15.1510   21.9497 O   0  0  0  0  0  0  0  0  0  0  0  0
   11.0369  -15.4560   30.7376 O   0  0  0  0  0  0  0  0  0  0  0  0
   10.5120  -15.3426   29.4553 C   0  0  0  0  0  0  0  0  0  0  0  0
   10.5146  -14.1453   28.7730 C   0  0  0  0  0  0  0  0  0  0  0  0
    9.9769  -14.1050   27.5025 C   0  0  0  0  0  0  0  0  0  0  0  0
    9.4368  -15.2074   26.8838 C   0  0  0  0  0  0  0  0  0  0  0  0
    8.8523  -15.1838   25.5433 C   0  0  0  0  0  0  0  0  0  0  0  0
    9.8468  -15.5506   24.4342 C   0  0  2  0  0  0  0  0  0  0  0  0
    9.0298  -15.6456   23.2414 N   0  0  0  0  0  0  0  0  0  0  0  0
   10.4226  -16.8587   24.7388 C   0  0  0  0  0  0  0  0  0  0  0  0
    9.6246  -17.8631   24.7301 O   0  0  0  0  0  0  0  0  0  0  0  0
    9.4456  -16.3929   27.5864 C   0  0  0  0  0  0  0  0  0  0  0  0
    9.9805  -16.4692   28.8705 C   0  0  0  0  0  0  0  0  0  0  0  0
   11.7685  -17.1221   25.0392 N   0  0  0  0  0  0  0  0  0  0  0  0
   12.1839  -18.5164   25.2089 C   0  0  1  0  0  0  0  0  0  0  0  0
   13.1631  -18.9085   24.1475 C   0  0  0  0  0  0  0  0  0  0  0  0
   12.5119  -18.8728   22.7972 C   0  0  0  0  0  0  0  0  0  0  0  0
   13.4344  -19.2786   21.6736 C   0  0  0  0  0  0  0  0  0  0  0  0
   12.6009  -19.2452   20.3870 C   0  0  0  0  0  0  0  0  0  0  0  0
   13.5085  -19.4909   19.2875 N   0  0  0  0  0  0  0  0  0  0  0  0
   12.7120  -18.6831   26.5823 C   0  0  0  0  0  0  0  0  0  0  0  0
   13.1049  -17.5649   27.3085 O   0  0  0  0  0  0  0  0  0  0  0  0
   12.8312  -19.7857   27.1450 O   0  0  0  0  0  0  0  0  0  0  0  0
  1  2  1  0
  2  3  1  0
  4  5  1  0
  4  3  1  0
  5  6  1  1
  7  5  1  0
  7  8  2  0
  9 10  1  0
 10 11  2  0
 11 12  1  0
 13 12  2  0
 13 14  1  0
 15 14  1  1
 15 16  1  0
 16  7  1  0
 17 15  1  0
 18 17  2  0
 19 13  1  0
 20 10  1  0
 20 19  2  0
 21 17  1  0
 22 21  1  0
 22 28  1  0
 22 23  1  6
 24 23  1  0
 25 26  1  0
 25 24  1  0
 27 26  1  0
 28 29  1  0
 30 28  2  0
M  END
$$$$
