MYK.pdb
     RDKit          3D

 30 30  0  0  1  0  0  0  0  0999 V2000
    7.9622  -11.6636   18.7435 C   0  0  0  0  0  0  0  0  0  0  0  0
    6.8705  -13.0948   18.4271 S   0  0  0  0  0  0  0  0  0  0  0  0
    7.4323  -14.5030   19.4394 C   0  0  0  0  0  0  0  0  0  0  0  0
    8.7600  -14.9926   18.9528 C   0  0  0  0  0  0  0  0  0  0  0  0
    9.2449  -16.1372   19.7805 C   0  0  2  0  0  0  0  0  0  0  0  0
    8.1145  -17.1048   19.7818 N   0  0  0  0  0  0  0  0  0  0  0  0
    9.4804  -15.7243   21.1809 C   0  0  0  0  0  0  0  0  0  0  0  0
   10.5453  -15.1136   21.5310 O   0  0  0  0  0  0  0  0  0  0  0  0
    7.7760  -12.8777   29.3326 O   0  0  0  0  0  0  0  0  0  0  0  0
    7.6773  -13.4297   28.0604 C   0  0  0  0  0  0  0  0  0  0  0  0
    7.0503  -14.6368   27.8395 C   0  0  0  0  0  0  0  0  0  0  0  0
    6.9887  -15.1258   26.5503 C   0  0  0  0  0  0  0  0  0  0  0  0
    7.5256  -14.4625   25.4725 C   0  0  0  0  0  0  0  0  0  0  0  0
    7.4809  -14.9680   24.1009 C   0  0  0  0  0  0  0  0  0  0  0  0
    8.8326  -15.4883   23.5948 C   0  0  2  0  0  0  0  0  0  0  0  0
    8.5521  -15.9610   22.2541 N   0  0  0  0  0  0  0  0  0  0  0  0
    9.2431  -16.6118   24.4342 C   0  0  0  0  0  0  0  0  0  0  0  0
    8.4712  -17.6362   24.4553 O   0  0  0  0  0  0  0  0  0  0  0  0
    8.1474  -13.2575   25.7190 C   0  0  0  0  0  0  0  0  0  0  0  0
    8.2275  -12.7347   27.0078 C   0  0  0  0  0  0  0  0  0  0  0  0
   10.4045  -16.6780   25.2203 N   0  0  0  0  0  0  0  0  0  0  0  0
   10.6139  -17.8638   26.0542 C   0  0  1  0  0  0  0  0  0  0  0  0
   11.9134  -18.5242   25.7162 C   0  0  0  0  0  0  0  0  0  0  0  0
   11.9405  -18.9133   24.2683 C   0  0  0  0  0  0  0  0  0  0  0  0
   13.2140  -19.6111   23.8567 C   0  0  0  0  0  0  0  0  0  0  0  0
   13.0368  -20.0193   22.3894 C   0  0  0  0  0  0  0  0  0  0  0  0
   14.2402  -20.7193   21.9959 N   0  0  0  0  0  0  0  0  0  0  0  0
   10.5157  -17.4591   27.4753 C   0  0  0  0  0  0  0  0  0  0  0  0
   10.9523  -16.1977   27.8631 O   0  0  0  0  0  0  0  0  0  0  0  0
   10.0567  -18.1914   28.3696 O   0  0  0  0  0  0  0  0  0  0  0  0
  1  2  1  0
  2  3  1  0
  4  5  1  0
  4  3  1  0
  5  6  1  1
  7  5  1  0
  7  8  2  0
  9 10  1  0
 10 11  2  0
 11 12  1  0
 13 12  2  0
 13 14  1  0
 15 14  1  1
 15 16  1  0
 16  7  1  0
 17 15  1  0
 18 17  2  0
 19 13  1  0
 20 10  1  0
 20 19  2  0
 21 17  1  0
 22 21  1  0
 22 28  1  0
 22 23  1  1
 24 23  1  0
 25 26  1  0
 25 24  1  0
 27 26  1  0
 28 29  1  0
 30 28  2  0
M  END
$$$$
