MYK.pdb
     RDKit          3D

 30 30  0  0  1  0  0  0  0  0999 V2000
    7.2564  -17.1481   15.9145 C   0  0  0  0  0  0  0  0  0  0  0  0
    8.6374  -15.9634   15.7422 S   0  0  0  0  0  0  0  0  0  0  0  0
    8.3311  -14.5348   16.8323 C   0  0  0  0  0  0  0  0  0  0  0  0
    9.1956  -14.6192   18.0508 C   0  0  0  0  0  0  0  0  0  0  0  0
    8.6151  -15.5595   19.0553 C   0  0  2  0  0  0  0  0  0  0  0  0
    7.1436  -15.4559   18.8599 N   0  0  0  0  0  0  0  0  0  0  0  0
    8.9138  -15.1208   20.4356 C   0  0  0  0  0  0  0  0  0  0  0  0
   10.1118  -15.0302   20.8671 O   0  0  0  0  0  0  0  0  0  0  0  0
    7.6989  -12.1101   28.6793 O   0  0  0  0  0  0  0  0  0  0  0  0
    7.4893  -12.5271   27.3697 C   0  0  0  0  0  0  0  0  0  0  0  0
    6.3936  -13.2841   27.0155 C   0  0  0  0  0  0  0  0  0  0  0  0
    6.2481  -13.6633   25.6964 C   0  0  0  0  0  0  0  0  0  0  0  0
    7.1485  -13.3199   24.7160 C   0  0  0  0  0  0  0  0  0  0  0  0
    7.0190  -13.7203   23.3153 C   0  0  0  0  0  0  0  0  0  0  0  0
    8.2726  -14.4042   22.7546 C   0  0  2  0  0  0  0  0  0  0  0  0
    7.9076  -14.7582   21.3978 N   0  0  0  0  0  0  0  0  0  0  0  0
    8.5252  -15.6190   23.5265 C   0  0  0  0  0  0  0  0  0  0  0  0
    7.6025  -16.5103   23.5292 O   0  0  0  0  0  0  0  0  0  0  0  0
    8.2359  -12.5627   25.0950 C   0  0  0  0  0  0  0  0  0  0  0  0
    8.4136  -12.1627   26.4176 C   0  0  0  0  0  0  0  0  0  0  0  0
    9.6839  -15.9052   24.2658 N   0  0  0  0  0  0  0  0  0  0  0  0
    9.7754  -17.2009   24.9427 C   0  0  1  0  0  0  0  0  0  0  0  0
   10.9442  -17.9826   24.4307 C   0  0  0  0  0  0  0  0  0  0  0  0
   10.6590  -18.5082   23.0556 C   0  0  0  0  0  0  0  0  0  0  0  0
   11.7867  -19.3297   22.4797 C   0  0  0  0  0  0  0  0  0  0  0  0
   11.4031  -19.6470   21.0295 C   0  0  0  0  0  0  0  0  0  0  0  0
   12.4758  -20.4412   20.4714 N   0  0  0  0  0  0  0  0  0  0  0  0
    9.8258  -16.9628   26.4034 C   0  0  0  0  0  0  0  0  0  0  0  0
    9.3060  -17.9138   27.2737 O   0  0  0  0  0  0  0  0  0  0  0  0
   10.3148  -15.9417   26.9181 O   0  0  0  0  0  0  0  0  0  0  0  0
  1  2  1  0
  2  3  1  0
  4  5  1  0
  4  3  1  0
  5  6  1  1
  7  5  1  0
  7  8  2  0
  9 10  1  0
 10 11  2  0
 11 12  1  0
 13 12  2  0
 13 14  1  0
 15 14  1  1
 15 16  1  0
 16  7  1  0
 17 15  1  0
 18 17  2  0
 19 13  1  0
 20 10  1  0
 20 19  2  0
 21 17  1  0
 22 21  1  0
 22 28  1  0
 22 23  1  6
 24 23  1  0
 25 26  1  0
 25 24  1  0
 27 26  1  0
 28 29  1  0
 30 28  2  0
M  END
$$$$
