MYK.pdb
     RDKit          3D

 30 30  0  0  1  0  0  0  0  0999 V2000
    5.7003  -11.2932   26.5716 C   0  0  0  0  0  0  0  0  0  0  0  0
    6.5426  -12.7894   25.9452 S   0  0  0  0  0  0  0  0  0  0  0  0
    5.8607  -14.2516   26.7937 C   0  0  0  0  0  0  0  0  0  0  0  0
    6.5233  -15.4962   26.2926 C   0  0  0  0  0  0  0  0  0  0  0  0
    6.0852  -15.8130   24.9006 C   0  0  2  0  0  0  0  0  0  0  0  0
    5.3010  -17.0709   25.0310 N   0  0  0  0  0  0  0  0  0  0  0  0
    7.2431  -16.0978   24.0259 C   0  0  0  0  0  0  0  0  0  0  0  0
    7.5872  -17.2922   23.7347 O   0  0  0  0  0  0  0  0  0  0  0  0
    7.5017  -13.9615   16.4505 O   0  0  0  0  0  0  0  0  0  0  0  0
    7.9416  -13.9605   17.7693 C   0  0  0  0  0  0  0  0  0  0  0  0
    7.4862  -13.0377   18.6858 C   0  0  0  0  0  0  0  0  0  0  0  0
    7.9656  -13.0952   19.9788 C   0  0  0  0  0  0  0  0  0  0  0  0
    8.8794  -14.0334   20.3965 C   0  0  0  0  0  0  0  0  0  0  0  0
    9.4081  -14.1050   21.7582 C   0  0  0  0  0  0  0  0  0  0  0  0
    9.0950  -15.4281   22.4688 C   0  0  2  0  0  0  0  0  0  0  0  0
    8.0683  -15.0808   23.4304 N   0  0  0  0  0  0  0  0  0  0  0  0
   10.2952  -15.8738   23.1734 C   0  0  0  0  0  0  0  0  0  0  0  0
   10.6436  -15.2055   24.2116 O   0  0  0  0  0  0  0  0  0  0  0  0
    9.3197  -14.9452   19.4616 C   0  0  0  0  0  0  0  0  0  0  0  0
    8.8566  -14.9160   18.1481 C   0  0  0  0  0  0  0  0  0  0  0  0
   11.1042  -16.9664   22.8231 N   0  0  0  0  0  0  0  0  0  0  0  0
   12.2169  -17.3205   23.7074 C   0  0  1  0  0  0  0  0  0  0  0  0
   12.0746  -18.7271   24.1977 C   0  0  0  0  0  0  0  0  0  0  0  0
   11.8384  -18.7427   25.6784 C   0  0  0  0  0  0  0  0  0  0  0  0
   11.7818  -20.1328   26.2639 C   0  0  0  0  0  0  0  0  0  0  0  0
   11.5712  -19.9655   27.7735 C   0  0  0  0  0  0  0  0  0  0  0  0
   11.4107  -21.2918   28.3286 N   0  0  0  0  0  0  0  0  0  0  0  0
   13.4853  -17.0794   22.9823 C   0  0  0  0  0  0  0  0  0  0  0  0
   14.6692  -16.9357   23.6963 O   0  0  0  0  0  0  0  0  0  0  0  0
   13.5652  -16.9944   21.7441 O   0  0  0  0  0  0  0  0  0  0  0  0
  1  2  1  0
  2  3  1  0
  4  5  1  0
  4  3  1  0
  5  6  1  1
  7  5  1  0
  7  8  2  0
  9 10  1  0
 10 11  2  0
 11 12  1  0
 13 12  2  0
 13 14  1  0
 15 14  1  1
 15 16  1  0
 16  7  1  0
 17 15  1  0
 18 17  2  0
 19 13  1  0
 20 10  1  0
 20 19  2  0
 21 17  1  0
 22 21  1  0
 22 28  1  0
 22 23  1  6
 24 23  1  0
 25 26  1  0
 25 24  1  0
 27 26  1  0
 28 29  1  0
 30 28  2  0
M  END
$$$$
