FWP.pdb
     RDKit          3D

 33 36  0  0  1  0  0  0  0  0999 V2000
   23.8569  -16.7331  -19.9754 N   0  0  0  0  0  0  0  0  0  0  0  0
   23.2654  -17.1582  -18.7122 C   0  0  1  0  0  0  0  0  0  0  0  0
   22.0679  -18.0274  -18.9193 C   0  0  0  0  0  0  0  0  0  0  0  0
   20.9036  -17.2924  -19.4506 C   0  0  0  0  0  0  0  0  0  0  0  0
   20.2646  -16.3756  -18.6415 C   0  0  0  0  0  0  0  0  0  0  0  0
   19.1544  -15.6677  -19.1110 C   0  0  0  0  0  0  0  0  0  0  0  0
   18.6754  -15.8676  -20.3841 C   0  0  0  0  0  0  0  0  0  0  0  0
   19.3230  -16.7848  -21.1795 C   0  0  0  0  0  0  0  0  0  0  0  0
   20.4252  -17.4862  -20.7106 C   0  0  0  0  0  0  0  0  0  0  0  0
   24.2612  -17.9095  -17.9121 C   0  0  0  0  0  0  0  0  0  0  0  0
   25.0524  -18.6805  -18.5008 O   0  0  0  0  0  0  0  0  0  0  0  0
   24.3575  -17.7948  -16.5061 N   0  0  0  0  0  0  0  0  0  0  0  0
   25.2740  -18.6220  -15.7957 C   0  0  1  0  0  0  0  0  0  0  0  0
   25.6605  -18.0211  -14.4486 C   0  0  0  0  0  0  0  0  0  0  0  0
   26.5360  -18.9229  -13.6565 C   0  0  0  0  0  0  0  0  0  0  0  0
   27.8872  -19.1653  -13.9614 C   0  0  0  0  0  0  0  0  0  0  0  0
   28.3953  -19.9885  -13.0374 N   0  0  0  0  0  0  0  0  0  0  0  0
   27.4261  -20.2797  -12.1611 C   0  0  0  0  0  0  0  0  0  0  0  0
   27.3699  -21.0766  -11.0190 C   0  0  0  0  0  0  0  0  0  0  0  0
   26.2075  -21.2079  -10.2923 C   0  0  0  0  0  0  0  0  0  0  0  0
   25.0565  -20.5552  -10.6700 C   0  0  0  0  0  0  0  0  0  0  0  0
   25.1094  -19.7674  -11.7971 C   0  0  0  0  0  0  0  0  0  0  0  0
   26.2581  -19.6294  -12.5244 C   0  0  0  0  0  0  0  0  0  0  0  0
   24.7735  -19.9964  -15.5807 C   0  0  0  0  0  0  0  0  0  0  0  0
   23.5294  -20.1255  -15.4859 O   0  0  0  0  0  0  0  0  0  0  0  0
   25.5801  -21.1569  -15.4775 N   0  0  0  0  0  0  0  0  0  0  0  0
   26.9998  -21.3060  -15.4204 C   0  0  0  0  0  0  0  0  0  0  0  0
   27.2567  -22.5667  -16.2204 C   0  0  0  0  0  0  0  0  0  0  0  0
   25.9188  -23.2430  -16.3994 C   0  0  0  0  0  0  0  0  0  0  0  0
   25.0237  -22.5015  -15.4265 C   0  0  1  0  0  0  0  0  0  0  0  0
   25.1503  -23.0888  -14.0756 C   0  0  0  0  0  0  0  0  0  0  0  0
   26.2077  -22.8097  -13.2284 O   0  0  0  0  0  0  0  0  0  0  0  0
   24.2640  -23.8749  -13.6755 O   0  0  0  0  0  0  0  0  0  0  0  0
  2  3  1  0
  2  1  1  6
  3  4  1  0
  4  9  2  0
  5  6  2  0
  5  4  1  0
  6  7  1  0
  7  8  2  0
  9  8  1  0
 10  2  1  0
 10 11  2  0
 12 10  1  0
 13 12  1  0
 13 14  1  1
 15 14  1  0
 15 23  1  0
 16 15  2  0
 17 16  1  0
 17 18  1  0
 18 19  1  0
 18 23  2  0
 19 20  2  0
 20 21  1  0
 22 21  2  0
 23 22  1  0
 24 13  1  0
 24 26  1  0
 25 24  2  0
 26 30  1  0
 27 26  1  0
 27 28  1  0
 28 29  1  0
 30 29  1  0
 31 32  1  0
 30 31  1  1
 33 31  2  0
M  END
$$$$
