FWP.pdb
     RDKit          3D

 33 36  0  0  1  0  0  0  0  0999 V2000
   27.6054  -20.2792  -19.9857 N   0  0  0  0  0  0  0  0  0  0  0  0
   26.4000  -19.8223  -19.3040 C   0  0  1  0  0  0  0  0  0  0  0  0
   25.1650  -20.1229  -20.0894 C   0  0  0  0  0  0  0  0  0  0  0  0
   24.6647  -18.9608  -20.8492 C   0  0  0  0  0  0  0  0  0  0  0  0
   25.1905  -18.7007  -22.0980 C   0  0  0  0  0  0  0  0  0  0  0  0
   24.7443  -17.6039  -22.8411 C   0  0  0  0  0  0  0  0  0  0  0  0
   23.7755  -16.7626  -22.3472 C   0  0  0  0  0  0  0  0  0  0  0  0
   23.2604  -17.0346  -21.1007 C   0  0  0  0  0  0  0  0  0  0  0  0
   23.7053  -18.1244  -20.3651 C   0  0  0  0  0  0  0  0  0  0  0  0
   26.2872  -20.4756  -17.9786 C   0  0  0  0  0  0  0  0  0  0  0  0
   26.5739  -21.6898  -17.8766 O   0  0  0  0  0  0  0  0  0  0  0  0
   25.8667  -19.7856  -16.8182 N   0  0  0  0  0  0  0  0  0  0  0  0
   25.6713  -20.5064  -15.6054 C   0  0  1  0  0  0  0  0  0  0  0  0
   25.9788  -19.6547  -14.3785 C   0  0  0  0  0  0  0  0  0  0  0  0
   25.8294  -20.4140  -13.1103 C   0  0  0  0  0  0  0  0  0  0  0  0
   26.8765  -21.1257  -12.4982 C   0  0  0  0  0  0  0  0  0  0  0  0
   26.4235  -21.6621  -11.3596 N   0  0  0  0  0  0  0  0  0  0  0  0
   25.1356  -21.3232  -11.2231 C   0  0  0  0  0  0  0  0  0  0  0  0
   24.1665  -21.5957  -10.2593 C   0  0  0  0  0  0  0  0  0  0  0  0
   22.8815  -21.1148  -10.3778 C   0  0  0  0  0  0  0  0  0  0  0  0
   22.5078  -20.3461  -11.4563 C   0  0  0  0  0  0  0  0  0  0  0  0
   23.4630  -20.0753  -12.4093 C   0  0  0  0  0  0  0  0  0  0  0  0
   24.7411  -20.5467  -12.3003 C   0  0  0  0  0  0  0  0  0  0  0  0
   24.3088  -21.0643  -15.4714 C   0  0  0  0  0  0  0  0  0  0  0  0
   23.3802  -20.3883  -15.9756 O   0  0  0  0  0  0  0  0  0  0  0  0
   23.9808  -22.2841  -14.8292 N   0  0  0  0  0  0  0  0  0  0  0  0
   24.7789  -23.1695  -14.0415 C   0  0  0  0  0  0  0  0  0  0  0  0
   24.2784  -24.5440  -14.4357 C   0  0  0  0  0  0  0  0  0  0  0  0
   22.9834  -24.3328  -15.1826 C   0  0  0  0  0  0  0  0  0  0  0  0
   22.6543  -22.8804  -14.8999 C   0  0  1  0  0  0  0  0  0  0  0  0
   21.9400  -22.7662  -13.6105 C   0  0  0  0  0  0  0  0  0  0  0  0
   20.5700  -22.9167  -13.4917 O   0  0  0  0  0  0  0  0  0  0  0  0
   22.5996  -22.5220  -12.5766 O   0  0  0  0  0  0  0  0  0  0  0  0
  2  3  1  0
  2  1  1  6
  3  4  1  0
  4  9  2  0
  5  6  2  0
  5  4  1  0
  6  7  1  0
  7  8  2  0
  9  8  1  0
 10  2  1  0
 10 11  2  0
 12 10  1  0
 13 12  1  0
 13 14  1  1
 15 14  1  0
 15 23  1  0
 16 15  2  0
 17 16  1  0
 17 18  1  0
 18 19  1  0
 18 23  2  0
 19 20  2  0
 20 21  1  0
 22 21  2  0
 23 22  1  0
 24 13  1  0
 24 26  1  0
 25 24  2  0
 26 30  1  0
 27 26  1  0
 27 28  1  0
 28 29  1  0
 30 29  1  0
 31 32  1  0
 30 31  1  1
 33 31  2  0
M  END
$$$$
