FWP.pdb
     RDKit          3D

 33 36  0  0  1  0  0  0  0  0999 V2000
   25.5258  -19.1220  -14.0597 N   0  0  0  0  0  0  0  0  0  0  0  0
   26.7599  -19.1914  -13.2859 C   0  0  1  0  0  0  0  0  0  0  0  0
   27.6257  -17.9935  -13.5047 C   0  0  0  0  0  0  0  0  0  0  0  0
   28.1943  -17.9305  -14.8652 C   0  0  0  0  0  0  0  0  0  0  0  0
   27.9215  -16.8323  -15.6546 C   0  0  0  0  0  0  0  0  0  0  0  0
   28.4381  -16.7445  -16.9505 C   0  0  0  0  0  0  0  0  0  0  0  0
   29.2264  -17.7458  -17.4665 C   0  0  0  0  0  0  0  0  0  0  0  0
   29.4900  -18.8346  -16.6677 C   0  0  0  0  0  0  0  0  0  0  0  0
   28.9757  -18.9191  -15.3812 C   0  0  0  0  0  0  0  0  0  0  0  0
   26.4484  -19.2910  -11.8405 C   0  0  0  0  0  0  0  0  0  0  0  0
   25.7528  -18.3964  -11.3088 O   0  0  0  0  0  0  0  0  0  0  0  0
   26.9052  -20.3561  -11.0304 N   0  0  0  0  0  0  0  0  0  0  0  0
   26.4942  -20.4282   -9.6686 C   0  0  1  0  0  0  0  0  0  0  0  0
   25.5435  -21.5941   -9.4195 C   0  0  0  0  0  0  0  0  0  0  0  0
   24.1285  -21.2416   -9.7036 C   0  0  0  0  0  0  0  0  0  0  0  0
   23.2438  -20.7256   -8.7400 C   0  0  0  0  0  0  0  0  0  0  0  0
   22.0658  -20.4814   -9.3252 N   0  0  0  0  0  0  0  0  0  0  0  0
   22.1641  -20.8208  -10.6164 C   0  0  0  0  0  0  0  0  0  0  0  0
   21.2733  -20.7946  -11.6880 C   0  0  0  0  0  0  0  0  0  0  0  0
   21.6468  -21.2240  -12.9421 C   0  0  0  0  0  0  0  0  0  0  0  0
   22.9169  -21.6962  -13.1818 C   0  0  0  0  0  0  0  0  0  0  0  0
   23.7985  -21.7227  -12.1254 C   0  0  0  0  0  0  0  0  0  0  0  0
   23.4382  -21.2977  -10.8776 C   0  0  0  0  0  0  0  0  0  0  0  0
   27.6257  -20.5228   -8.7219 C   0  0  0  0  0  0  0  0  0  0  0  0
   28.6404  -21.1375   -9.1294 O   0  0  0  0  0  0  0  0  0  0  0  0
   27.6491  -19.9789   -7.4136 N   0  0  0  0  0  0  0  0  0  0  0  0
   26.6735  -19.2159   -6.7014 C   0  0  0  0  0  0  0  0  0  0  0  0
   27.5046  -18.2224   -5.9156 C   0  0  0  0  0  0  0  0  0  0  0  0
   28.9317  -18.7114   -5.9767 C   0  0  0  0  0  0  0  0  0  0  0  0
   28.7918  -20.1187   -6.5221 C   0  0  1  0  0  0  0  0  0  0  0  0
   28.5061  -21.0615   -5.4196 C   0  0  0  0  0  0  0  0  0  0  0  0
   27.3103  -21.7477   -5.3054 O   0  0  0  0  0  0  0  0  0  0  0  0
   29.3819  -21.2509   -4.5474 O   0  0  0  0  0  0  0  0  0  0  0  0
  2  3  1  0
  2  1  1  6
  3  4  1  0
  4  9  2  0
  5  6  2  0
  5  4  1  0
  6  7  1  0
  7  8  2  0
  9  8  1  0
 10  2  1  0
 10 11  2  0
 12 10  1  0
 13 12  1  0
 13 14  1  6
 15 14  1  0
 15 23  1  0
 16 15  2  0
 17 16  1  0
 17 18  1  0
 18 19  1  0
 18 23  2  0
 19 20  2  0
 20 21  1  0
 22 21  2  0
 23 22  1  0
 24 13  1  0
 24 26  1  0
 25 24  2  0
 26 30  1  0
 27 26  1  0
 27 28  1  0
 28 29  1  0
 30 29  1  0
 31 32  1  0
 30 31  1  1
 33 31  2  0
M  END
$$$$
