FWP.pdb
     RDKit          3D

 33 36  0  0  1  0  0  0  0  0999 V2000
   25.7984  -18.6256  -17.6581 N   0  0  0  0  0  0  0  0  0  0  0  0
   26.7237  -19.0928  -16.6324 C   0  0  1  0  0  0  0  0  0  0  0  0
   27.7823  -18.0822  -16.3314 C   0  0  0  0  0  0  0  0  0  0  0  0
   28.7545  -17.9172  -17.4294 C   0  0  0  0  0  0  0  0  0  0  0  0
   28.8622  -16.6893  -18.0493 C   0  0  0  0  0  0  0  0  0  0  0  0
   29.7677  -16.5010  -19.0975 C   0  0  0  0  0  0  0  0  0  0  0  0
   30.5685  -17.5302  -19.5332 C   0  0  0  0  0  0  0  0  0  0  0  0
   30.4502  -18.7488  -18.9053 C   0  0  0  0  0  0  0  0  0  0  0  0
   29.5502  -18.9328  -17.8647 C   0  0  0  0  0  0  0  0  0  0  0  0
   25.9872  -19.3918  -15.3817 C   0  0  0  0  0  0  0  0  0  0  0  0
   25.1885  -18.5394  -14.9319 O   0  0  0  0  0  0  0  0  0  0  0  0
   26.1480  -20.6026  -14.6693 N   0  0  0  0  0  0  0  0  0  0  0  0
   25.3958  -20.8221  -13.4799 C   0  0  1  0  0  0  0  0  0  0  0  0
   24.4162  -21.9811  -13.6289 C   0  0  0  0  0  0  0  0  0  0  0  0
   23.2906  -21.6573  -14.5430 C   0  0  0  0  0  0  0  0  0  0  0  0
   23.3009  -21.9321  -15.9220 C   0  0  0  0  0  0  0  0  0  0  0  0
   22.1290  -21.5534  -16.4444 N   0  0  0  0  0  0  0  0  0  0  0  0
   21.3769  -21.0496  -15.4583 C   0  0  0  0  0  0  0  0  0  0  0  0
   20.0953  -20.5041  -15.4090 C   0  0  0  0  0  0  0  0  0  0  0  0
   19.5576  -20.0409  -14.2288 C   0  0  0  0  0  0  0  0  0  0  0  0
   20.2696  -20.0999  -13.0528 C   0  0  0  0  0  0  0  0  0  0  0  0
   21.5351  -20.6385  -13.0986 C   0  0  0  0  0  0  0  0  0  0  0  0
   22.0773  -21.1021  -14.2642 C   0  0  0  0  0  0  0  0  0  0  0  0
   26.2411  -21.0600  -12.2906 C   0  0  0  0  0  0  0  0  0  0  0  0
   27.3664  -21.5720  -12.5029 O   0  0  0  0  0  0  0  0  0  0  0  0
   25.8816  -20.7563  -10.9539 N   0  0  0  0  0  0  0  0  0  0  0  0
   24.7037  -20.1511  -10.4176 C   0  0  0  0  0  0  0  0  0  0  0  0
   25.2292  -19.2963   -9.2826 C   0  0  0  0  0  0  0  0  0  0  0  0
   26.6513  -19.7381   -9.0336 C   0  0  0  0  0  0  0  0  0  0  0  0
   26.7551  -21.0290   -9.8213 C   0  0  1  0  0  0  0  0  0  0  0  0
   26.2523  -22.1578   -9.0095 C   0  0  0  0  0  0  0  0  0  0  0  0
   26.9618  -22.7021   -7.9541 O   0  0  0  0  0  0  0  0  0  0  0  0
   25.1351  -22.6471   -9.2855 O   0  0  0  0  0  0  0  0  0  0  0  0
  2  3  1  0
  2  1  1  6
  3  4  1  0
  4  9  2  0
  5  6  2  0
  5  4  1  0
  6  7  1  0
  7  8  2  0
  9  8  1  0
 10  2  1  0
 10 11  2  0
 12 10  1  0
 13 12  1  0
 13 14  1  6
 15 14  1  0
 15 23  1  0
 16 15  2  0
 17 16  1  0
 17 18  1  0
 18 19  1  0
 18 23  2  0
 19 20  2  0
 20 21  1  0
 22 21  2  0
 23 22  1  0
 24 13  1  0
 24 26  1  0
 25 24  2  0
 26 30  1  0
 27 26  1  0
 27 28  1  0
 28 29  1  0
 30 29  1  0
 31 32  1  0
 30 31  1  1
 33 31  2  0
M  END
$$$$
