FWP.pdb
     RDKit          3D

 33 36  0  0  1  0  0  0  0  0999 V2000
   26.4702  -21.9699  -12.0807 N   0  0  0  0  0  0  0  0  0  0  0  0
   25.4747  -20.9183  -12.2526 C   0  0  1  0  0  0  0  0  0  0  0  0
   25.5360  -19.9050  -11.1563 C   0  0  0  0  0  0  0  0  0  0  0  0
   25.2148  -20.4668   -9.8299 C   0  0  0  0  0  0  0  0  0  0  0  0
   23.9157  -20.8448   -9.5596 C   0  0  0  0  0  0  0  0  0  0  0  0
   23.5761  -21.3734   -8.3109 C   0  0  0  0  0  0  0  0  0  0  0  0
   24.5242  -21.5283   -7.3274 C   0  0  0  0  0  0  0  0  0  0  0  0
   25.8154  -21.1472   -7.6114 C   0  0  0  0  0  0  0  0  0  0  0  0
   26.1497  -20.6226   -8.8523 C   0  0  0  0  0  0  0  0  0  0  0  0
   25.6842  -20.2270  -13.5466 C   0  0  0  0  0  0  0  0  0  0  0  0
   26.8525  -19.9558  -13.9051 O   0  0  0  0  0  0  0  0  0  0  0  0
   24.6180  -19.8567  -14.3983 N   0  0  0  0  0  0  0  0  0  0  0  0
   24.8815  -19.0510  -15.5429 C   0  0  1  0  0  0  0  0  0  0  0  0
   24.1237  -19.5398  -16.7726 C   0  0  0  0  0  0  0  0  0  0  0  0
   24.4541  -18.7552  -17.9902 C   0  0  0  0  0  0  0  0  0  0  0  0
   23.5854  -17.8155  -18.5732 C   0  0  0  0  0  0  0  0  0  0  0  0
   24.1959  -17.2617  -19.6268 N   0  0  0  0  0  0  0  0  0  0  0  0
   25.4123  -17.8094  -19.7385 C   0  0  0  0  0  0  0  0  0  0  0  0
   26.4675  -17.6341  -20.6320 C   0  0  0  0  0  0  0  0  0  0  0  0
   27.6339  -18.3568  -20.5155 C   0  0  0  0  0  0  0  0  0  0  0  0
   27.7989  -19.2813  -19.5097 C   0  0  0  0  0  0  0  0  0  0  0  0
   26.7586  -19.4560  -18.6258 C   0  0  0  0  0  0  0  0  0  0  0  0
   25.5977  -18.7429  -18.7319 C   0  0  0  0  0  0  0  0  0  0  0  0
   24.5777  -17.6198  -15.3313 C   0  0  0  0  0  0  0  0  0  0  0  0
   23.6021  -17.3637  -14.5856 O   0  0  0  0  0  0  0  0  0  0  0  0
   25.2950  -16.5361  -15.8964 N   0  0  0  0  0  0  0  0  0  0  0  0
   26.4557  -16.5169  -16.7292 C   0  0  0  0  0  0  0  0  0  0  0  0
   27.2224  -15.3046  -16.2413 C   0  0  0  0  0  0  0  0  0  0  0  0
   26.2709  -14.5126  -15.3771 C   0  0  0  0  0  0  0  0  0  0  0  0
   24.9259  -15.1452  -15.6745 C   0  0  1  0  0  0  0  0  0  0  0  0
   24.3407  -14.5399  -16.8899 C   0  0  0  0  0  0  0  0  0  0  0  0
   23.5302  -13.4193  -16.8585 O   0  0  0  0  0  0  0  0  0  0  0  0
   24.5860  -15.0610  -17.9997 O   0  0  0  0  0  0  0  0  0  0  0  0
  2  3  1  0
  2  1  1  1
  3  4  1  0
  4  9  2  0
  5  6  2  0
  5  4  1  0
  6  7  1  0
  7  8  2  0
  9  8  1  0
 10  2  1  0
 10 11  2  0
 12 10  1  0
 13 12  1  0
 13 14  1  6
 15 14  1  0
 15 23  1  0
 16 15  2  0
 17 16  1  0
 17 18  1  0
 18 19  1  0
 18 23  2  0
 19 20  2  0
 20 21  1  0
 22 21  2  0
 23 22  1  0
 24 13  1  0
 24 26  1  0
 25 24  2  0
 26 30  1  0
 27 26  1  0
 27 28  1  0
 28 29  1  0
 30 29  1  0
 31 32  1  0
 30 31  1  6
 33 31  2  0
M  END
$$$$
