FWP.pdb
     RDKit          3D

 33 36  0  0  1  0  0  0  0  0999 V2000
   26.1192  -17.5272  -18.7805 N   0  0  0  0  0  0  0  0  0  0  0  0
   25.5620  -17.1739  -17.4801 C   0  0  1  0  0  0  0  0  0  0  0  0
   24.0866  -16.9475  -17.5461 C   0  0  0  0  0  0  0  0  0  0  0  0
   23.7199  -15.5180  -17.5571 C   0  0  0  0  0  0  0  0  0  0  0  0
   23.5145  -14.8888  -18.7677 C   0  0  0  0  0  0  0  0  0  0  0  0
   23.1734  -13.5340  -18.8141 C   0  0  0  0  0  0  0  0  0  0  0  0
   23.0352  -12.8001  -17.6597 C   0  0  0  0  0  0  0  0  0  0  0  0
   23.2429  -13.4410  -16.4600 C   0  0  0  0  0  0  0  0  0  0  0  0
   23.5815  -14.7864  -16.4171 C   0  0  0  0  0  0  0  0  0  0  0  0
   25.8304  -18.2542  -16.5018 C   0  0  0  0  0  0  0  0  0  0  0  0
   25.6390  -19.4426  -16.8456 O   0  0  0  0  0  0  0  0  0  0  0  0
   26.2943  -18.0016  -15.1902 N   0  0  0  0  0  0  0  0  0  0  0  0
   26.3779  -19.0740  -14.2567 C   0  0  1  0  0  0  0  0  0  0  0  0
   27.2312  -18.7126  -13.0457 C   0  0  0  0  0  0  0  0  0  0  0  0
   27.4280  -19.8640  -12.1277 C   0  0  0  0  0  0  0  0  0  0  0  0
   28.1285  -21.0317  -12.4787 C   0  0  0  0  0  0  0  0  0  0  0  0
   28.1556  -21.8508  -11.4214 N   0  0  0  0  0  0  0  0  0  0  0  0
   27.5026  -21.2549  -10.4162 C   0  0  0  0  0  0  0  0  0  0  0  0
   27.2091  -21.6272   -9.1056 C   0  0  0  0  0  0  0  0  0  0  0  0
   26.4924  -20.8012   -8.2685 C   0  0  0  0  0  0  0  0  0  0  0  0
   26.0388  -19.5753   -8.6985 C   0  0  0  0  0  0  0  0  0  0  0  0
   26.3275  -19.2052   -9.9921 C   0  0  0  0  0  0  0  0  0  0  0  0
   27.0390  -20.0169  -10.8302 C   0  0  0  0  0  0  0  0  0  0  0  0
   25.0568  -19.5438  -13.7879 C   0  0  0  0  0  0  0  0  0  0  0  0
   24.1804  -18.6615  -13.6234 O   0  0  0  0  0  0  0  0  0  0  0  0
   24.7133  -20.8918  -13.5178 N   0  0  0  0  0  0  0  0  0  0  0  0
   25.5064  -22.0801  -13.5376 C   0  0  0  0  0  0  0  0  0  0  0  0
   24.5618  -23.1279  -14.0899 C   0  0  0  0  0  0  0  0  0  0  0  0
   23.1760  -22.5314  -14.0325 C   0  0  0  0  0  0  0  0  0  0  0  0
   23.3634  -21.3051  -13.1615 C   0  0  1  0  0  0  0  0  0  0  0  0
   23.2711  -21.6804  -11.7344 C   0  0  0  0  0  0  0  0  0  0  0  0
   22.1073  -21.5586  -10.9966 O   0  0  0  0  0  0  0  0  0  0  0  0
   24.2890  -22.1286  -11.1629 O   0  0  0  0  0  0  0  0  0  0  0  0
  2  3  1  0
  2  1  1  6
  3  4  1  0
  4  9  2  0
  5  6  2  0
  5  4  1  0
  6  7  1  0
  7  8  2  0
  9  8  1  0
 10  2  1  0
 10 11  2  0
 12 10  1  0
 13 12  1  0
 13 14  1  1
 15 14  1  0
 15 23  1  0
 16 15  2  0
 17 16  1  0
 17 18  1  0
 18 19  1  0
 18 23  2  0
 19 20  2  0
 20 21  1  0
 22 21  2  0
 23 22  1  0
 24 13  1  0
 24 26  1  0
 25 24  2  0
 26 30  1  0
 27 26  1  0
 27 28  1  0
 28 29  1  0
 30 29  1  0
 31 32  1  0
 30 31  1  1
 33 31  2  0
M  END
$$$$
