FWP.pdb
     RDKit          3D

 33 36  0  0  1  0  0  0  0  0999 V2000
   21.4143  -19.6097  -12.3513 N   0  0  0  0  0  0  0  0  0  0  0  0
   22.1041  -20.7618  -11.7825 C   0  0  1  0  0  0  0  0  0  0  0  0
   22.3156  -21.8422  -12.7926 C   0  0  0  0  0  0  0  0  0  0  0  0
   21.0615  -22.5003  -13.2079 C   0  0  0  0  0  0  0  0  0  0  0  0
   20.6878  -22.4519  -14.5352 C   0  0  0  0  0  0  0  0  0  0  0  0
   19.5025  -23.0585  -14.9608 C   0  0  0  0  0  0  0  0  0  0  0  0
   18.6851  -23.7144  -14.0710 C   0  0  0  0  0  0  0  0  0  0  0  0
   19.0708  -23.7546  -12.7508 C   0  0  0  0  0  0  0  0  0  0  0  0
   20.2484  -23.1514  -12.3311 C   0  0  0  0  0  0  0  0  0  0  0  0
   23.4236  -20.3508  -11.2476 C   0  0  0  0  0  0  0  0  0  0  0  0
   24.0831  -19.4843  -11.8650 O   0  0  0  0  0  0  0  0  0  0  0  0
   23.9747  -20.8974  -10.0657 N   0  0  0  0  0  0  0  0  0  0  0  0
   25.2978  -20.5403   -9.6780 C   0  0  1  0  0  0  0  0  0  0  0  0
   25.5601  -20.8323   -8.2045 C   0  0  0  0  0  0  0  0  0  0  0  0
   26.6560  -19.9976   -7.6481 C   0  0  0  0  0  0  0  0  0  0  0  0
   27.0073  -18.7328   -8.1524 C   0  0  0  0  0  0  0  0  0  0  0  0
   28.0018  -18.2348   -7.4091 N   0  0  0  0  0  0  0  0  0  0  0  0
   28.2975  -19.1281   -6.4569 C   0  0  0  0  0  0  0  0  0  0  0  0
   29.2315  -19.1579   -5.4229 C   0  0  0  0  0  0  0  0  0  0  0  0
   29.3274  -20.2376   -4.5734 C   0  0  0  0  0  0  0  0  0  0  0  0
   28.5018  -21.3291   -4.7167 C   0  0  0  0  0  0  0  0  0  0  0  0
   27.5784  -21.3021   -5.7367 C   0  0  0  0  0  0  0  0  0  0  0  0
   27.4744  -20.2351   -6.5841 C   0  0  0  0  0  0  0  0  0  0  0  0
   26.3420  -21.2007  -10.4899 C   0  0  0  0  0  0  0  0  0  0  0  0
   26.2870  -22.4523  -10.5530 O   0  0  0  0  0  0  0  0  0  0  0  0
   27.3795  -20.5367  -11.1903 N   0  0  0  0  0  0  0  0  0  0  0  0
   27.7278  -19.1525  -11.2525 C   0  0  0  0  0  0  0  0  0  0  0  0
   28.1646  -18.9608  -12.6905 C   0  0  0  0  0  0  0  0  0  0  0  0
   28.3557  -20.3417  -13.2701 C   0  0  0  0  0  0  0  0  0  0  0  0
   28.3257  -21.2370  -12.0474 C   0  0  1  0  0  0  0  0  0  0  0  0
   29.6693  -21.2986  -11.4334 C   0  0  0  0  0  0  0  0  0  0  0  0
   29.9624  -20.7373  -10.2035 O   0  0  0  0  0  0  0  0  0  0  0  0
   30.5866  -21.8834  -12.0499 O   0  0  0  0  0  0  0  0  0  0  0  0
  2  3  1  0
  2  1  1  6
  3  4  1  0
  4  9  2  0
  5  6  2  0
  5  4  1  0
  6  7  1  0
  7  8  2  0
  9  8  1  0
 10  2  1  0
 10 11  2  0
 12 10  1  0
 13 12  1  0
 13 14  1  1
 15 14  1  0
 15 23  1  0
 16 15  2  0
 17 16  1  0
 17 18  1  0
 18 19  1  0
 18 23  2  0
 19 20  2  0
 20 21  1  0
 22 21  2  0
 23 22  1  0
 24 13  1  0
 24 26  1  0
 25 24  2  0
 26 30  1  0
 27 26  1  0
 27 28  1  0
 28 29  1  0
 30 29  1  0
 31 32  1  0
 30 31  1  1
 33 31  2  0
M  END
$$$$
