FWP.pdb
     RDKit          3D

 33 36  0  0  1  0  0  0  0  0999 V2000
   30.0529  -24.1841  -16.8979 N   0  0  0  0  0  0  0  0  0  0  0  0
   29.5142  -22.8294  -16.9329 C   0  0  1  0  0  0  0  0  0  0  0  0
   28.7545  -22.5616  -18.1914 C   0  0  0  0  0  0  0  0  0  0  0  0
   29.6267  -22.2309  -19.3351 C   0  0  0  0  0  0  0  0  0  0  0  0
   29.7822  -20.9090  -19.6983 C   0  0  0  0  0  0  0  0  0  0  0  0
   30.5950  -20.5618  -20.7813 C   0  0  0  0  0  0  0  0  0  0  0  0
   31.2555  -21.5251  -21.5065 C   0  0  0  0  0  0  0  0  0  0  0  0
   31.0911  -22.8390  -21.1326 C   0  0  0  0  0  0  0  0  0  0  0  0
   30.2833  -23.1807  -20.0567 C   0  0  0  0  0  0  0  0  0  0  0  0
   28.6088  -22.6127  -15.7799 C   0  0  0  0  0  0  0  0  0  0  0  0
   27.7944  -23.5124  -15.4731 O   0  0  0  0  0  0  0  0  0  0  0  0
   28.6228  -21.4284  -15.0074 N   0  0  0  0  0  0  0  0  0  0  0  0
   27.7446  -21.3074  -13.8927 C   0  0  1  0  0  0  0  0  0  0  0  0
   28.2707  -20.3217  -12.8550 C   0  0  0  0  0  0  0  0  0  0  0  0
   27.3746  -20.2093  -11.6753 C   0  0  0  0  0  0  0  0  0  0  0  0
   26.0211  -19.8365  -11.7556 C   0  0  0  0  0  0  0  0  0  0  0  0
   25.4930  -19.8682  -10.5269 N   0  0  0  0  0  0  0  0  0  0  0  0
   26.4517  -20.2433   -9.6712 C   0  0  0  0  0  0  0  0  0  0  0  0
   26.4870  -20.4376   -8.2915 C   0  0  0  0  0  0  0  0  0  0  0  0
   27.6426  -20.8260   -7.6510 C   0  0  0  0  0  0  0  0  0  0  0  0
   28.8073  -21.0359   -8.3531 C   0  0  0  0  0  0  0  0  0  0  0  0
   28.7750  -20.8451   -9.7156 C   0  0  0  0  0  0  0  0  0  0  0  0
   27.6332  -20.4611  -10.3609 C   0  0  0  0  0  0  0  0  0  0  0  0
   26.3708  -20.9147  -14.2722 C   0  0  0  0  0  0  0  0  0  0  0  0
   26.2630  -19.8804  -14.9738 O   0  0  0  0  0  0  0  0  0  0  0  0
   25.1893  -21.6083  -13.9105 N   0  0  0  0  0  0  0  0  0  0  0  0
   24.9826  -22.6914  -13.0020 C   0  0  0  0  0  0  0  0  0  0  0  0
   23.9222  -23.5304  -13.6852 C   0  0  0  0  0  0  0  0  0  0  0  0
   23.3485  -22.6802  -14.7933 C   0  0  0  0  0  0  0  0  0  0  0  0
   23.8866  -21.2978  -14.4821 C   0  0  1  0  0  0  0  0  0  0  0  0
   23.0109  -20.6244  -13.4994 C   0  0  0  0  0  0  0  0  0  0  0  0
   23.3227  -20.5254  -12.1553 O   0  0  0  0  0  0  0  0  0  0  0  0
   21.9378  -20.1197  -13.8959 O   0  0  0  0  0  0  0  0  0  0  0  0
  2  3  1  0
  2  1  1  6
  3  4  1  0
  4  9  2  0
  5  6  2  0
  5  4  1  0
  6  7  1  0
  7  8  2  0
  9  8  1  0
 10  2  1  0
 10 11  2  0
 12 10  1  0
 13 12  1  0
 13 14  1  1
 15 14  1  0
 15 23  1  0
 16 15  2  0
 17 16  1  0
 17 18  1  0
 18 19  1  0
 18 23  2  0
 19 20  2  0
 20 21  1  0
 22 21  2  0
 23 22  1  0
 24 13  1  0
 24 26  1  0
 25 24  2  0
 26 30  1  0
 27 26  1  0
 27 28  1  0
 28 29  1  0
 30 29  1  0
 31 32  1  0
 30 31  1  1
 33 31  2  0
M  END
$$$$
