FWP.pdb
     RDKit          3D

 33 36  0  0  1  0  0  0  0  0999 V2000
   26.8938  -17.5103  -19.2924 N   0  0  0  0  0  0  0  0  0  0  0  0
   26.4765  -16.9916  -17.9950 C   0  0  1  0  0  0  0  0  0  0  0  0
   25.1958  -16.2272  -18.0836 C   0  0  0  0  0  0  0  0  0  0  0  0
   25.3246  -14.9669  -18.8407 C   0  0  0  0  0  0  0  0  0  0  0  0
   24.4729  -14.7325  -19.9005 C   0  0  0  0  0  0  0  0  0  0  0  0
   24.5729  -13.5524  -20.6431 C   0  0  0  0  0  0  0  0  0  0  0  0
   25.5179  -12.6021  -20.3363 C   0  0  0  0  0  0  0  0  0  0  0  0
   26.3601  -12.8496  -19.2768 C   0  0  0  0  0  0  0  0  0  0  0  0
   26.2585  -14.0222  -18.5411 C   0  0  0  0  0  0  0  0  0  0  0  0
   26.2952  -18.1069  -17.0363 C   0  0  0  0  0  0  0  0  0  0  0  0
   25.7149  -19.1471  -17.4214 O   0  0  0  0  0  0  0  0  0  0  0  0
   26.7495  -18.0482  -15.6985 N   0  0  0  0  0  0  0  0  0  0  0  0
   26.4242  -19.1043  -14.8000 C   0  0  1  0  0  0  0  0  0  0  0  0
   27.3216  -19.1027  -13.5672 C   0  0  0  0  0  0  0  0  0  0  0  0
   26.9931  -20.2045  -12.6262 C   0  0  0  0  0  0  0  0  0  0  0  0
   27.2438  -21.5618  -12.8951 C   0  0  0  0  0  0  0  0  0  0  0  0
   26.8678  -22.2865  -11.8354 N   0  0  0  0  0  0  0  0  0  0  0  0
   26.3887  -21.4492  -10.9072 C   0  0  0  0  0  0  0  0  0  0  0  0
   25.8569  -21.6299   -9.6317 C   0  0  0  0  0  0  0  0  0  0  0  0
   25.4197  -20.5629   -8.8788 C   0  0  0  0  0  0  0  0  0  0  0  0
   25.4921  -19.2764   -9.3615 C   0  0  0  0  0  0  0  0  0  0  0  0
   26.0172  -19.0951  -10.6206 C   0  0  0  0  0  0  0  0  0  0  0  0
   26.4550  -20.1470  -11.3751 C   0  0  0  0  0  0  0  0  0  0  0  0
   25.0118  -19.0849  -14.3637 C   0  0  0  0  0  0  0  0  0  0  0  0
   24.5212  -17.9560  -14.1215 O   0  0  0  0  0  0  0  0  0  0  0  0
   24.1863  -20.2255  -14.2038 N   0  0  0  0  0  0  0  0  0  0  0  0
   24.4611  -21.6132  -14.4033 C   0  0  0  0  0  0  0  0  0  0  0  0
   23.1688  -22.1512  -14.9828 C   0  0  0  0  0  0  0  0  0  0  0  0
   22.1211  -21.0874  -14.7593 C   0  0  0  0  0  0  0  0  0  0  0  0
   22.7937  -20.1386  -13.7873 C   0  0  1  0  0  0  0  0  0  0  0  0
   22.6119  -20.6220  -12.4019 C   0  0  0  0  0  0  0  0  0  0  0  0
   23.5533  -21.3919  -11.7426 O   0  0  0  0  0  0  0  0  0  0  0  0
   21.5607  -20.3245  -11.7937 O   0  0  0  0  0  0  0  0  0  0  0  0
  2  3  1  0
  2  1  1  6
  3  4  1  0
  4  9  2  0
  5  6  2  0
  5  4  1  0
  6  7  1  0
  7  8  2  0
  9  8  1  0
 10  2  1  0
 10 11  2  0
 12 10  1  0
 13 12  1  0
 13 14  1  1
 15 14  1  0
 15 23  1  0
 16 15  2  0
 17 16  1  0
 17 18  1  0
 18 19  1  0
 18 23  2  0
 19 20  2  0
 20 21  1  0
 22 21  2  0
 23 22  1  0
 24 13  1  0
 24 26  1  0
 25 24  2  0
 26 30  1  0
 27 26  1  0
 27 28  1  0
 28 29  1  0
 30 29  1  0
 31 32  1  0
 30 31  1  1
 33 31  2  0
M  END
$$$$
