FWP.pdb
     RDKit          3D

 33 36  0  0  1  0  0  0  0  0999 V2000
   26.4620  -20.9437  -15.9902 N   0  0  0  0  0  0  0  0  0  0  0  0
   27.3705  -21.3689  -14.9318 C   0  0  1  0  0  0  0  0  0  0  0  0
   28.8018  -21.1560  -15.3039 C   0  0  0  0  0  0  0  0  0  0  0  0
   29.2735  -22.0868  -16.3476 C   0  0  0  0  0  0  0  0  0  0  0  0
   28.3990  -23.0285  -16.8497 C   0  0  0  0  0  0  0  0  0  0  0  0
   28.8156  -23.9300  -17.8335 C   0  0  0  0  0  0  0  0  0  0  0  0
   30.1005  -23.8995  -18.3215 C   0  0  0  0  0  0  0  0  0  0  0  0
   30.9612  -22.9550  -17.8115 C   0  0  0  0  0  0  0  0  0  0  0  0
   30.5448  -22.0610  -16.8347 C   0  0  0  0  0  0  0  0  0  0  0  0
   27.0892  -20.6150  -13.6874 C   0  0  0  0  0  0  0  0  0  0  0  0
   27.5646  -19.4643  -13.5569 O   0  0  0  0  0  0  0  0  0  0  0  0
   26.3048  -21.1403  -12.6347 N   0  0  0  0  0  0  0  0  0  0  0  0
   26.0216  -20.3294  -11.4985 C   0  0  1  0  0  0  0  0  0  0  0  0
   24.5566  -19.9096  -11.4469 C   0  0  0  0  0  0  0  0  0  0  0  0
   24.0311  -19.5222  -12.7814 C   0  0  0  0  0  0  0  0  0  0  0  0
   22.9340  -20.1475  -13.4003 C   0  0  0  0  0  0  0  0  0  0  0  0
   22.6961  -19.5406  -14.5684 N   0  0  0  0  0  0  0  0  0  0  0  0
   23.5942  -18.5592  -14.7182 C   0  0  0  0  0  0  0  0  0  0  0  0
   23.8341  -17.6199  -15.7195 C   0  0  0  0  0  0  0  0  0  0  0  0
   24.8609  -16.7079  -15.6166 C   0  0  0  0  0  0  0  0  0  0  0  0
   25.6894  -16.6926  -14.5181 C   0  0  0  0  0  0  0  0  0  0  0  0
   25.4544  -17.6188  -13.5278 C   0  0  0  0  0  0  0  0  0  0  0  0
   24.4375  -18.5271  -13.6196 C   0  0  0  0  0  0  0  0  0  0  0  0
   26.3799  -20.9744  -10.2175 C   0  0  0  0  0  0  0  0  0  0  0  0
   26.6269  -22.2033  -10.2647 O   0  0  0  0  0  0  0  0  0  0  0  0
   26.4654  -20.3188   -8.9640 N   0  0  0  0  0  0  0  0  0  0  0  0
   26.1779  -18.9691   -8.5940 C   0  0  0  0  0  0  0  0  0  0  0  0
   27.2455  -18.6474   -7.5682 C   0  0  0  0  0  0  0  0  0  0  0  0
   27.8726  -19.9626   -7.1726 C   0  0  0  0  0  0  0  0  0  0  0  0
   26.9200  -20.9884   -7.7536 C   0  0  1  0  0  0  0  0  0  0  0  0
   25.8026  -21.2284   -6.8156 C   0  0  0  0  0  0  0  0  0  0  0  0
   25.9649  -21.8604   -5.5958 O   0  0  0  0  0  0  0  0  0  0  0  0
   24.6560  -20.8447   -7.1345 O   0  0  0  0  0  0  0  0  0  0  0  0
  2  3  1  0
  2  1  1  6
  3  4  1  0
  4  9  2  0
  5  6  2  0
  5  4  1  0
  6  7  1  0
  7  8  2  0
  9  8  1  0
 10  2  1  0
 10 11  2  0
 12 10  1  0
 13 12  1  0
 13 14  1  1
 15 14  1  0
 15 23  1  0
 16 15  2  0
 17 16  1  0
 17 18  1  0
 18 19  1  0
 18 23  2  0
 19 20  2  0
 20 21  1  0
 22 21  2  0
 23 22  1  0
 24 13  1  0
 24 26  1  0
 25 24  2  0
 26 30  1  0
 27 26  1  0
 27 28  1  0
 28 29  1  0
 30 29  1  0
 31 32  1  0
 30 31  1  1
 33 31  2  0
M  END
$$$$
