FWP.pdb
     RDKit          3D

 33 36  0  0  1  0  0  0  0  0999 V2000
   30.5405  -23.9327  -18.6234 N   0  0  0  0  0  0  0  0  0  0  0  0
   29.4661  -24.2593  -17.6931 C   0  0  1  0  0  0  0  0  0  0  0  0
   29.9454  -25.1074  -16.5602 C   0  0  0  0  0  0  0  0  0  0  0  0
   30.1527  -26.5183  -16.9402 C   0  0  0  0  0  0  0  0  0  0  0  0
   31.4255  -26.9462  -17.2573 C   0  0  0  0  0  0  0  0  0  0  0  0
   31.6555  -28.2741  -17.6286 C   0  0  0  0  0  0  0  0  0  0  0  0
   30.6236  -29.1807  -17.6862 C   0  0  0  0  0  0  0  0  0  0  0  0
   29.3599  -28.7397  -17.3672 C   0  0  0  0  0  0  0  0  0  0  0  0
   29.1345  -27.4205  -16.9988 C   0  0  0  0  0  0  0  0  0  0  0  0
   28.8798  -23.0169  -17.1375 C   0  0  0  0  0  0  0  0  0  0  0  0
   29.6326  -22.0441  -16.9056 O   0  0  0  0  0  0  0  0  0  0  0  0
   27.5010  -22.8807  -16.8550 N   0  0  0  0  0  0  0  0  0  0  0  0
   27.0037  -21.6376  -16.3692 C   0  0  1  0  0  0  0  0  0  0  0  0
   26.0229  -20.9943  -17.3436 C   0  0  0  0  0  0  0  0  0  0  0  0
   25.3894  -19.7720  -16.7851 C   0  0  0  0  0  0  0  0  0  0  0  0
   26.0231  -18.5178  -16.7340 C   0  0  0  0  0  0  0  0  0  0  0  0
   25.1725  -17.6274  -16.2113 N   0  0  0  0  0  0  0  0  0  0  0  0
   24.0281  -18.2616  -15.9278 C   0  0  0  0  0  0  0  0  0  0  0  0
   22.8161  -17.8560  -15.3719 C   0  0  0  0  0  0  0  0  0  0  0  0
   21.7822  -18.7448  -15.1788 C   0  0  0  0  0  0  0  0  0  0  0  0
   21.9101  -20.0696  -15.5285 C   0  0  0  0  0  0  0  0  0  0  0  0
   23.1058  -20.4726  -16.0779 C   0  0  0  0  0  0  0  0  0  0  0  0
   24.1374  -19.5982  -16.2749 C   0  0  0  0  0  0  0  0  0  0  0  0
   26.3595  -21.7450  -15.0429 C   0  0  0  0  0  0  0  0  0  0  0  0
   25.7304  -22.8063  -14.8158 O   0  0  0  0  0  0  0  0  0  0  0  0
   26.4010  -20.7573  -14.0277 N   0  0  0  0  0  0  0  0  0  0  0  0
   26.9519  -19.4390  -14.0286 C   0  0  0  0  0  0  0  0  0  0  0  0
   27.5200  -19.2909  -12.6320 C   0  0  0  0  0  0  0  0  0  0  0  0
   26.9512  -20.4248  -11.8134 C   0  0  0  0  0  0  0  0  0  0  0  0
   25.8475  -20.9700  -12.6978 C   0  0  1  0  0  0  0  0  0  0  0  0
   24.6075  -20.1903  -12.4965 C   0  0  0  0  0  0  0  0  0  0  0  0
   23.8286  -20.2936  -11.3580 O   0  0  0  0  0  0  0  0  0  0  0  0
   24.2411  -19.4000  -13.3936 O   0  0  0  0  0  0  0  0  0  0  0  0
  2  3  1  0
  2  1  1  6
  3  4  1  0
  4  9  2  0
  5  6  2  0
  5  4  1  0
  6  7  1  0
  7  8  2  0
  9  8  1  0
 10  2  1  0
 10 11  2  0
 12 10  1  0
 13 12  1  0
 13 14  1  6
 15 14  1  0
 15 23  1  0
 16 15  2  0
 17 16  1  0
 17 18  1  0
 18 19  1  0
 18 23  2  0
 19 20  2  0
 20 21  1  0
 22 21  2  0
 23 22  1  0
 24 13  1  0
 24 26  1  0
 25 24  2  0
 26 30  1  0
 27 26  1  0
 27 28  1  0
 28 29  1  0
 30 29  1  0
 31 32  1  0
 30 31  1  6
 33 31  2  0
M  END
$$$$
