FWP.pdb
     RDKit          3D

 33 36  0  0  1  0  0  0  0  0999 V2000
   17.0123  -11.1870    8.2783 N   0  0  0  0  0  0  0  0  0  0  0  0
   18.0108  -11.9055    7.4952 C   0  0  1  0  0  0  0  0  0  0  0  0
   19.1794  -12.3238    8.3269 C   0  0  0  0  0  0  0  0  0  0  0  0
   20.4255  -11.6172    7.9720 C   0  0  0  0  0  0  0  0  0  0  0  0
   20.5111  -10.9841    6.7491 C   0  0  0  0  0  0  0  0  0  0  0  0
   21.6794  -10.3121    6.3785 C   0  0  0  0  0  0  0  0  0  0  0  0
   22.7657  -10.2664    7.2201 C   0  0  0  0  0  0  0  0  0  0  0  0
   22.6656  -10.9021    8.4363 C   0  0  0  0  0  0  0  0  0  0  0  0
   21.5042  -11.5686    8.8016 C   0  0  0  0  0  0  0  0  0  0  0  0
   17.4065  -13.1147    6.8880 C   0  0  0  0  0  0  0  0  0  0  0  0
   16.7806  -13.9119    7.6227 O   0  0  0  0  0  0  0  0  0  0  0  0
   17.5069  -13.4108    5.5090 N   0  0  0  0  0  0  0  0  0  0  0  0
   16.8933  -14.5902    4.9981 C   0  0  1  0  0  0  0  0  0  0  0  0
   16.8730  -14.6094    3.4735 C   0  0  0  0  0  0  0  0  0  0  0  0
   16.0688  -15.7351    2.9320 C   0  0  0  0  0  0  0  0  0  0  0  0
   14.6640  -15.7316    2.8685 C   0  0  0  0  0  0  0  0  0  0  0  0
   14.2567  -16.8707    2.2975 N   0  0  0  0  0  0  0  0  0  0  0  0
   15.3406  -17.5967    1.9972 C   0  0  0  0  0  0  0  0  0  0  0  0
   15.5285  -18.8465    1.4097 C   0  0  0  0  0  0  0  0  0  0  0  0
   16.7886  -19.3704    1.2250 C   0  0  0  0  0  0  0  0  0  0  0  0
   17.9104  -18.6762    1.6161 C   0  0  0  0  0  0  0  0  0  0  0  0
   17.7277  -17.4417    2.1962 C   0  0  0  0  0  0  0  0  0  0  0  0
   16.4817  -16.9123    2.3826 C   0  0  0  0  0  0  0  0  0  0  0  0
   17.5266  -15.8347    5.4838 C   0  0  0  0  0  0  0  0  0  0  0  0
   18.7780  -15.8851    5.4124 O   0  0  0  0  0  0  0  0  0  0  0  0
   16.8376  -16.9529    6.0157 N   0  0  0  0  0  0  0  0  0  0  0  0
   15.4391  -17.2044    6.1647 C   0  0  0  0  0  0  0  0  0  0  0  0
   15.3497  -17.9408    7.4857 C   0  0  0  0  0  0  0  0  0  0  0  0
   16.7563  -18.3586    7.8416 C   0  0  0  0  0  0  0  0  0  0  0  0
   17.5240  -18.1173    6.5572 C   0  0  1  0  0  0  0  0  0  0  0  0
   17.3929  -19.2873    5.6629 C   0  0  0  0  0  0  0  0  0  0  0  0
   16.6566  -19.2624    4.4920 O   0  0  0  0  0  0  0  0  0  0  0  0
   17.9717  -20.3510    5.9746 O   0  0  0  0  0  0  0  0  0  0  0  0
  2  3  1  0
  2  1  1  1
  3  4  1  0
  4  9  2  0
  5  6  2  0
  5  4  1  0
  6  7  1  0
  7  8  2  0
  9  8  1  0
 10  2  1  0
 10 11  2  0
 12 10  1  0
 13 12  1  0
 13 14  1  6
 15 14  1  0
 15 23  1  0
 16 15  2  0
 17 16  1  0
 17 18  1  0
 18 19  1  0
 18 23  2  0
 19 20  2  0
 20 21  1  0
 22 21  2  0
 23 22  1  0
 24 13  1  0
 24 26  1  0
 25 24  2  0
 26 30  1  0
 27 26  1  0
 27 28  1  0
 28 29  1  0
 30 29  1  0
 31 32  1  0
 30 31  1  6
 33 31  2  0
M  END
$$$$
