RWW.pdb
     RDKit          3D

 40 43  0  0  1  0  0  0  0  0999 V2000
    9.4942  -13.1917   17.3985 N   0  0  0  0  0  0  0  0  0  0  0  0
    8.1365  -13.2816   16.9935 C   0  0  0  0  0  0  0  0  0  0  0  0
    7.2505  -12.5577   17.5794 N   0  0  0  0  0  0  0  0  0  0  0  0
    7.7125  -14.1527   15.9513 N   0  0  0  0  0  0  0  0  0  0  0  0
    8.5056  -15.2731   15.5230 C   0  0  0  0  0  0  0  0  0  0  0  0
    8.6962  -16.2424   16.6641 C   0  0  0  0  0  0  0  0  0  0  0  0
   10.0675  -16.1341   17.3012 C   0  0  0  0  0  0  0  0  0  0  0  0
   10.1255  -17.1481   18.4231 C   0  0  2  0  0  0  0  0  0  0  0  0
    9.2015  -18.2451   18.2340 N   0  0  0  0  0  0  0  0  0  0  0  0
    9.8814  -16.5252   19.7484 C   0  0  0  0  0  0  0  0  0  0  0  0
   10.5503  -15.5313   20.1371 O   0  0  0  0  0  0  0  0  0  0  0  0
    6.2534  -12.5433   17.3468 N   0  0  0  0  0  0  0  0  0  0  0  0
    8.8846  -17.0364   20.6118 C   0  0  1  0  0  0  0  0  0  0  0  0
    8.6361  -16.5687   21.9550 C   0  0  0  0  0  0  0  0  0  0  0  0
    7.1879  -16.5918   22.2996 C   0  0  0  0  0  0  0  0  0  0  0  0
    6.8569  -16.0044   23.6104 C   0  0  0  0  0  0  0  0  0  0  0  0
    6.4479  -16.7276   24.7370 N   0  0  0  0  0  0  0  0  0  0  0  0
    6.2145  -15.8682   25.7402 C   0  0  0  0  0  0  0  0  0  0  0  0
    6.4477  -14.5907   25.3449 C   0  0  0  0  0  0  0  0  0  0  0  0
    6.3544  -13.3967   26.0160 C   0  0  0  0  0  0  0  0  0  0  0  0
    6.6667  -12.2316   25.3652 C   0  0  0  0  0  0  0  0  0  0  0  0
    7.0685  -12.3100   24.0405 C   0  0  0  0  0  0  0  0  0  0  0  0
    7.1597  -13.5078   23.3733 C   0  0  0  0  0  0  0  0  0  0  0  0
    6.8484  -14.6876   24.0141 C   0  0  0  0  0  0  0  0  0  0  0  0
    9.5198  -17.2542   22.9209 O   0  0  0  0  0  0  0  0  0  0  0  0
    9.8129  -18.4633   22.6977 N   0  0  0  0  0  0  0  0  0  0  0  0
   10.0687  -16.6757   24.0726 C   0  0  2  0  0  0  0  0  0  0  0  0
   11.0774  -17.3077   24.9234 C   0  0  0  0  0  0  0  0  0  0  0  0
   11.6256  -16.2933   25.8840 C   0  0  0  0  0  0  0  0  0  0  0  0
   10.9615  -16.2360   27.1818 C   0  0  0  0  0  0  0  0  0  0  0  0
   10.9671  -17.2718   28.0997 N   0  0  0  0  0  0  0  0  0  0  0  0
   10.2929  -16.8827   29.1924 C   0  0  0  0  0  0  0  0  0  0  0  0
    9.8448  -15.6329   29.0272 C   0  0  0  0  0  0  0  0  0  0  0  0
    9.1063  -14.8336   29.8750 C   0  0  0  0  0  0  0  0  0  0  0  0
    8.7594  -13.5667   29.4618 C   0  0  0  0  0  0  0  0  0  0  0  0
    9.1542  -13.1305   28.2213 C   0  0  0  0  0  0  0  0  0  0  0  0
    9.8874  -13.9438   27.3976 C   0  0  0  0  0  0  0  0  0  0  0  0
   10.2629  -15.2272   27.7677 C   0  0  0  0  0  0  0  0  0  0  0  0
   10.6951  -18.5935   25.4683 O   0  0  0  0  0  0  0  0  0  0  0  0
   11.5710  -19.4540   26.1582 O   0  0  0  0  0  0  0  0  0  0  0  0
  2  3  2  0
  2  1  1  0
  4  2  1  0
  5  4  1  0
  6  5  1  0
  7  6  1  0
  8  7  1  0
  8  9  1  6
 10 12  1  0
 10  8  1  0
 11 10  2  0
 13 14  1  1
 13 24  1  0
 13 12  1  0
 14 15  1  0
 15 16  2  0
 15 23  1  0
 16 17  1  0
 17 18  1  0
 18 19  2  0
 20 19  1  0
 21 20  2  0
 22 23  2  0
 22 21  1  0
 23 18  1  0
 24 26  1  0
 25 24  2  0
 26 27  1  0
 27 38  1  0
 27 28  1  6
 29 28  1  0
 29 30  2  0
 31 30  1  0
 32 31  1  0
 33 32  2  0
 34 33  1  0
 35 34  2  0
 35 36  1  0
 36 37  2  0
 37 32  1  0
 37 29  1  0
 38 40  2  0
 38 39  1  0
M  END
$$$$
