RWW.pdb
     RDKit          3D

 40 43  0  0  1  0  0  0  0  0999 V2000
    9.4051  -17.9576   11.7854 N   0  0  0  0  0  0  0  0  0  0  0  0
   10.1453  -18.4488   12.8927 C   0  0  0  0  0  0  0  0  0  0  0  0
   11.1783  -19.1859   12.6885 N   0  0  0  0  0  0  0  0  0  0  0  0
    9.7838  -18.1535   14.2370 N   0  0  0  0  0  0  0  0  0  0  0  0
    8.6183  -17.3759   14.5609 C   0  0  0  0  0  0  0  0  0  0  0  0
    7.9751  -17.9023   15.8207 C   0  0  0  0  0  0  0  0  0  0  0  0
    8.1480  -16.9668   17.0010 C   0  0  0  0  0  0  0  0  0  0  0  0
    8.6642  -17.7923   18.1597 C   0  0  2  0  0  0  0  0  0  0  0  0
    7.8602  -18.9686   18.4104 N   0  0  0  0  0  0  0  0  0  0  0  0
    8.7676  -16.9948   19.4076 C   0  0  0  0  0  0  0  0  0  0  0  0
    9.4260  -15.9217   19.4453 O   0  0  0  0  0  0  0  0  0  0  0  0
   11.7367  -19.6339   13.4206 N   0  0  0  0  0  0  0  0  0  0  0  0
    8.1245  -17.4239   20.5919 C   0  0  1  0  0  0  0  0  0  0  0  0
    8.1780  -16.7322   21.8581 C   0  0  0  0  0  0  0  0  0  0  0  0
    6.8983  -16.8388   22.6117 C   0  0  0  0  0  0  0  0  0  0  0  0
    6.8819  -16.1265   23.9021 C   0  0  0  0  0  0  0  0  0  0  0  0
    6.6414  -16.7201   25.1468 N   0  0  0  0  0  0  0  0  0  0  0  0
    6.6833  -15.7704   26.0932 C   0  0  0  0  0  0  0  0  0  0  0  0
    6.9426  -14.5555   25.5461 C   0  0  0  0  0  0  0  0  0  0  0  0
    7.0849  -13.3123   26.1109 C   0  0  0  0  0  0  0  0  0  0  0  0
    7.3619  -12.2356   25.3093 C   0  0  0  0  0  0  0  0  0  0  0  0
    7.4882  -12.4511   23.9454 C   0  0  0  0  0  0  0  0  0  0  0  0
    7.3444  -13.6975   23.3853 C   0  0  0  0  0  0  0  0  0  0  0  0
    7.0651  -14.7896   24.1782 C   0  0  0  0  0  0  0  0  0  0  0  0
    9.3849  -17.1204   22.6172 O   0  0  0  0  0  0  0  0  0  0  0  0
    9.5637  -18.3492   22.8535 N   0  0  0  0  0  0  0  0  0  0  0  0
   10.3596  -16.2381   23.1010 C   0  0  2  0  0  0  0  0  0  0  0  0
   11.4802  -16.6229   23.9594 C   0  0  0  0  0  0  0  0  0  0  0  0
   11.7344  -15.5371   24.9637 C   0  0  0  0  0  0  0  0  0  0  0  0
   11.2132  -15.7876   26.3032 C   0  0  0  0  0  0  0  0  0  0  0  0
   11.0457  -17.0506   26.8440 N   0  0  0  0  0  0  0  0  0  0  0  0
   10.5775  -16.9249   28.0950 C   0  0  0  0  0  0  0  0  0  0  0  0
   10.4308  -15.6295   28.3958 C   0  0  0  0  0  0  0  0  0  0  0  0
    9.9787  -15.0311   29.5537 C   0  0  0  0  0  0  0  0  0  0  0  0
    9.9134  -13.6568   29.6112 C   0  0  0  0  0  0  0  0  0  0  0  0
   10.2973  -12.9174   28.5199 C   0  0  0  0  0  0  0  0  0  0  0  0
   10.7430  -13.5357   27.3812 C   0  0  0  0  0  0  0  0  0  0  0  0
   10.8284  -14.9165   27.2736 C   0  0  0  0  0  0  0  0  0  0  0  0
   11.4279  -17.9821   24.4558 O   0  0  0  0  0  0  0  0  0  0  0  0
   12.5620  -18.7500   24.7844 O   0  0  0  0  0  0  0  0  0  0  0  0
  2  3  2  0
  2  1  1  0
  4  2  1  0
  5  4  1  0
  6  5  1  0
  7  6  1  0
  8  7  1  0
  8  9  1  1
 10 12  1  0
 10  8  1  0
 11 10  2  0
 13 14  1  1
 13 24  1  0
 13 12  1  0
 14 15  1  0
 15 16  2  0
 15 23  1  0
 16 17  1  0
 17 18  1  0
 18 19  2  0
 20 19  1  0
 21 20  2  0
 22 23  2  0
 22 21  1  0
 23 18  1  0
 24 26  1  0
 25 24  2  0
 26 27  1  0
 27 38  1  0
 27 28  1  6
 29 28  1  0
 29 30  2  0
 31 30  1  0
 32 31  1  0
 33 32  2  0
 34 33  1  0
 35 34  2  0
 35 36  1  0
 36 37  2  0
 37 32  1  0
 37 29  1  0
 38 40  2  0
 38 39  1  0
M  END
$$$$
