RWW.pdb
     RDKit          3D

 40 43  0  0  1  0  0  0  0  0999 V2000
    7.5451  -12.5074   15.0357 N   0  0  0  0  0  0  0  0  0  0  0  0
    8.2031  -12.9333   16.2195 C   0  0  0  0  0  0  0  0  0  0  0  0
    8.5161  -12.0685   17.1174 N   0  0  0  0  0  0  0  0  0  0  0  0
    8.5339  -14.2974   16.4538 N   0  0  0  0  0  0  0  0  0  0  0  0
    8.0425  -15.3570   15.6151 C   0  0  0  0  0  0  0  0  0  0  0  0
    8.5652  -16.6879   16.0982 C   0  0  0  0  0  0  0  0  0  0  0  0
    7.7773  -17.2350   17.2722 C   0  0  0  0  0  0  0  0  0  0  0  0
    8.7618  -17.9136   18.1998 C   0  0  2  0  0  0  0  0  0  0  0  0
    8.4345  -19.3014   18.4446 N   0  0  0  0  0  0  0  0  0  0  0  0
    8.8833  -17.2028   19.4975 C   0  0  0  0  0  0  0  0  0  0  0  0
    9.4522  -16.0821   19.5785 O   0  0  0  0  0  0  0  0  0  0  0  0
    9.0148  -12.2762   17.9873 N   0  0  0  0  0  0  0  0  0  0  0  0
    8.3589  -17.7711   20.6818 C   0  0  1  0  0  0  0  0  0  0  0  0
    8.3998  -17.1500   21.9845 C   0  0  0  0  0  0  0  0  0  0  0  0
    7.1897  -17.4612   22.7941 C   0  0  0  0  0  0  0  0  0  0  0  0
    7.0712  -16.6921   24.0460 C   0  0  0  0  0  0  0  0  0  0  0  0
    6.6414  -17.2114   25.2728 N   0  0  0  0  0  0  0  0  0  0  0  0
    6.6390  -16.2250   26.1819 C   0  0  0  0  0  0  0  0  0  0  0  0
    7.0494  -15.0564   25.6266 C   0  0  0  0  0  0  0  0  0  0  0  0
    7.2133  -13.8015   26.1588 C   0  0  0  0  0  0  0  0  0  0  0  0
    7.6616  -12.7833   25.3583 C   0  0  0  0  0  0  0  0  0  0  0  0
    7.9337  -13.0680   24.0289 C   0  0  0  0  0  0  0  0  0  0  0  0
    7.7675  -14.3258   23.5012 C   0  0  0  0  0  0  0  0  0  0  0  0
    7.3169  -15.3596   24.2934 C   0  0  0  0  0  0  0  0  0  0  0  0
    9.6880  -17.4224   22.6552 O   0  0  0  0  0  0  0  0  0  0  0  0
   10.1151  -18.6121   22.6521 N   0  0  0  0  0  0  0  0  0  0  0  0
   10.4870  -16.4685   23.2987 C   0  0  2  0  0  0  0  0  0  0  0  0
   11.7060  -16.7713   24.0490 C   0  0  0  0  0  0  0  0  0  0  0  0
   11.9947  -15.6503   25.0042 C   0  0  0  0  0  0  0  0  0  0  0  0
   11.2355  -15.6770   26.2498 C   0  0  0  0  0  0  0  0  0  0  0  0
   11.0655  -16.8092   27.0276 N   0  0  0  0  0  0  0  0  0  0  0  0
   10.3452  -16.4830   28.1115 C   0  0  0  0  0  0  0  0  0  0  0  0
   10.0357  -15.1818   28.0751 C   0  0  0  0  0  0  0  0  0  0  0  0
    9.3116  -14.4148   28.9641 C   0  0  0  0  0  0  0  0  0  0  0  0
    9.1244  -13.0780   28.6913 C   0  0  0  0  0  0  0  0  0  0  0  0
    9.6596  -12.5423   27.5462 C   0  0  0  0  0  0  0  0  0  0  0  0
   10.3751  -13.3254   26.6789 C   0  0  0  0  0  0  0  0  0  0  0  0
   10.5927  -14.6764   26.9089 C   0  0  0  0  0  0  0  0  0  0  0  0
   11.7799  -18.1195   24.5719 O   0  0  0  0  0  0  0  0  0  0  0  0
   10.6654  -18.8637   25.0051 O   0  0  0  0  0  0  0  0  0  0  0  0
  2  3  2  0
  2  1  1  0
  4  2  1  0
  5  4  1  0
  6  5  1  0
  7  6  1  0
  8  7  1  0
  8  9  1  1
 10 12  1  0
 10  8  1  0
 11 10  2  0
 13 14  1  1
 13 24  1  0
 13 12  1  0
 14 15  1  0
 15 16  2  0
 15 23  1  0
 16 17  1  0
 17 18  1  0
 18 19  2  0
 20 19  1  0
 21 20  2  0
 22 23  2  0
 22 21  1  0
 23 18  1  0
 24 26  1  0
 25 24  2  0
 26 27  1  0
 27 38  1  0
 27 28  1  6
 29 28  1  0
 29 30  2  0
 31 30  1  0
 32 31  1  0
 33 32  2  0
 34 33  1  0
 35 34  2  0
 35 36  1  0
 36 37  2  0
 37 32  1  0
 37 29  1  0
 38 40  2  0
 38 39  1  0
M  END
$$$$
