RWW.pdb
     RDKit          3D

 40 43  0  0  1  0  0  0  0  0999 V2000
   11.2339  -19.8623   14.3558 N   0  0  0  0  0  0  0  0  0  0  0  0
   10.4120  -18.7259   14.1360 C   0  0  0  0  0  0  0  0  0  0  0  0
   10.4206  -18.1493   12.9873 N   0  0  0  0  0  0  0  0  0  0  0  0
    9.5682  -18.1931   15.1505 N   0  0  0  0  0  0  0  0  0  0  0  0
    9.4613  -18.7988   16.4504 C   0  0  0  0  0  0  0  0  0  0  0  0
    8.6483  -17.9194   17.3689 C   0  0  0  0  0  0  0  0  0  0  0  0
    8.4458  -18.5341   18.7398 C   0  0  0  0  0  0  0  0  0  0  0  0
    7.5822  -17.5818   19.5385 C   0  0  2  0  0  0  0  0  0  0  0  0
    6.8479  -16.6574   18.7024 N   0  0  0  0  0  0  0  0  0  0  0  0
    8.3733  -16.8177   20.5358 C   0  0  0  0  0  0  0  0  0  0  0  0
    9.0785  -15.8316   20.1943 O   0  0  0  0  0  0  0  0  0  0  0  0
    9.8565  -17.3333   12.7330 N   0  0  0  0  0  0  0  0  0  0  0  0
    8.3533  -17.1813   21.9024 C   0  0  1  0  0  0  0  0  0  0  0  0
    9.0981  -16.5161   22.9451 C   0  0  0  0  0  0  0  0  0  0  0  0
    8.5601  -16.8175   24.3003 C   0  0  0  0  0  0  0  0  0  0  0  0
    7.4871  -15.9135   24.7523 C   0  0  0  0  0  0  0  0  0  0  0  0
    6.2235  -16.3215   25.1955 N   0  0  0  0  0  0  0  0  0  0  0  0
    5.5030  -15.2335   25.5062 C   0  0  0  0  0  0  0  0  0  0  0  0
    6.2223  -14.1020   25.2940 C   0  0  0  0  0  0  0  0  0  0  0  0
    5.9125  -12.7769   25.4745 C   0  0  0  0  0  0  0  0  0  0  0  0
    6.8503  -11.8201   25.1855 C   0  0  0  0  0  0  0  0  0  0  0  0
    8.0872  -12.2370   24.7176 C   0  0  0  0  0  0  0  0  0  0  0  0
    8.3920  -13.5648   24.5385 C   0  0  0  0  0  0  0  0  0  0  0  0
    7.4591  -14.5383   24.8240 C   0  0  0  0  0  0  0  0  0  0  0  0
   10.5485  -16.7471   22.7826 O   0  0  0  0  0  0  0  0  0  0  0  0
   11.1576  -16.0776   21.9002 N   0  0  0  0  0  0  0  0  0  0  0  0
   11.3164  -17.6500   23.5291 C   0  0  1  0  0  0  0  0  0  0  0  0
   11.6809  -17.4713   24.9348 C   0  0  0  0  0  0  0  0  0  0  0  0
   10.4938  -16.9576   25.6960 C   0  0  0  0  0  0  0  0  0  0  0  0
   10.7258  -16.6869   27.1108 C   0  0  0  0  0  0  0  0  0  0  0  0
   11.0784  -17.6544   28.0356 N   0  0  0  0  0  0  0  0  0  0  0  0
   11.2422  -17.0681   29.2312 C   0  0  0  0  0  0  0  0  0  0  0  0
   11.0104  -15.7545   29.1272 C   0  0  0  0  0  0  0  0  0  0  0  0
   11.0537  -14.7651   30.0876 C   0  0  0  0  0  0  0  0  0  0  0  0
   10.7619  -13.4698   29.7226 C   0  0  0  0  0  0  0  0  0  0  0  0
   10.4357  -13.1943   28.4178 C   0  0  0  0  0  0  0  0  0  0  0  0
   10.3997  -14.1949   27.4824 C   0  0  0  0  0  0  0  0  0  0  0  0
   10.6863  -15.5150   27.7992 C   0  0  0  0  0  0  0  0  0  0  0  0
   12.4121  -18.5760   25.5193 O   0  0  0  0  0  0  0  0  0  0  0  0
   11.9188  -19.8920   25.6126 O   0  0  0  0  0  0  0  0  0  0  0  0
  2  3  2  0
  2  1  1  0
  4  2  1  0
  5  4  1  0
  6  5  1  0
  7  6  1  0
  8  7  1  0
  8  9  1  6
 10 12  1  0
 10  8  1  0
 11 10  2  0
 13 14  1  1
 13 24  1  0
 13 12  1  0
 14 15  1  0
 15 16  2  0
 15 23  1  0
 16 17  1  0
 17 18  1  0
 18 19  2  0
 20 19  1  0
 21 20  2  0
 22 23  2  0
 22 21  1  0
 23 18  1  0
 24 26  1  0
 25 24  2  0
 26 27  1  0
 27 38  1  0
 27 28  1  1
 29 28  1  0
 29 30  2  0
 31 30  1  0
 32 31  1  0
 33 32  2  0
 34 33  1  0
 35 34  2  0
 35 36  1  0
 36 37  2  0
 37 32  1  0
 37 29  1  0
 38 40  2  0
 38 39  1  0
M  END
$$$$
