RWW.pdb
     RDKit          3D

 40 43  0  0  1  0  0  0  0  0999 V2000
    7.3336  -13.7606   16.7465 N   0  0  0  0  0  0  0  0  0  0  0  0
    7.7323  -14.3153   15.5020 C   0  0  0  0  0  0  0  0  0  0  0  0
    7.3849  -13.7355   14.4087 N   0  0  0  0  0  0  0  0  0  0  0  0
    8.5112  -15.5030   15.4163 N   0  0  0  0  0  0  0  0  0  0  0  0
    8.5019  -16.4985   16.4540 C   0  0  0  0  0  0  0  0  0  0  0  0
    9.9142  -16.9051   16.7977 C   0  0  0  0  0  0  0  0  0  0  0  0
   10.5748  -15.9551   17.7771 C   0  0  0  0  0  0  0  0  0  0  0  0
   10.6587  -16.6670   19.1100 C   0  0  2  0  0  0  0  0  0  0  0  0
    9.8042  -17.8324   19.1764 N   0  0  0  0  0  0  0  0  0  0  0  0
   10.3422  -15.7624   20.2439 C   0  0  0  0  0  0  0  0  0  0  0  0
   11.0555  -14.7555   20.4959 O   0  0  0  0  0  0  0  0  0  0  0  0
    7.5884  -14.0825   13.4670 N   0  0  0  0  0  0  0  0  0  0  0  0
    9.2242  -16.0116   21.0736 C   0  0  1  0  0  0  0  0  0  0  0  0
    8.7843  -15.1521   22.1470 C   0  0  0  0  0  0  0  0  0  0  0  0
    7.3208  -15.2672   22.3957 C   0  0  0  0  0  0  0  0  0  0  0  0
    6.9025  -14.9464   23.7722 C   0  0  0  0  0  0  0  0  0  0  0  0
    6.3100  -15.8474   24.6647 N   0  0  0  0  0  0  0  0  0  0  0  0
    6.0463  -15.2067   25.8134 C   0  0  0  0  0  0  0  0  0  0  0  0
    6.4345  -13.9079   25.7413 C   0  0  0  0  0  0  0  0  0  0  0  0
    6.3757  -12.8861   26.6562 C   0  0  0  0  0  0  0  0  0  0  0  0
    6.8601  -11.6495   26.3176 C   0  0  0  0  0  0  0  0  0  0  0  0
    7.3955  -11.4817   25.0496 C   0  0  0  0  0  0  0  0  0  0  0  0
    7.4515  -12.5079   24.1375 C   0  0  0  0  0  0  0  0  0  0  0  0
    6.9679  -13.7566   24.4632 C   0  0  0  0  0  0  0  0  0  0  0  0
    9.6371  -15.3259   23.3411 O   0  0  0  0  0  0  0  0  0  0  0  0
    9.5286  -14.4783   24.2725 N   0  0  0  0  0  0  0  0  0  0  0  0
   10.5632  -16.3590   23.5350 C   0  0  1  0  0  0  0  0  0  0  0  0
   10.9912  -16.8608   24.8410 C   0  0  0  0  0  0  0  0  0  0  0  0
    9.7845  -17.2370   25.6503 C   0  0  0  0  0  0  0  0  0  0  0  0
   10.0023  -17.3406   27.0892 C   0  0  0  0  0  0  0  0  0  0  0  0
   10.1358  -18.5402   27.7666 N   0  0  0  0  0  0  0  0  0  0  0  0
   10.3526  -18.2799   29.0648 C   0  0  0  0  0  0  0  0  0  0  0  0
   10.3659  -16.9572   29.2656 C   0  0  0  0  0  0  0  0  0  0  0  0
   10.5468  -16.2360   30.4276 C   0  0  0  0  0  0  0  0  0  0  0  0
   10.5089  -14.8606   30.3703 C   0  0  0  0  0  0  0  0  0  0  0  0
   10.2923  -14.2419   29.1640 C   0  0  0  0  0  0  0  0  0  0  0  0
   10.1155  -14.9810   28.0237 C   0  0  0  0  0  0  0  0  0  0  0  0
   10.1461  -16.3681   28.0285 C   0  0  0  0  0  0  0  0  0  0  0  0
   12.0813  -17.8128   24.7999 O   0  0  0  0  0  0  0  0  0  0  0  0
   12.6871  -18.2733   23.6147 O   0  0  0  0  0  0  0  0  0  0  0  0
  2  3  2  0
  2  1  1  0
  4  2  1  0
  5  4  1  0
  6  5  1  0
  7  6  1  0
  8  7  1  0
  8  9  1  6
 10 12  1  0
 10  8  1  0
 11 10  2  0
 13 14  1  1
 13 24  1  0
 13 12  1  0
 14 15  1  0
 15 16  2  0
 15 23  1  0
 16 17  1  0
 17 18  1  0
 18 19  2  0
 20 19  1  0
 21 20  2  0
 22 23  2  0
 22 21  1  0
 23 18  1  0
 24 26  1  0
 25 24  2  0
 26 27  1  0
 27 38  1  0
 27 28  1  1
 29 28  1  0
 29 30  2  0
 31 30  1  0
 32 31  1  0
 33 32  2  0
 34 33  1  0
 35 34  2  0
 35 36  1  0
 36 37  2  0
 37 32  1  0
 37 29  1  0
 38 40  2  0
 38 39  1  0
M  END
$$$$
