RWW.pdb
     RDKit          3D

 40 43  0  0  1  0  0  0  0  0999 V2000
   12.3531  -15.5666   13.5827 N   0  0  0  0  0  0  0  0  0  0  0  0
   12.9792  -16.8070   13.8741 C   0  0  0  0  0  0  0  0  0  0  0  0
   13.8812  -17.2641   13.0805 N   0  0  0  0  0  0  0  0  0  0  0  0
   12.6431  -17.5739   15.0247 N   0  0  0  0  0  0  0  0  0  0  0  0
   11.7663  -17.0713   16.0476 C   0  0  0  0  0  0  0  0  0  0  0  0
   11.6875  -18.0511   17.1929 C   0  0  0  0  0  0  0  0  0  0  0  0
   10.7119  -17.6165   18.2689 C   0  0  0  0  0  0  0  0  0  0  0  0
   11.3398  -17.9433   19.6065 C   0  0  2  0  0  0  0  0  0  0  0  0
   11.0547  -19.2926   20.0436 N   0  0  0  0  0  0  0  0  0  0  0  0
   10.9238  -16.9879   20.6639 C   0  0  0  0  0  0  0  0  0  0  0  0
   11.2928  -15.7839   20.6393 O   0  0  0  0  0  0  0  0  0  0  0  0
   14.3554  -18.1657   13.1842 N   0  0  0  0  0  0  0  0  0  0  0  0
   10.0973  -17.4099   21.7312 C   0  0  1  0  0  0  0  0  0  0  0  0
    9.5451  -16.5396   22.7423 C   0  0  0  0  0  0  0  0  0  0  0  0
    8.0564  -16.5291   22.7231 C   0  0  0  0  0  0  0  0  0  0  0  0
    7.4595  -15.6495   21.7020 C   0  0  0  0  0  0  0  0  0  0  0  0
    6.5977  -16.0690   20.6817 N   0  0  0  0  0  0  0  0  0  0  0  0
    6.2694  -15.0073   19.9304 C   0  0  0  0  0  0  0  0  0  0  0  0
    6.8705  -13.8827   20.3959 C   0  0  0  0  0  0  0  0  0  0  0  0
    6.8265  -12.5799   19.9652 C   0  0  0  0  0  0  0  0  0  0  0  0
    7.5364  -11.6222   20.6416 C   0  0  0  0  0  0  0  0  0  0  0  0
    8.2775  -12.0154   21.7456 C   0  0  0  0  0  0  0  0  0  0  0  0
    8.3182  -13.3209   22.1721 C   0  0  0  0  0  0  0  0  0  0  0  0
    7.6104  -14.2952   21.5019 C   0  0  0  0  0  0  0  0  0  0  0  0
   10.1516  -16.8167   24.0610 O   0  0  0  0  0  0  0  0  0  0  0  0
   10.9043  -17.8270   24.1640 N   0  0  0  0  0  0  0  0  0  0  0  0
    9.9660  -16.0495   25.2183 C   0  0  2  0  0  0  0  0  0  0  0  0
   10.4678  -16.4074   26.5452 C   0  0  0  0  0  0  0  0  0  0  0  0
    9.3822  -16.2012   27.5608 C   0  0  0  0  0  0  0  0  0  0  0  0
    8.2365  -15.4220   27.1042 C   0  0  0  0  0  0  0  0  0  0  0  0
    7.0806  -15.9784   26.5844 N   0  0  0  0  0  0  0  0  0  0  0  0
    6.2210  -14.9907   26.2917 C   0  0  0  0  0  0  0  0  0  0  0  0
    6.7675  -13.8087   26.5984 C   0  0  0  0  0  0  0  0  0  0  0  0
    6.2596  -12.5329   26.4658 C   0  0  0  0  0  0  0  0  0  0  0  0
    7.0358  -11.4637   26.8538 C   0  0  0  0  0  0  0  0  0  0  0  0
    8.2913  -11.6908   27.3606 C   0  0  0  0  0  0  0  0  0  0  0  0
    8.7731  -12.9677   27.4824 C   0  0  0  0  0  0  0  0  0  0  0  0
    8.0303  -14.0780   27.1070 C   0  0  0  0  0  0  0  0  0  0  0  0
   11.1975  -17.6566   26.6035 O   0  0  0  0  0  0  0  0  0  0  0  0
   10.8696  -18.8019   25.8522 O   0  0  0  0  0  0  0  0  0  0  0  0
  2  3  2  0
  2  1  1  0
  4  2  1  0
  5  4  1  0
  6  5  1  0
  7  6  1  0
  8  7  1  0
  8  9  1  1
 10 12  1  0
 10  8  1  0
 11 10  2  0
 13 14  1  1
 13 24  1  0
 13 12  1  0
 14 15  1  0
 15 16  2  0
 15 23  1  0
 16 17  1  0
 17 18  1  0
 18 19  2  0
 20 19  1  0
 21 20  2  0
 22 23  2  0
 22 21  1  0
 23 18  1  0
 24 26  1  0
 25 24  2  0
 26 27  1  0
 27 38  1  0
 27 28  1  6
 29 28  1  0
 29 30  2  0
 31 30  1  0
 32 31  1  0
 33 32  2  0
 34 33  1  0
 35 34  2  0
 35 36  1  0
 36 37  2  0
 37 32  1  0
 37 29  1  0
 38 40  2  0
 38 39  1  0
M  END
$$$$
