RWW.pdb
     RDKit          3D

 40 43  0  0  1  0  0  0  0  0999 V2000
   13.0910  -17.5252   15.5124 N   0  0  0  0  0  0  0  0  0  0  0  0
   13.4349  -18.8715   15.8035 C   0  0  0  0  0  0  0  0  0  0  0  0
   14.6319  -19.2830   15.5800 N   0  0  0  0  0  0  0  0  0  0  0  0
   12.4944  -19.7950   16.3397 N   0  0  0  0  0  0  0  0  0  0  0  0
   11.1411  -19.4161   16.6446 C   0  0  0  0  0  0  0  0  0  0  0  0
   11.0541  -18.8874   18.0556 C   0  0  0  0  0  0  0  0  0  0  0  0
   10.5432  -19.9228   19.0380 C   0  0  0  0  0  0  0  0  0  0  0  0
   11.4992  -19.9426   20.2111 C   0  0  2  0  0  0  0  0  0  0  0  0
   12.1002  -21.2417   20.4210 N   0  0  0  0  0  0  0  0  0  0  0  0
   10.8465  -19.4962   21.4675 C   0  0  0  0  0  0  0  0  0  0  0  0
    9.6561  -19.8101   21.7333 O   0  0  0  0  0  0  0  0  0  0  0  0
   14.9746  -20.2294   15.7683 N   0  0  0  0  0  0  0  0  0  0  0  0
   11.5510  -18.7026   22.4025 C   0  0  2  0  0  0  0  0  0  0  0  0
   10.9602  -18.0627   23.5540 C   0  0  0  0  0  0  0  0  0  0  0  0
   11.8620  -18.0926   24.7383 C   0  0  0  0  0  0  0  0  0  0  0  0
   11.2092  -17.7638   26.0184 C   0  0  0  0  0  0  0  0  0  0  0  0
   10.3857  -18.6291   26.7482 N   0  0  0  0  0  0  0  0  0  0  0  0
    9.9533  -17.9902   27.8456 C   0  0  0  0  0  0  0  0  0  0  0  0
   10.4478  -16.7270   27.8945 C   0  0  0  0  0  0  0  0  0  0  0  0
   10.2910  -15.7210   28.8155 C   0  0  0  0  0  0  0  0  0  0  0  0
   10.9267  -14.5227   28.6194 C   0  0  0  0  0  0  0  0  0  0  0  0
   11.7108  -14.3763   27.4852 C   0  0  0  0  0  0  0  0  0  0  0  0
   11.8640  -15.3864   26.5664 C   0  0  0  0  0  0  0  0  0  0  0  0
   11.2305  -16.5966   26.7494 C   0  0  0  0  0  0  0  0  0  0  0  0
   10.4363  -16.7270   23.2005 O   0  0  0  0  0  0  0  0  0  0  0  0
   11.2527  -15.8722   22.7527 N   0  0  0  0  0  0  0  0  0  0  0  0
    9.1006  -16.3210   23.3168 C   0  0  1  0  0  0  0  0  0  0  0  0
    8.6148  -15.3122   24.2586 C   0  0  0  0  0  0  0  0  0  0  0  0
    7.3183  -15.7731   24.8577 C   0  0  0  0  0  0  0  0  0  0  0  0
    6.4796  -14.7211   25.4221 C   0  0  0  0  0  0  0  0  0  0  0  0
    5.2804  -14.9538   26.0727 N   0  0  0  0  0  0  0  0  0  0  0  0
    4.7826  -13.7803   26.4913 C   0  0  0  0  0  0  0  0  0  0  0  0
    5.6076  -12.7872   26.1404 C   0  0  0  0  0  0  0  0  0  0  0  0
    5.5034  -11.4279   26.3517 C   0  0  0  0  0  0  0  0  0  0  0  0
    6.4984  -10.6022   25.8778 C   0  0  0  0  0  0  0  0  0  0  0  0
    7.5656  -11.1481   25.2086 C   0  0  0  0  0  0  0  0  0  0  0  0
    7.6460  -12.5018   25.0115 C   0  0  0  0  0  0  0  0  0  0  0  0
    6.6707  -13.3757   25.4702 C   0  0  0  0  0  0  0  0  0  0  0  0
    9.6161  -14.7967   25.1686 O   0  0  0  0  0  0  0  0  0  0  0  0
   10.2027  -15.5448   26.2078 O   0  0  0  0  0  0  0  0  0  0  0  0
  2  3  2  0
  2  1  1  0
  4  2  1  0
  5  4  1  0
  6  5  1  0
  7  6  1  0
  8  7  1  0
  8  9  1  1
 10 12  1  0
 10  8  1  0
 11 10  2  0
 13 14  1  1
 13 24  1  0
 13 12  1  0
 14 15  1  0
 15 16  2  0
 15 23  1  0
 16 17  1  0
 17 18  1  0
 18 19  2  0
 20 19  1  0
 21 20  2  0
 22 23  2  0
 22 21  1  0
 23 18  1  0
 24 26  1  0
 25 24  2  0
 26 27  1  0
 27 38  1  0
 27 28  1  1
 29 28  1  0
 29 30  2  0
 31 30  1  0
 32 31  1  0
 33 32  2  0
 34 33  1  0
 35 34  2  0
 35 36  1  0
 36 37  2  0
 37 32  1  0
 37 29  1  0
 38 40  2  0
 38 39  1  0
M  END
$$$$
