RWW.pdb
     RDKit          3D

 40 43  0  0  1  0  0  0  0  0999 V2000
    7.0482  -20.7880   13.9010 N   0  0  0  0  0  0  0  0  0  0  0  0
    7.7547  -19.9087   13.0390 C   0  0  0  0  0  0  0  0  0  0  0  0
    7.2669  -19.6246   11.8842 N   0  0  0  0  0  0  0  0  0  0  0  0
    8.9976  -19.3220   13.4079 N   0  0  0  0  0  0  0  0  0  0  0  0
    9.6192  -19.5857   14.6775 C   0  0  0  0  0  0  0  0  0  0  0  0
    8.8744  -18.8725   15.7796 C   0  0  0  0  0  0  0  0  0  0  0  0
    9.8020  -18.2231   16.7877 C   0  0  0  0  0  0  0  0  0  0  0  0
    9.4159  -18.7415   18.1561 C   0  0  2  0  0  0  0  0  0  0  0  0
    8.0577  -19.2373   18.2036 N   0  0  0  0  0  0  0  0  0  0  0  0
    9.5992  -17.7138   19.2117 C   0  0  0  0  0  0  0  0  0  0  0  0
   10.6999  -17.1204   19.3625 O   0  0  0  0  0  0  0  0  0  0  0  0
    7.7367  -19.0638   11.1677 N   0  0  0  0  0  0  0  0  0  0  0  0
    8.5347  -17.3742   20.0788 C   0  0  1  0  0  0  0  0  0  0  0  0
    8.6504  -16.5101   21.2297 C   0  0  0  0  0  0  0  0  0  0  0  0
    7.3798  -15.7918   21.5235 C   0  0  0  0  0  0  0  0  0  0  0  0
    7.5298  -14.5968   22.3734 C   0  0  0  0  0  0  0  0  0  0  0  0
    8.1672  -13.4109   21.9904 N   0  0  0  0  0  0  0  0  0  0  0  0
    8.1328  -12.5507   23.0191 C   0  0  0  0  0  0  0  0  0  0  0  0
    7.4985  -13.1001   24.0861 C   0  0  0  0  0  0  0  0  0  0  0  0
    7.2189  -12.6046   25.3355 C   0  0  0  0  0  0  0  0  0  0  0  0
    6.5409  -13.3863   26.2343 C   0  0  0  0  0  0  0  0  0  0  0  0
    6.1617  -14.6597   25.8378 C   0  0  0  0  0  0  0  0  0  0  0  0
    6.4444  -15.1508   24.5861 C   0  0  0  0  0  0  0  0  0  0  0  0
    7.1260  -14.3770   23.6718 C   0  0  0  0  0  0  0  0  0  0  0  0
    9.2369  -17.2373   22.3746 O   0  0  0  0  0  0  0  0  0  0  0  0
    8.6976  -18.3270   22.7206 N   0  0  0  0  0  0  0  0  0  0  0  0
   10.3504  -16.8227   23.1165 C   0  0  2  0  0  0  0  0  0  0  0  0
   10.6064  -17.1869   24.5102 C   0  0  0  0  0  0  0  0  0  0  0  0
   11.1956  -16.0108   25.2326 C   0  0  0  0  0  0  0  0  0  0  0  0
   11.0182  -16.0116   26.6808 C   0  0  0  0  0  0  0  0  0  0  0  0
   11.2112  -17.1230   27.4828 N   0  0  0  0  0  0  0  0  0  0  0  0
   10.9942  -16.7752   28.7603 C   0  0  0  0  0  0  0  0  0  0  0  0
   10.6660  -15.4799   28.8277 C   0  0  0  0  0  0  0  0  0  0  0  0
   10.3544  -14.6972   29.9202 C   0  0  0  0  0  0  0  0  0  0  0  0
   10.0393  -13.3715   29.7212 C   0  0  0  0  0  0  0  0  0  0  0  0
   10.0418  -12.8620   28.4464 C   0  0  0  0  0  0  0  0  0  0  0  0
   10.3549  -13.6603   27.3776 C   0  0  0  0  0  0  0  0  0  0  0  0
   10.6804  -15.0010   27.5253 C   0  0  0  0  0  0  0  0  0  0  0  0
    9.5220  -17.8881   25.1651 O   0  0  0  0  0  0  0  0  0  0  0  0
    9.6872  -19.0422   25.9553 O   0  0  0  0  0  0  0  0  0  0  0  0
  2  3  2  0
  2  1  1  0
  4  2  1  0
  5  4  1  0
  6  5  1  0
  7  6  1  0
  8  7  1  0
  8  9  1  6
 10 12  1  0
 10  8  1  0
 11 10  2  0
 13 14  1  6
 13 24  1  0
 13 12  1  0
 14 15  1  0
 15 16  2  0
 15 23  1  0
 16 17  1  0
 17 18  1  0
 18 19  2  0
 20 19  1  0
 21 20  2  0
 22 23  2  0
 22 21  1  0
 23 18  1  0
 24 26  1  0
 25 24  2  0
 26 27  1  0
 27 38  1  0
 27 28  1  6
 29 28  1  0
 29 30  2  0
 31 30  1  0
 32 31  1  0
 33 32  2  0
 34 33  1  0
 35 34  2  0
 35 36  1  0
 36 37  2  0
 37 32  1  0
 37 29  1  0
 38 40  2  0
 38 39  1  0
M  END
$$$$
