RWW.pdb
     RDKit          3D

 40 43  0  0  1  0  0  0  0  0999 V2000
    9.3329  -15.1281   14.9749 N   0  0  0  0  0  0  0  0  0  0  0  0
    8.3633  -14.1545   14.6182 C   0  0  0  0  0  0  0  0  0  0  0  0
    8.0533  -13.9914   13.3815 N   0  0  0  0  0  0  0  0  0  0  0  0
    7.7129  -13.3416   15.5884 N   0  0  0  0  0  0  0  0  0  0  0  0
    8.0189  -13.4338   16.9904 C   0  0  0  0  0  0  0  0  0  0  0  0
    6.8851  -14.1042   17.7274 C   0  0  0  0  0  0  0  0  0  0  0  0
    7.1065  -14.1480   19.2266 C   0  0  0  0  0  0  0  0  0  0  0  0
    7.9651  -15.3590   19.5210 C   0  0  2  0  0  0  0  0  0  0  0  0
    7.2195  -16.5978   19.4757 N   0  0  0  0  0  0  0  0  0  0  0  0
    8.6513  -15.2480   20.8329 C   0  0  0  0  0  0  0  0  0  0  0  0
    9.2753  -14.2035   21.1582 O   0  0  0  0  0  0  0  0  0  0  0  0
    7.3550  -13.3294   13.0313 N   0  0  0  0  0  0  0  0  0  0  0  0
    8.6198  -16.3200   21.7550 C   0  0  1  0  0  0  0  0  0  0  0  0
    9.3434  -16.3567   23.0038 C   0  0  0  0  0  0  0  0  0  0  0  0
    8.5283  -16.9316   24.1092 C   0  0  0  0  0  0  0  0  0  0  0  0
    7.5489  -16.0021   24.7005 C   0  0  0  0  0  0  0  0  0  0  0  0
    6.2826  -16.3617   25.1765 N   0  0  0  0  0  0  0  0  0  0  0  0
    5.6608  -15.2604   25.6236 C   0  0  0  0  0  0  0  0  0  0  0  0
    6.4499  -14.1663   25.4728 C   0  0  0  0  0  0  0  0  0  0  0  0
    6.2480  -12.8455   25.7882 C   0  0  0  0  0  0  0  0  0  0  0  0
    7.2380  -11.9327   25.5330 C   0  0  0  0  0  0  0  0  0  0  0  0
    8.4157  -12.3883   24.9602 C   0  0  0  0  0  0  0  0  0  0  0  0
    8.6124  -13.7114   24.6461 C   0  0  0  0  0  0  0  0  0  0  0  0
    7.6260  -14.6409   24.8961 C   0  0  0  0  0  0  0  0  0  0  0  0
   10.6735  -16.9739   22.8213 O   0  0  0  0  0  0  0  0  0  0  0  0
   10.7620  -17.9668   22.0441 N   0  0  0  0  0  0  0  0  0  0  0  0
   11.8577  -16.5501   23.4383 C   0  0  2  0  0  0  0  0  0  0  0  0
   12.1220  -16.6247   24.8753 C   0  0  0  0  0  0  0  0  0  0  0  0
   11.0669  -15.8569   25.6167 C   0  0  0  0  0  0  0  0  0  0  0  0
   11.0979  -15.9916   27.0691 C   0  0  0  0  0  0  0  0  0  0  0  0
   11.5432  -17.1223   27.7316 N   0  0  0  0  0  0  0  0  0  0  0  0
   11.4665  -16.9055   29.0534 C   0  0  0  0  0  0  0  0  0  0  0  0
   10.9879  -15.6775   29.2840 C   0  0  0  0  0  0  0  0  0  0  0  0
   10.7365  -15.0305   30.4761 C   0  0  0  0  0  0  0  0  0  0  0  0
   10.2292  -13.7507   30.4450 C   0  0  0  0  0  0  0  0  0  0  0  0
    9.9860  -13.1513   29.2341 C   0  0  0  0  0  0  0  0  0  0  0  0
   10.2443  -13.8152   28.0636 C   0  0  0  0  0  0  0  0  0  0  0  0
   10.7564  -15.1046   28.0414 C   0  0  0  0  0  0  0  0  0  0  0  0
   12.4435  -17.9480   25.3672 O   0  0  0  0  0  0  0  0  0  0  0  0
   11.5716  -19.0521   25.2999 O   0  0  0  0  0  0  0  0  0  0  0  0
  2  3  2  0
  2  1  1  0
  4  2  1  0
  5  4  1  0
  6  5  1  0
  7  6  1  0
  8  7  1  0
  8  9  1  1
 10 12  1  0
 10  8  1  0
 11 10  2  0
 13 14  1  1
 13 24  1  0
 13 12  1  0
 14 15  1  0
 15 16  2  0
 15 23  1  0
 16 17  1  0
 17 18  1  0
 18 19  2  0
 20 19  1  0
 21 20  2  0
 22 23  2  0
 22 21  1  0
 23 18  1  0
 24 26  1  0
 25 24  2  0
 26 27  1  0
 27 38  1  0
 27 28  1  6
 29 28  1  0
 29 30  2  0
 31 30  1  0
 32 31  1  0
 33 32  2  0
 34 33  1  0
 35 34  2  0
 35 36  1  0
 36 37  2  0
 37 32  1  0
 37 29  1  0
 38 40  2  0
 38 39  1  0
M  END
$$$$
