RWW.pdb
     RDKit          3D

 40 43  0  0  1  0  0  0  0  0999 V2000
    7.8572  -12.3722   15.7697 N   0  0  0  0  0  0  0  0  0  0  0  0
    7.2756  -13.2523   14.8196 C   0  0  0  0  0  0  0  0  0  0  0  0
    7.2498  -12.9188   13.5786 N   0  0  0  0  0  0  0  0  0  0  0  0
    6.7128  -14.5051   15.1922 N   0  0  0  0  0  0  0  0  0  0  0  0
    6.8988  -15.0659   16.5031 C   0  0  0  0  0  0  0  0  0  0  0  0
    7.9444  -16.1535   16.4603 C   0  0  0  0  0  0  0  0  0  0  0  0
    9.2246  -15.7630   17.1723 C   0  0  0  0  0  0  0  0  0  0  0  0
    9.5003  -16.8213   18.2184 C   0  0  2  0  0  0  0  0  0  0  0  0
    8.5530  -17.9137   18.1722 N   0  0  0  0  0  0  0  0  0  0  0  0
    9.5263  -16.2535   19.5899 C   0  0  0  0  0  0  0  0  0  0  0  0
   10.4294  -15.4523   19.9490 O   0  0  0  0  0  0  0  0  0  0  0  0
    6.7587  -13.4315   12.8406 N   0  0  0  0  0  0  0  0  0  0  0  0
    8.5305  -16.6008   20.5322 C   0  0  1  0  0  0  0  0  0  0  0  0
    8.5909  -16.3065   21.9444 C   0  0  0  0  0  0  0  0  0  0  0  0
    7.3215  -16.6460   22.6444 C   0  0  0  0  0  0  0  0  0  0  0  0
    7.1220  -15.9526   23.9298 C   0  0  0  0  0  0  0  0  0  0  0  0
    6.5360  -16.5187   25.0680 N   0  0  0  0  0  0  0  0  0  0  0  0
    6.5007  -15.5950   26.0401 C   0  0  0  0  0  0  0  0  0  0  0  0
    7.0382  -14.4242   25.6124 C   0  0  0  0  0  0  0  0  0  0  0  0
    7.2237  -13.2204   26.2459 C   0  0  0  0  0  0  0  0  0  0  0  0
    7.8148  -12.1861   25.5680 C   0  0  0  0  0  0  0  0  0  0  0  0
    8.2049  -12.4030   24.2552 C   0  0  0  0  0  0  0  0  0  0  0  0
    8.0165  -13.6098   23.6259 C   0  0  0  0  0  0  0  0  0  0  0  0
    7.4230  -14.6589   24.2942 C   0  0  0  0  0  0  0  0  0  0  0  0
    9.8111  -16.8812   22.5481 O   0  0  0  0  0  0  0  0  0  0  0  0
   10.9283  -16.4367   22.1582 N   0  0  0  0  0  0  0  0  0  0  0  0
    9.8392  -17.8839   23.5260 C   0  0  1  0  0  0  0  0  0  0  0  0
   10.3044  -17.6954   24.9003 C   0  0  0  0  0  0  0  0  0  0  0  0
    9.7634  -16.4023   25.4367 C   0  0  0  0  0  0  0  0  0  0  0  0
   10.0753  -16.1242   26.8345 C   0  0  0  0  0  0  0  0  0  0  0  0
   10.7544  -16.9995   27.6642 N   0  0  0  0  0  0  0  0  0  0  0  0
   10.8990  -16.4266   28.8688 C   0  0  0  0  0  0  0  0  0  0  0  0
   10.3410  -15.2105   28.8620 C   0  0  0  0  0  0  0  0  0  0  0  0
   10.2446  -14.2708   29.8674 C   0  0  0  0  0  0  0  0  0  0  0  0
    9.6049  -13.0797   29.6062 C   0  0  0  0  0  0  0  0  0  0  0  0
    9.0798  -12.8561   28.3575 C   0  0  0  0  0  0  0  0  0  0  0  0
    9.1888  -13.8057   27.3757 C   0  0  0  0  0  0  0  0  0  0  0  0
    9.8244  -15.0206   27.5881 C   0  0  0  0  0  0  0  0  0  0  0  0
   10.1860  -18.8628   25.7486 O   0  0  0  0  0  0  0  0  0  0  0  0
    9.2641  -19.9063   25.5366 O   0  0  0  0  0  0  0  0  0  0  0  0
  2  3  2  0
  2  1  1  0
  4  2  1  0
  5  4  1  0
  6  5  1  0
  7  6  1  0
  8  7  1  0
  8  9  1  1
 10 12  1  0
 10  8  1  0
 11 10  2  0
 13 14  1  1
 13 24  1  0
 13 12  1  0
 14 15  1  0
 15 16  2  0
 15 23  1  0
 16 17  1  0
 17 18  1  0
 18 19  2  0
 20 19  1  0
 21 20  2  0
 22 23  2  0
 22 21  1  0
 23 18  1  0
 24 26  1  0
 25 24  2  0
 26 27  1  0
 27 38  1  0
 27 28  1  1
 29 28  1  0
 29 30  2  0
 31 30  1  0
 32 31  1  0
 33 32  2  0
 34 33  1  0
 35 34  2  0
 35 36  1  0
 36 37  2  0
 37 32  1  0
 37 29  1  0
 38 40  2  0
 38 39  1  0
M  END
$$$$
