RWW.pdb
     RDKit          3D

 40 43  0  0  1  0  0  0  0  0999 V2000
    7.3024  -15.3533   12.6542 N   0  0  0  0  0  0  0  0  0  0  0  0
    8.0848  -15.4970   13.8300 C   0  0  0  0  0  0  0  0  0  0  0  0
    9.2786  -15.9658   13.7443 N   0  0  0  0  0  0  0  0  0  0  0  0
    7.5931  -15.1379   15.1162 N   0  0  0  0  0  0  0  0  0  0  0  0
    7.4768  -13.7667   15.5335 C   0  0  0  0  0  0  0  0  0  0  0  0
    8.5501  -13.4368   16.5421 C   0  0  0  0  0  0  0  0  0  0  0  0
    8.0965  -13.6551   17.9721 C   0  0  0  0  0  0  0  0  0  0  0  0
    9.0033  -14.7041   18.5783 C   0  0  2  0  0  0  0  0  0  0  0  0
    8.6536  -16.0480   18.1726 N   0  0  0  0  0  0  0  0  0  0  0  0
    9.0251  -14.6302   20.0609 C   0  0  0  0  0  0  0  0  0  0  0  0
    9.4926  -13.6251   20.6588 O   0  0  0  0  0  0  0  0  0  0  0  0
    9.9387  -16.0435   14.5232 N   0  0  0  0  0  0  0  0  0  0  0  0
    8.5173  -15.6940   20.8425 C   0  0  1  0  0  0  0  0  0  0  0  0
    8.5066  -15.7266   22.2859 C   0  0  0  0  0  0  0  0  0  0  0  0
    7.2033  -16.2002   22.8280 C   0  0  0  0  0  0  0  0  0  0  0  0
    6.8439  -15.6419   24.1441 C   0  0  0  0  0  0  0  0  0  0  0  0
    6.2729  -16.3657   25.1973 N   0  0  0  0  0  0  0  0  0  0  0  0
    6.0638  -15.5342   26.2291 C   0  0  0  0  0  0  0  0  0  0  0  0
    6.4686  -14.2752   25.9233 C   0  0  0  0  0  0  0  0  0  0  0  0
    6.4610  -13.1122   26.6527 C   0  0  0  0  0  0  0  0  0  0  0  0
    6.9506  -11.9615   26.0917 C   0  0  0  0  0  0  0  0  0  0  0  0
    7.4388  -12.0225   24.7953 C   0  0  0  0  0  0  0  0  0  0  0  0
    7.4437  -13.1892   24.0695 C   0  0  0  0  0  0  0  0  0  0  0  0
    6.9541  -14.3540   24.6199 C   0  0  0  0  0  0  0  0  0  0  0  0
    9.6945  -16.4371   22.8033 O   0  0  0  0  0  0  0  0  0  0  0  0
   10.0546  -17.4940   22.2108 N   0  0  0  0  0  0  0  0  0  0  0  0
   10.4658  -16.0375   23.9023 C   0  0  2  0  0  0  0  0  0  0  0  0
   11.7017  -16.6903   24.3349 C   0  0  0  0  0  0  0  0  0  0  0  0
   12.2474  -15.9772   25.5374 C   0  0  0  0  0  0  0  0  0  0  0  0
   11.5482  -16.2373   26.7913 C   0  0  0  0  0  0  0  0  0  0  0  0
   11.4486  -17.4878   27.3761 N   0  0  0  0  0  0  0  0  0  0  0  0
   10.7702  -17.3720   28.5278 C   0  0  0  0  0  0  0  0  0  0  0  0
   10.4206  -16.0951   28.7211 C   0  0  0  0  0  0  0  0  0  0  0  0
    9.7160  -15.5127   29.7544 C   0  0  0  0  0  0  0  0  0  0  0  0
    9.4763  -14.1572   29.7158 C   0  0  0  0  0  0  0  0  0  0  0  0
    9.9413  -13.4203   28.6549 C   0  0  0  0  0  0  0  0  0  0  0  0
   10.6388  -14.0225   27.6407 C   0  0  0  0  0  0  0  0  0  0  0  0
   10.9072  -15.3838   27.6335 C   0  0  0  0  0  0  0  0  0  0  0  0
   11.6371  -18.1355   24.3975 O   0  0  0  0  0  0  0  0  0  0  0  0
   10.4392  -18.8763   24.3916 O   0  0  0  0  0  0  0  0  0  0  0  0
  2  3  2  0
  2  1  1  0
  4  2  1  0
  5  4  1  0
  6  5  1  0
  7  6  1  0
  8  7  1  0
  8  9  1  1
 10 12  1  0
 10  8  1  0
 11 10  2  0
 13 14  1  1
 13 24  1  0
 13 12  1  0
 14 15  1  0
 15 16  2  0
 15 23  1  0
 16 17  1  0
 17 18  1  0
 18 19  2  0
 20 19  1  0
 21 20  2  0
 22 23  2  0
 22 21  1  0
 23 18  1  0
 24 26  1  0
 25 24  2  0
 26 27  1  0
 27 38  1  0
 27 28  1  1
 29 28  1  0
 29 30  2  0
 31 30  1  0
 32 31  1  0
 33 32  2  0
 34 33  1  0
 35 34  2  0
 35 36  1  0
 36 37  2  0
 37 32  1  0
 37 29  1  0
 38 40  2  0
 38 39  1  0
M  END
$$$$
