RWW.pdb
     RDKit          3D

 40 43  0  0  1  0  0  0  0  0999 V2000
   10.2485  -14.7806   14.3783 N   0  0  0  0  0  0  0  0  0  0  0  0
    9.3117  -15.7939   14.0451 C   0  0  0  0  0  0  0  0  0  0  0  0
    8.2898  -15.5003   13.3229 N   0  0  0  0  0  0  0  0  0  0  0  0
    9.4615  -17.1388   14.4851 N   0  0  0  0  0  0  0  0  0  0  0  0
   10.5604  -17.5527   15.3150 C   0  0  0  0  0  0  0  0  0  0  0  0
   10.2020  -17.3904   16.7721 C   0  0  0  0  0  0  0  0  0  0  0  0
   11.3557  -17.7200   17.6988 C   0  0  0  0  0  0  0  0  0  0  0  0
   10.7683  -18.3403   18.9481 C   0  0  2  0  0  0  0  0  0  0  0  0
    9.3247  -18.2553   18.9892 N   0  0  0  0  0  0  0  0  0  0  0  0
   11.3297  -17.7388   20.1839 C   0  0  0  0  0  0  0  0  0  0  0  0
   12.5735  -17.6547   20.3635 O   0  0  0  0  0  0  0  0  0  0  0  0
    7.6026  -16.1738   12.9725 N   0  0  0  0  0  0  0  0  0  0  0  0
   10.4752  -17.2422   21.1956 C   0  0  1  0  0  0  0  0  0  0  0  0
   10.9161  -16.5458   22.3809 C   0  0  0  0  0  0  0  0  0  0  0  0
   10.3799  -15.1585   22.4502 C   0  0  0  0  0  0  0  0  0  0  0  0
    8.9605  -15.0270   22.0749 C   0  0  0  0  0  0  0  0  0  0  0  0
    7.8835  -15.5456   22.8033 N   0  0  0  0  0  0  0  0  0  0  0  0
    6.7449  -15.2535   22.1569 C   0  0  0  0  0  0  0  0  0  0  0  0
    7.0007  -14.5577   21.0198 C   0  0  0  0  0  0  0  0  0  0  0  0
    6.1670  -14.0438   20.0577 C   0  0  0  0  0  0  0  0  0  0  0  0
    6.7023  -13.3597   18.9976 C   0  0  0  0  0  0  0  0  0  0  0  0
    8.0801  -13.2142   18.9418 C   0  0  0  0  0  0  0  0  0  0  0  0
    8.9100  -13.7309   19.9074 C   0  0  0  0  0  0  0  0  0  0  0  0
    8.3866  -14.4217   20.9789 C   0  0  0  0  0  0  0  0  0  0  0  0
   10.6853  -17.3665   23.5878 O   0  0  0  0  0  0  0  0  0  0  0  0
    9.8516  -18.3133   23.5072 N   0  0  0  0  0  0  0  0  0  0  0  0
   11.3168  -17.1876   24.8254 C   0  0  2  0  0  0  0  0  0  0  0  0
   10.6804  -16.6127   26.0107 C   0  0  0  0  0  0  0  0  0  0  0  0
    9.6332  -15.6256   25.5850 C   0  0  0  0  0  0  0  0  0  0  0  0
    9.3435  -14.5658   26.5450 C   0  0  0  0  0  0  0  0  0  0  0  0
    9.9043  -14.4923   27.8082 N   0  0  0  0  0  0  0  0  0  0  0  0
    9.4503  -13.3864   28.4174 C   0  0  0  0  0  0  0  0  0  0  0  0
    8.6136  -12.7321   27.6038 C   0  0  0  0  0  0  0  0  0  0  0  0
    7.9116  -11.5617   27.8048 C   0  0  0  0  0  0  0  0  0  0  0  0
    7.0980  -11.0921   26.7978 C   0  0  0  0  0  0  0  0  0  0  0  0
    7.0044  -11.7964   25.6231 C   0  0  0  0  0  0  0  0  0  0  0  0
    7.7122  -12.9566   25.4480 C   0  0  0  0  0  0  0  0  0  0  0  0
    8.5459  -13.4706   26.4308 C   0  0  0  0  0  0  0  0  0  0  0  0
   10.3072  -17.5734   27.0277 O   0  0  0  0  0  0  0  0  0  0  0  0
   10.5889  -17.4250   28.3997 O   0  0  0  0  0  0  0  0  0  0  0  0
  2  3  2  0
  2  1  1  0
  4  2  1  0
  5  4  1  0
  6  5  1  0
  7  6  1  0
  8  7  1  0
  8  9  1  6
 10 12  1  0
 10  8  1  0
 11 10  2  0
 13 14  1  6
 13 24  1  0
 13 12  1  0
 14 15  1  0
 15 16  2  0
 15 23  1  0
 16 17  1  0
 17 18  1  0
 18 19  2  0
 20 19  1  0
 21 20  2  0
 22 23  2  0
 22 21  1  0
 23 18  1  0
 24 26  1  0
 25 24  2  0
 26 27  1  0
 27 38  1  0
 27 28  1  6
 29 28  1  0
 29 30  2  0
 31 30  1  0
 32 31  1  0
 33 32  2  0
 34 33  1  0
 35 34  2  0
 35 36  1  0
 36 37  2  0
 37 32  1  0
 37 29  1  0
 38 40  2  0
 38 39  1  0
M  END
$$$$
