RWW.pdb
     RDKit          3D

 40 43  0  0  1  0  0  0  0  0999 V2000
    8.5645  -13.0555   14.5555 N   0  0  0  0  0  0  0  0  0  0  0  0
    7.8931  -14.2170   15.0200 C   0  0  0  0  0  0  0  0  0  0  0  0
    6.6706  -14.4217   14.6799 N   0  0  0  0  0  0  0  0  0  0  0  0
    8.5285  -15.1755   15.8581 N   0  0  0  0  0  0  0  0  0  0  0  0
    9.8691  -14.9938   16.3457 C   0  0  0  0  0  0  0  0  0  0  0  0
   10.3099  -16.2108   17.1219 C   0  0  0  0  0  0  0  0  0  0  0  0
   10.7505  -15.8766   18.5335 C   0  0  0  0  0  0  0  0  0  0  0  0
   10.6120  -17.1369   19.3600 C   0  0  2  0  0  0  0  0  0  0  0  0
    9.4549  -17.9232   18.9915 N   0  0  0  0  0  0  0  0  0  0  0  0
   10.5625  -16.8448   20.8147 C   0  0  0  0  0  0  0  0  0  0  0  0
   11.5101  -16.2520   21.3953 O   0  0  0  0  0  0  0  0  0  0  0  0
    6.1271  -15.2586   14.9098 N   0  0  0  0  0  0  0  0  0  0  0  0
    9.4421  -17.2275   21.5884 C   0  0  2  0  0  0  0  0  0  0  0  0
    9.2355  -16.8755   22.9733 C   0  0  0  0  0  0  0  0  0  0  0  0
    7.7948  -16.6826   23.2955 C   0  0  0  0  0  0  0  0  0  0  0  0
    7.3359  -15.2825   23.2529 C   0  0  0  0  0  0  0  0  0  0  0  0
    7.0861  -14.5519   22.0853 N   0  0  0  0  0  0  0  0  0  0  0  0
    6.7047  -13.3116   22.4255 C   0  0  0  0  0  0  0  0  0  0  0  0
    6.6836  -13.1667   23.7750 C   0  0  0  0  0  0  0  0  0  0  0  0
    6.3554  -12.0988   24.5728 C   0  0  0  0  0  0  0  0  0  0  0  0
    6.4115  -12.2332   25.9356 C   0  0  0  0  0  0  0  0  0  0  0  0
    6.8020  -13.4575   26.4564 C   0  0  0  0  0  0  0  0  0  0  0  0
    7.1297  -14.5231   25.6533 C   0  0  0  0  0  0  0  0  0  0  0  0
    7.0789  -14.4030   24.2813 C   0  0  0  0  0  0  0  0  0  0  0  0
    9.9563  -17.8081   23.8646 O   0  0  0  0  0  0  0  0  0  0  0  0
   11.1446  -18.1144   23.5618 N   0  0  0  0  0  0  0  0  0  0  0  0
    9.4342  -18.3868   25.0286 C   0  0  1  0  0  0  0  0  0  0  0  0
   10.2338  -19.0359   26.0679 C   0  0  0  0  0  0  0  0  0  0  0  0
   11.4168  -18.1733   26.3980 C   0  0  0  0  0  0  0  0  0  0  0  0
   11.2138  -17.2196   27.4833 C   0  0  0  0  0  0  0  0  0  0  0  0
   11.4395  -17.5076   28.8181 N   0  0  0  0  0  0  0  0  0  0  0  0
   11.1851  -16.4089   29.5449 C   0  0  0  0  0  0  0  0  0  0  0  0
   10.8008  -15.4119   28.7395 C   0  0  0  0  0  0  0  0  0  0  0  0
   10.4368  -14.1158   29.0404 C   0  0  0  0  0  0  0  0  0  0  0  0
   10.0691  -13.2726   28.0156 C   0  0  0  0  0  0  0  0  0  0  0  0
   10.0728  -13.7392   26.7245 C   0  0  0  0  0  0  0  0  0  0  0  0
   10.4386  -15.0312   26.4516 C   0  0  0  0  0  0  0  0  0  0  0  0
   10.8181  -15.9192   27.4479 C   0  0  0  0  0  0  0  0  0  0  0  0
    9.4725  -19.5656   27.1797 O   0  0  0  0  0  0  0  0  0  0  0  0
    8.0804  -19.4143   27.3307 O   0  0  0  0  0  0  0  0  0  0  0  0
  2  3  2  0
  2  1  1  0
  4  2  1  0
  5  4  1  0
  6  5  1  0
  7  6  1  0
  8  7  1  0
  8  9  1  6
 10 12  1  0
 10  8  1  0
 11 10  2  0
 13 14  1  6
 13 24  1  0
 13 12  1  0
 14 15  1  0
 15 16  2  0
 15 23  1  0
 16 17  1  0
 17 18  1  0
 18 19  2  0
 20 19  1  0
 21 20  2  0
 22 23  2  0
 22 21  1  0
 23 18  1  0
 24 26  1  0
 25 24  2  0
 26 27  1  0
 27 38  1  0
 27 28  1  1
 29 28  1  0
 29 30  2  0
 31 30  1  0
 32 31  1  0
 33 32  2  0
 34 33  1  0
 35 34  2  0
 35 36  1  0
 36 37  2  0
 37 32  1  0
 37 29  1  0
 38 40  2  0
 38 39  1  0
M  END
$$$$
