GFA.pdb
     RDKit          3D

 21 21  0  0  1  0  0  0  0  0999 V2000
   29.0976  -20.7443  -14.2080 N   0  0  0  0  0  0  0  0  0  0  0  0
   28.2776  -19.8584  -13.4084 C   0  0  0  0  0  0  0  0  0  0  0  0
   27.1976  -20.6503  -12.7805 C   0  0  0  0  0  0  0  0  0  0  0  0
   27.0093  -21.8671  -13.0950 O   0  0  0  0  0  0  0  0  0  0  0  0
   26.3142  -20.1163  -11.8023 N   0  0  0  0  0  0  0  0  0  0  0  0
   25.2030  -20.8455  -11.2335 C   0  0  1  0  0  0  0  0  0  0  0  0
   25.0268  -20.5434   -9.7743 C   0  0  0  0  0  0  0  0  0  0  0  0
   26.2779  -20.5160   -9.0078 C   0  0  0  0  0  0  0  0  0  0  0  0
   26.5966  -19.5037   -8.1146 C   0  0  0  0  0  0  0  0  0  0  0  0
   27.7825  -19.5033   -7.4065 C   0  0  0  0  0  0  0  0  0  0  0  0
   28.7117  -20.5116   -7.5522 C   0  0  0  0  0  0  0  0  0  0  0  0
   28.4026  -21.5219   -8.4383 C   0  0  0  0  0  0  0  0  0  0  0  0
   27.2092  -21.5229   -9.1512 C   0  0  0  0  0  0  0  0  0  0  0  0
   24.0012  -20.7360  -12.0557 C   0  0  0  0  0  0  0  0  0  0  0  0
   23.6134  -19.5847  -12.3830 O   0  0  0  0  0  0  0  0  0  0  0  0
   21.7930  -23.0269  -14.1009 C   0  0  0  0  0  0  0  0  0  0  0  0
   22.0799  -21.7153  -13.3621 C   0  0  2  0  0  0  0  0  0  0  0  0
   23.2311  -21.8276  -12.5189 N   0  0  0  0  0  0  0  0  0  0  0  0
   20.8439  -21.3350  -12.6520 C   0  0  0  0  0  0  0  0  0  0  0  0
   20.8199  -21.2879  -11.4029 O   0  0  0  0  0  0  0  0  0  0  0  0
   19.6948  -21.0250  -13.3512 O   0  0  0  0  0  0  0  0  0  0  0  0
  1  2  1  0
  2  3  1  0
  3  4  2  0
  5  6  1  0
  5  3  1  0
  6 14  1  0
  6  7  1  1
  8  7  1  0
  9  8  2  0
 10  9  1  0
 11 10  2  0
 11 12  1  0
 12 13  2  0
 13  8  1  0
 14 15  2  0
 17 16  1  1
 17 19  1  0
 18 14  1  0
 18 17  1  0
 19 20  2  0
 19 21  1  0
M  END
$$$$
