GFA.pdb
     RDKit          3D

 21 21  0  0  1  0  0  0  0  0999 V2000
   17.9005   -8.9868  -16.7236 N   0  0  0  0  0  0  0  0  0  0  0  0
   18.1044   -8.9537  -15.2906 C   0  0  0  0  0  0  0  0  0  0  0  0
   19.5533   -8.8275  -15.0208 C   0  0  0  0  0  0  0  0  0  0  0  0
   19.9899   -8.6941  -13.8347 O   0  0  0  0  0  0  0  0  0  0  0  0
   20.5368   -8.8463  -16.0477 N   0  0  0  0  0  0  0  0  0  0  0  0
   21.9584   -8.7409  -15.8067 C   0  0  1  0  0  0  0  0  0  0  0  0
   22.7172   -9.8646  -16.4493 C   0  0  0  0  0  0  0  0  0  0  0  0
   24.1675   -9.8171  -16.2301 C   0  0  0  0  0  0  0  0  0  0  0  0
   25.0336   -9.1032  -17.0454 C   0  0  0  0  0  0  0  0  0  0  0  0
   26.3952   -9.0767  -16.8156 C   0  0  0  0  0  0  0  0  0  0  0  0
   26.9639   -9.7602  -15.7616 C   0  0  0  0  0  0  0  0  0  0  0  0
   26.1098  -10.4724  -14.9462 C   0  0  0  0  0  0  0  0  0  0  0  0
   24.7393  -10.4994  -15.1770 C   0  0  0  0  0  0  0  0  0  0  0  0
   22.4593   -7.3967  -16.0797 C   0  0  0  0  0  0  0  0  0  0  0  0
   22.2037   -6.8887  -17.2020 O   0  0  0  0  0  0  0  0  0  0  0  0
   24.7251   -5.3307  -16.6215 C   0  0  0  0  0  0  0  0  0  0  0  0
   23.7241   -5.3049  -15.4615 C   0  0  2  0  0  0  0  0  0  0  0  0
   23.2141   -6.6119  -15.1777 N   0  0  0  0  0  0  0  0  0  0  0  0
   22.6880   -4.3112  -15.8011 C   0  0  0  0  0  0  0  0  0  0  0  0
   21.4860   -4.6479  -15.8713 O   0  0  0  0  0  0  0  0  0  0  0  0
   23.0253   -2.9954  -16.0469 O   0  0  0  0  0  0  0  0  0  0  0  0
  1  2  1  0
  2  3  1  0
  3  4  2  0
  5  6  1  0
  5  3  1  0
  6 14  1  0
  6  7  1  6
  8  7  1  0
  9  8  2  0
 10  9  1  0
 11 10  2  0
 11 12  1  0
 12 13  2  0
 13  8  1  0
 14 15  2  0
 17 16  1  6
 17 19  1  0
 18 14  1  0
 18 17  1  0
 19 20  2  0
 19 21  1  0
M  END
$$$$
