GFA.pdb
     RDKit          3D

 21 21  0  0  1  0  0  0  0  0999 V2000
   27.2603  -16.7415  -14.3397 N   0  0  0  0  0  0  0  0  0  0  0  0
   26.5338  -17.2242  -13.1840 C   0  0  0  0  0  0  0  0  0  0  0  0
   26.6735  -18.6952  -13.1167 C   0  0  0  0  0  0  0  0  0  0  0  0
   27.5350  -19.3048  -13.8247 O   0  0  0  0  0  0  0  0  0  0  0  0
   25.8707  -19.5116  -12.2733 N   0  0  0  0  0  0  0  0  0  0  0  0
   26.0217  -20.9444  -12.1546 C   0  0  1  0  0  0  0  0  0  0  0  0
   25.6624  -21.4307  -10.7813 C   0  0  0  0  0  0  0  0  0  0  0  0
   26.4973  -20.8794   -9.7077 C   0  0  0  0  0  0  0  0  0  0  0  0
   27.8305  -21.2209   -9.5340 C   0  0  0  0  0  0  0  0  0  0  0  0
   28.5927  -20.6865   -8.5137 C   0  0  0  0  0  0  0  0  0  0  0  0
   28.0655  -19.7842   -7.6140 C   0  0  0  0  0  0  0  0  0  0  0  0
   26.7407  -19.4394   -7.7796 C   0  0  0  0  0  0  0  0  0  0  0  0
   25.9731  -19.9769   -8.8063 C   0  0  0  0  0  0  0  0  0  0  0  0
   25.3920  -21.6528  -13.2655 C   0  0  0  0  0  0  0  0  0  0  0  0
   24.1451  -21.5513  -13.3986 O   0  0  0  0  0  0  0  0  0  0  0  0
   26.4938  -23.5580  -16.3589 C   0  0  0  0  0  0  0  0  0  0  0  0
   25.4573  -23.1070  -15.3242 C   0  0  2  0  0  0  0  0  0  0  0  0
   26.0751  -22.4500  -14.2127 N   0  0  0  0  0  0  0  0  0  0  0  0
   24.6598  -24.2934  -14.9595 C   0  0  0  0  0  0  0  0  0  0  0  0
   24.6743  -24.7309  -13.7885 O   0  0  0  0  0  0  0  0  0  0  0  0
   23.8853  -24.9403  -15.9014 O   0  0  0  0  0  0  0  0  0  0  0  0
  1  2  1  0
  2  3  1  0
  3  4  2  0
  5  6  1  0
  5  3  1  0
  6 14  1  0
  6  7  1  1
  8  7  1  0
  9  8  2  0
 10  9  1  0
 11 10  2  0
 11 12  1  0
 12 13  2  0
 13  8  1  0
 14 15  2  0
 17 16  1  6
 17 19  1  0
 18 14  1  0
 18 17  1  0
 19 20  2  0
 19 21  1  0
M  END
$$$$
