GFA.pdb
     RDKit          3D

 21 21  0  0  1  0  0  0  0  0999 V2000
   23.8106   -9.9160  -19.4611 N   0  0  0  0  0  0  0  0  0  0  0  0
   22.6589   -9.0554  -19.6326 C   0  0  0  0  0  0  0  0  0  0  0  0
   22.2263   -8.5720  -18.3034 C   0  0  0  0  0  0  0  0  0  0  0  0
   21.5210   -9.3016  -17.5383 O   0  0  0  0  0  0  0  0  0  0  0  0
   22.5623   -7.2850  -17.8003 N   0  0  0  0  0  0  0  0  0  0  0  0
   22.1230   -6.7785  -16.5194 C   0  0  1  0  0  0  0  0  0  0  0  0
   23.2733   -6.5694  -15.5788 C   0  0  0  0  0  0  0  0  0  0  0  0
   24.0403   -7.7851  -15.2829 C   0  0  0  0  0  0  0  0  0  0  0  0
   23.5723   -8.7919  -14.4513 C   0  0  0  0  0  0  0  0  0  0  0  0
   24.3164   -9.9258  -14.1899 C   0  0  0  0  0  0  0  0  0  0  0  0
   25.5651  -10.1146  -14.7437 C   0  0  0  0  0  0  0  0  0  0  0  0
   26.0376   -9.1183  -15.5716 C   0  0  0  0  0  0  0  0  0  0  0  0
   25.2892   -7.9768  -15.8351 C   0  0  0  0  0  0  0  0  0  0  0  0
   21.2065   -5.6510  -16.6644 C   0  0  0  0  0  0  0  0  0  0  0  0
   21.5868   -4.6660  -17.3486 O   0  0  0  0  0  0  0  0  0  0  0  0
   17.5610   -4.9206  -15.8939 C   0  0  0  0  0  0  0  0  0  0  0  0
   18.9719   -4.5278  -16.3447 C   0  0  2  0  0  0  0  0  0  0  0  0
   19.9148   -5.5752  -16.0943 N   0  0  0  0  0  0  0  0  0  0  0  0
   19.2996   -3.2481  -15.6877 C   0  0  0  0  0  0  0  0  0  0  0  0
   20.2012   -3.1924  -14.8234 O   0  0  0  0  0  0  0  0  0  0  0  0
   18.6190   -2.0924  -16.0140 O   0  0  0  0  0  0  0  0  0  0  0  0
  1  2  1  0
  2  3  1  0
  3  4  2  0
  5  6  1  0
  5  3  1  0
  6 14  1  0
  6  7  1  1
  8  7  1  0
  9  8  2  0
 10  9  1  0
 11 10  2  0
 11 12  1  0
 12 13  2  0
 13  8  1  0
 14 15  2  0
 17 16  1  1
 17 19  1  0
 18 14  1  0
 18 17  1  0
 19 20  2  0
 19 21  1  0
M  END
$$$$
