GFA.pdb
     RDKit          3D

 21 21  0  0  1  0  0  0  0  0999 V2000
   27.3867  -16.4408  -18.7797 N   0  0  0  0  0  0  0  0  0  0  0  0
   26.7445  -15.2349  -19.2589 C   0  0  0  0  0  0  0  0  0  0  0  0
   25.4375  -15.0924  -18.5811 C   0  0  0  0  0  0  0  0  0  0  0  0
   24.5194  -15.9568  -18.7394 O   0  0  0  0  0  0  0  0  0  0  0  0
   25.1246  -14.0019  -17.7237 N   0  0  0  0  0  0  0  0  0  0  0  0
   23.8539  -13.8401  -17.0535 C   0  0  1  0  0  0  0  0  0  0  0  0
   23.9872  -13.9790  -15.5654 C   0  0  0  0  0  0  0  0  0  0  0  0
   24.5471  -15.2625  -15.1263 C   0  0  0  0  0  0  0  0  0  0  0  0
   25.8786  -15.4268  -14.7737 C   0  0  0  0  0  0  0  0  0  0  0  0
   26.3788  -16.6474  -14.3642 C   0  0  0  0  0  0  0  0  0  0  0  0
   25.5777  -17.7670  -14.2852 C   0  0  0  0  0  0  0  0  0  0  0  0
   24.2527  -17.6123  -14.6340 C   0  0  0  0  0  0  0  0  0  0  0  0
   23.7487  -16.3840  -15.0462 C   0  0  0  0  0  0  0  0  0  0  0  0
   23.1382  -12.6561  -17.5205 C   0  0  0  0  0  0  0  0  0  0  0  0
   23.7361  -11.5500  -17.4767 O   0  0  0  0  0  0  0  0  0  0  0  0
   19.7954  -11.8306  -19.1417 C   0  0  0  0  0  0  0  0  0  0  0  0
   21.0948  -11.4770  -18.4104 C   0  0  2  0  0  0  0  0  0  0  0  0
   21.8166  -12.6509  -18.0232 N   0  0  0  0  0  0  0  0  0  0  0  0
   20.7364  -10.5889  -17.2883 C   0  0  0  0  0  0  0  0  0  0  0  0
   20.4938  -11.0634  -16.1574 O   0  0  0  0  0  0  0  0  0  0  0  0
   20.6625   -9.2219  -17.4656 O   0  0  0  0  0  0  0  0  0  0  0  0
  1  2  1  0
  2  3  1  0
  3  4  2  0
  5  6  1  0
  5  3  1  0
  6 14  1  0
  6  7  1  1
  8  7  1  0
  9  8  2  0
 10  9  1  0
 11 10  2  0
 11 12  1  0
 12 13  2  0
 13  8  1  0
 14 15  2  0
 17 16  1  1
 17 19  1  0
 18 14  1  0
 18 17  1  0
 19 20  2  0
 19 21  1  0
M  END
$$$$
