GFA.pdb
     RDKit          3D

 21 21  0  0  1  0  0  0  0  0999 V2000
   20.0276  -11.5242  -18.5960 N   0  0  0  0  0  0  0  0  0  0  0  0
   20.6865  -10.2351  -18.6210 C   0  0  0  0  0  0  0  0  0  0  0  0
   20.8524   -9.7605  -17.2299 C   0  0  0  0  0  0  0  0  0  0  0  0
   20.0540  -10.1287  -16.3123 O   0  0  0  0  0  0  0  0  0  0  0  0
   21.8942   -8.8783  -16.8316 N   0  0  0  0  0  0  0  0  0  0  0  0
   22.0557   -8.3743  -15.4863 C   0  0  1  0  0  0  0  0  0  0  0  0
   23.2794   -8.9360  -14.8241 C   0  0  0  0  0  0  0  0  0  0  0  0
   23.3221  -10.4022  -14.7779 C   0  0  0  0  0  0  0  0  0  0  0  0
   23.7936  -11.1794  -15.8257 C   0  0  0  0  0  0  0  0  0  0  0  0
   23.8217  -12.5584  -15.7548 C   0  0  0  0  0  0  0  0  0  0  0  0
   23.3814  -13.2339  -14.6362 C   0  0  0  0  0  0  0  0  0  0  0  0
   22.9110  -12.4687  -13.5900 C   0  0  0  0  0  0  0  0  0  0  0  0
   22.8825  -11.0807  -13.6607 C   0  0  0  0  0  0  0  0  0  0  0  0
   21.9095   -6.9226  -15.4269 C   0  0  0  0  0  0  0  0  0  0  0  0
   22.6179   -6.2265  -16.1991 O   0  0  0  0  0  0  0  0  0  0  0  0
   19.5722   -4.3774  -13.8877 C   0  0  0  0  0  0  0  0  0  0  0  0
   20.9164   -4.8043  -14.4868 C   0  0  2  0  0  0  0  0  0  0  0  0
   21.0286   -6.2291  -14.5653 N   0  0  0  0  0  0  0  0  0  0  0  0
   21.9751   -4.1565  -13.6893 C   0  0  0  0  0  0  0  0  0  0  0  0
   22.1115   -2.9139  -13.7079 O   0  0  0  0  0  0  0  0  0  0  0  0
   22.8320   -4.9078  -12.9105 O   0  0  0  0  0  0  0  0  0  0  0  0
  1  2  1  0
  2  3  1  0
  3  4  2  0
  5  6  1  0
  5  3  1  0
  6 14  1  0
  6  7  1  6
  8  7  1  0
  9  8  2  0
 10  9  1  0
 11 10  2  0
 11 12  1  0
 12 13  2  0
 13  8  1  0
 14 15  2  0
 17 16  1  1
 17 19  1  0
 18 14  1  0
 18 17  1  0
 19 20  2  0
 19 21  1  0
M  END
$$$$
