GFA.pdb
     RDKit          3D

 21 21  0  0  1  0  0  0  0  0999 V2000
   28.4565  -23.8892  -17.6244 N   0  0  0  0  0  0  0  0  0  0  0  0
   27.9965  -22.5515  -17.3155 C   0  0  0  0  0  0  0  0  0  0  0  0
   27.1882  -22.6022  -16.0778 C   0  0  0  0  0  0  0  0  0  0  0  0
   26.8441  -23.7129  -15.5648 O   0  0  0  0  0  0  0  0  0  0  0  0
   26.7496  -21.4368  -15.3909 N   0  0  0  0  0  0  0  0  0  0  0  0
   25.9073  -21.4606  -14.2162 C   0  0  1  0  0  0  0  0  0  0  0  0
   26.4001  -20.5176  -13.1581 C   0  0  0  0  0  0  0  0  0  0  0  0
   25.6399  -20.5667  -11.9038 C   0  0  0  0  0  0  0  0  0  0  0  0
   24.3828  -19.9988  -11.7576 C   0  0  0  0  0  0  0  0  0  0  0  0
   23.6900  -20.0597  -10.5643 C   0  0  0  0  0  0  0  0  0  0  0  0
   24.2143  -20.6896   -9.4554 C   0  0  0  0  0  0  0  0  0  0  0  0
   25.4637  -21.2568   -9.5923 C   0  0  0  0  0  0  0  0  0  0  0  0
   26.1615  -21.1958  -10.7930 C   0  0  0  0  0  0  0  0  0  0  0  0
   24.4919  -21.3499  -14.5581 C   0  0  0  0  0  0  0  0  0  0  0  0
   24.1147  -20.3256  -15.1838 O   0  0  0  0  0  0  0  0  0  0  0  0
   21.4733  -23.5793  -14.7692 C   0  0  0  0  0  0  0  0  0  0  0  0
   22.1187  -22.2007  -14.5934 C   0  0  2  0  0  0  0  0  0  0  0  0
   23.5020  -22.3084  -14.2414 N   0  0  0  0  0  0  0  0  0  0  0  0
   21.3012  -21.4575  -13.6157 C   0  0  0  0  0  0  0  0  0  0  0  0
   20.3708  -20.7166  -14.0009 O   0  0  0  0  0  0  0  0  0  0  0  0
   21.5476  -21.5661  -12.2618 O   0  0  0  0  0  0  0  0  0  0  0  0
  1  2  1  0
  2  3  1  0
  3  4  2  0
  5  6  1  0
  5  3  1  0
  6 14  1  0
  6  7  1  1
  8  7  1  0
  9  8  2  0
 10  9  1  0
 11 10  2  0
 11 12  1  0
 12 13  2  0
 13  8  1  0
 14 15  2  0
 17 16  1  1
 17 19  1  0
 18 14  1  0
 18 17  1  0
 19 20  2  0
 19 21  1  0
M  END
$$$$
