GFA.pdb
     RDKit          3D

 21 21  0  0  1  0  0  0  0  0999 V2000
   25.2301  -16.8104  -20.3941 N   0  0  0  0  0  0  0  0  0  0  0  0
   24.3633  -15.6880  -20.6857 C   0  0  0  0  0  0  0  0  0  0  0  0
   23.8776  -15.1199  -19.4093 C   0  0  0  0  0  0  0  0  0  0  0  0
   23.1002  -15.7807  -18.6516 O   0  0  0  0  0  0  0  0  0  0  0  0
   24.2392  -13.8230  -18.9514 N   0  0  0  0  0  0  0  0  0  0  0  0
   23.7520  -13.2349  -17.7239 C   0  0  1  0  0  0  0  0  0  0  0  0
   24.8568  -13.0232  -16.7307 C   0  0  0  0  0  0  0  0  0  0  0  0
   25.5441  -14.2532  -16.3205 C   0  0  0  0  0  0  0  0  0  0  0  0
   26.6207  -14.7863  -17.0140 C   0  0  0  0  0  0  0  0  0  0  0  0
   27.2486  -15.9466  -16.6050 C   0  0  0  0  0  0  0  0  0  0  0  0
   26.8357  -16.6353  -15.4840 C   0  0  0  0  0  0  0  0  0  0  0  0
   25.7660  -16.1120  -14.7889 C   0  0  0  0  0  0  0  0  0  0  0  0
   25.1337  -14.9443  -15.2000 C   0  0  0  0  0  0  0  0  0  0  0  0
   22.8929  -12.0812  -17.9756 C   0  0  0  0  0  0  0  0  0  0  0  0
   23.3375  -11.1649  -18.7143 O   0  0  0  0  0  0  0  0  0  0  0  0
   19.2928  -11.0541  -17.4389 C   0  0  0  0  0  0  0  0  0  0  0  0
   20.7789  -10.7461  -17.6509 C   0  0  2  0  0  0  0  0  0  0  0  0
   21.5905  -11.9085  -17.4532 N   0  0  0  0  0  0  0  0  0  0  0  0
   21.1196   -9.6127  -16.7701 C   0  0  0  0  0  0  0  0  0  0  0  0
   21.9473   -9.7565  -15.8442 O   0  0  0  0  0  0  0  0  0  0  0  0
   20.5328   -8.3764  -16.9513 O   0  0  0  0  0  0  0  0  0  0  0  0
  1  2  1  0
  2  3  1  0
  3  4  2  0
  5  6  1  0
  5  3  1  0
  6 14  1  0
  6  7  1  1
  8  7  1  0
  9  8  2  0
 10  9  1  0
 11 10  2  0
 11 12  1  0
 12 13  2  0
 13  8  1  0
 14 15  2  0
 17 16  1  1
 17 19  1  0
 18 14  1  0
 18 17  1  0
 19 20  2  0
 19 21  1  0
M  END
$$$$
