GFA.pdb
     RDKit          3D

 21 21  0  0  1  0  0  0  0  0999 V2000
   21.1537  -20.2313  -11.1890 N   0  0  0  0  0  0  0  0  0  0  0  0
   22.1354  -21.0489  -10.5077 C   0  0  0  0  0  0  0  0  0  0  0  0
   23.4849  -20.5351  -10.8283 C   0  0  0  0  0  0  0  0  0  0  0  0
   23.6732  -19.3057  -11.0892 O   0  0  0  0  0  0  0  0  0  0  0  0
   24.6402  -21.3634  -10.8659 N   0  0  0  0  0  0  0  0  0  0  0  0
   25.9742  -20.8771  -11.1379 C   0  0  1  0  0  0  0  0  0  0  0  0
   26.9999  -21.5519  -10.2751 C   0  0  0  0  0  0  0  0  0  0  0  0
   27.3137  -20.8326   -9.0351 C   0  0  0  0  0  0  0  0  0  0  0  0
   28.6107  -20.6126   -8.5948 C   0  0  0  0  0  0  0  0  0  0  0  0
   28.8768  -19.9324   -7.4226 C   0  0  0  0  0  0  0  0  0  0  0  0
   27.8641  -19.4363   -6.6289 C   0  0  0  0  0  0  0  0  0  0  0  0
   26.5718  -19.6507   -7.0595 C   0  0  0  0  0  0  0  0  0  0  0  0
   26.3034  -20.3353   -8.2391 C   0  0  0  0  0  0  0  0  0  0  0  0
   26.2639  -20.8515  -12.5689 C   0  0  0  0  0  0  0  0  0  0  0  0
   25.9121  -21.8424  -13.2597 O   0  0  0  0  0  0  0  0  0  0  0  0
   27.8346  -18.4523  -15.0804 C   0  0  0  0  0  0  0  0  0  0  0  0
   27.1970  -19.7779  -14.6507 C   0  0  2  0  0  0  0  0  0  0  0  0
   26.9124  -19.7943  -13.2480 N   0  0  0  0  0  0  0  0  0  0  0  0
   28.0944  -20.8595  -15.0993 C   0  0  0  0  0  0  0  0  0  0  0  0
   28.7812  -21.4969  -14.2717 O   0  0  0  0  0  0  0  0  0  0  0  0
   28.1921  -21.1867  -16.4368 O   0  0  0  0  0  0  0  0  0  0  0  0
  1  2  1  0
  2  3  1  0
  3  4  2  0
  5  6  1  0
  5  3  1  0
  6 14  1  0
  6  7  1  1
  8  7  1  0
  9  8  2  0
 10  9  1  0
 11 10  2  0
 11 12  1  0
 12 13  2  0
 13  8  1  0
 14 15  2  0
 17 16  1  1
 17 19  1  0
 18 14  1  0
 18 17  1  0
 19 20  2  0
 19 21  1  0
M  END
$$$$
