GFA.pdb
     RDKit          3D

 21 21  0  0  1  0  0  0  0  0999 V2000
   30.9218  -22.0271  -10.5804 N   0  0  0  0  0  0  0  0  0  0  0  0
   30.6418  -20.8010  -11.2979 C   0  0  0  0  0  0  0  0  0  0  0  0
   29.2804  -20.8869  -11.8699 C   0  0  0  0  0  0  0  0  0  0  0  0
   28.6532  -21.9916  -11.9058 O   0  0  0  0  0  0  0  0  0  0  0  0
   28.5940  -19.7636  -12.4076 N   0  0  0  0  0  0  0  0  0  0  0  0
   27.2461  -19.8138  -12.9279 C   0  0  1  0  0  0  0  0  0  0  0  0
   26.3113  -18.9454  -12.1381 C   0  0  0  0  0  0  0  0  0  0  0  0
   25.9362  -19.4951  -10.8301 C   0  0  0  0  0  0  0  0  0  0  0  0
   25.0587  -20.5588  -10.6792 C   0  0  0  0  0  0  0  0  0  0  0  0
   24.7229  -21.0556   -9.4350 C   0  0  0  0  0  0  0  0  0  0  0  0
   25.2444  -20.5180   -8.2772 C   0  0  0  0  0  0  0  0  0  0  0  0
   26.1176  -19.4602   -8.4184 C   0  0  0  0  0  0  0  0  0  0  0  0
   26.4559  -18.9597   -9.6704 C   0  0  0  0  0  0  0  0  0  0  0  0
   27.2137  -19.6308  -14.3763 C   0  0  0  0  0  0  0  0  0  0  0  0
   27.6730  -18.5576  -14.8456 O   0  0  0  0  0  0  0  0  0  0  0  0
   27.0873  -21.6566  -17.4665 C   0  0  0  0  0  0  0  0  0  0  0  0
   26.6742  -20.3828  -16.7216 C   0  0  2  0  0  0  0  0  0  0  0  0
   26.7047  -20.5697  -15.3028 N   0  0  0  0  0  0  0  0  0  0  0  0
   25.3588  -19.9750  -17.2506 C   0  0  0  0  0  0  0  0  0  0  0  0
   25.2195  -19.7057  -18.4635 O   0  0  0  0  0  0  0  0  0  0  0  0
   24.2609  -19.8835  -16.4189 O   0  0  0  0  0  0  0  0  0  0  0  0
  1  2  1  0
  2  3  1  0
  3  4  2  0
  5  6  1  0
  5  3  1  0
  6 14  1  0
  6  7  1  1
  8  7  1  0
  9  8  2  0
 10  9  1  0
 11 10  2  0
 11 12  1  0
 12 13  2  0
 13  8  1  0
 14 15  2  0
 17 16  1  6
 17 19  1  0
 18 14  1  0
 18 17  1  0
 19 20  2  0
 19 21  1  0
M  END
$$$$
