GFA.pdb
     RDKit          3D

 21 21  0  0  1  0  0  0  0  0999 V2000
   28.6778  -21.5220  -16.7934 N   0  0  0  0  0  0  0  0  0  0  0  0
   27.7240  -20.5207  -16.3642 C   0  0  0  0  0  0  0  0  0  0  0  0
   26.8891  -21.0929  -15.2856 C   0  0  0  0  0  0  0  0  0  0  0  0
   26.7457  -22.3499  -15.1647 O   0  0  0  0  0  0  0  0  0  0  0  0
   26.2039  -20.2934  -14.3298 N   0  0  0  0  0  0  0  0  0  0  0  0
   25.4696  -20.8297  -13.2059 C   0  0  1  0  0  0  0  0  0  0  0  0
   26.0201  -20.3434  -11.8975 C   0  0  0  0  0  0  0  0  0  0  0  0
   27.4410  -20.6463  -11.6900 C   0  0  0  0  0  0  0  0  0  0  0  0
   28.4568  -20.0529  -12.4249 C   0  0  0  0  0  0  0  0  0  0  0  0
   29.7865  -20.3576  -12.2084 C   0  0  0  0  0  0  0  0  0  0  0  0
   30.1721  -21.2693  -11.2485 C   0  0  0  0  0  0  0  0  0  0  0  0
   29.1683  -21.8638  -10.5134 C   0  0  0  0  0  0  0  0  0  0  0  0
   27.8299  -21.5576  -10.7309 C   0  0  0  0  0  0  0  0  0  0  0  0
   24.0266  -20.6895  -13.3807 C   0  0  0  0  0  0  0  0  0  0  0  0
   23.5589  -19.5293  -13.5156 O   0  0  0  0  0  0  0  0  0  0  0  0
   21.0501  -22.9197  -14.0807 C   0  0  0  0  0  0  0  0  0  0  0  0
   21.6913  -21.6161  -13.5931 C   0  0  2  0  0  0  0  0  0  0  0  0
   23.1038  -21.7603  -13.4118 N   0  0  0  0  0  0  0  0  0  0  0  0
   20.9643  -21.1996  -12.3787 C   0  0  0  0  0  0  0  0  0  0  0  0
   21.5143  -21.2638  -11.2579 O   0  0  0  0  0  0  0  0  0  0  0  0
   19.6676  -20.7329  -12.4574 O   0  0  0  0  0  0  0  0  0  0  0  0
  1  2  1  0
  2  3  1  0
  3  4  2  0
  5  6  1  0
  5  3  1  0
  6 14  1  0
  6  7  1  1
  8  7  1  0
  9  8  2  0
 10  9  1  0
 11 10  2  0
 11 12  1  0
 12 13  2  0
 13  8  1  0
 14 15  2  0
 17 16  1  1
 17 19  1  0
 18 14  1  0
 18 17  1  0
 19 20  2  0
 19 21  1  0
M  END
$$$$
