GFA.pdb
     RDKit          3D

 21 21  0  0  1  0  0  0  0  0999 V2000
   28.8777  -19.5743  -14.8118 N   0  0  0  0  0  0  0  0  0  0  0  0
   28.2161  -19.0309  -13.6442 C   0  0  0  0  0  0  0  0  0  0  0  0
   27.2910  -20.0517  -13.1057 C   0  0  0  0  0  0  0  0  0  0  0  0
   27.2480  -21.2224  -13.5984 O   0  0  0  0  0  0  0  0  0  0  0  0
   26.4046  -19.7993  -12.0226 N   0  0  0  0  0  0  0  0  0  0  0  0
   25.4398  -20.7560  -11.5287 C   0  0  1  0  0  0  0  0  0  0  0  0
   25.2681  -20.6568  -10.0413 C   0  0  0  0  0  0  0  0  0  0  0  0
   26.5203  -20.7473   -9.2814 C   0  0  0  0  0  0  0  0  0  0  0  0
   27.5755  -21.5664   -9.6553 C   0  0  0  0  0  0  0  0  0  0  0  0
   28.7429  -21.6321   -8.9203 C   0  0  0  0  0  0  0  0  0  0  0  0
   28.9189  -20.8849   -7.7747 C   0  0  0  0  0  0  0  0  0  0  0  0
   27.8746  -20.0680   -7.3960 C   0  0  0  0  0  0  0  0  0  0  0  0
   26.6993  -20.0015   -8.1354 C   0  0  0  0  0  0  0  0  0  0  0  0
   24.2086  -20.7432  -12.3137 C   0  0  0  0  0  0  0  0  0  0  0  0
   23.6668  -19.6311  -12.5429 O   0  0  0  0  0  0  0  0  0  0  0  0
   22.0885  -23.2053  -14.2848 C   0  0  0  0  0  0  0  0  0  0  0  0
   22.3363  -21.8737  -13.5682 C   0  0  2  0  0  0  0  0  0  0  0  0
   23.5700  -21.8885  -12.8426 N   0  0  0  0  0  0  0  0  0  0  0  0
   21.1486  -21.5972  -12.7378 C   0  0  0  0  0  0  0  0  0  0  0  0
   21.1810  -21.7877  -11.5027 O   0  0  0  0  0  0  0  0  0  0  0  0
   19.9835  -21.1246  -13.3074 O   0  0  0  0  0  0  0  0  0  0  0  0
  1  2  1  0
  2  3  1  0
  3  4  2  0
  5  6  1  0
  5  3  1  0
  6 14  1  0
  6  7  1  1
  8  7  1  0
  9  8  2  0
 10  9  1  0
 11 10  2  0
 11 12  1  0
 12 13  2  0
 13  8  1  0
 14 15  2  0
 17 16  1  1
 17 19  1  0
 18 14  1  0
 18 17  1  0
 19 20  2  0
 19 21  1  0
M  END
$$$$
