GFA.pdb
     RDKit          3D

 21 21  0  0  1  0  0  0  0  0999 V2000
   29.4258  -20.2639  -13.0274 N   0  0  0  0  0  0  0  0  0  0  0  0
   29.1502  -21.6452  -12.6921 C   0  0  0  0  0  0  0  0  0  0  0  0
   28.6383  -21.7034  -11.3056 C   0  0  0  0  0  0  0  0  0  0  0  0
   28.0229  -22.7292  -10.8766 O   0  0  0  0  0  0  0  0  0  0  0  0
   28.7960  -20.6384  -10.3765 N   0  0  0  0  0  0  0  0  0  0  0  0
   28.2334  -20.6384   -9.0447 C   0  0  1  0  0  0  0  0  0  0  0  0
   29.1503  -19.9852   -8.0526 C   0  0  0  0  0  0  0  0  0  0  0  0
   28.6386  -19.9681   -6.6773 C   0  0  0  0  0  0  0  0  0  0  0  0
   27.9246  -18.9030   -6.1483 C   0  0  0  0  0  0  0  0  0  0  0  0
   27.4551  -18.9138   -4.8494 C   0  0  0  0  0  0  0  0  0  0  0  0
   27.6730  -19.9867   -4.0110 C   0  0  0  0  0  0  0  0  0  0  0  0
   28.3821  -21.0497   -4.5292 C   0  0  0  0  0  0  0  0  0  0  0  0
   28.8548  -21.0394   -5.8364 C   0  0  0  0  0  0  0  0  0  0  0  0
   26.8503  -20.1701   -9.0372 C   0  0  0  0  0  0  0  0  0  0  0  0
   26.6468  -18.9310   -9.1156 O   0  0  0  0  0  0  0  0  0  0  0  0
   23.7708  -20.9108  -10.4447 C   0  0  0  0  0  0  0  0  0  0  0  0
   24.3583  -20.5517   -9.0757 C   0  0  2  0  0  0  0  0  0  0  0  0
   25.7109  -21.0026   -8.9491 N   0  0  0  0  0  0  0  0  0  0  0  0
   23.4421  -21.0904   -8.0526 C   0  0  0  0  0  0  0  0  0  0  0  0
   23.8531  -21.9099   -7.2026 O   0  0  0  0  0  0  0  0  0  0  0  0
   22.1184  -20.7008   -8.0149 O   0  0  0  0  0  0  0  0  0  0  0  0
  1  2  1  0
  2  3  1  0
  3  4  2  0
  5  6  1  0
  5  3  1  0
  6 14  1  0
  6  7  1  1
  8  7  1  0
  9  8  2  0
 10  9  1  0
 11 10  2  0
 11 12  1  0
 12 13  2  0
 13  8  1  0
 14 15  2  0
 17 16  1  6
 17 19  1  0
 18 14  1  0
 18 17  1  0
 19 20  2  0
 19 21  1  0
M  END
$$$$
