GFA.pdb
     RDKit          3D

 21 21  0  0  1  0  0  0  0  0999 V2000
   23.2315   -1.9863  -19.2002 N   0  0  0  0  0  0  0  0  0  0  0  0
   22.0760   -2.5743  -18.5556 C   0  0  0  0  0  0  0  0  0  0  0  0
   22.3781   -3.9870  -18.2380 C   0  0  0  0  0  0  0  0  0  0  0  0
   22.3959   -4.8740  -19.1479 O   0  0  0  0  0  0  0  0  0  0  0  0
   22.6632   -4.4407  -16.9208 N   0  0  0  0  0  0  0  0  0  0  0  0
   22.9050   -5.8241  -16.5776 C   0  0  1  0  0  0  0  0  0  0  0  0
   24.1373   -5.9823  -15.7362 C   0  0  0  0  0  0  0  0  0  0  0  0
   24.5492   -7.3747  -15.5239 C   0  0  0  0  0  0  0  0  0  0  0  0
   25.5245   -8.0005  -16.2865 C   0  0  0  0  0  0  0  0  0  0  0  0
   25.8920   -9.3132  -16.0647 C   0  0  0  0  0  0  0  0  0  0  0  0
   25.3066  -10.0699  -15.0716 C   0  0  0  0  0  0  0  0  0  0  0  0
   24.3361   -9.4553  -14.3089 C   0  0  0  0  0  0  0  0  0  0  0  0
   23.9657   -8.1340  -14.5317 C   0  0  0  0  0  0  0  0  0  0  0  0
   21.7014   -6.4789  -16.0727 C   0  0  0  0  0  0  0  0  0  0  0  0
   21.1305   -5.9731  -15.0721 O   0  0  0  0  0  0  0  0  0  0  0  0
   19.5288   -9.4752  -16.9804 C   0  0  0  0  0  0  0  0  0  0  0  0
   19.9859   -8.3267  -16.0747 C   0  0  2  0  0  0  0  0  0  0  0  0
   21.1193   -7.6447  -16.6217 N   0  0  0  0  0  0  0  0  0  0  0  0
   20.2105   -8.8932  -14.7312 C   0  0  0  0  0  0  0  0  0  0  0  0
   19.4484   -8.5999  -13.7846 O   0  0  0  0  0  0  0  0  0  0  0  0
   21.2627   -9.7549  -14.4951 O   0  0  0  0  0  0  0  0  0  0  0  0
  1  2  1  0
  2  3  1  0
  3  4  2  0
  5  6  1  0
  5  3  1  0
  6 14  1  0
  6  7  1  1
  8  7  1  0
  9  8  2  0
 10  9  1  0
 11 10  2  0
 11 12  1  0
 12 13  2  0
 13  8  1  0
 14 15  2  0
 17 16  1  6
 17 19  1  0
 18 14  1  0
 18 17  1  0
 19 20  2  0
 19 21  1  0
M  END
$$$$
