DSS.pdb
     RDKit          3D

 21 20  0  0  1  0  0  0  0  0999 V2000
    8.0815  -12.9060   17.3711 N   0  0  0  0  0  0  0  0  0  0  0  0
    8.1250  -14.2094   17.9746 C   0  0  1  0  0  0  0  0  0  0  0  0
    9.0839  -15.0484   17.1519 C   0  0  0  0  0  0  0  0  0  0  0  0
    8.2984  -15.7183   16.1013 C   0  0  0  0  0  0  0  0  0  0  0  0
    7.5004  -15.0642   15.4080 O   0  0  0  0  0  0  0  0  0  0  0  0
    8.5097  -14.1785   19.4083 C   0  0  0  0  0  0  0  0  0  0  0  0
    9.5203  -13.5017   19.7116 O   0  0  0  0  0  0  0  0  0  0  0  0
    8.4458  -17.0673   15.8854 O   0  0  0  0  0  0  0  0  0  0  0  0
    6.1792  -16.0949   22.6354 O   0  0  0  0  0  0  0  0  0  0  0  0
    6.9655  -14.9587   22.7142 C   0  0  0  0  0  0  0  0  0  0  0  0
    8.1528  -14.9479   21.8087 C   0  0  2  0  0  0  0  0  0  0  0  0
    7.7895  -14.8709   20.4148 N   0  0  0  0  0  0  0  0  0  0  0  0
    9.1343  -16.0205   22.0792 C   0  0  0  0  0  0  0  0  0  0  0  0
    9.2766  -16.9754   21.2734 O   0  0  0  0  0  0  0  0  0  0  0  0
   13.1705  -16.2257   23.3796 O   0  0  0  0  0  0  0  0  0  0  0  0
   12.1699  -16.7362   22.5614 C   0  0  0  0  0  0  0  0  0  0  0  0
   10.9493  -17.1305   23.4061 C   0  0  2  0  0  0  0  0  0  0  0  0
    9.9740  -16.0733   23.2233 N   0  0  0  0  0  0  0  0  0  0  0  0
   11.3394  -17.1552   24.8324 C   0  0  0  0  0  0  0  0  0  0  0  0
   10.7594  -16.3424   25.8017 O   0  0  0  0  0  0  0  0  0  0  0  0
   12.2391  -17.9380   25.2305 O   0  0  0  0  0  0  0  0  0  0  0  0
  2  1  1  6
  2  3  1  0
  3  4  1  0
  4  8  1  0
  5  4  2  0
  6  2  1  0
  7  6  2  0
 11 10  1  1
 10  9  1  0
 11 13  1  0
 11 12  1  0
 12  6  1  0
 13 14  2  0
 16 15  1  0
 17 16  1  6
 18 17  1  0
 18 13  1  0
 19 20  1  0
 19 17  1  0
 21 19  2  0
M  END
$$$$
