DSS.pdb
     RDKit          3D

 21 20  0  0  1  0  0  0  0  0999 V2000
   14.3962  -15.0634   13.8479 N   0  0  0  0  0  0  0  0  0  0  0  0
   14.8896  -15.8516   14.9434 C   0  0  1  0  0  0  0  0  0  0  0  0
   16.3885  -15.9858   14.7549 C   0  0  0  0  0  0  0  0  0  0  0  0
   16.6129  -16.8291   13.5684 C   0  0  0  0  0  0  0  0  0  0  0  0
   15.9378  -17.8593   13.4000 O   0  0  0  0  0  0  0  0  0  0  0  0
   14.5494  -15.2848   16.2727 C   0  0  0  0  0  0  0  0  0  0  0  0
   15.4673  -14.6983   16.8929 O   0  0  0  0  0  0  0  0  0  0  0  0
   17.5688  -16.4792   12.6452 O   0  0  0  0  0  0  0  0  0  0  0  0
   10.7240  -15.9913   18.2809 O   0  0  0  0  0  0  0  0  0  0  0  0
   11.3687  -14.7666   18.2706 C   0  0  0  0  0  0  0  0  0  0  0  0
   12.8524  -14.8349   18.1164 C   0  0  2  0  0  0  0  0  0  0  0  0
   13.2555  -15.3838   16.8448 N   0  0  0  0  0  0  0  0  0  0  0  0
   13.5539  -15.4678   19.2540 C   0  0  0  0  0  0  0  0  0  0  0  0
   13.8458  -16.6907   19.2251 O   0  0  0  0  0  0  0  0  0  0  0  0
   16.7587  -14.4342   20.9817 O   0  0  0  0  0  0  0  0  0  0  0  0
   15.7690  -14.5035   21.9547 C   0  0  0  0  0  0  0  0  0  0  0  0
   14.6561  -15.4622   21.5062 C   0  0  2  0  0  0  0  0  0  0  0  0
   13.9490  -14.7865   20.4358 N   0  0  0  0  0  0  0  0  0  0  0  0
   13.7124  -15.6613   22.6273 C   0  0  0  0  0  0  0  0  0  0  0  0
   12.3444  -15.4245   22.5313 O   0  0  0  0  0  0  0  0  0  0  0  0
   14.1287  -16.0649   23.7428 O   0  0  0  0  0  0  0  0  0  0  0  0
  2  1  1  6
  2  3  1  0
  3  4  1  0
  4  8  1  0
  5  4  2  0
  6  2  1  0
  7  6  2  0
 11 10  1  1
 10  9  1  0
 11 13  1  0
 11 12  1  0
 12  6  1  0
 13 14  2  0
 16 15  1  0
 17 16  1  1
 18 17  1  0
 18 13  1  0
 19 20  1  0
 19 17  1  0
 21 19  2  0
M  END
$$$$
