DSS.pdb
     RDKit          3D

 21 20  0  0  1  0  0  0  0  0999 V2000
   11.8515  -17.9586   16.3157 N   0  0  0  0  0  0  0  0  0  0  0  0
   12.9124  -18.1580   17.2642 C   0  0  1  0  0  0  0  0  0  0  0  0
   14.2096  -17.8086   16.5601 C   0  0  0  0  0  0  0  0  0  0  0  0
   14.4924  -18.8823   15.5923 C   0  0  0  0  0  0  0  0  0  0  0  0
   15.5977  -19.4513   15.5990 O   0  0  0  0  0  0  0  0  0  0  0  0
   12.7354  -17.3764   18.5140 C   0  0  0  0  0  0  0  0  0  0  0  0
   13.5653  -16.4639   18.7367 O   0  0  0  0  0  0  0  0  0  0  0  0
   13.5356  -19.2572   14.6800 O   0  0  0  0  0  0  0  0  0  0  0  0
    9.3712  -18.0614   21.1315 O   0  0  0  0  0  0  0  0  0  0  0  0
    9.9876  -16.8289   21.0028 C   0  0  0  0  0  0  0  0  0  0  0  0
   11.4368  -16.8812   20.6470 C   0  0  2  0  0  0  0  0  0  0  0  0
   11.6865  -17.6238   19.4358 N   0  0  0  0  0  0  0  0  0  0  0  0
   12.3215  -17.2954   21.7573 C   0  0  0  0  0  0  0  0  0  0  0  0
   12.7537  -18.4745   21.8250 O   0  0  0  0  0  0  0  0  0  0  0  0
   15.3178  -15.3104   23.4264 O   0  0  0  0  0  0  0  0  0  0  0  0
   14.3841  -15.6964   24.3806 C   0  0  0  0  0  0  0  0  0  0  0  0
   13.5968  -16.9176   23.8828 C   0  0  2  0  0  0  0  0  0  0  0  0
   12.7501  -16.4402   22.8069 N   0  0  0  0  0  0  0  0  0  0  0  0
   12.7246  -17.4044   24.9735 C   0  0  0  0  0  0  0  0  0  0  0  0
   13.2006  -18.0730   26.0974 O   0  0  0  0  0  0  0  0  0  0  0  0
   11.4815  -17.2245   24.9197 O   0  0  0  0  0  0  0  0  0  0  0  0
  2  1  1  6
  2  3  1  0
  3  4  1  0
  4  8  1  0
  5  4  2  0
  6  2  1  0
  7  6  2  0
 11 10  1  1
 10  9  1  0
 11 13  1  0
 11 12  1  0
 12  6  1  0
 13 14  2  0
 16 15  1  0
 17 16  1  1
 18 17  1  0
 18 13  1  0
 19 20  1  0
 19 17  1  0
 21 19  2  0
M  END
$$$$
