DSS.pdb
     RDKit          3D

 21 20  0  0  1  0  0  0  0  0999 V2000
   13.3842  -15.1161   17.0674 N   0  0  0  0  0  0  0  0  0  0  0  0
   13.7210  -15.1152   18.4644 C   0  0  1  0  0  0  0  0  0  0  0  0
   14.6761  -13.9590   18.6906 C   0  0  0  0  0  0  0  0  0  0  0  0
   15.9815  -14.3450   18.1282 C   0  0  0  0  0  0  0  0  0  0  0  0
   16.3768  -15.5199   18.2215 O   0  0  0  0  0  0  0  0  0  0  0  0
   12.5345  -15.0325   19.3529 C   0  0  0  0  0  0  0  0  0  0  0  0
   11.8496  -13.9844   19.2914 O   0  0  0  0  0  0  0  0  0  0  0  0
   16.7651  -13.4075   17.4994 O   0  0  0  0  0  0  0  0  0  0  0  0
   10.5834  -18.5016   20.9472 O   0  0  0  0  0  0  0  0  0  0  0  0
   10.0658  -17.2434   20.6931 C   0  0  0  0  0  0  0  0  0  0  0  0
   10.9667  -16.1064   21.0471 C   0  0  2  0  0  0  0  0  0  0  0  0
   12.1635  -16.0728   20.2425 N   0  0  0  0  0  0  0  0  0  0  0  0
   11.2530  -15.9841   22.4928 C   0  0  0  0  0  0  0  0  0  0  0  0
   12.3669  -16.3388   22.9565 O   0  0  0  0  0  0  0  0  0  0  0  0
    8.2598  -15.1066   25.0433 O   0  0  0  0  0  0  0  0  0  0  0  0
    9.4960  -14.7433   25.5639 C   0  0  0  0  0  0  0  0  0  0  0  0
   10.6124  -15.5433   24.8765 C   0  0  2  0  0  0  0  0  0  0  0  0
   10.3394  -15.4763   23.4541 N   0  0  0  0  0  0  0  0  0  0  0  0
   10.5188  -16.9581   25.2970 C   0  0  0  0  0  0  0  0  0  0  0  0
   10.8709  -17.4072   26.5663 O   0  0  0  0  0  0  0  0  0  0  0  0
   10.1039  -17.8322   24.4943 O   0  0  0  0  0  0  0  0  0  0  0  0
  2  1  1  6
  2  3  1  0
  3  4  1  0
  4  8  1  0
  5  4  2  0
  6  2  1  0
  7  6  2  0
 11 10  1  1
 10  9  1  0
 11 13  1  0
 11 12  1  0
 12  6  1  0
 13 14  2  0
 16 15  1  0
 17 16  1  1
 18 17  1  0
 18 13  1  0
 19 20  1  0
 19 17  1  0
 21 19  2  0
M  END
$$$$
