DSS.pdb
     RDKit          3D

 21 20  0  0  1  0  0  0  0  0999 V2000
   12.0657  -18.4913   17.0738 N   0  0  0  0  0  0  0  0  0  0  0  0
   12.6796  -19.1560   18.1901 C   0  0  1  0  0  0  0  0  0  0  0  0
   14.0509  -19.6163   17.7341 C   0  0  0  0  0  0  0  0  0  0  0  0
   13.8548  -20.5572   16.6179 C   0  0  0  0  0  0  0  0  0  0  0  0
   13.0187  -21.4720   16.7143 O   0  0  0  0  0  0  0  0  0  0  0  0
   12.7586  -18.3076   19.4059 C   0  0  0  0  0  0  0  0  0  0  0  0
   13.8912  -17.8767   19.7263 O   0  0  0  0  0  0  0  0  0  0  0  0
   14.5956  -20.4259   15.4680 O   0  0  0  0  0  0  0  0  0  0  0  0
    9.3796  -17.5672   22.1402 O   0  0  0  0  0  0  0  0  0  0  0  0
   10.2439  -16.5982   21.6613 C   0  0  0  0  0  0  0  0  0  0  0  0
   11.6146  -17.0852   21.3237 C   0  0  2  0  0  0  0  0  0  0  0  0
   11.6248  -17.9796   20.1920 N   0  0  0  0  0  0  0  0  0  0  0  0
   12.3707  -17.6215   22.4758 C   0  0  0  0  0  0  0  0  0  0  0  0
   12.3910  -18.8573   22.7082 O   0  0  0  0  0  0  0  0  0  0  0  0
   15.1437  -15.4201   24.4383 O   0  0  0  0  0  0  0  0  0  0  0  0
   15.2257  -16.8058   24.5044 C   0  0  0  0  0  0  0  0  0  0  0  0
   13.8166  -17.4167   24.5141 C   0  0  2  0  0  0  0  0  0  0  0  0
   13.1146  -16.8290   23.3898 N   0  0  0  0  0  0  0  0  0  0  0  0
   13.1236  -17.0069   25.7547 C   0  0  0  0  0  0  0  0  0  0  0  0
   13.5561  -17.3610   27.0291 O   0  0  0  0  0  0  0  0  0  0  0  0
   12.0849  -16.3009   25.6974 O   0  0  0  0  0  0  0  0  0  0  0  0
  2  1  1  6
  2  3  1  0
  3  4  1  0
  4  8  1  0
  5  4  2  0
  6  2  1  0
  7  6  2  0
 11 10  1  1
 10  9  1  0
 11 13  1  0
 11 12  1  0
 12  6  1  0
 13 14  2  0
 16 15  1  0
 17 16  1  1
 18 17  1  0
 18 13  1  0
 19 20  1  0
 19 17  1  0
 21 19  2  0
M  END
$$$$
