DSS.pdb
     RDKit          3D

 21 20  0  0  1  0  0  0  0  0999 V2000
   12.1993  -19.0496   15.8481 N   0  0  0  0  0  0  0  0  0  0  0  0
   12.5699  -19.4388   17.1808 C   0  0  1  0  0  0  0  0  0  0  0  0
   14.0693  -19.2444   17.2999 C   0  0  0  0  0  0  0  0  0  0  0  0
   14.7170  -20.2520   16.4428 C   0  0  0  0  0  0  0  0  0  0  0  0
   14.1441  -21.3296   16.2068 O   0  0  0  0  0  0  0  0  0  0  0  0
   11.8320  -18.6970   18.2341 C   0  0  0  0  0  0  0  0  0  0  0  0
   12.0761  -17.4725   18.3446 O   0  0  0  0  0  0  0  0  0  0  0  0
   15.9557  -20.0031   15.9024 O   0  0  0  0  0  0  0  0  0  0  0  0
    9.1329  -20.5351   21.2639 O   0  0  0  0  0  0  0  0  0  0  0  0
    8.8737  -19.4288   20.4738 C   0  0  0  0  0  0  0  0  0  0  0  0
   10.0775  -18.6389   20.0779 C   0  0  2  0  0  0  0  0  0  0  0  0
   10.8874  -19.3139   19.0934 N   0  0  0  0  0  0  0  0  0  0  0  0
   10.8746  -18.1330   21.2160 C   0  0  0  0  0  0  0  0  0  0  0  0
   11.9832  -18.6533   21.5020 O   0  0  0  0  0  0  0  0  0  0  0  0
    9.2615  -15.5282   23.8050 O   0  0  0  0  0  0  0  0  0  0  0  0
   10.6384  -15.3575   23.7263 C   0  0  0  0  0  0  0  0  0  0  0  0
   11.2968  -16.6334   23.1808 C   0  0  2  0  0  0  0  0  0  0  0  0
   10.4836  -17.0582   22.0580 N   0  0  0  0  0  0  0  0  0  0  0  0
   11.2364  -17.6864   24.2174 C   0  0  0  0  0  0  0  0  0  0  0  0
   12.0484  -17.6994   25.3475 O   0  0  0  0  0  0  0  0  0  0  0  0
   10.4217  -18.6377   24.1085 O   0  0  0  0  0  0  0  0  0  0  0  0
  2  1  1  6
  2  3  1  0
  3  4  1  0
  4  8  1  0
  5  4  2  0
  6  2  1  0
  7  6  2  0
 11 10  1  1
 10  9  1  0
 11 13  1  0
 11 12  1  0
 12  6  1  0
 13 14  2  0
 16 15  1  0
 17 16  1  1
 18 17  1  0
 18 13  1  0
 19 20  1  0
 19 17  1  0
 21 19  2  0
M  END
$$$$
