DSS.pdb
     RDKit          3D

 21 20  0  0  1  0  0  0  0  0999 V2000
    9.4411  -17.4574   16.6150 N   0  0  0  0  0  0  0  0  0  0  0  0
    8.4471  -17.3048   17.6414 C   0  0  1  0  0  0  0  0  0  0  0  0
    7.8606  -18.6794   17.9000 C   0  0  0  0  0  0  0  0  0  0  0  0
    7.3736  -19.2036   16.6125 C   0  0  0  0  0  0  0  0  0  0  0  0
    7.8511  -20.2527   16.1468 O   0  0  0  0  0  0  0  0  0  0  0  0
    8.9775  -16.6889   18.8837 C   0  0  0  0  0  0  0  0  0  0  0  0
   10.2078  -16.8032   19.0949 O   0  0  0  0  0  0  0  0  0  0  0  0
    6.3909  -18.5344   15.9235 O   0  0  0  0  0  0  0  0  0  0  0  0
    6.4558  -15.2232   22.1593 O   0  0  0  0  0  0  0  0  0  0  0  0
    7.5585  -14.5384   21.6792 C   0  0  0  0  0  0  0  0  0  0  0  0
    8.6050  -15.3926   21.0429 C   0  0  2  0  0  0  0  0  0  0  0  0
    8.1585  -15.9955   19.8109 N   0  0  0  0  0  0  0  0  0  0  0  0
    9.2306  -16.3715   21.9579 C   0  0  0  0  0  0  0  0  0  0  0  0
    8.8579  -17.5726   21.9614 O   0  0  0  0  0  0  0  0  0  0  0  0
   12.9674  -16.1540   23.0972 O   0  0  0  0  0  0  0  0  0  0  0  0
   12.2574  -17.3450   23.1903 C   0  0  0  0  0  0  0  0  0  0  0  0
   10.8484  -17.0763   23.7392 C   0  0  2  0  0  0  0  0  0  0  0  0
   10.2668  -16.0642   22.8792 N   0  0  0  0  0  0  0  0  0  0  0  0
   10.9627  -16.5124   25.1016 C   0  0  0  0  0  0  0  0  0  0  0  0
   11.5440  -17.1917   26.1680 O   0  0  0  0  0  0  0  0  0  0  0  0
   10.5233  -15.3610   25.3504 O   0  0  0  0  0  0  0  0  0  0  0  0
  2  1  1  6
  2  3  1  0
  3  4  1  0
  4  8  1  0
  5  4  2  0
  6  2  1  0
  7  6  2  0
 11 10  1  1
 10  9  1  0
 11 13  1  0
 11 12  1  0
 12  6  1  0
 13 14  2  0
 16 15  1  0
 17 16  1  6
 18 17  1  0
 18 13  1  0
 19 20  1  0
 19 17  1  0
 21 19  2  0
M  END
$$$$
