DSS.pdb
     RDKit          3D

 21 20  0  0  1  0  0  0  0  0999 V2000
    9.9446  -19.1945   16.3292 N   0  0  0  0  0  0  0  0  0  0  0  0
    9.9972  -17.7630   16.4431 C   0  0  1  0  0  0  0  0  0  0  0  0
    9.2119  -17.1951   15.2765 C   0  0  0  0  0  0  0  0  0  0  0  0
   10.0436  -17.3391   14.0695 C   0  0  0  0  0  0  0  0  0  0  0  0
   10.5230  -18.4469   13.7722 O   0  0  0  0  0  0  0  0  0  0  0  0
    9.4917  -17.2601   17.7453 C   0  0  0  0  0  0  0  0  0  0  0  0
    9.6189  -16.0334   17.9695 O   0  0  0  0  0  0  0  0  0  0  0  0
   10.2915  -16.2496   13.2696 O   0  0  0  0  0  0  0  0  0  0  0  0
    7.9378  -19.9244   20.8997 O   0  0  0  0  0  0  0  0  0  0  0  0
    7.5445  -18.6140   20.6911 C   0  0  0  0  0  0  0  0  0  0  0  0
    8.5814  -17.7335   20.0753 C   0  0  2  0  0  0  0  0  0  0  0  0
    8.8870  -18.1008   18.7142 N   0  0  0  0  0  0  0  0  0  0  0  0
    9.7960  -17.5552   20.8997 C   0  0  0  0  0  0  0  0  0  0  0  0
   10.8963  -18.0399   20.5309 O   0  0  0  0  0  0  0  0  0  0  0  0
   11.8530  -15.6440   24.8872 O   0  0  0  0  0  0  0  0  0  0  0  0
   10.7271  -15.8173   24.0912 C   0  0  0  0  0  0  0  0  0  0  0  0
   11.0538  -16.7457   22.9122 C   0  0  2  0  0  0  0  0  0  0  0  0
    9.8362  -16.8504   22.1320 N   0  0  0  0  0  0  0  0  0  0  0  0
   11.3823  -18.0895   23.4351 C   0  0  0  0  0  0  0  0  0  0  0  0
   12.6842  -18.5392   23.6344 O   0  0  0  0  0  0  0  0  0  0  0  0
   10.4651  -18.8983   23.7268 O   0  0  0  0  0  0  0  0  0  0  0  0
  2  1  1  1
  2  3  1  0
  3  4  1  0
  4  8  1  0
  5  4  2  0
  6  2  1  0
  7  6  2  0
 11 10  1  1
 10  9  1  0
 11 13  1  0
 11 12  1  0
 12  6  1  0
 13 14  2  0
 16 15  1  0
 17 16  1  1
 18 17  1  0
 18 13  1  0
 19 20  1  0
 19 17  1  0
 21 19  2  0
M  END
$$$$
