DSS.pdb
     RDKit          3D

 21 20  0  0  1  0  0  0  0  0999 V2000
   13.5600  -18.6716   17.3018 N   0  0  0  0  0  0  0  0  0  0  0  0
   14.4756  -18.4055   18.3769 C   0  0  1  0  0  0  0  0  0  0  0  0
   15.6573  -17.6644   17.7812 C   0  0  0  0  0  0  0  0  0  0  0  0
   16.2504  -18.5317   16.7489 C   0  0  0  0  0  0  0  0  0  0  0  0
   15.7625  -18.5623   15.6060 O   0  0  0  0  0  0  0  0  0  0  0  0
   13.8596  -17.6513   19.4976 C   0  0  0  0  0  0  0  0  0  0  0  0
   14.6347  -17.1987   20.3726 O   0  0  0  0  0  0  0  0  0  0  0  0
   17.3440  -19.3085   17.0469 O   0  0  0  0  0  0  0  0  0  0  0  0
    9.5243  -17.3843   20.1544 O   0  0  0  0  0  0  0  0  0  0  0  0
   10.4018  -16.3257   20.3117 C   0  0  0  0  0  0  0  0  0  0  0  0
   11.8008  -16.7115   20.6635 C   0  0  2  0  0  0  0  0  0  0  0  0
   12.4623  -17.4338   19.6045 N   0  0  0  0  0  0  0  0  0  0  0  0
   11.9360  -17.3806   21.9753 C   0  0  0  0  0  0  0  0  0  0  0  0
   12.1859  -18.6113   22.0428 O   0  0  0  0  0  0  0  0  0  0  0  0
   12.1009  -16.9849   26.8291 O   0  0  0  0  0  0  0  0  0  0  0  0
   12.0219  -16.3787   25.5811 C   0  0  0  0  0  0  0  0  0  0  0  0
   11.9296  -17.4474   24.4818 C   0  0  2  0  0  0  0  0  0  0  0  0
   11.8035  -16.7276   23.2294 N   0  0  0  0  0  0  0  0  0  0  0  0
   10.6971  -18.2394   24.6836 C   0  0  0  0  0  0  0  0  0  0  0  0
   10.6482  -19.4039   25.4441 O   0  0  0  0  0  0  0  0  0  0  0  0
    9.6154  -17.8748   24.1568 O   0  0  0  0  0  0  0  0  0  0  0  0
  2  1  1  6
  2  3  1  0
  3  4  1  0
  4  8  1  0
  5  4  2  0
  6  2  1  0
  7  6  2  0
 11 10  1  6
 10  9  1  0
 11 13  1  0
 11 12  1  0
 12  6  1  0
 13 14  2  0
 16 15  1  0
 17 16  1  1
 18 17  1  0
 18 13  1  0
 19 20  1  0
 19 17  1  0
 21 19  2  0
M  END
$$$$
