DSS.pdb
     RDKit          3D

 21 20  0  0  1  0  0  0  0  0999 V2000
   10.5472  -18.1085   20.5960 N   0  0  0  0  0  0  0  0  0  0  0  0
   11.4618  -17.4945   21.5187 C   0  0  1  0  0  0  0  0  0  0  0  0
   12.3901  -16.6137   20.7046 C   0  0  0  0  0  0  0  0  0  0  0  0
   13.3003  -17.4989   19.9579 C   0  0  0  0  0  0  0  0  0  0  0  0
   13.5332  -18.6468   20.3744 O   0  0  0  0  0  0  0  0  0  0  0  0
   10.7828  -16.7322   22.5967 C   0  0  0  0  0  0  0  0  0  0  0  0
   10.8762  -15.4829   22.5555 O   0  0  0  0  0  0  0  0  0  0  0  0
   13.8940  -17.0580   18.7998 O   0  0  0  0  0  0  0  0  0  0  0  0
    8.3477  -18.6112   25.7860 O   0  0  0  0  0  0  0  0  0  0  0  0
    8.0714  -17.4615   25.0668 C   0  0  0  0  0  0  0  0  0  0  0  0
    9.2698  -16.6777   24.6434 C   0  0  2  0  0  0  0  0  0  0  0  0
   10.0533  -17.3565   23.6403 N   0  0  0  0  0  0  0  0  0  0  0  0
   10.0955  -16.1762   25.7630 C   0  0  0  0  0  0  0  0  0  0  0  0
   11.1645  -16.7579   26.0800 O   0  0  0  0  0  0  0  0  0  0  0  0
    8.7127  -13.2030   28.0701 O   0  0  0  0  0  0  0  0  0  0  0  0
   10.1014  -13.2468   28.0951 C   0  0  0  0  0  0  0  0  0  0  0  0
   10.5916  -14.6431   27.6841 C   0  0  2  0  0  0  0  0  0  0  0  0
    9.7764  -15.0397   26.5525 N   0  0  0  0  0  0  0  0  0  0  0  0
   10.3328  -15.5886   28.7915 C   0  0  0  0  0  0  0  0  0  0  0  0
   11.0109  -15.5530   30.0063 O   0  0  0  0  0  0  0  0  0  0  0  0
    9.4621  -16.4870   28.6682 O   0  0  0  0  0  0  0  0  0  0  0  0
  2  1  1  6
  2  3  1  0
  3  4  1  0
  4  8  1  0
  5  4  2  0
  6  2  1  0
  7  6  2  0
 11 10  1  1
 10  9  1  0
 11 13  1  0
 11 12  1  0
 12  6  1  0
 13 14  2  0
 16 15  1  0
 17 16  1  1
 18 17  1  0
 18 13  1  0
 19 20  1  0
 19 17  1  0
 21 19  2  0
M  END
$$$$
