DSS.pdb
     RDKit          3D

 21 20  0  0  1  0  0  0  0  0999 V2000
   10.1923  -19.2376   17.1653 N   0  0  0  0  0  0  0  0  0  0  0  0
   11.4469  -18.6602   17.5623 C   0  0  1  0  0  0  0  0  0  0  0  0
   11.9424  -17.8281   16.3950 C   0  0  0  0  0  0  0  0  0  0  0  0
   12.4409  -18.7578   15.3671 C   0  0  0  0  0  0  0  0  0  0  0  0
   12.1541  -19.9658   15.4286 O   0  0  0  0  0  0  0  0  0  0  0  0
   11.3550  -17.8607   18.8099 C   0  0  0  0  0  0  0  0  0  0  0  0
   12.3853  -17.2422   19.1664 O   0  0  0  0  0  0  0  0  0  0  0  0
   13.2238  -18.2921   14.3384 O   0  0  0  0  0  0  0  0  0  0  0  0
    7.8445  -17.9227   21.4195 O   0  0  0  0  0  0  0  0  0  0  0  0
    8.5862  -16.7835   21.1591 C   0  0  0  0  0  0  0  0  0  0  0  0
   10.0172  -17.0275   20.8093 C   0  0  2  0  0  0  0  0  0  0  0  0
   10.1717  -17.7780   19.5871 N   0  0  0  0  0  0  0  0  0  0  0  0
   10.8294  -17.5760   21.9167 C   0  0  0  0  0  0  0  0  0  0  0  0
   11.0370  -18.8131   22.0059 O   0  0  0  0  0  0  0  0  0  0  0  0
   14.2158  -16.3692   23.4410 O   0  0  0  0  0  0  0  0  0  0  0  0
   13.2480  -16.4142   24.4373 C   0  0  0  0  0  0  0  0  0  0  0  0
   12.1379  -17.4018   24.0485 C   0  0  2  0  0  0  0  0  0  0  0  0
   11.4275  -16.7940   22.9402 N   0  0  0  0  0  0  0  0  0  0  0  0
   11.1959  -17.5362   25.1807 C   0  0  0  0  0  0  0  0  0  0  0  0
   11.4811  -18.2583   26.3357 O   0  0  0  0  0  0  0  0  0  0  0  0
   10.0674  -16.9839   25.1360 O   0  0  0  0  0  0  0  0  0  0  0  0
  2  1  1  6
  2  3  1  0
  3  4  1  0
  4  8  1  0
  5  4  2  0
  6  2  1  0
  7  6  2  0
 11 10  1  1
 10  9  1  0
 11 13  1  0
 11 12  1  0
 12  6  1  0
 13 14  2  0
 16 15  1  0
 17 16  1  1
 18 17  1  0
 18 13  1  0
 19 20  1  0
 19 17  1  0
 21 19  2  0
M  END
$$$$
