DSS.pdb
     RDKit          3D

 21 20  0  0  1  0  0  0  0  0999 V2000
   11.4470  -17.0128   19.5136 N   0  0  0  0  0  0  0  0  0  0  0  0
   11.5572  -17.3053   20.9161 C   0  0  1  0  0  0  0  0  0  0  0  0
   13.0145  -17.1239   21.2950 C   0  0  0  0  0  0  0  0  0  0  0  0
   13.7775  -18.2103   20.6569 C   0  0  0  0  0  0  0  0  0  0  0  0
   13.8537  -18.2732   19.4177 O   0  0  0  0  0  0  0  0  0  0  0  0
   10.6606  -16.4755   21.7598 C   0  0  0  0  0  0  0  0  0  0  0  0
   10.8605  -15.2380   21.7561 O   0  0  0  0  0  0  0  0  0  0  0  0
   14.4065  -19.1566   21.4298 O   0  0  0  0  0  0  0  0  0  0  0  0
    7.6145  -18.1093   24.5200 O   0  0  0  0  0  0  0  0  0  0  0  0
    7.4350  -17.0486   23.6494 C   0  0  0  0  0  0  0  0  0  0  0  0
    8.6715  -16.2724   23.3356 C   0  0  2  0  0  0  0  0  0  0  0  0
    9.6158  -17.0244   22.5460 N   0  0  0  0  0  0  0  0  0  0  0  0
    9.3005  -15.6293   24.5094 C   0  0  0  0  0  0  0  0  0  0  0  0
   10.3743  -16.0782   24.9857 O   0  0  0  0  0  0  0  0  0  0  0  0
    7.3227  -12.7889   26.5901 O   0  0  0  0  0  0  0  0  0  0  0  0
    8.7002  -12.6178   26.6571 C   0  0  0  0  0  0  0  0  0  0  0  0
    9.4106  -13.9481   26.3664 C   0  0  2  0  0  0  0  0  0  0  0  0
    8.7770  -14.4932   25.1816 N   0  0  0  0  0  0  0  0  0  0  0  0
    9.1657  -14.8792   27.4890 C   0  0  0  0  0  0  0  0  0  0  0  0
    9.6728  -14.6875   28.7707 O   0  0  0  0  0  0  0  0  0  0  0  0
    8.4675  -15.9105   27.3170 O   0  0  0  0  0  0  0  0  0  0  0  0
  2  1  1  6
  2  3  1  0
  3  4  1  0
  4  8  1  0
  5  4  2  0
  6  2  1  0
  7  6  2  0
 11 10  1  1
 10  9  1  0
 11 13  1  0
 11 12  1  0
 12  6  1  0
 13 14  2  0
 16 15  1  0
 17 16  1  1
 18 17  1  0
 18 13  1  0
 19 20  1  0
 19 17  1  0
 21 19  2  0
M  END
$$$$
