DSS.pdb
     RDKit          3D

 21 20  0  0  1  0  0  0  0  0999 V2000
    9.4841  -17.2515   17.2446 N   0  0  0  0  0  0  0  0  0  0  0  0
    8.7804  -17.4143   18.4869 C   0  0  1  0  0  0  0  0  0  0  0  0
    8.5887  -18.9041   18.6972 C   0  0  0  0  0  0  0  0  0  0  0  0
    7.9328  -19.4416   17.4930 C   0  0  0  0  0  0  0  0  0  0  0  0
    8.2402  -20.5683   17.0669 O   0  0  0  0  0  0  0  0  0  0  0  0
    9.4697  -16.7789   19.6381 C   0  0  0  0  0  0  0  0  0  0  0  0
   10.7050  -16.9674   19.7362 O   0  0  0  0  0  0  0  0  0  0  0  0
    6.9800  -18.6991   16.8379 O   0  0  0  0  0  0  0  0  0  0  0  0
    7.3502  -14.8639   22.9632 O   0  0  0  0  0  0  0  0  0  0  0  0
    8.5044  -14.3534   22.3951 C   0  0  0  0  0  0  0  0  0  0  0  0
    9.3952  -15.3666   21.7550 C   0  0  2  0  0  0  0  0  0  0  0  0
    8.7925  -15.9885   20.6014 N   0  0  0  0  0  0  0  0  0  0  0  0
    9.9684  -16.3535   22.6953 C   0  0  0  0  0  0  0  0  0  0  0  0
    9.5517  -17.5400   22.7100 O   0  0  0  0  0  0  0  0  0  0  0  0
   13.6382  -18.0017   25.1847 O   0  0  0  0  0  0  0  0  0  0  0  0
   13.0454  -17.0856   24.3242 C   0  0  0  0  0  0  0  0  0  0  0  0
   11.5223  -17.0875   24.5212 C   0  0  2  0  0  0  0  0  0  0  0  0
   10.9992  -16.0702   23.6302 N   0  0  0  0  0  0  0  0  0  0  0  0
   11.2168  -16.6836   25.9107 C   0  0  0  0  0  0  0  0  0  0  0  0
   11.4090  -17.5128   27.0117 O   0  0  0  0  0  0  0  0  0  0  0  0
   10.7574  -15.5384   26.1520 O   0  0  0  0  0  0  0  0  0  0  0  0
  2  1  1  6
  2  3  1  0
  3  4  1  0
  4  8  1  0
  5  4  2  0
  6  2  1  0
  7  6  2  0
 11 10  1  1
 10  9  1  0
 11 13  1  0
 11 12  1  0
 12  6  1  0
 13 14  2  0
 16 15  1  0
 17 16  1  1
 18 17  1  0
 18 13  1  0
 19 20  1  0
 19 17  1  0
 21 19  2  0
M  END
$$$$
