DSS.pdb
     RDKit          3D

 21 20  0  0  1  0  0  0  0  0999 V2000
   11.1372  -18.4532   21.2941 N   0  0  0  0  0  0  0  0  0  0  0  0
   11.8648  -17.2593   21.6257 C   0  0  1  0  0  0  0  0  0  0  0  0
   12.1622  -16.5434   20.3221 C   0  0  0  0  0  0  0  0  0  0  0  0
   13.3311  -17.1999   19.7119 C   0  0  0  0  0  0  0  0  0  0  0  0
   14.1060  -17.8708   20.4153 O   0  0  0  0  0  0  0  0  0  0  0  0
   11.1463  -16.3829   22.5848 C   0  0  0  0  0  0  0  0  0  0  0  0
   11.6415  -15.2522   22.8032 O   0  0  0  0  0  0  0  0  0  0  0  0
   13.5675  -17.0721   18.3643 O   0  0  0  0  0  0  0  0  0  0  0  0
    7.6600  -17.7105   24.9352 O   0  0  0  0  0  0  0  0  0  0  0  0
    7.8367  -16.4386   24.4190 C   0  0  0  0  0  0  0  0  0  0  0  0
    9.2593  -16.0157   24.2539 C   0  0  2  0  0  0  0  0  0  0  0  0
    9.9520  -16.7747   23.2414 N   0  0  0  0  0  0  0  0  0  0  0  0
   10.0204  -15.9331   25.5190 C   0  0  0  0  0  0  0  0  0  0  0  0
   10.9466  -16.7483   25.7627 O   0  0  0  0  0  0  0  0  0  0  0  0
   10.6733  -13.7229   29.8188 O   0  0  0  0  0  0  0  0  0  0  0  0
   10.0279  -13.7745   28.5892 C   0  0  0  0  0  0  0  0  0  0  0  0
   10.5539  -14.9610   27.7679 C   0  0  2  0  0  0  0  0  0  0  0  0
    9.7902  -14.9683   26.5354 N   0  0  0  0  0  0  0  0  0  0  0  0
   10.2648  -16.2154   28.4960 C   0  0  0  0  0  0  0  0  0  0  0  0
    9.0515  -16.8916   28.4097 O   0  0  0  0  0  0  0  0  0  0  0  0
   11.1351  -16.7303   29.2429 O   0  0  0  0  0  0  0  0  0  0  0  0
  2  1  1  6
  2  3  1  0
  3  4  1  0
  4  8  1  0
  5  4  2  0
  6  2  1  0
  7  6  2  0
 11 10  1  1
 10  9  1  0
 11 13  1  0
 11 12  1  0
 12  6  1  0
 13 14  2  0
 16 15  1  0
 17 16  1  1
 18 17  1  0
 18 13  1  0
 19 20  1  0
 19 17  1  0
 21 19  2  0
M  END
$$$$
