DSS.pdb
     RDKit          3D

 21 20  0  0  1  0  0  0  0  0999 V2000
   11.2157  -17.0796   17.5030 N   0  0  0  0  0  0  0  0  0  0  0  0
   11.3035  -17.5126   18.8703 C   0  0  1  0  0  0  0  0  0  0  0  0
   12.7567  -17.3834   19.2850 C   0  0  0  0  0  0  0  0  0  0  0  0
   13.5277  -18.3750   18.5157 C   0  0  0  0  0  0  0  0  0  0  0  0
   13.1755  -19.5672   18.5074 O   0  0  0  0  0  0  0  0  0  0  0  0
   10.4014  -16.7637   19.7810 C   0  0  0  0  0  0  0  0  0  0  0  0
   10.6619  -15.5523   19.9704 O   0  0  0  0  0  0  0  0  0  0  0  0
   14.6376  -17.9846   17.8059 O   0  0  0  0  0  0  0  0  0  0  0  0
    7.0841  -18.5732   22.1136 O   0  0  0  0  0  0  0  0  0  0  0  0
    7.0305  -17.4120   21.3624 C   0  0  0  0  0  0  0  0  0  0  0  0
    8.3230  -16.6729   21.2485 C   0  0  2  0  0  0  0  0  0  0  0  0
    9.2867  -17.3599   20.4239 N   0  0  0  0  0  0  0  0  0  0  0  0
    8.8923  -16.2396   22.5427 C   0  0  0  0  0  0  0  0  0  0  0  0
    9.9140  -16.8025   23.0127 O   0  0  0  0  0  0  0  0  0  0  0  0
    6.8255  -13.7776   24.9827 O   0  0  0  0  0  0  0  0  0  0  0  0
    8.1973  -13.5959   25.1111 C   0  0  0  0  0  0  0  0  0  0  0  0
    8.9418  -14.8498   24.6292 C   0  0  2  0  0  0  0  0  0  0  0  0
    8.3647  -15.1924   23.3439 N   0  0  0  0  0  0  0  0  0  0  0  0
    8.6693  -15.9607   25.5668 C   0  0  0  0  0  0  0  0  0  0  0  0
    9.1559  -16.0028   26.8699 O   0  0  0  0  0  0  0  0  0  0  0  0
    7.9653  -16.9375   25.2054 O   0  0  0  0  0  0  0  0  0  0  0  0
  2  1  1  6
  2  3  1  0
  3  4  1  0
  4  8  1  0
  5  4  2  0
  6  2  1  0
  7  6  2  0
 11 10  1  1
 10  9  1  0
 11 13  1  0
 11 12  1  0
 12  6  1  0
 13 14  2  0
 16 15  1  0
 17 16  1  1
 18 17  1  0
 18 13  1  0
 19 20  1  0
 19 17  1  0
 21 19  2  0
M  END
$$$$
