EME.pdb
     RDKit          3D

 27 26  0  0  1  0  0  0  0  0999 V2000
    6.7693  -16.0436   20.1259 N   0  0  0  0  0  0  0  0  0  0  0  0
    8.2067  -15.9887   20.2134 C   0  0  1  0  0  0  0  0  0  0  0  0
    8.8111  -15.2121   19.0814 C   0  0  0  0  0  0  0  0  0  0  0  0
    7.8086  -14.3085   18.4325 C   0  0  0  0  0  0  0  0  0  0  0  0
    8.0791  -14.2131   16.9813 C   0  0  0  0  0  0  0  0  0  0  0  0
    8.1549  -15.2035   16.2007 O   0  0  0  0  0  0  0  0  0  0  0  0
    8.6534  -15.3452   21.4789 C   0  0  0  0  0  0  0  0  0  0  0  0
    9.8614  -15.0524   21.5993 O   0  0  0  0  0  0  0  0  0  0  0  0
    8.2658  -12.9459   16.4300 O   0  0  0  0  0  0  0  0  0  0  0  0
    6.8746  -10.9072   27.2210 C   0  0  0  0  0  0  0  0  0  0  0  0
    6.3659  -12.6042   26.9267 S   0  0  0  0  0  0  0  0  0  0  0  0
    7.5791  -13.5785   26.0302 C   0  0  0  0  0  0  0  0  0  0  0  0
    7.1227  -13.8742   24.6040 C   0  0  0  0  0  0  0  0  0  0  0  0
    8.1464  -14.6647   23.8669 C   0  0  2  0  0  0  0  0  0  0  0  0
    7.7665  -15.0538   22.5462 N   0  0  0  0  0  0  0  0  0  0  0  0
    8.6292  -15.8551   24.6274 C   0  0  0  0  0  0  0  0  0  0  0  0
    7.9711  -16.9174   24.4872 O   0  0  0  0  0  0  0  0  0  0  0  0
    9.7516  -15.8310   25.4645 N   0  0  0  0  0  0  0  0  0  0  0  0
   10.6052  -17.0310   25.5607 C   0  0  1  0  0  0  0  0  0  0  0  0
   11.6928  -16.9623   24.5654 C   0  0  0  0  0  0  0  0  0  0  0  0
   12.6399  -18.1044   24.6237 C   0  0  0  0  0  0  0  0  0  0  0  0
   14.0607  -17.7143   24.5390 C   0  0  0  0  0  0  0  0  0  0  0  0
   14.4618  -16.7657   25.2791 O   0  0  0  0  0  0  0  0  0  0  0  0
   10.8797  -17.3845   26.9411 C   0  0  0  0  0  0  0  0  0  0  0  0
   11.1583  -18.5434   27.3306 O   0  0  0  0  0  0  0  0  0  0  0  0
   14.9674  -18.3274   23.6990 O   0  0  0  0  0  0  0  0  0  0  0  0
   10.8474  -16.4107   27.9623 O   0  0  0  0  0  0  0  0  0  0  0  0
  2  1  1  6
  2  3  1  0
  4  5  1  0
  4  3  1  0
  5  6  2  0
  7  2  1  0
  8  7  2  0
  9  5  1  0
 11 12  1  0
 11 10  1  0
 12 13  1  0
 14 13  1  1
 14 16  1  0
 14 15  1  0
 15  7  1  0
 16 17  2  0
 18 16  1  0
 19 18  1  0
 19 20  1  6
 21 20  1  0
 22 21  1  0
 23 22  2  0
 24 27  1  0
 24 19  1  0
 25 24  2  0
 26 22  1  0
M  END
$$$$
