EME.pdb
     RDKit          3D

 27 26  0  0  1  0  0  0  0  0999 V2000
    7.6078  -14.2222   19.2393 N   0  0  0  0  0  0  0  0  0  0  0  0
    7.1591  -15.1323   20.2626 C   0  0  1  0  0  0  0  0  0  0  0  0
    7.3651  -16.5657   19.8719 C   0  0  0  0  0  0  0  0  0  0  0  0
    7.9941  -16.6857   18.5182 C   0  0  0  0  0  0  0  0  0  0  0  0
    7.8552  -18.0707   18.0174 C   0  0  0  0  0  0  0  0  0  0  0  0
    8.2654  -18.4689   16.8908 O   0  0  0  0  0  0  0  0  0  0  0  0
    7.8843  -14.9150   21.5440 C   0  0  0  0  0  0  0  0  0  0  0  0
    9.1033  -15.1829   21.5867 O   0  0  0  0  0  0  0  0  0  0  0  0
    7.2281  -19.0064   18.8393 O   0  0  0  0  0  0  0  0  0  0  0  0
    6.4365  -10.6864   27.0057 C   0  0  0  0  0  0  0  0  0  0  0  0
    6.8082  -12.3769   27.4840 S   0  0  0  0  0  0  0  0  0  0  0  0
    7.7964  -13.2695   26.2792 C   0  0  0  0  0  0  0  0  0  0  0  0
    7.0326  -13.4918   24.9765 C   0  0  0  0  0  0  0  0  0  0  0  0
    7.8744  -14.2044   23.9767 C   0  0  2  0  0  0  0  0  0  0  0  0
    7.2490  -14.4189   22.7107 N   0  0  0  0  0  0  0  0  0  0  0  0
    8.4351  -15.4893   24.4898 C   0  0  0  0  0  0  0  0  0  0  0  0
    7.6936  -16.5012   24.4036 O   0  0  0  0  0  0  0  0  0  0  0  0
    9.7153  -15.6034   25.0460 N   0  0  0  0  0  0  0  0  0  0  0  0
   10.2333  -16.9406   25.3947 C   0  0  1  0  0  0  0  0  0  0  0  0
   11.3421  -17.3073   24.4923 C   0  0  0  0  0  0  0  0  0  0  0  0
   12.6897  -17.1618   25.0987 C   0  0  0  0  0  0  0  0  0  0  0  0
   13.7865  -17.0708   24.1156 C   0  0  0  0  0  0  0  0  0  0  0  0
   13.5079  -16.6532   22.9510 O   0  0  0  0  0  0  0  0  0  0  0  0
   10.3539  -17.1112   26.8307 C   0  0  0  0  0  0  0  0  0  0  0  0
   10.1909  -16.1910   27.6667 O   0  0  0  0  0  0  0  0  0  0  0  0
   15.0916  -17.4162   24.4003 O   0  0  0  0  0  0  0  0  0  0  0  0
   10.6736  -18.3669   27.3903 O   0  0  0  0  0  0  0  0  0  0  0  0
  2  1  1  6
  2  3  1  0
  4  5  1  0
  4  3  1  0
  5  6  2  0
  7  2  1  0
  8  7  2  0
  9  5  1  0
 11 12  1  0
 11 10  1  0
 12 13  1  0
 14 13  1  1
 14 16  1  0
 14 15  1  0
 15  7  1  0
 16 17  2  0
 18 16  1  0
 19 18  1  0
 19 20  1  6
 21 20  1  0
 22 21  1  0
 23 22  2  0
 24 27  1  0
 24 19  1  0
 25 24  2  0
 26 22  1  0
M  END
$$$$
