EME.pdb
     RDKit          3D

 27 26  0  0  1  0  0  0  0  0999 V2000
    8.6828  -15.3735   19.3543 N   0  0  0  0  0  0  0  0  0  0  0  0
    7.8754  -15.8243   20.4596 C   0  0  1  0  0  0  0  0  0  0  0  0
    7.7661  -17.3196   20.5046 C   0  0  0  0  0  0  0  0  0  0  0  0
    9.0778  -17.9798   20.2112 C   0  0  0  0  0  0  0  0  0  0  0  0
    8.9161  -19.4502   20.2170 C   0  0  0  0  0  0  0  0  0  0  0  0
    8.4497  -20.1227   19.2546 O   0  0  0  0  0  0  0  0  0  0  0  0
    8.4391  -15.3829   21.7644 C   0  0  0  0  0  0  0  0  0  0  0  0
    9.6747  -15.2233   21.8514 O   0  0  0  0  0  0  0  0  0  0  0  0
    9.3013  -20.1486   21.3607 O   0  0  0  0  0  0  0  0  0  0  0  0
    5.5618  -11.1503   26.4414 C   0  0  0  0  0  0  0  0  0  0  0  0
    6.3115  -12.5716   27.2432 S   0  0  0  0  0  0  0  0  0  0  0  0
    7.5806  -13.3730   26.2573 C   0  0  0  0  0  0  0  0  0  0  0  0
    7.0177  -13.9160   24.9465 C   0  0  0  0  0  0  0  0  0  0  0  0
    8.0800  -14.5775   24.1404 C   0  0  2  0  0  0  0  0  0  0  0  0
    7.6331  -15.1384   22.9052 N   0  0  0  0  0  0  0  0  0  0  0  0
    8.8528  -15.5967   24.9102 C   0  0  0  0  0  0  0  0  0  0  0  0
    8.2857  -16.7013   25.1086 O   0  0  0  0  0  0  0  0  0  0  0  0
   10.1442  -15.3729   25.4036 N   0  0  0  0  0  0  0  0  0  0  0  0
   10.8537  -16.4696   26.0905 C   0  0  1  0  0  0  0  0  0  0  0  0
   12.2800  -16.4686   25.7108 C   0  0  0  0  0  0  0  0  0  0  0  0
   12.5165  -16.4203   24.2457 C   0  0  0  0  0  0  0  0  0  0  0  0
   13.9421  -16.4307   23.8646 C   0  0  0  0  0  0  0  0  0  0  0  0
   14.7923  -16.0678   24.7329 O   0  0  0  0  0  0  0  0  0  0  0  0
   10.4529  -16.5798   27.4807 C   0  0  0  0  0  0  0  0  0  0  0  0
    9.7158  -15.7542   28.0701 O   0  0  0  0  0  0  0  0  0  0  0  0
   14.3916  -16.8133   22.6175 O   0  0  0  0  0  0  0  0  0  0  0  0
   10.8850  -17.6603   28.2795 O   0  0  0  0  0  0  0  0  0  0  0  0
  2  1  1  6
  2  3  1  0
  4  5  1  0
  4  3  1  0
  5  6  2  0
  7  2  1  0
  8  7  2  0
  9  5  1  0
 11 12  1  0
 11 10  1  0
 12 13  1  0
 14 13  1  1
 14 16  1  0
 14 15  1  0
 15  7  1  0
 16 17  2  0
 18 16  1  0
 19 18  1  0
 19 20  1  1
 21 20  1  0
 22 21  1  0
 23 22  2  0
 24 27  1  0
 24 19  1  0
 25 24  2  0
 26 22  1  0
M  END
$$$$
