EME.pdb
     RDKit          3D

 27 26  0  0  1  0  0  0  0  0999 V2000
    8.3785  -17.4545   20.3858 N   0  0  0  0  0  0  0  0  0  0  0  0
    9.6691  -16.9085   20.7215 C   0  0  1  0  0  0  0  0  0  0  0  0
   10.1895  -15.9938   19.6526 C   0  0  0  0  0  0  0  0  0  0  0  0
   10.9491  -16.7446   18.6029 C   0  0  0  0  0  0  0  0  0  0  0  0
   10.0179  -17.5547   17.7876 C   0  0  0  0  0  0  0  0  0  0  0  0
    9.9496  -18.8158   17.8202 O   0  0  0  0  0  0  0  0  0  0  0  0
    9.6198  -16.1264   21.9868 C   0  0  0  0  0  0  0  0  0  0  0  0
   10.6777  -15.6120   22.4060 O   0  0  0  0  0  0  0  0  0  0  0  0
    9.1540  -16.8876   16.9199 O   0  0  0  0  0  0  0  0  0  0  0  0
    7.1595  -11.6048   27.1967 C   0  0  0  0  0  0  0  0  0  0  0  0
    7.3471  -12.4907   25.6459 S   0  0  0  0  0  0  0  0  0  0  0  0
    6.9063  -14.2286   25.7471 C   0  0  0  0  0  0  0  0  0  0  0  0
    6.9299  -14.8974   24.3753 C   0  0  0  0  0  0  0  0  0  0  0  0
    8.3169  -15.2724   23.9858 C   0  0  2  0  0  0  0  0  0  0  0  0
    8.4260  -15.9439   22.7300 N   0  0  0  0  0  0  0  0  0  0  0  0
    9.0337  -16.0489   25.0403 C   0  0  0  0  0  0  0  0  0  0  0  0
    8.5144  -17.1407   25.3860 O   0  0  0  0  0  0  0  0  0  0  0  0
   10.2242  -15.6181   25.6387 N   0  0  0  0  0  0  0  0  0  0  0  0
   10.8854  -16.4841   26.6342 C   0  0  1  0  0  0  0  0  0  0  0  0
   12.3505  -16.4254   26.4656 C   0  0  0  0  0  0  0  0  0  0  0  0
   12.8218  -16.8343   25.1183 C   0  0  0  0  0  0  0  0  0  0  0  0
   14.2878  -16.7921   24.9540 C   0  0  0  0  0  0  0  0  0  0  0  0
   14.7801  -15.8624   24.2458 O   0  0  0  0  0  0  0  0  0  0  0  0
   10.2805  -16.3513   27.9465 C   0  0  0  0  0  0  0  0  0  0  0  0
    9.5073  -15.4207   28.2761 O   0  0  0  0  0  0  0  0  0  0  0  0
   15.1428  -17.7094   25.5296 O   0  0  0  0  0  0  0  0  0  0  0  0
   10.5364  -17.2944   28.9649 O   0  0  0  0  0  0  0  0  0  0  0  0
  2  1  1  6
  2  3  1  0
  4  5  1  0
  4  3  1  0
  5  6  2  0
  7  2  1  0
  8  7  2  0
  9  5  1  0
 11 12  1  0
 11 10  1  0
 12 13  1  0
 14 13  1  1
 14 16  1  0
 14 15  1  0
 15  7  1  0
 16 17  2  0
 18 16  1  0
 19 18  1  0
 19 20  1  1
 21 20  1  0
 22 21  1  0
 23 22  2  0
 24 27  1  0
 24 19  1  0
 25 24  2  0
 26 22  1  0
M  END
$$$$
