EME.pdb
     RDKit          3D

 27 26  0  0  1  0  0  0  0  0999 V2000
    6.9741  -17.6947   20.7502 N   0  0  0  0  0  0  0  0  0  0  0  0
    8.4042  -17.5212   20.7901 C   0  0  1  0  0  0  0  0  0  0  0  0
    8.9487  -17.0278   19.4825 C   0  0  0  0  0  0  0  0  0  0  0  0
    7.8655  -16.8474   18.4643 C   0  0  0  0  0  0  0  0  0  0  0  0
    8.4599  -16.6112   17.1305 C   0  0  0  0  0  0  0  0  0  0  0  0
    8.3543  -17.4007   16.1499 O   0  0  0  0  0  0  0  0  0  0  0  0
    8.8072  -16.5407   21.8348 C   0  0  0  0  0  0  0  0  0  0  0  0
   10.0072  -16.2003   21.8951 O   0  0  0  0  0  0  0  0  0  0  0  0
    9.1898  -15.4393   16.9350 O   0  0  0  0  0  0  0  0  0  0  0  0
    6.7451  -11.2111   27.4073 C   0  0  0  0  0  0  0  0  0  0  0  0
    6.2441  -12.3406   26.1041 S   0  0  0  0  0  0  0  0  0  0  0  0
    7.5782  -13.3732   25.4886 C   0  0  0  0  0  0  0  0  0  0  0  0
    7.1203  -14.2554   24.3302 C   0  0  0  0  0  0  0  0  0  0  0  0
    8.2199  -15.1459   23.8677 C   0  0  2  0  0  0  0  0  0  0  0  0
    7.8876  -15.9819   22.7583 N   0  0  0  0  0  0  0  0  0  0  0  0
    8.8100  -15.9691   24.9644 C   0  0  0  0  0  0  0  0  0  0  0  0
    8.1867  -17.0141   25.2815 O   0  0  0  0  0  0  0  0  0  0  0  0
    9.9937  -15.6291   25.6310 N   0  0  0  0  0  0  0  0  0  0  0  0
   10.6740  -16.6460   26.4563 C   0  0  1  0  0  0  0  0  0  0  0  0
   12.0368  -16.8880   25.9438 C   0  0  0  0  0  0  0  0  0  0  0  0
   12.8111  -17.8826   26.7285 C   0  0  0  0  0  0  0  0  0  0  0  0
   14.1828  -18.1062   26.2323 C   0  0  0  0  0  0  0  0  0  0  0  0
   14.3369  -18.8785   25.2381 O   0  0  0  0  0  0  0  0  0  0  0  0
   10.4373  -16.4336   27.8721 C   0  0  0  0  0  0  0  0  0  0  0  0
    9.9263  -15.3949   28.3540 O   0  0  0  0  0  0  0  0  0  0  0  0
   15.2982  -17.5198   26.7941 O   0  0  0  0  0  0  0  0  0  0  0  0
   10.7811  -17.4180   28.8235 O   0  0  0  0  0  0  0  0  0  0  0  0
  2  1  1  6
  2  3  1  0
  4  5  1  0
  4  3  1  0
  5  6  2  0
  7  2  1  0
  8  7  2  0
  9  5  1  0
 11 12  1  0
 11 10  1  0
 12 13  1  0
 14 13  1  1
 14 16  1  0
 14 15  1  0
 15  7  1  0
 16 17  2  0
 18 16  1  0
 19 18  1  0
 19 20  1  1
 21 20  1  0
 22 21  1  0
 23 22  2  0
 24 27  1  0
 24 19  1  0
 25 24  2  0
 26 22  1  0
M  END
$$$$
