EME.pdb
     RDKit          3D

 27 26  0  0  1  0  0  0  0  0999 V2000
    8.0902  -16.5661   20.1823 N   0  0  0  0  0  0  0  0  0  0  0  0
    8.4813  -17.2813   21.3708 C   0  0  1  0  0  0  0  0  0  0  0  0
    9.6248  -18.2176   21.1145 C   0  0  0  0  0  0  0  0  0  0  0  0
    9.2289  -19.3390   20.2044 C   0  0  0  0  0  0  0  0  0  0  0  0
    9.3848  -18.9237   18.7932 C   0  0  0  0  0  0  0  0  0  0  0  0
   10.4376  -18.4227   18.3068 O   0  0  0  0  0  0  0  0  0  0  0  0
    8.9051  -16.3522   22.4535 C   0  0  0  0  0  0  0  0  0  0  0  0
   10.0898  -15.9574   22.4643 O   0  0  0  0  0  0  0  0  0  0  0  0
    8.2988  -19.0925   17.9352 O   0  0  0  0  0  0  0  0  0  0  0  0
    6.1362  -10.7323   26.0601 C   0  0  0  0  0  0  0  0  0  0  0  0
    6.2452  -12.3477   26.8370 S   0  0  0  0  0  0  0  0  0  0  0  0
    7.6096  -13.3491   26.2367 C   0  0  0  0  0  0  0  0  0  0  0  0
    7.1762  -14.2688   25.0982 C   0  0  0  0  0  0  0  0  0  0  0  0
    8.3444  -14.9774   24.5074 C   0  0  2  0  0  0  0  0  0  0  0  0
    8.0217  -15.9010   23.4669 N   0  0  0  0  0  0  0  0  0  0  0  0
    9.2050  -15.6443   25.5289 C   0  0  0  0  0  0  0  0  0  0  0  0
    8.7800  -16.7294   26.0011 O   0  0  0  0  0  0  0  0  0  0  0  0
   10.4282  -15.1208   25.9657 N   0  0  0  0  0  0  0  0  0  0  0  0
   11.2065  -15.8574   26.9805 C   0  0  1  0  0  0  0  0  0  0  0  0
   12.6518  -15.6701   26.7472 C   0  0  0  0  0  0  0  0  0  0  0  0
   13.2778  -16.7428   25.9336 C   0  0  0  0  0  0  0  0  0  0  0  0
   14.7206  -16.5508   25.6904 C   0  0  0  0  0  0  0  0  0  0  0  0
   15.0669  -15.7641   24.7578 O   0  0  0  0  0  0  0  0  0  0  0  0
   10.6397  -15.7025   28.3073 C   0  0  0  0  0  0  0  0  0  0  0  0
   10.0197  -14.6840   28.6953 O   0  0  0  0  0  0  0  0  0  0  0  0
   15.7044  -17.1818   26.4236 O   0  0  0  0  0  0  0  0  0  0  0  0
   10.7579  -16.7249   29.2733 O   0  0  0  0  0  0  0  0  0  0  0  0
  2  1  1  6
  2  3  1  0
  4  5  1  0
  4  3  1  0
  5  6  2  0
  7  2  1  0
  8  7  2  0
  9  5  1  0
 11 12  1  0
 11 10  1  0
 12 13  1  0
 14 13  1  1
 14 16  1  0
 14 15  1  0
 15  7  1  0
 16 17  2  0
 18 16  1  0
 19 18  1  0
 19 20  1  1
 21 20  1  0
 22 21  1  0
 23 22  2  0
 24 27  1  0
 24 19  1  0
 25 24  2  0
 26 22  1  0
M  END
$$$$
