EME.pdb
     RDKit          3D

 27 26  0  0  1  0  0  0  0  0999 V2000
    7.1192  -16.6806   20.2586 N   0  0  0  0  0  0  0  0  0  0  0  0
    8.5177  -16.9618   20.4636 C   0  0  1  0  0  0  0  0  0  0  0  0
    9.3517  -16.5641   19.2820 C   0  0  0  0  0  0  0  0  0  0  0  0
   10.7749  -17.0037   19.4357 C   0  0  0  0  0  0  0  0  0  0  0  0
   11.4948  -16.8428   18.1534 C   0  0  0  0  0  0  0  0  0  0  0  0
   11.9163  -17.7996   17.4443 O   0  0  0  0  0  0  0  0  0  0  0  0
    9.0538  -16.2358   21.6472 C   0  0  0  0  0  0  0  0  0  0  0  0
   10.2808  -16.2954   21.8718 O   0  0  0  0  0  0  0  0  0  0  0  0
   11.7293  -15.5488   17.6899 O   0  0  0  0  0  0  0  0  0  0  0  0
    5.5085  -12.4604   26.4176 C   0  0  0  0  0  0  0  0  0  0  0  0
    7.1937  -11.8968   26.1582 S   0  0  0  0  0  0  0  0  0  0  0  0
    8.2918  -13.1669   25.5210 C   0  0  0  0  0  0  0  0  0  0  0  0
    7.7532  -13.7839   24.2329 C   0  0  0  0  0  0  0  0  0  0  0  0
    8.6515  -14.8634   23.7394 C   0  0  2  0  0  0  0  0  0  0  0  0
    8.2308  -15.4843   22.5239 N   0  0  0  0  0  0  0  0  0  0  0  0
    8.9379  -15.9059   24.7689 C   0  0  0  0  0  0  0  0  0  0  0  0
    8.0564  -16.7864   24.9387 O   0  0  0  0  0  0  0  0  0  0  0  0
   10.1145  -15.9363   25.5277 N   0  0  0  0  0  0  0  0  0  0  0  0
   10.4996  -17.1863   26.2113 C   0  0  1  0  0  0  0  0  0  0  0  0
   11.6324  -17.8210   25.5097 C   0  0  0  0  0  0  0  0  0  0  0  0
   12.1039  -19.0813   26.1375 C   0  0  0  0  0  0  0  0  0  0  0  0
   13.2870  -19.6742   25.4844 C   0  0  0  0  0  0  0  0  0  0  0  0
   13.5547  -19.3134   24.2984 O   0  0  0  0  0  0  0  0  0  0  0  0
   10.5113  -17.0271   27.6535 C   0  0  0  0  0  0  0  0  0  0  0  0
   10.7526  -17.9533   28.4637 O   0  0  0  0  0  0  0  0  0  0  0  0
   14.1102  -20.5961   26.0976 O   0  0  0  0  0  0  0  0  0  0  0  0
   10.2418  -15.7767   28.2502 O   0  0  0  0  0  0  0  0  0  0  0  0
  2  1  1  6
  2  3  1  0
  4  5  1  0
  4  3  1  0
  5  6  2  0
  7  2  1  0
  8  7  2  0
  9  5  1  0
 11 12  1  0
 11 10  1  0
 12 13  1  0
 14 13  1  1
 14 16  1  0
 14 15  1  0
 15  7  1  0
 16 17  2  0
 18 16  1  0
 19 18  1  0
 19 20  1  6
 21 20  1  0
 22 21  1  0
 23 22  2  0
 24 27  1  0
 24 19  1  0
 25 24  2  0
 26 22  1  0
M  END
$$$$
