EME.pdb
     RDKit          3D

 27 26  0  0  1  0  0  0  0  0999 V2000
    9.4662  -16.1464   19.5061 N   0  0  0  0  0  0  0  0  0  0  0  0
    9.0546  -17.0009   20.5910 C   0  0  1  0  0  0  0  0  0  0  0  0
    9.7761  -18.3159   20.5776 C   0  0  0  0  0  0  0  0  0  0  0  0
    9.6162  -19.0219   19.2667 C   0  0  0  0  0  0  0  0  0  0  0  0
   10.3388  -20.3124   19.2963 C   0  0  0  0  0  0  0  0  0  0  0  0
   10.9986  -20.7407   20.2848 O   0  0  0  0  0  0  0  0  0  0  0  0
    9.3127  -16.3687   21.9134 C   0  0  0  0  0  0  0  0  0  0  0  0
   10.4597  -16.4599   22.3989 O   0  0  0  0  0  0  0  0  0  0  0  0
   10.2945  -21.1160   18.1577 O   0  0  0  0  0  0  0  0  0  0  0  0
    6.9732  -11.1479   27.4713 C   0  0  0  0  0  0  0  0  0  0  0  0
    6.5793  -12.0702   25.9816 S   0  0  0  0  0  0  0  0  0  0  0  0
    7.7801  -13.3436   25.5799 C   0  0  0  0  0  0  0  0  0  0  0  0
    7.4828  -13.9942   24.2315 C   0  0  0  0  0  0  0  0  0  0  0  0
    8.4866  -15.0456   23.9108 C   0  0  2  0  0  0  0  0  0  0  0  0
    8.3135  -15.6715   22.6387 N   0  0  0  0  0  0  0  0  0  0  0  0
    8.6091  -16.0851   24.9753 C   0  0  0  0  0  0  0  0  0  0  0  0
    7.8464  -17.0802   24.8805 O   0  0  0  0  0  0  0  0  0  0  0  0
    9.5132  -15.9935   26.0408 N   0  0  0  0  0  0  0  0  0  0  0  0
   10.1098  -17.2274   26.5882 C   0  0  1  0  0  0  0  0  0  0  0  0
   11.1400  -17.7458   25.6671 C   0  0  0  0  0  0  0  0  0  0  0  0
   11.7931  -18.9960   26.1310 C   0  0  0  0  0  0  0  0  0  0  0  0
   12.8778  -19.4719   25.2508 C   0  0  0  0  0  0  0  0  0  0  0  0
   13.3500  -20.6299   25.4620 O   0  0  0  0  0  0  0  0  0  0  0  0
   10.3729  -17.1106   28.0105 C   0  0  0  0  0  0  0  0  0  0  0  0
   10.5647  -18.0859   28.7749 O   0  0  0  0  0  0  0  0  0  0  0  0
   13.3997  -18.7229   24.2163 O   0  0  0  0  0  0  0  0  0  0  0  0
   10.4295  -15.8482   28.6391 O   0  0  0  0  0  0  0  0  0  0  0  0
  2  1  1  6
  2  3  1  0
  4  5  1  0
  4  3  1  0
  5  6  2  0
  7  2  1  0
  8  7  2  0
  9  5  1  0
 11 12  1  0
 11 10  1  0
 12 13  1  0
 14 13  1  1
 14 16  1  0
 14 15  1  0
 15  7  1  0
 16 17  2  0
 18 16  1  0
 19 18  1  0
 19 20  1  6
 21 20  1  0
 22 21  1  0
 23 22  2  0
 24 27  1  0
 24 19  1  0
 25 24  2  0
 26 22  1  0
M  END
$$$$
