EME.pdb
     RDKit          3D

 27 26  0  0  1  0  0  0  0  0999 V2000
    8.0725  -15.5773   18.9512 N   0  0  0  0  0  0  0  0  0  0  0  0
    7.9554  -16.4009   20.1280 C   0  0  1  0  0  0  0  0  0  0  0  0
    8.7153  -17.6871   19.9936 C   0  0  0  0  0  0  0  0  0  0  0  0
    8.2329  -18.4963   18.8296 C   0  0  0  0  0  0  0  0  0  0  0  0
    8.9244  -19.8037   18.8017 C   0  0  0  0  0  0  0  0  0  0  0  0
    9.8026  -20.1667   19.6342 O   0  0  0  0  0  0  0  0  0  0  0  0
    8.4749  -15.7049   21.3366 C   0  0  0  0  0  0  0  0  0  0  0  0
    9.6557  -15.2987   21.3236 O   0  0  0  0  0  0  0  0  0  0  0  0
    8.5901  -20.7019   17.7889 O   0  0  0  0  0  0  0  0  0  0  0  0
    6.4046  -11.1421   26.7186 C   0  0  0  0  0  0  0  0  0  0  0  0
    6.3213  -12.9327   26.8271 S   0  0  0  0  0  0  0  0  0  0  0  0
    7.5865  -13.7755   25.8712 C   0  0  0  0  0  0  0  0  0  0  0  0
    7.0401  -14.2906   24.5423 C   0  0  0  0  0  0  0  0  0  0  0  0
    8.1273  -14.8625   23.7014 C   0  0  2  0  0  0  0  0  0  0  0  0
    7.6863  -15.4866   22.4947 N   0  0  0  0  0  0  0  0  0  0  0  0
    9.0255  -15.7886   24.4526 C   0  0  0  0  0  0  0  0  0  0  0  0
    8.6006  -16.9573   24.6386 O   0  0  0  0  0  0  0  0  0  0  0  0
   10.2830  -15.4135   24.9418 N   0  0  0  0  0  0  0  0  0  0  0  0
   11.2027  -16.4547   25.4400 C   0  0  1  0  0  0  0  0  0  0  0  0
   12.5864  -16.1511   25.0258 C   0  0  0  0  0  0  0  0  0  0  0  0
   13.5913  -17.1333   25.5056 C   0  0  0  0  0  0  0  0  0  0  0  0
   14.9860  -16.7757   25.1819 C   0  0  0  0  0  0  0  0  0  0  0  0
   15.1936  -15.6827   24.5731 O   0  0  0  0  0  0  0  0  0  0  0  0
   10.8996  -16.8272   26.8093 C   0  0  0  0  0  0  0  0  0  0  0  0
   10.2595  -16.1067   27.6114 O   0  0  0  0  0  0  0  0  0  0  0  0
   16.0677  -17.5679   25.5073 O   0  0  0  0  0  0  0  0  0  0  0  0
   11.3231  -18.0657   27.3376 O   0  0  0  0  0  0  0  0  0  0  0  0
  2  1  1  6
  2  3  1  0
  4  5  1  0
  4  3  1  0
  5  6  2  0
  7  2  1  0
  8  7  2  0
  9  5  1  0
 11 12  1  0
 11 10  1  0
 12 13  1  0
 14 13  1  1
 14 16  1  0
 14 15  1  0
 15  7  1  0
 16 17  2  0
 18 16  1  0
 19 18  1  0
 19 20  1  1
 21 20  1  0
 22 21  1  0
 23 22  2  0
 24 27  1  0
 24 19  1  0
 25 24  2  0
 26 22  1  0
M  END
$$$$
