EME.pdb
     RDKit          3D

 27 26  0  0  1  0  0  0  0  0999 V2000
    7.7923  -17.4208   20.6346 N   0  0  0  0  0  0  0  0  0  0  0  0
    9.1544  -17.3341   21.0972 C   0  0  1  0  0  0  0  0  0  0  0  0
   10.1132  -17.0555   19.9778 C   0  0  0  0  0  0  0  0  0  0  0  0
   11.3949  -17.8115   20.1455 C   0  0  0  0  0  0  0  0  0  0  0  0
   11.8992  -18.2502   18.8258 C   0  0  0  0  0  0  0  0  0  0  0  0
   12.1357  -19.4511   18.5131 O   0  0  0  0  0  0  0  0  0  0  0  0
    9.3224  -16.2501   22.1031 C   0  0  0  0  0  0  0  0  0  0  0  0
   10.4795  -15.8599   22.3645 O   0  0  0  0  0  0  0  0  0  0  0  0
   12.1335  -17.2764   17.8557 O   0  0  0  0  0  0  0  0  0  0  0  0
    7.4199  -11.0725   27.3436 C   0  0  0  0  0  0  0  0  0  0  0  0
    7.1477  -11.8619   25.7538 S   0  0  0  0  0  0  0  0  0  0  0  0
    7.1813  -13.6562   25.8212 C   0  0  0  0  0  0  0  0  0  0  0  0
    7.0440  -14.2756   24.4329 C   0  0  0  0  0  0  0  0  0  0  0  0
    8.2675  -15.0388   24.0633 C   0  0  2  0  0  0  0  0  0  0  0  0
    8.2269  -15.6473   22.7718 N   0  0  0  0  0  0  0  0  0  0  0  0
    8.6612  -16.0501   25.0885 C   0  0  0  0  0  0  0  0  0  0  0  0
    8.0812  -17.1643   25.0317 O   0  0  0  0  0  0  0  0  0  0  0  0
    9.6215  -15.8091   26.0789 N   0  0  0  0  0  0  0  0  0  0  0  0
   10.3113  -16.9523   26.7076 C   0  0  1  0  0  0  0  0  0  0  0  0
   11.4505  -17.3803   25.8725 C   0  0  0  0  0  0  0  0  0  0  0  0
   12.2490  -18.4865   26.4585 C   0  0  0  0  0  0  0  0  0  0  0  0
   13.3845  -18.9195   25.6213 C   0  0  0  0  0  0  0  0  0  0  0  0
   13.8386  -20.0909   25.7952 O   0  0  0  0  0  0  0  0  0  0  0  0
   10.4653  -16.7649   28.1383 C   0  0  0  0  0  0  0  0  0  0  0  0
   10.7473  -17.6834   28.9439 O   0  0  0  0  0  0  0  0  0  0  0  0
   13.9721  -18.1169   24.6652 O   0  0  0  0  0  0  0  0  0  0  0  0
   10.3003  -15.4931   28.7278 O   0  0  0  0  0  0  0  0  0  0  0  0
  2  1  1  6
  2  3  1  0
  4  5  1  0
  4  3  1  0
  5  6  2  0
  7  2  1  0
  8  7  2  0
  9  5  1  0
 11 12  1  0
 11 10  1  0
 12 13  1  0
 14 13  1  1
 14 16  1  0
 14 15  1  0
 15  7  1  0
 16 17  2  0
 18 16  1  0
 19 18  1  0
 19 20  1  6
 21 20  1  0
 22 21  1  0
 23 22  2  0
 24 27  1  0
 24 19  1  0
 25 24  2  0
 26 22  1  0
M  END
$$$$
