EME.pdb
     RDKit          3D

 27 26  0  0  1  0  0  0  0  0999 V2000
    8.2310  -15.0791   19.2521 N   0  0  0  0  0  0  0  0  0  0  0  0
    7.4240  -15.5650   20.3428 C   0  0  1  0  0  0  0  0  0  0  0  0
    7.2211  -17.0497   20.2758 C   0  0  0  0  0  0  0  0  0  0  0  0
    8.3980  -17.7423   19.6613 C   0  0  0  0  0  0  0  0  0  0  0  0
    8.0993  -19.1793   19.4772 C   0  0  0  0  0  0  0  0  0  0  0  0
    7.3725  -19.6468   18.5556 O   0  0  0  0  0  0  0  0  0  0  0  0
    8.0465  -15.2631   21.6605 C   0  0  0  0  0  0  0  0  0  0  0  0
    9.2876  -15.3552   21.7635 O   0  0  0  0  0  0  0  0  0  0  0  0
    8.6533  -20.0861   20.3799 O   0  0  0  0  0  0  0  0  0  0  0  0
    5.8203  -11.3861   27.0296 C   0  0  0  0  0  0  0  0  0  0  0  0
    7.4599  -12.1013   26.8712 S   0  0  0  0  0  0  0  0  0  0  0  0
    7.4507  -13.8439   26.4371 C   0  0  0  0  0  0  0  0  0  0  0  0
    6.8112  -14.0817   25.0716 C   0  0  0  0  0  0  0  0  0  0  0  0
    7.8186  -14.5556   24.0834 C   0  0  2  0  0  0  0  0  0  0  0  0
    7.2899  -14.8776   22.7962 N   0  0  0  0  0  0  0  0  0  0  0  0
    8.6494  -15.6884   24.5886 C   0  0  0  0  0  0  0  0  0  0  0  0
    8.1468  -16.8377   24.5013 O   0  0  0  0  0  0  0  0  0  0  0  0
    9.9264  -15.5214   25.1387 N   0  0  0  0  0  0  0  0  0  0  0  0
   10.7333  -16.7138   25.4630 C   0  0  1  0  0  0  0  0  0  0  0  0
   12.0401  -16.6441   24.7807 C   0  0  0  0  0  0  0  0  0  0  0  0
   12.9278  -17.8029   25.0526 C   0  0  0  0  0  0  0  0  0  0  0  0
   14.3454  -17.5684   24.7161 C   0  0  0  0  0  0  0  0  0  0  0  0
   14.6579  -17.4754   23.4904 O   0  0  0  0  0  0  0  0  0  0  0  0
   10.6450  -17.0544   26.8708 C   0  0  0  0  0  0  0  0  0  0  0  0
   11.1494  -18.0829   27.3808 O   0  0  0  0  0  0  0  0  0  0  0  0
   15.3405  -17.4468   25.6640 O   0  0  0  0  0  0  0  0  0  0  0  0
    9.9617  -16.2191   27.7804 O   0  0  0  0  0  0  0  0  0  0  0  0
  2  1  1  6
  2  3  1  0
  4  5  1  0
  4  3  1  0
  5  6  2  0
  7  2  1  0
  8  7  2  0
  9  5  1  0
 11 12  1  0
 11 10  1  0
 12 13  1  0
 14 13  1  1
 14 16  1  0
 14 15  1  0
 15  7  1  0
 16 17  2  0
 18 16  1  0
 19 18  1  0
 19 20  1  1
 21 20  1  0
 22 21  1  0
 23 22  2  0
 24 27  1  0
 24 19  1  0
 25 24  2  0
 26 22  1  0
M  END
$$$$
