EME.pdb
     RDKit          3D

 27 26  0  0  1  0  0  0  0  0999 V2000
    7.5673  -17.5691   20.7970 N   0  0  0  0  0  0  0  0  0  0  0  0
    8.9685  -17.3518   21.0541 C   0  0  1  0  0  0  0  0  0  0  0  0
    9.6478  -16.6483   19.9167 C   0  0  0  0  0  0  0  0  0  0  0  0
    8.7414  -16.5060   18.7332 C   0  0  0  0  0  0  0  0  0  0  0  0
    9.4679  -15.8673   17.6141 C   0  0  0  0  0  0  0  0  0  0  0  0
   10.6754  -15.4988   17.6623 O   0  0  0  0  0  0  0  0  0  0  0  0
    9.1790  -16.5251   22.2738 C   0  0  0  0  0  0  0  0  0  0  0  0
   10.3068  -16.0224   22.4603 O   0  0  0  0  0  0  0  0  0  0  0  0
    8.7787  -15.6526   16.4212 O   0  0  0  0  0  0  0  0  0  0  0  0
    6.9904  -10.8739   25.5215 C   0  0  0  0  0  0  0  0  0  0  0  0
    7.2902  -12.5802   25.9943 S   0  0  0  0  0  0  0  0  0  0  0  0
    6.8896  -13.7686   24.7088 C   0  0  0  0  0  0  0  0  0  0  0  0
    7.1225  -15.2034   25.1746 C   0  0  0  0  0  0  0  0  0  0  0  0
    8.3436  -15.7789   24.5471 C   0  0  2  0  0  0  0  0  0  0  0  0
    8.1554  -16.2879   23.2259 N   0  0  0  0  0  0  0  0  0  0  0  0
    9.0114  -16.8085   25.3971 C   0  0  0  0  0  0  0  0  0  0  0  0
    8.3297  -17.8229   25.6925 O   0  0  0  0  0  0  0  0  0  0  0  0
   10.3268  -16.6879   25.8623 N   0  0  0  0  0  0  0  0  0  0  0  0
   10.9167  -17.7877   26.6499 C   0  0  1  0  0  0  0  0  0  0  0  0
   12.3123  -18.0216   26.2304 C   0  0  0  0  0  0  0  0  0  0  0  0
   12.4927  -19.2153   25.3659 C   0  0  0  0  0  0  0  0  0  0  0  0
   13.8789  -19.4204   24.9029 C   0  0  0  0  0  0  0  0  0  0  0  0
   14.7558  -18.5763   25.2595 O   0  0  0  0  0  0  0  0  0  0  0  0
   10.5678  -17.6883   28.0549 C   0  0  0  0  0  0  0  0  0  0  0  0
    9.9240  -16.7363   28.5564 O   0  0  0  0  0  0  0  0  0  0  0  0
   14.2642  -20.4787   24.1061 O   0  0  0  0  0  0  0  0  0  0  0  0
   10.9466  -18.6922   28.9719 O   0  0  0  0  0  0  0  0  0  0  0  0
  2  1  1  6
  2  3  1  0
  4  5  1  0
  4  3  1  0
  5  6  2  0
  7  2  1  0
  8  7  2  0
  9  5  1  0
 11 12  1  0
 11 10  1  0
 12 13  1  0
 14 13  1  1
 14 16  1  0
 14 15  1  0
 15  7  1  0
 16 17  2  0
 18 16  1  0
 19 18  1  0
 19 20  1  1
 21 20  1  0
 22 21  1  0
 23 22  2  0
 24 27  1  0
 24 19  1  0
 25 24  2  0
 26 22  1  0
M  END
$$$$
