EME.pdb
     RDKit          3D

 27 26  0  0  1  0  0  0  0  0999 V2000
    8.0451  -13.3144   19.0509 N   0  0  0  0  0  0  0  0  0  0  0  0
    7.2566  -14.1067   19.9604 C   0  0  1  0  0  0  0  0  0  0  0  0
    7.1362  -15.5317   19.5079 C   0  0  0  0  0  0  0  0  0  0  0  0
    8.0465  -15.8254   18.3557 C   0  0  0  0  0  0  0  0  0  0  0  0
    8.7305  -17.1196   18.5692 C   0  0  0  0  0  0  0  0  0  0  0  0
    8.1944  -18.2500   18.3935 O   0  0  0  0  0  0  0  0  0  0  0  0
    7.8499  -14.1251   21.3253 C   0  0  0  0  0  0  0  0  0  0  0  0
    9.0841  -13.9702   21.4359 O   0  0  0  0  0  0  0  0  0  0  0  0
   10.0580  -17.0982   18.9951 O   0  0  0  0  0  0  0  0  0  0  0  0
    8.1259  -11.8936   28.2978 C   0  0  0  0  0  0  0  0  0  0  0  0
    7.3248  -12.1210   26.7067 S   0  0  0  0  0  0  0  0  0  0  0  0
    7.0841  -13.8428   26.2570 C   0  0  0  0  0  0  0  0  0  0  0  0
    6.4841  -13.9825   24.8604 C   0  0  0  0  0  0  0  0  0  0  0  0
    7.5462  -14.1996   23.8402 C   0  0  2  0  0  0  0  0  0  0  0  0
    7.0733  -14.3107   22.4971 N   0  0  0  0  0  0  0  0  0  0  0  0
    8.4413  -15.3507   24.1598 C   0  0  0  0  0  0  0  0  0  0  0  0
    7.9918  -16.4988   23.9129 O   0  0  0  0  0  0  0  0  0  0  0  0
    9.7216  -15.2019   24.7074 N   0  0  0  0  0  0  0  0  0  0  0  0
   10.5674  -16.3961   24.8984 C   0  0  1  0  0  0  0  0  0  0  0  0
   11.9088  -16.1655   24.3275 C   0  0  0  0  0  0  0  0  0  0  0  0
   12.8613  -17.2829   24.5487 C   0  0  0  0  0  0  0  0  0  0  0  0
   14.2426  -16.9915   24.1191 C   0  0  0  0  0  0  0  0  0  0  0  0
   14.4370  -15.9675   23.3965 O   0  0  0  0  0  0  0  0  0  0  0  0
   10.4097  -16.9580   26.2270 C   0  0  0  0  0  0  0  0  0  0  0  0
    9.9394  -16.3322   27.2065 O   0  0  0  0  0  0  0  0  0  0  0  0
   15.3256  -17.7742   24.4629 O   0  0  0  0  0  0  0  0  0  0  0  0
   10.7905  -18.2884   26.5047 O   0  0  0  0  0  0  0  0  0  0  0  0
  2  1  1  6
  2  3  1  0
  4  5  1  0
  4  3  1  0
  5  6  2  0
  7  2  1  0
  8  7  2  0
  9  5  1  0
 11 12  1  0
 11 10  1  0
 12 13  1  0
 14 13  1  1
 14 16  1  0
 14 15  1  0
 15  7  1  0
 16 17  2  0
 18 16  1  0
 19 18  1  0
 19 20  1  1
 21 20  1  0
 22 21  1  0
 23 22  2  0
 24 27  1  0
 24 19  1  0
 25 24  2  0
 26 22  1  0
M  END
$$$$
