TST.pdb
     RDKit          3D

 21 20  0  0  1  0  0  0  0  0999 V2000
   16.5315  -11.5792  -15.3830 C   0  0  0  0  0  0  0  0  0  0  0  0
   17.7235  -11.8589  -16.2638 C   0  0  1  0  0  0  0  0  0  0  0  0
   17.4267  -12.7711  -17.2627 O   0  0  0  0  0  0  0  0  0  0  0  0
   18.1793  -10.5359  -16.8870 C   0  0  2  0  0  0  0  0  0  0  0  0
   19.1117  -10.8629  -17.9230 N   0  0  0  0  0  0  0  0  0  0  0  0
   18.8344   -9.7099  -15.8252 C   0  0  0  0  0  0  0  0  0  0  0  0
   18.2243   -9.3748  -14.7834 O   0  0  0  0  0  0  0  0  0  0  0  0
   23.2231   -8.7355  -14.1259 O   0  0  0  0  0  0  0  0  0  0  0  0
   22.3285   -9.3551  -15.0218 C   0  0  0  0  0  0  0  0  0  0  0  0
   20.9650   -8.6556  -14.9660 C   0  0  2  0  0  0  0  0  0  0  0  0
   20.1632   -9.3058  -16.0095 N   0  0  0  0  0  0  0  0  0  0  0  0
   21.0787   -7.2363  -15.3519 C   0  0  0  0  0  0  0  0  0  0  0  0
   21.2735   -6.8495  -16.5472 O   0  0  0  0  0  0  0  0  0  0  0  0
   18.7836   -4.5850  -15.5943 C   0  0  0  0  0  0  0  0  0  0  0  0
   19.8433   -4.0159  -14.6768 C   0  0  1  0  0  0  0  0  0  0  0  0
   19.3650   -4.1627  -13.3721 O   0  0  0  0  0  0  0  0  0  0  0  0
   21.1370   -4.7974  -14.7647 C   0  0  2  0  0  0  0  0  0  0  0  0
   20.9760   -6.1705  -14.3893 N   0  0  0  0  0  0  0  0  0  0  0  0
   22.1970   -4.1973  -13.9397 C   0  0  0  0  0  0  0  0  0  0  0  0
   22.6851   -4.8319  -12.9879 O   0  0  0  0  0  0  0  0  0  0  0  0
   22.6532   -2.9284  -14.2193 O   0  0  0  0  0  0  0  0  0  0  0  0
  2  1  1  6
  2  3  1  0
  2  4  1  0
  4  5  1  6
  6  4  1  0
  6 11  1  0
  7  6  2  0
  8  9  1  0
 10 11  1  0
 10  9  1  6
 10 12  1  0
 12 18  1  0
 13 12  2  0
 15 14  1  6
 15 17  1  0
 16 15  1  0
 17 19  1  0
 17 18  1  1
 19 20  2  0
 19 21  1  0
M  END
$$$$
