TST.pdb
     RDKit          3D

 21 20  0  0  1  0  0  0  0  0999 V2000
   18.2837  -10.6134  -19.3259 C   0  0  0  0  0  0  0  0  0  0  0  0
   18.4223   -9.7612  -18.0893 C   0  0  1  0  0  0  0  0  0  0  0  0
   17.1911   -9.4211  -17.5541 O   0  0  0  0  0  0  0  0  0  0  0  0
   19.2390  -10.5445  -17.0570 C   0  0  2  0  0  0  0  0  0  0  0  0
   18.4847  -11.7171  -16.7317 N   0  0  0  0  0  0  0  0  0  0  0  0
   19.4293   -9.6840  -15.8477 C   0  0  0  0  0  0  0  0  0  0  0  0
   18.7493   -9.8512  -14.8087 O   0  0  0  0  0  0  0  0  0  0  0  0
   22.3571   -7.7230  -12.9770 O   0  0  0  0  0  0  0  0  0  0  0  0
   21.8547   -8.5363  -14.0128 C   0  0  0  0  0  0  0  0  0  0  0  0
   20.7166   -7.8112  -14.7411 C   0  0  2  0  0  0  0  0  0  0  0  0
   20.3941   -8.6689  -15.8878 N   0  0  0  0  0  0  0  0  0  0  0  0
   21.1758   -6.5251  -15.2990 C   0  0  0  0  0  0  0  0  0  0  0  0
   21.9362   -6.4342  -16.3138 O   0  0  0  0  0  0  0  0  0  0  0  0
   18.9684   -3.5367  -16.3200 C   0  0  0  0  0  0  0  0  0  0  0  0
   20.0686   -3.0230  -15.4174 C   0  0  1  0  0  0  0  0  0  0  0  0
   19.5117   -2.8886  -14.1429 O   0  0  0  0  0  0  0  0  0  0  0  0
   21.2055   -4.0160  -15.3013 C   0  0  2  0  0  0  0  0  0  0  0  0
   20.7910   -5.2612  -14.7268 N   0  0  0  0  0  0  0  0  0  0  0  0
   22.3264   -3.4765  -14.5158 C   0  0  0  0  0  0  0  0  0  0  0  0
   22.6493   -4.0075  -13.4384 O   0  0  0  0  0  0  0  0  0  0  0  0
   23.0230   -2.3797  -14.9718 O   0  0  0  0  0  0  0  0  0  0  0  0
  2  1  1  6
  2  3  1  0
  2  4  1  0
  4  5  1  1
  6  4  1  0
  6 11  1  0
  7  6  2  0
  8  9  1  0
 10 11  1  0
 10  9  1  6
 10 12  1  0
 12 18  1  0
 13 12  2  0
 15 14  1  6
 15 17  1  0
 16 15  1  0
 17 19  1  0
 17 18  1  1
 19 20  2  0
 19 21  1  0
M  END
$$$$
