TST.pdb
     RDKit          3D

 21 20  0  0  1  0  0  0  0  0999 V2000
   17.9334   -8.3154  -17.9094 C   0  0  0  0  0  0  0  0  0  0  0  0
   17.3651   -9.6289  -17.4334 C   0  0  1  0  0  0  0  0  0  0  0  0
   16.6719  -10.2868  -18.4357 O   0  0  0  0  0  0  0  0  0  0  0  0
   18.5240  -10.5026  -16.9436 C   0  0  2  0  0  0  0  0  0  0  0  0
   17.9645  -11.7672  -16.5728 N   0  0  0  0  0  0  0  0  0  0  0  0
   19.1570   -9.8361  -15.7628 C   0  0  0  0  0  0  0  0  0  0  0  0
   18.4690   -9.2894  -14.8698 O   0  0  0  0  0  0  0  0  0  0  0  0
   23.1356  -10.1336  -15.7761 O   0  0  0  0  0  0  0  0  0  0  0  0
   22.6254   -9.8684  -14.4891 C   0  0  0  0  0  0  0  0  0  0  0  0
   21.2868   -9.1285  -14.6000 C   0  0  2  0  0  0  0  0  0  0  0  0
   20.5544   -9.8284  -15.6621 N   0  0  0  0  0  0  0  0  0  0  0  0
   21.4814   -7.7440  -15.0708 C   0  0  0  0  0  0  0  0  0  0  0  0
   21.8338   -7.4512  -16.2568 O   0  0  0  0  0  0  0  0  0  0  0  0
   19.3323   -5.1630  -15.9144 C   0  0  0  0  0  0  0  0  0  0  0  0
   20.2089   -4.5060  -14.8710 C   0  0  1  0  0  0  0  0  0  0  0  0
   19.5069   -4.5623  -13.6642 O   0  0  0  0  0  0  0  0  0  0  0  0
   21.5015   -5.2675  -14.6672 C   0  0  2  0  0  0  0  0  0  0  0  0
   21.2836   -6.6074  -14.2095 N   0  0  0  0  0  0  0  0  0  0  0  0
   22.3997   -4.5807  -13.7258 C   0  0  0  0  0  0  0  0  0  0  0  0
   22.6939   -5.1114  -12.6402 O   0  0  0  0  0  0  0  0  0  0  0  0
   22.9185   -3.3455  -14.0445 O   0  0  0  0  0  0  0  0  0  0  0  0
  2  1  1  6
  2  3  1  0
  2  4  1  0
  4  5  1  1
  6  4  1  0
  6 11  1  0
  7  6  2  0
  8  9  1  0
 10 11  1  0
 10  9  1  6
 10 12  1  0
 12 18  1  0
 13 12  2  0
 15 14  1  6
 15 17  1  0
 16 15  1  0
 17 19  1  0
 17 18  1  1
 19 20  2  0
 19 21  1  0
M  END
$$$$
