TST.pdb
     RDKit          3D

 21 20  0  0  1  0  0  0  0  0999 V2000
   14.0582   -8.6365   -8.6801 C   0  0  0  0  0  0  0  0  0  0  0  0
   15.0684   -8.7301   -9.7961 C   0  0  1  0  0  0  0  0  0  0  0  0
   16.2235   -9.3809   -9.3958 O   0  0  0  0  0  0  0  0  0  0  0  0
   14.4243   -9.4853  -10.9628 C   0  0  2  0  0  0  0  0  0  0  0  0
   14.2195  -10.8328  -10.5245 N   0  0  0  0  0  0  0  0  0  0  0  0
   15.3586   -9.4439  -12.1308 C   0  0  0  0  0  0  0  0  0  0  0  0
   15.8612  -10.4878  -12.6076 O   0  0  0  0  0  0  0  0  0  0  0  0
   16.3150   -6.8185  -16.0034 O   0  0  0  0  0  0  0  0  0  0  0  0
   15.6621   -7.0347  -14.7730 C   0  0  0  0  0  0  0  0  0  0  0  0
   16.4492   -8.0496  -13.9352 C   0  0  2  0  0  0  0  0  0  0  0  0
   15.6732   -8.2023  -12.6986 N   0  0  0  0  0  0  0  0  0  0  0  0
   17.7627   -7.5077  -13.5384 C   0  0  0  0  0  0  0  0  0  0  0  0
   17.9386   -6.7827  -12.5089 O   0  0  0  0  0  0  0  0  0  0  0  0
   21.1846   -9.6076  -13.4441 C   0  0  0  0  0  0  0  0  0  0  0  0
   21.3468   -8.3032  -14.1930 C   0  0  1  0  0  0  0  0  0  0  0  0
   21.2207   -8.6026  -15.5520 O   0  0  0  0  0  0  0  0  0  0  0  0
   20.2453   -7.3221  -13.8518 C   0  0  2  0  0  0  0  0  0  0  0  0
   18.9581   -7.7639  -14.2990 N   0  0  0  0  0  0  0  0  0  0  0  0
   20.5111   -5.9852  -14.4056 C   0  0  0  0  0  0  0  0  0  0  0  0
   21.4856   -5.3239  -14.0058 O   0  0  0  0  0  0  0  0  0  0  0  0
   19.6801   -5.4609  -15.3703 O   0  0  0  0  0  0  0  0  0  0  0  0
  2  1  1  1
  2  3  1  0
  2  4  1  0
  4  5  1  1
  6  4  1  0
  6 11  1  0
  7  6  2  0
  8  9  1  0
 10 11  1  0
 10  9  1  6
 10 12  1  0
 12 18  1  0
 13 12  2  0
 15 14  1  1
 15 17  1  0
 16 15  1  0
 17 19  1  0
 17 18  1  6
 19 20  2  0
 19 21  1  0
M  END
$$$$
