TST.pdb
     RDKit          3D

 21 20  0  0  1  0  0  0  0  0999 V2000
   23.6241  -11.3874  -17.3998 C   0  0  0  0  0  0  0  0  0  0  0  0
   22.6506  -12.4244  -17.9014 C   0  0  1  0  0  0  0  0  0  0  0  0
   23.2598  -13.6515  -18.1042 O   0  0  0  0  0  0  0  0  0  0  0  0
   21.5278  -12.5660  -16.8692 C   0  0  2  0  0  0  0  0  0  0  0  0
   20.6877  -13.6375  -17.3117 N   0  0  0  0  0  0  0  0  0  0  0  0
   20.7639  -11.2804  -16.8167 C   0  0  0  0  0  0  0  0  0  0  0  0
   19.9978  -10.9329  -17.7452 O   0  0  0  0  0  0  0  0  0  0  0  0
   18.4831   -8.0915  -14.3706 O   0  0  0  0  0  0  0  0  0  0  0  0
   19.1429   -9.3187  -14.5839 C   0  0  0  0  0  0  0  0  0  0  0  0
   20.2936   -9.1271  -15.5792 C   0  0  2  0  0  0  0  0  0  0  0  0
   20.9158  -10.4513  -15.6976 N   0  0  0  0  0  0  0  0  0  0  0  0
   21.3273   -8.2286  -15.0312 C   0  0  0  0  0  0  0  0  0  0  0  0
   22.1312   -8.5684  -14.1067 O   0  0  0  0  0  0  0  0  0  0  0  0
   23.6914   -5.8297  -17.2434 C   0  0  0  0  0  0  0  0  0  0  0  0
   23.0739   -5.0880  -16.0783 C   0  0  1  0  0  0  0  0  0  0  0  0
   21.9699   -4.3960  -16.5831 O   0  0  0  0  0  0  0  0  0  0  0  0
   22.5545   -6.0399  -15.0218 C   0  0  2  0  0  0  0  0  0  0  0  0
   21.5036   -6.8823  -15.5100 N   0  0  0  0  0  0  0  0  0  0  0  0
   22.0787   -5.3257  -13.8268 C   0  0  0  0  0  0  0  0  0  0  0  0
   22.8700   -4.6538  -13.1420 O   0  0  0  0  0  0  0  0  0  0  0  0
   20.7528   -5.3992  -13.4620 O   0  0  0  0  0  0  0  0  0  0  0  0
  2  1  1  1
  2  3  1  0
  2  4  1  0
  4  5  1  6
  6  4  1  0
  6 11  1  0
  7  6  2  0
  8  9  1  0
 10 11  1  0
 10  9  1  1
 10 12  1  0
 12 18  1  0
 13 12  2  0
 15 14  1  6
 15 17  1  0
 16 15  1  0
 17 19  1  0
 17 18  1  6
 19 20  2  0
 19 21  1  0
M  END
$$$$
