TST.pdb
     RDKit          3D

 21 20  0  0  1  0  0  0  0  0999 V2000
   22.3560   -8.8147  -20.1265 C   0  0  0  0  0  0  0  0  0  0  0  0
   21.7191  -10.1817  -20.1465 C   0  0  1  0  0  0  0  0  0  0  0  0
   22.1562  -10.9410  -21.2190 O   0  0  0  0  0  0  0  0  0  0  0  0
   22.0647  -10.8902  -18.8332 C   0  0  2  0  0  0  0  0  0  0  0  0
   21.5785  -12.2323  -18.9434 N   0  0  0  0  0  0  0  0  0  0  0  0
   21.3854  -10.1707  -17.7107 C   0  0  0  0  0  0  0  0  0  0  0  0
   20.1374  -10.1524  -17.6016 O   0  0  0  0  0  0  0  0  0  0  0  0
   20.9824   -9.7944  -13.5262 O   0  0  0  0  0  0  0  0  0  0  0  0
   22.0763   -9.5669  -14.3854 C   0  0  0  0  0  0  0  0  0  0  0  0
   21.6181   -8.7751  -15.6161 C   0  0  2  0  0  0  0  0  0  0  0  0
   22.1730   -9.5038  -16.7631 N   0  0  0  0  0  0  0  0  0  0  0  0
   22.2272   -7.4318  -15.6418 C   0  0  0  0  0  0  0  0  0  0  0  0
   23.4277   -7.2145  -15.9995 O   0  0  0  0  0  0  0  0  0  0  0  0
   20.8908   -4.3094  -17.4515 C   0  0  0  0  0  0  0  0  0  0  0  0
   21.1611   -3.9429  -16.0088 C   0  0  1  0  0  0  0  0  0  0  0  0
   19.9341   -4.0031  -15.3430 O   0  0  0  0  0  0  0  0  0  0  0  0
   22.0775   -4.9453  -15.3397 C   0  0  2  0  0  0  0  0  0  0  0  0
   21.4963   -6.2521  -15.2583 N   0  0  0  0  0  0  0  0  0  0  0  0
   22.4715   -4.5121  -13.9901 C   0  0  0  0  0  0  0  0  0  0  0  0
   23.0989   -3.4500  -13.8311 O   0  0  0  0  0  0  0  0  0  0  0  0
   22.1462   -5.2828  -12.8962 O   0  0  0  0  0  0  0  0  0  0  0  0
  2  1  1  1
  2  3  1  0
  2  4  1  0
  4  5  1  6
  6  4  1  0
  6 11  1  0
  7  6  2  0
  8  9  1  0
 10 11  1  0
 10  9  1  1
 10 12  1  0
 12 18  1  0
 13 12  2  0
 15 14  1  6
 15 17  1  0
 16 15  1  0
 17 19  1  0
 17 18  1  1
 19 20  2  0
 19 21  1  0
M  END
$$$$
