TST.pdb
     RDKit          3D

 21 20  0  0  1  0  0  0  0  0999 V2000
   22.1914   -9.7559  -19.7574 C   0  0  0  0  0  0  0  0  0  0  0  0
   21.2246  -10.9067  -19.8827 C   0  0  1  0  0  0  0  0  0  0  0  0
   21.7641  -11.9603  -20.6016 O   0  0  0  0  0  0  0  0  0  0  0  0
   20.8535  -11.3759  -18.4726 C   0  0  2  0  0  0  0  0  0  0  0  0
   20.0525  -12.5531  -18.6226 N   0  0  0  0  0  0  0  0  0  0  0  0
   20.0775  -10.2890  -17.7977 C   0  0  0  0  0  0  0  0  0  0  0  0
   18.9893   -9.8743  -18.2599 O   0  0  0  0  0  0  0  0  0  0  0  0
   20.3633   -9.8899  -13.9038 O   0  0  0  0  0  0  0  0  0  0  0  0
   19.3502   -9.2480  -14.6445 C   0  0  0  0  0  0  0  0  0  0  0  0
   19.9474   -8.6158  -15.9076 C   0  0  2  0  0  0  0  0  0  0  0  0
   20.5885   -9.7274  -16.6203 N   0  0  0  0  0  0  0  0  0  0  0  0
   21.0217   -7.6632  -15.5690 C   0  0  0  0  0  0  0  0  0  0  0  0
   22.2496   -7.9867  -15.5057 O   0  0  0  0  0  0  0  0  0  0  0  0
   21.4316   -3.9414  -16.9776 C   0  0  0  0  0  0  0  0  0  0  0  0
   21.5404   -3.9638  -15.4688 C   0  0  1  0  0  0  0  0  0  0  0  0
   20.2957   -3.5696  -14.9710 O   0  0  0  0  0  0  0  0  0  0  0  0
   21.8032   -5.3610  -14.9481 C   0  0  2  0  0  0  0  0  0  0  0  0
   20.7543   -6.2779  -15.2817 N   0  0  0  0  0  0  0  0  0  0  0  0
   22.0042   -5.3740  -13.4908 C   0  0  0  0  0  0  0  0  0  0  0  0
   21.2415   -6.0294  -12.7589 O   0  0  0  0  0  0  0  0  0  0  0  0
   23.0397   -4.6591  -12.9312 O   0  0  0  0  0  0  0  0  0  0  0  0
  2  1  1  1
  2  3  1  0
  2  4  1  0
  4  5  1  6
  6  4  1  0
  6 11  1  0
  7  6  2  0
  8  9  1  0
 10 11  1  0
 10  9  1  1
 10 12  1  0
 12 18  1  0
 13 12  2  0
 15 14  1  6
 15 17  1  0
 16 15  1  0
 17 19  1  0
 17 18  1  1
 19 20  2  0
 19 21  1  0
M  END
$$$$
