TST.pdb
     RDKit          3D

 21 20  0  0  1  0  0  0  0  0999 V2000
   23.3066  -12.0044  -20.0648 C   0  0  0  0  0  0  0  0  0  0  0  0
   22.3032  -11.1290  -19.3568 C   0  0  1  0  0  0  0  0  0  0  0  0
   21.1868  -10.8839  -20.1389 O   0  0  0  0  0  0  0  0  0  0  0  0
   21.8857  -11.8309  -18.0609 C   0  0  2  0  0  0  0  0  0  0  0  0
   21.1664  -13.0097  -18.4385 N   0  0  0  0  0  0  0  0  0  0  0  0
   21.0104  -10.9038  -17.2776 C   0  0  0  0  0  0  0  0  0  0  0  0
   19.7857  -10.7958  -17.5188 O   0  0  0  0  0  0  0  0  0  0  0  0
   20.3486   -9.0249  -13.0163 O   0  0  0  0  0  0  0  0  0  0  0  0
   20.9712   -9.8570  -13.9686 C   0  0  0  0  0  0  0  0  0  0  0  0
   20.8119   -9.2566  -15.3707 C   0  0  2  0  0  0  0  0  0  0  0  0
   21.5837  -10.1417  -16.2512 N   0  0  0  0  0  0  0  0  0  0  0  0
   21.4465   -7.9276  -15.4559 C   0  0  0  0  0  0  0  0  0  0  0  0
   22.6734   -7.7550  -15.7411 O   0  0  0  0  0  0  0  0  0  0  0  0
   21.0267   -3.0399  -16.0084 C   0  0  0  0  0  0  0  0  0  0  0  0
   20.3396   -4.3151  -15.5717 C   0  0  1  0  0  0  0  0  0  0  0  0
   19.5406   -4.7268  -16.6415 O   0  0  0  0  0  0  0  0  0  0  0  0
   21.3354   -5.4251  -15.3099 C   0  0  2  0  0  0  0  0  0  0  0  0
   20.7124   -6.7119  -15.2189 N   0  0  0  0  0  0  0  0  0  0  0  0
   22.1158   -5.1840  -14.0863 C   0  0  0  0  0  0  0  0  0  0  0  0
   21.7129   -5.6146  -12.9912 O   0  0  0  0  0  0  0  0  0  0  0  0
   23.2973   -4.4794  -14.1496 O   0  0  0  0  0  0  0  0  0  0  0  0
  2  1  1  6
  2  3  1  0
  2  4  1  0
  4  5  1  6
  6  4  1  0
  6 11  1  0
  7  6  2  0
  8  9  1  0
 10 11  1  0
 10  9  1  1
 10 12  1  0
 12 18  1  0
 13 12  2  0
 15 14  1  6
 15 17  1  0
 16 15  1  0
 17 19  1  0
 17 18  1  1
 19 20  2  0
 19 21  1  0
M  END
$$$$
