TST.pdb
     RDKit          3D

 21 20  0  0  1  0  0  0  0  0999 V2000
   18.0765   -8.3006  -18.2812 C   0  0  0  0  0  0  0  0  0  0  0  0
   17.3162   -9.4659  -17.6992 C   0  0  1  0  0  0  0  0  0  0  0  0
   16.6353  -10.1780  -18.6724 O   0  0  0  0  0  0  0  0  0  0  0  0
   18.3163  -10.3831  -16.9885 C   0  0  2  0  0  0  0  0  0  0  0  0
   17.5786  -11.5134  -16.5112 N   0  0  0  0  0  0  0  0  0  0  0  0
   18.9276   -9.6295  -15.8494 C   0  0  0  0  0  0  0  0  0  0  0  0
   18.2380   -9.2208  -14.8866 O   0  0  0  0  0  0  0  0  0  0  0  0
   22.1950  -10.2245  -13.2831 O   0  0  0  0  0  0  0  0  0  0  0  0
   22.2709   -9.5967  -14.5428 C   0  0  0  0  0  0  0  0  0  0  0  0
   21.0276   -8.7281  -14.7694 C   0  0  2  0  0  0  0  0  0  0  0  0
   20.3061   -9.3797  -15.8691 N   0  0  0  0  0  0  0  0  0  0  0  0
   21.3980   -7.3844  -15.2526 C   0  0  0  0  0  0  0  0  0  0  0  0
   21.9342   -7.1713  -16.3855 O   0  0  0  0  0  0  0  0  0  0  0  0
   19.5559   -4.5261  -16.3272 C   0  0  0  0  0  0  0  0  0  0  0  0
   20.4213   -3.9890  -15.2085 C   0  0  1  0  0  0  0  0  0  0  0  0
   19.6247   -3.9666  -14.0607 O   0  0  0  0  0  0  0  0  0  0  0  0
   21.5911   -4.9051  -14.9178 C   0  0  2  0  0  0  0  0  0  0  0  0
   21.1761   -6.1994  -14.4654 N   0  0  0  0  0  0  0  0  0  0  0  0
   22.5093   -4.3236  -13.9262 C   0  0  0  0  0  0  0  0  0  0  0  0
   22.6420   -4.8534  -12.8088 O   0  0  0  0  0  0  0  0  0  0  0  0
   23.2263   -3.1886  -14.2327 O   0  0  0  0  0  0  0  0  0  0  0  0
  2  1  1  6
  2  3  1  0
  2  4  1  0
  4  5  1  1
  6  4  1  0
  6 11  1  0
  7  6  2  0
  8  9  1  0
 10 11  1  0
 10  9  1  6
 10 12  1  0
 12 18  1  0
 13 12  2  0
 15 14  1  6
 15 17  1  0
 16 15  1  0
 17 19  1  0
 17 18  1  1
 19 20  2  0
 19 21  1  0
M  END
$$$$
