TST.pdb
     RDKit          3D

 21 20  0  0  1  0  0  0  0  0999 V2000
   17.7091  -11.3747  -14.8543 C   0  0  0  0  0  0  0  0  0  0  0  0
   18.6757  -12.4997  -15.1278 C   0  0  1  0  0  0  0  0  0  0  0  0
   18.1430  -13.7333  -14.7923 O   0  0  0  0  0  0  0  0  0  0  0  0
   19.0302  -12.4748  -16.6178 C   0  0  2  0  0  0  0  0  0  0  0  0
   19.7423  -13.6850  -16.8969 N   0  0  0  0  0  0  0  0  0  0  0  0
   19.8911  -11.2799  -16.8827 C   0  0  0  0  0  0  0  0  0  0  0  0
   21.1371  -11.3277  -16.7608 O   0  0  0  0  0  0  0  0  0  0  0  0
   17.8904   -7.9012  -18.1641 O   0  0  0  0  0  0  0  0  0  0  0  0
   19.2089   -8.1149  -18.6143 C   0  0  0  0  0  0  0  0  0  0  0  0
   20.0189   -8.8407  -17.5333 C   0  0  2  0  0  0  0  0  0  0  0  0
   19.2795  -10.0824  -17.2762 N   0  0  0  0  0  0  0  0  0  0  0  0
   20.0149   -8.0838  -16.2671 C   0  0  0  0  0  0  0  0  0  0  0  0
   19.1482   -8.2541  -15.3527 O   0  0  0  0  0  0  0  0  0  0  0  0
   22.9216   -4.8683  -15.3085 C   0  0  0  0  0  0  0  0  0  0  0  0
   22.4433   -5.9358  -14.3492 C   0  0  1  0  0  0  0  0  0  0  0  0
   22.3605   -5.3356  -13.0901 O   0  0  0  0  0  0  0  0  0  0  0  0
   21.0528   -6.4207  -14.7007 C   0  0  2  0  0  0  0  0  0  0  0  0
   21.0064   -7.0829  -15.9702 N   0  0  0  0  0  0  0  0  0  0  0  0
   20.0726   -5.3236  -14.6975 C   0  0  0  0  0  0  0  0  0  0  0  0
   19.5569   -4.9411  -15.7627 O   0  0  0  0  0  0  0  0  0  0  0  0
   19.7223   -4.7155  -13.5127 O   0  0  0  0  0  0  0  0  0  0  0  0
  2  1  1  6
  2  3  1  0
  2  4  1  0
  4  5  1  1
  6  4  1  0
  6 11  1  0
  7  6  2  0
  8  9  1  0
 10 11  1  0
 10  9  1  6
 10 12  1  0
 12 18  1  0
 13 12  2  0
 15 14  1  6
 15 17  1  0
 16 15  1  0
 17 19  1  0
 17 18  1  6
 19 20  2  0
 19 21  1  0
M  END
$$$$
