TST.pdb
     RDKit          3D

 21 20  0  0  1  0  0  0  0  0999 V2000
   18.2906   -9.0339  -17.8862 C   0  0  0  0  0  0  0  0  0  0  0  0
   17.6159  -10.2364  -17.2751 C   0  0  1  0  0  0  0  0  0  0  0  0
   17.0249  -11.0418  -18.2343 O   0  0  0  0  0  0  0  0  0  0  0  0
   18.6698  -11.0359  -16.5030 C   0  0  2  0  0  0  0  0  0  0  0  0
   18.0178  -12.2063  -15.9984 N   0  0  0  0  0  0  0  0  0  0  0  0
   19.1825  -10.1891  -15.3809 C   0  0  0  0  0  0  0  0  0  0  0  0
   18.4533   -9.8675  -14.4142 O   0  0  0  0  0  0  0  0  0  0  0  0
   23.1242  -10.1152  -15.1032 O   0  0  0  0  0  0  0  0  0  0  0  0
   22.3851   -9.7758  -13.9520 C   0  0  0  0  0  0  0  0  0  0  0  0
   21.1416   -8.9708  -14.3480 C   0  0  2  0  0  0  0  0  0  0  0  0
   20.5123   -9.7499  -15.4211 N   0  0  0  0  0  0  0  0  0  0  0  0
   21.5145   -7.6720  -14.9399 C   0  0  0  0  0  0  0  0  0  0  0  0
   22.0768   -7.5555  -16.0742 O   0  0  0  0  0  0  0  0  0  0  0  0
   19.4554   -4.8828  -16.0886 C   0  0  0  0  0  0  0  0  0  0  0  0
   20.4137   -4.2768  -15.0870 C   0  0  1  0  0  0  0  0  0  0  0  0
   19.7265   -4.1952  -13.8731 O   0  0  0  0  0  0  0  0  0  0  0  0
   21.6169   -5.1663  -14.8558 C   0  0  2  0  0  0  0  0  0  0  0  0
   21.2654   -6.4239  -14.2667 N   0  0  0  0  0  0  0  0  0  0  0  0
   22.6297   -4.5104  -14.0140 C   0  0  0  0  0  0  0  0  0  0  0  0
   22.9018   -4.9679  -12.8900 O   0  0  0  0  0  0  0  0  0  0  0  0
   23.2809   -3.3855  -14.4689 O   0  0  0  0  0  0  0  0  0  0  0  0
  2  1  1  6
  2  3  1  0
  2  4  1  0
  4  5  1  1
  6  4  1  0
  6 11  1  0
  7  6  2  0
  8  9  1  0
 10 11  1  0
 10  9  1  6
 10 12  1  0
 12 18  1  0
 13 12  2  0
 15 14  1  6
 15 17  1  0
 16 15  1  0
 17 19  1  0
 17 18  1  1
 19 20  2  0
 19 21  1  0
M  END
$$$$
