TST.pdb
     RDKit          3D

 21 20  0  0  1  0  0  0  0  0999 V2000
   22.7029   -9.1365  -19.7354 C   0  0  0  0  0  0  0  0  0  0  0  0
   21.8357  -10.3451  -19.9843 C   0  0  1  0  0  0  0  0  0  0  0  0
   22.2753  -11.0831  -21.0706 O   0  0  0  0  0  0  0  0  0  0  0  0
   21.8536  -11.2150  -18.7237 C   0  0  2  0  0  0  0  0  0  0  0  0
   21.0976  -12.3941  -19.0203 N   0  0  0  0  0  0  0  0  0  0  0  0
   21.2214  -10.4470  -17.6058 C   0  0  0  0  0  0  0  0  0  0  0  0
   19.9927  -10.2029  -17.5889 O   0  0  0  0  0  0  0  0  0  0  0  0
   21.7733   -8.9478  -13.0814 O   0  0  0  0  0  0  0  0  0  0  0  0
   22.0963   -9.7579  -14.1888 C   0  0  0  0  0  0  0  0  0  0  0  0
   21.5483   -9.1275  -15.4748 C   0  0  2  0  0  0  0  0  0  0  0  0
   22.0318   -9.9938  -16.5566 N   0  0  0  0  0  0  0  0  0  0  0  0
   22.1411   -7.7973  -15.7099 C   0  0  0  0  0  0  0  0  0  0  0  0
   23.3018   -7.6249  -16.1992 O   0  0  0  0  0  0  0  0  0  0  0  0
   20.7069   -5.0023  -17.8345 C   0  0  0  0  0  0  0  0  0  0  0  0
   21.0249   -4.4176  -16.4759 C   0  0  1  0  0  0  0  0  0  0  0  0
   19.8263   -4.3959  -15.7581 O   0  0  0  0  0  0  0  0  0  0  0  0
   21.9884   -5.2927  -15.7025 C   0  0  2  0  0  0  0  0  0  0  0  0
   21.4384   -6.5799  -15.3980 N   0  0  0  0  0  0  0  0  0  0  0  0
   22.4278   -4.6526  -14.4528 C   0  0  0  0  0  0  0  0  0  0  0  0
   22.1607   -5.1726  -13.3550 O   0  0  0  0  0  0  0  0  0  0  0  0
   23.1376   -3.4733  -14.4946 O   0  0  0  0  0  0  0  0  0  0  0  0
  2  1  1  1
  2  3  1  0
  2  4  1  0
  4  5  1  6
  6  4  1  0
  6 11  1  0
  7  6  2  0
  8  9  1  0
 10 11  1  0
 10  9  1  1
 10 12  1  0
 12 18  1  0
 13 12  2  0
 15 14  1  6
 15 17  1  0
 16 15  1  0
 17 19  1  0
 17 18  1  1
 19 20  2  0
 19 21  1  0
M  END
$$$$
