TST.pdb
     RDKit          3D

 21 20  0  0  1  0  0  0  0  0999 V2000
   13.2543  -11.4225  -12.8876 C   0  0  0  0  0  0  0  0  0  0  0  0
   14.0580  -12.6983  -12.9201 C   0  0  1  0  0  0  0  0  0  0  0  0
   13.3541  -13.7392  -13.5022 O   0  0  0  0  0  0  0  0  0  0  0  0
   15.3434  -12.4343  -13.7103 C   0  0  2  0  0  0  0  0  0  0  0  0
   16.0307  -13.6856  -13.8178 N   0  0  0  0  0  0  0  0  0  0  0  0
   16.1692  -11.4387  -12.9580 C   0  0  0  0  0  0  0  0  0  0  0  0
   16.7865  -11.7523  -11.9137 O   0  0  0  0  0  0  0  0  0  0  0  0
   18.5645   -7.3192  -13.5001 O   0  0  0  0  0  0  0  0  0  0  0  0
   17.7576   -8.3680  -13.9857 C   0  0  0  0  0  0  0  0  0  0  0  0
   17.0668   -9.0801  -12.8165 C   0  0  2  0  0  0  0  0  0  0  0  0
   16.2479  -10.1260  -13.4410 N   0  0  0  0  0  0  0  0  0  0  0  0
   16.1300   -8.1768  -12.1218 C   0  0  0  0  0  0  0  0  0  0  0  0
   14.9618   -7.9158  -12.5504 O   0  0  0  0  0  0  0  0  0  0  0  0
   15.2633   -8.0328   -8.1407 C   0  0  0  0  0  0  0  0  0  0  0  0
   15.7112   -6.7035   -8.7073 C   0  0  1  0  0  0  0  0  0  0  0  0
   17.0777   -6.5923   -8.4372 O   0  0  0  0  0  0  0  0  0  0  0  0
   15.5519   -6.6551  -10.2121 C   0  0  2  0  0  0  0  0  0  0  0  0
   16.4750   -7.5154  -10.8903 N   0  0  0  0  0  0  0  0  0  0  0  0
   15.6996   -5.2880  -10.7353 C   0  0  0  0  0  0  0  0  0  0  0  0
   16.6139   -5.0182  -11.5340 O   0  0  0  0  0  0  0  0  0  0  0  0
   14.8241   -4.3008  -10.3414 O   0  0  0  0  0  0  0  0  0  0  0  0
  2  1  1  6
  2  3  1  0
  2  4  1  0
  4  5  1  1
  6  4  1  0
  6 11  1  0
  7  6  2  0
  8  9  1  0
 10 11  1  0
 10  9  1  6
 10 12  1  0
 12 18  1  0
 13 12  2  0
 15 14  1  6
 15 17  1  0
 16 15  1  0
 17 19  1  0
 17 18  1  6
 19 20  2  0
 19 21  1  0
M  END
$$$$
