TST.pdb
     RDKit          3D

 21 20  0  0  1  0  0  0  0  0999 V2000
   23.1101  -10.3051  -19.2086 C   0  0  0  0  0  0  0  0  0  0  0  0
   22.0016  -11.2386  -19.6264 C   0  0  1  0  0  0  0  0  0  0  0  0
   22.4757  -12.3039  -20.3737 O   0  0  0  0  0  0  0  0  0  0  0  0
   21.3107  -11.7578  -18.3618 C   0  0  2  0  0  0  0  0  0  0  0  0
   20.3763  -12.7591  -18.7787 N   0  0  0  0  0  0  0  0  0  0  0  0
   20.6045  -10.6156  -17.7016 C   0  0  0  0  0  0  0  0  0  0  0  0
   19.6449  -10.0290  -18.2538 O   0  0  0  0  0  0  0  0  0  0  0  0
   19.4171   -8.8559  -13.4652 O   0  0  0  0  0  0  0  0  0  0  0  0
   19.9805   -9.8104  -14.3360 C   0  0  0  0  0  0  0  0  0  0  0  0
   20.3709   -9.1432  -15.6604 C   0  0  2  0  0  0  0  0  0  0  0  0
   21.0342  -10.1990  -16.4349 N   0  0  0  0  0  0  0  0  0  0  0  0
   21.3785   -8.0870  -15.4477 C   0  0  0  0  0  0  0  0  0  0  0  0
   22.6084   -8.3264  -15.2322 O   0  0  0  0  0  0  0  0  0  0  0  0
   22.0553   -4.7438  -17.5319 C   0  0  0  0  0  0  0  0  0  0  0  0
   21.8157   -4.4425  -16.0688 C   0  0  1  0  0  0  0  0  0  0  0  0
   20.4742   -4.0699  -15.9506 O   0  0  0  0  0  0  0  0  0  0  0  0
   22.0117   -5.6710  -15.2059 C   0  0  2  0  0  0  0  0  0  0  0  0
   21.0378   -6.6882  -15.4688 N   0  0  0  0  0  0  0  0  0  0  0  0
   21.9856   -5.3433  -13.7718 C   0  0  0  0  0  0  0  0  0  0  0  0
   21.1162   -5.8369  -13.0320 O   0  0  0  0  0  0  0  0  0  0  0  0
   22.9257   -4.4871  -13.2431 O   0  0  0  0  0  0  0  0  0  0  0  0
  2  1  1  1
  2  3  1  0
  2  4  1  0
  4  5  1  6
  6  4  1  0
  6 11  1  0
  7  6  2  0
  8  9  1  0
 10 11  1  0
 10  9  1  1
 10 12  1  0
 12 18  1  0
 13 12  2  0
 15 14  1  6
 15 17  1  0
 16 15  1  0
 17 19  1  0
 17 18  1  1
 19 20  2  0
 19 21  1  0
M  END
$$$$
