TST.pdb
     RDKit          3D

 21 20  0  0  1  0  0  0  0  0999 V2000
   22.5089  -11.1509  -19.0974 C   0  0  0  0  0  0  0  0  0  0  0  0
   21.2927  -12.0379  -19.1919 C   0  0  1  0  0  0  0  0  0  0  0  0
   21.6189  -13.3230  -19.5922 O   0  0  0  0  0  0  0  0  0  0  0  0
   20.6207  -12.0772  -17.8160 C   0  0  2  0  0  0  0  0  0  0  0  0
   19.6041  -13.0834  -17.8775 N   0  0  0  0  0  0  0  0  0  0  0  0
   20.0215  -10.7341  -17.5400 C   0  0  0  0  0  0  0  0  0  0  0  0
   19.3334  -10.1329  -18.3972 O   0  0  0  0  0  0  0  0  0  0  0  0
   19.5017   -9.7461  -13.7210 O   0  0  0  0  0  0  0  0  0  0  0  0
   18.8197   -9.0381  -14.7312 C   0  0  0  0  0  0  0  0  0  0  0  0
   19.7512   -8.8068  -15.9271 C   0  0  2  0  0  0  0  0  0  0  0  0
   20.2408  -10.1424  -16.2891 N   0  0  0  0  0  0  0  0  0  0  0  0
   20.9364   -8.0210  -15.5345 C   0  0  0  0  0  0  0  0  0  0  0  0
   22.0154   -8.5451  -15.1134 O   0  0  0  0  0  0  0  0  0  0  0  0
   22.7589   -5.1574  -17.5311 C   0  0  0  0  0  0  0  0  0  0  0  0
   22.3950   -4.6733  -16.1447 C   0  0  1  0  0  0  0  0  0  0  0  0
   21.2081   -3.9470  -16.2723 O   0  0  0  0  0  0  0  0  0  0  0  0
   22.1094   -5.8271  -15.2070 C   0  0  2  0  0  0  0  0  0  0  0  0
   20.9578   -6.5829  -15.6004 N   0  0  0  0  0  0  0  0  0  0  0  0
   21.9325   -5.3740  -13.8185 C   0  0  0  0  0  0  0  0  0  0  0  0
   20.8469   -5.5465  -13.2366 O   0  0  0  0  0  0  0  0  0  0  0  0
   22.9705   -4.7561  -13.1573 O   0  0  0  0  0  0  0  0  0  0  0  0
  2  1  1  1
  2  3  1  0
  2  4  1  0
  4  5  1  6
  6  4  1  0
  6 11  1  0
  7  6  2  0
  8  9  1  0
 10 11  1  0
 10  9  1  1
 10 12  1  0
 12 18  1  0
 13 12  2  0
 15 14  1  6
 15 17  1  0
 16 15  1  0
 17 19  1  0
 17 18  1  6
 19 20  2  0
 19 21  1  0
M  END
$$$$
