AGK.pdb
     RDKit          3D

 19 18  0  0  1  0  0  0  0  0999 V2000
   28.1901  -10.6387  -19.4477 C   0  0  0  0  0  0  0  0  0  0  0  0
   28.1235  -11.3920  -18.1358 C   0  0  2  0  0  0  0  0  0  0  0  0
   27.2763  -12.5573  -18.2244 N   0  0  0  0  0  0  0  0  0  0  0  0
   27.5991  -10.5052  -17.0844 C   0  0  0  0  0  0  0  0  0  0  0  0
   28.2621   -9.4883  -16.7676 O   0  0  0  0  0  0  0  0  0  0  0  0
   26.3858  -10.7657  -16.4318 N   0  0  0  0  0  0  0  0  0  0  0  0
   25.8973   -9.8389  -15.4489 C   0  0  0  0  0  0  0  0  0  0  0  0
   24.7741   -9.0797  -16.0587 C   0  0  0  0  0  0  0  0  0  0  0  0
   24.9080   -8.4374  -17.1347 O   0  0  0  0  0  0  0  0  0  0  0  0
   23.4760   -9.0253  -15.4732 N   0  0  0  0  0  0  0  0  0  0  0  0
   22.3624   -8.3472  -16.1133 C   0  0  1  0  0  0  0  0  0  0  0  0
   21.1429   -9.1894  -16.2172 C   0  0  0  0  0  0  0  0  0  0  0  0
   19.9367   -8.5787  -16.8188 C   0  0  0  0  0  0  0  0  0  0  0  0
   18.7232   -9.4414  -16.9134 C   0  0  0  0  0  0  0  0  0  0  0  0
   17.6277   -8.6702  -17.6738 C   0  0  0  0  0  0  0  0  0  0  0  0
   16.4532   -9.5208  -17.7270 N   0  0  0  0  0  0  0  0  0  0  0  0
   22.1776   -7.0540  -15.4184 C   0  0  0  0  0  0  0  0  0  0  0  0
   22.5148   -6.9329  -14.2158 O   0  0  0  0  0  0  0  0  0  0  0  0
   21.6349   -5.9433  -16.0466 O   0  0  0  0  0  0  0  0  0  0  0  0
  2  1  1  6
  3  2  1  0
  4  5  2  0
  4  2  1  0
  6  4  1  0
  7  6  1  0
  8  7  1  0
  9  8  2  0
 10  8  1  0
 11 12  1  1
 11 10  1  0
 12 13  1  0
 13 14  1  0
 14 15  1  0
 15 16  1  0
 17 11  1  0
 18 17  2  0
 19 17  1  0
M  END
$$$$
