AGK.pdb
     RDKit          3D

 19 18  0  0  1  0  0  0  0  0999 V2000
   11.1775   -8.4326   -7.4774 C   0  0  0  0  0  0  0  0  0  0  0  0
   12.0070   -8.1019   -8.7003 C   0  0  2  0  0  0  0  0  0  0  0  0
   12.4780   -9.2901   -9.3711 N   0  0  0  0  0  0  0  0  0  0  0  0
   13.1696   -7.2913   -8.3027 C   0  0  0  0  0  0  0  0  0  0  0  0
   12.9710   -6.1910   -7.7337 O   0  0  0  0  0  0  0  0  0  0  0  0
   14.4849   -7.7141   -8.5419 N   0  0  0  0  0  0  0  0  0  0  0  0
   15.5820   -6.9229   -8.0579 C   0  0  0  0  0  0  0  0  0  0  0  0
   16.5557   -6.7672   -9.1703 C   0  0  0  0  0  0  0  0  0  0  0  0
   17.6284   -6.1199   -9.0338 O   0  0  0  0  0  0  0  0  0  0  0  0
   16.3460   -7.3353  -10.4603 N   0  0  0  0  0  0  0  0  0  0  0  0
   17.3675   -7.3180  -11.4928 C   0  0  1  0  0  0  0  0  0  0  0  0
   17.5345   -8.6266  -12.1761 C   0  0  0  0  0  0  0  0  0  0  0  0
   18.4277   -8.6758  -13.3550 C   0  0  0  0  0  0  0  0  0  0  0  0
   18.4500   -9.9517  -14.1277 C   0  0  0  0  0  0  0  0  0  0  0  0
   19.4626   -9.8127  -15.2804 C   0  0  0  0  0  0  0  0  0  0  0  0
   19.4507  -11.0591  -16.0234 N   0  0  0  0  0  0  0  0  0  0  0  0
   17.0714   -6.1749  -12.3844 C   0  0  0  0  0  0  0  0  0  0  0  0
   15.8830   -5.8252  -12.5844 O   0  0  0  0  0  0  0  0  0  0  0  0
   18.0677   -5.4554  -13.0266 O   0  0  0  0  0  0  0  0  0  0  0  0
  2  1  1  1
  3  2  1  0
  4  5  2  0
  4  2  1  0
  6  4  1  0
  7  6  1  0
  8  7  1  0
  9  8  2  0
 10  8  1  0
 11 12  1  6
 11 10  1  0
 12 13  1  0
 13 14  1  0
 14 15  1  0
 15 16  1  0
 17 11  1  0
 18 17  2  0
 19 17  1  0
M  END
$$$$
