AGK.pdb
     RDKit          3D

 19 18  0  0  1  0  0  0  0  0999 V2000
   18.9962   -9.0771  -16.7845 C   0  0  0  0  0  0  0  0  0  0  0  0
   18.8415  -10.0399  -15.6260 C   0  0  2  0  0  0  0  0  0  0  0  0
   17.4887  -10.5292  -15.5072 N   0  0  0  0  0  0  0  0  0  0  0  0
   19.2120   -9.3650  -14.3714 C   0  0  0  0  0  0  0  0  0  0  0  0
   20.3799   -8.9240  -14.2463 O   0  0  0  0  0  0  0  0  0  0  0  0
   18.2997   -9.2031  -13.3191 N   0  0  0  0  0  0  0  0  0  0  0  0
   18.6845   -8.4500  -12.1579 C   0  0  0  0  0  0  0  0  0  0  0  0
   17.4700   -7.7729  -11.6322 C   0  0  0  0  0  0  0  0  0  0  0  0
   16.7393   -7.0501  -12.3616 O   0  0  0  0  0  0  0  0  0  0  0  0
   17.0497   -7.8927  -10.2759 N   0  0  0  0  0  0  0  0  0  0  0  0
   15.8422   -7.2579   -9.7772 C   0  0  1  0  0  0  0  0  0  0  0  0
   14.9307   -8.1982   -9.0755 C   0  0  0  0  0  0  0  0  0  0  0  0
   13.6548   -7.6577   -8.5562 C   0  0  0  0  0  0  0  0  0  0  0  0
   12.7529   -8.6192   -7.8578 C   0  0  0  0  0  0  0  0  0  0  0  0
   11.4910   -7.8658   -7.3963 C   0  0  0  0  0  0  0  0  0  0  0  0
   10.6715   -8.8038   -6.6516 N   0  0  0  0  0  0  0  0  0  0  0  0
   16.2601   -6.0784   -8.9877 C   0  0  0  0  0  0  0  0  0  0  0  0
   15.5356   -5.0544   -8.9562 O   0  0  0  0  0  0  0  0  0  0  0  0
   17.4432   -6.0487   -8.2650 O   0  0  0  0  0  0  0  0  0  0  0  0
  2  1  1  6
  3  2  1  0
  4  5  2  0
  4  2  1  0
  6  4  1  0
  7  6  1  0
  8  7  1  0
  9  8  2  0
 10  8  1  0
 11 12  1  1
 11 10  1  0
 12 13  1  0
 13 14  1  0
 14 15  1  0
 15 16  1  0
 17 11  1  0
 18 17  2  0
 19 17  1  0
M  END
$$$$
