AGK.pdb
     RDKit          3D

 19 18  0  0  1  0  0  0  0  0999 V2000
   13.4117  -11.9856  -16.6565 C   0  0  0  0  0  0  0  0  0  0  0  0
   14.7090  -12.0429  -15.8777 C   0  0  2  0  0  0  0  0  0  0  0  0
   14.6166  -12.9243  -14.7383 N   0  0  0  0  0  0  0  0  0  0  0  0
   15.0599  -10.6939  -15.4046 C   0  0  0  0  0  0  0  0  0  0  0  0
   14.1504   -9.8358  -15.3015 O   0  0  0  0  0  0  0  0  0  0  0  0
   16.3756  -10.3450  -15.0682 N   0  0  0  0  0  0  0  0  0  0  0  0
   16.6381   -9.0649  -14.4714 C   0  0  0  0  0  0  0  0  0  0  0  0
   18.0708   -9.0328  -14.0762 C   0  0  0  0  0  0  0  0  0  0  0  0
   18.5859   -9.9305  -13.3572 O   0  0  0  0  0  0  0  0  0  0  0  0
   18.9562   -7.9918  -14.4801 N   0  0  0  0  0  0  0  0  0  0  0  0
   20.3983   -8.1028  -14.3475 C   0  0  1  0  0  0  0  0  0  0  0  0
   20.9601   -9.3007  -15.0233 C   0  0  0  0  0  0  0  0  0  0  0  0
   22.4157   -9.5378  -14.9009 C   0  0  0  0  0  0  0  0  0  0  0  0
   22.9826  -10.6616  -15.7019 C   0  0  0  0  0  0  0  0  0  0  0  0
   24.4686  -10.8301  -15.3324 C   0  0  0  0  0  0  0  0  0  0  0  0
   24.9803  -11.9582  -16.0884 N   0  0  0  0  0  0  0  0  0  0  0  0
   20.9791   -6.8097  -14.7718 C   0  0  0  0  0  0  0  0  0  0  0  0
   20.4124   -6.1271  -15.6591 O   0  0  0  0  0  0  0  0  0  0  0  0
   22.1487   -6.3046  -14.2241 O   0  0  0  0  0  0  0  0  0  0  0  0
  2  1  1  1
  3  2  1  0
  4  5  2  0
  4  2  1  0
  6  4  1  0
  7  6  1  0
  8  7  1  0
  9  8  2  0
 10  8  1  0
 11 12  1  6
 11 10  1  0
 12 13  1  0
 13 14  1  0
 14 15  1  0
 15 16  1  0
 17 11  1  0
 18 17  2  0
 19 17  1  0
M  END
$$$$
