AGK.pdb
     RDKit          3D

 19 18  0  0  1  0  0  0  0  0999 V2000
   17.9508  -10.8626  -17.4824 C   0  0  0  0  0  0  0  0  0  0  0  0
   19.2147  -10.0330  -17.5686 C   0  0  2  0  0  0  0  0  0  0  0  0
   20.3838  -10.8510  -17.7866 N   0  0  0  0  0  0  0  0  0  0  0  0
   19.3937   -9.2761  -16.3189 C   0  0  0  0  0  0  0  0  0  0  0  0
   18.5317   -8.4207  -16.0036 O   0  0  0  0  0  0  0  0  0  0  0  0
   20.4953   -9.4848  -15.4770 N   0  0  0  0  0  0  0  0  0  0  0  0
   20.6387   -8.6905  -14.2886 C   0  0  0  0  0  0  0  0  0  0  0  0
   21.4934   -7.5213  -14.6236 C   0  0  0  0  0  0  0  0  0  0  0  0
   22.6713   -7.6554  -15.0514 O   0  0  0  0  0  0  0  0  0  0  0  0
   21.0440   -6.1761  -14.4855 N   0  0  0  0  0  0  0  0  0  0  0  0
   21.8812   -5.0382  -14.8229 C   0  0  1  0  0  0  0  0  0  0  0  0
   21.3500   -4.2321  -15.9521 C   0  0  0  0  0  0  0  0  0  0  0  0
   21.2598   -4.8840  -17.2776 C   0  0  0  0  0  0  0  0  0  0  0  0
   20.7407   -4.0514  -18.4014 C   0  0  0  0  0  0  0  0  0  0  0  0
   20.5544   -4.9519  -19.6373 C   0  0  0  0  0  0  0  0  0  0  0  0
   19.3541   -5.7396  -19.4255 N   0  0  0  0  0  0  0  0  0  0  0  0
   22.1253   -4.2864  -13.5721 C   0  0  0  0  0  0  0  0  0  0  0  0
   21.3949   -4.4793  -12.5702 O   0  0  0  0  0  0  0  0  0  0  0  0
   23.1455   -3.3550  -13.4515 O   0  0  0  0  0  0  0  0  0  0  0  0
  2  1  1  1
  3  2  1  0
  4  5  2  0
  4  2  1  0
  6  4  1  0
  7  6  1  0
  8  7  1  0
  9  8  2  0
 10  8  1  0
 11 12  1  6
 11 10  1  0
 12 13  1  0
 13 14  1  0
 14 15  1  0
 15 16  1  0
 17 11  1  0
 18 17  2  0
 19 17  1  0
M  END
$$$$
