AGK.pdb
     RDKit          3D

 19 18  0  0  1  0  0  0  0  0999 V2000
   30.0980  -18.9727  -16.1839 C   0  0  0  0  0  0  0  0  0  0  0  0
   28.9164  -18.7484  -17.1039 C   0  0  2  0  0  0  0  0  0  0  0  0
   29.2033  -17.7661  -18.1219 N   0  0  0  0  0  0  0  0  0  0  0  0
   27.7595  -18.2903  -16.3176 C   0  0  0  0  0  0  0  0  0  0  0  0
   27.2401  -19.0805  -15.4930 O   0  0  0  0  0  0  0  0  0  0  0  0
   27.2260  -17.0021  -16.4651 N   0  0  0  0  0  0  0  0  0  0  0  0
   26.0668  -16.6244  -15.7053 C   0  0  0  0  0  0  0  0  0  0  0  0
   24.8643  -17.0444  -16.4718 C   0  0  0  0  0  0  0  0  0  0  0  0
   24.9500  -17.5737  -17.6124 O   0  0  0  0  0  0  0  0  0  0  0  0
   23.5393  -16.8790  -15.9741 N   0  0  0  0  0  0  0  0  0  0  0  0
   22.3773  -17.4096  -16.6654 C   0  0  1  0  0  0  0  0  0  0  0  0
   21.1733  -17.5082  -15.8006 C   0  0  0  0  0  0  0  0  0  0  0  0
   19.9260  -18.0133  -16.4162 C   0  0  0  0  0  0  0  0  0  0  0  0
   18.7347  -18.1252  -15.5251 C   0  0  0  0  0  0  0  0  0  0  0  0
   17.5728  -18.7384  -16.3295 C   0  0  0  0  0  0  0  0  0  0  0  0
   16.4059  -18.7532  -15.4669 N   0  0  0  0  0  0  0  0  0  0  0  0
   22.2017  -16.6162  -17.9018 C   0  0  0  0  0  0  0  0  0  0  0  0
   21.7472  -17.1591  -18.9378 O   0  0  0  0  0  0  0  0  0  0  0  0
   22.5246  -15.2695  -17.9732 O   0  0  0  0  0  0  0  0  0  0  0  0
  2  1  1  1
  3  2  1  0
  4  5  2  0
  4  2  1  0
  6  4  1  0
  7  6  1  0
  8  7  1  0
  9  8  2  0
 10  8  1  0
 11 12  1  1
 11 10  1  0
 12 13  1  0
 13 14  1  0
 14 15  1  0
 15 16  1  0
 17 11  1  0
 18 17  2  0
 19 17  1  0
M  END
$$$$
