QEY.pdb
     RDKit          3D

 31 31  0  0  1  0  0  0  0  0999 V2000
   26.3309  -19.5017  -17.6850 N   0  0  0  0  0  0  0  0  0  0  0  0
   27.4999  -19.6239  -16.9195 C   0  0  0  0  0  0  0  0  0  0  0  0
   28.5567  -19.9812  -17.4842 O   0  0  0  0  0  0  0  0  0  0  0  0
   27.4690  -19.3344  -15.4949 C   0  0  0  0  0  0  0  0  0  0  0  0
   26.1403  -19.0261  -14.8910 C   0  0  0  0  0  0  0  0  0  0  0  0
   25.4206  -20.1729  -14.2785 C   0  0  2  0  0  0  0  0  0  0  0  0
   25.5390  -21.4322  -14.9226 N   0  0  0  0  0  0  0  0  0  0  0  0
   24.0015  -19.7756  -14.0365 C   0  0  0  0  0  0  0  0  0  0  0  0
   23.8242  -18.6753  -13.4519 O   0  0  0  0  0  0  0  0  0  0  0  0
   22.8780  -20.5304  -14.4103 N   0  0  0  0  0  0  0  0  0  0  0  0
   21.4896  -20.0830  -14.1573 C   0  0  1  0  0  0  0  0  0  0  0  0
   20.7435  -19.9693  -15.4376 C   0  0  0  0  0  0  0  0  0  0  0  0
   21.0467  -18.6758  -16.1370 C   0  0  0  0  0  0  0  0  0  0  0  0
   20.3185  -17.5846  -15.4302 C   0  0  0  0  0  0  0  0  0  0  0  0
   19.2730  -17.7453  -14.7615 O   0  0  0  0  0  0  0  0  0  0  0  0
   20.8911  -21.0875  -13.2401 C   0  0  0  0  0  0  0  0  0  0  0  0
   21.1941  -22.3025  -13.2802 O   0  0  0  0  0  0  0  0  0  0  0  0
   20.8369  -16.2835  -15.5165 O   0  0  0  0  0  0  0  0  0  0  0  0
   17.0521  -24.9378   -6.2396 O   0  0  0  0  0  0  0  0  0  0  0  0
   17.5231  -24.0219   -7.1656 C   0  0  0  0  0  0  0  0  0  0  0  0
   16.7302  -23.2323   -7.9410 C   0  0  0  0  0  0  0  0  0  0  0  0
   17.1932  -22.3211   -8.8621 C   0  0  0  0  0  0  0  0  0  0  0  0
   18.5682  -22.1774   -9.0323 C   0  0  0  0  0  0  0  0  0  0  0  0
   19.1943  -21.2452   -9.9799 C   0  0  0  0  0  0  0  0  0  0  0  0
   19.3546  -21.7432  -11.3739 C   0  0  2  0  0  0  0  0  0  0  0  0
   19.9315  -20.7372  -12.2499 N   0  0  0  0  0  0  0  0  0  0  0  0
   18.0581  -22.2337  -11.8871 C   0  0  0  0  0  0  0  0  0  0  0  0
   17.6538  -23.5614  -11.7323 O   0  0  0  0  0  0  0  0  0  0  0  0
   19.4005  -22.9840   -8.2407 C   0  0  0  0  0  0  0  0  0  0  0  0
   18.9020  -23.8865   -7.3277 C   0  0  0  0  0  0  0  0  0  0  0  0
   17.2533  -21.4904  -12.4867 O   0  0  0  0  0  0  0  0  0  0  0  0
  2  1  1  0
  3  2  2  0
  4  2  1  0
  5  4  1  0
  6  7  1  6
  6  5  1  0
  8  6  1  0
  9  8  2  0
 10  8  1  0
 11 10  1  0
 11 12  1  6
 13 12  1  0
 14 13  1  0
 14 15  2  0
 16 26  1  0
 16 11  1  0
 17 16  2  0
 18 14  1  0
 20 21  2  0
 20 19  1  0
 22 21  1  0
 23 22  2  0
 24 23  1  0
 25 24  1  1
 25 26  1  0
 27 28  1  0
 27 25  1  0
 29 23  1  0
 29 30  2  0
 30 20  1  0
 31 27  2  0
M  END
$$$$
