QEY.pdb
     RDKit          3D

 31 31  0  0  1  0  0  0  0  0999 V2000
   26.6822  -22.3683  -16.2748 N   0  0  0  0  0  0  0  0  0  0  0  0
   27.9355  -22.4656  -16.8970 C   0  0  0  0  0  0  0  0  0  0  0  0
   28.3095  -23.5770  -17.3309 O   0  0  0  0  0  0  0  0  0  0  0  0
   28.7742  -21.2851  -17.0302 C   0  0  0  0  0  0  0  0  0  0  0  0
   28.2809  -20.0247  -16.4031 C   0  0  0  0  0  0  0  0  0  0  0  0
   27.4690  -19.1369  -17.2752 C   0  0  2  0  0  0  0  0  0  0  0  0
   28.1215  -18.0116  -17.8431 N   0  0  0  0  0  0  0  0  0  0  0  0
   26.2109  -18.7767  -16.5558 C   0  0  0  0  0  0  0  0  0  0  0  0
   26.3320  -17.9809  -15.5883 O   0  0  0  0  0  0  0  0  0  0  0  0
   24.9312  -19.2551  -16.8804 N   0  0  0  0  0  0  0  0  0  0  0  0
   23.7159  -18.8734  -16.1260 C   0  0  1  0  0  0  0  0  0  0  0  0
   22.7263  -18.2343  -17.0322 C   0  0  0  0  0  0  0  0  0  0  0  0
   23.1458  -16.8431  -17.4099 C   0  0  0  0  0  0  0  0  0  0  0  0
   22.0776  -16.2527  -18.2650 C   0  0  0  0  0  0  0  0  0  0  0  0
   21.8373  -16.6003  -19.4428 O   0  0  0  0  0  0  0  0  0  0  0  0
   23.1981  -20.1245  -15.5137 C   0  0  0  0  0  0  0  0  0  0  0  0
   23.4963  -21.2614  -15.9478 O   0  0  0  0  0  0  0  0  0  0  0  0
   21.2818  -15.2356  -17.7161 O   0  0  0  0  0  0  0  0  0  0  0  0
   25.6780  -19.1997   -8.8387 O   0  0  0  0  0  0  0  0  0  0  0  0
   25.1255  -19.8750   -9.9143 C   0  0  0  0  0  0  0  0  0  0  0  0
   25.7532  -20.0712  -11.1063 C   0  0  0  0  0  0  0  0  0  0  0  0
   25.2087  -20.7414  -12.1775 C   0  0  0  0  0  0  0  0  0  0  0  0
   23.9240  -21.2663  -12.0589 C   0  0  0  0  0  0  0  0  0  0  0  0
   23.2257  -22.0003  -13.1233 C   0  0  0  0  0  0  0  0  0  0  0  0
   22.0094  -21.3440  -13.6771 C   0  0  2  0  0  0  0  0  0  0  0  0
   22.3272  -20.1174  -14.3888 N   0  0  0  0  0  0  0  0  0  0  0  0
   21.0268  -21.1090  -12.5981 C   0  0  0  0  0  0  0  0  0  0  0  0
   20.5565  -19.8310  -12.2891 O   0  0  0  0  0  0  0  0  0  0  0  0
   23.2622  -21.0732  -10.8364 C   0  0  0  0  0  0  0  0  0  0  0  0
   23.8382  -20.3965   -9.7842 C   0  0  0  0  0  0  0  0  0  0  0  0
   20.5633  -22.0378  -11.9036 O   0  0  0  0  0  0  0  0  0  0  0  0
  2  1  1  0
  3  2  2  0
  4  2  1  0
  5  4  1  0
  6  7  1  1
  6  5  1  0
  8  6  1  0
  9  8  2  0
 10  8  1  0
 11 10  1  0
 11 12  1  6
 13 12  1  0
 14 13  1  0
 14 15  2  0
 16 26  1  0
 16 11  1  0
 17 16  2  0
 18 14  1  0
 20 21  2  0
 20 19  1  0
 22 21  1  0
 23 22  2  0
 24 23  1  0
 25 24  1  1
 25 26  1  0
 27 28  1  0
 27 25  1  0
 29 23  1  0
 29 30  2  0
 30 20  1  0
 31 27  2  0
M  END
$$$$
