QEY.pdb
     RDKit          3D

 31 31  0  0  1  0  0  0  0  0999 V2000
   19.1445  -21.4752  -18.5311 N   0  0  0  0  0  0  0  0  0  0  0  0
   18.6080  -20.4633  -17.7214 C   0  0  0  0  0  0  0  0  0  0  0  0
   18.5399  -19.2999  -18.1747 O   0  0  0  0  0  0  0  0  0  0  0  0
   18.1408  -20.7767  -16.3806 C   0  0  0  0  0  0  0  0  0  0  0  0
   19.1107  -21.4342  -15.4575 C   0  0  0  0  0  0  0  0  0  0  0  0
   20.0115  -20.5249  -14.7027 C   0  0  2  0  0  0  0  0  0  0  0  0
   19.7149  -19.1374  -14.7423 N   0  0  0  0  0  0  0  0  0  0  0  0
   21.4247  -20.8275  -15.0789 C   0  0  0  0  0  0  0  0  0  0  0  0
   21.7432  -22.0447  -15.1103 O   0  0  0  0  0  0  0  0  0  0  0  0
   22.3988  -19.8664  -15.3937 N   0  0  0  0  0  0  0  0  0  0  0  0
   23.7983  -20.2193  -15.7232 C   0  0  1  0  0  0  0  0  0  0  0  0
   24.2246  -19.5285  -16.9682 C   0  0  0  0  0  0  0  0  0  0  0  0
   23.3173  -19.8587  -18.1178 C   0  0  0  0  0  0  0  0  0  0  0  0
   23.8650  -19.2093  -19.3422 C   0  0  0  0  0  0  0  0  0  0  0  0
   24.8941  -18.4979  -19.3691 O   0  0  0  0  0  0  0  0  0  0  0  0
   24.6142  -19.8214  -14.5466 C   0  0  0  0  0  0  0  0  0  0  0  0
   24.4457  -18.7351  -13.9454 O   0  0  0  0  0  0  0  0  0  0  0  0
   23.1834  -19.4060  -20.5528 O   0  0  0  0  0  0  0  0  0  0  0  0
   26.9761  -19.6284   -6.3517 O   0  0  0  0  0  0  0  0  0  0  0  0
   26.4988  -19.8769   -7.6278 C   0  0  0  0  0  0  0  0  0  0  0  0
   25.8138  -20.9963   -7.9903 C   0  0  0  0  0  0  0  0  0  0  0  0
   25.3376  -21.2478   -9.2564 C   0  0  0  0  0  0  0  0  0  0  0  0
   25.5592  -20.3046  -10.2571 C   0  0  0  0  0  0  0  0  0  0  0  0
   25.1075  -20.4483  -11.6479 C   0  0  0  0  0  0  0  0  0  0  0  0
   26.1756  -20.4296  -12.6850 C   0  0  2  0  0  0  0  0  0  0  0  0
   25.6442  -20.6493  -14.0198 N   0  0  0  0  0  0  0  0  0  0  0  0
   27.2247  -21.4146  -12.3472 C   0  0  0  0  0  0  0  0  0  0  0  0
   28.5384  -21.0323  -12.0680 O   0  0  0  0  0  0  0  0  0  0  0  0
   26.2639  -19.1443   -9.9006 C   0  0  0  0  0  0  0  0  0  0  0  0
   26.7266  -18.9254   -8.6221 C   0  0  0  0  0  0  0  0  0  0  0  0
   26.9958  -22.6412  -12.2929 O   0  0  0  0  0  0  0  0  0  0  0  0
  2  1  1  0
  3  2  2  0
  4  2  1  0
  5  4  1  0
  6  7  1  6
  6  5  1  0
  8  6  1  0
  9  8  2  0
 10  8  1  0
 11 10  1  0
 11 12  1  6
 13 12  1  0
 14 13  1  0
 14 15  2  0
 16 26  1  0
 16 11  1  0
 17 16  2  0
 18 14  1  0
 20 21  2  0
 20 19  1  0
 22 21  1  0
 23 22  2  0
 24 23  1  0
 25 24  1  1
 25 26  1  0
 27 28  1  0
 27 25  1  0
 29 23  1  0
 29 30  2  0
 30 20  1  0
 31 27  2  0
M  END
$$$$
