QEY.pdb
     RDKit          3D

 31 31  0  0  1  0  0  0  0  0999 V2000
   21.3710  -13.0036  -20.9350 N   0  0  0  0  0  0  0  0  0  0  0  0
   20.3957  -12.1194  -20.4509 C   0  0  0  0  0  0  0  0  0  0  0  0
   20.3895  -10.9404  -20.8675 O   0  0  0  0  0  0  0  0  0  0  0  0
   19.4132  -12.5804  -19.4831 C   0  0  0  0  0  0  0  0  0  0  0  0
   19.0057  -11.6208  -18.4162 C   0  0  0  0  0  0  0  0  0  0  0  0
   19.7220  -11.7440  -17.1201 C   0  0  2  0  0  0  0  0  0  0  0  0
   19.5375  -12.9461  -16.3882 N   0  0  0  0  0  0  0  0  0  0  0  0
   19.4549  -10.5213  -16.3054 C   0  0  0  0  0  0  0  0  0  0  0  0
   18.4821  -10.5851  -15.5095 O   0  0  0  0  0  0  0  0  0  0  0  0
   20.2006   -9.3330  -16.3664 N   0  0  0  0  0  0  0  0  0  0  0  0
   19.9563   -8.1845  -15.4648 C   0  0  1  0  0  0  0  0  0  0  0  0
   21.2319   -7.4817  -15.1682 C   0  0  0  0  0  0  0  0  0  0  0  0
   21.0141   -6.3101  -14.2550 C   0  0  0  0  0  0  0  0  0  0  0  0
   22.3413   -5.7019  -13.9563 C   0  0  0  0  0  0  0  0  0  0  0  0
   23.2803   -5.6071  -14.7780 O   0  0  0  0  0  0  0  0  0  0  0  0
   18.9772   -7.3109  -16.1623 C   0  0  0  0  0  0  0  0  0  0  0  0
   19.0294   -7.0888  -17.3942 O   0  0  0  0  0  0  0  0  0  0  0  0
   22.5591   -5.1980  -12.6649 O   0  0  0  0  0  0  0  0  0  0  0  0
   11.5482   -3.0635  -18.4552 O   0  0  0  0  0  0  0  0  0  0  0  0
   12.5414   -3.7752  -17.8032 C   0  0  0  0  0  0  0  0  0  0  0  0
   13.3709   -3.2527  -16.8585 C   0  0  0  0  0  0  0  0  0  0  0  0
   14.3588   -3.9554  -16.2080 C   0  0  0  0  0  0  0  0  0  0  0  0
   14.5437   -5.3002  -16.5208 C   0  0  0  0  0  0  0  0  0  0  0  0
   15.5602   -6.1636  -15.9041 C   0  0  0  0  0  0  0  0  0  0  0  0
   16.9776   -5.8027  -16.1830 C   0  0  2  0  0  0  0  0  0  0  0  0
   17.9096   -6.6664  -15.4776 N   0  0  0  0  0  0  0  0  0  0  0  0
   17.2078   -4.3776  -15.8651 C   0  0  0  0  0  0  0  0  0  0  0  0
   17.0447   -3.3697  -16.8177 O   0  0  0  0  0  0  0  0  0  0  0  0
   13.6970   -5.8552  -17.4928 C   0  0  0  0  0  0  0  0  0  0  0  0
   12.7177   -5.1213  -18.1245 C   0  0  0  0  0  0  0  0  0  0  0  0
   17.5604   -3.9957  -14.7295 O   0  0  0  0  0  0  0  0  0  0  0  0
  2  1  1  0
  3  2  2  0
  4  2  1  0
  5  4  1  0
  6  7  1  1
  6  5  1  0
  8  6  1  0
  9  8  2  0
 10  8  1  0
 11 10  1  0
 11 12  1  6
 13 12  1  0
 14 13  1  0
 14 15  2  0
 16 26  1  0
 16 11  1  0
 17 16  2  0
 18 14  1  0
 20 21  2  0
 20 19  1  0
 22 21  1  0
 23 22  2  0
 24 23  1  0
 25 24  1  1
 25 26  1  0
 27 28  1  0
 27 25  1  0
 29 23  1  0
 29 30  2  0
 30 20  1  0
 31 27  2  0
M  END
$$$$
