QEY.pdb
     RDKit          3D

 31 31  0  0  1  0  0  0  0  0999 V2000
   23.4214  -14.0779  -20.1629 N   0  0  0  0  0  0  0  0  0  0  0  0
   22.3799  -13.2085  -20.5189 C   0  0  0  0  0  0  0  0  0  0  0  0
   21.2120  -13.4923  -20.1740 O   0  0  0  0  0  0  0  0  0  0  0  0
   22.6684  -12.0000  -21.2744 C   0  0  0  0  0  0  0  0  0  0  0  0
   22.2690  -10.7008  -20.6599 C   0  0  0  0  0  0  0  0  0  0  0  0
   23.1068  -10.2310  -19.5260 C   0  0  2  0  0  0  0  0  0  0  0  0
   23.4126  -11.1743  -18.5105 N   0  0  0  0  0  0  0  0  0  0  0  0
   22.5212   -8.9672  -18.9874 C   0  0  0  0  0  0  0  0  0  0  0  0
   21.3679   -8.6710  -19.3947 O   0  0  0  0  0  0  0  0  0  0  0  0
   23.1570   -8.1080  -18.0767 N   0  0  0  0  0  0  0  0  0  0  0  0
   22.5082   -6.8948  -17.5300 C   0  0  1  0  0  0  0  0  0  0  0  0
   22.5900   -6.8909  -16.0460 C   0  0  0  0  0  0  0  0  0  0  0  0
   21.9768   -5.6496  -15.4654 C   0  0  0  0  0  0  0  0  0  0  0  0
   22.1930   -5.6715  -13.9911 C   0  0  0  0  0  0  0  0  0  0  0  0
   23.0690   -5.0088  -13.3917 O   0  0  0  0  0  0  0  0  0  0  0  0
   23.2133   -5.7372  -18.1393 C   0  0  0  0  0  0  0  0  0  0  0  0
   24.3942   -5.8080  -18.5519 O   0  0  0  0  0  0  0  0  0  0  0  0
   21.3585   -6.4905  -13.2153 O   0  0  0  0  0  0  0  0  0  0  0  0
   26.4690    0.2189  -23.3518 O   0  0  0  0  0  0  0  0  0  0  0  0
   25.8570   -0.7354  -22.5563 C   0  0  0  0  0  0  0  0  0  0  0  0
   26.1259   -0.9257  -21.2353 C   0  0  0  0  0  0  0  0  0  0  0  0
   25.5208   -1.8721  -20.4409 C   0  0  0  0  0  0  0  0  0  0  0  0
   24.5603   -2.7083  -21.0053 C   0  0  0  0  0  0  0  0  0  0  0  0
   23.8406   -3.7590  -20.2725 C   0  0  0  0  0  0  0  0  0  0  0  0
   23.2894   -3.3672  -18.9460 C   0  0  2  0  0  0  0  0  0  0  0  0
   22.5938   -4.4664  -18.2978 N   0  0  0  0  0  0  0  0  0  0  0  0
   22.4190   -2.1814  -19.0912 C   0  0  0  0  0  0  0  0  0  0  0  0
   22.9337   -0.8839  -19.1275 O   0  0  0  0  0  0  0  0  0  0  0  0
   24.2707   -2.5258  -22.3665 C   0  0  0  0  0  0  0  0  0  0  0  0
   24.8966   -1.5673  -23.1322 C   0  0  0  0  0  0  0  0  0  0  0  0
   21.1772   -2.2730  -19.1890 O   0  0  0  0  0  0  0  0  0  0  0  0
  2  1  1  0
  3  2  2  0
  4  2  1  0
  5  4  1  0
  6  7  1  1
  6  5  1  0
  8  6  1  0
  9  8  2  0
 10  8  1  0
 11 10  1  0
 11 12  1  1
 13 12  1  0
 14 13  1  0
 14 15  2  0
 16 26  1  0
 16 11  1  0
 17 16  2  0
 18 14  1  0
 20 21  2  0
 20 19  1  0
 22 21  1  0
 23 22  2  0
 24 23  1  0
 25 24  1  6
 25 26  1  0
 27 28  1  0
 27 25  1  0
 29 23  1  0
 29 30  2  0
 30 20  1  0
 31 27  2  0
M  END
$$$$
