QEY.pdb
     RDKit          3D

 31 31  0  0  1  0  0  0  0  0999 V2000
   18.2231  -14.7462  -17.0391 N   0  0  0  0  0  0  0  0  0  0  0  0
   19.3525  -14.0176  -16.6381 C   0  0  0  0  0  0  0  0  0  0  0  0
   19.5137  -13.7745  -15.4222 O   0  0  0  0  0  0  0  0  0  0  0  0
   20.3125  -13.5610  -17.6303 C   0  0  0  0  0  0  0  0  0  0  0  0
   20.5936  -12.0969  -17.6830 C   0  0  0  0  0  0  0  0  0  0  0  0
   19.5978  -11.2677  -18.4103 C   0  0  2  0  0  0  0  0  0  0  0  0
   19.5856  -11.3612  -19.8265 N   0  0  0  0  0  0  0  0  0  0  0  0
   19.6969   -9.8598  -17.9222 C   0  0  0  0  0  0  0  0  0  0  0  0
   20.7386   -9.2316  -18.2447 O   0  0  0  0  0  0  0  0  0  0  0  0
   18.7267   -9.2053  -17.1461 N   0  0  0  0  0  0  0  0  0  0  0  0
   18.8268   -7.7762  -16.7731 C   0  0  1  0  0  0  0  0  0  0  0  0
   17.4755   -7.2166  -16.5089 C   0  0  0  0  0  0  0  0  0  0  0  0
   17.5506   -5.7814  -16.0747 C   0  0  0  0  0  0  0  0  0  0  0  0
   16.1619   -5.2948  -15.8397 C   0  0  0  0  0  0  0  0  0  0  0  0
   15.3770   -4.9241  -16.7410 O   0  0  0  0  0  0  0  0  0  0  0  0
   19.7068   -7.7206  -15.5769 C   0  0  0  0  0  0  0  0  0  0  0  0
   19.5677   -8.4937  -14.6008 O   0  0  0  0  0  0  0  0  0  0  0  0
   15.6959   -5.2470  -14.5169 O   0  0  0  0  0  0  0  0  0  0  0  0
   25.7836   -5.8156  -19.1949 O   0  0  0  0  0  0  0  0  0  0  0  0
   25.1002   -6.1639  -18.0418 C   0  0  0  0  0  0  0  0  0  0  0  0
   24.9407   -5.3480  -16.9638 C   0  0  0  0  0  0  0  0  0  0  0  0
   24.2627   -5.6893  -15.8162 C   0  0  0  0  0  0  0  0  0  0  0  0
   23.6890   -6.9554  -15.7263 C   0  0  0  0  0  0  0  0  0  0  0  0
   22.9415   -7.4471  -14.5608 C   0  0  0  0  0  0  0  0  0  0  0  0
   21.6391   -6.7774  -14.2924 C   0  0  2  0  0  0  0  0  0  0  0  0
   20.7714   -6.7844  -15.4582 N   0  0  0  0  0  0  0  0  0  0  0  0
   21.8702   -5.4054  -13.7933 C   0  0  0  0  0  0  0  0  0  0  0  0
   21.3869   -4.2808  -14.4653 O   0  0  0  0  0  0  0  0  0  0  0  0
   23.8439   -7.8098  -16.8290 C   0  0  0  0  0  0  0  0  0  0  0  0
   24.5298   -7.4346  -17.9628 C   0  0  0  0  0  0  0  0  0  0  0  0
   22.5094   -5.1752  -12.7453 O   0  0  0  0  0  0  0  0  0  0  0  0
  2  1  1  0
  3  2  2  0
  4  2  1  0
  5  4  1  0
  6  7  1  6
  6  5  1  0
  8  6  1  0
  9  8  2  0
 10  8  1  0
 11 10  1  0
 11 12  1  1
 13 12  1  0
 14 13  1  0
 14 15  2  0
 16 26  1  0
 16 11  1  0
 17 16  2  0
 18 14  1  0
 20 21  2  0
 20 19  1  0
 22 21  1  0
 23 22  2  0
 24 23  1  0
 25 24  1  6
 25 26  1  0
 27 28  1  0
 27 25  1  0
 29 23  1  0
 29 30  2  0
 30 20  1  0
 31 27  2  0
M  END
$$$$
