QEY.pdb
     RDKit          3D

 31 31  0  0  1  0  0  0  0  0999 V2000
   28.3168  -27.9154  -20.4577 N   0  0  0  0  0  0  0  0  0  0  0  0
   27.9670  -29.2158  -20.0653 C   0  0  0  0  0  0  0  0  0  0  0  0
   28.1085  -30.1517  -20.8824 O   0  0  0  0  0  0  0  0  0  0  0  0
   27.4520  -29.4571  -18.7270 C   0  0  0  0  0  0  0  0  0  0  0  0
   27.2877  -28.2719  -17.8363 C   0  0  0  0  0  0  0  0  0  0  0  0
   28.5430  -27.6394  -17.3544 C   0  0  2  0  0  0  0  0  0  0  0  0
   29.4558  -28.4648  -16.6471 N   0  0  0  0  0  0  0  0  0  0  0  0
   28.1977  -26.3889  -16.6148 C   0  0  0  0  0  0  0  0  0  0  0  0
   28.1966  -26.4681  -15.3588 O   0  0  0  0  0  0  0  0  0  0  0  0
   27.8826  -25.1586  -17.2140 N   0  0  0  0  0  0  0  0  0  0  0  0
   27.6570  -23.9202  -16.4348 C   0  0  1  0  0  0  0  0  0  0  0  0
   28.4875  -22.8126  -16.9755 C   0  0  0  0  0  0  0  0  0  0  0  0
   28.1010  -22.4745  -18.3863 C   0  0  0  0  0  0  0  0  0  0  0  0
   28.9642  -21.3505  -18.8469 C   0  0  0  0  0  0  0  0  0  0  0  0
   28.9136  -20.1847  -18.3950 O   0  0  0  0  0  0  0  0  0  0  0  0
   26.2017  -23.6332  -16.5247 C   0  0  0  0  0  0  0  0  0  0  0  0
   25.5320  -23.8615  -17.5587 O   0  0  0  0  0  0  0  0  0  0  0  0
   29.9018  -21.6118  -19.8577 O   0  0  0  0  0  0  0  0  0  0  0  0
   17.8035  -21.8675  -14.1624 O   0  0  0  0  0  0  0  0  0  0  0  0
   19.1866  -21.9276  -14.2004 C   0  0  0  0  0  0  0  0  0  0  0  0
   19.9975  -20.8667  -14.4660 C   0  0  0  0  0  0  0  0  0  0  0  0
   21.3717  -20.9213  -14.5047 C   0  0  0  0  0  0  0  0  0  0  0  0
   22.0029  -22.1383  -14.2578 C   0  0  0  0  0  0  0  0  0  0  0  0
   23.4589  -22.3355  -14.2697 C   0  0  0  0  0  0  0  0  0  0  0  0
   24.0382  -22.8353  -15.5470 C   0  0  2  0  0  0  0  0  0  0  0  0
   25.4669  -23.0794  -15.4397 N   0  0  0  0  0  0  0  0  0  0  0  0
   23.7269  -21.8954  -16.6446 C   0  0  0  0  0  0  0  0  0  0  0  0
   22.6264  -22.0755  -17.4851 O   0  0  0  0  0  0  0  0  0  0  0  0
   21.1818  -23.2427  -13.9822 C   0  0  0  0  0  0  0  0  0  0  0  0
   19.8080  -23.1516  -13.9516 C   0  0  0  0  0  0  0  0  0  0  0  0
   24.4288  -20.8899  -16.8815 O   0  0  0  0  0  0  0  0  0  0  0  0
  2  1  1  0
  3  2  2  0
  4  2  1  0
  5  4  1  0
  6  7  1  1
  6  5  1  0
  8  6  1  0
  9  8  2  0
 10  8  1  0
 11 10  1  0
 11 12  1  6
 13 12  1  0
 14 13  1  0
 14 15  2  0
 16 26  1  0
 16 11  1  0
 17 16  2  0
 18 14  1  0
 20 21  2  0
 20 19  1  0
 22 21  1  0
 23 22  2  0
 24 23  1  0
 25 24  1  1
 25 26  1  0
 27 28  1  0
 27 25  1  0
 29 23  1  0
 29 30  2  0
 30 20  1  0
 31 27  2  0
M  END
$$$$
