QEY.pdb
     RDKit          3D

 31 31  0  0  1  0  0  0  0  0999 V2000
   28.4219  -19.0364  -15.6877 N   0  0  0  0  0  0  0  0  0  0  0  0
   28.7507  -18.3217  -16.8489 C   0  0  0  0  0  0  0  0  0  0  0  0
   29.8446  -18.5509  -17.4095 O   0  0  0  0  0  0  0  0  0  0  0  0
   27.8244  -17.3355  -17.3818 C   0  0  0  0  0  0  0  0  0  0  0  0
   26.5502  -17.1244  -16.6354 C   0  0  0  0  0  0  0  0  0  0  0  0
   25.6992  -18.3275  -16.4449 C   0  0  2  0  0  0  0  0  0  0  0  0
   25.7528  -19.3266  -17.4517 N   0  0  0  0  0  0  0  0  0  0  0  0
   24.3057  -17.8866  -16.1381 C   0  0  0  0  0  0  0  0  0  0  0  0
   24.1866  -16.9863  -15.2667 O   0  0  0  0  0  0  0  0  0  0  0  0
   23.1466  -18.3974  -16.7441 N   0  0  0  0  0  0  0  0  0  0  0  0
   21.7829  -17.9739  -16.3533 C   0  0  1  0  0  0  0  0  0  0  0  0
   20.8715  -18.0250  -17.5262 C   0  0  0  0  0  0  0  0  0  0  0  0
   21.1828  -16.9359  -18.5116 C   0  0  0  0  0  0  0  0  0  0  0  0
   20.6401  -15.6560  -17.9749 C   0  0  0  0  0  0  0  0  0  0  0  0
   21.2208  -14.5502  -18.0523 O   0  0  0  0  0  0  0  0  0  0  0  0
   21.3588  -18.8937  -15.2658 C   0  0  0  0  0  0  0  0  0  0  0  0
   21.6949  -20.1002  -15.2337 O   0  0  0  0  0  0  0  0  0  0  0  0
   19.3904  -15.6865  -17.3374 O   0  0  0  0  0  0  0  0  0  0  0  0
   15.0705  -15.5218  -12.1536 O   0  0  0  0  0  0  0  0  0  0  0  0
   16.2525  -16.2419  -12.1044 C   0  0  0  0  0  0  0  0  0  0  0  0
   17.4623  -15.7667  -12.5096 C   0  0  0  0  0  0  0  0  0  0  0  0
   18.6392  -16.4779  -12.4626 C   0  0  0  0  0  0  0  0  0  0  0  0
   18.6178  -17.7803  -11.9690 C   0  0  0  0  0  0  0  0  0  0  0  0
   19.7988  -18.6482  -11.8657 C   0  0  0  0  0  0  0  0  0  0  0  0
   20.1837  -19.3750  -13.1069 C   0  0  2  0  0  0  0  0  0  0  0  0
   20.5413  -18.4659  -14.1829 N   0  0  0  0  0  0  0  0  0  0  0  0
   19.0999  -20.2961  -13.5093 C   0  0  0  0  0  0  0  0  0  0  0  0
   18.3721  -20.1149  -14.6872 O   0  0  0  0  0  0  0  0  0  0  0  0
   17.3785  -18.2862  -11.5467 C   0  0  0  0  0  0  0  0  0  0  0  0
   16.2192  -17.5453  -11.6082 C   0  0  0  0  0  0  0  0  0  0  0  0
   18.7747  -21.2856  -12.8201 O   0  0  0  0  0  0  0  0  0  0  0  0
  2  1  1  0
  3  2  2  0
  4  2  1  0
  5  4  1  0
  6  7  1  6
  6  5  1  0
  8  6  1  0
  9  8  2  0
 10  8  1  0
 11 10  1  0
 11 12  1  6
 13 12  1  0
 14 13  1  0
 14 15  2  0
 16 26  1  0
 16 11  1  0
 17 16  2  0
 18 14  1  0
 20 21  2  0
 20 19  1  0
 22 21  1  0
 23 22  2  0
 24 23  1  0
 25 24  1  1
 25 26  1  0
 27 28  1  0
 27 25  1  0
 29 23  1  0
 29 30  2  0
 30 20  1  0
 31 27  2  0
M  END
$$$$
