QEY.pdb
     RDKit          3D

 31 31  0  0  1  0  0  0  0  0999 V2000
   16.5158  -11.8276  -14.6567 N   0  0  0  0  0  0  0  0  0  0  0  0
   16.9538  -13.1481  -14.8346 C   0  0  0  0  0  0  0  0  0  0  0  0
   16.2181  -14.0847  -14.4537 O   0  0  0  0  0  0  0  0  0  0  0  0
   18.2429  -13.4086  -15.4549 C   0  0  0  0  0  0  0  0  0  0  0  0
   19.0292  -12.2271  -15.9141 C   0  0  0  0  0  0  0  0  0  0  0  0
   18.6041  -11.6221  -17.2031 C   0  0  2  0  0  0  0  0  0  0  0  0
   18.7001  -12.4333  -18.3639 N   0  0  0  0  0  0  0  0  0  0  0  0
   19.2822  -10.3009  -17.3604 C   0  0  0  0  0  0  0  0  0  0  0  0
   20.5265  -10.3331  -17.5461 O   0  0  0  0  0  0  0  0  0  0  0  0
   18.6381   -9.0538  -17.3168 N   0  0  0  0  0  0  0  0  0  0  0  0
   19.3542   -7.7729  -17.5119 C   0  0  1  0  0  0  0  0  0  0  0  0
   18.4222   -6.7341  -18.0231 C   0  0  0  0  0  0  0  0  0  0  0  0
   19.0996   -5.3997  -18.1435 C   0  0  0  0  0  0  0  0  0  0  0  0
   18.1088   -4.4231  -18.6774 C   0  0  0  0  0  0  0  0  0  0  0  0
   18.3786   -3.5083  -19.4875 O   0  0  0  0  0  0  0  0  0  0  0  0
   19.9314   -7.4151  -16.1901 C   0  0  0  0  0  0  0  0  0  0  0  0
   19.3471   -7.6627  -15.1098 O   0  0  0  0  0  0  0  0  0  0  0  0
   16.7781   -4.5322  -18.2455 O   0  0  0  0  0  0  0  0  0  0  0  0
   26.8986   -5.3308  -18.4659 O   0  0  0  0  0  0  0  0  0  0  0  0
   25.9666   -5.7690  -17.5398 C   0  0  0  0  0  0  0  0  0  0  0  0
   25.3218   -6.9664  -17.6022 C   0  0  0  0  0  0  0  0  0  0  0  0
   24.3954   -7.4062  -16.6850 C   0  0  0  0  0  0  0  0  0  0  0  0
   24.0769   -6.5855  -15.6055 C   0  0  0  0  0  0  0  0  0  0  0  0
   23.1066   -6.9315  -14.5577 C   0  0  0  0  0  0  0  0  0  0  0  0
   21.7239   -6.4155  -14.7544 C   0  0  2  0  0  0  0  0  0  0  0  0
   21.1909   -6.7666  -16.0601 N   0  0  0  0  0  0  0  0  0  0  0  0
   21.6929   -4.9551  -14.5279 C   0  0  0  0  0  0  0  0  0  0  0  0
   22.0048   -4.3901  -13.2896 O   0  0  0  0  0  0  0  0  0  0  0  0
   24.7325   -5.3470  -15.5256 C   0  0  0  0  0  0  0  0  0  0  0  0
   25.6553   -4.9387  -16.4629 C   0  0  0  0  0  0  0  0  0  0  0  0
   21.3865   -4.1463  -15.4290 O   0  0  0  0  0  0  0  0  0  0  0  0
  2  1  1  0
  3  2  2  0
  4  2  1  0
  5  4  1  0
  6  7  1  6
  6  5  1  0
  8  6  1  0
  9  8  2  0
 10  8  1  0
 11 10  1  0
 11 12  1  1
 13 12  1  0
 14 13  1  0
 14 15  2  0
 16 26  1  0
 16 11  1  0
 17 16  2  0
 18 14  1  0
 20 21  2  0
 20 19  1  0
 22 21  1  0
 23 22  2  0
 24 23  1  0
 25 24  1  6
 25 26  1  0
 27 28  1  0
 27 25  1  0
 29 23  1  0
 29 30  2  0
 30 20  1  0
 31 27  2  0
M  END
$$$$
