QEY.pdb
     RDKit          3D

 31 31  0  0  1  0  0  0  0  0999 V2000
   19.2563  -11.3913  -19.4679 N   0  0  0  0  0  0  0  0  0  0  0  0
   19.7423  -12.4458  -18.6811 C   0  0  0  0  0  0  0  0  0  0  0  0
   19.1674  -13.5549  -18.7362 O   0  0  0  0  0  0  0  0  0  0  0  0
   20.8972  -12.2391  -17.8222 C   0  0  0  0  0  0  0  0  0  0  0  0
   21.5119  -10.8799  -17.8225 C   0  0  0  0  0  0  0  0  0  0  0  0
   22.3644  -10.5501  -18.9941 C   0  0  2  0  0  0  0  0  0  0  0  0
   23.4821  -11.3897  -19.2403 N   0  0  0  0  0  0  0  0  0  0  0  0
   22.7277   -9.1030  -18.9317 C   0  0  0  0  0  0  0  0  0  0  0  0
   23.8031   -8.8248  -18.3401 O   0  0  0  0  0  0  0  0  0  0  0  0
   21.9671   -8.0565  -19.4777 N   0  0  0  0  0  0  0  0  0  0  0  0
   22.3894   -6.6390  -19.4144 C   0  0  1  0  0  0  0  0  0  0  0  0
   21.7556   -5.8629  -20.5121 C   0  0  0  0  0  0  0  0  0  0  0  0
   22.4402   -6.1094  -21.8253 C   0  0  0  0  0  0  0  0  0  0  0  0
   21.7873   -5.2542  -22.8563 C   0  0  0  0  0  0  0  0  0  0  0  0
   22.2172   -4.1406  -23.2317 O   0  0  0  0  0  0  0  0  0  0  0  0
   21.9910   -6.1474  -18.0697 C   0  0  0  0  0  0  0  0  0  0  0  0
   20.8781   -6.4108  -17.5579 O   0  0  0  0  0  0  0  0  0  0  0  0
   20.6075   -5.7258  -23.4520 O   0  0  0  0  0  0  0  0  0  0  0  0
   22.6350  -11.1141  -14.2781 O   0  0  0  0  0  0  0  0  0  0  0  0
   22.7195   -9.7368  -14.3964 C   0  0  0  0  0  0  0  0  0  0  0  0
   21.7477   -8.8681  -14.0035 C   0  0  0  0  0  0  0  0  0  0  0  0
   21.8270   -7.4993  -14.1187 C   0  0  0  0  0  0  0  0  0  0  0  0
   22.9740   -6.9373  -14.6744 C   0  0  0  0  0  0  0  0  0  0  0  0
   23.1868   -5.4949  -14.8568 C   0  0  0  0  0  0  0  0  0  0  0  0
   22.4237   -4.8590  -15.9659 C   0  0  2  0  0  0  0  0  0  0  0  0
   22.8486   -5.3434  -17.2686 N   0  0  0  0  0  0  0  0  0  0  0  0
   22.5271   -3.3875  -15.8713 C   0  0  0  0  0  0  0  0  0  0  0  0
   22.1213   -2.6874  -14.7333 O   0  0  0  0  0  0  0  0  0  0  0  0
   23.9862   -7.8186  -15.0851 C   0  0  0  0  0  0  0  0  0  0  0  0
   23.8729   -9.1849  -14.9544 C   0  0  0  0  0  0  0  0  0  0  0  0
   22.9820   -2.6893  -16.8015 O   0  0  0  0  0  0  0  0  0  0  0  0
  2  1  1  0
  3  2  2  0
  4  2  1  0
  5  4  1  0
  6  7  1  1
  6  5  1  0
  8  6  1  0
  9  8  2  0
 10  8  1  0
 11 10  1  0
 11 12  1  6
 13 12  1  0
 14 13  1  0
 14 15  2  0
 16 26  1  0
 16 11  1  0
 17 16  2  0
 18 14  1  0
 20 21  2  0
 20 19  1  0
 22 21  1  0
 23 22  2  0
 24 23  1  0
 25 24  1  1
 25 26  1  0
 27 28  1  0
 27 25  1  0
 29 23  1  0
 29 30  2  0
 30 20  1  0
 31 27  2  0
M  END
$$$$
