QEY.pdb
     RDKit          3D

 31 31  0  0  1  0  0  0  0  0999 V2000
   21.8742  -13.4933  -17.2391 N   0  0  0  0  0  0  0  0  0  0  0  0
   20.7917  -14.1359  -16.6204 C   0  0  0  0  0  0  0  0  0  0  0  0
   20.9165  -15.3311  -16.2747 O   0  0  0  0  0  0  0  0  0  0  0  0
   19.5523  -13.4114  -16.3892 C   0  0  0  0  0  0  0  0  0  0  0  0
   19.5343  -11.9623  -16.7424 C   0  0  0  0  0  0  0  0  0  0  0  0
   18.2290  -11.2694  -16.5865 C   0  0  2  0  0  0  0  0  0  0  0  0
   17.1541  -11.7200  -17.3965 N   0  0  0  0  0  0  0  0  0  0  0  0
   18.4523   -9.7961  -16.6849 C   0  0  0  0  0  0  0  0  0  0  0  0
   19.0098   -9.3874  -17.7365 O   0  0  0  0  0  0  0  0  0  0  0  0
   18.0889   -8.8583  -15.7049 N   0  0  0  0  0  0  0  0  0  0  0  0
   18.3375   -7.4063  -15.8516 C   0  0  1  0  0  0  0  0  0  0  0  0
   17.0554   -6.6563  -15.8007 C   0  0  0  0  0  0  0  0  0  0  0  0
   17.2740   -5.1819  -15.9812 C   0  0  0  0  0  0  0  0  0  0  0  0
   15.9688   -4.4915  -15.7797 C   0  0  0  0  0  0  0  0  0  0  0  0
   15.8151   -3.2496  -15.7775 O   0  0  0  0  0  0  0  0  0  0  0  0
   19.2584   -7.0298  -14.7477 C   0  0  0  0  0  0  0  0  0  0  0  0
   19.3877   -7.7222  -13.7116 O   0  0  0  0  0  0  0  0  0  0  0  0
   14.8287   -5.2843  -15.5782 O   0  0  0  0  0  0  0  0  0  0  0  0
   25.2215   -7.3560  -18.3091 O   0  0  0  0  0  0  0  0  0  0  0  0
   24.4309   -7.2317  -17.1789 C   0  0  0  0  0  0  0  0  0  0  0  0
   23.5791   -8.1916  -16.7245 C   0  0  0  0  0  0  0  0  0  0  0  0
   22.7917   -8.0730  -15.6024 C   0  0  0  0  0  0  0  0  0  0  0  0
   22.8524   -6.8956  -14.8606 C   0  0  0  0  0  0  0  0  0  0  0  0
   22.0662   -6.6382  -13.6462 C   0  0  0  0  0  0  0  0  0  0  0  0
   21.0341   -5.5704  -13.7525 C   0  0  2  0  0  0  0  0  0  0  0  0
   20.0595   -5.8550  -14.7924 N   0  0  0  0  0  0  0  0  0  0  0  0
   21.6839   -4.2588  -13.9588 C   0  0  0  0  0  0  0  0  0  0  0  0
   21.4131   -3.4647  -15.0750 O   0  0  0  0  0  0  0  0  0  0  0  0
   23.7257   -5.8951  -15.3150 C   0  0  0  0  0  0  0  0  0  0  0  0
   24.4998   -6.0481  -16.4437 C   0  0  0  0  0  0  0  0  0  0  0  0
   22.5097   -3.7884  -13.1486 O   0  0  0  0  0  0  0  0  0  0  0  0
  2  1  1  0
  3  2  2  0
  4  2  1  0
  5  4  1  0
  6  7  1  6
  6  5  1  0
  8  6  1  0
  9  8  2  0
 10  8  1  0
 11 10  1  0
 11 12  1  1
 13 12  1  0
 14 13  1  0
 14 15  2  0
 16 26  1  0
 16 11  1  0
 17 16  2  0
 18 14  1  0
 20 21  2  0
 20 19  1  0
 22 21  1  0
 23 22  2  0
 24 23  1  0
 25 24  1  6
 25 26  1  0
 27 28  1  0
 27 25  1  0
 29 23  1  0
 29 30  2  0
 30 20  1  0
 31 27  2  0
M  END
$$$$
