QEY.pdb
     RDKit          3D

 31 31  0  0  1  0  0  0  0  0999 V2000
   10.1346  -11.4379  -12.7411 N   0  0  0  0  0  0  0  0  0  0  0  0
   10.4882  -10.1182  -13.0589 C   0  0  0  0  0  0  0  0  0  0  0  0
    9.5811   -9.2891  -13.2896 O   0  0  0  0  0  0  0  0  0  0  0  0
   11.8897   -9.7345  -13.1133 C   0  0  0  0  0  0  0  0  0  0  0  0
   12.8988  -10.8022  -12.8547 C   0  0  0  0  0  0  0  0  0  0  0  0
   13.3000  -11.6186  -14.0297 C   0  0  2  0  0  0  0  0  0  0  0  0
   12.7135  -12.9049  -14.1571 N   0  0  0  0  0  0  0  0  0  0  0  0
   14.7911  -11.6500  -14.1063 C   0  0  0  0  0  0  0  0  0  0  0  0
   15.3928  -12.0407  -13.0723 O   0  0  0  0  0  0  0  0  0  0  0  0
   15.5486  -11.2822  -15.2300 N   0  0  0  0  0  0  0  0  0  0  0  0
   17.0140  -11.4772  -15.3095 C   0  0  1  0  0  0  0  0  0  0  0  0
   17.3611  -12.2965  -16.4999 C   0  0  0  0  0  0  0  0  0  0  0  0
   18.8429  -12.5143  -16.6037 C   0  0  0  0  0  0  0  0  0  0  0  0
   19.1113  -13.2926  -17.8458 C   0  0  0  0  0  0  0  0  0  0  0  0
   18.9904  -12.8417  -19.0068 O   0  0  0  0  0  0  0  0  0  0  0  0
   17.6108  -10.1173  -15.3642 C   0  0  0  0  0  0  0  0  0  0  0  0
   17.0662   -9.1657  -15.9705 O   0  0  0  0  0  0  0  0  0  0  0  0
   19.5299  -14.6251  -17.7104 O   0  0  0  0  0  0  0  0  0  0  0  0
   23.2448   -3.2911  -14.1913 O   0  0  0  0  0  0  0  0  0  0  0  0
   22.5732   -4.4983  -14.0934 C   0  0  0  0  0  0  0  0  0  0  0  0
   21.5722   -4.7540  -13.2069 C   0  0  0  0  0  0  0  0  0  0  0  0
   20.9019   -5.9513  -13.1058 C   0  0  0  0  0  0  0  0  0  0  0  0
   21.2544   -6.9928  -13.9610 C   0  0  0  0  0  0  0  0  0  0  0  0
   20.6225   -8.3193  -13.9580 C   0  0  0  0  0  0  0  0  0  0  0  0
   19.4089   -8.4647  -14.8083 C   0  0  2  0  0  0  0  0  0  0  0  0
   18.8438   -9.8013  -14.7288 N   0  0  0  0  0  0  0  0  0  0  0  0
   19.7213   -8.0871  -16.2028 C   0  0  0  0  0  0  0  0  0  0  0  0
   19.4709   -6.8056  -16.6978 O   0  0  0  0  0  0  0  0  0  0  0  0
   22.2848   -6.7463  -14.8816 C   0  0  0  0  0  0  0  0  0  0  0  0
   22.9346   -5.5343  -14.9550 C   0  0  0  0  0  0  0  0  0  0  0  0
   20.2253   -8.8910  -17.0150 O   0  0  0  0  0  0  0  0  0  0  0  0
  2  1  1  0
  3  2  2  0
  4  2  1  0
  5  4  1  0
  6  7  1  1
  6  5  1  0
  8  6  1  0
  9  8  2  0
 10  8  1  0
 11 10  1  0
 11 12  1  6
 13 12  1  0
 14 13  1  0
 14 15  2  0
 16 26  1  0
 16 11  1  0
 17 16  2  0
 18 14  1  0
 20 21  2  0
 20 19  1  0
 22 21  1  0
 23 22  2  0
 24 23  1  0
 25 24  1  1
 25 26  1  0
 27 28  1  0
 27 25  1  0
 29 23  1  0
 29 30  2  0
 30 20  1  0
 31 27  2  0
M  END
$$$$
