QEY.pdb
     RDKit          3D

 31 31  0  0  1  0  0  0  0  0999 V2000
   24.8071  -24.6128  -15.9999 N   0  0  0  0  0  0  0  0  0  0  0  0
   25.1452  -23.9903  -17.2105 C   0  0  0  0  0  0  0  0  0  0  0  0
   24.3985  -23.0921  -17.6567 O   0  0  0  0  0  0  0  0  0  0  0  0
   26.3481  -24.3913  -17.9224 C   0  0  0  0  0  0  0  0  0  0  0  0
   27.3438  -23.3247  -18.2323 C   0  0  0  0  0  0  0  0  0  0  0  0
   28.0825  -22.7650  -17.0708 C   0  0  2  0  0  0  0  0  0  0  0  0
   28.5209  -23.6800  -16.0782 N   0  0  0  0  0  0  0  0  0  0  0  0
   27.2979  -21.6270  -16.5055 C   0  0  0  0  0  0  0  0  0  0  0  0
   27.4059  -21.4388  -15.2658 O   0  0  0  0  0  0  0  0  0  0  0  0
   26.4678  -20.7722  -17.2485 N   0  0  0  0  0  0  0  0  0  0  0  0
   25.8401  -19.5616  -16.6722 C   0  0  1  0  0  0  0  0  0  0  0  0
   25.8808  -18.4442  -17.6513 C   0  0  0  0  0  0  0  0  0  0  0  0
   27.2667  -17.8830  -17.7871 C   0  0  0  0  0  0  0  0  0  0  0  0
   27.2291  -16.7959  -18.8056 C   0  0  0  0  0  0  0  0  0  0  0  0
   28.1059  -16.6100  -19.6788 O   0  0  0  0  0  0  0  0  0  0  0  0
   24.4514  -19.9471  -16.3099 C   0  0  0  0  0  0  0  0  0  0  0  0
   23.8076  -20.8188  -16.9388 O   0  0  0  0  0  0  0  0  0  0  0  0
   26.1360  -15.9162  -18.7898 O   0  0  0  0  0  0  0  0  0  0  0  0
   25.0222  -25.3556  -12.8346 O   0  0  0  0  0  0  0  0  0  0  0  0
   24.3312  -24.1693  -13.0173 C   0  0  0  0  0  0  0  0  0  0  0  0
   23.0800  -24.0795  -13.5462 C   0  0  0  0  0  0  0  0  0  0  0  0
   22.3894  -22.9037  -13.7296 C   0  0  0  0  0  0  0  0  0  0  0  0
   22.9923  -21.7051  -13.3551 C   0  0  0  0  0  0  0  0  0  0  0  0
   22.3687  -20.3823  -13.4975 C   0  0  0  0  0  0  0  0  0  0  0  0
   22.4158  -19.7831  -14.8597 C   0  0  2  0  0  0  0  0  0  0  0  0
   23.7563  -19.3525  -15.2203 N   0  0  0  0  0  0  0  0  0  0  0  0
   21.4426  -18.6750  -14.9578 C   0  0  0  0  0  0  0  0  0  0  0  0
   20.0685  -18.8804  -14.8176 O   0  0  0  0  0  0  0  0  0  0  0  0
   24.2827  -21.7794  -12.8079 C   0  0  0  0  0  0  0  0  0  0  0  0
   24.9448  -22.9751  -12.6386 C   0  0  0  0  0  0  0  0  0  0  0  0
   21.7934  -17.4955  -15.1715 O   0  0  0  0  0  0  0  0  0  0  0  0
  2  1  1  0
  3  2  2  0
  4  2  1  0
  5  4  1  0
  6  7  1  1
  6  5  1  0
  8  6  1  0
  9  8  2  0
 10  8  1  0
 11 10  1  0
 11 12  1  6
 13 12  1  0
 14 13  1  0
 14 15  2  0
 16 26  1  0
 16 11  1  0
 17 16  2  0
 18 14  1  0
 20 21  2  0
 20 19  1  0
 22 21  1  0
 23 22  2  0
 24 23  1  0
 25 24  1  1
 25 26  1  0
 27 28  1  0
 27 25  1  0
 29 23  1  0
 29 30  2  0
 30 20  1  0
 31 27  2  0
M  END
$$$$
