LKE.pdb
     RDKit          3D

 27 26  0  0  1  0  0  0  0  0999 V2000
    6.9961  -12.0415   19.2166 C   0  0  0  0  0  0  0  0  0  0  0  0
    7.6075  -13.4314   19.1594 C   0  0  1  0  0  0  0  0  0  0  0  0
    7.2904  -13.9685   17.7605 C   0  0  0  0  0  0  0  0  0  0  0  0
    9.0710  -13.3283   19.3854 C   0  0  0  0  0  0  0  0  0  0  0  0
    9.6719  -14.6665   19.7161 C   0  0  2  0  0  0  0  0  0  0  0  0
    8.5432  -15.6108   19.8431 N   0  0  0  0  0  0  0  0  0  0  0  0
   10.4493  -14.6533   20.9727 C   0  0  0  0  0  0  0  0  0  0  0  0
   11.4749  -13.9471   21.0806 O   0  0  0  0  0  0  0  0  0  0  0  0
   10.0256  -15.4484   22.0614 N   0  0  0  0  0  0  0  0  0  0  0  0
   10.8031  -15.5267   23.2777 C   0  0  1  0  0  0  0  0  0  0  0  0
    9.9191  -16.1628   24.3131 C   0  0  0  0  0  0  0  0  0  0  0  0
   10.5035  -16.2570   25.6801 C   0  0  0  0  0  0  0  0  0  0  0  0
   10.5367  -17.7405   26.0537 C   0  0  0  0  0  0  0  0  0  0  0  0
   10.9789  -17.9190   27.4893 C   0  0  0  0  0  0  0  0  0  0  0  0
   10.9575  -19.3352   27.8005 N   0  0  0  0  0  0  0  0  0  0  0  0
   12.0430  -16.2816   23.0041 C   0  0  0  0  0  0  0  0  0  0  0  0
   11.9798  -17.4284   22.5480 O   0  0  0  0  0  0  0  0  0  0  0  0
   13.3036  -15.7071   23.2582 N   0  0  0  0  0  0  0  0  0  0  0  0
   14.5735  -16.3977   23.0566 C   0  0  1  0  0  0  0  0  0  0  0  0
   15.4726  -15.6639   22.1425 C   0  0  0  0  0  0  0  0  0  0  0  0
   15.0022  -15.5704   20.7424 C   0  0  0  0  0  0  0  0  0  0  0  0
   15.8946  -14.8951   19.7955 C   0  0  0  0  0  0  0  0  0  0  0  0
   17.1332  -14.9439   19.9486 O   0  0  0  0  0  0  0  0  0  0  0  0
   15.1779  -16.6516   24.3876 C   0  0  0  0  0  0  0  0  0  0  0  0
   14.6879  -16.1453   25.4149 O   0  0  0  0  0  0  0  0  0  0  0  0
   15.4061  -14.1877   18.7113 O   0  0  0  0  0  0  0  0  0  0  0  0
   16.2862  -17.4477   24.5219 O   0  0  0  0  0  0  0  0  0  0  0  0
  2  1  1  6
  3  2  1  0
  4  2  1  0
  4  5  1  0
  5  6  1  1
  7  8  2  0
  7  5  1  0
  9  7  1  0
 10  9  1  0
 10 11  1  1
 12 11  1  0
 13 12  1  0
 14 13  1  0
 15 14  1  0
 16 10  1  0
 17 16  2  0
 18 16  1  0
 19 18  1  0
 19 20  1  6
 20 21  1  0
 21 22  1  0
 22 26  1  0
 23 22  2  0
 24 27  1  0
 24 19  1  0
 25 24  2  0
M  END
$$$$
