LKE.pdb
     RDKit          3D

 27 26  0  0  1  0  0  0  0  0999 V2000
    7.4887  -11.8854   19.8720 C   0  0  0  0  0  0  0  0  0  0  0  0
    7.3029  -13.3753   19.6381 C   0  0  1  0  0  0  0  0  0  0  0  0
    8.2573  -13.7398   18.4970 C   0  0  0  0  0  0  0  0  0  0  0  0
    7.6377  -14.1085   20.8847 C   0  0  0  0  0  0  0  0  0  0  0  0
    7.3358  -15.5761   20.7574 C   0  0  2  0  0  0  0  0  0  0  0  0
    5.9505  -15.6749   20.2544 N   0  0  0  0  0  0  0  0  0  0  0  0
    7.4487  -16.3000   22.0407 C   0  0  0  0  0  0  0  0  0  0  0  0
    7.0672  -15.7708   23.1069 O   0  0  0  0  0  0  0  0  0  0  0  0
    7.9939  -17.6036   22.0587 N   0  0  0  0  0  0  0  0  0  0  0  0
    8.1136  -18.3473   23.2926 C   0  0  1  0  0  0  0  0  0  0  0  0
    7.2233  -19.5503   23.1577 C   0  0  0  0  0  0  0  0  0  0  0  0
    5.7620  -19.2623   23.1281 C   0  0  0  0  0  0  0  0  0  0  0  0
    5.0495  -20.5825   22.8265 C   0  0  0  0  0  0  0  0  0  0  0  0
    3.5739  -20.3497   22.5883 C   0  0  0  0  0  0  0  0  0  0  0  0
    2.9419  -21.6334   22.3522 N   0  0  0  0  0  0  0  0  0  0  0  0
    9.5361  -18.6775   23.5151 C   0  0  0  0  0  0  0  0  0  0  0  0
   10.1757  -19.2733   22.6414 O   0  0  0  0  0  0  0  0  0  0  0  0
   10.1762  -18.3196   24.7175 N   0  0  0  0  0  0  0  0  0  0  0  0
   11.6164  -18.4092   24.9363 C   0  0  1  0  0  0  0  0  0  0  0  0
   12.3564  -17.3284   24.2533 C   0  0  0  0  0  0  0  0  0  0  0  0
   13.8203  -17.3368   24.4709 C   0  0  0  0  0  0  0  0  0  0  0  0
   14.5898  -16.2921   23.7886 C   0  0  0  0  0  0  0  0  0  0  0  0
   14.4751  -16.1249   22.5562 O   0  0  0  0  0  0  0  0  0  0  0  0
   11.8601  -18.4467   26.3994 C   0  0  0  0  0  0  0  0  0  0  0  0
   10.9786  -18.0809   27.1999 O   0  0  0  0  0  0  0  0  0  0  0  0
   15.4603  -15.4631   24.4738 O   0  0  0  0  0  0  0  0  0  0  0  0
   13.0564  -18.8843   26.9071 O   0  0  0  0  0  0  0  0  0  0  0  0
  2  1  1  1
  3  2  1  0
  4  2  1  0
  4  5  1  0
  5  6  1  1
  7  8  2  0
  7  5  1  0
  9  7  1  0
 10  9  1  0
 10 11  1  6
 12 11  1  0
 13 12  1  0
 14 13  1  0
 15 14  1  0
 16 10  1  0
 17 16  2  0
 18 16  1  0
 19 18  1  0
 19 20  1  1
 20 21  1  0
 21 22  1  0
 22 26  1  0
 23 22  2  0
 24 27  1  0
 24 19  1  0
 25 24  2  0
M  END
$$$$
