LKE.pdb
     RDKit          3D

 27 26  0  0  1  0  0  0  0  0999 V2000
    7.4093  -12.0574   21.1873 C   0  0  0  0  0  0  0  0  0  0  0  0
    7.1866  -13.4067   20.5248 C   0  0  1  0  0  0  0  0  0  0  0  0
    7.2847  -13.1519   19.0178 C   0  0  0  0  0  0  0  0  0  0  0  0
    8.2321  -14.3536   20.9872 C   0  0  0  0  0  0  0  0  0  0  0  0
    7.9845  -15.7428   20.4675 C   0  0  2  0  0  0  0  0  0  0  0  0
    6.6907  -16.1756   21.0336 N   0  0  0  0  0  0  0  0  0  0  0  0
    9.0402  -16.6999   20.8586 C   0  0  0  0  0  0  0  0  0  0  0  0
    8.9766  -17.3092   21.9482 O   0  0  0  0  0  0  0  0  0  0  0  0
   10.1312  -16.9262   19.9894 N   0  0  0  0  0  0  0  0  0  0  0  0
   11.1784  -17.8623   20.3315 C   0  0  1  0  0  0  0  0  0  0  0  0
   11.9303  -18.1490   19.0624 C   0  0  0  0  0  0  0  0  0  0  0  0
   13.1055  -19.0529   19.2075 C   0  0  0  0  0  0  0  0  0  0  0  0
   13.6650  -19.2920   17.8035 C   0  0  0  0  0  0  0  0  0  0  0  0
   14.8870  -20.1819   17.8609 C   0  0  0  0  0  0  0  0  0  0  0  0
   15.3362  -20.4280   16.5042 N   0  0  0  0  0  0  0  0  0  0  0  0
   12.0117  -17.2767   21.4014 C   0  0  0  0  0  0  0  0  0  0  0  0
   12.2974  -16.0746   21.3735 O   0  0  0  0  0  0  0  0  0  0  0  0
   12.4874  -18.0759   22.4590 N   0  0  0  0  0  0  0  0  0  0  0  0
   13.1877  -17.5542   23.6284 C   0  0  1  0  0  0  0  0  0  0  0  0
   12.9384  -18.3630   24.8392 C   0  0  0  0  0  0  0  0  0  0  0  0
   13.7302  -17.9730   26.0272 C   0  0  0  0  0  0  0  0  0  0  0  0
   13.4619  -18.7120   27.2645 C   0  0  0  0  0  0  0  0  0  0  0  0
   12.5842  -19.6000   27.2932 O   0  0  0  0  0  0  0  0  0  0  0  0
   14.6281  -17.4397   23.2915 C   0  0  0  0  0  0  0  0  0  0  0  0
   15.1490  -18.2070   22.4599 O   0  0  0  0  0  0  0  0  0  0  0  0
   14.1608  -18.4578   28.4313 O   0  0  0  0  0  0  0  0  0  0  0  0
   15.4204  -16.4897   23.8831 O   0  0  0  0  0  0  0  0  0  0  0  0
  2  1  1  1
  3  2  1  0
  4  2  1  0
  4  5  1  0
  5  6  1  1
  7  8  2  0
  7  5  1  0
  9  7  1  0
 10  9  1  0
 10 11  1  6
 12 11  1  0
 13 12  1  0
 14 13  1  0
 15 14  1  0
 16 10  1  0
 17 16  2  0
 18 16  1  0
 19 18  1  0
 19 20  1  1
 20 21  1  0
 21 22  1  0
 22 26  1  0
 23 22  2  0
 24 27  1  0
 24 19  1  0
 25 24  2  0
M  END
$$$$
