LKE.pdb
     RDKit          3D

 27 26  0  0  1  0  0  0  0  0999 V2000
    6.6996  -11.6733   27.0894 C   0  0  0  0  0  0  0  0  0  0  0  0
    6.0687  -12.7899   26.2745 C   0  0  1  0  0  0  0  0  0  0  0  0
    5.3905  -12.1048   25.0844 C   0  0  0  0  0  0  0  0  0  0  0  0
    7.1305  -13.7280   25.8315 C   0  0  0  0  0  0  0  0  0  0  0  0
    6.5822  -14.7855   24.9138 C   0  0  2  0  0  0  0  0  0  0  0  0
    5.6186  -15.5712   25.7113 N   0  0  0  0  0  0  0  0  0  0  0  0
    7.6282  -15.6817   24.3790 C   0  0  0  0  0  0  0  0  0  0  0  0
    7.9333  -16.7349   24.9791 O   0  0  0  0  0  0  0  0  0  0  0  0
    8.2882  -15.3414   23.1767 N   0  0  0  0  0  0  0  0  0  0  0  0
    9.2456  -16.2383   22.5692 C   0  0  1  0  0  0  0  0  0  0  0  0
    9.2932  -15.8908   21.1080 C   0  0  0  0  0  0  0  0  0  0  0  0
    8.2295  -16.5114   20.2697 C   0  0  0  0  0  0  0  0  0  0  0  0
    8.4576  -16.0398   18.8320 C   0  0  0  0  0  0  0  0  0  0  0  0
    7.3291  -16.4983   17.9351 C   0  0  0  0  0  0  0  0  0  0  0  0
    7.2951  -17.9480   17.9497 N   0  0  0  0  0  0  0  0  0  0  0  0
   10.5423  -16.0928   23.2615 C   0  0  0  0  0  0  0  0  0  0  0  0
   11.0325  -14.9702   23.4250 O   0  0  0  0  0  0  0  0  0  0  0  0
   11.2309  -17.2242   23.7403 N   0  0  0  0  0  0  0  0  0  0  0  0
   12.5332  -17.1726   24.3972 C   0  0  1  0  0  0  0  0  0  0  0  0
   12.6438  -18.1472   25.5019 C   0  0  0  0  0  0  0  0  0  0  0  0
   11.6078  -18.0246   26.5516 C   0  0  0  0  0  0  0  0  0  0  0  0
   11.6381  -19.0260   27.6218 C   0  0  0  0  0  0  0  0  0  0  0  0
   11.0455  -20.1168   27.4844 O   0  0  0  0  0  0  0  0  0  0  0  0
   13.5808  -17.3464   23.3609 C   0  0  0  0  0  0  0  0  0  0  0  0
   13.2801  -17.7125   22.2089 O   0  0  0  0  0  0  0  0  0  0  0  0
   12.3147  -18.8045   28.8082 O   0  0  0  0  0  0  0  0  0  0  0  0
   14.9016  -17.1085   23.6422 O   0  0  0  0  0  0  0  0  0  0  0  0
  2  1  1  1
  3  2  1  0
  4  2  1  0
  4  5  1  0
  5  6  1  1
  7  8  2  0
  7  5  1  0
  9  7  1  0
 10  9  1  0
 10 11  1  6
 12 11  1  0
 13 12  1  0
 14 13  1  0
 15 14  1  0
 16 10  1  0
 17 16  2  0
 18 16  1  0
 19 18  1  0
 19 20  1  1
 20 21  1  0
 21 22  1  0
 22 26  1  0
 23 22  2  0
 24 27  1  0
 24 19  1  0
 25 24  2  0
M  END
$$$$
