LKE.pdb
     RDKit          3D

 27 26  0  0  1  0  0  0  0  0999 V2000
    7.6436  -11.7192   20.6117 C   0  0  0  0  0  0  0  0  0  0  0  0
    7.4861  -13.1699   20.1878 C   0  0  1  0  0  0  0  0  0  0  0  0
    7.9933  -13.2393   18.7443 C   0  0  0  0  0  0  0  0  0  0  0  0
    8.2911  -14.0302   21.0908 C   0  0  0  0  0  0  0  0  0  0  0  0
    8.1263  -15.4865   20.7542 C   0  0  2  0  0  0  0  0  0  0  0  0
    6.6950  -15.7989   20.9429 N   0  0  0  0  0  0  0  0  0  0  0  0
    8.9425  -16.3710   21.6116 C   0  0  0  0  0  0  0  0  0  0  0  0
    8.5183  -16.7483   22.7251 O   0  0  0  0  0  0  0  0  0  0  0  0
   10.2151  -16.7925   21.1646 N   0  0  0  0  0  0  0  0  0  0  0  0
   11.0125  -17.7156   21.9405 C   0  0  1  0  0  0  0  0  0  0  0  0
   11.7314  -18.5950   20.9567 C   0  0  0  0  0  0  0  0  0  0  0  0
   10.8769  -19.5843   20.2422 C   0  0  0  0  0  0  0  0  0  0  0  0
   10.5726  -20.7123   21.2303 C   0  0  0  0  0  0  0  0  0  0  0  0
    9.6344  -21.7247   20.6112 C   0  0  0  0  0  0  0  0  0  0  0  0
    9.2334  -22.6642   21.6407 N   0  0  0  0  0  0  0  0  0  0  0  0
   11.9121  -16.9448   22.8228 C   0  0  0  0  0  0  0  0  0  0  0  0
   12.6749  -16.1002   22.3411 O   0  0  0  0  0  0  0  0  0  0  0  0
   11.9112  -17.1617   24.2144 N   0  0  0  0  0  0  0  0  0  0  0  0
   12.7671  -16.4457   25.1551 C   0  0  1  0  0  0  0  0  0  0  0  0
   11.9906  -15.7319   26.1893 C   0  0  0  0  0  0  0  0  0  0  0  0
   11.0217  -16.5673   26.9335 C   0  0  0  0  0  0  0  0  0  0  0  0
   10.3542  -15.9358   28.0757 C   0  0  0  0  0  0  0  0  0  0  0  0
   10.6759  -14.7852   28.4395 O   0  0  0  0  0  0  0  0  0  0  0  0
   13.7406  -17.4116   25.7216 C   0  0  0  0  0  0  0  0  0  0  0  0
   14.6716  -17.0211   26.4512 O   0  0  0  0  0  0  0  0  0  0  0  0
    9.3563  -16.5811   28.7846 O   0  0  0  0  0  0  0  0  0  0  0  0
   13.6410  -18.7538   25.4593 O   0  0  0  0  0  0  0  0  0  0  0  0
  2  1  1  1
  3  2  1  0
  4  2  1  0
  4  5  1  0
  5  6  1  1
  7  8  2  0
  7  5  1  0
  9  7  1  0
 10  9  1  0
 10 11  1  6
 12 11  1  0
 13 12  1  0
 14 13  1  0
 15 14  1  0
 16 10  1  0
 17 16  2  0
 18 16  1  0
 19 18  1  0
 19 20  1  1
 20 21  1  0
 21 22  1  0
 22 26  1  0
 23 22  2  0
 24 27  1  0
 24 19  1  0
 25 24  2  0
M  END
$$$$
