LKE.pdb
     RDKit          3D

 27 26  0  0  1  0  0  0  0  0999 V2000
    7.6077  -12.1646   28.0712 C   0  0  0  0  0  0  0  0  0  0  0  0
    6.6618  -12.9522   27.1800 C   0  0  1  0  0  0  0  0  0  0  0  0
    5.6768  -11.9273   26.6097 C   0  0  0  0  0  0  0  0  0  0  0  0
    7.4440  -13.6136   26.1056 C   0  0  0  0  0  0  0  0  0  0  0  0
    6.5609  -14.4388   25.2109 C   0  0  2  0  0  0  0  0  0  0  0  0
    6.0069  -15.5187   26.0527 N   0  0  0  0  0  0  0  0  0  0  0  0
    7.2894  -15.0273   24.0679 C   0  0  0  0  0  0  0  0  0  0  0  0
    7.6025  -16.2374   24.0662 O   0  0  0  0  0  0  0  0  0  0  0  0
    7.6338  -14.2105   22.9673 N   0  0  0  0  0  0  0  0  0  0  0  0
    8.4262  -14.7251   21.8731 C   0  0  1  0  0  0  0  0  0  0  0  0
    8.4019  -13.6784   20.7952 C   0  0  0  0  0  0  0  0  0  0  0  0
    7.6027  -14.0254   19.5868 C   0  0  0  0  0  0  0  0  0  0  0  0
    8.5064  -13.8058   18.3717 C   0  0  0  0  0  0  0  0  0  0  0  0
    7.7327  -14.0102   17.0879 C   0  0  0  0  0  0  0  0  0  0  0  0
    8.6558  -13.8940   15.9755 N   0  0  0  0  0  0  0  0  0  0  0  0
    9.7807  -15.0401   22.3710 C   0  0  0  0  0  0  0  0  0  0  0  0
   10.3779  -14.2314   23.0898 O   0  0  0  0  0  0  0  0  0  0  0  0
   10.4037  -16.2576   22.0347 N   0  0  0  0  0  0  0  0  0  0  0  0
   11.5966  -16.7768   22.6961 C   0  0  1  0  0  0  0  0  0  0  0  0
   11.2792  -17.8348   23.6770 C   0  0  0  0  0  0  0  0  0  0  0  0
   12.4539  -18.4777   24.3073 C   0  0  0  0  0  0  0  0  0  0  0  0
   12.1767  -19.5484   25.2695 C   0  0  0  0  0  0  0  0  0  0  0  0
   12.2433  -19.3285   26.4971 O   0  0  0  0  0  0  0  0  0  0  0  0
   12.5492  -17.2212   21.6489 C   0  0  0  0  0  0  0  0  0  0  0  0
   12.1376  -17.6107   20.5396 O   0  0  0  0  0  0  0  0  0  0  0  0
   11.8355  -20.8254   24.8605 O   0  0  0  0  0  0  0  0  0  0  0  0
   13.9020  -17.2138   21.8729 O   0  0  0  0  0  0  0  0  0  0  0  0
  2  1  1  1
  3  2  1  0
  4  2  1  0
  4  5  1  0
  5  6  1  1
  7  8  2  0
  7  5  1  0
  9  7  1  0
 10  9  1  0
 10 11  1  6
 12 11  1  0
 13 12  1  0
 14 13  1  0
 15 14  1  0
 16 10  1  0
 17 16  2  0
 18 16  1  0
 19 18  1  0
 19 20  1  1
 20 21  1  0
 21 22  1  0
 22 26  1  0
 23 22  2  0
 24 27  1  0
 24 19  1  0
 25 24  2  0
M  END
$$$$
