LKE.pdb
     RDKit          3D

 27 26  0  0  1  0  0  0  0  0999 V2000
    7.3883  -12.1931   19.2944 C   0  0  0  0  0  0  0  0  0  0  0  0
    7.0996  -13.6758   19.4594 C   0  0  1  0  0  0  0  0  0  0  0  0
    8.1542  -14.4015   18.6186 C   0  0  0  0  0  0  0  0  0  0  0  0
    7.2057  -14.0347   20.8959 C   0  0  0  0  0  0  0  0  0  0  0  0
    6.7946  -15.4607   21.1383 C   0  0  2  0  0  0  0  0  0  0  0  0
    5.3874  -15.5690   20.7025 N   0  0  0  0  0  0  0  0  0  0  0  0
    6.9046  -15.8577   22.5574 C   0  0  0  0  0  0  0  0  0  0  0  0
    6.4338  -15.1332   23.4606 O   0  0  0  0  0  0  0  0  0  0  0  0
    7.5492  -17.0697   22.8929 N   0  0  0  0  0  0  0  0  0  0  0  0
    7.8198  -17.4167   24.2700 C   0  0  1  0  0  0  0  0  0  0  0  0
    7.2077  -18.7695   24.5008 C   0  0  0  0  0  0  0  0  0  0  0  0
    7.4358  -19.3505   25.8535 C   0  0  0  0  0  0  0  0  0  0  0  0
    6.8324  -20.7567   25.8465 C   0  0  0  0  0  0  0  0  0  0  0  0
    7.0447  -21.4345   27.1821 C   0  0  0  0  0  0  0  0  0  0  0  0
    6.5256  -22.7859   27.0954 N   0  0  0  0  0  0  0  0  0  0  0  0
    9.2790  -17.3738   24.4954 C   0  0  0  0  0  0  0  0  0  0  0  0
   10.0543  -17.6742   23.5811 O   0  0  0  0  0  0  0  0  0  0  0  0
    9.8008  -16.9926   25.7469 N   0  0  0  0  0  0  0  0  0  0  0  0
   11.2197  -17.0268   26.0870 C   0  0  1  0  0  0  0  0  0  0  0  0
   11.9535  -15.8617   25.5519 C   0  0  0  0  0  0  0  0  0  0  0  0
   13.4192  -15.8977   25.7539 C   0  0  0  0  0  0  0  0  0  0  0  0
   14.1941  -16.6842   24.7895 C   0  0  0  0  0  0  0  0  0  0  0  0
   15.1409  -17.4021   25.1742 O   0  0  0  0  0  0  0  0  0  0  0  0
   11.3388  -17.1632   27.5596 C   0  0  0  0  0  0  0  0  0  0  0  0
   10.3996  -16.8291   28.3066 O   0  0  0  0  0  0  0  0  0  0  0  0
   13.9104  -16.6616   23.4354 O   0  0  0  0  0  0  0  0  0  0  0  0
   12.4803  -17.6595   28.1349 O   0  0  0  0  0  0  0  0  0  0  0  0
  2  1  1  1
  3  2  1  0
  4  2  1  0
  4  5  1  0
  5  6  1  1
  7  8  2  0
  7  5  1  0
  9  7  1  0
 10  9  1  0
 10 11  1  6
 12 11  1  0
 13 12  1  0
 14 13  1  0
 15 14  1  0
 16 10  1  0
 17 16  2  0
 18 16  1  0
 19 18  1  0
 19 20  1  1
 20 21  1  0
 21 22  1  0
 22 26  1  0
 23 22  2  0
 24 27  1  0
 24 19  1  0
 25 24  2  0
M  END
$$$$
