LKE.pdb
     RDKit          3D

 27 26  0  0  1  0  0  0  0  0999 V2000
    6.7633  -12.3534   19.2595 C   0  0  0  0  0  0  0  0  0  0  0  0
    7.6671  -13.5400   18.9692 C   0  0  1  0  0  0  0  0  0  0  0  0
    8.6901  -13.0431   17.9434 C   0  0  0  0  0  0  0  0  0  0  0  0
    8.3230  -13.9711   20.2291 C   0  0  0  0  0  0  0  0  0  0  0  0
    9.2425  -15.1384   19.9989 C   0  0  2  0  0  0  0  0  0  0  0  0
    8.4325  -16.1842   19.3416 N   0  0  0  0  0  0  0  0  0  0  0  0
    9.8182  -15.6728   21.2506 C   0  0  0  0  0  0  0  0  0  0  0  0
   10.4532  -14.9289   22.0289 O   0  0  0  0  0  0  0  0  0  0  0  0
    9.6468  -17.0392   21.5676 N   0  0  0  0  0  0  0  0  0  0  0  0
   10.1526  -17.5891   22.8052 C   0  0  1  0  0  0  0  0  0  0  0  0
    9.3854  -18.8562   23.0581 C   0  0  0  0  0  0  0  0  0  0  0  0
    8.0537  -18.6780   23.7017 C   0  0  0  0  0  0  0  0  0  0  0  0
    7.4384  -20.0706   23.8550 C   0  0  0  0  0  0  0  0  0  0  0  0
    6.1071  -19.9896   24.5688 C   0  0  0  0  0  0  0  0  0  0  0  0
    5.6054  -21.3378   24.7526 N   0  0  0  0  0  0  0  0  0  0  0  0
   11.6109  -17.7876   22.6789 C   0  0  0  0  0  0  0  0  0  0  0  0
   12.0607  -18.5064   21.7799 O   0  0  0  0  0  0  0  0  0  0  0  0
   12.5002  -17.1641   23.5756 N   0  0  0  0  0  0  0  0  0  0  0  0
   13.9304  -17.4478   23.6403 C   0  0  1  0  0  0  0  0  0  0  0  0
   14.7520  -16.2818   23.2562 C   0  0  0  0  0  0  0  0  0  0  0  0
   15.0196  -16.1542   21.8062 C   0  0  0  0  0  0  0  0  0  0  0  0
   15.9340  -15.0824   21.4009 C   0  0  0  0  0  0  0  0  0  0  0  0
   17.1593  -15.3013   21.2982 O   0  0  0  0  0  0  0  0  0  0  0  0
   14.2399  -17.9553   24.9997 C   0  0  0  0  0  0  0  0  0  0  0  0
   13.4439  -17.7764   25.9410 O   0  0  0  0  0  0  0  0  0  0  0  0
   15.4812  -13.8053   21.1204 O   0  0  0  0  0  0  0  0  0  0  0  0
   15.4046  -18.6327   25.2547 O   0  0  0  0  0  0  0  0  0  0  0  0
  2  1  1  1
  3  2  1  0
  4  2  1  0
  4  5  1  0
  5  6  1  1
  7  8  2  0
  7  5  1  0
  9  7  1  0
 10  9  1  0
 10 11  1  6
 12 11  1  0
 13 12  1  0
 14 13  1  0
 15 14  1  0
 16 10  1  0
 17 16  2  0
 18 16  1  0
 19 18  1  0
 19 20  1  1
 20 21  1  0
 21 22  1  0
 22 26  1  0
 23 22  2  0
 24 27  1  0
 24 19  1  0
 25 24  2  0
M  END
$$$$
