LKE.pdb
     RDKit          3D

 27 26  0  0  1  0  0  0  0  0999 V2000
    6.6342  -12.1753   19.5652 C   0  0  0  0  0  0  0  0  0  0  0  0
    7.1729  -13.5958   19.5973 C   0  0  1  0  0  0  0  0  0  0  0  0
    8.1709  -13.6890   18.4392 C   0  0  0  0  0  0  0  0  0  0  0  0
    7.8314  -13.8364   20.9057 C   0  0  0  0  0  0  0  0  0  0  0  0
    8.3913  -15.2294   20.9917 C   0  0  2  0  0  0  0  0  0  0  0  0
    7.2832  -16.1459   20.6544 N   0  0  0  0  0  0  0  0  0  0  0  0
    8.9130  -15.5577   22.3347 C   0  0  0  0  0  0  0  0  0  0  0  0
    9.8344  -14.8833   22.8433 O   0  0  0  0  0  0  0  0  0  0  0  0
    8.3622  -16.6460   23.0483 N   0  0  0  0  0  0  0  0  0  0  0  0
    8.8875  -17.0384   24.3367 C   0  0  1  0  0  0  0  0  0  0  0  0
    7.8887  -17.9865   24.9378 C   0  0  0  0  0  0  0  0  0  0  0  0
    8.3110  -18.6358   26.2104 C   0  0  0  0  0  0  0  0  0  0  0  0
    7.1899  -19.5930   26.6205 C   0  0  0  0  0  0  0  0  0  0  0  0
    7.4969  -20.2323   27.9567 C   0  0  0  0  0  0  0  0  0  0  0  0
    6.3705  -21.0642   28.3339 N   0  0  0  0  0  0  0  0  0  0  0  0
   10.2299  -17.6247   24.1466 C   0  0  0  0  0  0  0  0  0  0  0  0
   10.3777  -18.6012   23.4037 O   0  0  0  0  0  0  0  0  0  0  0  0
   11.3500  -17.0815   24.8054 N   0  0  0  0  0  0  0  0  0  0  0  0
   12.6936  -17.6473   24.7376 C   0  0  1  0  0  0  0  0  0  0  0  0
   13.6704  -16.7060   24.1527 C   0  0  0  0  0  0  0  0  0  0  0  0
   15.0710  -17.1841   24.1398 C   0  0  0  0  0  0  0  0  0  0  0  0
   16.0696  -16.2706   23.5762 C   0  0  0  0  0  0  0  0  0  0  0  0
   17.2740  -16.3797   23.8882 O   0  0  0  0  0  0  0  0  0  0  0  0
   13.0707  -18.1070   26.0970 C   0  0  0  0  0  0  0  0  0  0  0  0
   12.4863  -17.6619   27.1030 O   0  0  0  0  0  0  0  0  0  0  0  0
   15.7211  -15.2668   22.6899 O   0  0  0  0  0  0  0  0  0  0  0  0
   14.0672  -19.0308   26.2812 O   0  0  0  0  0  0  0  0  0  0  0  0
  2  1  1  1
  3  2  1  0
  4  2  1  0
  4  5  1  0
  5  6  1  1
  7  8  2  0
  7  5  1  0
  9  7  1  0
 10  9  1  0
 10 11  1  6
 12 11  1  0
 13 12  1  0
 14 13  1  0
 15 14  1  0
 16 10  1  0
 17 16  2  0
 18 16  1  0
 19 18  1  0
 19 20  1  1
 20 21  1  0
 21 22  1  0
 22 26  1  0
 23 22  2  0
 24 27  1  0
 24 19  1  0
 25 24  2  0
M  END
$$$$
