LKE.pdb
     RDKit          3D

 27 26  0  0  1  0  0  0  0  0999 V2000
    7.6202  -12.2691   27.8537 C   0  0  0  0  0  0  0  0  0  0  0  0
    6.6654  -13.1837   27.1048 C   0  0  1  0  0  0  0  0  0  0  0  0
    5.7391  -12.2581   26.3104 C   0  0  0  0  0  0  0  0  0  0  0  0
    7.4464  -14.0734   26.2093 C   0  0  0  0  0  0  0  0  0  0  0  0
    6.5492  -14.8437   25.2804 C   0  0  2  0  0  0  0  0  0  0  0  0
    6.1726  -16.0806   25.9947 N   0  0  0  0  0  0  0  0  0  0  0  0
    7.2057  -15.1909   24.0029 C   0  0  0  0  0  0  0  0  0  0  0  0
    7.8245  -16.2696   23.8766 O   0  0  0  0  0  0  0  0  0  0  0  0
    7.1310  -14.2918   22.9153 N   0  0  0  0  0  0  0  0  0  0  0  0
    7.8817  -14.5223   21.7014 C   0  0  1  0  0  0  0  0  0  0  0  0
    7.6200  -13.3457   20.8040 C   0  0  0  0  0  0  0  0  0  0  0  0
    8.4290  -13.3046   19.5538 C   0  0  0  0  0  0  0  0  0  0  0  0
    7.8237  -14.3297   18.5925 C   0  0  0  0  0  0  0  0  0  0  0  0
    8.6435  -14.4204   17.3244 C   0  0  0  0  0  0  0  0  0  0  0  0
    7.9597  -15.3057   16.4015 N   0  0  0  0  0  0  0  0  0  0  0  0
    9.3059  -14.7053   22.0481 C   0  0  0  0  0  0  0  0  0  0  0  0
    9.8372  -13.9682   22.8858 O   0  0  0  0  0  0  0  0  0  0  0  0
   10.0702  -15.7153   21.4322 N   0  0  0  0  0  0  0  0  0  0  0  0
   11.3878  -16.1410   21.8935 C   0  0  1  0  0  0  0  0  0  0  0  0
   11.3086  -17.2129   22.9069 C   0  0  0  0  0  0  0  0  0  0  0  0
   12.6138  -17.7281   23.3773 C   0  0  0  0  0  0  0  0  0  0  0  0
   12.5733  -18.8270   24.3468 C   0  0  0  0  0  0  0  0  0  0  0  0
   11.4799  -19.2539   24.7736 O   0  0  0  0  0  0  0  0  0  0  0  0
   12.1925  -16.5211   20.7063 C   0  0  0  0  0  0  0  0  0  0  0  0
   11.6528  -17.0487   19.7154 O   0  0  0  0  0  0  0  0  0  0  0  0
   13.7281  -19.4249   24.8194 O   0  0  0  0  0  0  0  0  0  0  0  0
   13.5455  -16.3015   20.6681 O   0  0  0  0  0  0  0  0  0  0  0  0
  2  1  1  6
  3  2  1  0
  4  2  1  0
  4  5  1  0
  5  6  1  1
  7  8  2  0
  7  5  1  0
  9  7  1  0
 10  9  1  0
 10 11  1  6
 12 11  1  0
 13 12  1  0
 14 13  1  0
 15 14  1  0
 16 10  1  0
 17 16  2  0
 18 16  1  0
 19 18  1  0
 19 20  1  1
 20 21  1  0
 21 22  1  0
 22 26  1  0
 23 22  2  0
 24 27  1  0
 24 19  1  0
 25 24  2  0
M  END
$$$$
