LKE.pdb
     RDKit          3D

 27 26  0  0  1  0  0  0  0  0999 V2000
    5.0491  -11.8688   27.1872 C   0  0  0  0  0  0  0  0  0  0  0  0
    6.2421  -12.1971   26.3051 C   0  0  1  0  0  0  0  0  0  0  0  0
    7.4571  -11.5748   26.9995 C   0  0  0  0  0  0  0  0  0  0  0  0
    6.3731  -13.6715   26.1938 C   0  0  0  0  0  0  0  0  0  0  0  0
    7.7312  -14.0659   25.6826 C   0  0  2  0  0  0  0  0  0  0  0  0
    8.4900  -12.8113   25.5036 N   0  0  0  0  0  0  0  0  0  0  0  0
    7.6731  -14.7959   24.3992 C   0  0  0  0  0  0  0  0  0  0  0  0
    7.1686  -15.9378   24.3375 O   0  0  0  0  0  0  0  0  0  0  0  0
    8.1941  -14.1935   23.2318 N   0  0  0  0  0  0  0  0  0  0  0  0
    8.5183  -14.9820   22.0643 C   0  0  1  0  0  0  0  0  0  0  0  0
    8.4871  -14.0446   20.8901 C   0  0  0  0  0  0  0  0  0  0  0  0
    8.7945  -14.6644   19.5708 C   0  0  0  0  0  0  0  0  0  0  0  0
    8.2261  -13.7366   18.4948 C   0  0  0  0  0  0  0  0  0  0  0  0
    8.4956  -14.2933   17.1143 C   0  0  0  0  0  0  0  0  0  0  0  0
    7.9533  -13.3699   16.1363 N   0  0  0  0  0  0  0  0  0  0  0  0
    9.8274  -15.6327   22.2759 C   0  0  0  0  0  0  0  0  0  0  0  0
   10.8402  -14.9437   22.4396 O   0  0  0  0  0  0  0  0  0  0  0  0
    9.9362  -17.0368   22.2935 N   0  0  0  0  0  0  0  0  0  0  0  0
   11.1375  -17.7597   22.6990 C   0  0  1  0  0  0  0  0  0  0  0  0
   10.9410  -18.5167   23.9523 C   0  0  0  0  0  0  0  0  0  0  0  0
   12.0683  -19.3951   24.3370 C   0  0  0  0  0  0  0  0  0  0  0  0
   11.9357  -20.1115   25.6091 C   0  0  0  0  0  0  0  0  0  0  0  0
   11.1486  -19.7005   26.4875 O   0  0  0  0  0  0  0  0  0  0  0  0
   11.5678  -18.6140   21.5647 C   0  0  0  0  0  0  0  0  0  0  0  0
   10.7266  -19.1694   20.8329 O   0  0  0  0  0  0  0  0  0  0  0  0
   12.6669  -21.2541   25.8817 O   0  0  0  0  0  0  0  0  0  0  0  0
   12.8969  -18.8128   21.2924 O   0  0  0  0  0  0  0  0  0  0  0  0
  2  1  1  1
  3  2  1  0
  4  2  1  0
  4  5  1  0
  5  6  1  6
  7  8  2  0
  7  5  1  0
  9  7  1  0
 10  9  1  0
 10 11  1  6
 12 11  1  0
 13 12  1  0
 14 13  1  0
 15 14  1  0
 16 10  1  0
 17 16  2  0
 18 16  1  0
 19 18  1  0
 19 20  1  1
 20 21  1  0
 21 22  1  0
 22 26  1  0
 23 22  2  0
 24 27  1  0
 24 19  1  0
 25 24  2  0
M  END
$$$$
