LKE.pdb
     RDKit          3D

 27 26  0  0  1  0  0  0  0  0999 V2000
    7.1787  -11.8790   28.0705 C   0  0  0  0  0  0  0  0  0  0  0  0
    6.2911  -12.7736   27.2214 C   0  0  1  0  0  0  0  0  0  0  0  0
    5.6093  -11.8458   26.2115 C   0  0  0  0  0  0  0  0  0  0  0  0
    7.1327  -13.7922   26.5449 C   0  0  0  0  0  0  0  0  0  0  0  0
    6.3219  -14.6370   25.6015 C   0  0  2  0  0  0  0  0  0  0  0  0
    5.7062  -15.7018   26.4194 N   0  0  0  0  0  0  0  0  0  0  0  0
    7.1366  -15.2457   24.5295 C   0  0  0  0  0  0  0  0  0  0  0  0
    7.7070  -16.3437   24.7075 O   0  0  0  0  0  0  0  0  0  0  0  0
    7.2700  -14.5769   23.2919 N   0  0  0  0  0  0  0  0  0  0  0  0
    8.0426  -15.1488   22.2120 C   0  0  1  0  0  0  0  0  0  0  0  0
    7.8576  -14.2454   21.0255 C   0  0  0  0  0  0  0  0  0  0  0  0
    8.3807  -14.7731   19.7343 C   0  0  0  0  0  0  0  0  0  0  0  0
    7.9886  -13.7704   18.6469 C   0  0  0  0  0  0  0  0  0  0  0  0
    8.3340  -14.3084   17.2759 C   0  0  0  0  0  0  0  0  0  0  0  0
    8.1835  -13.2344   16.3132 N   0  0  0  0  0  0  0  0  0  0  0  0
    9.4473  -15.2830   22.6487 C   0  0  0  0  0  0  0  0  0  0  0  0
   10.0210  -14.3291   23.1855 O   0  0  0  0  0  0  0  0  0  0  0  0
   10.1449  -16.4919   22.4598 N   0  0  0  0  0  0  0  0  0  0  0  0
   11.5004  -16.7386   22.9414 C   0  0  1  0  0  0  0  0  0  0  0  0
   11.5699  -17.8991   23.8527 C   0  0  0  0  0  0  0  0  0  0  0  0
   12.9373  -18.3036   24.2490 C   0  0  0  0  0  0  0  0  0  0  0  0
   13.0468  -19.4824   25.1136 C   0  0  0  0  0  0  0  0  0  0  0  0
   12.4213  -19.5352   26.1933 O   0  0  0  0  0  0  0  0  0  0  0  0
   12.3928  -16.8696   21.7633 C   0  0  0  0  0  0  0  0  0  0  0  0
   11.9523  -17.2893   20.6763 O   0  0  0  0  0  0  0  0  0  0  0  0
   13.8362  -20.5662   24.7717 O   0  0  0  0  0  0  0  0  0  0  0  0
   13.7198  -16.5326   21.8390 O   0  0  0  0  0  0  0  0  0  0  0  0
  2  1  1  1
  3  2  1  0
  4  2  1  0
  4  5  1  0
  5  6  1  1
  7  8  2  0
  7  5  1  0
  9  7  1  0
 10  9  1  0
 10 11  1  6
 12 11  1  0
 13 12  1  0
 14 13  1  0
 15 14  1  0
 16 10  1  0
 17 16  2  0
 18 16  1  0
 19 18  1  0
 19 20  1  6
 20 21  1  0
 21 22  1  0
 22 26  1  0
 23 22  2  0
 24 27  1  0
 24 19  1  0
 25 24  2  0
M  END
$$$$
