QRA.pdb
     RDKit          3D

 26 25  0  0  1  0  0  0  0  0999 V2000
   11.0179  -23.7090   20.3058 N   0  0  0  0  0  0  0  0  0  0  0  0
   12.1200  -23.0006   19.7848 C   0  0  0  0  0  0  0  0  0  0  0  0
   13.2732  -23.4541   19.9572 O   0  0  0  0  0  0  0  0  0  0  0  0
   11.8540  -21.7527   19.0597 C   0  0  0  0  0  0  0  0  0  0  0  0
   10.4001  -21.4246   18.8803 C   0  0  0  0  0  0  0  0  0  0  0  0
   10.1387  -20.1583   18.1425 C   0  0  2  0  0  0  0  0  0  0  0  0
   10.7075  -20.2085   16.7925 N   0  0  0  0  0  0  0  0  0  0  0  0
   10.6626  -18.9346   18.8477 C   0  0  0  0  0  0  0  0  0  0  0  0
   11.7937  -18.4422   18.5259 O   0  0  0  0  0  0  0  0  0  0  0  0
    7.9272  -12.3598   18.0617 N   0  0  0  0  0  0  0  0  0  0  0  0
    7.7578  -12.7148   19.4557 C   0  0  0  0  0  0  0  0  0  0  0  0
    8.4617  -12.1069   20.3443 N   0  0  0  0  0  0  0  0  0  0  0  0
    6.8206  -13.7206   19.7874 N   0  0  0  0  0  0  0  0  0  0  0  0
    7.2365  -14.7365   20.8008 C   0  0  0  0  0  0  0  0  0  0  0  0
    8.5159  -15.3289   20.3506 C   0  0  0  0  0  0  0  0  0  0  0  0
    9.2026  -16.3859   21.0617 C   0  0  0  0  0  0  0  0  0  0  0  0
   10.3924  -17.0566   20.5361 C   0  0  2  0  0  0  0  0  0  0  0  0
    9.9082  -18.3262   19.8645 N   0  0  0  0  0  0  0  0  0  0  0  0
   11.3411  -17.5577   21.5398 C   0  0  0  0  0  0  0  0  0  0  0  0
   11.1236  -18.5931   22.1765 O   0  0  0  0  0  0  0  0  0  0  0  0
    8.4684  -12.4342   21.3195 C   0  0  0  0  0  0  0  0  0  0  0  0
   14.0053  -18.8123   22.2264 C   0  0  2  0  0  0  0  0  0  0  0  0
   13.4767  -17.4877   22.7722 N   0  0  0  0  0  0  0  0  0  0  0  0
   12.5598  -16.8837   21.8361 C   0  0  0  0  0  0  0  0  0  0  0  0
   14.6065  -16.5553   23.0410 O   0  0  0  0  0  0  0  0  0  0  0  0
   15.5273  -16.8632   24.0060 O   0  0  0  0  0  0  0  0  0  0  0  0
  1  2  1  0
  2  3  2  0
  4  2  1  0
  4  5  1  0
  6  5  1  0
  6  7  1  6
  8  6  1  0
  9  8  2  0
 10 11  1  0
 11 13  1  0
 12 11  2  0
 13 14  1  0
 14 15  1  0
 17 16  1  1
 16 15  1  0
 17 18  1  0
 18  8  1  0
 19 23  1  0
 19 17  1  0
 20 19  2  0
 22 21  1  1
 22 24  1  0
 22 23  1  0
 24 25  1  0
 26 24  2  0
M  END
$$$$
