QRA.pdb
     RDKit          3D

 26 25  0  0  1  0  0  0  0  0999 V2000
   11.4357  -19.6613   30.5457 N   0  0  0  0  0  0  0  0  0  0  0  0
   10.7510  -20.1091   29.3974 C   0  0  0  0  0  0  0  0  0  0  0  0
    9.7165  -20.7991   29.5345 O   0  0  0  0  0  0  0  0  0  0  0  0
   11.2946  -19.7389   28.0854 C   0  0  0  0  0  0  0  0  0  0  0  0
   10.4467  -20.1428   26.9142 C   0  0  0  0  0  0  0  0  0  0  0  0
   10.9716  -19.7059   25.5914 C   0  0  2  0  0  0  0  0  0  0  0  0
   12.3858  -20.0614   25.4425 N   0  0  0  0  0  0  0  0  0  0  0  0
   10.8104  -18.2293   25.3406 C   0  0  0  0  0  0  0  0  0  0  0  0
   11.7374  -17.4170   25.6669 O   0  0  0  0  0  0  0  0  0  0  0  0
    9.0510  -14.1465   19.3610 N   0  0  0  0  0  0  0  0  0  0  0  0
    8.2023  -13.1332   19.9532 C   0  0  0  0  0  0  0  0  0  0  0  0
    8.3448  -11.9083   19.5875 N   0  0  0  0  0  0  0  0  0  0  0  0
    7.2451  -13.5316   20.9150 N   0  0  0  0  0  0  0  0  0  0  0  0
    7.2991  -14.9474   21.3889 C   0  0  0  0  0  0  0  0  0  0  0  0
    8.2855  -15.0201   22.4898 C   0  0  0  0  0  0  0  0  0  0  0  0
    8.5820  -16.2339   23.2200 C   0  0  0  0  0  0  0  0  0  0  0  0
    9.5282  -16.2809   24.3355 C   0  0  2  0  0  0  0  0  0  0  0  0
    9.6380  -17.7364   24.7442 N   0  0  0  0  0  0  0  0  0  0  0  0
    9.0904  -15.6244   25.5748 C   0  0  0  0  0  0  0  0  0  0  0  0
    8.1220  -16.0379   26.2197 O   0  0  0  0  0  0  0  0  0  0  0  0
    7.8159  -11.1589   20.0531 C   0  0  0  0  0  0  0  0  0  0  0  0
   10.3142  -13.0208   27.9782 C   0  0  1  0  0  0  0  0  0  0  0  0
    9.2414  -13.8780   27.3102 N   0  0  0  0  0  0  0  0  0  0  0  0
    9.7526  -14.4797   26.1026 C   0  0  0  0  0  0  0  0  0  0  0  0
    8.0462  -13.0487   26.9909 O   0  0  0  0  0  0  0  0  0  0  0  0
    7.3124  -12.4948   28.0052 O   0  0  0  0  0  0  0  0  0  0  0  0
  1  2  1  0
  2  3  2  0
  4  2  1  0
  4  5  1  0
  6  5  1  0
  6  7  1  1
  8  6  1  0
  9  8  2  0
 10 11  1  0
 11 13  1  0
 12 11  2  0
 13 14  1  0
 14 15  1  0
 17 16  1  6
 16 15  1  0
 17 18  1  0
 18  8  1  0
 19 23  1  0
 19 17  1  0
 20 19  2  0
 22 21  1  1
 22 24  1  0
 22 23  1  0
 24 25  1  0
 26 24  2  0
M  END
$$$$
