QRA.pdb
     RDKit          3D

 26 25  0  0  1  0  0  0  0  0999 V2000
   17.3768  -19.9008   22.1694 N   0  0  0  0  0  0  0  0  0  0  0  0
   17.2731  -20.3782   20.8469 C   0  0  0  0  0  0  0  0  0  0  0  0
   18.1432  -21.1655   20.4128 O   0  0  0  0  0  0  0  0  0  0  0  0
   16.1370  -19.9208   20.0384 C   0  0  0  0  0  0  0  0  0  0  0  0
   16.3249  -18.5816   19.3865 C   0  0  0  0  0  0  0  0  0  0  0  0
   15.1828  -18.1409   18.5393 C   0  0  2  0  0  0  0  0  0  0  0  0
   15.5734  -17.0313   17.6648 N   0  0  0  0  0  0  0  0  0  0  0  0
   13.9699  -17.7327   19.3337 C   0  0  0  0  0  0  0  0  0  0  0  0
   13.9433  -16.6083   19.9342 O   0  0  0  0  0  0  0  0  0  0  0  0
    6.3413  -18.7686   16.7787 N   0  0  0  0  0  0  0  0  0  0  0  0
    7.2888  -18.2110   15.8357 C   0  0  0  0  0  0  0  0  0  0  0  0
    6.9459  -18.0950   14.6015 N   0  0  0  0  0  0  0  0  0  0  0  0
    8.5602  -17.8138   16.3108 N   0  0  0  0  0  0  0  0  0  0  0  0
    9.3277  -18.8048   17.1236 C   0  0  0  0  0  0  0  0  0  0  0  0
    9.7020  -18.1532   18.3986 C   0  0  0  0  0  0  0  0  0  0  0  0
   10.4814  -18.8024   19.4307 C   0  0  0  0  0  0  0  0  0  0  0  0
   11.5911  -18.1453   20.1225 C   0  0  2  0  0  0  0  0  0  0  0  0
   12.8582  -18.5874   19.4180 N   0  0  0  0  0  0  0  0  0  0  0  0
   11.8222  -18.5695   21.5100 C   0  0  0  0  0  0  0  0  0  0  0  0
   12.5470  -19.5318   21.7809 O   0  0  0  0  0  0  0  0  0  0  0  0
    7.6078  -17.7222   13.9079 C   0  0  0  0  0  0  0  0  0  0  0  0
   11.0709  -17.3289   24.9861 C   0  0  1  0  0  0  0  0  0  0  0  0
   11.5554  -18.3422   23.9516 N   0  0  0  0  0  0  0  0  0  0  0  0
   11.2278  -17.9008   22.6176 C   0  0  0  0  0  0  0  0  0  0  0  0
   10.9363  -19.6726   24.2064 O   0  0  0  0  0  0  0  0  0  0  0  0
   11.4048  -20.4564   25.2262 O   0  0  0  0  0  0  0  0  0  0  0  0
  1  2  1  0
  2  3  2  0
  4  2  1  0
  4  5  1  0
  6  5  1  0
  6  7  1  1
  8  6  1  0
  9  8  2  0
 10 11  1  0
 11 13  1  0
 12 11  2  0
 13 14  1  0
 14 15  1  0
 17 16  1  6
 16 15  1  0
 17 18  1  0
 18  8  1  0
 19 23  1  0
 19 17  1  0
 20 19  2  0
 22 21  1  6
 22 24  1  0
 22 23  1  0
 24 25  1  0
 26 24  2  0
M  END
$$$$
