QRA.pdb
     RDKit          3D

 26 25  0  0  1  0  0  0  0  0999 V2000
    6.8936  -14.9761   15.3320 N   0  0  0  0  0  0  0  0  0  0  0  0
    8.1629  -14.3626   15.3530 C   0  0  0  0  0  0  0  0  0  0  0  0
    8.8556  -14.3585   14.3112 O   0  0  0  0  0  0  0  0  0  0  0  0
    8.6112  -13.7542   16.6110 C   0  0  0  0  0  0  0  0  0  0  0  0
    7.6202  -13.8284   17.7363 C   0  0  0  0  0  0  0  0  0  0  0  0
    8.0823  -13.2089   19.0087 C   0  0  2  0  0  0  0  0  0  0  0  0
    9.4908  -12.8131   18.9204 N   0  0  0  0  0  0  0  0  0  0  0  0
    7.8999  -14.0995   20.2098 C   0  0  0  0  0  0  0  0  0  0  0  0
    6.7464  -14.5586   20.5002 O   0  0  0  0  0  0  0  0  0  0  0  0
   13.0787  -20.3611   23.5218 N   0  0  0  0  0  0  0  0  0  0  0  0
   11.8736  -20.4051   24.3242 C   0  0  0  0  0  0  0  0  0  0  0  0
   11.7036  -21.3837   25.1415 N   0  0  0  0  0  0  0  0  0  0  0  0
   10.9261  -19.3656   24.1774 N   0  0  0  0  0  0  0  0  0  0  0  0
   11.1651  -18.3701   23.0894 C   0  0  0  0  0  0  0  0  0  0  0  0
   10.0550  -17.3918   23.1177 C   0  0  0  0  0  0  0  0  0  0  0  0
    9.9374  -16.2875   22.1897 C   0  0  0  0  0  0  0  0  0  0  0  0
    8.8305  -15.3308   22.2268 C   0  0  2  0  0  0  0  0  0  0  0  0
    8.9995  -14.4317   21.0183 N   0  0  0  0  0  0  0  0  0  0  0  0
    8.8428  -14.3802   23.3470 C   0  0  0  0  0  0  0  0  0  0  0  0
    9.8129  -13.6479   23.5646 O   0  0  0  0  0  0  0  0  0  0  0  0
   10.8695  -21.4243   25.7421 C   0  0  0  0  0  0  0  0  0  0  0  0
    6.6049  -12.5513   25.5792 C   0  0  1  0  0  0  0  0  0  0  0  0
    7.8781  -13.3706   25.3803 N   0  0  0  0  0  0  0  0  0  0  0  0
    7.7438  -14.2477   24.2427 C   0  0  0  0  0  0  0  0  0  0  0  0
    8.1688  -14.1728   26.6011 O   0  0  0  0  0  0  0  0  0  0  0  0
    8.4425  -13.5378   27.7826 O   0  0  0  0  0  0  0  0  0  0  0  0
  1  2  1  0
  2  3  2  0
  4  2  1  0
  4  5  1  0
  6  5  1  0
  6  7  1  6
  8  6  1  0
  9  8  2  0
 10 11  1  0
 11 13  1  0
 12 11  2  0
 13 14  1  0
 14 15  1  0
 17 16  1  1
 16 15  1  0
 17 18  1  0
 18  8  1  0
 19 23  1  0
 19 17  1  0
 20 19  2  0
 22 21  1  6
 22 24  1  0
 22 23  1  0
 24 25  1  0
 26 24  2  0
M  END
$$$$
