QRA.pdb
     RDKit          3D

 26 25  0  0  1  0  0  0  0  0999 V2000
    7.8731  -12.0920   17.8435 N   0  0  0  0  0  0  0  0  0  0  0  0
    7.8157  -13.4398   17.4336 C   0  0  0  0  0  0  0  0  0  0  0  0
    7.8970  -13.7105   16.2149 O   0  0  0  0  0  0  0  0  0  0  0  0
    7.6608  -14.4671   18.4701 C   0  0  0  0  0  0  0  0  0  0  0  0
    7.5461  -13.9385   19.8705 C   0  0  0  0  0  0  0  0  0  0  0  0
    8.5221  -14.5201   20.8325 C   0  0  2  0  0  0  0  0  0  0  0  0
    9.0438  -15.8000   20.3443 N   0  0  0  0  0  0  0  0  0  0  0  0
    7.9560  -14.7189   22.2142 C   0  0  0  0  0  0  0  0  0  0  0  0
    7.2684  -13.7977   22.7657 O   0  0  0  0  0  0  0  0  0  0  0  0
    6.7588  -22.3148   26.7382 N   0  0  0  0  0  0  0  0  0  0  0  0
    6.8156  -21.2955   27.7656 C   0  0  0  0  0  0  0  0  0  0  0  0
    6.7885  -21.6526   29.0010 N   0  0  0  0  0  0  0  0  0  0  0  0
    6.8991  -19.9406   27.3689 N   0  0  0  0  0  0  0  0  0  0  0  0
    6.9850  -19.6602   25.9040 C   0  0  0  0  0  0  0  0  0  0  0  0
    7.1779  -18.2031   25.7316 C   0  0  0  0  0  0  0  0  0  0  0  0
    7.4247  -17.5743   24.4517 C   0  0  0  0  0  0  0  0  0  0  0  0
    7.6207  -16.1322   24.2977 C   0  0  2  0  0  0  0  0  0  0  0  0
    8.1804  -15.9213   22.9050 N   0  0  0  0  0  0  0  0  0  0  0  0
    8.6477  -15.5298   25.1585 C   0  0  0  0  0  0  0  0  0  0  0  0
    9.8502  -15.7476   24.9819 O   0  0  0  0  0  0  0  0  0  0  0  0
    6.9259  -20.9596   29.7486 C   0  0  0  0  0  0  0  0  0  0  0  0
    8.9652  -12.7929   27.6694 C   0  0  1  0  0  0  0  0  0  0  0  0
    9.3886  -14.1188   27.0412 N   0  0  0  0  0  0  0  0  0  0  0  0
    8.3195  -14.6647   26.2408 C   0  0  0  0  0  0  0  0  0  0  0  0
    9.7685  -15.0921   28.1026 O   0  0  0  0  0  0  0  0  0  0  0  0
   10.8871  -14.8700   28.8599 O   0  0  0  0  0  0  0  0  0  0  0  0
  1  2  1  0
  2  3  2  0
  4  2  1  0
  4  5  1  0
  6  5  1  0
  6  7  1  6
  8  6  1  0
  9  8  2  0
 10 11  1  0
 11 13  1  0
 12 11  2  0
 13 14  1  0
 14 15  1  0
 17 16  1  1
 16 15  1  0
 17 18  1  0
 18  8  1  0
 19 23  1  0
 19 17  1  0
 20 19  2  0
 22 21  1  6
 22 24  1  0
 22 23  1  0
 24 25  1  0
 26 24  2  0
M  END
$$$$
