QRA.pdb
     RDKit          3D

 26 25  0  0  1  0  0  0  0  0999 V2000
    1.4457  -18.9691   20.8106 N   0  0  0  0  0  0  0  0  0  0  0  0
    1.6053  -19.4703   22.1187 C   0  0  0  0  0  0  0  0  0  0  0  0
    0.6353  -19.4345   22.9081 O   0  0  0  0  0  0  0  0  0  0  0  0
    2.9168  -20.0136   22.4909 C   0  0  0  0  0  0  0  0  0  0  0  0
    3.9660  -19.9186   21.4214 C   0  0  0  0  0  0  0  0  0  0  0  0
    5.2848  -20.4986   21.7961 C   0  0  2  0  0  0  0  0  0  0  0  0
    5.1216  -21.6226   22.7226 N   0  0  0  0  0  0  0  0  0  0  0  0
    6.2288  -19.4959   22.4067 C   0  0  0  0  0  0  0  0  0  0  0  0
    7.1930  -19.8868   23.1437 O   0  0  0  0  0  0  0  0  0  0  0  0
    9.0063  -13.0908   17.8503 N   0  0  0  0  0  0  0  0  0  0  0  0
    8.5632  -12.8008   19.1984 C   0  0  0  0  0  0  0  0  0  0  0  0
    9.0097  -11.7491   19.7893 N   0  0  0  0  0  0  0  0  0  0  0  0
    7.6526  -13.6894   19.8159 N   0  0  0  0  0  0  0  0  0  0  0  0
    7.2990  -13.4248   21.2430 C   0  0  0  0  0  0  0  0  0  0  0  0
    7.5665  -14.6600   22.0132 C   0  0  0  0  0  0  0  0  0  0  0  0
    6.7594  -15.8570   21.9120 C   0  0  0  0  0  0  0  0  0  0  0  0
    7.1397  -17.1282   22.5293 C   0  0  2  0  0  0  0  0  0  0  0  0
    6.0545  -18.1227   22.1677 N   0  0  0  0  0  0  0  0  0  0  0  0
    7.1323  -17.1545   23.9983 C   0  0  0  0  0  0  0  0  0  0  0  0
    6.1407  -16.8077   24.6474 O   0  0  0  0  0  0  0  0  0  0  0  0
    8.7533  -11.5492   20.7652 C   0  0  0  0  0  0  0  0  0  0  0  0
    7.7367  -18.9235   26.7251 C   0  0  2  0  0  0  0  0  0  0  0  0
    8.1760  -17.5600   26.1961 N   0  0  0  0  0  0  0  0  0  0  0  0
    8.2608  -17.5784   24.7560 C   0  0  0  0  0  0  0  0  0  0  0  0
    9.4979  -17.1871   26.7721 O   0  0  0  0  0  0  0  0  0  0  0  0
    9.6562  -17.1313   28.1308 O   0  0  0  0  0  0  0  0  0  0  0  0
  1  2  1  0
  2  3  2  0
  4  2  1  0
  4  5  1  0
  6  5  1  0
  6  7  1  1
  8  6  1  0
  9  8  2  0
 10 11  1  0
 11 13  1  0
 12 11  2  0
 13 14  1  0
 14 15  1  0
 17 16  1  1
 16 15  1  0
 17 18  1  0
 18  8  1  0
 19 23  1  0
 19 17  1  0
 20 19  2  0
 22 21  1  6
 22 24  1  0
 22 23  1  0
 24 25  1  0
 26 24  2  0
M  END
$$$$
