QRA.pdb
     RDKit          3D

 26 25  0  0  1  0  0  0  0  0999 V2000
   15.9811  -15.1007   20.5754 N   0  0  0  0  0  0  0  0  0  0  0  0
   14.7587  -14.6492   20.0369 C   0  0  0  0  0  0  0  0  0  0  0  0
   14.7709  -13.7549   19.1621 O   0  0  0  0  0  0  0  0  0  0  0  0
   13.5209  -15.2583   20.5373 C   0  0  0  0  0  0  0  0  0  0  0  0
   13.7200  -16.4316   21.4526 C   0  0  0  0  0  0  0  0  0  0  0  0
   12.4680  -16.9621   22.0586 C   0  0  2  0  0  0  0  0  0  0  0  0
   11.4697  -17.2613   21.0278 N   0  0  0  0  0  0  0  0  0  0  0  0
   11.8558  -16.0361   23.0768 C   0  0  0  0  0  0  0  0  0  0  0  0
   12.5125  -15.0328   23.5101 O   0  0  0  0  0  0  0  0  0  0  0  0
    7.9522  -14.5353   18.6414 N   0  0  0  0  0  0  0  0  0  0  0  0
    7.5997  -13.4150   19.4891 C   0  0  0  0  0  0  0  0  0  0  0  0
    7.5809  -12.2321   18.9841 N   0  0  0  0  0  0  0  0  0  0  0  0
    7.2883  -13.6661   20.8455 N   0  0  0  0  0  0  0  0  0  0  0  0
    8.2806  -14.4489   21.6421 C   0  0  0  0  0  0  0  0  0  0  0  0
    7.7283  -14.6296   23.0033 C   0  0  0  0  0  0  0  0  0  0  0  0
    8.3991  -15.3750   24.0468 C   0  0  0  0  0  0  0  0  0  0  0  0
    9.8207  -15.2120   24.3536 C   0  0  2  0  0  0  0  0  0  0  0  0
   10.5562  -16.2703   23.5558 N   0  0  0  0  0  0  0  0  0  0  0  0
   10.2158  -15.5104   25.7368 C   0  0  0  0  0  0  0  0  0  0  0  0
   10.6087  -16.6324   26.0706 O   0  0  0  0  0  0  0  0  0  0  0  0
    7.3031  -11.4238   19.5564 C   0  0  0  0  0  0  0  0  0  0  0  0
   10.5384  -13.7122   29.0391 C   0  0  1  0  0  0  0  0  0  0  0  0
   10.4754  -14.9302   28.1202 N   0  0  0  0  0  0  0  0  0  0  0  0
   10.1693  -14.5299   26.7683 C   0  0  0  0  0  0  0  0  0  0  0  0
    9.4433  -15.8876   28.6062 O   0  0  0  0  0  0  0  0  0  0  0  0
    9.7119  -16.6877   29.6840 O   0  0  0  0  0  0  0  0  0  0  0  0
  1  2  1  0
  2  3  2  0
  4  2  1  0
  4  5  1  0
  6  5  1  0
  6  7  1  6
  8  6  1  0
  9  8  2  0
 10 11  1  0
 11 13  1  0
 12 11  2  0
 13 14  1  0
 14 15  1  0
 17 16  1  1
 16 15  1  0
 17 18  1  0
 18  8  1  0
 19 23  1  0
 19 17  1  0
 20 19  2  0
 22 21  1  6
 22 24  1  0
 22 23  1  0
 24 25  1  0
 26 24  2  0
M  END
$$$$
