QRA.pdb
     RDKit          3D

 26 25  0  0  1  0  0  0  0  0999 V2000
   16.2198  -14.8156   17.9989 N   0  0  0  0  0  0  0  0  0  0  0  0
   15.0425  -14.1656   18.4224 C   0  0  0  0  0  0  0  0  0  0  0  0
   14.7909  -13.0181   17.9922 O   0  0  0  0  0  0  0  0  0  0  0  0
   14.1635  -14.8770   19.3578 C   0  0  0  0  0  0  0  0  0  0  0  0
   13.1301  -15.7530   18.7107 C   0  0  0  0  0  0  0  0  0  0  0  0
   12.3466  -16.5896   19.6606 C   0  0  2  0  0  0  0  0  0  0  0  0
   11.3568  -17.4052   18.9510 N   0  0  0  0  0  0  0  0  0  0  0  0
   11.6454  -15.7890   20.7267 C   0  0  0  0  0  0  0  0  0  0  0  0
   12.3197  -15.0986   21.5599 O   0  0  0  0  0  0  0  0  0  0  0  0
    7.3071  -13.2796   16.2395 N   0  0  0  0  0  0  0  0  0  0  0  0
    8.2669  -14.1927   16.8250 C   0  0  0  0  0  0  0  0  0  0  0  0
    8.8029  -15.0955   16.0819 N   0  0  0  0  0  0  0  0  0  0  0  0
    8.5794  -14.0555   18.1974 N   0  0  0  0  0  0  0  0  0  0  0  0
    7.6601  -13.2215   19.0288 C   0  0  0  0  0  0  0  0  0  0  0  0
    8.1378  -13.2775   20.4284 C   0  0  0  0  0  0  0  0  0  0  0  0
    8.2695  -14.5068   21.1807 C   0  0  0  0  0  0  0  0  0  0  0  0
    9.5212  -14.9215   21.8155 C   0  0  2  0  0  0  0  0  0  0  0  0
   10.2432  -15.7963   20.8102 N   0  0  0  0  0  0  0  0  0  0  0  0
    9.3859  -15.8050   22.9816 C   0  0  0  0  0  0  0  0  0  0  0  0
    9.2866  -17.0296   22.8584 O   0  0  0  0  0  0  0  0  0  0  0  0
    9.4799  -15.7623   16.4756 C   0  0  0  0  0  0  0  0  0  0  0  0
    9.3114  -15.5211   26.7460 C   0  0  2  0  0  0  0  0  0  0  0  0
    9.1967  -16.2379   25.4026 N   0  0  0  0  0  0  0  0  0  0  0  0
    9.3614  -15.3048   24.3146 C   0  0  0  0  0  0  0  0  0  0  0  0
    7.8727  -16.9108   25.2907 O   0  0  0  0  0  0  0  0  0  0  0  0
    6.9302  -16.4180   24.4288 O   0  0  0  0  0  0  0  0  0  0  0  0
  1  2  1  0
  2  3  2  0
  4  2  1  0
  4  5  1  0
  6  5  1  0
  6  7  1  6
  8  6  1  0
  9  8  2  0
 10 11  1  0
 11 13  1  0
 12 11  2  0
 13 14  1  0
 14 15  1  0
 17 16  1  6
 16 15  1  0
 17 18  1  0
 18  8  1  0
 19 23  1  0
 19 17  1  0
 20 19  2  0
 22 21  1  1
 22 24  1  0
 22 23  1  0
 24 25  1  0
 26 24  2  0
M  END
$$$$
