QRA.pdb
     RDKit          3D

 26 25  0  0  1  0  0  0  0  0999 V2000
    9.6743  -21.8116   20.5274 N   0  0  0  0  0  0  0  0  0  0  0  0
   10.8919  -21.5417   19.8698 C   0  0  0  0  0  0  0  0  0  0  0  0
   11.6615  -22.4899   19.5979 O   0  0  0  0  0  0  0  0  0  0  0  0
   11.1972  -20.1458   19.5352 C   0  0  0  0  0  0  0  0  0  0  0  0
   10.1259  -19.1601   19.9018 C   0  0  0  0  0  0  0  0  0  0  0  0
   10.4470  -17.7454   19.5673 C   0  0  2  0  0  0  0  0  0  0  0  0
   11.7685  -17.6391   18.9421 N   0  0  0  0  0  0  0  0  0  0  0  0
   10.3935  -16.8215   20.7558 C   0  0  0  0  0  0  0  0  0  0  0  0
   11.4704  -16.4342   21.3178 O   0  0  0  0  0  0  0  0  0  0  0  0
    7.5830  -13.9882   26.8895 N   0  0  0  0  0  0  0  0  0  0  0  0
    7.1129  -12.6803   26.4820 C   0  0  0  0  0  0  0  0  0  0  0  0
    7.1988  -11.7003   27.3107 N   0  0  0  0  0  0  0  0  0  0  0  0
    6.5751  -12.5304   25.1826 N   0  0  0  0  0  0  0  0  0  0  0  0
    6.4812  -13.7570   24.3349 C   0  0  0  0  0  0  0  0  0  0  0  0
    7.4955  -13.6464   23.2629 C   0  0  0  0  0  0  0  0  0  0  0  0
    7.8381  -14.7325   22.3699 C   0  0  0  0  0  0  0  0  0  0  0  0
    9.0866  -15.4883   22.4778 C   0  0  2  0  0  0  0  0  0  0  0  0
    9.1567  -16.3787   21.2532 N   0  0  0  0  0  0  0  0  0  0  0  0
    9.1598  -16.4493   23.5867 C   0  0  0  0  0  0  0  0  0  0  0  0
    8.5750  -17.5359   23.5419 O   0  0  0  0  0  0  0  0  0  0  0  0
    6.8541  -10.7660   27.0530 C   0  0  0  0  0  0  0  0  0  0  0  0
   10.8560  -16.7574   26.9464 C   0  0  1  0  0  0  0  0  0  0  0  0
    9.9259  -17.1846   25.8131 N   0  0  0  0  0  0  0  0  0  0  0  0
    9.9046  -16.1865   24.7715 C   0  0  0  0  0  0  0  0  0  0  0  0
    8.5466  -17.3972   26.3330 O   0  0  0  0  0  0  0  0  0  0  0  0
    8.2662  -18.5078   27.0828 O   0  0  0  0  0  0  0  0  0  0  0  0
  1  2  1  0
  2  3  2  0
  4  2  1  0
  4  5  1  0
  6  5  1  0
  6  7  1  1
  8  6  1  0
  9  8  2  0
 10 11  1  0
 11 13  1  0
 12 11  2  0
 13 14  1  0
 14 15  1  0
 17 16  1  6
 16 15  1  0
 17 18  1  0
 18  8  1  0
 19 23  1  0
 19 17  1  0
 20 19  2  0
 22 21  1  6
 22 24  1  0
 22 23  1  0
 24 25  1  0
 26 24  2  0
M  END
$$$$
