QRA.pdb
     RDKit          3D

 26 25  0  0  1  0  0  0  0  0999 V2000
    8.1698  -11.5466   19.1633 N   0  0  0  0  0  0  0  0  0  0  0  0
    8.7041  -12.5472   18.3259 C   0  0  0  0  0  0  0  0  0  0  0  0
    9.3049  -12.2114   17.2812 O   0  0  0  0  0  0  0  0  0  0  0  0
    8.5247  -13.9472   18.7277 C   0  0  0  0  0  0  0  0  0  0  0  0
    7.7544  -14.1447   20.0011 C   0  0  0  0  0  0  0  0  0  0  0  0
    7.4664  -15.5666   20.3350 C   0  0  2  0  0  0  0  0  0  0  0  0
    6.4874  -16.1378   19.4056 N   0  0  0  0  0  0  0  0  0  0  0  0
    6.9734  -15.7631   21.7448 C   0  0  0  0  0  0  0  0  0  0  0  0
    5.7254  -15.7174   22.0016 O   0  0  0  0  0  0  0  0  0  0  0  0
    6.6773  -22.0603   27.2411 N   0  0  0  0  0  0  0  0  0  0  0  0
    7.1836  -21.0537   28.1513 C   0  0  0  0  0  0  0  0  0  0  0  0
    7.3358  -21.3549   29.3925 N   0  0  0  0  0  0  0  0  0  0  0  0
    7.4925  -19.7728   27.6377 N   0  0  0  0  0  0  0  0  0  0  0  0
    7.4620  -19.6047   26.1536 C   0  0  0  0  0  0  0  0  0  0  0  0
    7.7941  -18.1948   25.8497 C   0  0  0  0  0  0  0  0  0  0  0  0
    7.8247  -17.6507   24.5091 C   0  0  0  0  0  0  0  0  0  0  0  0
    7.3984  -16.2867   24.1935 C   0  0  2  0  0  0  0  0  0  0  0  0
    7.8851  -15.9994   22.7871 N   0  0  0  0  0  0  0  0  0  0  0  0
    8.0286  -15.2198   24.9829 C   0  0  0  0  0  0  0  0  0  0  0  0
    9.2211  -14.9304   24.8455 O   0  0  0  0  0  0  0  0  0  0  0  0
    7.6706  -20.6512   30.0639 C   0  0  0  0  0  0  0  0  0  0  0  0
    7.0951  -12.4576   27.3268 C   0  0  1  0  0  0  0  0  0  0  0  0
    8.0301  -13.5374   26.7867 N   0  0  0  0  0  0  0  0  0  0  0  0
    7.3064  -14.4611   25.9474 C   0  0  0  0  0  0  0  0  0  0  0  0
    8.6671  -14.2755   27.9126 O   0  0  0  0  0  0  0  0  0  0  0  0
    9.5799  -13.6410   28.7116 O   0  0  0  0  0  0  0  0  0  0  0  0
  1  2  1  0
  2  3  2  0
  4  2  1  0
  4  5  1  0
  6  5  1  0
  6  7  1  6
  8  6  1  0
  9  8  2  0
 10 11  1  0
 11 13  1  0
 12 11  2  0
 13 14  1  0
 14 15  1  0
 17 16  1  1
 16 15  1  0
 17 18  1  0
 18  8  1  0
 19 23  1  0
 19 17  1  0
 20 19  2  0
 22 21  1  6
 22 24  1  0
 22 23  1  0
 24 25  1  0
 26 24  2  0
M  END
$$$$
