QRA.pdb
     RDKit          3D

 26 25  0  0  1  0  0  0  0  0999 V2000
   15.4296  -15.5666   15.3943 N   0  0  0  0  0  0  0  0  0  0  0  0
   15.0046  -16.3431   14.2969 C   0  0  0  0  0  0  0  0  0  0  0  0
   15.8435  -16.6966   13.4387 O   0  0  0  0  0  0  0  0  0  0  0  0
   13.5833  -16.6999   14.2171 C   0  0  0  0  0  0  0  0  0  0  0  0
   12.9550  -17.0856   15.5248 C   0  0  0  0  0  0  0  0  0  0  0  0
   11.5105  -17.4348   15.4373 C   0  0  2  0  0  0  0  0  0  0  0  0
   10.7743  -16.4380   14.6544 N   0  0  0  0  0  0  0  0  0  0  0  0
   10.8479  -17.5861   16.7816 C   0  0  0  0  0  0  0  0  0  0  0  0
    9.9594  -16.7526   17.1577 O   0  0  0  0  0  0  0  0  0  0  0  0
    8.4742  -24.2307   23.6100 N   0  0  0  0  0  0  0  0  0  0  0  0
    9.3075  -23.9279   22.4647 C   0  0  0  0  0  0  0  0  0  0  0  0
    9.9850  -24.8750   21.9183 N   0  0  0  0  0  0  0  0  0  0  0  0
    9.3441  -22.5966   21.9891 N   0  0  0  0  0  0  0  0  0  0  0  0
    9.9217  -22.3708   20.6300 C   0  0  0  0  0  0  0  0  0  0  0  0
    9.9331  -20.9124   20.3784 C   0  0  0  0  0  0  0  0  0  0  0  0
   10.4732  -20.3114   19.1778 C   0  0  0  0  0  0  0  0  0  0  0  0
   10.4785  -18.8668   18.9436 C   0  0  2  0  0  0  0  0  0  0  0  0
   11.2032  -18.6474   17.6306 N   0  0  0  0  0  0  0  0  0  0  0  0
   11.2668  -18.0671   19.8910 C   0  0  0  0  0  0  0  0  0  0  0  0
   12.4900  -17.9447   19.7743 O   0  0  0  0  0  0  0  0  0  0  0  0
   10.5790  -24.6877   21.0996 C   0  0  0  0  0  0  0  0  0  0  0  0
   10.6435  -15.7662   22.8160 C   0  0  1  0  0  0  0  0  0  0  0  0
   11.4976  -16.5366   21.8116 N   0  0  0  0  0  0  0  0  0  0  0  0
   10.6712  -17.3903   20.9931 C   0  0  0  0  0  0  0  0  0  0  0  0
   12.5150  -17.3573   22.5252 O   0  0  0  0  0  0  0  0  0  0  0  0
   13.7084  -16.7945   22.8901 O   0  0  0  0  0  0  0  0  0  0  0  0
  1  2  1  0
  2  3  2  0
  4  2  1  0
  4  5  1  0
  6  5  1  0
  6  7  1  6
  8  6  1  0
  9  8  2  0
 10 11  1  0
 11 13  1  0
 12 11  2  0
 13 14  1  0
 14 15  1  0
 17 16  1  1
 16 15  1  0
 17 18  1  0
 18  8  1  0
 19 23  1  0
 19 17  1  0
 20 19  2  0
 22 21  1  6
 22 24  1  0
 22 23  1  0
 24 25  1  0
 26 24  2  0
M  END
$$$$
