QRA.pdb
     RDKit          3D

 26 25  0  0  1  0  0  0  0  0999 V2000
   13.1280  -16.7022   17.4174 N   0  0  0  0  0  0  0  0  0  0  0  0
   13.8712  -17.5531   18.2610 C   0  0  0  0  0  0  0  0  0  0  0  0
   15.0462  -17.8476   17.9480 O   0  0  0  0  0  0  0  0  0  0  0  0
   13.2198  -18.0557   19.4761 C   0  0  0  0  0  0  0  0  0  0  0  0
   12.4315  -17.0312   20.2396 C   0  0  0  0  0  0  0  0  0  0  0  0
   12.6495  -17.0551   21.7120 C   0  0  2  0  0  0  0  0  0  0  0  0
   12.3770  -18.3857   22.2631 N   0  0  0  0  0  0  0  0  0  0  0  0
   11.8228  -16.0397   22.4568 C   0  0  0  0  0  0  0  0  0  0  0  0
   11.8510  -14.8119   22.1143 O   0  0  0  0  0  0  0  0  0  0  0  0
    7.4048  -12.0856   20.0210 N   0  0  0  0  0  0  0  0  0  0  0  0
    7.6706  -13.4359   19.5693 C   0  0  0  0  0  0  0  0  0  0  0  0
    8.0026  -13.6291   18.3417 N   0  0  0  0  0  0  0  0  0  0  0  0
    7.5544  -14.4945   20.4998 N   0  0  0  0  0  0  0  0  0  0  0  0
    8.3590  -14.3946   21.7545 C   0  0  0  0  0  0  0  0  0  0  0  0
    8.1440  -15.6357   22.5314 C   0  0  0  0  0  0  0  0  0  0  0  0
    8.7160  -15.8702   23.8400 C   0  0  0  0  0  0  0  0  0  0  0  0
   10.0722  -15.4560   24.2019 C   0  0  2  0  0  0  0  0  0  0  0  0
   11.0137  -16.4381   23.5338 N   0  0  0  0  0  0  0  0  0  0  0  0
   10.4223  -15.5812   25.6233 C   0  0  0  0  0  0  0  0  0  0  0  0
   10.9053  -16.6208   26.0823 O   0  0  0  0  0  0  0  0  0  0  0  0
    8.2480  -14.5709   18.0086 C   0  0  0  0  0  0  0  0  0  0  0  0
   10.3428  -13.4586   28.7468 C   0  0  1  0  0  0  0  0  0  0  0  0
   10.6061  -14.7201   27.9274 N   0  0  0  0  0  0  0  0  0  0  0  0
   10.2266  -14.5182   26.5502 C   0  0  0  0  0  0  0  0  0  0  0  0
    9.8463  -15.8688   28.4943 O   0  0  0  0  0  0  0  0  0  0  0  0
   10.3055  -16.4987   29.6197 O   0  0  0  0  0  0  0  0  0  0  0  0
  1  2  1  0
  2  3  2  0
  4  2  1  0
  4  5  1  0
  6  5  1  0
  6  7  1  1
  8  6  1  0
  9  8  2  0
 10 11  1  0
 11 13  1  0
 12 11  2  0
 13 14  1  0
 14 15  1  0
 17 16  1  1
 16 15  1  0
 17 18  1  0
 18  8  1  0
 19 23  1  0
 19 17  1  0
 20 19  2  0
 22 21  1  6
 22 24  1  0
 22 23  1  0
 24 25  1  0
 26 24  2  0
M  END
$$$$
