QRA.pdb
     RDKit          3D

 26 25  0  0  1  0  0  0  0  0999 V2000
   10.1982  -23.9424   18.1934 N   0  0  0  0  0  0  0  0  0  0  0  0
    9.9647  -23.8909   16.8039 C   0  0  0  0  0  0  0  0  0  0  0  0
    9.7538  -24.9553   16.1811 O   0  0  0  0  0  0  0  0  0  0  0  0
    9.9824  -22.5759   16.1526 C   0  0  0  0  0  0  0  0  0  0  0  0
   10.1761  -21.4135   17.0827 C   0  0  0  0  0  0  0  0  0  0  0  0
   10.0075  -20.0782   16.4464 C   0  0  2  0  0  0  0  0  0  0  0  0
   10.8345  -19.9606   15.2420 N   0  0  0  0  0  0  0  0  0  0  0  0
   10.3233  -18.9304   17.3694 C   0  0  0  0  0  0  0  0  0  0  0  0
   11.5273  -18.5390   17.5197 O   0  0  0  0  0  0  0  0  0  0  0  0
    7.8865  -14.0142   22.3297 N   0  0  0  0  0  0  0  0  0  0  0  0
    7.6357  -12.7742   21.6245 C   0  0  0  0  0  0  0  0  0  0  0  0
    7.5600  -11.6793   22.2953 N   0  0  0  0  0  0  0  0  0  0  0  0
    7.4832  -12.8154   20.2192 N   0  0  0  0  0  0  0  0  0  0  0  0
    7.1080  -14.1266   19.6094 C   0  0  0  0  0  0  0  0  0  0  0  0
    8.2885  -15.0160   19.6842 C   0  0  0  0  0  0  0  0  0  0  0  0
    8.3621  -16.3052   19.0308 C   0  0  0  0  0  0  0  0  0  0  0  0
    9.5916  -17.0965   18.9670 C   0  0  2  0  0  0  0  0  0  0  0  0
    9.2933  -18.2818   18.0706 N   0  0  0  0  0  0  0  0  0  0  0  0
   10.0098  -17.7326   20.2236 C   0  0  0  0  0  0  0  0  0  0  0  0
    9.4786  -18.7694   20.6329 O   0  0  0  0  0  0  0  0  0  0  0  0
    7.2670  -10.8055   21.8384 C   0  0  0  0  0  0  0  0  0  0  0  0
   12.4908  -18.8848   22.0477 C   0  0  1  0  0  0  0  0  0  0  0  0
   11.3762  -17.8655   22.2729 N   0  0  0  0  0  0  0  0  0  0  0  0
   11.0459  -17.1948   21.0389 C   0  0  0  0  0  0  0  0  0  0  0  0
   11.7944  -16.8637   23.2924 O   0  0  0  0  0  0  0  0  0  0  0  0
   11.9829  -17.2533   24.5912 O   0  0  0  0  0  0  0  0  0  0  0  0
  1  2  1  0
  2  3  2  0
  4  2  1  0
  4  5  1  0
  6  5  1  0
  6  7  1  6
  8  6  1  0
  9  8  2  0
 10 11  1  0
 11 13  1  0
 12 11  2  0
 13 14  1  0
 14 15  1  0
 17 16  1  1
 16 15  1  0
 17 18  1  0
 18  8  1  0
 19 23  1  0
 19 17  1  0
 20 19  2  0
 22 21  1  6
 22 24  1  0
 22 23  1  0
 24 25  1  0
 26 24  2  0
M  END
$$$$
