QRA.pdb
     RDKit          3D

 26 25  0  0  1  0  0  0  0  0999 V2000
    9.0622  -12.4755   17.8211 N   0  0  0  0  0  0  0  0  0  0  0  0
    8.5124  -13.6195   17.2074 C   0  0  0  0  0  0  0  0  0  0  0  0
    8.8470  -13.9033   16.0357 O   0  0  0  0  0  0  0  0  0  0  0  0
    7.5643  -14.4271   17.9837 C   0  0  0  0  0  0  0  0  0  0  0  0
    7.2138  -13.8666   19.3316 C   0  0  0  0  0  0  0  0  0  0  0  0
    8.1225  -14.2898   20.4323 C   0  0  2  0  0  0  0  0  0  0  0  0
    8.9128  -15.4608   20.0416 N   0  0  0  0  0  0  0  0  0  0  0  0
    7.4028  -14.5942   21.7201 C   0  0  0  0  0  0  0  0  0  0  0  0
    6.4542  -13.8419   22.1196 O   0  0  0  0  0  0  0  0  0  0  0  0
    7.3536  -21.9211   27.0744 N   0  0  0  0  0  0  0  0  0  0  0  0
    7.4638  -20.7385   27.9033 C   0  0  0  0  0  0  0  0  0  0  0  0
    7.8084  -20.8703   29.1356 N   0  0  0  0  0  0  0  0  0  0  0  0
    7.1870  -19.4788   27.3232 N   0  0  0  0  0  0  0  0  0  0  0  0
    7.5391  -19.2963   25.8828 C   0  0  0  0  0  0  0  0  0  0  0  0
    7.2472  -17.8917   25.5189 C   0  0  0  0  0  0  0  0  0  0  0  0
    7.4412  -17.3523   24.1901 C   0  0  0  0  0  0  0  0  0  0  0  0
    7.1332  -15.9647   23.8413 C   0  0  2  0  0  0  0  0  0  0  0  0
    7.7707  -15.7101   22.4900 N   0  0  0  0  0  0  0  0  0  0  0  0
    7.7492  -14.9383   24.6932 C   0  0  0  0  0  0  0  0  0  0  0  0
    8.9706  -14.7578   24.7096 O   0  0  0  0  0  0  0  0  0  0  0  0
    7.9164  -20.0445   29.7393 C   0  0  0  0  0  0  0  0  0  0  0  0
    6.7068  -12.0127   26.7884 C   0  0  1  0  0  0  0  0  0  0  0  0
    7.6639  -13.1233   26.3613 N   0  0  0  0  0  0  0  0  0  0  0  0
    6.9793  -14.0962   25.5450 C   0  0  0  0  0  0  0  0  0  0  0  0
    8.2428  -13.7917   27.5597 O   0  0  0  0  0  0  0  0  0  0  0  0
    9.0924  -13.0996   28.3803 O   0  0  0  0  0  0  0  0  0  0  0  0
  1  2  1  0
  2  3  2  0
  4  2  1  0
  4  5  1  0
  6  5  1  0
  6  7  1  6
  8  6  1  0
  9  8  2  0
 10 11  1  0
 11 13  1  0
 12 11  2  0
 13 14  1  0
 14 15  1  0
 17 16  1  1
 16 15  1  0
 17 18  1  0
 18  8  1  0
 19 23  1  0
 19 17  1  0
 20 19  2  0
 22 21  1  6
 22 24  1  0
 22 23  1  0
 24 25  1  0
 26 24  2  0
M  END
$$$$
