QRA.pdb
     RDKit          3D

 26 25  0  0  1  0  0  0  0  0999 V2000
   15.9209  -14.7181   16.3624 N   0  0  0  0  0  0  0  0  0  0  0  0
   16.0003  -14.4707   17.7482 C   0  0  0  0  0  0  0  0  0  0  0  0
   16.4147  -13.3594   18.1465 O   0  0  0  0  0  0  0  0  0  0  0  0
   15.5888  -15.5426   18.6621 C   0  0  0  0  0  0  0  0  0  0  0  0
   14.1375  -15.9179   18.5818 C   0  0  0  0  0  0  0  0  0  0  0  0
   13.7071  -16.9385   19.5765 C   0  0  2  0  0  0  0  0  0  0  0  0
   12.8364  -17.9424   18.9579 N   0  0  0  0  0  0  0  0  0  0  0  0
   13.0026  -16.3512   20.7714 C   0  0  0  0  0  0  0  0  0  0  0  0
   13.6202  -15.5583   21.5560 O   0  0  0  0  0  0  0  0  0  0  0  0
    7.1987  -12.2775   20.2327 N   0  0  0  0  0  0  0  0  0  0  0  0
    7.7628  -12.9673   19.0909 C   0  0  0  0  0  0  0  0  0  0  0  0
    8.4620  -12.3003   18.2419 N   0  0  0  0  0  0  0  0  0  0  0  0
    7.5221  -14.3541   18.9531 N   0  0  0  0  0  0  0  0  0  0  0  0
    7.5998  -15.1886   20.1898 C   0  0  0  0  0  0  0  0  0  0  0  0
    8.9927  -15.1342   20.6870 C   0  0  0  0  0  0  0  0  0  0  0  0
    9.4952  -15.9735   21.7535 C   0  0  0  0  0  0  0  0  0  0  0  0
   10.9025  -15.9942   22.1545 C   0  0  2  0  0  0  0  0  0  0  0  0
   11.6596  -16.6717   21.0296 N   0  0  0  0  0  0  0  0  0  0  0  0
   11.2248  -16.8318   23.3178 C   0  0  0  0  0  0  0  0  0  0  0  0
   11.6051  -17.9996   23.1897 O   0  0  0  0  0  0  0  0  0  0  0  0
    8.9076  -12.7739   17.4448 C   0  0  0  0  0  0  0  0  0  0  0  0
   11.1801  -16.5614   27.0851 C   0  0  1  0  0  0  0  0  0  0  0  0
   11.2940  -17.2799   25.7424 N   0  0  0  0  0  0  0  0  0  0  0  0
   11.1184  -16.3499   24.6534 C   0  0  0  0  0  0  0  0  0  0  0  0
   10.2729  -18.3601   25.6496 O   0  0  0  0  0  0  0  0  0  0  0  0
   10.4560  -19.5297   26.3371 O   0  0  0  0  0  0  0  0  0  0  0  0
  1  2  1  0
  2  3  2  0
  4  2  1  0
  4  5  1  0
  6  5  1  0
  6  7  1  6
  8  6  1  0
  9  8  2  0
 10 11  1  0
 11 13  1  0
 12 11  2  0
 13 14  1  0
 14 15  1  0
 17 16  1  6
 16 15  1  0
 17 18  1  0
 18  8  1  0
 19 23  1  0
 19 17  1  0
 20 19  2  0
 22 21  1  6
 22 24  1  0
 22 23  1  0
 24 25  1  0
 26 24  2  0
M  END
$$$$
