INR.pdb
     RDKit          3D

 28 27  0  0  1  0  0  0  0  0999 V2000
   27.8832  -18.3301  -16.6207 C   0  0  0  0  0  0  0  0  0  0  0  0
   26.7416  -19.2402  -16.2711 C   0  0  0  0  0  0  0  0  0  0  0  0
   27.1992  -20.2633  -15.2553 C   0  0  2  0  0  0  0  0  0  0  0  0
   28.4116  -20.9626  -15.7826 C   0  0  0  0  0  0  0  0  0  0  0  0
   26.0776  -21.2091  -14.8826 C   0  0  2  0  0  0  0  0  0  0  0  0
   25.6759  -21.9500  -16.0475 N   0  0  0  0  0  0  0  0  0  0  0  0
   24.9419  -20.4854  -14.2558 C   0  0  0  0  0  0  0  0  0  0  0  0
   25.0821  -19.9594  -13.1228 O   0  0  0  0  0  0  0  0  0  0  0  0
   23.7885  -17.1038  -14.6910 N   0  0  0  0  0  0  0  0  0  0  0  0
   22.5332  -17.4508  -15.2269 C   0  0  0  0  0  0  0  0  0  0  0  0
   21.9644  -16.5345  -15.9175 O   0  0  0  0  0  0  0  0  0  0  0  0
   21.8474  -18.7330  -15.0639 C   0  0  0  0  0  0  0  0  0  0  0  0
   22.6048  -19.7095  -14.2357 C   0  0  2  0  0  0  0  0  0  0  0  0
   23.6791  -20.3627  -14.9003 N   0  0  0  0  0  0  0  0  0  0  0  0
   21.6449  -20.6718  -13.6068 C   0  0  0  0  0  0  0  0  0  0  0  0
   22.0380  -21.6242  -12.8590 O   0  0  0  0  0  0  0  0  0  0  0  0
   18.9268  -24.6443   -7.3667 N   0  0  0  0  0  0  0  0  0  0  0  0
   18.6187  -25.0028   -8.7052 C   0  0  0  0  0  0  0  0  0  0  0  0
   18.7616  -26.2323   -9.0667 N   0  0  0  0  0  0  0  0  0  0  0  0
   18.1610  -24.0287   -9.6331 N   0  0  0  0  0  0  0  0  0  0  0  0
   18.9289  -22.7967   -9.8374 C   0  0  0  0  0  0  0  0  0  0  0  0
   18.2719  -21.9687  -10.9124 C   0  0  0  0  0  0  0  0  0  0  0  0
   19.3262  -21.1610  -11.6510 C   0  0  0  0  0  0  0  0  0  0  0  0
   19.2913  -21.4467  -13.1370 C   0  0  2  0  0  0  0  0  0  0  0  0
   20.2429  -20.5818  -13.8046 N   0  0  0  0  0  0  0  0  0  0  0  0
   17.9047  -21.2013  -13.6094 C   0  0  0  0  0  0  0  0  0  0  0  0
   17.5106  -20.0376  -13.8715 O   0  0  0  0  0  0  0  0  0  0  0  0
   17.0473  -22.2794  -13.7578 O   0  0  0  0  0  0  0  0  0  0  0  0
  2  1  1  0
  3  2  1  0
  3  4  1  6
  5  3  1  0
  5  6  1  6
  7  8  2  0
  7  5  1  0
  9 10  1  0
 10 11  2  0
 10 12  1  0
 13 12  1  6
 13 14  1  0
 14  7  1  0
 15 16  2  0
 15 13  1  0
 17 18  1  0
 18 19  2  0
 20 18  1  0
 20 21  1  0
 22 21  1  0
 23 22  1  0
 24 23  1  1
 24 25  1  0
 25 15  1  0
 26 24  1  0
 27 26  2  0
 28 26  1  0
M  END
$$$$
