INR.pdb
     RDKit          3D

 28 27  0  0  1  0  0  0  0  0999 V2000
   27.5313  -19.5677   -6.6055 C   0  0  0  0  0  0  0  0  0  0  0  0
   27.6283  -20.6592   -7.6316 C   0  0  0  0  0  0  0  0  0  0  0  0
   26.5024  -20.5187   -8.6319 C   0  0  2  0  0  0  0  0  0  0  0  0
   25.2088  -20.8455   -7.9561 C   0  0  0  0  0  0  0  0  0  0  0  0
   26.7581  -21.3519   -9.8696 C   0  0  2  0  0  0  0  0  0  0  0  0
   28.1144  -21.1522  -10.3031 N   0  0  0  0  0  0  0  0  0  0  0  0
   25.7740  -21.0508  -10.9407 C   0  0  0  0  0  0  0  0  0  0  0  0
   25.4284  -19.8620  -11.1586 O   0  0  0  0  0  0  0  0  0  0  0  0
   26.5321  -20.6161  -14.0572 N   0  0  0  0  0  0  0  0  0  0  0  0
   25.7345  -21.6062  -14.6627 C   0  0  0  0  0  0  0  0  0  0  0  0
   26.1369  -22.0011  -15.8125 O   0  0  0  0  0  0  0  0  0  0  0  0
   24.5212  -22.2021  -14.1023 C   0  0  0  0  0  0  0  0  0  0  0  0
   24.2186  -21.7424  -12.7203 C   0  0  2  0  0  0  0  0  0  0  0  0
   25.1975  -22.0745  -11.7435 N   0  0  0  0  0  0  0  0  0  0  0  0
   22.8443  -22.1991  -12.3385 C   0  0  0  0  0  0  0  0  0  0  0  0
   22.6446  -22.9937  -11.3640 O   0  0  0  0  0  0  0  0  0  0  0  0
   15.5745  -22.2113  -11.9802 N   0  0  0  0  0  0  0  0  0  0  0  0
   15.4924  -21.8592  -10.6075 C   0  0  0  0  0  0  0  0  0  0  0  0
   14.5474  -22.3672   -9.8921 N   0  0  0  0  0  0  0  0  0  0  0  0
   16.4316  -20.9641  -10.0278 N   0  0  0  0  0  0  0  0  0  0  0  0
   17.5329  -20.4350  -10.8381 C   0  0  0  0  0  0  0  0  0  0  0  0
   18.2411  -21.5741  -11.5265 C   0  0  0  0  0  0  0  0  0  0  0  0
   19.6156  -21.1174  -11.9869 C   0  0  0  0  0  0  0  0  0  0  0  0
   20.3492  -22.2304  -12.7038 C   0  0  2  0  0  0  0  0  0  0  0  0
   21.6840  -21.7757  -13.0364 N   0  0  0  0  0  0  0  0  0  0  0  0
   19.5690  -22.5719  -13.9207 C   0  0  0  0  0  0  0  0  0  0  0  0
   19.8209  -22.0221  -15.0219 O   0  0  0  0  0  0  0  0  0  0  0  0
   18.5543  -23.5103  -13.8242 O   0  0  0  0  0  0  0  0  0  0  0  0
  2  1  1  0
  3  2  1  0
  3  4  1  1
  5  3  1  0
  5  6  1  6
  7  8  2  0
  7  5  1  0
  9 10  1  0
 10 11  2  0
 10 12  1  0
 13 12  1  6
 13 14  1  0
 14  7  1  0
 15 16  2  0
 15 13  1  0
 17 18  1  0
 18 19  2  0
 20 18  1  0
 20 21  1  0
 22 21  1  0
 23 22  1  0
 24 23  1  6
 24 25  1  0
 25 15  1  0
 26 24  1  0
 27 26  2  0
 28 26  1  0
M  END
$$$$
