INR.pdb
     RDKit          3D

 28 27  0  0  1  0  0  0  0  0999 V2000
   16.2811  -10.6586  -17.0121 C   0  0  0  0  0  0  0  0  0  0  0  0
   17.3536  -10.0012  -16.1927 C   0  0  0  0  0  0  0  0  0  0  0  0
   16.8093   -9.6574  -14.8239 C   0  0  2  0  0  0  0  0  0  0  0  0
   15.6099   -8.7786  -14.9848 C   0  0  0  0  0  0  0  0  0  0  0  0
   17.8803   -9.0526  -13.9415 C   0  0  2  0  0  0  0  0  0  0  0  0
   18.9978   -9.9542  -13.8672 N   0  0  0  0  0  0  0  0  0  0  0  0
   17.3466   -8.7049  -12.5995 C   0  0  0  0  0  0  0  0  0  0  0  0
   17.1210   -9.6126  -11.7598 O   0  0  0  0  0  0  0  0  0  0  0  0
   16.1744   -6.9732   -7.7213 N   0  0  0  0  0  0  0  0  0  0  0  0
   16.6007   -6.0845   -8.7273 C   0  0  0  0  0  0  0  0  0  0  0  0
   16.3229   -4.8520   -8.5178 O   0  0  0  0  0  0  0  0  0  0  0  0
   17.3129   -6.4436   -9.9539 C   0  0  0  0  0  0  0  0  0  0  0  0
   16.4451   -7.0866  -10.9769 C   0  0  2  0  0  0  0  0  0  0  0  0
   17.0765   -7.3598  -12.2216 N   0  0  0  0  0  0  0  0  0  0  0  0
   15.1884   -6.2866  -11.1307 C   0  0  0  0  0  0  0  0  0  0  0  0
   15.0936   -5.3353  -11.9715 O   0  0  0  0  0  0  0  0  0  0  0  0
    8.1609   -9.4947   -7.4427 N   0  0  0  0  0  0  0  0  0  0  0  0
    8.6427  -10.0512   -8.6564 C   0  0  0  0  0  0  0  0  0  0  0  0
    8.2419  -11.2271   -9.0020 N   0  0  0  0  0  0  0  0  0  0  0  0
    9.5498   -9.3299   -9.4787 N   0  0  0  0  0  0  0  0  0  0  0  0
   10.1837   -8.1092   -8.9713 C   0  0  0  0  0  0  0  0  0  0  0  0
   11.1158   -7.5555  -10.0188 C   0  0  0  0  0  0  0  0  0  0  0  0
   11.7905   -6.3005   -9.4902 C   0  0  0  0  0  0  0  0  0  0  0  0
   12.8078   -5.7702  -10.4775 C   0  0  2  0  0  0  0  0  0  0  0  0
   14.0297   -6.5386  -10.3519 N   0  0  0  0  0  0  0  0  0  0  0  0
   13.0303   -4.3350  -10.1665 C   0  0  0  0  0  0  0  0  0  0  0  0
   13.9917   -3.9750   -9.4423 O   0  0  0  0  0  0  0  0  0  0  0  0
   12.1582   -3.3936  -10.6888 O   0  0  0  0  0  0  0  0  0  0  0  0
  2  1  1  0
  3  2  1  0
  3  4  1  6
  5  3  1  0
  5  6  1  1
  7  8  2  0
  7  5  1  0
  9 10  1  0
 10 11  2  0
 10 12  1  0
 13 12  1  1
 13 14  1  0
 14  7  1  0
 15 16  2  0
 15 13  1  0
 17 18  1  0
 18 19  2  0
 20 18  1  0
 20 21  1  0
 22 21  1  0
 23 22  1  0
 24 23  1  1
 24 25  1  0
 25 15  1  0
 26 24  1  0
 27 26  2  0
 28 26  1  0
M  END
$$$$
