INR.pdb
     RDKit          3D

 28 27  0  0  1  0  0  0  0  0999 V2000
   24.9887  -23.6052  -18.5901 C   0  0  0  0  0  0  0  0  0  0  0  0
   25.4606  -24.2054  -17.2975 C   0  0  0  0  0  0  0  0  0  0  0  0
   24.5112  -23.8246  -16.1832 C   0  0  2  0  0  0  0  0  0  0  0  0
   23.1203  -24.2066  -16.5784 C   0  0  0  0  0  0  0  0  0  0  0  0
   24.6493  -22.3621  -15.8178 C   0  0  2  0  0  0  0  0  0  0  0  0
   26.0256  -22.0775  -15.5146 N   0  0  0  0  0  0  0  0  0  0  0  0
   23.7387  -21.9915  -14.7043 C   0  0  0  0  0  0  0  0  0  0  0  0
   23.9403  -22.4484  -13.5508 O   0  0  0  0  0  0  0  0  0  0  0  0
   20.1980  -20.0491  -11.4966 N   0  0  0  0  0  0  0  0  0  0  0  0
   20.4438  -19.1627  -12.5630 C   0  0  0  0  0  0  0  0  0  0  0  0
   19.8978  -18.0099  -12.4492 O   0  0  0  0  0  0  0  0  0  0  0  0
   21.2474  -19.4430  -13.7533 C   0  0  0  0  0  0  0  0  0  0  0  0
   21.7527  -20.8409  -13.8119 C   0  0  2  0  0  0  0  0  0  0  0  0
   22.6274  -21.1239  -14.8970 N   0  0  0  0  0  0  0  0  0  0  0  0
   20.5941  -21.7874  -13.7428 C   0  0  0  0  0  0  0  0  0  0  0  0
   19.6345  -21.7401  -14.5782 O   0  0  0  0  0  0  0  0  0  0  0  0
   18.6357  -25.1353   -6.0941 N   0  0  0  0  0  0  0  0  0  0  0  0
   17.5362  -25.1102   -6.9916 C   0  0  0  0  0  0  0  0  0  0  0  0
   16.3419  -25.1900   -6.5119 N   0  0  0  0  0  0  0  0  0  0  0  0
   17.7426  -24.9995   -8.3932 N   0  0  0  0  0  0  0  0  0  0  0  0
   19.1057  -24.9928   -8.9326 C   0  0  0  0  0  0  0  0  0  0  0  0
   19.0488  -24.9738  -10.4391 C   0  0  0  0  0  0  0  0  0  0  0  0
   19.0898  -23.5373  -10.9336 C   0  0  0  0  0  0  0  0  0  0  0  0
   19.2586  -23.4819  -12.4368 C   0  0  2  0  0  0  0  0  0  0  0  0
   20.4945  -22.7918  -12.7459 N   0  0  0  0  0  0  0  0  0  0  0  0
   18.0807  -22.7701  -12.9954 C   0  0  0  0  0  0  0  0  0  0  0  0
   17.8546  -21.5700  -12.7004 O   0  0  0  0  0  0  0  0  0  0  0  0
   17.2302  -23.4516  -13.8508 O   0  0  0  0  0  0  0  0  0  0  0  0
  2  1  1  0
  3  2  1  0
  3  4  1  6
  5  3  1  0
  5  6  1  1
  7  8  2  0
  7  5  1  0
  9 10  1  0
 10 11  2  0
 10 12  1  0
 13 12  1  6
 13 14  1  0
 14  7  1  0
 15 16  2  0
 15 13  1  0
 17 18  1  0
 18 19  2  0
 20 18  1  0
 20 21  1  0
 22 21  1  0
 23 22  1  0
 24 23  1  1
 24 25  1  0
 25 15  1  0
 26 24  1  0
 27 26  2  0
 28 26  1  0
M  END
$$$$
