INR.pdb
     RDKit          3D

 28 27  0  0  1  0  0  0  0  0999 V2000
   20.5300  -30.1920  -14.0942 C   0  0  0  0  0  0  0  0  0  0  0  0
   19.9205  -28.8257  -14.2188 C   0  0  0  0  0  0  0  0  0  0  0  0
   20.0844  -28.0747  -12.9161 C   0  0  2  0  0  0  0  0  0  0  0  0
   19.4049  -28.8400  -11.8255 C   0  0  0  0  0  0  0  0  0  0  0  0
   19.5969  -26.6468  -13.0385 C   0  0  2  0  0  0  0  0  0  0  0  0
   20.3079  -25.9932  -14.1037 N   0  0  0  0  0  0  0  0  0  0  0  0
   19.7186  -25.9184  -11.7497 C   0  0  0  0  0  0  0  0  0  0  0  0
   20.6673  -25.1133  -11.5715 O   0  0  0  0  0  0  0  0  0  0  0  0
   18.9552  -23.4517   -7.2833 N   0  0  0  0  0  0  0  0  0  0  0  0
   18.8589  -22.9813   -8.6072 C   0  0  0  0  0  0  0  0  0  0  0  0
   18.8262  -21.7070   -8.7308 O   0  0  0  0  0  0  0  0  0  0  0  0
   18.7953  -23.8043   -9.8154 C   0  0  0  0  0  0  0  0  0  0  0  0
   18.8473  -25.2655   -9.5409 C   0  0  2  0  0  0  0  0  0  0  0  0
   18.7858  -26.1003  -10.6905 N   0  0  0  0  0  0  0  0  0  0  0  0
   17.8083  -25.6125   -8.5195 C   0  0  0  0  0  0  0  0  0  0  0  0
   16.5712  -25.3807   -8.7108 O   0  0  0  0  0  0  0  0  0  0  0  0
   14.6726  -22.1884   -1.8478 N   0  0  0  0  0  0  0  0  0  0  0  0
   14.1756  -23.5074   -1.6805 C   0  0  0  0  0  0  0  0  0  0  0  0
   13.3248  -23.7351   -0.7387 N   0  0  0  0  0  0  0  0  0  0  0  0
   14.6046  -24.5608   -2.5325 N   0  0  0  0  0  0  0  0  0  0  0  0
   15.6328  -24.3076   -3.5463 C   0  0  0  0  0  0  0  0  0  0  0  0
   15.8176  -25.5418   -4.3922 C   0  0  0  0  0  0  0  0  0  0  0  0
   16.8959  -25.2907   -5.4333 C   0  0  0  0  0  0  0  0  0  0  0  0
   17.1525  -26.5299   -6.2637 C   0  0  2  0  0  0  0  0  0  0  0  0
   18.1373  -26.2193   -7.2800 N   0  0  0  0  0  0  0  0  0  0  0  0
   15.8589  -26.9442   -6.8645 C   0  0  0  0  0  0  0  0  0  0  0  0
   15.1181  -26.1069   -7.4376 O   0  0  0  0  0  0  0  0  0  0  0  0
   15.4783  -28.2739   -6.7837 O   0  0  0  0  0  0  0  0  0  0  0  0
  2  1  1  0
  3  2  1  0
  3  4  1  1
  5  3  1  0
  5  6  1  6
  7  8  2  0
  7  5  1  0
  9 10  1  0
 10 11  2  0
 10 12  1  0
 13 12  1  6
 13 14  1  0
 14  7  1  0
 15 16  2  0
 15 13  1  0
 17 18  1  0
 18 19  2  0
 20 18  1  0
 20 21  1  0
 22 21  1  0
 23 22  1  0
 24 23  1  6
 24 25  1  0
 25 15  1  0
 26 24  1  0
 27 26  2  0
 28 26  1  0
M  END
$$$$
