INR.pdb
     RDKit          3D

 28 27  0  0  1  0  0  0  0  0999 V2000
   26.5903  -20.5270   -9.0074 C   0  0  0  0  0  0  0  0  0  0  0  0
   26.8371  -20.5749  -10.4875 C   0  0  0  0  0  0  0  0  0  0  0  0
   25.5156  -20.5974  -11.2232 C   0  0  2  0  0  0  0  0  0  0  0  0
   24.7368  -21.7971  -10.7863 C   0  0  0  0  0  0  0  0  0  0  0  0
   25.7184  -20.5287  -12.7217 C   0  0  2  0  0  0  0  0  0  0  0  0
   26.5327  -19.3866  -13.0377 N   0  0  0  0  0  0  0  0  0  0  0  0
   24.4214  -20.5136  -13.4458 C   0  0  0  0  0  0  0  0  0  0  0  0
   23.6701  -19.5091  -13.3657 O   0  0  0  0  0  0  0  0  0  0  0  0
   20.8001  -20.6522  -17.5698 N   0  0  0  0  0  0  0  0  0  0  0  0
   21.3755  -21.7653  -16.9269 C   0  0  0  0  0  0  0  0  0  0  0  0
   20.6354  -22.8093  -16.8803 O   0  0  0  0  0  0  0  0  0  0  0  0
   22.7086  -21.8241  -16.3266 C   0  0  0  0  0  0  0  0  0  0  0  0
   22.7095  -21.5794  -14.8592 C   0  0  2  0  0  0  0  0  0  0  0  0
   23.9895  -21.6122  -14.2404 N   0  0  0  0  0  0  0  0  0  0  0  0
   21.7284  -22.5024  -14.2048 C   0  0  0  0  0  0  0  0  0  0  0  0
   22.1023  -23.5167  -13.5323 O   0  0  0  0  0  0  0  0  0  0  0  0
   16.9120  -24.1075   -7.9372 N   0  0  0  0  0  0  0  0  0  0  0  0
   18.2780  -24.4931   -7.9574 C   0  0  0  0  0  0  0  0  0  0  0  0
   18.6697  -25.4315   -7.1645 N   0  0  0  0  0  0  0  0  0  0  0  0
   19.2005  -23.8597   -8.8334 N   0  0  0  0  0  0  0  0  0  0  0  0
   18.7544  -22.7586   -9.6923 C   0  0  0  0  0  0  0  0  0  0  0  0
   18.5734  -23.2635  -11.1013 C   0  0  0  0  0  0  0  0  0  0  0  0
   19.5854  -22.5952  -12.0173 C   0  0  0  0  0  0  0  0  0  0  0  0
   19.3726  -23.0062  -13.4584 C   0  0  2  0  0  0  0  0  0  0  0  0
   20.3264  -22.3043  -14.2932 N   0  0  0  0  0  0  0  0  0  0  0  0
   17.9734  -22.6647  -13.8213 C   0  0  0  0  0  0  0  0  0  0  0  0
   17.0527  -23.5109  -13.7011 O   0  0  0  0  0  0  0  0  0  0  0  0
   17.6962  -21.3933  -14.2967 O   0  0  0  0  0  0  0  0  0  0  0  0
  2  1  1  0
  3  2  1  0
  3  4  1  6
  5  3  1  0
  5  6  1  1
  7  8  2  0
  7  5  1  0
  9 10  1  0
 10 11  2  0
 10 12  1  0
 13 12  1  6
 13 14  1  0
 14  7  1  0
 15 16  2  0
 15 13  1  0
 17 18  1  0
 18 19  2  0
 20 18  1  0
 20 21  1  0
 22 21  1  0
 23 22  1  0
 24 23  1  1
 24 25  1  0
 25 15  1  0
 26 24  1  0
 27 26  2  0
 28 26  1  0
M  END
$$$$
