INR.pdb
     RDKit          3D

 28 27  0  0  1  0  0  0  0  0999 V2000
   17.6037  -25.0706  -13.2922 C   0  0  0  0  0  0  0  0  0  0  0  0
   18.1769  -24.5073  -12.0241 C   0  0  0  0  0  0  0  0  0  0  0  0
   17.3613  -24.9824  -10.8421 C   0  0  2  0  0  0  0  0  0  0  0  0
   15.9305  -24.6026  -11.0552 C   0  0  0  0  0  0  0  0  0  0  0  0
   17.9297  -24.4658   -9.5376 C   0  0  2  0  0  0  0  0  0  0  0  0
   19.3291  -24.7886   -9.4699 N   0  0  0  0  0  0  0  0  0  0  0  0
   17.1738  -24.9883   -8.3705 C   0  0  0  0  0  0  0  0  0  0  0  0
   15.9743  -24.6536   -8.1993 O   0  0  0  0  0  0  0  0  0  0  0  0
   15.8154  -28.7384   -4.2950 N   0  0  0  0  0  0  0  0  0  0  0  0
   16.8281  -27.7602   -4.3217 C   0  0  0  0  0  0  0  0  0  0  0  0
   17.0456  -27.1716   -3.2052 O   0  0  0  0  0  0  0  0  0  0  0  0
   17.6273  -27.3736   -5.4849 C   0  0  0  0  0  0  0  0  0  0  0  0
   17.0450  -26.2415   -6.2546 C   0  0  2  0  0  0  0  0  0  0  0  0
   17.7661  -25.8686   -7.4221 N   0  0  0  0  0  0  0  0  0  0  0  0
   16.8069  -25.0875   -5.3301 C   0  0  0  0  0  0  0  0  0  0  0  0
   17.5688  -24.0677   -5.3151 O   0  0  0  0  0  0  0  0  0  0  0  0
   10.2417  -20.6615   -6.4565 N   0  0  0  0  0  0  0  0  0  0  0  0
   10.9791  -19.8085   -5.5942 C   0  0  0  0  0  0  0  0  0  0  0  0
   10.6568  -18.5615   -5.5308 N   0  0  0  0  0  0  0  0  0  0  0  0
   12.0534  -20.3145   -4.8135 N   0  0  0  0  0  0  0  0  0  0  0  0
   12.6232  -21.6299   -5.1203 C   0  0  0  0  0  0  0  0  0  0  0  0
   13.7140  -21.9473   -4.1292 C   0  0  0  0  0  0  0  0  0  0  0  0
   14.7208  -22.8930   -4.7632 C   0  0  0  0  0  0  0  0  0  0  0  0
   15.2863  -23.8545   -3.7402 C   0  0  2  0  0  0  0  0  0  0  0  0
   15.7212  -25.0593   -4.4174 N   0  0  0  0  0  0  0  0  0  0  0  0
   14.2154  -24.1397   -2.7512 C   0  0  0  0  0  0  0  0  0  0  0  0
   13.8682  -23.2728   -1.9109 O   0  0  0  0  0  0  0  0  0  0  0  0
   13.6015  -25.3815   -2.7685 O   0  0  0  0  0  0  0  0  0  0  0  0
  2  1  1  0
  3  2  1  0
  3  4  1  6
  5  3  1  0
  5  6  1  1
  7  8  2  0
  7  5  1  0
  9 10  1  0
 10 11  2  0
 10 12  1  0
 13 12  1  1
 13 14  1  0
 14  7  1  0
 15 16  2  0
 15 13  1  0
 17 18  1  0
 18 19  2  0
 20 18  1  0
 20 21  1  0
 22 21  1  0
 23 22  1  0
 24 23  1  6
 24 25  1  0
 25 15  1  0
 26 24  1  0
 27 26  2  0
 28 26  1  0
M  END
$$$$
