INR.pdb
     RDKit          3D

 28 27  0  0  1  0  0  0  0  0999 V2000
   27.2767  -20.1599   -8.7956 C   0  0  0  0  0  0  0  0  0  0  0  0
   26.8704  -21.0943   -9.8982 C   0  0  0  0  0  0  0  0  0  0  0  0
   25.9223  -20.3871  -10.8410 C   0  0  2  0  0  0  0  0  0  0  0  0
   24.7815  -19.8268  -10.0527 C   0  0  0  0  0  0  0  0  0  0  0  0
   25.4816  -21.2994  -11.9657 C   0  0  2  0  0  0  0  0  0  0  0  0
   26.5250  -22.2494  -12.2414 N   0  0  0  0  0  0  0  0  0  0  0  0
   25.0907  -20.5257  -13.1720 C   0  0  0  0  0  0  0  0  0  0  0  0
   24.0634  -19.8019  -13.1471 O   0  0  0  0  0  0  0  0  0  0  0  0
   27.3167  -18.0952  -14.2065 N   0  0  0  0  0  0  0  0  0  0  0  0
   27.4388  -18.4424  -15.5659 C   0  0  0  0  0  0  0  0  0  0  0  0
   28.4869  -17.9944  -16.1498 O   0  0  0  0  0  0  0  0  0  0  0  0
   26.4952  -19.2483  -16.3411 C   0  0  0  0  0  0  0  0  0  0  0  0
   25.4108  -19.8474  -15.5176 C   0  0  2  0  0  0  0  0  0  0  0  0
   25.8483  -20.5734  -14.3757 N   0  0  0  0  0  0  0  0  0  0  0  0
   24.5074  -20.6512  -16.4011 C   0  0  0  0  0  0  0  0  0  0  0  0
   24.8860  -21.7411  -16.9392 O   0  0  0  0  0  0  0  0  0  0  0  0
   18.2696  -24.4947  -12.8126 N   0  0  0  0  0  0  0  0  0  0  0  0
   18.6518  -23.1287  -12.7596 C   0  0  0  0  0  0  0  0  0  0  0  0
   17.8591  -22.2841  -12.1931 N   0  0  0  0  0  0  0  0  0  0  0  0
   19.8841  -22.6951  -13.3191 N   0  0  0  0  0  0  0  0  0  0  0  0
   20.6480  -23.5943  -14.1892 C   0  0  0  0  0  0  0  0  0  0  0  0
   20.8254  -22.9523  -15.5417 C   0  0  0  0  0  0  0  0  0  0  0  0
   21.8830  -21.8643  -15.4560 C   0  0  0  0  0  0  0  0  0  0  0  0
   22.0729  -21.1806  -16.7929 C   0  0  2  0  0  0  0  0  0  0  0  0
   23.1782  -20.2494  -16.6920 N   0  0  0  0  0  0  0  0  0  0  0  0
   20.8028  -20.4872  -17.1275 C   0  0  0  0  0  0  0  0  0  0  0  0
   19.9916  -20.9890  -17.9451 O   0  0  0  0  0  0  0  0  0  0  0  0
   20.5234  -19.2726  -16.5222 O   0  0  0  0  0  0  0  0  0  0  0  0
  2  1  1  0
  3  2  1  0
  3  4  1  1
  5  3  1  0
  5  6  1  6
  7  8  2  0
  7  5  1  0
  9 10  1  0
 10 11  2  0
 10 12  1  0
 13 12  1  6
 13 14  1  0
 14  7  1  0
 15 16  2  0
 15 13  1  0
 17 18  1  0
 18 19  2  0
 20 18  1  0
 20 21  1  0
 22 21  1  0
 23 22  1  0
 24 23  1  1
 24 25  1  0
 25 15  1  0
 26 24  1  0
 27 26  2  0
 28 26  1  0
M  END
$$$$
