INR.pdb
     RDKit          3D

 28 27  0  0  1  0  0  0  0  0999 V2000
   28.5066  -24.6672  -17.8496 C   0  0  0  0  0  0  0  0  0  0  0  0
   28.7443  -23.2206  -18.1729 C   0  0  0  0  0  0  0  0  0  0  0  0
   27.7933  -22.3577  -17.3735 C   0  0  2  0  0  0  0  0  0  0  0  0
   26.3880  -22.7442  -17.7090 C   0  0  0  0  0  0  0  0  0  0  0  0
   28.0757  -20.8856  -17.5846 C   0  0  2  0  0  0  0  0  0  0  0  0
   29.4730  -20.6339  -17.3576 N   0  0  0  0  0  0  0  0  0  0  0  0
   27.2045  -20.0370  -16.7316 C   0  0  0  0  0  0  0  0  0  0  0  0
   27.5392  -19.7874  -15.5460 O   0  0  0  0  0  0  0  0  0  0  0  0
   27.2456  -16.2689  -15.4582 N   0  0  0  0  0  0  0  0  0  0  0  0
   27.5789  -16.4278  -16.8173 C   0  0  0  0  0  0  0  0  0  0  0  0
   28.5968  -15.7572  -17.2098 O   0  0  0  0  0  0  0  0  0  0  0  0
   26.8786  -17.2707  -17.7869 C   0  0  0  0  0  0  0  0  0  0  0  0
   25.7827  -18.0788  -17.1878 C   0  0  2  0  0  0  0  0  0  0  0  0
   25.9842  -19.4863  -17.2139 N   0  0  0  0  0  0  0  0  0  0  0  0
   24.4781  -17.6712  -17.8001 C   0  0  0  0  0  0  0  0  0  0  0  0
   24.1172  -16.4522  -17.8684 O   0  0  0  0  0  0  0  0  0  0  0  0
   17.2870  -15.5640  -15.3699 N   0  0  0  0  0  0  0  0  0  0  0  0
   16.9123  -15.9453  -16.6848 C   0  0  0  0  0  0  0  0  0  0  0  0
   15.6749  -15.8407  -17.0324 N   0  0  0  0  0  0  0  0  0  0  0  0
   17.8790  -16.4339  -17.6047 N   0  0  0  0  0  0  0  0  0  0  0  0
   19.2627  -16.6433  -17.1680 C   0  0  0  0  0  0  0  0  0  0  0  0
   20.0447  -17.3001  -18.2771 C   0  0  0  0  0  0  0  0  0  0  0  0
   21.4795  -17.5223  -17.8282 C   0  0  0  0  0  0  0  0  0  0  0  0
   22.2780  -18.2470  -18.8903 C   0  0  2  0  0  0  0  0  0  0  0  0
   23.5669  -18.6149  -18.3403 N   0  0  0  0  0  0  0  0  0  0  0  0
   22.4203  -17.3296  -20.0498 C   0  0  0  0  0  0  0  0  0  0  0  0
   23.4776  -16.6745  -20.2260 O   0  0  0  0  0  0  0  0  0  0  0  0
   21.3650  -17.2058  -20.9390 O   0  0  0  0  0  0  0  0  0  0  0  0
  2  1  1  0
  3  2  1  0
  3  4  1  6
  5  3  1  0
  5  6  1  1
  7  8  2  0
  7  5  1  0
  9 10  1  0
 10 11  2  0
 10 12  1  0
 13 12  1  6
 13 14  1  0
 14  7  1  0
 15 16  2  0
 15 13  1  0
 17 18  1  0
 18 19  2  0
 20 18  1  0
 20 21  1  0
 22 21  1  0
 23 22  1  0
 24 23  1  1
 24 25  1  0
 25 15  1  0
 26 24  1  0
 27 26  2  0
 28 26  1  0
M  END
$$$$
