WLC.pdb
     RDKit          3D

 29 30  0  0  1  0  0  0  0  0999 V2000
    9.2357  -16.1745   24.6715 N   0  0  0  0  0  0  0  0  0  0  0  0
    7.9665  -16.7340   24.2111 C   0  0  1  0  0  0  0  0  0  0  0  0
    6.8250  -16.2607   25.0370 C   0  0  0  0  0  0  0  0  0  0  0  0
    7.1935  -15.3508   26.1327 C   0  0  0  0  0  0  0  0  0  0  0  0
    7.8155  -15.7776   27.3097 C   0  0  0  0  0  0  0  0  0  0  0  0
    8.0563  -14.7127   28.0789 N   0  0  0  0  0  0  0  0  0  0  0  0
    7.6254  -13.5829   27.4790 C   0  0  0  0  0  0  0  0  0  0  0  0
    7.6405  -12.2635   27.8708 C   0  0  0  0  0  0  0  0  0  0  0  0
    7.1146  -11.2931   27.0615 C   0  0  0  0  0  0  0  0  0  0  0  0
    6.5812  -11.7046   25.8605 C   0  0  0  0  0  0  0  0  0  0  0  0
    6.5521  -13.0151   25.4417 C   0  0  0  0  0  0  0  0  0  0  0  0
    7.0867  -13.9964   26.2618 C   0  0  0  0  0  0  0  0  0  0  0  0
    7.8762  -16.5174   22.7607 C   0  0  0  0  0  0  0  0  0  0  0  0
    6.9154  -17.0043   22.0913 O   0  0  0  0  0  0  0  0  0  0  0  0
    6.2466  -13.9289   20.4140 C   0  0  0  0  0  0  0  0  0  0  0  0
    7.6592  -13.4976   20.7935 C   0  0  2  0  0  0  0  0  0  0  0  0
    7.7469  -12.0129   20.4523 C   0  0  0  0  0  0  0  0  0  0  0  0
    8.6905  -14.3016   20.0830 C   0  0  0  0  0  0  0  0  0  0  0  0
    8.8513  -15.7090   20.5571 C   0  0  2  0  0  0  0  0  0  0  0  0
    8.8177  -15.7746   22.0177 N   0  0  0  0  0  0  0  0  0  0  0  0
   10.1664  -16.2264   20.1514 C   0  0  0  0  0  0  0  0  0  0  0  0
   10.9623  -15.4951   19.5298 O   0  0  0  0  0  0  0  0  0  0  0  0
   10.5791  -17.5489   20.4415 N   0  0  0  0  0  0  0  0  0  0  0  0
   11.9997  -17.8590   20.6733 C   0  0  1  0  0  0  0  0  0  0  0  0
   12.4186  -17.0649   21.8940 C   0  0  0  0  0  0  0  0  0  0  0  0
   14.0350  -16.3103   21.7269 S   0  0  0  0  0  0  0  0  0  0  0  0
   12.1705  -19.2883   20.9274 C   0  0  0  0  0  0  0  0  0  0  0  0
   11.2132  -19.9752   21.3370 O   0  0  0  0  0  0  0  0  0  0  0  0
   13.3958  -19.8953   20.7165 O   0  0  0  0  0  0  0  0  0  0  0  0
  2  1  1  1
  3  4  1  0
  3  2  1  0
  4 12  1  0
  4  5  2  0
  5  6  1  0
  7  6  1  0
  7  8  2  0
  9  8  1  0
 10  9  2  0
 11 12  2  0
 11 10  1  0
 12  7  1  0
 13  2  1  0
 13 20  1  0
 14 13  2  0
 16 15  1  6
 16 17  1  0
 19 18  1  1
 18 16  1  0
 19 20  1  0
 21 19  1  0
 22 21  2  0
 23 21  1  0
 24 27  1  0
 24 23  1  0
 24 25  1  1
 26 25  1  0
 27 29  1  0
 28 27  2  0
M  END
$$$$
