WLC.pdb
     RDKit          3D

 29 30  0  0  1  0  0  0  0  0999 V2000
    7.0192  -18.5111   24.6970 N   0  0  0  0  0  0  0  0  0  0  0  0
    7.2430  -17.0849   24.4695 C   0  0  1  0  0  0  0  0  0  0  0  0
    7.6675  -16.3897   25.7128 C   0  0  0  0  0  0  0  0  0  0  0  0
    6.9553  -15.1324   25.9889 C   0  0  0  0  0  0  0  0  0  0  0  0
    5.5619  -15.0205   25.9796 C   0  0  0  0  0  0  0  0  0  0  0  0
    5.2290  -13.7702   26.3104 N   0  0  0  0  0  0  0  0  0  0  0  0
    6.3321  -13.0278   26.5427 C   0  0  0  0  0  0  0  0  0  0  0  0
    6.5021  -11.7083   26.8958 C   0  0  0  0  0  0  0  0  0  0  0  0
    7.7582  -11.1898   27.0590 C   0  0  0  0  0  0  0  0  0  0  0  0
    8.8174  -12.0455   26.8534 C   0  0  0  0  0  0  0  0  0  0  0  0
    8.6789  -13.3683   26.5005 C   0  0  0  0  0  0  0  0  0  0  0  0
    7.4060  -13.8923   26.3372 C   0  0  0  0  0  0  0  0  0  0  0  0
    8.1153  -16.9454   23.2955 C   0  0  0  0  0  0  0  0  0  0  0  0
    8.6511  -17.9634   22.7616 O   0  0  0  0  0  0  0  0  0  0  0  0
    6.7670  -14.3008   20.0647 C   0  0  0  0  0  0  0  0  0  0  0  0
    7.7482  -13.5653   20.9713 C   0  0  2  0  0  0  0  0  0  0  0  0
    7.7486  -12.1156   20.4951 C   0  0  0  0  0  0  0  0  0  0  0  0
    9.1051  -14.1748   20.9242 C   0  0  0  0  0  0  0  0  0  0  0  0
    9.2074  -15.5646   21.4622 C   0  0  2  0  0  0  0  0  0  0  0  0
    8.4182  -15.7103   22.6848 N   0  0  0  0  0  0  0  0  0  0  0  0
   10.5998  -15.8563   21.8332 C   0  0  0  0  0  0  0  0  0  0  0  0
   11.5002  -15.8090   20.9721 O   0  0  0  0  0  0  0  0  0  0  0  0
   10.9729  -16.1967   23.1556 N   0  0  0  0  0  0  0  0  0  0  0  0
   12.3736  -16.5094   23.4843 C   0  0  1  0  0  0  0  0  0  0  0  0
   12.5333  -16.2538   24.9693 C   0  0  0  0  0  0  0  0  0  0  0  0
   14.0944  -16.8402   25.6245 S   0  0  0  0  0  0  0  0  0  0  0  0
   12.6619  -17.9113   23.1874 C   0  0  0  0  0  0  0  0  0  0  0  0
   11.7325  -18.7141   22.9692 O   0  0  0  0  0  0  0  0  0  0  0  0
   13.9688  -18.3635   23.1450 O   0  0  0  0  0  0  0  0  0  0  0  0
  2  1  1  1
  3  4  1  0
  3  2  1  0
  4 12  1  0
  4  5  2  0
  5  6  1  0
  7  6  1  0
  7  8  2  0
  9  8  1  0
 10  9  2  0
 11 12  2  0
 11 10  1  0
 12  7  1  0
 13  2  1  0
 13 20  1  0
 14 13  2  0
 16 15  1  6
 16 17  1  0
 19 18  1  1
 18 16  1  0
 19 20  1  0
 21 19  1  0
 22 21  2  0
 23 21  1  0
 24 27  1  0
 24 23  1  0
 24 25  1  1
 26 25  1  0
 27 29  1  0
 28 27  2  0
M  END
$$$$
