WLC.pdb
     RDKit          3D

 29 30  0  0  1  0  0  0  0  0999 V2000
    5.9325  -18.0182   23.4655 N   0  0  0  0  0  0  0  0  0  0  0  0
    6.6769  -16.7946   23.7567 C   0  0  1  0  0  0  0  0  0  0  0  0
    7.1377  -16.7542   25.1693 C   0  0  0  0  0  0  0  0  0  0  0  0
    6.7600  -15.5378   25.9054 C   0  0  0  0  0  0  0  0  0  0  0  0
    5.7613  -15.5102   26.8832 C   0  0  0  0  0  0  0  0  0  0  0  0
    5.6910  -14.2770   27.3910 N   0  0  0  0  0  0  0  0  0  0  0  0
    6.5950  -13.4658   26.8021 C   0  0  0  0  0  0  0  0  0  0  0  0
    6.8925  -12.1328   26.9738 C   0  0  0  0  0  0  0  0  0  0  0  0
    7.8683  -11.5371   26.2213 C   0  0  0  0  0  0  0  0  0  0  0  0
    8.5194  -12.3306   25.3034 C   0  0  0  0  0  0  0  0  0  0  0  0
    8.2444  -13.6650   25.1095 C   0  0  0  0  0  0  0  0  0  0  0  0
    7.2571  -14.2672   25.8736 C   0  0  0  0  0  0  0  0  0  0  0  0
    7.7003  -16.6291   22.7156 C   0  0  0  0  0  0  0  0  0  0  0  0
    8.2338  -17.6393   22.1648 O   0  0  0  0  0  0  0  0  0  0  0  0
    7.2905  -14.1761   18.9329 C   0  0  0  0  0  0  0  0  0  0  0  0
    7.7379  -13.4000   20.1669 C   0  0  2  0  0  0  0  0  0  0  0  0
    7.6999  -11.9273   19.7689 C   0  0  0  0  0  0  0  0  0  0  0  0
    9.0881  -13.8255   20.6260 C   0  0  0  0  0  0  0  0  0  0  0  0
    9.1676  -15.1964   21.2140 C   0  0  2  0  0  0  0  0  0  0  0  0
    8.1583  -15.3760   22.2571 N   0  0  0  0  0  0  0  0  0  0  0  0
   10.4718  -15.3866   21.8654 C   0  0  0  0  0  0  0  0  0  0  0  0
   11.5225  -15.3016   21.1995 O   0  0  0  0  0  0  0  0  0  0  0  0
   10.5910  -15.6687   23.2474 N   0  0  0  0  0  0  0  0  0  0  0  0
   11.9054  -15.9585   23.8445 C   0  0  1  0  0  0  0  0  0  0  0  0
   11.7911  -15.6217   25.3174 C   0  0  0  0  0  0  0  0  0  0  0  0
   10.4009  -16.4180   26.1198 S   0  0  0  0  0  0  0  0  0  0  0  0
   12.2338  -17.3735   23.6821 C   0  0  0  0  0  0  0  0  0  0  0  0
   11.4185  -18.1535   23.1502 O   0  0  0  0  0  0  0  0  0  0  0  0
   13.4525  -17.8637   24.1166 O   0  0  0  0  0  0  0  0  0  0  0  0
  2  1  1  6
  3  4  1  0
  3  2  1  0
  4 12  1  0
  4  5  2  0
  5  6  1  0
  7  6  1  0
  7  8  2  0
  9  8  1  0
 10  9  2  0
 11 12  2  0
 11 10  1  0
 12  7  1  0
 13  2  1  0
 13 20  1  0
 14 13  2  0
 16 15  1  6
 16 17  1  0
 19 18  1  1
 18 16  1  0
 19 20  1  0
 21 19  1  0
 22 21  2  0
 23 21  1  0
 24 27  1  0
 24 23  1  0
 24 25  1  1
 26 25  1  0
 27 29  1  0
 28 27  2  0
M  END
$$$$
