WLC.pdb
     RDKit          3D

 29 30  0  0  1  0  0  0  0  0999 V2000
    6.9446  -16.8830   24.7294 N   0  0  0  0  0  0  0  0  0  0  0  0
    7.6705  -15.8209   24.0359 C   0  0  1  0  0  0  0  0  0  0  0  0
    8.8201  -15.3263   24.8378 C   0  0  0  0  0  0  0  0  0  0  0  0
    8.4497  -14.5458   26.0285 C   0  0  0  0  0  0  0  0  0  0  0  0
    8.9300  -14.8262   27.3111 C   0  0  0  0  0  0  0  0  0  0  0  0
    8.4464  -13.9154   28.1597 N   0  0  0  0  0  0  0  0  0  0  0  0
    7.6590  -13.0303   27.5126 C   0  0  0  0  0  0  0  0  0  0  0  0
    6.9415  -11.9391   27.9476 C   0  0  0  0  0  0  0  0  0  0  0  0
    6.1971  -11.2020   27.0669 C   0  0  0  0  0  0  0  0  0  0  0  0
    6.2070  -11.6069   25.7508 C   0  0  0  0  0  0  0  0  0  0  0  0
    6.9140  -12.6923   25.2863 C   0  0  0  0  0  0  0  0  0  0  0  0
    7.6689  -13.4368   26.1794 C   0  0  0  0  0  0  0  0  0  0  0  0
    7.9584  -16.2857   22.6721 C   0  0  0  0  0  0  0  0  0  0  0  0
    7.7904  -17.5015   22.3527 O   0  0  0  0  0  0  0  0  0  0  0  0
    6.8632  -13.5266   20.6675 C   0  0  0  0  0  0  0  0  0  0  0  0
    8.1528  -13.4870   19.8547 C   0  0  2  0  0  0  0  0  0  0  0  0
    7.9294  -12.4369   18.7703 C   0  0  0  0  0  0  0  0  0  0  0  0
    8.4877  -14.8215   19.2873 C   0  0  0  0  0  0  0  0  0  0  0  0
    8.7467  -15.9012   20.2865 C   0  0  2  0  0  0  0  0  0  0  0  0
    8.4286  -15.4469   21.6398 N   0  0  0  0  0  0  0  0  0  0  0  0
   10.1762  -16.2451   20.2925 C   0  0  0  0  0  0  0  0  0  0  0  0
   10.6806  -16.8416   19.3208 O   0  0  0  0  0  0  0  0  0  0  0  0
   11.0255  -15.9218   21.3777 N   0  0  0  0  0  0  0  0  0  0  0  0
   12.4548  -16.2737   21.3441 C   0  0  1  0  0  0  0  0  0  0  0  0
   13.2183  -14.9652   21.3143 C   0  0  0  0  0  0  0  0  0  0  0  0
   12.9895  -14.0469   19.7929 S   0  0  0  0  0  0  0  0  0  0  0  0
   12.8169  -17.0335   22.5391 C   0  0  0  0  0  0  0  0  0  0  0  0
   11.9504  -17.3260   23.3875 O   0  0  0  0  0  0  0  0  0  0  0  0
   14.1247  -17.4367   22.7428 O   0  0  0  0  0  0  0  0  0  0  0  0
  2  1  1  1
  3  4  1  0
  3  2  1  0
  4 12  1  0
  4  5  2  0
  5  6  1  0
  7  6  1  0
  7  8  2  0
  9  8  1  0
 10  9  2  0
 11 12  2  0
 11 10  1  0
 12  7  1  0
 13  2  1  0
 13 20  1  0
 14 13  2  0
 16 15  1  6
 16 17  1  0
 19 18  1  6
 18 16  1  0
 19 20  1  0
 21 19  1  0
 22 21  2  0
 23 21  1  0
 24 27  1  0
 24 23  1  0
 24 25  1  1
 26 25  1  0
 27 29  1  0
 28 27  2  0
M  END
$$$$
