WLC.pdb
     RDKit          3D

 29 30  0  0  1  0  0  0  0  0999 V2000
    6.5343  -18.4348   24.1982 N   0  0  0  0  0  0  0  0  0  0  0  0
    6.9518  -17.0393   24.0791 C   0  0  1  0  0  0  0  0  0  0  0  0
    7.5444  -16.5327   25.3445 C   0  0  0  0  0  0  0  0  0  0  0  0
    6.8915  -15.3341   25.8935 C   0  0  0  0  0  0  0  0  0  0  0  0
    5.5526  -15.3040   26.2947 C   0  0  0  0  0  0  0  0  0  0  0  0
    5.2783  -14.0927   26.7858 N   0  0  0  0  0  0  0  0  0  0  0  0
    6.3688  -13.2987   26.7354 C   0  0  0  0  0  0  0  0  0  0  0  0
    6.5786  -11.9900   27.1067 C   0  0  0  0  0  0  0  0  0  0  0  0
    7.8045  -11.4070   26.9319 C   0  0  0  0  0  0  0  0  0  0  0  0
    8.7927  -12.1881   26.3753 C   0  0  0  0  0  0  0  0  0  0  0  0
    8.6132  -13.4983   25.9948 C   0  0  0  0  0  0  0  0  0  0  0  0
    7.3714  -14.0877   26.1740 C   0  0  0  0  0  0  0  0  0  0  0  0
    7.7664  -16.9130   22.8628 C   0  0  0  0  0  0  0  0  0  0  0  0
    8.0457  -17.9318   22.1611 O   0  0  0  0  0  0  0  0  0  0  0  0
    6.7204  -14.2068   19.3852 C   0  0  0  0  0  0  0  0  0  0  0  0
    7.4988  -13.5459   20.5178 C   0  0  2  0  0  0  0  0  0  0  0  0
    7.5049  -12.0528   20.2028 C   0  0  0  0  0  0  0  0  0  0  0  0
    8.8737  -14.1022   20.6397 C   0  0  0  0  0  0  0  0  0  0  0  0
    8.9575  -15.5204   21.1015 C   0  0  2  0  0  0  0  0  0  0  0  0
    8.2870  -15.6899   22.3901 N   0  0  0  0  0  0  0  0  0  0  0  0
   10.3631  -15.8945   21.3160 C   0  0  0  0  0  0  0  0  0  0  0  0
   11.2741  -15.2530   20.7563 O   0  0  0  0  0  0  0  0  0  0  0  0
   10.7374  -16.9761   22.1488 N   0  0  0  0  0  0  0  0  0  0  0  0
   11.9793  -16.9220   22.9380 C   0  0  1  0  0  0  0  0  0  0  0  0
   11.7383  -15.9206   24.0493 C   0  0  0  0  0  0  0  0  0  0  0  0
   13.1444  -15.7244   25.1423 S   0  0  0  0  0  0  0  0  0  0  0  0
   12.2742  -18.2355   23.5076 C   0  0  0  0  0  0  0  0  0  0  0  0
   13.4027  -18.4796   23.9797 O   0  0  0  0  0  0  0  0  0  0  0  0
   11.3050  -19.2226   23.5296 O   0  0  0  0  0  0  0  0  0  0  0  0
  2  1  1  1
  3  4  1  0
  3  2  1  0
  4 12  1  0
  4  5  2  0
  5  6  1  0
  7  6  1  0
  7  8  2  0
  9  8  1  0
 10  9  2  0
 11 12  2  0
 11 10  1  0
 12  7  1  0
 13  2  1  0
 13 20  1  0
 14 13  2  0
 16 15  1  6
 16 17  1  0
 19 18  1  1
 18 16  1  0
 19 20  1  0
 21 19  1  0
 22 21  2  0
 23 21  1  0
 24 27  1  0
 24 23  1  0
 24 25  1  1
 26 25  1  0
 27 29  1  0
 28 27  2  0
M  END
$$$$
