WLC.pdb
     RDKit          3D

 29 30  0  0  1  0  0  0  0  0999 V2000
    6.8044  -18.5153   24.2383 N   0  0  0  0  0  0  0  0  0  0  0  0
    7.1019  -17.0902   24.1094 C   0  0  1  0  0  0  0  0  0  0  0  0
    7.5305  -16.4987   25.4038 C   0  0  0  0  0  0  0  0  0  0  0  0
    6.7309  -15.3468   25.8491 C   0  0  0  0  0  0  0  0  0  0  0  0
    5.3447  -15.3950   26.0232 C   0  0  0  0  0  0  0  0  0  0  0  0
    4.9268  -14.2094   26.4743 N   0  0  0  0  0  0  0  0  0  0  0  0
    5.9652  -13.3583   26.6132 C   0  0  0  0  0  0  0  0  0  0  0  0
    6.0385  -12.0476   27.0273 C   0  0  0  0  0  0  0  0  0  0  0  0
    7.2424  -11.3976   27.0640 C   0  0  0  0  0  0  0  0  0  0  0  0
    8.3503  -12.1148   26.6709 C   0  0  0  0  0  0  0  0  0  0  0  0
    8.3085  -13.4251   26.2527 C   0  0  0  0  0  0  0  0  0  0  0  0
    7.0886  -14.0825   26.2178 C   0  0  0  0  0  0  0  0  0  0  0  0
    8.0069  -16.9186   22.9647 C   0  0  0  0  0  0  0  0  0  0  0  0
    8.5179  -17.9248   22.3860 O   0  0  0  0  0  0  0  0  0  0  0  0
    7.6646  -12.1320   20.0854 C   0  0  0  0  0  0  0  0  0  0  0  0
    7.8798  -13.6404   20.0223 C   0  0  2  0  0  0  0  0  0  0  0  0
    6.6156  -14.2659   20.6047 C   0  0  0  0  0  0  0  0  0  0  0  0
    9.1047  -14.0536   20.7596 C   0  0  0  0  0  0  0  0  0  0  0  0
    9.1409  -15.4796   21.2030 C   0  0  2  0  0  0  0  0  0  0  0  0
    8.3695  -15.6637   22.4318 N   0  0  0  0  0  0  0  0  0  0  0  0
   10.5223  -15.8697   21.5213 C   0  0  0  0  0  0  0  0  0  0  0  0
   11.4030  -15.8299   20.6396 O   0  0  0  0  0  0  0  0  0  0  0  0
   10.9063  -16.2988   22.8143 N   0  0  0  0  0  0  0  0  0  0  0  0
   12.2753  -16.7757   23.0721 C   0  0  1  0  0  0  0  0  0  0  0  0
   12.4562  -16.7680   24.5765 C   0  0  0  0  0  0  0  0  0  0  0  0
   12.3132  -15.1342   25.2982 S   0  0  0  0  0  0  0  0  0  0  0  0
   12.4430  -18.1337   22.5582 C   0  0  0  0  0  0  0  0  0  0  0  0
   13.5600  -18.6879   22.5925 O   0  0  0  0  0  0  0  0  0  0  0  0
   11.3648  -18.8198   22.0280 O   0  0  0  0  0  0  0  0  0  0  0  0
  2  1  1  1
  3  4  1  0
  3  2  1  0
  4 12  1  0
  4  5  2  0
  5  6  1  0
  7  6  1  0
  7  8  2  0
  9  8  1  0
 10  9  2  0
 11 12  2  0
 11 10  1  0
 12  7  1  0
 13  2  1  0
 13 20  1  0
 14 13  2  0
 16 15  1  1
 16 17  1  0
 19 18  1  1
 18 16  1  0
 19 20  1  0
 21 19  1  0
 22 21  2  0
 23 21  1  0
 24 27  1  0
 24 23  1  0
 24 25  1  1
 26 25  1  0
 27 29  1  0
 28 27  2  0
M  END
$$$$
