WLC.pdb
     RDKit          3D

 29 30  0  0  1  0  0  0  0  0999 V2000
    6.2277  -18.4869   23.9512 N   0  0  0  0  0  0  0  0  0  0  0  0
    6.7807  -17.1350   24.0008 C   0  0  1  0  0  0  0  0  0  0  0  0
    7.3681  -16.8296   25.3315 C   0  0  0  0  0  0  0  0  0  0  0  0
    6.9743  -15.5286   25.8943 C   0  0  0  0  0  0  0  0  0  0  0  0
    5.6641  -15.2192   26.2711 C   0  0  0  0  0  0  0  0  0  0  0  0
    5.6441  -13.9860   26.7834 N   0  0  0  0  0  0  0  0  0  0  0  0
    6.8801  -13.4434   26.7706 C   0  0  0  0  0  0  0  0  0  0  0  0
    7.3565  -12.2167   27.1741 C   0  0  0  0  0  0  0  0  0  0  0  0
    8.6824  -11.9071   27.0349 C   0  0  0  0  0  0  0  0  0  0  0  0
    9.4930  -12.8720   26.4798 C   0  0  0  0  0  0  0  0  0  0  0  0
    9.0460  -14.1065   26.0676 C   0  0  0  0  0  0  0  0  0  0  0  0
    7.7032  -14.4191   26.2108 C   0  0  0  0  0  0  0  0  0  0  0  0
    7.6513  -16.9590   22.8304 C   0  0  0  0  0  0  0  0  0  0  0  0
    8.1597  -17.9622   22.2441 O   0  0  0  0  0  0  0  0  0  0  0  0
    6.6257  -14.3493   19.3546 C   0  0  0  0  0  0  0  0  0  0  0  0
    7.3861  -13.6021   20.4451 C   0  0  2  0  0  0  0  0  0  0  0  0
    7.3628  -12.1322   20.0362 C   0  0  0  0  0  0  0  0  0  0  0  0
    8.7716  -14.1212   20.6053 C   0  0  0  0  0  0  0  0  0  0  0  0
    8.8823  -15.5103   21.1433 C   0  0  2  0  0  0  0  0  0  0  0  0
    7.9822  -15.7030   22.2798 N   0  0  0  0  0  0  0  0  0  0  0  0
   10.2424  -15.7436   21.6506 C   0  0  0  0  0  0  0  0  0  0  0  0
   11.2255  -15.5907   20.8992 O   0  0  0  0  0  0  0  0  0  0  0  0
   10.4916  -16.1437   22.9852 N   0  0  0  0  0  0  0  0  0  0  0  0
   11.8672  -16.3782   23.4550 C   0  0  1  0  0  0  0  0  0  0  0  0
   11.8880  -16.0075   24.9241 C   0  0  0  0  0  0  0  0  0  0  0  0
   13.4149  -16.4581   25.7461 S   0  0  0  0  0  0  0  0  0  0  0  0
   12.2241  -17.7863   23.2925 C   0  0  0  0  0  0  0  0  0  0  0  0
   11.3378  -18.6448   23.1096 O   0  0  0  0  0  0  0  0  0  0  0  0
   13.5488  -18.1827   23.3397 O   0  0  0  0  0  0  0  0  0  0  0  0
  2  1  1  1
  3  4  1  0
  3  2  1  0
  4 12  1  0
  4  5  2  0
  5  6  1  0
  7  6  1  0
  7  8  2  0
  9  8  1  0
 10  9  2  0
 11 12  2  0
 11 10  1  0
 12  7  1  0
 13  2  1  0
 13 20  1  0
 14 13  2  0
 16 15  1  6
 16 17  1  0
 19 18  1  1
 18 16  1  0
 19 20  1  0
 21 19  1  0
 22 21  2  0
 23 21  1  0
 24 27  1  0
 24 23  1  0
 24 25  1  1
 26 25  1  0
 27 29  1  0
 28 27  2  0
M  END
$$$$
