WLC.pdb
     RDKit          3D

 29 30  0  0  1  0  0  0  0  0999 V2000
    9.6759  -16.3625   25.0964 N   0  0  0  0  0  0  0  0  0  0  0  0
    8.4673  -17.0803   24.6965 C   0  0  1  0  0  0  0  0  0  0  0  0
    7.3241  -16.7765   25.5966 C   0  0  0  0  0  0  0  0  0  0  0  0
    7.3700  -15.4458   26.2222 C   0  0  0  0  0  0  0  0  0  0  0  0
    6.3787  -14.4769   26.0409 C   0  0  0  0  0  0  0  0  0  0  0  0
    6.6882  -13.4033   26.7724 N   0  0  0  0  0  0  0  0  0  0  0  0
    7.8446  -13.5981   27.4409 C   0  0  0  0  0  0  0  0  0  0  0  0
    8.5649  -12.7965   28.2973 C   0  0  0  0  0  0  0  0  0  0  0  0
    9.7400  -13.2408   28.8403 C   0  0  0  0  0  0  0  0  0  0  0  0
   10.1504  -14.5071   28.4876 C   0  0  0  0  0  0  0  0  0  0  0  0
    9.4521  -15.3312   27.6349 C   0  0  0  0  0  0  0  0  0  0  0  0
    8.2613  -14.8803   27.0871 C   0  0  0  0  0  0  0  0  0  0  0  0
    8.2629  -16.8565   23.2589 C   0  0  0  0  0  0  0  0  0  0  0  0
    7.4002  -17.5268   22.6148 O   0  0  0  0  0  0  0  0  0  0  0  0
    6.3739  -14.2178   20.8257 C   0  0  0  0  0  0  0  0  0  0  0  0
    7.7525  -13.6793   21.1927 C   0  0  2  0  0  0  0  0  0  0  0  0
    7.7575  -12.2167   20.7574 C   0  0  0  0  0  0  0  0  0  0  0  0
    8.8403  -14.4636   20.5474 C   0  0  0  0  0  0  0  0  0  0  0  0
    9.0057  -15.8641   21.0399 C   0  0  2  0  0  0  0  0  0  0  0  0
    8.9836  -15.9093   22.5015 N   0  0  0  0  0  0  0  0  0  0  0  0
   10.3178  -16.3866   20.6311 C   0  0  0  0  0  0  0  0  0  0  0  0
   10.6865  -16.2931   19.4438 O   0  0  0  0  0  0  0  0  0  0  0  0
   11.2020  -17.0058   21.5468 N   0  0  0  0  0  0  0  0  0  0  0  0
   12.5311  -17.4672   21.1128 C   0  0  1  0  0  0  0  0  0  0  0  0
   13.5381  -16.5213   21.7353 C   0  0  0  0  0  0  0  0  0  0  0  0
   13.3989  -16.4128   23.5183 S   0  0  0  0  0  0  0  0  0  0  0  0
   12.7721  -18.8299   21.5836 C   0  0  0  0  0  0  0  0  0  0  0  0
   11.9329  -19.4060   22.3046 O   0  0  0  0  0  0  0  0  0  0  0  0
   13.9335  -19.4960   21.2348 O   0  0  0  0  0  0  0  0  0  0  0  0
  2  1  1  1
  3  4  1  0
  3  2  1  0
  4 12  1  0
  4  5  2  0
  5  6  1  0
  7  6  1  0
  7  8  2  0
  9  8  1  0
 10  9  2  0
 11 12  2  0
 11 10  1  0
 12  7  1  0
 13  2  1  0
 13 20  1  0
 14 13  2  0
 16 15  1  6
 16 17  1  0
 19 18  1  1
 18 16  1  0
 19 20  1  0
 21 19  1  0
 22 21  2  0
 23 21  1  0
 24 27  1  0
 24 23  1  0
 24 25  1  1
 26 25  1  0
 27 29  1  0
 28 27  2  0
M  END
$$$$
