WLC.pdb
     RDKit          3D

 29 30  0  0  1  0  0  0  0  0999 V2000
    8.1160  -18.1087   26.5148 N   0  0  0  0  0  0  0  0  0  0  0  0
    7.5756  -17.1861   25.5185 C   0  0  1  0  0  0  0  0  0  0  0  0
    8.4930  -16.0428   25.2728 C   0  0  0  0  0  0  0  0  0  0  0  0
    8.4455  -14.9850   26.2941 C   0  0  0  0  0  0  0  0  0  0  0  0
    9.2822  -14.9597   27.4138 C   0  0  0  0  0  0  0  0  0  0  0  0
    9.0236  -13.8552   28.1187 N   0  0  0  0  0  0  0  0  0  0  0  0
    8.0490  -13.1302   27.5299 C   0  0  0  0  0  0  0  0  0  0  0  0
    7.4412  -11.9442   27.8746 C   0  0  0  0  0  0  0  0  0  0  0  0
    6.4473  -11.4209   27.0927 C   0  0  0  0  0  0  0  0  0  0  0  0
    6.0985  -12.1339   25.9674 C   0  0  0  0  0  0  0  0  0  0  0  0
    6.6877  -13.3211   25.5971 C   0  0  0  0  0  0  0  0  0  0  0  0
    7.6954  -13.8489   26.3892 C   0  0  0  0  0  0  0  0  0  0  0  0
    7.1628  -17.9741   24.3490 C   0  0  0  0  0  0  0  0  0  0  0  0
    7.8008  -19.0171   24.0123 O   0  0  0  0  0  0  0  0  0  0  0  0
    4.4431  -18.5220   19.5655 C   0  0  0  0  0  0  0  0  0  0  0  0
    3.7193  -18.9426   20.8401 C   0  0  2  0  0  0  0  0  0  0  0  0
    2.2384  -18.6777   20.5845 C   0  0  0  0  0  0  0  0  0  0  0  0
    4.2266  -18.2071   22.0302 C   0  0  0  0  0  0  0  0  0  0  0  0
    5.6809  -18.3803   22.3244 C   0  0  2  0  0  0  0  0  0  0  0  0
    6.0599  -17.6478   23.5321 N   0  0  0  0  0  0  0  0  0  0  0  0
    6.4836  -17.8144   21.2302 C   0  0  0  0  0  0  0  0  0  0  0  0
    6.4354  -18.3206   20.0918 O   0  0  0  0  0  0  0  0  0  0  0  0
    7.3286  -16.6941   21.4157 N   0  0  0  0  0  0  0  0  0  0  0  0
    7.9544  -16.0258   20.2625 C   0  0  1  0  0  0  0  0  0  0  0  0
    7.3642  -14.6315   20.2024 C   0  0  0  0  0  0  0  0  0  0  0  0
    7.8866  -13.7034   18.7615 S   0  0  0  0  0  0  0  0  0  0  0  0
    9.4019  -15.9453   20.4489 C   0  0  0  0  0  0  0  0  0  0  0  0
    9.8998  -16.0714   21.5856 O   0  0  0  0  0  0  0  0  0  0  0  0
   10.2361  -15.7283   19.3666 O   0  0  0  0  0  0  0  0  0  0  0  0
  2  1  1  1
  3  4  1  0
  3  2  1  0
  4 12  1  0
  4  5  2  0
  5  6  1  0
  7  6  1  0
  7  8  2  0
  9  8  1  0
 10  9  2  0
 11 12  2  0
 11 10  1  0
 12  7  1  0
 13  2  1  0
 13 20  1  0
 14 13  2  0
 16 15  1  6
 16 17  1  0
 19 18  1  6
 18 16  1  0
 19 20  1  0
 21 19  1  0
 22 21  2  0
 23 21  1  0
 24 27  1  0
 24 23  1  0
 24 25  1  1
 26 25  1  0
 27 29  1  0
 28 27  2  0
M  END
$$$$
