WLC.pdb
     RDKit          3D

 29 30  0  0  1  0  0  0  0  0999 V2000
    6.2656  -18.2274   23.9716 N   0  0  0  0  0  0  0  0  0  0  0  0
    6.8196  -16.8752   23.9940 C   0  0  1  0  0  0  0  0  0  0  0  0
    7.2450  -16.4777   25.3616 C   0  0  0  0  0  0  0  0  0  0  0  0
    6.6196  -15.2457   25.8671 C   0  0  0  0  0  0  0  0  0  0  0  0
    5.2882  -15.1765   26.2877 C   0  0  0  0  0  0  0  0  0  0  0  0
    5.0407  -13.9405   26.7288 N   0  0  0  0  0  0  0  0  0  0  0  0
    6.1422  -13.1671   26.6259 C   0  0  0  0  0  0  0  0  0  0  0  0
    6.3781  -11.8468   26.9354 C   0  0  0  0  0  0  0  0  0  0  0  0
    7.6097  -11.2918   26.7155 C   0  0  0  0  0  0  0  0  0  0  0  0
    8.5765  -12.1124   26.1785 C   0  0  0  0  0  0  0  0  0  0  0  0
    8.3706  -13.4351   25.8595 C   0  0  0  0  0  0  0  0  0  0  0  0
    7.1231  -13.9961   26.0843 C   0  0  0  0  0  0  0  0  0  0  0  0
    7.8263  -16.7810   22.9279 C   0  0  0  0  0  0  0  0  0  0  0  0
    8.3547  -17.8262   22.4413 O   0  0  0  0  0  0  0  0  0  0  0  0
    7.0540  -14.3414   19.3564 C   0  0  0  0  0  0  0  0  0  0  0  0
    7.8086  -13.5585   20.4256 C   0  0  2  0  0  0  0  0  0  0  0  0
    7.8346  -12.1116   19.9416 C   0  0  0  0  0  0  0  0  0  0  0  0
    9.1755  -14.1041   20.6465 C   0  0  0  0  0  0  0  0  0  0  0  0
    9.2364  -15.4555   21.2802 C   0  0  2  0  0  0  0  0  0  0  0  0
    8.2728  -15.5622   22.3752 N   0  0  0  0  0  0  0  0  0  0  0  0
   10.5632  -15.6691   21.8766 C   0  0  0  0  0  0  0  0  0  0  0  0
   11.5840  -15.6329   21.1616 O   0  0  0  0  0  0  0  0  0  0  0  0
   10.7377  -15.9201   23.2586 N   0  0  0  0  0  0  0  0  0  0  0  0
   12.0690  -16.2356   23.8028 C   0  0  1  0  0  0  0  0  0  0  0  0
   12.1015  -15.6743   25.2099 C   0  0  0  0  0  0  0  0  0  0  0  0
   10.6707  -16.1306   26.1871 S   0  0  0  0  0  0  0  0  0  0  0  0
   12.2701  -17.6829   23.8401 C   0  0  0  0  0  0  0  0  0  0  0  0
   11.3421  -18.4571   23.5312 O   0  0  0  0  0  0  0  0  0  0  0  0
   13.4919  -18.2105   24.2185 O   0  0  0  0  0  0  0  0  0  0  0  0
  2  1  1  1
  3  4  1  0
  3  2  1  0
  4 12  1  0
  4  5  2  0
  5  6  1  0
  7  6  1  0
  7  8  2  0
  9  8  1  0
 10  9  2  0
 11 12  2  0
 11 10  1  0
 12  7  1  0
 13  2  1  0
 13 20  1  0
 14 13  2  0
 16 15  1  6
 16 17  1  0
 19 18  1  1
 18 16  1  0
 19 20  1  0
 21 19  1  0
 22 21  2  0
 23 21  1  0
 24 27  1  0
 24 23  1  0
 24 25  1  1
 26 25  1  0
 27 29  1  0
 28 27  2  0
M  END
$$$$
