HGE.pdb
     RDKit          3D

 24 24  0  0  1  0  0  0  0  0999 V2000
   24.7874  -17.0044  -18.0212 N   0  0  0  0  0  0  0  0  0  0  0  0
   23.9621  -16.4168  -16.9824 C   0  0  1  0  0  0  0  0  0  0  0  0
   22.8930  -15.6171  -17.6991 C   0  0  0  0  0  0  0  0  0  0  0  0
   23.5173  -14.5948  -18.5873 C   0  0  0  0  0  0  0  0  0  0  0  0
   23.4088  -14.4531  -19.9579 C   0  0  0  0  0  0  0  0  0  0  0  0
   24.1290  -13.3969  -20.3848 N   0  0  0  0  0  0  0  0  0  0  0  0
   24.6948  -12.8682  -19.2869 C   0  0  0  0  0  0  0  0  0  0  0  0
   24.3353  -13.5777  -18.2056 N   0  0  0  0  0  0  0  0  0  0  0  0
   23.3826  -17.4370  -16.0878 C   0  0  0  0  0  0  0  0  0  0  0  0
   22.6326  -17.1040  -15.1235 O   0  0  0  0  0  0  0  0  0  0  0  0
   23.6107  -18.8500  -16.2291 N   0  0  0  0  0  0  0  0  0  0  0  0
   22.9741  -19.8229  -15.3957 C   0  0  0  0  0  0  0  0  0  0  0  0
   21.6445  -20.2557  -15.8122 C   0  0  0  0  0  0  0  0  0  0  0  0
   21.5432  -21.2016  -16.6308 O   0  0  0  0  0  0  0  0  0  0  0  0
   20.4656  -19.6529  -15.3278 N   0  0  0  0  0  0  0  0  0  0  0  0
   19.1201  -20.1264  -15.7243 C   0  0  1  0  0  0  0  0  0  0  0  0
   18.1663  -19.9543  -14.5945 C   0  0  0  0  0  0  0  0  0  0  0  0
   16.7685  -20.3049  -14.9574 C   0  0  0  0  0  0  0  0  0  0  0  0
   15.7553  -20.0511  -13.9150 C   0  0  0  0  0  0  0  0  0  0  0  0
   16.0737  -19.4331  -12.8507 O   0  0  0  0  0  0  0  0  0  0  0  0
   18.6875  -19.3792  -16.9056 C   0  0  0  0  0  0  0  0  0  0  0  0
   19.0461  -18.2163  -17.1290 O   0  0  0  0  0  0  0  0  0  0  0  0
   14.4551  -20.4517  -14.0234 O   0  0  0  0  0  0  0  0  0  0  0  0
   17.8265  -19.9943  -17.8383 O   0  0  0  0  0  0  0  0  0  0  0  0
  2  1  1  6
  3  4  1  0
  3  2  1  0
  4  5  2  0
  6  5  1  0
  7  6  1  0
  8  7  2  0
  8  4  1  0
  9  2  1  0
  9 10  2  0
 11  9  1  0
 12 11  1  0
 12 13  1  0
 13 15  1  0
 14 13  2  0
 15 16  1  0
 16 17  1  1
 16 21  1  0
 18 17  1  0
 19 18  1  0
 20 19  2  0
 21 24  1  0
 22 21  2  0
 23 19  1  0
M  END
$$$$
