HGE.pdb
     RDKit          3D

 24 24  0  0  1  0  0  0  0  0999 V2000
   25.4872  -33.3175  -12.5126 N   0  0  0  0  0  0  0  0  0  0  0  0
   24.0922  -33.0376  -12.2279 C   0  0  1  0  0  0  0  0  0  0  0  0
   23.3036  -34.1820  -12.8319 C   0  0  0  0  0  0  0  0  0  0  0  0
   23.4315  -34.1734  -14.3176 C   0  0  0  0  0  0  0  0  0  0  0  0
   24.1000  -35.0638  -15.1365 C   0  0  0  0  0  0  0  0  0  0  0  0
   23.9755  -34.7055  -16.4298 N   0  0  0  0  0  0  0  0  0  0  0  0
   23.2290  -33.5884  -16.4327 C   0  0  0  0  0  0  0  0  0  0  0  0
   22.8983  -33.2612  -15.1737 N   0  0  0  0  0  0  0  0  0  0  0  0
   23.8370  -32.8931  -10.7819 C   0  0  0  0  0  0  0  0  0  0  0  0
   22.6715  -32.6527  -10.3494 O   0  0  0  0  0  0  0  0  0  0  0  0
   24.8549  -33.0099   -9.7726 N   0  0  0  0  0  0  0  0  0  0  0  0
   24.5721  -32.9072   -8.3741 C   0  0  0  0  0  0  0  0  0  0  0  0
   25.6847  -33.1812   -7.4708 C   0  0  0  0  0  0  0  0  0  0  0  0
   26.8480  -33.2319   -7.9391 O   0  0  0  0  0  0  0  0  0  0  0  0
   25.5039  -33.3893   -6.0881 N   0  0  0  0  0  0  0  0  0  0  0  0
   26.6413  -33.6491   -5.1767 C   0  0  1  0  0  0  0  0  0  0  0  0
   26.1853  -33.5809   -3.7613 C   0  0  0  0  0  0  0  0  0  0  0  0
   27.2994  -33.7123   -2.7865 C   0  0  0  0  0  0  0  0  0  0  0  0
   26.9407  -33.4871   -1.3729 C   0  0  0  0  0  0  0  0  0  0  0  0
   25.7399  -33.2201   -1.0525 O   0  0  0  0  0  0  0  0  0  0  0  0
   27.2067  -34.9613   -5.4918 C   0  0  0  0  0  0  0  0  0  0  0  0
   26.5217  -35.8992   -5.9182 O   0  0  0  0  0  0  0  0  0  0  0  0
   27.8462  -33.5480   -0.3534 O   0  0  0  0  0  0  0  0  0  0  0  0
   28.5875  -35.1836   -5.3082 O   0  0  0  0  0  0  0  0  0  0  0  0
  2  1  1  1
  3  4  1  0
  3  2  1  0
  4  5  2  0
  6  5  1  0
  7  6  1  0
  8  7  2  0
  8  4  1  0
  9  2  1  0
  9 10  2  0
 11  9  1  0
 12 11  1  0
 12 13  1  0
 13 15  1  0
 14 13  2  0
 15 16  1  0
 16 17  1  1
 16 21  1  0
 18 17  1  0
 19 18  1  0
 20 19  2  0
 21 24  1  0
 22 21  2  0
 23 19  1  0
M  END
$$$$
