HGE.pdb
     RDKit          3D

 24 24  0  0  1  0  0  0  0  0999 V2000
   21.0784  -11.8708  -16.1729 N   0  0  0  0  0  0  0  0  0  0  0  0
   19.9652  -11.0440  -16.6000 C   0  0  1  0  0  0  0  0  0  0  0  0
   18.7132  -11.8515  -16.3228 C   0  0  0  0  0  0  0  0  0  0  0  0
   18.7140  -13.1045  -17.1314 C   0  0  0  0  0  0  0  0  0  0  0  0
   18.9112  -14.4071  -16.7135 C   0  0  0  0  0  0  0  0  0  0  0  0
   18.8334  -15.2575  -17.7562 N   0  0  0  0  0  0  0  0  0  0  0  0
   18.5874  -14.4962  -18.8355 C   0  0  0  0  0  0  0  0  0  0  0  0
   18.5142  -13.2060  -18.4727 N   0  0  0  0  0  0  0  0  0  0  0  0
   19.9447   -9.7389  -15.9122 C   0  0  0  0  0  0  0  0  0  0  0  0
   20.1323   -9.6610  -14.6624 O   0  0  0  0  0  0  0  0  0  0  0  0
   19.7186   -8.4847  -16.5788 N   0  0  0  0  0  0  0  0  0  0  0  0
   19.6651   -7.2371  -15.8811 C   0  0  0  0  0  0  0  0  0  0  0  0
   19.3782   -6.0583  -16.6916 C   0  0  0  0  0  0  0  0  0  0  0  0
   19.2693   -6.1889  -17.9351 O   0  0  0  0  0  0  0  0  0  0  0  0
   19.2155   -4.7750  -16.1308 N   0  0  0  0  0  0  0  0  0  0  0  0
   18.9274   -3.5843  -16.9621 C   0  0  1  0  0  0  0  0  0  0  0  0
   18.3919   -2.4866  -16.1110 C   0  0  0  0  0  0  0  0  0  0  0  0
   16.9851   -2.7137  -15.6893 C   0  0  0  0  0  0  0  0  0  0  0  0
   16.4274   -1.7117  -14.7606 C   0  0  0  0  0  0  0  0  0  0  0  0
   15.1878   -1.7209  -14.4790 O   0  0  0  0  0  0  0  0  0  0  0  0
   20.1563   -3.1784  -17.6447 C   0  0  0  0  0  0  0  0  0  0  0  0
   21.2791   -3.3366  -17.1498 O   0  0  0  0  0  0  0  0  0  0  0  0
   17.1822   -0.7427  -14.1655 O   0  0  0  0  0  0  0  0  0  0  0  0
   20.0761   -2.5808  -18.9199 O   0  0  0  0  0  0  0  0  0  0  0  0
  2  1  1  1
  3  4  1  0
  3  2  1  0
  4  5  2  0
  6  5  1  0
  7  6  1  0
  8  7  2  0
  8  4  1  0
  9  2  1  0
  9 10  2  0
 11  9  1  0
 12 11  1  0
 12 13  1  0
 13 15  1  0
 14 13  2  0
 15 16  1  0
 16 17  1  1
 16 21  1  0
 18 17  1  0
 19 18  1  0
 20 19  2  0
 21 24  1  0
 22 21  2  0
 23 19  1  0
M  END
$$$$
