HGE.pdb
     RDKit          3D

 24 24  0  0  1  0  0  0  0  0999 V2000
   20.1527  -15.8497  -17.6371 N   0  0  0  0  0  0  0  0  0  0  0  0
   20.6850  -15.3086  -16.4004 C   0  0  1  0  0  0  0  0  0  0  0  0
   21.5966  -16.3780  -15.8334 C   0  0  0  0  0  0  0  0  0  0  0  0
   20.8656  -17.6722  -15.7117 C   0  0  0  0  0  0  0  0  0  0  0  0
   19.6437  -17.9264  -15.1178 C   0  0  0  0  0  0  0  0  0  0  0  0
   19.3286  -19.2329  -15.2198 N   0  0  0  0  0  0  0  0  0  0  0  0
   20.3492  -19.8082  -15.8774 C   0  0  0  0  0  0  0  0  0  0  0  0
   21.2745  -18.8830  -16.1763 N   0  0  0  0  0  0  0  0  0  0  0  0
   21.3946  -14.0322  -16.6108 C   0  0  0  0  0  0  0  0  0  0  0  0
   21.8391  -13.7176  -17.7539 O   0  0  0  0  0  0  0  0  0  0  0  0
   21.6340  -13.0672  -15.5716 N   0  0  0  0  0  0  0  0  0  0  0  0
   22.2460  -11.7985  -15.8210 C   0  0  0  0  0  0  0  0  0  0  0  0
   21.4375  -10.6229  -15.5156 C   0  0  0  0  0  0  0  0  0  0  0  0
   20.2170  -10.7744  -15.2653 O   0  0  0  0  0  0  0  0  0  0  0  0
   21.9757   -9.3201  -15.4880 N   0  0  0  0  0  0  0  0  0  0  0  0
   21.1592   -8.1395  -15.1256 C   0  0  1  0  0  0  0  0  0  0  0  0
   22.0045   -7.1291  -14.4327 C   0  0  0  0  0  0  0  0  0  0  0  0
   21.2381   -5.9325  -13.9973 C   0  0  0  0  0  0  0  0  0  0  0  0
   22.0346   -4.8531  -13.3826 C   0  0  0  0  0  0  0  0  0  0  0  0
   22.0372   -3.6894  -13.8941 O   0  0  0  0  0  0  0  0  0  0  0  0
   20.5610   -7.5897  -16.3425 C   0  0  0  0  0  0  0  0  0  0  0  0
   21.1375   -7.6068  -17.4371 O   0  0  0  0  0  0  0  0  0  0  0  0
   22.7950   -5.0302  -12.2631 O   0  0  0  0  0  0  0  0  0  0  0  0
   19.2751   -7.0128  -16.2835 O   0  0  0  0  0  0  0  0  0  0  0  0
  2  1  1  6
  3  4  1  0
  3  2  1  0
  4  5  2  0
  6  5  1  0
  7  6  1  0
  8  7  2  0
  8  4  1  0
  9  2  1  0
  9 10  2  0
 11  9  1  0
 12 11  1  0
 12 13  1  0
 13 15  1  0
 14 13  2  0
 15 16  1  0
 16 17  1  6
 16 21  1  0
 18 17  1  0
 19 18  1  0
 20 19  2  0
 21 24  1  0
 22 21  2  0
 23 19  1  0
M  END
$$$$
