HGE.pdb
     RDKit          3D

 24 24  0  0  1  0  0  0  0  0999 V2000
   26.0893  -19.1136   -7.9872 N   0  0  0  0  0  0  0  0  0  0  0  0
   27.0521  -19.9018   -8.7337 C   0  0  1  0  0  0  0  0  0  0  0  0
   27.5294  -20.9854   -7.7881 C   0  0  0  0  0  0  0  0  0  0  0  0
   28.2419  -20.3826   -6.6250 C   0  0  0  0  0  0  0  0  0  0  0  0
   28.4127  -19.0481   -6.3084 C   0  0  0  0  0  0  0  0  0  0  0  0
   29.1190  -18.9170   -5.1680 N   0  0  0  0  0  0  0  0  0  0  0  0
   29.3971  -20.1667   -4.7607 C   0  0  0  0  0  0  0  0  0  0  0  0
   28.8769  -21.0514   -5.6257 N   0  0  0  0  0  0  0  0  0  0  0  0
   26.4740  -20.4624   -9.9700 C   0  0  0  0  0  0  0  0  0  0  0  0
   25.2228  -20.6155  -10.0899 O   0  0  0  0  0  0  0  0  0  0  0  0
   27.2545  -20.8687  -11.1076 N   0  0  0  0  0  0  0  0  0  0  0  0
   26.7113  -20.9501  -12.4284 C   0  0  0  0  0  0  0  0  0  0  0  0
   25.3243  -21.3920  -12.5276 C   0  0  0  0  0  0  0  0  0  0  0  0
   24.9930  -22.4760  -11.9889 O   0  0  0  0  0  0  0  0  0  0  0  0
   24.3383  -20.6455  -13.2047 N   0  0  0  0  0  0  0  0  0  0  0  0
   22.9446  -21.1255  -13.3417 C   0  0  1  0  0  0  0  0  0  0  0  0
   22.0141  -19.9674  -13.4363 C   0  0  0  0  0  0  0  0  0  0  0  0
   20.5916  -20.3761  -13.5697 C   0  0  0  0  0  0  0  0  0  0  0  0
   19.7630  -20.2084  -12.3601 C   0  0  0  0  0  0  0  0  0  0  0  0
   19.7212  -19.0864  -11.7641 O   0  0  0  0  0  0  0  0  0  0  0  0
   22.8552  -21.9791  -14.5268 C   0  0  0  0  0  0  0  0  0  0  0  0
   23.6590  -21.9067  -15.4645 O   0  0  0  0  0  0  0  0  0  0  0  0
   19.0145  -21.2147  -11.8216 O   0  0  0  0  0  0  0  0  0  0  0  0
   21.8166  -22.9289  -14.6205 O   0  0  0  0  0  0  0  0  0  0  0  0
  2  1  1  1
  3  4  1  0
  3  2  1  0
  4  5  2  0
  6  5  1  0
  7  6  1  0
  8  7  2  0
  8  4  1  0
  9  2  1  0
  9 10  2  0
 11  9  1  0
 12 11  1  0
 12 13  1  0
 13 15  1  0
 14 13  2  0
 15 16  1  0
 16 17  1  6
 16 21  1  0
 18 17  1  0
 19 18  1  0
 20 19  2  0
 21 24  1  0
 22 21  2  0
 23 19  1  0
M  END
$$$$
