HGE.pdb
     RDKit          3D

 24 24  0  0  1  0  0  0  0  0999 V2000
   17.6096  -22.9115  -13.3925 N   0  0  0  0  0  0  0  0  0  0  0  0
   19.0442  -23.1289  -13.3953 C   0  0  1  0  0  0  0  0  0  0  0  0
   19.6760  -21.7537  -13.4731 C   0  0  0  0  0  0  0  0  0  0  0  0
   19.2454  -21.0542  -14.7177 C   0  0  0  0  0  0  0  0  0  0  0  0
   18.0032  -21.0469  -15.3239 C   0  0  0  0  0  0  0  0  0  0  0  0
   18.0227  -20.2886  -16.4380 N   0  0  0  0  0  0  0  0  0  0  0  0
   19.2758  -19.8149  -16.5398 C   0  0  0  0  0  0  0  0  0  0  0  0
   20.0158  -20.2672  -15.5154 N   0  0  0  0  0  0  0  0  0  0  0  0
   19.4962  -23.8783  -12.2074 C   0  0  0  0  0  0  0  0  0  0  0  0
   20.7238  -23.9310  -11.9017 O   0  0  0  0  0  0  0  0  0  0  0  0
   18.6119  -24.5890  -11.3234 N   0  0  0  0  0  0  0  0  0  0  0  0
   19.0798  -25.3251  -10.1896 C   0  0  0  0  0  0  0  0  0  0  0  0
   18.3029  -25.1800   -8.9631 C   0  0  0  0  0  0  0  0  0  0  0  0
   17.3785  -24.3320   -8.9273 O   0  0  0  0  0  0  0  0  0  0  0  0
   18.5493  -25.9592   -7.8142 N   0  0  0  0  0  0  0  0  0  0  0  0
   17.6946  -25.8742   -6.6083 C   0  0  1  0  0  0  0  0  0  0  0  0
   18.0113  -26.9937   -5.6798 C   0  0  0  0  0  0  0  0  0  0  0  0
   17.1075  -27.0425   -4.5011 C   0  0  0  0  0  0  0  0  0  0  0  0
   17.4051  -28.0959   -3.5115 C   0  0  0  0  0  0  0  0  0  0  0  0
   16.7074  -28.1951   -2.4535 O   0  0  0  0  0  0  0  0  0  0  0  0
   17.9094  -24.5753   -5.9699 C   0  0  0  0  0  0  0  0  0  0  0  0
   19.0039  -23.9984   -5.9804 O   0  0  0  0  0  0  0  0  0  0  0  0
   18.4160  -29.0002   -3.6639 O   0  0  0  0  0  0  0  0  0  0  0  0
   16.8358  -23.9404   -5.3111 O   0  0  0  0  0  0  0  0  0  0  0  0
  2  1  1  1
  3  4  1  0
  3  2  1  0
  4  5  2  0
  6  5  1  0
  7  6  1  0
  8  7  2  0
  8  4  1  0
  9  2  1  0
  9 10  2  0
 11  9  1  0
 12 11  1  0
 12 13  1  0
 13 15  1  0
 14 13  2  0
 15 16  1  0
 16 17  1  1
 16 21  1  0
 18 17  1  0
 19 18  1  0
 20 19  2  0
 21 24  1  0
 22 21  2  0
 23 19  1  0
M  END
$$$$
