HGE.pdb
     RDKit          3D

 24 24  0  0  1  0  0  0  0  0999 V2000
   28.2795  -20.7517  -15.2044 N   0  0  0  0  0  0  0  0  0  0  0  0
   27.0218  -20.0283  -15.1843 C   0  0  1  0  0  0  0  0  0  0  0  0
   26.6182  -19.8496  -16.6339 C   0  0  0  0  0  0  0  0  0  0  0  0
   27.6631  -19.0844  -17.3732 C   0  0  0  0  0  0  0  0  0  0  0  0
   28.4844  -19.5075  -18.4012 C   0  0  0  0  0  0  0  0  0  0  0  0
   29.2968  -18.5094  -18.8018 N   0  0  0  0  0  0  0  0  0  0  0  0
   28.9923  -17.4535  -18.0290 C   0  0  0  0  0  0  0  0  0  0  0  0
   28.0159  -17.7869  -17.1704 N   0  0  0  0  0  0  0  0  0  0  0  0
   25.9861  -20.7335  -14.4052 C   0  0  0  0  0  0  0  0  0  0  0  0
   24.7785  -20.7382  -14.7858 O   0  0  0  0  0  0  0  0  0  0  0  0
   26.2495  -21.4528  -13.1879 N   0  0  0  0  0  0  0  0  0  0  0  0
   25.2161  -22.0741  -12.4183 C   0  0  0  0  0  0  0  0  0  0  0  0
   23.9876  -21.3048  -12.2508 C   0  0  0  0  0  0  0  0  0  0  0  0
   23.9985  -20.3008  -11.4980 O   0  0  0  0  0  0  0  0  0  0  0  0
   22.7862  -21.6448  -12.9056 N   0  0  0  0  0  0  0  0  0  0  0  0
   21.5505  -20.8450  -12.7466 C   0  0  1  0  0  0  0  0  0  0  0  0
   21.3887  -19.9225  -13.9036 C   0  0  0  0  0  0  0  0  0  0  0  0
   20.1740  -19.0724  -13.8018 C   0  0  0  0  0  0  0  0  0  0  0  0
   19.9411  -18.1535  -14.9327 C   0  0  0  0  0  0  0  0  0  0  0  0
   20.6323  -18.2580  -15.9944 O   0  0  0  0  0  0  0  0  0  0  0  0
   20.4120  -21.7564  -12.6285 C   0  0  0  0  0  0  0  0  0  0  0  0
   20.4130  -22.8936  -13.1160 O   0  0  0  0  0  0  0  0  0  0  0  0
   19.0004  -17.1648  -14.9107 O   0  0  0  0  0  0  0  0  0  0  0  0
   19.2579  -21.3379  -11.9338 O   0  0  0  0  0  0  0  0  0  0  0  0
  2  1  1  6
  3  4  1  0
  3  2  1  0
  4  5  2  0
  6  5  1  0
  7  6  1  0
  8  7  2  0
  8  4  1  0
  9  2  1  0
  9 10  2  0
 11  9  1  0
 12 11  1  0
 12 13  1  0
 13 15  1  0
 14 13  2  0
 15 16  1  0
 16 17  1  6
 16 21  1  0
 18 17  1  0
 19 18  1  0
 20 19  2  0
 21 24  1  0
 22 21  2  0
 23 19  1  0
M  END
$$$$
