HGE.pdb
     RDKit          3D

 24 24  0  0  1  0  0  0  0  0999 V2000
   22.0809  -13.7041  -16.5045 N   0  0  0  0  0  0  0  0  0  0  0  0
   22.4505  -12.3670  -16.9300 C   0  0  1  0  0  0  0  0  0  0  0  0
   23.5577  -12.5431  -17.9496 C   0  0  0  0  0  0  0  0  0  0  0  0
   24.7240  -13.2395  -17.3344 C   0  0  0  0  0  0  0  0  0  0  0  0
   25.3101  -14.4374  -17.6973 C   0  0  0  0  0  0  0  0  0  0  0  0
   26.3484  -14.7233  -16.8869 N   0  0  0  0  0  0  0  0  0  0  0  0
   26.4217  -13.7083  -16.0096 C   0  0  0  0  0  0  0  0  0  0  0  0
   25.4540  -12.8149  -16.2685 N   0  0  0  0  0  0  0  0  0  0  0  0
   21.3036  -11.6214  -17.4828 C   0  0  0  0  0  0  0  0  0  0  0  0
   20.4032  -12.2146  -18.1467 O   0  0  0  0  0  0  0  0  0  0  0  0
   21.1147  -10.2050  -17.3204 N   0  0  0  0  0  0  0  0  0  0  0  0
   19.8515   -9.6280  -16.9773 C   0  0  0  0  0  0  0  0  0  0  0  0
   19.8066   -8.1711  -16.9098 C   0  0  0  0  0  0  0  0  0  0  0  0
   18.7054   -7.6073  -16.6988 O   0  0  0  0  0  0  0  0  0  0  0  0
   20.9556   -7.3699  -17.0704 N   0  0  0  0  0  0  0  0  0  0  0  0
   20.9079   -5.8947  -16.9551 C   0  0  1  0  0  0  0  0  0  0  0  0
   20.8485   -5.4977  -15.5216 C   0  0  0  0  0  0  0  0  0  0  0  0
   21.9652   -6.0595  -14.7179 C   0  0  0  0  0  0  0  0  0  0  0  0
   22.0601   -5.5718  -13.3284 C   0  0  0  0  0  0  0  0  0  0  0  0
   22.4198   -4.3753  -13.0937 O   0  0  0  0  0  0  0  0  0  0  0  0
   22.0865   -5.3328  -17.6154 C   0  0  0  0  0  0  0  0  0  0  0  0
   23.0109   -6.0348  -18.0437 O   0  0  0  0  0  0  0  0  0  0  0  0
   21.7781   -6.3493  -12.2426 O   0  0  0  0  0  0  0  0  0  0  0  0
   22.1894   -3.9354  -17.7789 O   0  0  0  0  0  0  0  0  0  0  0  0
  2  1  1  6
  3  4  1  0
  3  2  1  0
  4  5  2  0
  6  5  1  0
  7  6  1  0
  8  7  2  0
  8  4  1  0
  9  2  1  0
  9 10  2  0
 11  9  1  0
 12 11  1  0
 12 13  1  0
 13 15  1  0
 14 13  2  0
 15 16  1  0
 16 17  1  1
 16 21  1  0
 18 17  1  0
 19 18  1  0
 20 19  2  0
 21 24  1  0
 22 21  2  0
 23 19  1  0
M  END
$$$$
