HGE.pdb
     RDKit          3D

 24 24  0  0  1  0  0  0  0  0999 V2000
   20.5241  -24.5285  -13.8556 N   0  0  0  0  0  0  0  0  0  0  0  0
   19.6354  -24.5870  -12.7100 C   0  0  1  0  0  0  0  0  0  0  0  0
   18.2286  -24.6157  -13.2724 C   0  0  0  0  0  0  0  0  0  0  0  0
   17.9483  -23.3646  -14.0339 C   0  0  0  0  0  0  0  0  0  0  0  0
   17.7640  -23.1989  -15.3937 C   0  0  0  0  0  0  0  0  0  0  0  0
   17.5306  -21.9043  -15.6872 N   0  0  0  0  0  0  0  0  0  0  0  0
   17.5667  -21.2481  -14.5154 C   0  0  0  0  0  0  0  0  0  0  0  0
   17.8162  -22.1127  -13.5195 N   0  0  0  0  0  0  0  0  0  0  0  0
   19.9110  -25.7541  -11.8505 C   0  0  0  0  0  0  0  0  0  0  0  0
   19.1203  -26.0713  -10.9138 O   0  0  0  0  0  0  0  0  0  0  0  0
   21.0617  -26.6043  -11.9976 N   0  0  0  0  0  0  0  0  0  0  0  0
   21.3667  -27.6578  -11.0793 C   0  0  0  0  0  0  0  0  0  0  0  0
   20.7593  -28.9540  -11.3622 C   0  0  0  0  0  0  0  0  0  0  0  0
   19.9046  -29.0366  -12.2775 O   0  0  0  0  0  0  0  0  0  0  0  0
   21.0979  -30.1211  -10.6474 N   0  0  0  0  0  0  0  0  0  0  0  0
   20.5812  -31.4548  -11.0293 C   0  0  1  0  0  0  0  0  0  0  0  0
   21.3841  -32.5202  -10.3689 C   0  0  0  0  0  0  0  0  0  0  0  0
   20.9488  -33.8907  -10.7440 C   0  0  0  0  0  0  0  0  0  0  0  0
   21.7386  -34.9932  -10.1623 C   0  0  0  0  0  0  0  0  0  0  0  0
   21.3821  -36.1999  -10.3427 O   0  0  0  0  0  0  0  0  0  0  0  0
   19.1703  -31.5390  -10.6508 C   0  0  0  0  0  0  0  0  0  0  0  0
   18.3639  -32.2721  -11.2365 O   0  0  0  0  0  0  0  0  0  0  0  0
   22.8645  -34.7934   -9.4170 O   0  0  0  0  0  0  0  0  0  0  0  0
   18.6929  -30.7594   -9.5765 O   0  0  0  0  0  0  0  0  0  0  0  0
  2  1  1  6
  3  4  1  0
  3  2  1  0
  4  5  2  0
  6  5  1  0
  7  6  1  0
  8  7  2  0
  8  4  1  0
  9  2  1  0
  9 10  2  0
 11  9  1  0
 12 11  1  0
 12 13  1  0
 13 15  1  0
 14 13  2  0
 15 16  1  0
 16 17  1  1
 16 21  1  0
 18 17  1  0
 19 18  1  0
 20 19  2  0
 21 24  1  0
 22 21  2  0
 23 19  1  0
M  END
$$$$
