HGE.pdb
     RDKit          3D

 24 24  0  0  1  0  0  0  0  0999 V2000
   26.0179  -18.1601  -18.1259 N   0  0  0  0  0  0  0  0  0  0  0  0
   27.1104  -17.9080  -17.2048 C   0  0  1  0  0  0  0  0  0  0  0  0
   27.6421  -16.5322  -17.5523 C   0  0  0  0  0  0  0  0  0  0  0  0
   28.1510  -16.5111  -18.9539 C   0  0  0  0  0  0  0  0  0  0  0  0
   27.4525  -16.6857  -20.1337 C   0  0  0  0  0  0  0  0  0  0  0  0
   28.2797  -16.5931  -21.1937 N   0  0  0  0  0  0  0  0  0  0  0  0
   29.5025  -16.3604  -20.6881 C   0  0  0  0  0  0  0  0  0  0  0  0
   29.4367  -16.3096  -19.3484 N   0  0  0  0  0  0  0  0  0  0  0  0
   26.6820  -17.9952  -15.7956 C   0  0  0  0  0  0  0  0  0  0  0  0
   25.6408  -17.3960  -15.3955 O   0  0  0  0  0  0  0  0  0  0  0  0
   27.3854  -18.7436  -14.7887 N   0  0  0  0  0  0  0  0  0  0  0  0
   26.9631  -18.7879  -13.4227 C   0  0  0  0  0  0  0  0  0  0  0  0
   25.8003  -19.6211  -13.1353 C   0  0  0  0  0  0  0  0  0  0  0  0
   25.2504  -20.2410  -14.0779 O   0  0  0  0  0  0  0  0  0  0  0  0
   25.2704  -19.7594  -11.8362 N   0  0  0  0  0  0  0  0  0  0  0  0
   24.1044  -20.6259  -11.5507 C   0  0  1  0  0  0  0  0  0  0  0  0
   23.9374  -20.7867  -10.0803 C   0  0  0  0  0  0  0  0  0  0  0  0
   22.7915  -21.6615   -9.7193 C   0  0  0  0  0  0  0  0  0  0  0  0
   22.5625  -21.8495   -8.2737 C   0  0  0  0  0  0  0  0  0  0  0  0
   23.3355  -21.3006   -7.4270 O   0  0  0  0  0  0  0  0  0  0  0  0
   22.9150  -20.0302  -12.1602 C   0  0  0  0  0  0  0  0  0  0  0  0
   22.0148  -20.7084  -12.6706 O   0  0  0  0  0  0  0  0  0  0  0  0
   21.5402  -22.6011   -7.7707 O   0  0  0  0  0  0  0  0  0  0  0  0
   22.7723  -18.6269  -12.1750 O   0  0  0  0  0  0  0  0  0  0  0  0
  2  1  1  6
  3  4  1  0
  3  2  1  0
  4  5  2  0
  6  5  1  0
  7  6  1  0
  8  7  2  0
  8  4  1  0
  9  2  1  0
  9 10  2  0
 11  9  1  0
 12 11  1  0
 12 13  1  0
 13 15  1  0
 14 13  2  0
 15 16  1  0
 16 17  1  1
 16 21  1  0
 18 17  1  0
 19 18  1  0
 20 19  2  0
 21 24  1  0
 22 21  2  0
 23 19  1  0
M  END
$$$$
