HGE.pdb
     RDKit          3D

 24 24  0  0  1  0  0  0  0  0999 V2000
   18.7970  -22.5410  -15.0182 N   0  0  0  0  0  0  0  0  0  0  0  0
   20.1639  -22.5795  -14.5329 C   0  0  1  0  0  0  0  0  0  0  0  0
   20.8874  -21.4442  -15.2284 C   0  0  0  0  0  0  0  0  0  0  0  0
   20.8368  -21.6252  -16.7078 C   0  0  0  0  0  0  0  0  0  0  0  0
   20.3382  -20.7681  -17.6706 C   0  0  0  0  0  0  0  0  0  0  0  0
   20.4800  -21.3010  -18.9005 N   0  0  0  0  0  0  0  0  0  0  0  0
   21.0677  -22.4955  -18.7193 C   0  0  0  0  0  0  0  0  0  0  0  0
   21.2855  -22.6994  -17.4107 N   0  0  0  0  0  0  0  0  0  0  0  0
   20.2368  -22.4637  -13.0639 C   0  0  0  0  0  0  0  0  0  0  0  0
   20.9567  -21.5767  -12.5178 O   0  0  0  0  0  0  0  0  0  0  0  0
   19.5202  -23.3183  -12.1557 N   0  0  0  0  0  0  0  0  0  0  0  0
   19.6419  -23.2107  -10.7345 C   0  0  0  0  0  0  0  0  0  0  0  0
   18.8045  -24.1096   -9.9472 C   0  0  0  0  0  0  0  0  0  0  0  0
   18.0691  -24.9326  -10.5446 O   0  0  0  0  0  0  0  0  0  0  0  0
   18.7911  -24.0914   -8.5375 N   0  0  0  0  0  0  0  0  0  0  0  0
   17.8978  -24.9695   -7.7483 C   0  0  1  0  0  0  0  0  0  0  0  0
   18.3668  -25.0368   -6.3371 C   0  0  0  0  0  0  0  0  0  0  0  0
   17.5875  -25.9965   -5.5124 C   0  0  0  0  0  0  0  0  0  0  0  0
   17.9453  -27.4185   -5.6785 C   0  0  0  0  0  0  0  0  0  0  0  0
   19.1224  -27.7449   -6.0305 O   0  0  0  0  0  0  0  0  0  0  0  0
   16.5327  -24.4493   -7.8319 C   0  0  0  0  0  0  0  0  0  0  0  0
   16.2842  -23.2518   -8.0190 O   0  0  0  0  0  0  0  0  0  0  0  0
   17.0637  -28.4399   -5.4726 O   0  0  0  0  0  0  0  0  0  0  0  0
   15.4435  -25.3354   -7.6960 O   0  0  0  0  0  0  0  0  0  0  0  0
  2  1  1  6
  3  4  1  0
  3  2  1  0
  4  5  2  0
  6  5  1  0
  7  6  1  0
  8  7  2  0
  8  4  1  0
  9  2  1  0
  9 10  2  0
 11  9  1  0
 12 11  1  0
 12 13  1  0
 13 15  1  0
 14 13  2  0
 15 16  1  0
 16 17  1  1
 16 21  1  0
 18 17  1  0
 19 18  1  0
 20 19  2  0
 21 24  1  0
 22 21  2  0
 23 19  1  0
M  END
$$$$
