LCI.pdb
     RDKit          3D

 23 22  0  0  1  0  0  0  0  0999 V2000
    9.1109  -12.8675   19.5467 C   0  0  0  0  0  0  0  0  0  0  0  0
    7.6626  -13.3502   19.3899 C   0  0  2  0  0  0  0  0  0  0  0  0
    6.8487  -12.1174   19.0581 C   0  0  0  0  0  0  0  0  0  0  0  0
    7.2554  -13.9042   20.7278 C   0  0  0  0  0  0  0  0  0  0  0  0
    8.1383  -15.0470   21.1681 C   0  0  2  0  0  0  0  0  0  0  0  0
    8.1174  -16.1671   20.2809 N   0  0  0  0  0  0  0  0  0  0  0  0
    7.8199  -15.4075   22.5739 C   0  0  0  0  0  0  0  0  0  0  0  0
    7.5367  -14.4702   23.3641 O   0  0  0  0  0  0  0  0  0  0  0  0
    7.8164  -16.7219   23.0683 N   0  0  0  0  0  0  0  0  0  0  0  0
    7.5550  -17.0995   24.4247 C   0  0  1  0  0  0  0  0  0  0  0  0
    7.1038  -18.5651   24.5172 C   0  0  0  0  0  0  0  0  0  0  0  0
    6.8253  -19.0289   26.2469 S   0  0  0  0  0  0  0  0  0  0  0  0
    8.7305  -16.8751   25.3107 C   0  0  0  0  0  0  0  0  0  0  0  0
    9.8817  -17.2122   24.9066 O   0  0  0  0  0  0  0  0  0  0  0  0
    8.5048  -12.4925   28.2563 C   0  0  0  0  0  0  0  0  0  0  0  0
    9.0203  -13.6280   27.3942 C   0  0  0  0  0  0  0  0  0  0  0  0
    9.5417  -14.7613   28.2373 C   0  0  2  0  0  0  0  0  0  0  0  0
   10.8153  -14.2238   28.9072 C   0  0  0  0  0  0  0  0  0  0  0  0
    9.8408  -15.9457   27.3769 C   0  0  2  0  0  0  0  0  0  0  0  0
    8.6392  -16.3022   26.5902 N   0  0  0  0  0  0  0  0  0  0  0  0
   10.1782  -17.1506   28.1570 C   0  0  0  0  0  0  0  0  0  0  0  0
   11.4813  -17.5531   28.3966 O   0  0  0  0  0  0  0  0  0  0  0  0
    9.2822  -17.8856   28.6504 O   0  0  0  0  0  0  0  0  0  0  0  0
  2  1  1  1
  3  2  1  0
  4  2  1  0
  5  4  1  0
  5  6  1  6
  7  8  2  0
  7  5  1  0
  9  7  1  0
 10  9  1  0
 10 11  1  6
 12 11  1  0
 13 10  1  0
 13 20  1  0
 14 13  2  0
 15 16  1  0
 17 16  1  0
 17 19  1  0
 17 18  1  6
 19 20  1  1
 19 21  1  0
 21 23  2  0
 21 22  1  0
M  END
$$$$
