LCI.pdb
     RDKit          3D

 23 22  0  0  1  0  0  0  0  0999 V2000
   12.3320  -19.1662   20.2560 C   0  0  0  0  0  0  0  0  0  0  0  0
   12.5030  -17.7384   19.7202 C   0  0  2  0  0  0  0  0  0  0  0  0
   13.8306  -17.2498   20.2598 C   0  0  0  0  0  0  0  0  0  0  0  0
   11.3722  -16.9324   20.2985 C   0  0  0  0  0  0  0  0  0  0  0  0
   10.0232  -17.5417   20.0014 C   0  0  2  0  0  0  0  0  0  0  0  0
    9.5713  -17.3184   18.6641 N   0  0  0  0  0  0  0  0  0  0  0  0
    9.0441  -17.1063   21.0306 C   0  0  0  0  0  0  0  0  0  0  0  0
    8.4215  -16.0328   20.8229 O   0  0  0  0  0  0  0  0  0  0  0  0
    8.7749  -17.8166   22.2117 N   0  0  0  0  0  0  0  0  0  0  0  0
    7.8615  -17.4099   23.2369 C   0  0  1  0  0  0  0  0  0  0  0  0
    7.1957  -18.6238   23.9025 C   0  0  0  0  0  0  0  0  0  0  0  0
    6.1104  -18.0849   25.2503 S   0  0  0  0  0  0  0  0  0  0  0  0
    8.5140  -16.5604   24.2712 C   0  0  0  0  0  0  0  0  0  0  0  0
    9.7137  -16.7974   24.5980 O   0  0  0  0  0  0  0  0  0  0  0  0
    6.2347  -11.7369   25.6025 C   0  0  0  0  0  0  0  0  0  0  0  0
    7.3325  -12.7325   25.2830 C   0  0  0  0  0  0  0  0  0  0  0  0
    7.6142  -13.6313   26.4578 C   0  0  2  0  0  0  0  0  0  0  0  0
    8.3049  -12.7404   27.5012 C   0  0  0  0  0  0  0  0  0  0  0  0
    8.4985  -14.7607   26.0394 C   0  0  2  0  0  0  0  0  0  0  0  0
    7.8691  -15.4931   24.9181 N   0  0  0  0  0  0  0  0  0  0  0  0
    8.6967  -15.7592   27.1062 C   0  0  0  0  0  0  0  0  0  0  0  0
    9.7732  -15.7288   27.9766 O   0  0  0  0  0  0  0  0  0  0  0  0
    7.8834  -16.7052   27.2794 O   0  0  0  0  0  0  0  0  0  0  0  0
  2  1  1  1
  3  2  1  0
  4  2  1  0
  5  4  1  0
  5  6  1  6
  7  8  2  0
  7  5  1  0
  9  7  1  0
 10  9  1  0
 10 11  1  1
 12 11  1  0
 13 10  1  0
 13 20  1  0
 14 13  2  0
 15 16  1  0
 17 16  1  0
 17 19  1  0
 17 18  1  1
 19 20  1  6
 19 21  1  0
 21 23  2  0
 21 22  1  0
M  END
$$$$
