LCI.pdb
     RDKit          3D

 23 22  0  0  1  0  0  0  0  0999 V2000
    9.8344  -13.2438   19.0175 C   0  0  0  0  0  0  0  0  0  0  0  0
    8.3525  -13.3249   18.6273 C   0  0  2  0  0  0  0  0  0  0  0  0
    7.8319  -11.9042   18.6800 C   0  0  0  0  0  0  0  0  0  0  0  0
    7.6848  -14.1684   19.6788 C   0  0  0  0  0  0  0  0  0  0  0  0
    8.1996  -15.5877   19.6874 C   0  0  2  0  0  0  0  0  0  0  0  0
    7.6866  -16.3939   18.6248 N   0  0  0  0  0  0  0  0  0  0  0  0
    7.9864  -16.1851   21.0310 C   0  0  0  0  0  0  0  0  0  0  0  0
    6.8029  -16.4451   21.3700 O   0  0  0  0  0  0  0  0  0  0  0  0
    9.0195  -16.4741   21.9372 N   0  0  0  0  0  0  0  0  0  0  0  0
    8.8420  -16.9357   23.2811 C   0  0  1  0  0  0  0  0  0  0  0  0
    9.5659  -18.2710   23.5111 C   0  0  0  0  0  0  0  0  0  0  0  0
    9.5031  -18.7261   25.2643 S   0  0  0  0  0  0  0  0  0  0  0  0
    9.2942  -15.9353   24.2870 C   0  0  0  0  0  0  0  0  0  0  0  0
   10.4418  -15.4148   24.1676 O   0  0  0  0  0  0  0  0  0  0  0  0
    5.7994  -12.4319   26.2640 C   0  0  0  0  0  0  0  0  0  0  0  0
    7.0766  -13.0800   25.7671 C   0  0  0  0  0  0  0  0  0  0  0  0
    7.8210  -13.7528   26.8898 C   0  0  2  0  0  0  0  0  0  0  0  0
    8.2787  -12.6179   27.8184 C   0  0  0  0  0  0  0  0  0  0  0  0
    8.9876  -14.5137   26.3488 C   0  0  2  0  0  0  0  0  0  0  0  0
    8.5120  -15.5260   25.3798 N   0  0  0  0  0  0  0  0  0  0  0  0
    9.7127  -15.2671   27.3884 C   0  0  0  0  0  0  0  0  0  0  0  0
    9.3007  -16.5072   27.8463 O   0  0  0  0  0  0  0  0  0  0  0  0
   10.7591  -14.8106   27.9205 O   0  0  0  0  0  0  0  0  0  0  0  0
  2  1  1  1
  3  2  1  0
  4  2  1  0
  5  4  1  0
  5  6  1  6
  7  8  2  0
  7  5  1  0
  9  7  1  0
 10  9  1  0
 10 11  1  6
 12 11  1  0
 13 10  1  0
 13 20  1  0
 14 13  2  0
 15 16  1  0
 17 16  1  0
 17 19  1  0
 17 18  1  1
 19 20  1  6
 19 21  1  0
 21 23  2  0
 21 22  1  0
M  END
$$$$
