LCI.pdb
     RDKit          3D

 23 22  0  0  1  0  0  0  0  0999 V2000
    9.5401  -13.8395   19.5473 C   0  0  0  0  0  0  0  0  0  0  0  0
    8.2387  -13.6756   18.7507 C   0  0  2  0  0  0  0  0  0  0  0  0
    7.9009  -12.2008   18.8079 C   0  0  0  0  0  0  0  0  0  0  0  0
    7.1959  -14.4820   19.4756 C   0  0  0  0  0  0  0  0  0  0  0  0
    7.6951  -15.8551   19.8562 C   0  0  2  0  0  0  0  0  0  0  0  0
    7.4519  -16.8531   18.8627 N   0  0  0  0  0  0  0  0  0  0  0  0
    7.1673  -16.2216   21.1958 C   0  0  0  0  0  0  0  0  0  0  0  0
    5.9310  -16.0897   21.3892 O   0  0  0  0  0  0  0  0  0  0  0  0
    7.9606  -16.7026   22.2500 N   0  0  0  0  0  0  0  0  0  0  0  0
    7.5105  -16.9384   23.5889 C   0  0  1  0  0  0  0  0  0  0  0  0
    7.5936  -18.4294   23.9494 C   0  0  0  0  0  0  0  0  0  0  0  0
    7.1855  -18.6769   25.6978 S   0  0  0  0  0  0  0  0  0  0  0  0
    8.2646  -16.1332   24.5890 C   0  0  0  0  0  0  0  0  0  0  0  0
    9.5293  -16.1839   24.5956 O   0  0  0  0  0  0  0  0  0  0  0  0
    5.8414  -11.7525   26.6613 C   0  0  0  0  0  0  0  0  0  0  0  0
    6.9588  -12.6086   26.0984 C   0  0  0  0  0  0  0  0  0  0  0  0
    7.5559  -13.4949   27.1592 C   0  0  2  0  0  0  0  0  0  0  0  0
    8.3662  -12.5593   28.0690 C   0  0  0  0  0  0  0  0  0  0  0  0
    8.4308  -14.5302   26.5303 C   0  0  2  0  0  0  0  0  0  0  0  0
    7.6481  -15.3061   25.5427 N   0  0  0  0  0  0  0  0  0  0  0  0
    8.9389  -15.5176   27.5003 C   0  0  0  0  0  0  0  0  0  0  0  0
   10.1895  -15.4229   28.0873 O   0  0  0  0  0  0  0  0  0  0  0  0
    8.2490  -16.5127   27.8468 O   0  0  0  0  0  0  0  0  0  0  0  0
  2  1  1  1
  3  2  1  0
  4  2  1  0
  5  4  1  0
  5  6  1  6
  7  8  2  0
  7  5  1  0
  9  7  1  0
 10  9  1  0
 10 11  1  1
 12 11  1  0
 13 10  1  0
 13 20  1  0
 14 13  2  0
 15 16  1  0
 17 16  1  0
 17 19  1  0
 17 18  1  1
 19 20  1  6
 19 21  1  0
 21 23  2  0
 21 22  1  0
M  END
$$$$
