LCI.pdb
     RDKit          3D

 23 22  0  0  1  0  0  0  0  0999 V2000
    9.1282  -13.4401   20.3197 C   0  0  0  0  0  0  0  0  0  0  0  0
    8.0066  -13.5730   19.2808 C   0  0  2  0  0  0  0  0  0  0  0  0
    7.4981  -12.1677   19.0381 C   0  0  0  0  0  0  0  0  0  0  0  0
    6.9370  -14.4157   19.9200 C   0  0  0  0  0  0  0  0  0  0  0  0
    7.4559  -15.7629   20.3617 C   0  0  2  0  0  0  0  0  0  0  0  0
    7.1165  -16.8309   19.4748 N   0  0  0  0  0  0  0  0  0  0  0  0
    7.0463  -16.0164   21.7671 C   0  0  0  0  0  0  0  0  0  0  0  0
    6.1488  -15.2802   22.2525 O   0  0  0  0  0  0  0  0  0  0  0  0
    7.5974  -17.0211   22.5790 N   0  0  0  0  0  0  0  0  0  0  0  0
    7.3289  -17.2038   23.9737 C   0  0  1  0  0  0  0  0  0  0  0  0
    7.3842  -18.6894   24.3611 C   0  0  0  0  0  0  0  0  0  0  0  0
    7.1772  -18.8801   26.1515 S   0  0  0  0  0  0  0  0  0  0  0  0
    8.2574  -16.4213   24.8355 C   0  0  0  0  0  0  0  0  0  0  0  0
    9.5000  -16.4581   24.5972 O   0  0  0  0  0  0  0  0  0  0  0  0
    6.4952  -11.8173   26.9822 C   0  0  0  0  0  0  0  0  0  0  0  0
    7.4255  -12.8339   26.3502 C   0  0  0  0  0  0  0  0  0  0  0  0
    8.0616  -13.7150   27.3924 C   0  0  2  0  0  0  0  0  0  0  0  0
    9.0334  -12.8072   28.1614 C   0  0  0  0  0  0  0  0  0  0  0  0
    8.7825  -14.8476   26.7364 C   0  0  2  0  0  0  0  0  0  0  0  0
    7.8319  -15.6306   25.9160 N   0  0  0  0  0  0  0  0  0  0  0  0
    9.3530  -15.8019   27.7050 C   0  0  0  0  0  0  0  0  0  0  0  0
   10.6555  -15.7186   28.1675 O   0  0  0  0  0  0  0  0  0  0  0  0
    8.6720  -16.7563   28.1652 O   0  0  0  0  0  0  0  0  0  0  0  0
  2  1  1  1
  3  2  1  0
  4  2  1  0
  5  4  1  0
  5  6  1  6
  7  8  2  0
  7  5  1  0
  9  7  1  0
 10  9  1  0
 10 11  1  1
 12 11  1  0
 13 10  1  0
 13 20  1  0
 14 13  2  0
 15 16  1  0
 17 16  1  0
 17 19  1  0
 17 18  1  6
 19 20  1  6
 19 21  1  0
 21 23  2  0
 21 22  1  0
M  END
$$$$
