LCI.pdb
     RDKit          3D

 23 22  0  0  1  0  0  0  0  0999 V2000
    7.3810  -12.4072   19.9605 C   0  0  0  0  0  0  0  0  0  0  0  0
    7.8484  -13.7432   20.5536 C   0  0  2  0  0  0  0  0  0  0  0  0
    9.3368  -13.8171   20.2862 C   0  0  0  0  0  0  0  0  0  0  0  0
    7.1237  -14.8194   19.7923 C   0  0  0  0  0  0  0  0  0  0  0  0
    7.4324  -16.2006   20.3180 C   0  0  2  0  0  0  0  0  0  0  0  0
    6.8704  -17.2551   19.5341 N   0  0  0  0  0  0  0  0  0  0  0  0
    7.0636  -16.2790   21.7551 C   0  0  0  0  0  0  0  0  0  0  0  0
    5.8793  -15.9906   22.0675 O   0  0  0  0  0  0  0  0  0  0  0  0
    7.9517  -16.6527   22.7767 N   0  0  0  0  0  0  0  0  0  0  0  0
    7.6167  -16.7846   24.1628 C   0  0  1  0  0  0  0  0  0  0  0  0
    7.2154  -18.2279   24.5034 C   0  0  0  0  0  0  0  0  0  0  0  0
    8.6422  -19.3329   24.3365 S   0  0  0  0  0  0  0  0  0  0  0  0
    8.7227  -16.3427   25.0564 C   0  0  0  0  0  0  0  0  0  0  0  0
    9.9125  -16.3679   24.6252 O   0  0  0  0  0  0  0  0  0  0  0  0
    7.9163  -12.0458   27.9228 C   0  0  0  0  0  0  0  0  0  0  0  0
    8.5699  -13.1509   27.1166 C   0  0  0  0  0  0  0  0  0  0  0  0
    9.1482  -14.2132   28.0135 C   0  0  2  0  0  0  0  0  0  0  0  0
   10.3049  -13.5343   28.7625 C   0  0  0  0  0  0  0  0  0  0  0  0
    9.6345  -15.3658   27.1965 C   0  0  2  0  0  0  0  0  0  0  0  0
    8.5239  -15.8915   26.3718 N   0  0  0  0  0  0  0  0  0  0  0  0
   10.0908  -16.5005   28.0203 C   0  0  0  0  0  0  0  0  0  0  0  0
   11.4146  -16.6851   28.3819 O   0  0  0  0  0  0  0  0  0  0  0  0
    9.2850  -17.3724   28.4409 O   0  0  0  0  0  0  0  0  0  0  0  0
  2  1  1  6
  3  2  1  0
  4  2  1  0
  5  4  1  0
  5  6  1  6
  7  8  2  0
  7  5  1  0
  9  7  1  0
 10  9  1  0
 10 11  1  1
 12 11  1  0
 13 10  1  0
 13 20  1  0
 14 13  2  0
 15 16  1  0
 17 16  1  0
 17 19  1  0
 17 18  1  6
 19 20  1  6
 19 21  1  0
 21 23  2  0
 21 22  1  0
M  END
$$$$
