LCI.pdb
     RDKit          3D

 23 22  0  0  1  0  0  0  0  0999 V2000
    5.7332  -20.5544   26.3509 C   0  0  0  0  0  0  0  0  0  0  0  0
    7.2172  -20.3417   26.6789 C   0  0  2  0  0  0  0  0  0  0  0  0
    7.2648  -19.9327   28.1359 C   0  0  0  0  0  0  0  0  0  0  0  0
    7.6859  -19.2136   25.8010 C   0  0  0  0  0  0  0  0  0  0  0  0
    7.5754  -19.5460   24.3325 C   0  0  2  0  0  0  0  0  0  0  0  0
    8.1705  -20.7958   23.9775 N   0  0  0  0  0  0  0  0  0  0  0  0
    8.0825  -18.4060   23.5258 C   0  0  0  0  0  0  0  0  0  0  0  0
    9.3293  -18.2909   23.4022 O   0  0  0  0  0  0  0  0  0  0  0  0
    7.2588  -17.4572   22.8985 N   0  0  0  0  0  0  0  0  0  0  0  0
    7.7020  -16.2255   22.3177 C   0  0  1  0  0  0  0  0  0  0  0  0
    6.5496  -15.4985   21.6082 C   0  0  0  0  0  0  0  0  0  0  0  0
    7.1631  -14.0093   20.7770 S   0  0  0  0  0  0  0  0  0  0  0  0
    8.3298  -15.3211   23.3203 C   0  0  0  0  0  0  0  0  0  0  0  0
    9.1446  -14.4354   22.9283 O   0  0  0  0  0  0  0  0  0  0  0  0
    5.4058  -12.6301   26.4661 C   0  0  0  0  0  0  0  0  0  0  0  0
    6.6270  -13.0476   25.6706 C   0  0  0  0  0  0  0  0  0  0  0  0
    7.5798  -13.8527   26.5140 C   0  0  2  0  0  0  0  0  0  0  0  0
    8.1534  -12.8661   27.5423 C   0  0  0  0  0  0  0  0  0  0  0  0
    8.6592  -14.4316   25.6582 C   0  0  2  0  0  0  0  0  0  0  0  0
    8.0690  -15.3915   24.6989 N   0  0  0  0  0  0  0  0  0  0  0  0
    9.6529  -15.2001   26.4304 C   0  0  0  0  0  0  0  0  0  0  0  0
   10.7879  -14.6273   26.9792 O   0  0  0  0  0  0  0  0  0  0  0  0
    9.5161  -16.4361   26.6303 O   0  0  0  0  0  0  0  0  0  0  0  0
  2  1  1  6
  3  2  1  0
  4  2  1  0
  5  4  1  0
  5  6  1  1
  7  8  2  0
  7  5  1  0
  9  7  1  0
 10  9  1  0
 10 11  1  1
 12 11  1  0
 13 10  1  0
 13 20  1  0
 14 13  2  0
 15 16  1  0
 17 16  1  0
 17 19  1  0
 17 18  1  1
 19 20  1  6
 19 21  1  0
 21 23  2  0
 21 22  1  0
M  END
$$$$
