LCI.pdb
     RDKit          3D

 23 22  0  0  1  0  0  0  0  0999 V2000
    9.3676  -14.1724   19.5997 C   0  0  0  0  0  0  0  0  0  0  0  0
    8.1173  -13.8083   18.7879 C   0  0  2  0  0  0  0  0  0  0  0  0
    7.8982  -12.3263   19.0070 C   0  0  0  0  0  0  0  0  0  0  0  0
    6.9839  -14.6002   19.3807 C   0  0  0  0  0  0  0  0  0  0  0  0
    7.3981  -16.0035   19.7531 C   0  0  2  0  0  0  0  0  0  0  0  0
    6.9865  -16.9957   18.8106 N   0  0  0  0  0  0  0  0  0  0  0  0
    6.9608  -16.2982   21.1421 C   0  0  0  0  0  0  0  0  0  0  0  0
    5.7301  -16.2213   21.3924 O   0  0  0  0  0  0  0  0  0  0  0  0
    7.8331  -16.6545   22.1834 N   0  0  0  0  0  0  0  0  0  0  0  0
    7.4548  -16.8727   23.5472 C   0  0  1  0  0  0  0  0  0  0  0  0
    7.5613  -18.3583   23.9234 C   0  0  0  0  0  0  0  0  0  0  0  0
    7.0523  -18.6088   25.6447 S   0  0  0  0  0  0  0  0  0  0  0  0
    8.2579  -16.0519   24.4950 C   0  0  0  0  0  0  0  0  0  0  0  0
    9.5212  -16.0831   24.4218 O   0  0  0  0  0  0  0  0  0  0  0  0
    5.7912  -11.7274   26.6816 C   0  0  0  0  0  0  0  0  0  0  0  0
    6.8613  -12.5724   26.0189 C   0  0  0  0  0  0  0  0  0  0  0  0
    7.6417  -13.3625   27.0358 C   0  0  2  0  0  0  0  0  0  0  0  0
    8.4756  -12.3291   27.8081 C   0  0  0  0  0  0  0  0  0  0  0  0
    8.5167  -14.3603   26.3490 C   0  0  2  0  0  0  0  0  0  0  0  0
    7.6902  -15.2303   25.4832 N   0  0  0  0  0  0  0  0  0  0  0  0
    9.1996  -15.2675   27.2897 C   0  0  0  0  0  0  0  0  0  0  0  0
    8.6387  -16.4522   27.7360 O   0  0  0  0  0  0  0  0  0  0  0  0
   10.3451  -15.0034   27.7419 O   0  0  0  0  0  0  0  0  0  0  0  0
  2  1  1  1
  3  2  1  0
  4  2  1  0
  5  4  1  0
  5  6  1  6
  7  8  2  0
  7  5  1  0
  9  7  1  0
 10  9  1  0
 10 11  1  1
 12 11  1  0
 13 10  1  0
 13 20  1  0
 14 13  2  0
 15 16  1  0
 17 16  1  0
 17 19  1  0
 17 18  1  6
 19 20  1  6
 19 21  1  0
 21 23  2  0
 21 22  1  0
M  END
$$$$
