LCI.pdb
     RDKit          3D

 23 22  0  0  1  0  0  0  0  0999 V2000
    9.5250  -14.0701   19.3213 C   0  0  0  0  0  0  0  0  0  0  0  0
    8.0458  -13.8878   18.9554 C   0  0  2  0  0  0  0  0  0  0  0  0
    7.8412  -12.3970   18.7877 C   0  0  0  0  0  0  0  0  0  0  0  0
    7.2549  -14.3979   20.1290 C   0  0  0  0  0  0  0  0  0  0  0  0
    7.4067  -15.8880   20.3186 C   0  0  2  0  0  0  0  0  0  0  0  0
    6.6812  -16.6677   19.3658 N   0  0  0  0  0  0  0  0  0  0  0  0
    7.0932  -16.2438   21.7266 C   0  0  0  0  0  0  0  0  0  0  0  0
    5.9080  -16.0816   22.1168 O   0  0  0  0  0  0  0  0  0  0  0  0
    8.0341  -16.7464   22.6400 N   0  0  0  0  0  0  0  0  0  0  0  0
    7.7862  -17.0193   24.0238 C   0  0  1  0  0  0  0  0  0  0  0  0
    8.0842  -18.4875   24.3635 C   0  0  0  0  0  0  0  0  0  0  0  0
    7.8448  -18.7837   26.1354 S   0  0  0  0  0  0  0  0  0  0  0  0
    8.5631  -16.1238   24.9247 C   0  0  0  0  0  0  0  0  0  0  0  0
    9.7967  -15.9453   24.7042 O   0  0  0  0  0  0  0  0  0  0  0  0
    5.8510  -12.2256   27.5214 C   0  0  0  0  0  0  0  0  0  0  0  0
    6.9603  -12.9123   26.7492 C   0  0  0  0  0  0  0  0  0  0  0  0
    7.8792  -13.6704   27.6701 C   0  0  2  0  0  0  0  0  0  0  0  0
    8.6604  -12.5989   28.4456 C   0  0  0  0  0  0  0  0  0  0  0  0
    8.7975  -14.5415   26.8760 C   0  0  2  0  0  0  0  0  0  0  0  0
    8.0017  -15.4528   26.0239 N   0  0  0  0  0  0  0  0  0  0  0  0
    9.6333  -15.4143   27.7209 C   0  0  0  0  0  0  0  0  0  0  0  0
    9.3204  -16.7384   27.9781 O   0  0  0  0  0  0  0  0  0  0  0  0
   10.6895  -14.9901   28.2602 O   0  0  0  0  0  0  0  0  0  0  0  0
  2  1  1  1
  3  2  1  0
  4  2  1  0
  5  4  1  0
  5  6  1  6
  7  8  2  0
  7  5  1  0
  9  7  1  0
 10  9  1  0
 10 11  1  1
 12 11  1  0
 13 10  1  0
 13 20  1  0
 14 13  2  0
 15 16  1  0
 17 16  1  0
 17 19  1  0
 17 18  1  6
 19 20  1  6
 19 21  1  0
 21 23  2  0
 21 22  1  0
M  END
$$$$
