LCI.pdb
     RDKit          3D

 23 22  0  0  1  0  0  0  0  0999 V2000
    9.3876  -14.0167   19.8778 C   0  0  0  0  0  0  0  0  0  0  0  0
    8.2880  -13.8185   18.8258 C   0  0  2  0  0  0  0  0  0  0  0  0
    7.9549  -12.3417   18.8479 C   0  0  0  0  0  0  0  0  0  0  0  0
    7.1093  -14.6300   19.2894 C   0  0  0  0  0  0  0  0  0  0  0  0
    7.5145  -15.9955   19.7901 C   0  0  2  0  0  0  0  0  0  0  0  0
    7.1568  -17.0625   18.9093 N   0  0  0  0  0  0  0  0  0  0  0  0
    7.0114  -16.1860   21.1750 C   0  0  0  0  0  0  0  0  0  0  0  0
    5.8000  -15.9256   21.3940 O   0  0  0  0  0  0  0  0  0  0  0  0
    7.8019  -16.6358   22.2450 N   0  0  0  0  0  0  0  0  0  0  0  0
    7.3353  -16.8874   23.5754 C   0  0  1  0  0  0  0  0  0  0  0  0
    7.2977  -18.3934   23.8763 C   0  0  0  0  0  0  0  0  0  0  0  0
    6.9611  -18.6746   25.6348 S   0  0  0  0  0  0  0  0  0  0  0  0
    8.1529  -16.1862   24.6035 C   0  0  0  0  0  0  0  0  0  0  0  0
    9.4141  -16.2862   24.5631 O   0  0  0  0  0  0  0  0  0  0  0  0
    5.7077  -12.0741   27.1852 C   0  0  0  0  0  0  0  0  0  0  0  0
    6.7962  -12.8181   26.4368 C   0  0  0  0  0  0  0  0  0  0  0  0
    7.5914  -13.6999   27.3627 C   0  0  2  0  0  0  0  0  0  0  0  0
    8.4460  -12.7439   28.2085 C   0  0  0  0  0  0  0  0  0  0  0  0
    8.4471  -14.6352   26.5716 C   0  0  2  0  0  0  0  0  0  0  0  0
    7.6014  -15.4066   25.6338 N   0  0  0  0  0  0  0  0  0  0  0  0
    9.1282  -15.6381   27.4111 C   0  0  0  0  0  0  0  0  0  0  0  0
   10.4161  -15.4698   27.8912 O   0  0  0  0  0  0  0  0  0  0  0  0
    8.5626  -16.7154   27.7363 O   0  0  0  0  0  0  0  0  0  0  0  0
  2  1  1  1
  3  2  1  0
  4  2  1  0
  5  4  1  0
  5  6  1  6
  7  8  2  0
  7  5  1  0
  9  7  1  0
 10  9  1  0
 10 11  1  1
 12 11  1  0
 13 10  1  0
 13 20  1  0
 14 13  2  0
 15 16  1  0
 17 16  1  0
 17 19  1  0
 17 18  1  1
 19 20  1  6
 19 21  1  0
 21 23  2  0
 21 22  1  0
M  END
$$$$
