LCI.pdb
     RDKit          3D

 23 22  0  0  1  0  0  0  0  0999 V2000
    9.5331  -13.5929   19.0300 C   0  0  0  0  0  0  0  0  0  0  0  0
    8.0078  -13.5639   18.8635 C   0  0  2  0  0  0  0  0  0  0  0  0
    7.6276  -12.1006   18.7829 C   0  0  0  0  0  0  0  0  0  0  0  0
    7.4357  -14.1876   20.1072 C   0  0  0  0  0  0  0  0  0  0  0  0
    7.7375  -15.6640   20.1992 C   0  0  2  0  0  0  0  0  0  0  0  0
    7.0093  -16.4611   19.2629 N   0  0  0  0  0  0  0  0  0  0  0  0
    7.5755  -16.1173   21.6048 C   0  0  0  0  0  0  0  0  0  0  0  0
    6.4037  -16.2123   22.0532 O   0  0  0  0  0  0  0  0  0  0  0  0
    8.6445  -16.4433   22.4552 N   0  0  0  0  0  0  0  0  0  0  0  0
    8.5270  -16.8189   23.8321 C   0  0  1  0  0  0  0  0  0  0  0  0
    9.1083  -18.2194   24.0784 C   0  0  0  0  0  0  0  0  0  0  0  0
   10.8570  -18.2663   23.6047 S   0  0  0  0  0  0  0  0  0  0  0  0
    9.1739  -15.8351   24.7437 C   0  0  0  0  0  0  0  0  0  0  0  0
   10.1572  -15.1577   24.3236 O   0  0  0  0  0  0  0  0  0  0  0  0
    6.2969  -12.4022   27.1790 C   0  0  0  0  0  0  0  0  0  0  0  0
    7.5249  -13.0405   26.5600 C   0  0  0  0  0  0  0  0  0  0  0  0
    8.3443  -13.7658   27.5944 C   0  0  2  0  0  0  0  0  0  0  0  0
    8.9701  -12.6677   28.4675 C   0  0  0  0  0  0  0  0  0  0  0  0
    9.3954  -14.5932   26.9287 C   0  0  2  0  0  0  0  0  0  0  0  0
    8.7529  -15.6083   26.0646 N   0  0  0  0  0  0  0  0  0  0  0  0
   10.2210  -15.3508   27.8872 C   0  0  0  0  0  0  0  0  0  0  0  0
   11.3806  -14.8436   28.4489 O   0  0  0  0  0  0  0  0  0  0  0  0
    9.9070  -16.5165   28.2464 O   0  0  0  0  0  0  0  0  0  0  0  0
  2  1  1  1
  3  2  1  0
  4  2  1  0
  5  4  1  0
  5  6  1  6
  7  8  2  0
  7  5  1  0
  9  7  1  0
 10  9  1  0
 10 11  1  6
 12 11  1  0
 13 10  1  0
 13 20  1  0
 14 13  2  0
 15 16  1  0
 17 16  1  0
 17 19  1  0
 17 18  1  1
 19 20  1  6
 19 21  1  0
 21 23  2  0
 21 22  1  0
M  END
$$$$
