LCI.pdb
     RDKit          3D

 23 22  0  0  1  0  0  0  0  0999 V2000
    9.7445  -13.3251   19.0967 C   0  0  0  0  0  0  0  0  0  0  0  0
    8.2751  -13.6146   18.7617 C   0  0  2  0  0  0  0  0  0  0  0  0
    7.5934  -12.2648   18.6873 C   0  0  0  0  0  0  0  0  0  0  0  0
    7.7300  -14.4158   19.9123 C   0  0  0  0  0  0  0  0  0  0  0  0
    8.3775  -15.7753   20.0222 C   0  0  2  0  0  0  0  0  0  0  0  0
    7.9928  -16.6828   18.9874 N   0  0  0  0  0  0  0  0  0  0  0  0
    8.1619  -16.3191   21.3879 C   0  0  0  0  0  0  0  0  0  0  0  0
    7.0173  -16.7641   21.6620 O   0  0  0  0  0  0  0  0  0  0  0  0
    9.1521  -16.3652   22.3825 N   0  0  0  0  0  0  0  0  0  0  0  0
    8.9564  -16.8054   23.7312 C   0  0  1  0  0  0  0  0  0  0  0  0
    9.6175  -18.1710   23.9723 C   0  0  0  0  0  0  0  0  0  0  0  0
   11.3948  -18.0781   23.6299 S   0  0  0  0  0  0  0  0  0  0  0  0
    9.4575  -15.8179   24.7266 C   0  0  0  0  0  0  0  0  0  0  0  0
   10.5392  -15.2025   24.4954 O   0  0  0  0  0  0  0  0  0  0  0  0
    6.4311  -12.1375   26.6892 C   0  0  0  0  0  0  0  0  0  0  0  0
    7.6735  -12.8944   26.2626 C   0  0  0  0  0  0  0  0  0  0  0  0
    8.2612  -13.6718   27.4104 C   0  0  2  0  0  0  0  0  0  0  0  0
    8.8104  -12.6173   28.3831 C   0  0  0  0  0  0  0  0  0  0  0  0
    9.3472  -14.5721   26.9179 C   0  0  2  0  0  0  0  0  0  0  0  0
    8.7921  -15.5217   25.9279 N   0  0  0  0  0  0  0  0  0  0  0  0
    9.9298  -15.4052   27.9860 C   0  0  0  0  0  0  0  0  0  0  0  0
    9.5618  -16.7229   28.1995 O   0  0  0  0  0  0  0  0  0  0  0  0
   10.8042  -14.9504   28.7702 O   0  0  0  0  0  0  0  0  0  0  0  0
  2  1  1  1
  3  2  1  0
  4  2  1  0
  5  4  1  0
  5  6  1  6
  7  8  2  0
  7  5  1  0
  9  7  1  0
 10  9  1  0
 10 11  1  6
 12 11  1  0
 13 10  1  0
 13 20  1  0
 14 13  2  0
 15 16  1  0
 17 16  1  0
 17 19  1  0
 17 18  1  1
 19 20  1  6
 19 21  1  0
 21 23  2  0
 21 22  1  0
M  END
$$$$
