LCI.pdb
     RDKit          3D

 23 22  0  0  1  0  0  0  0  0999 V2000
    9.3739  -13.6096   19.7091 C   0  0  0  0  0  0  0  0  0  0  0  0
    8.1360  -13.5985   18.8022 C   0  0  2  0  0  0  0  0  0  0  0  0
    7.6836  -12.1551   18.7364 C   0  0  0  0  0  0  0  0  0  0  0  0
    7.0998  -14.4429   19.4923 C   0  0  0  0  0  0  0  0  0  0  0  0
    7.5911  -15.8441   19.7655 C   0  0  2  0  0  0  0  0  0  0  0  0
    7.3107  -16.7692   18.7130 N   0  0  0  0  0  0  0  0  0  0  0  0
    7.0924  -16.2957   21.0902 C   0  0  0  0  0  0  0  0  0  0  0  0
    5.8461  -16.3564   21.2519 O   0  0  0  0  0  0  0  0  0  0  0  0
    7.9234  -16.6558   22.1634 N   0  0  0  0  0  0  0  0  0  0  0  0
    7.4883  -16.9053   23.5048 C   0  0  1  0  0  0  0  0  0  0  0  0
    7.5455  -18.4037   23.8387 C   0  0  0  0  0  0  0  0  0  0  0  0
    7.0870  -18.6797   25.5702 S   0  0  0  0  0  0  0  0  0  0  0  0
    8.2738  -16.1333   24.5069 C   0  0  0  0  0  0  0  0  0  0  0  0
    9.5336  -16.2537   24.5298 O   0  0  0  0  0  0  0  0  0  0  0  0
    6.0276  -11.5860   26.4665 C   0  0  0  0  0  0  0  0  0  0  0  0
    7.0696  -12.5339   25.9062 C   0  0  0  0  0  0  0  0  0  0  0  0
    7.6696  -13.3895   26.9903 C   0  0  2  0  0  0  0  0  0  0  0  0
    8.5170  -12.4356   27.8457 C   0  0  0  0  0  0  0  0  0  0  0  0
    8.5102  -14.4676   26.3871 C   0  0  2  0  0  0  0  0  0  0  0  0
    7.6927  -15.2641   25.4452 N   0  0  0  0  0  0  0  0  0  0  0  0
    9.0155  -15.4272   27.3861 C   0  0  0  0  0  0  0  0  0  0  0  0
    8.2832  -16.5195   27.8198 O   0  0  0  0  0  0  0  0  0  0  0  0
   10.1565  -15.2969   27.9034 O   0  0  0  0  0  0  0  0  0  0  0  0
  2  1  1  1
  3  2  1  0
  4  2  1  0
  5  4  1  0
  5  6  1  6
  7  8  2  0
  7  5  1  0
  9  7  1  0
 10  9  1  0
 10 11  1  1
 12 11  1  0
 13 10  1  0
 13 20  1  0
 14 13  2  0
 15 16  1  0
 17 16  1  0
 17 19  1  0
 17 18  1  1
 19 20  1  6
 19 21  1  0
 21 23  2  0
 21 22  1  0
M  END
$$$$
