EDR.pdb
     RDKit          3D

 29 28  0  0  1  0  0  0  0  0999 V2000
   15.5543  -19.2293   19.1508 N   0  0  0  0  0  0  0  0  0  0  0  0
   15.3468  -17.7648   19.2774 C   0  0  1  0  0  0  0  0  0  0  0  0
   15.2320  -17.1837   17.8944 C   0  0  0  0  0  0  0  0  0  0  0  0
   16.2209  -17.8134   16.9687 C   0  0  0  0  0  0  0  0  0  0  0  0
   16.0852  -17.2481   15.5734 C   0  0  0  0  0  0  0  0  0  0  0  0
   15.0771  -17.4240   14.8567 O   0  0  0  0  0  0  0  0  0  0  0  0
   14.0675  -17.6260   19.9990 C   0  0  0  0  0  0  0  0  0  0  0  0
   13.6391  -16.4667   20.2393 O   0  0  0  0  0  0  0  0  0  0  0  0
   17.1356  -16.5013   15.0771 O   0  0  0  0  0  0  0  0  0  0  0  0
   13.2911  -18.7594   20.4390 N   0  0  0  0  0  0  0  0  0  0  0  0
   12.0892  -18.5018   21.1809 C   0  0  1  0  0  0  0  0  0  0  0  0
   11.2067  -19.7140   21.2360 C   0  0  0  0  0  0  0  0  0  0  0  0
   10.6995  -20.0202   19.8967 C   0  0  0  0  0  0  0  0  0  0  0  0
   10.1422  -19.1422   19.1597 O   0  0  0  0  0  0  0  0  0  0  0  0
   12.4082  -18.1414   22.5999 C   0  0  0  0  0  0  0  0  0  0  0  0
   13.4756  -18.4077   23.1665 O   0  0  0  0  0  0  0  0  0  0  0  0
   10.8111  -21.2936   19.3837 O   0  0  0  0  0  0  0  0  0  0  0  0
   10.3172  -13.0225   27.9926 N   0  0  0  0  0  0  0  0  0  0  0  0
   10.0226  -13.9847   28.9930 C   0  0  0  0  0  0  0  0  0  0  0  0
   10.4001  -13.7775   30.2091 N   0  0  0  0  0  0  0  0  0  0  0  0
    9.3121  -15.1544   28.6016 N   0  0  0  0  0  0  0  0  0  0  0  0
    9.1898  -15.4240   27.1713 C   0  0  0  0  0  0  0  0  0  0  0  0
   10.4191  -16.1903   26.7055 C   0  0  0  0  0  0  0  0  0  0  0  0
   10.2729  -16.5297   25.2432 C   0  0  0  0  0  0  0  0  0  0  0  0
   11.5096  -17.2338   24.7650 C   0  0  2  0  0  0  0  0  0  0  0  0
   11.4079  -17.4453   23.3350 N   0  0  0  0  0  0  0  0  0  0  0  0
   11.6738  -18.5492   25.4334 C   0  0  0  0  0  0  0  0  0  0  0  0
   10.9249  -19.5364   25.1984 O   0  0  0  0  0  0  0  0  0  0  0  0
   12.6878  -18.7506   26.3710 O   0  0  0  0  0  0  0  0  0  0  0  0
  2  1  1  6
  2  7  1  0
  3  2  1  0
  3  4  1  0
  4  5  1  0
  5  6  2  0
  7  8  2  0
  9  5  1  0
 10  7  1  0
 10 11  1  0
 11 15  1  0
 12 13  1  0
 11 12  1  1
 13 17  1  0
 14 13  2  0
 15 26  1  0
 15 16  2  0
 19 18  1  0
 19 21  1  0
 20 19  2  0
 22 21  1  0
 23 22  1  0
 23 24  1  0
 25 24  1  1
 25 27  1  0
 26 25  1  0
 27 29  1  0
 28 27  2  0
M  END
$$$$
