EDR.pdb
     RDKit          3D

 29 28  0  0  1  0  0  0  0  0999 V2000
   10.4937  -17.0622   18.0051 N   0  0  0  0  0  0  0  0  0  0  0  0
   11.3826  -18.2193   18.2783 C   0  0  1  0  0  0  0  0  0  0  0  0
   12.0240  -18.6371   16.9830 C   0  0  0  0  0  0  0  0  0  0  0  0
   12.4378  -17.4442   16.1848 C   0  0  0  0  0  0  0  0  0  0  0  0
   11.8045  -17.4709   14.8126 C   0  0  0  0  0  0  0  0  0  0  0  0
   10.8793  -18.2496   14.4986 O   0  0  0  0  0  0  0  0  0  0  0  0
   12.4016  -17.7005   19.2104 C   0  0  0  0  0  0  0  0  0  0  0  0
   13.2649  -18.5001   19.6584 O   0  0  0  0  0  0  0  0  0  0  0  0
   12.2815  -16.5847   13.8668 O   0  0  0  0  0  0  0  0  0  0  0  0
   12.4489  -16.3206   19.6280 N   0  0  0  0  0  0  0  0  0  0  0  0
   13.3998  -15.9584   20.6409 C   0  0  1  0  0  0  0  0  0  0  0  0
   14.0981  -14.6735   20.3053 C   0  0  0  0  0  0  0  0  0  0  0  0
   15.0539  -14.8970   19.2183 C   0  0  0  0  0  0  0  0  0  0  0  0
   15.8055  -15.9253   19.1700 O   0  0  0  0  0  0  0  0  0  0  0  0
   12.7169  -15.7418   21.9570 C   0  0  0  0  0  0  0  0  0  0  0  0
   13.2749  -15.3047   22.9713 O   0  0  0  0  0  0  0  0  0  0  0  0
   15.1718  -13.9824   18.1952 O   0  0  0  0  0  0  0  0  0  0  0  0
    8.0990  -14.5608   18.8383 N   0  0  0  0  0  0  0  0  0  0  0  0
    8.0637  -13.2000   19.2389 C   0  0  0  0  0  0  0  0  0  0  0  0
    8.3344  -12.2748   18.3817 N   0  0  0  0  0  0  0  0  0  0  0  0
    7.7259  -12.9139   20.5918 N   0  0  0  0  0  0  0  0  0  0  0  0
    7.7109  -14.0291   21.5350 C   0  0  0  0  0  0  0  0  0  0  0  0
    9.1342  -14.3051   21.9972 C   0  0  0  0  0  0  0  0  0  0  0  0
    9.1466  -15.5328   22.8733 C   0  0  0  0  0  0  0  0  0  0  0  0
   10.5616  -15.8708   23.2441 C   0  0  2  0  0  0  0  0  0  0  0  0
   11.3326  -16.0637   22.0324 N   0  0  0  0  0  0  0  0  0  0  0  0
   10.6245  -17.1129   24.0548 C   0  0  0  0  0  0  0  0  0  0  0  0
   10.9417  -18.2333   23.5702 O   0  0  0  0  0  0  0  0  0  0  0  0
   10.3282  -17.0897   25.4185 O   0  0  0  0  0  0  0  0  0  0  0  0
  2  1  1  6
  2  7  1  0
  3  2  1  0
  3  4  1  0
  4  5  1  0
  5  6  2  0
  7  8  2  0
  9  5  1  0
 10  7  1  0
 10 11  1  0
 11 15  1  0
 12 13  1  0
 11 12  1  6
 13 17  1  0
 14 13  2  0
 15 26  1  0
 15 16  2  0
 19 18  1  0
 19 21  1  0
 20 19  2  0
 22 21  1  0
 23 22  1  0
 23 24  1  0
 25 24  1  6
 25 27  1  0
 26 25  1  0
 27 29  1  0
 28 27  2  0
M  END
$$$$
