EDR.pdb
     RDKit          3D

 29 28  0  0  1  0  0  0  0  0999 V2000
   13.0019  -19.8770   16.3112 N   0  0  0  0  0  0  0  0  0  0  0  0
   13.1570  -18.4028   16.2301 C   0  0  1  0  0  0  0  0  0  0  0  0
   13.0023  -17.9911   14.7913 C   0  0  0  0  0  0  0  0  0  0  0  0
   11.7842  -18.6108   14.1883 C   0  0  0  0  0  0  0  0  0  0  0  0
   11.5949  -18.1451   12.7628 C   0  0  0  0  0  0  0  0  0  0  0  0
   12.3621  -17.3375   12.1970 O   0  0  0  0  0  0  0  0  0  0  0  0
   12.0488  -17.8617   17.0396 C   0  0  0  0  0  0  0  0  0  0  0  0
   11.9655  -16.6133   17.1812 O   0  0  0  0  0  0  0  0  0  0  0  0
   10.5156  -18.6448   12.0609 O   0  0  0  0  0  0  0  0  0  0  0  0
   11.0612  -18.7008   17.6732 N   0  0  0  0  0  0  0  0  0  0  0  0
    9.9981  -18.0588   18.3937 C   0  0  1  0  0  0  0  0  0  0  0  0
    8.7589  -18.9044   18.4144 C   0  0  0  0  0  0  0  0  0  0  0  0
    8.0590  -18.7914   17.1328 C   0  0  0  0  0  0  0  0  0  0  0  0
    8.3043  -17.8579   16.3004 O   0  0  0  0  0  0  0  0  0  0  0  0
   10.3856  -17.8346   19.8236 C   0  0  0  0  0  0  0  0  0  0  0  0
    9.5975  -17.5054   20.7189 O   0  0  0  0  0  0  0  0  0  0  0  0
    7.0938  -19.7095   16.7827 O   0  0  0  0  0  0  0  0  0  0  0  0
   11.1715  -22.0991   26.6328 N   0  0  0  0  0  0  0  0  0  0  0  0
   12.5069  -21.7898   26.2662 C   0  0  0  0  0  0  0  0  0  0  0  0
   13.4657  -22.0113   27.1003 N   0  0  0  0  0  0  0  0  0  0  0  0
   12.7306  -21.2393   24.9727 N   0  0  0  0  0  0  0  0  0  0  0  0
   11.6322  -20.5029   24.3524 C   0  0  0  0  0  0  0  0  0  0  0  0
   12.1943  -19.2770   23.6476 C   0  0  0  0  0  0  0  0  0  0  0  0
   11.7118  -19.2561   22.2187 C   0  0  0  0  0  0  0  0  0  0  0  0
   12.2164  -18.0177   21.5364 C   0  0  2  0  0  0  0  0  0  0  0  0
   11.7560  -18.0163   20.1624 N   0  0  0  0  0  0  0  0  0  0  0  0
   13.7000  -17.9639   21.5446 C   0  0  0  0  0  0  0  0  0  0  0  0
   14.4012  -18.2124   20.5261 O   0  0  0  0  0  0  0  0  0  0  0  0
   14.3946  -17.6280   22.7077 O   0  0  0  0  0  0  0  0  0  0  0  0
  2  1  1  6
  2  7  1  0
  3  2  1  0
  3  4  1  0
  4  5  1  0
  5  6  2  0
  7  8  2  0
  9  5  1  0
 10  7  1  0
 10 11  1  0
 11 15  1  0
 12 13  1  0
 11 12  1  1
 13 17  1  0
 14 13  2  0
 15 26  1  0
 15 16  2  0
 19 18  1  0
 19 21  1  0
 20 19  2  0
 22 21  1  0
 23 22  1  0
 23 24  1  0
 25 24  1  6
 25 27  1  0
 26 25  1  0
 27 29  1  0
 28 27  2  0
M  END
$$$$
