EDR.pdb
     RDKit          3D

 29 28  0  0  1  0  0  0  0  0999 V2000
   12.3272  -14.1987   17.8277 N   0  0  0  0  0  0  0  0  0  0  0  0
   12.8893  -15.5267   18.1803 C   0  0  1  0  0  0  0  0  0  0  0  0
   14.3094  -15.3312   18.6371 C   0  0  0  0  0  0  0  0  0  0  0  0
   14.8226  -13.9914   18.2214 C   0  0  0  0  0  0  0  0  0  0  0  0
   16.3325  -13.9527   18.2821 C   0  0  0  0  0  0  0  0  0  0  0  0
   17.0504  -14.9682   18.1633 O   0  0  0  0  0  0  0  0  0  0  0  0
   12.0533  -16.0057   19.2974 C   0  0  0  0  0  0  0  0  0  0  0  0
   11.3368  -15.1705   19.9092 O   0  0  0  0  0  0  0  0  0  0  0  0
   16.9370  -12.7267   18.4792 O   0  0  0  0  0  0  0  0  0  0  0  0
   12.0239  -17.3858   19.7160 N   0  0  0  0  0  0  0  0  0  0  0  0
   11.1466  -17.7408   20.7958 C   0  0  1  0  0  0  0  0  0  0  0  0
   10.8153  -19.2040   20.7767 C   0  0  0  0  0  0  0  0  0  0  0  0
    9.8708  -19.5134   21.8524 C   0  0  0  0  0  0  0  0  0  0  0  0
   10.2457  -19.9803   22.9776 O   0  0  0  0  0  0  0  0  0  0  0  0
   11.7954  -17.4675   22.1185 C   0  0  0  0  0  0  0  0  0  0  0  0
   13.0020  -17.6149   22.3499 O   0  0  0  0  0  0  0  0  0  0  0  0
    8.5207  -19.3055   21.6754 O   0  0  0  0  0  0  0  0  0  0  0  0
    9.1898  -14.4784   30.1847 N   0  0  0  0  0  0  0  0  0  0  0  0
   10.5289  -14.3857   29.7248 C   0  0  0  0  0  0  0  0  0  0  0  0
   11.4982  -14.7105   30.5118 N   0  0  0  0  0  0  0  0  0  0  0  0
   10.7446  -13.9303   28.3936 N   0  0  0  0  0  0  0  0  0  0  0  0
   10.0337  -14.6198   27.3199 C   0  0  0  0  0  0  0  0  0  0  0  0
   10.9986  -15.5590   26.6112 C   0  0  0  0  0  0  0  0  0  0  0  0
   10.4911  -15.8409   25.2192 C   0  0  0  0  0  0  0  0  0  0  0  0
   11.4693  -16.7212   24.4967 C   0  0  2  0  0  0  0  0  0  0  0  0
   10.9563  -17.0069   23.1719 N   0  0  0  0  0  0  0  0  0  0  0  0
   11.6756  -18.0028   25.2172 C   0  0  0  0  0  0  0  0  0  0  0  0
   10.8797  -18.9769   25.1262 O   0  0  0  0  0  0  0  0  0  0  0  0
   12.7855  -18.1851   26.0436 O   0  0  0  0  0  0  0  0  0  0  0  0
  2  1  1  1
  2  7  1  0
  3  2  1  0
  3  4  1  0
  4  5  1  0
  5  6  2  0
  7  8  2  0
  9  5  1  0
 10  7  1  0
 10 11  1  0
 11 15  1  0
 12 13  1  0
 11 12  1  1
 13 17  1  0
 14 13  2  0
 15 26  1  0
 15 16  2  0
 19 18  1  0
 19 21  1  0
 20 19  2  0
 22 21  1  0
 23 22  1  0
 23 24  1  0
 25 24  1  1
 25 27  1  0
 26 25  1  0
 27 29  1  0
 28 27  2  0
M  END
$$$$
