EDR.pdb
     RDKit          3D

 29 28  0  0  1  0  0  0  0  0999 V2000
   10.5296  -15.0138   16.4997 N   0  0  0  0  0  0  0  0  0  0  0  0
   10.6887  -16.4473   16.8509 C   0  0  1  0  0  0  0  0  0  0  0  0
   11.3591  -17.1435   15.6979 C   0  0  0  0  0  0  0  0  0  0  0  0
   10.6185  -16.8974   14.4242 C   0  0  0  0  0  0  0  0  0  0  0  0
   11.2687  -17.6328   13.2747 C   0  0  0  0  0  0  0  0  0  0  0  0
   11.5755  -18.8431   13.3200 O   0  0  0  0  0  0  0  0  0  0  0  0
   11.5705  -16.4504   18.0336 C   0  0  0  0  0  0  0  0  0  0  0  0
   11.7971  -17.5478   18.6079 O   0  0  0  0  0  0  0  0  0  0  0  0
   11.5318  -16.9198   12.1216 O   0  0  0  0  0  0  0  0  0  0  0  0
   12.1808  -15.2527   18.5570 N   0  0  0  0  0  0  0  0  0  0  0  0
   12.9333  -15.3603   19.7750 C   0  0  1  0  0  0  0  0  0  0  0  0
   14.0935  -14.4091   19.7904 C   0  0  0  0  0  0  0  0  0  0  0  0
   15.0107  -14.7268   18.6937 C   0  0  0  0  0  0  0  0  0  0  0  0
   15.5273  -15.8829   18.5482 O   0  0  0  0  0  0  0  0  0  0  0  0
   12.0813  -15.0133   20.9577 C   0  0  0  0  0  0  0  0  0  0  0  0
   11.8763  -13.8607   21.3585 O   0  0  0  0  0  0  0  0  0  0  0  0
   15.3501  -13.7647   17.7683 O   0  0  0  0  0  0  0  0  0  0  0  0
    8.4500  -11.9624   20.5631 N   0  0  0  0  0  0  0  0  0  0  0  0
    8.1650  -12.8413   19.4862 C   0  0  0  0  0  0  0  0  0  0  0  0
    8.3403  -12.4417   18.2722 N   0  0  0  0  0  0  0  0  0  0  0  0
    7.6901  -14.1458   19.8008 N   0  0  0  0  0  0  0  0  0  0  0  0
    7.9282  -14.6439   21.1530 C   0  0  0  0  0  0  0  0  0  0  0  0
    8.8904  -15.8207   21.0844 C   0  0  0  0  0  0  0  0  0  0  0  0
    9.2233  -16.2773   22.4828 C   0  0  0  0  0  0  0  0  0  0  0  0
   10.6307  -15.8780   22.8198 C   0  0  2  0  0  0  0  0  0  0  0  0
   11.4715  -16.0914   21.6590 N   0  0  0  0  0  0  0  0  0  0  0  0
   11.1627  -16.6797   23.9504 C   0  0  0  0  0  0  0  0  0  0  0  0
   12.0134  -17.5985   23.7996 O   0  0  0  0  0  0  0  0  0  0  0  0
   10.7322  -16.4428   25.2568 O   0  0  0  0  0  0  0  0  0  0  0  0
  2  1  1  6
  2  7  1  0
  3  2  1  0
  3  4  1  0
  4  5  1  0
  5  6  2  0
  7  8  2  0
  9  5  1  0
 10  7  1  0
 10 11  1  0
 11 15  1  0
 12 13  1  0
 11 12  1  6
 13 17  1  0
 14 13  2  0
 15 26  1  0
 15 16  2  0
 19 18  1  0
 19 21  1  0
 20 19  2  0
 22 21  1  0
 23 22  1  0
 23 24  1  0
 25 24  1  6
 25 27  1  0
 26 25  1  0
 27 29  1  0
 28 27  2  0
M  END
$$$$
