EDR.pdb
     RDKit          3D

 29 28  0  0  1  0  0  0  0  0999 V2000
    9.8257  -17.0324   15.0373 N   0  0  0  0  0  0  0  0  0  0  0  0
    9.6809  -18.2637   15.8539 C   0  0  1  0  0  0  0  0  0  0  0  0
   10.8791  -19.1386   15.6040 C   0  0  0  0  0  0  0  0  0  0  0  0
   12.1463  -18.3634   15.7609 C   0  0  0  0  0  0  0  0  0  0  0  0
   13.3493  -19.2496   15.5322 C   0  0  0  0  0  0  0  0  0  0  0  0
   13.8633  -19.9534   16.4273 O   0  0  0  0  0  0  0  0  0  0  0  0
    9.6744  -17.7911   17.2514 C   0  0  0  0  0  0  0  0  0  0  0  0
   10.1088  -16.6344   17.4936 O   0  0  0  0  0  0  0  0  0  0  0  0
   13.8987  -19.2737   14.2654 O   0  0  0  0  0  0  0  0  0  0  0  0
    9.1932  -18.5967   18.3469 N   0  0  0  0  0  0  0  0  0  0  0  0
    9.2369  -18.0306   19.6657 C   0  0  1  0  0  0  0  0  0  0  0  0
    8.4476  -18.8513   20.6427 C   0  0  0  0  0  0  0  0  0  0  0  0
    7.0344  -18.8578   20.2582 C   0  0  0  0  0  0  0  0  0  0  0  0
    6.5979  -18.2132   19.2491 O   0  0  0  0  0  0  0  0  0  0  0  0
   10.6436  -17.9910   20.1801 C   0  0  0  0  0  0  0  0  0  0  0  0
   11.4030  -18.9673   20.2169 O   0  0  0  0  0  0  0  0  0  0  0  0
    6.1159  -19.5751   20.9924 O   0  0  0  0  0  0  0  0  0  0  0  0
   18.6004  -12.6168   20.2522 N   0  0  0  0  0  0  0  0  0  0  0  0
   17.3108  -12.9050   19.7350 C   0  0  0  0  0  0  0  0  0  0  0  0
   16.8705  -12.2488   18.7153 N   0  0  0  0  0  0  0  0  0  0  0  0
   16.5492  -13.9220   20.3768 N   0  0  0  0  0  0  0  0  0  0  0  0
   15.1750  -14.1240   19.9248 C   0  0  0  0  0  0  0  0  0  0  0  0
   14.5486  -15.2500   20.7342 C   0  0  0  0  0  0  0  0  0  0  0  0
   13.1164  -15.4406   20.3016 C   0  0  0  0  0  0  0  0  0  0  0  0
   12.4980  -16.5585   21.0900 C   0  0  2  0  0  0  0  0  0  0  0  0
   11.1277  -16.7397   20.6551 N   0  0  0  0  0  0  0  0  0  0  0  0
   12.5036  -16.2600   22.5443 C   0  0  0  0  0  0  0  0  0  0  0  0
   11.4883  -15.8375   23.1619 O   0  0  0  0  0  0  0  0  0  0  0  0
   13.6604  -16.4396   23.3043 O   0  0  0  0  0  0  0  0  0  0  0  0
  2  1  1  6
  2  7  1  0
  3  2  1  0
  3  4  1  0
  4  5  1  0
  5  6  2  0
  7  8  2  0
  9  5  1  0
 10  7  1  0
 10 11  1  0
 11 15  1  0
 12 13  1  0
 11 12  1  1
 13 17  1  0
 14 13  2  0
 15 26  1  0
 15 16  2  0
 19 18  1  0
 19 21  1  0
 20 19  2  0
 22 21  1  0
 23 22  1  0
 23 24  1  0
 25 24  1  6
 25 27  1  0
 26 25  1  0
 27 29  1  0
 28 27  2  0
M  END
$$$$
