EDR.pdb
     RDKit          3D

 29 28  0  0  1  0  0  0  0  0999 V2000
   12.8051  -16.6511   16.6587 N   0  0  0  0  0  0  0  0  0  0  0  0
   13.6913  -17.3673   17.6102 C   0  0  1  0  0  0  0  0  0  0  0  0
   14.8566  -16.4724   17.9339 C   0  0  0  0  0  0  0  0  0  0  0  0
   14.3926  -15.0885   18.2518 C   0  0  0  0  0  0  0  0  0  0  0  0
   15.5681  -14.1770   18.5206 C   0  0  0  0  0  0  0  0  0  0  0  0
   16.6121  -14.1827   17.8343 O   0  0  0  0  0  0  0  0  0  0  0  0
   12.8612  -17.5816   18.8108 C   0  0  0  0  0  0  0  0  0  0  0  0
   11.7087  -17.0752   18.8393 O   0  0  0  0  0  0  0  0  0  0  0  0
   15.4710  -13.2980   19.5814 O   0  0  0  0  0  0  0  0  0  0  0  0
   13.3140  -18.3438   19.9486 N   0  0  0  0  0  0  0  0  0  0  0  0
   12.3814  -18.5749   21.0155 C   0  0  1  0  0  0  0  0  0  0  0  0
   12.8328  -19.6935   21.9077 C   0  0  0  0  0  0  0  0  0  0  0  0
   12.6822  -20.9742   21.2133 C   0  0  0  0  0  0  0  0  0  0  0  0
   11.7649  -21.1812   20.3529 O   0  0  0  0  0  0  0  0  0  0  0  0
   12.2567  -17.3602   21.8840 C   0  0  0  0  0  0  0  0  0  0  0  0
   13.1884  -16.8617   22.5278 O   0  0  0  0  0  0  0  0  0  0  0  0
   13.5452  -22.0150   21.4762 O   0  0  0  0  0  0  0  0  0  0  0  0
    8.0588  -14.7187   18.7794 N   0  0  0  0  0  0  0  0  0  0  0  0
    7.9996  -13.3280   19.0545 C   0  0  0  0  0  0  0  0  0  0  0  0
    8.1703  -12.4799   18.0975 N   0  0  0  0  0  0  0  0  0  0  0  0
    7.7506  -12.9258   20.3971 N   0  0  0  0  0  0  0  0  0  0  0  0
    7.7525  -13.9638   21.4248 C   0  0  0  0  0  0  0  0  0  0  0  0
    9.1911  -14.3516   21.7335 C   0  0  0  0  0  0  0  0  0  0  0  0
    9.2067  -15.3772   22.8393 C   0  0  0  0  0  0  0  0  0  0  0  0
   10.6109  -15.8631   23.0539 C   0  0  2  0  0  0  0  0  0  0  0  0
   10.9747  -16.7472   21.9650 N   0  0  0  0  0  0  0  0  0  0  0  0
   10.7354  -16.6038   24.3345 C   0  0  0  0  0  0  0  0  0  0  0  0
   11.2617  -16.1057   25.3668 O   0  0  0  0  0  0  0  0  0  0  0  0
   10.2635  -17.9122   24.4498 O   0  0  0  0  0  0  0  0  0  0  0  0
  2  1  1  6
  2  7  1  0
  3  2  1  0
  3  4  1  0
  4  5  1  0
  5  6  2  0
  7  8  2  0
  9  5  1  0
 10  7  1  0
 10 11  1  0
 11 15  1  0
 12 13  1  0
 11 12  1  1
 13 17  1  0
 14 13  2  0
 15 26  1  0
 15 16  2  0
 19 18  1  0
 19 21  1  0
 20 19  2  0
 22 21  1  0
 23 22  1  0
 23 24  1  0
 25 24  1  6
 25 27  1  0
 26 25  1  0
 27 29  1  0
 28 27  2  0
M  END
$$$$
