EDR.pdb
     RDKit          3D

 29 28  0  0  1  0  0  0  0  0999 V2000
   10.2920  -21.6976   23.7574 N   0  0  0  0  0  0  0  0  0  0  0  0
    9.0513  -21.0676   23.2402 C   0  0  1  0  0  0  0  0  0  0  0  0
    8.2711  -20.5329   24.4103 C   0  0  0  0  0  0  0  0  0  0  0  0
    9.1404  -20.4118   25.6190 C   0  0  0  0  0  0  0  0  0  0  0  0
    8.3814  -20.8007   26.8670 C   0  0  0  0  0  0  0  0  0  0  0  0
    7.1874  -21.1684   26.8575 O   0  0  0  0  0  0  0  0  0  0  0  0
    9.5186  -19.9588   22.3866 C   0  0  0  0  0  0  0  0  0  0  0  0
   10.7519  -19.7070   22.3552 O   0  0  0  0  0  0  0  0  0  0  0  0
    9.0528  -20.7424   28.0724 O   0  0  0  0  0  0  0  0  0  0  0  0
    8.6242  -19.1545   21.5904 N   0  0  0  0  0  0  0  0  0  0  0  0
    9.1999  -18.1410   20.7521 C   0  0  1  0  0  0  0  0  0  0  0  0
    8.2372  -17.6917   19.6926 C   0  0  0  0  0  0  0  0  0  0  0  0
    7.9914  -18.7847   18.7492 C   0  0  0  0  0  0  0  0  0  0  0  0
    7.2577  -19.7857   19.0393 O   0  0  0  0  0  0  0  0  0  0  0  0
    9.5501  -16.9247   21.5540 C   0  0  0  0  0  0  0  0  0  0  0  0
   10.0817  -15.9088   21.0885 O   0  0  0  0  0  0  0  0  0  0  0  0
    8.5589  -18.7628   17.4943 O   0  0  0  0  0  0  0  0  0  0  0  0
    6.2306  -10.0356   26.7254 N   0  0  0  0  0  0  0  0  0  0  0  0
    6.1263  -11.4305   26.4874 C   0  0  0  0  0  0  0  0  0  0  0  0
    5.0285  -12.0462   26.7702 N   0  0  0  0  0  0  0  0  0  0  0  0
    7.2576  -12.0977   25.9386 N   0  0  0  0  0  0  0  0  0  0  0  0
    7.1540  -13.5388   25.7239 C   0  0  0  0  0  0  0  0  0  0  0  0
    8.4698  -14.0502   25.1561 C   0  0  0  0  0  0  0  0  0  0  0  0
    8.2148  -15.2975   24.3473 C   0  0  0  0  0  0  0  0  0  0  0  0
    9.5152  -15.8250   23.8142 C   0  0  2  0  0  0  0  0  0  0  0  0
    9.2450  -16.9517   22.9439 N   0  0  0  0  0  0  0  0  0  0  0  0
   10.4071  -16.2720   24.9136 C   0  0  0  0  0  0  0  0  0  0  0  0
   10.3838  -17.4423   25.3833 O   0  0  0  0  0  0  0  0  0  0  0  0
   11.3294  -15.3938   25.4849 O   0  0  0  0  0  0  0  0  0  0  0  0
  2  1  1  1
  2  7  1  0
  3  2  1  0
  3  4  1  0
  4  5  1  0
  5  6  2  0
  7  8  2  0
  9  5  1  0
 10  7  1  0
 10 11  1  0
 11 15  1  0
 12 13  1  0
 11 12  1  6
 13 17  1  0
 14 13  2  0
 15 26  1  0
 15 16  2  0
 19 18  1  0
 19 21  1  0
 20 19  2  0
 22 21  1  0
 23 22  1  0
 23 24  1  0
 25 24  1  1
 25 27  1  0
 26 25  1  0
 27 29  1  0
 28 27  2  0
M  END
$$$$
