EDR.pdb
     RDKit          3D

 29 28  0  0  1  0  0  0  0  0999 V2000
    9.8211  -16.0089   17.5907 N   0  0  0  0  0  0  0  0  0  0  0  0
   10.5466  -17.3029   17.6456 C   0  0  1  0  0  0  0  0  0  0  0  0
   11.0804  -17.6026   16.2713 C   0  0  0  0  0  0  0  0  0  0  0  0
   10.5544  -16.6258   15.2712 C   0  0  0  0  0  0  0  0  0  0  0  0
   11.1358  -16.8940   13.9019 C   0  0  0  0  0  0  0  0  0  0  0  0
   11.6109  -17.9984   13.5623 O   0  0  0  0  0  0  0  0  0  0  0  0
   11.6581  -17.0725   18.5878 C   0  0  0  0  0  0  0  0  0  0  0  0
   12.3996  -18.0451   18.8873 O   0  0  0  0  0  0  0  0  0  0  0  0
   11.1362  -15.8576   12.9891 O   0  0  0  0  0  0  0  0  0  0  0  0
   11.9287  -15.7843   19.1778 N   0  0  0  0  0  0  0  0  0  0  0  0
   13.0241  -15.6859   20.1008 C   0  0  1  0  0  0  0  0  0  0  0  0
   13.8663  -14.4746   19.8273 C   0  0  0  0  0  0  0  0  0  0  0  0
   14.7283  -14.7204   18.6691 C   0  0  0  0  0  0  0  0  0  0  0  0
   15.1893  -15.8763   18.3934 O   0  0  0  0  0  0  0  0  0  0  0  0
   12.5232  -15.5489   21.5063 C   0  0  0  0  0  0  0  0  0  0  0  0
   13.2490  -15.5190   22.5080 O   0  0  0  0  0  0  0  0  0  0  0  0
   15.0744  -13.6873   17.8265 O   0  0  0  0  0  0  0  0  0  0  0  0
    8.2337  -11.7871   19.9840 N   0  0  0  0  0  0  0  0  0  0  0  0
    8.2524  -13.0229   19.2870 C   0  0  0  0  0  0  0  0  0  0  0  0
    8.6219  -13.0536   18.0514 N   0  0  0  0  0  0  0  0  0  0  0  0
    7.8552  -14.1918   19.9956 N   0  0  0  0  0  0  0  0  0  0  0  0
    7.4737  -14.0358   21.3969 C   0  0  0  0  0  0  0  0  0  0  0  0
    8.7335  -13.9501   22.2459 C   0  0  0  0  0  0  0  0  0  0  0  0
    9.0205  -15.3005   22.8534 C   0  0  0  0  0  0  0  0  0  0  0  0
   10.5036  -15.4797   23.0014 C   0  0  2  0  0  0  0  0  0  0  0  0
   11.1153  -15.4464   21.6882 N   0  0  0  0  0  0  0  0  0  0  0  0
   10.8282  -16.7759   23.6484 C   0  0  0  0  0  0  0  0  0  0  0  0
   10.9435  -17.8543   23.0045 O   0  0  0  0  0  0  0  0  0  0  0  0
   11.0235  -16.8547   25.0281 O   0  0  0  0  0  0  0  0  0  0  0  0
  2  1  1  6
  2  7  1  0
  3  2  1  0
  3  4  1  0
  4  5  1  0
  5  6  2  0
  7  8  2  0
  9  5  1  0
 10  7  1  0
 10 11  1  0
 11 15  1  0
 12 13  1  0
 11 12  1  6
 13 17  1  0
 14 13  2  0
 15 26  1  0
 15 16  2  0
 19 18  1  0
 19 21  1  0
 20 19  2  0
 22 21  1  0
 23 22  1  0
 23 24  1  0
 25 24  1  6
 25 27  1  0
 26 25  1  0
 27 29  1  0
 28 27  2  0
M  END
$$$$
