EDR.pdb
     RDKit          3D

 29 28  0  0  1  0  0  0  0  0999 V2000
   10.5025  -21.1727   21.0831 N   0  0  0  0  0  0  0  0  0  0  0  0
   11.9055  -21.6551   21.0333 C   0  0  1  0  0  0  0  0  0  0  0  0
   12.4543  -21.3675   19.6622 C   0  0  0  0  0  0  0  0  0  0  0  0
   12.7504  -19.9122   19.5019 C   0  0  0  0  0  0  0  0  0  0  0  0
   13.2850  -19.6227   18.1179 C   0  0  0  0  0  0  0  0  0  0  0  0
   12.5972  -19.1096   17.2099 O   0  0  0  0  0  0  0  0  0  0  0  0
   12.6163  -20.8538   22.0478 C   0  0  0  0  0  0  0  0  0  0  0  0
   13.6199  -21.3606   22.6146 O   0  0  0  0  0  0  0  0  0  0  0  0
   14.6019  -19.9464   17.8565 O   0  0  0  0  0  0  0  0  0  0  0  0
   12.2099  -19.5195   22.4156 N   0  0  0  0  0  0  0  0  0  0  0  0
   13.0036  -18.8201   23.3862 C   0  0  1  0  0  0  0  0  0  0  0  0
   13.1825  -17.3777   23.0139 C   0  0  0  0  0  0  0  0  0  0  0  0
   14.2387  -16.7804   23.8341 C   0  0  0  0  0  0  0  0  0  0  0  0
   14.8769  -17.4439   24.7156 O   0  0  0  0  0  0  0  0  0  0  0  0
   12.3363  -18.8349   24.7277 C   0  0  0  0  0  0  0  0  0  0  0  0
   11.1641  -18.4942   24.9300 O   0  0  0  0  0  0  0  0  0  0  0  0
   14.5798  -15.4556   23.6741 O   0  0  0  0  0  0  0  0  0  0  0  0
   15.5095  -21.7883   32.6166 N   0  0  0  0  0  0  0  0  0  0  0  0
   14.1875  -22.2705   32.4348 C   0  0  0  0  0  0  0  0  0  0  0  0
   13.7730  -23.2752   33.1299 N   0  0  0  0  0  0  0  0  0  0  0  0
   13.3656  -21.6123   31.4770 N   0  0  0  0  0  0  0  0  0  0  0  0
   13.9966  -21.1667   30.2374 C   0  0  0  0  0  0  0  0  0  0  0  0
   12.9306  -20.5837   29.3214 C   0  0  0  0  0  0  0  0  0  0  0  0
   13.5696  -20.1376   28.0301 C   0  0  0  0  0  0  0  0  0  0  0  0
   12.5252  -19.5380   27.1338 C   0  0  2  0  0  0  0  0  0  0  0  0
   13.1139  -19.2732   25.8364 N   0  0  0  0  0  0  0  0  0  0  0  0
   12.0023  -18.2653   27.6914 C   0  0  0  0  0  0  0  0  0  0  0  0
   12.4854  -17.1378   27.3979 O   0  0  0  0  0  0  0  0  0  0  0  0
   10.9292  -18.2658   28.5839 O   0  0  0  0  0  0  0  0  0  0  0  0
  2  1  1  6
  2  7  1  0
  3  2  1  0
  3  4  1  0
  4  5  1  0
  5  6  2  0
  7  8  2  0
  9  5  1  0
 10  7  1  0
 10 11  1  0
 11 15  1  0
 12 13  1  0
 11 12  1  6
 13 17  1  0
 14 13  2  0
 15 26  1  0
 15 16  2  0
 19 18  1  0
 19 21  1  0
 20 19  2  0
 22 21  1  0
 23 22  1  0
 23 24  1  0
 25 24  1  1
 25 27  1  0
 26 25  1  0
 27 29  1  0
 28 27  2  0
M  END
$$$$
