EDR.pdb
     RDKit          3D

 29 28  0  0  1  0  0  0  0  0999 V2000
   10.0497  -20.0884   17.8242 N   0  0  0  0  0  0  0  0  0  0  0  0
   10.6952  -18.7521   17.8626 C   0  0  1  0  0  0  0  0  0  0  0  0
    9.7519  -17.7551   17.2465 C   0  0  0  0  0  0  0  0  0  0  0  0
   10.0466  -17.5707   15.7937 C   0  0  0  0  0  0  0  0  0  0  0  0
    9.1223  -16.5411   15.1851 C   0  0  0  0  0  0  0  0  0  0  0  0
    7.9635  -16.8024   14.7982 O   0  0  0  0  0  0  0  0  0  0  0  0
   10.8799  -18.4634   19.2975 C   0  0  0  0  0  0  0  0  0  0  0  0
   11.1571  -17.2837   19.6395 O   0  0  0  0  0  0  0  0  0  0  0  0
    9.5944  -15.2497   15.0557 O   0  0  0  0  0  0  0  0  0  0  0  0
   10.7568  -19.4731   20.3203 N   0  0  0  0  0  0  0  0  0  0  0  0
   11.6852  -19.4359   21.4149 C   0  0  1  0  0  0  0  0  0  0  0  0
   13.0865  -19.7145   20.9570 C   0  0  0  0  0  0  0  0  0  0  0  0
   13.8497  -20.3344   22.0426 C   0  0  0  0  0  0  0  0  0  0  0  0
   13.6944  -20.0022   23.2633 O   0  0  0  0  0  0  0  0  0  0  0  0
   11.7052  -18.0780   22.0481 C   0  0  0  0  0  0  0  0  0  0  0  0
   12.4653  -17.1608   21.7131 O   0  0  0  0  0  0  0  0  0  0  0  0
   14.7781  -21.3147   21.7701 O   0  0  0  0  0  0  0  0  0  0  0  0
    7.0896  -12.4825   20.2291 N   0  0  0  0  0  0  0  0  0  0  0  0
    8.0480  -13.1089   19.3909 C   0  0  0  0  0  0  0  0  0  0  0  0
    8.1110  -12.7890   18.1428 N   0  0  0  0  0  0  0  0  0  0  0  0
    8.9103  -14.0785   19.9762 N   0  0  0  0  0  0  0  0  0  0  0  0
    8.6875  -14.4225   21.3782 C   0  0  0  0  0  0  0  0  0  0  0  0
    9.7426  -15.4285   21.8143 C   0  0  0  0  0  0  0  0  0  0  0  0
    9.5047  -15.8110   23.2538 C   0  0  0  0  0  0  0  0  0  0  0  0
   10.6961  -16.5589   23.7782 C   0  0  2  0  0  0  0  0  0  0  0  0
   10.7821  -17.8392   23.1048 N   0  0  0  0  0  0  0  0  0  0  0  0
   10.5852  -16.7930   25.2400 C   0  0  0  0  0  0  0  0  0  0  0  0
   10.1918  -17.8857   25.7320 O   0  0  0  0  0  0  0  0  0  0  0  0
   10.9201  -15.7891   26.1500 O   0  0  0  0  0  0  0  0  0  0  0  0
  2  1  1  1
  2  7  1  0
  3  2  1  0
  3  4  1  0
  4  5  1  0
  5  6  2  0
  7  8  2  0
  9  5  1  0
 10  7  1  0
 10 11  1  0
 11 15  1  0
 12 13  1  0
 11 12  1  6
 13 17  1  0
 14 13  2  0
 15 26  1  0
 15 16  2  0
 19 18  1  0
 19 21  1  0
 20 19  2  0
 22 21  1  0
 23 22  1  0
 23 24  1  0
 25 24  1  6
 25 27  1  0
 26 25  1  0
 27 29  1  0
 28 27  2  0
M  END
$$$$
