WYD.pdb
     RDKit          3D

 35 37  0  0  1  0  0  0  0  0999 V2000
   21.0582  -32.8903  -12.3618 N   0  0  0  0  0  0  0  0  0  0  0  0
   21.5299  -31.9211  -11.4020 C   0  0  1  0  0  0  0  0  0  0  0  0
   20.4256  -31.2367  -10.6339 C   0  0  0  0  0  0  0  0  0  0  0  0
   19.6380  -30.3159  -11.4556 C   0  0  0  0  0  0  0  0  0  0  0  0
   18.5652  -30.6859  -12.2443 C   0  0  0  0  0  0  0  0  0  0  0  0
   18.0824  -29.5762  -12.8250 N   0  0  0  0  0  0  0  0  0  0  0  0
   18.7947  -28.4927  -12.4500 C   0  0  0  0  0  0  0  0  0  0  0  0
   18.7275  -27.1611  -12.7464 C   0  0  0  0  0  0  0  0  0  0  0  0
   19.6155  -26.2746  -12.2052 C   0  0  0  0  0  0  0  0  0  0  0  0
   20.5909  -26.7253  -11.3509 C   0  0  0  0  0  0  0  0  0  0  0  0
   20.6705  -28.0726  -11.0416 C   0  0  0  0  0  0  0  0  0  0  0  0
   19.7718  -28.9564  -11.5907 C   0  0  0  0  0  0  0  0  0  0  0  0
   22.4099  -32.5598  -10.3969 C   0  0  0  0  0  0  0  0  0  0  0  0
   22.3010  -33.7976  -10.2171 O   0  0  0  0  0  0  0  0  0  0  0  0
   29.1784  -34.5588   -5.0921 O   0  0  0  0  0  0  0  0  0  0  0  0
   28.2572  -33.8696   -5.8815 C   0  0  0  0  0  0  0  0  0  0  0  0
   27.3275  -33.0572   -5.2691 C   0  0  0  0  0  0  0  0  0  0  0  0
   26.4019  -32.3626   -6.0378 C   0  0  0  0  0  0  0  0  0  0  0  0
   26.3641  -32.4457   -7.4134 C   0  0  0  0  0  0  0  0  0  0  0  0
   25.4082  -31.7309   -8.2582 C   0  0  0  0  0  0  0  0  0  0  0  0
   24.2148  -32.5474   -8.6734 C   0  0  2  0  0  0  0  0  0  0  0  0
   23.3723  -31.8639   -9.6194 N   0  0  0  0  0  0  0  0  0  0  0  0
   23.4279  -32.8683   -7.4507 C   0  0  0  0  0  0  0  0  0  0  0  0
   22.6477  -32.0096   -6.9661 O   0  0  0  0  0  0  0  0  0  0  0  0
   27.3075  -33.2678   -8.0081 C   0  0  0  0  0  0  0  0  0  0  0  0
   28.2341  -33.9647   -7.2576 C   0  0  0  0  0  0  0  0  0  0  0  0
   23.5488  -34.1560   -6.8122 N   0  0  0  0  0  0  0  0  0  0  0  0
   22.7604  -34.5375   -5.6838 C   0  0  1  0  0  0  0  0  0  0  0  0
   22.4774  -36.0078   -5.6892 C   0  0  0  0  0  0  0  0  0  0  0  0
   23.6869  -36.8549   -5.6089 C   0  0  0  0  0  0  0  0  0  0  0  0
   24.6303  -36.5350   -4.8501 O   0  0  0  0  0  0  0  0  0  0  0  0
   23.3246  -34.0788   -4.4052 C   0  0  0  0  0  0  0  0  0  0  0  0
   22.6052  -34.1428   -3.2369 O   0  0  0  0  0  0  0  0  0  0  0  0
   23.7988  -38.0091   -6.3657 O   0  0  0  0  0  0  0  0  0  0  0  0
   24.4878  -33.6192   -4.3820 O   0  0  0  0  0  0  0  0  0  0  0  0
  2  3  1  0
  2  1  1  6
  3  4  1  0
  4  5  2  0
  6  5  1  0
  7  6  1  0
  8  7  2  0
  9  8  1  0
 10 11  1  0
 10  9  2  0
 11 12  2  0
 12  7  1  0
 12  4  1  0
 13  2  1  0
 13 22  1  0
 14 13  2  0
 16 15  1  0
 16 17  2  0
 18 17  1  0
 19 18  2  0
 20 19  1  0
 21 20  1  1
 21 23  1  0
 21 22  1  0
 23 27  1  0
 24 23  2  0
 25 26  2  0
 25 19  1  0
 26 16  1  0
 27 28  1  0
 28 29  1  1
 29 30  1  0
 30 31  2  0
 32 33  1  0
 32 28  1  0
 34 30  1  0
 35 32  2  0
M  END
$$$$
