WYD.pdb
     RDKit          3D

 35 37  0  0  1  0  0  0  0  0999 V2000
   28.2729  -22.0215  -15.9231 N   0  0  0  0  0  0  0  0  0  0  0  0
   27.5716  -20.8767  -15.3936 C   0  0  1  0  0  0  0  0  0  0  0  0
   26.6351  -20.2250  -16.3817 C   0  0  0  0  0  0  0  0  0  0  0  0
   27.2613  -19.1393  -17.1384 C   0  0  0  0  0  0  0  0  0  0  0  0
   27.8953  -19.2926  -18.3568 C   0  0  0  0  0  0  0  0  0  0  0  0
   28.3191  -18.0820  -18.7526 N   0  0  0  0  0  0  0  0  0  0  0  0
   27.9897  -17.1403  -17.8435 C   0  0  0  0  0  0  0  0  0  0  0  0
   28.1836  -15.7909  -17.7590 C   0  0  0  0  0  0  0  0  0  0  0  0
   27.7307  -15.0814  -16.6826 C   0  0  0  0  0  0  0  0  0  0  0  0
   27.0709  -15.7310  -15.6692 C   0  0  0  0  0  0  0  0  0  0  0  0
   26.8671  -17.0986  -15.7419 C   0  0  0  0  0  0  0  0  0  0  0  0
   27.3259  -17.8033  -16.8296 C   0  0  0  0  0  0  0  0  0  0  0  0
   26.7502  -21.2573  -14.2218 C   0  0  0  0  0  0  0  0  0  0  0  0
   26.1227  -22.3438  -14.2675 O   0  0  0  0  0  0  0  0  0  0  0  0
   30.5775  -21.8896   -8.1559 O   0  0  0  0  0  0  0  0  0  0  0  0
   29.4272  -21.4398   -8.8048 C   0  0  0  0  0  0  0  0  0  0  0  0
   28.2555  -21.3281   -8.0879 C   0  0  0  0  0  0  0  0  0  0  0  0
   27.0994  -20.8822   -8.7161 C   0  0  0  0  0  0  0  0  0  0  0  0
   27.0625  -20.5375  -10.0505 C   0  0  0  0  0  0  0  0  0  0  0  0
   25.8681  -20.0630  -10.7484 C   0  0  0  0  0  0  0  0  0  0  0  0
   25.6062  -20.7440  -12.0641 C   0  0  2  0  0  0  0  0  0  0  0  0
   26.6239  -20.4731  -13.0454 N   0  0  0  0  0  0  0  0  0  0  0  0
   24.2890  -20.2721  -12.5732 C   0  0  0  0  0  0  0  0  0  0  0  0
   24.2436  -19.4677  -13.5385 O   0  0  0  0  0  0  0  0  0  0  0  0
   28.2512  -20.6574  -10.7519 C   0  0  0  0  0  0  0  0  0  0  0  0
   29.4086  -21.0992  -10.1415 C   0  0  0  0  0  0  0  0  0  0  0  0
   23.0594  -20.7271  -11.9718 N   0  0  0  0  0  0  0  0  0  0  0  0
   21.8118  -20.7290  -12.6676 C   0  0  1  0  0  0  0  0  0  0  0  0
   21.8863  -21.5507  -13.9170 C   0  0  0  0  0  0  0  0  0  0  0  0
   20.6228  -21.5977  -14.6839 C   0  0  0  0  0  0  0  0  0  0  0  0
   19.5526  -21.9134  -14.1153 O   0  0  0  0  0  0  0  0  0  0  0  0
   20.6761  -21.1078  -11.8129 C   0  0  0  0  0  0  0  0  0  0  0  0
   20.7357  -22.1967  -10.9779 O   0  0  0  0  0  0  0  0  0  0  0  0
   20.5989  -21.2961  -16.0351 O   0  0  0  0  0  0  0  0  0  0  0  0
   19.6310  -20.4213  -11.8480 O   0  0  0  0  0  0  0  0  0  0  0  0
  2  3  1  0
  2  1  1  6
  3  4  1  0
  4  5  2  0
  6  5  1  0
  7  6  1  0
  8  7  2  0
  9  8  1  0
 10 11  1  0
 10  9  2  0
 11 12  2  0
 12  7  1  0
 12  4  1  0
 13  2  1  0
 13 22  1  0
 14 13  2  0
 16 15  1  0
 16 17  2  0
 18 17  1  0
 19 18  2  0
 20 19  1  0
 21 20  1  1
 21 23  1  0
 21 22  1  0
 23 27  1  0
 24 23  2  0
 25 26  2  0
 25 19  1  0
 26 16  1  0
 27 28  1  0
 28 29  1  6
 29 30  1  0
 30 31  2  0
 32 33  1  0
 32 28  1  0
 34 30  1  0
 35 32  2  0
M  END
$$$$
