WYD.pdb
     RDKit          3D

 35 37  0  0  1  0  0  0  0  0999 V2000
   26.2124  -19.4944  -10.2757 N   0  0  0  0  0  0  0  0  0  0  0  0
   26.9634  -20.6976  -10.5427 C   0  0  1  0  0  0  0  0  0  0  0  0
   27.9097  -21.0843   -9.4322 C   0  0  0  0  0  0  0  0  0  0  0  0
   27.7570  -20.2594   -8.2324 C   0  0  0  0  0  0  0  0  0  0  0  0
   27.0854  -19.0525   -8.1872 C   0  0  0  0  0  0  0  0  0  0  0  0
   27.1326  -18.6051   -6.9226 N   0  0  0  0  0  0  0  0  0  0  0  0
   27.8082  -19.4689   -6.1357 C   0  0  0  0  0  0  0  0  0  0  0  0
   28.1403  -19.4885   -4.8109 C   0  0  0  0  0  0  0  0  0  0  0  0
   28.8589  -20.5230   -4.2813 C   0  0  0  0  0  0  0  0  0  0  0  0
   29.2549  -21.5595   -5.0896 C   0  0  0  0  0  0  0  0  0  0  0  0
   28.9250  -21.5527   -6.4343 C   0  0  0  0  0  0  0  0  0  0  0  0
   28.2009  -20.5075   -6.9573 C   0  0  0  0  0  0  0  0  0  0  0  0
   26.0569  -21.8508  -10.7452 C   0  0  0  0  0  0  0  0  0  0  0  0
   25.5782  -22.4120   -9.7293 O   0  0  0  0  0  0  0  0  0  0  0  0
   19.5306  -21.2489   -9.1918 O   0  0  0  0  0  0  0  0  0  0  0  0
   20.6824  -21.0519   -9.9542 C   0  0  0  0  0  0  0  0  0  0  0  0
   21.5931  -20.0974   -9.5555 C   0  0  0  0  0  0  0  0  0  0  0  0
   22.7460  -19.8864  -10.3013 C   0  0  0  0  0  0  0  0  0  0  0  0
   23.0333  -20.5987  -11.4462 C   0  0  0  0  0  0  0  0  0  0  0  0
   24.2347  -20.4084  -12.2580 C   0  0  0  0  0  0  0  0  0  0  0  0
   24.7720  -21.6698  -12.8770 C   0  0  2  0  0  0  0  0  0  0  0  0
   25.6913  -22.3667  -12.0161 N   0  0  0  0  0  0  0  0  0  0  0  0
   25.4613  -21.3038  -14.1450 C   0  0  0  0  0  0  0  0  0  0  0  0
   24.8465  -20.6474  -15.0238 O   0  0  0  0  0  0  0  0  0  0  0  0
   22.1045  -21.5529  -11.8286 C   0  0  0  0  0  0  0  0  0  0  0  0
   20.9537  -21.7744  -11.0978 C   0  0  0  0  0  0  0  0  0  0  0  0
   26.8300  -21.6934  -14.3801 N   0  0  0  0  0  0  0  0  0  0  0  0
   27.5320  -21.3686  -15.5810 C   0  0  1  0  0  0  0  0  0  0  0  0
   28.9733  -21.7642  -15.4932 C   0  0  0  0  0  0  0  0  0  0  0  0
   29.7575  -21.4590  -16.7093 C   0  0  0  0  0  0  0  0  0  0  0  0
   30.6120  -22.2730  -17.1281 O   0  0  0  0  0  0  0  0  0  0  0  0
   26.8783  -21.8925  -16.7900 C   0  0  0  0  0  0  0  0  0  0  0  0
   26.6013  -23.2299  -16.9363 O   0  0  0  0  0  0  0  0  0  0  0  0
   29.5636  -20.2763  -17.4028 O   0  0  0  0  0  0  0  0  0  0  0  0
   26.5673  -21.1004  -17.7069 O   0  0  0  0  0  0  0  0  0  0  0  0
  2  3  1  0
  2  1  1  1
  3  4  1  0
  4  5  2  0
  6  5  1  0
  7  6  1  0
  8  7  2  0
  9  8  1  0
 10 11  1  0
 10  9  2  0
 11 12  2  0
 12  7  1  0
 12  4  1  0
 13  2  1  0
 13 22  1  0
 14 13  2  0
 16 15  1  0
 16 17  2  0
 18 17  1  0
 19 18  2  0
 20 19  1  0
 21 20  1  1
 21 23  1  0
 21 22  1  0
 23 27  1  0
 24 23  2  0
 25 26  2  0
 25 19  1  0
 26 16  1  0
 27 28  1  0
 28 29  1  1
 29 30  1  0
 30 31  2  0
 32 33  1  0
 32 28  1  0
 34 30  1  0
 35 32  2  0
M  END
$$$$
