WYD.pdb
     RDKit          3D

 35 37  0  0  1  0  0  0  0  0999 V2000
   20.7413  -13.9127  -16.8508 N   0  0  0  0  0  0  0  0  0  0  0  0
   20.0934  -12.6357  -17.0311 C   0  0  1  0  0  0  0  0  0  0  0  0
   19.1117  -12.2907  -15.9378 C   0  0  0  0  0  0  0  0  0  0  0  0
   17.9324  -13.1582  -15.9283 C   0  0  0  0  0  0  0  0  0  0  0  0
   17.8919  -14.4256  -15.3788 C   0  0  0  0  0  0  0  0  0  0  0  0
   16.6459  -14.8997  -15.5353 N   0  0  0  0  0  0  0  0  0  0  0  0
   15.8668  -13.9955  -16.1655 C   0  0  0  0  0  0  0  0  0  0  0  0
   14.5603  -13.9789  -16.5636 C   0  0  0  0  0  0  0  0  0  0  0  0
   14.0349  -12.8938  -17.2067 C   0  0  0  0  0  0  0  0  0  0  0  0
   14.8288  -11.8025  -17.4583 C   0  0  0  0  0  0  0  0  0  0  0  0
   16.1549  -11.8056  -17.0601 C   0  0  0  0  0  0  0  0  0  0  0  0
   16.6739  -12.9021  -16.4130 C   0  0  0  0  0  0  0  0  0  0  0  0
   21.0885  -11.5398  -17.0658 C   0  0  0  0  0  0  0  0  0  0  0  0
   22.0588  -11.5969  -16.2709 O   0  0  0  0  0  0  0  0  0  0  0  0
   26.2909   -4.8793  -19.7165 O   0  0  0  0  0  0  0  0  0  0  0  0
   25.3114   -5.8696  -19.6360 C   0  0  0  0  0  0  0  0  0  0  0  0
   25.6995   -7.1834  -19.4854 C   0  0  0  0  0  0  0  0  0  0  0  0
   24.7391   -8.1840  -19.4034 C   0  0  0  0  0  0  0  0  0  0  0  0
   23.3865   -7.9249  -19.4661 C   0  0  0  0  0  0  0  0  0  0  0  0
   22.3447   -8.9478  -19.3825 C   0  0  0  0  0  0  0  0  0  0  0  0
   22.0647   -9.4360  -17.9873 C   0  0  2  0  0  0  0  0  0  0  0  0
   21.0192  -10.4243  -17.9408 N   0  0  0  0  0  0  0  0  0  0  0  0
   21.6744   -8.2626  -17.1579 C   0  0  0  0  0  0  0  0  0  0  0  0
   20.5173   -7.7814  -17.2609 O   0  0  0  0  0  0  0  0  0  0  0  0
   23.0188   -6.5978  -19.6176 C   0  0  0  0  0  0  0  0  0  0  0  0
   23.9615   -5.5919  -19.7006 C   0  0  0  0  0  0  0  0  0  0  0  0
   22.6092   -7.6680  -16.2343 N   0  0  0  0  0  0  0  0  0  0  0  0
   22.2930   -6.5209  -15.4439 C   0  0  1  0  0  0  0  0  0  0  0  0
   22.4030   -6.8204  -13.9811 C   0  0  0  0  0  0  0  0  0  0  0  0
   22.0569   -5.6808  -13.1045 C   0  0  0  0  0  0  0  0  0  0  0  0
   20.9316   -5.1383  -13.1921 O   0  0  0  0  0  0  0  0  0  0  0  0
   23.0575   -5.3256  -15.8316 C   0  0  0  0  0  0  0  0  0  0  0  0
   22.4420   -4.1174  -16.0508 O   0  0  0  0  0  0  0  0  0  0  0  0
   22.9634   -5.1953  -12.1773 O   0  0  0  0  0  0  0  0  0  0  0  0
   24.2983   -5.4121  -15.9648 O   0  0  0  0  0  0  0  0  0  0  0  0
  2  3  1  0
  2  1  1  1
  3  4  1  0
  4  5  2  0
  6  5  1  0
  7  6  1  0
  8  7  2  0
  9  8  1  0
 10 11  1  0
 10  9  2  0
 11 12  2  0
 12  7  1  0
 12  4  1  0
 13  2  1  0
 13 22  1  0
 14 13  2  0
 16 15  1  0
 16 17  2  0
 18 17  1  0
 19 18  2  0
 20 19  1  0
 21 20  1  6
 21 23  1  0
 21 22  1  0
 23 27  1  0
 24 23  2  0
 25 26  2  0
 25 19  1  0
 26 16  1  0
 27 28  1  0
 28 29  1  1
 29 30  1  0
 30 31  2  0
 32 33  1  0
 32 28  1  0
 34 30  1  0
 35 32  2  0
M  END
$$$$
