WYD.pdb
     RDKit          3D

 35 37  0  0  1  0  0  0  0  0999 V2000
   26.0663  -21.0370  -13.6685 N   0  0  0  0  0  0  0  0  0  0  0  0
   25.0901  -20.9967  -12.6063 C   0  0  1  0  0  0  0  0  0  0  0  0
   25.4887  -20.1185  -11.4453 C   0  0  0  0  0  0  0  0  0  0  0  0
   26.7956  -20.4647  -10.8838 C   0  0  0  0  0  0  0  0  0  0  0  0
   26.9925  -21.0300   -9.6382 C   0  0  0  0  0  0  0  0  0  0  0  0
   28.3110  -21.2268   -9.4819 N   0  0  0  0  0  0  0  0  0  0  0  0
   28.9880  -20.8133  -10.5739 C   0  0  0  0  0  0  0  0  0  0  0  0
   30.3092  -20.7841  -10.9194 C   0  0  0  0  0  0  0  0  0  0  0  0
   30.7093  -20.2858  -12.1272 C   0  0  0  0  0  0  0  0  0  0  0  0
   29.7726  -19.8065  -13.0088 C   0  0  0  0  0  0  0  0  0  0  0  0
   28.4299  -19.8302  -12.6717 C   0  0  0  0  0  0  0  0  0  0  0  0
   28.0374  -20.3343  -11.4543 C   0  0  0  0  0  0  0  0  0  0  0  0
   23.7938  -20.4795  -13.1009 C   0  0  0  0  0  0  0  0  0  0  0  0
   23.5915  -19.2416  -13.0462 O   0  0  0  0  0  0  0  0  0  0  0  0
   16.6017  -18.0679  -17.2963 O   0  0  0  0  0  0  0  0  0  0  0  0
   17.7899  -18.6592  -16.8659 C   0  0  0  0  0  0  0  0  0  0  0  0
   18.6851  -17.9070  -16.1365 C   0  0  0  0  0  0  0  0  0  0  0  0
   19.8738  -18.4777  -15.6989 C   0  0  0  0  0  0  0  0  0  0  0  0
   20.2123  -19.7878  -15.9626 C   0  0  0  0  0  0  0  0  0  0  0  0
   21.4512  -20.4261  -15.5196 C   0  0  0  0  0  0  0  0  0  0  0  0
   21.4990  -20.7345  -14.0479 C   0  0  2  0  0  0  0  0  0  0  0  0
   22.7599  -21.2925  -13.6349 N   0  0  0  0  0  0  0  0  0  0  0  0
   20.4067  -21.6995  -13.7434 C   0  0  0  0  0  0  0  0  0  0  0  0
   20.5185  -22.9016  -14.0951 O   0  0  0  0  0  0  0  0  0  0  0  0
   19.2981  -20.5255  -16.6971 C   0  0  0  0  0  0  0  0  0  0  0  0
   18.1123  -19.9725  -17.1391 C   0  0  0  0  0  0  0  0  0  0  0  0
   19.2174  -21.2727  -13.0477 N   0  0  0  0  0  0  0  0  0  0  0  0
   18.1019  -22.1355  -12.8204 C   0  0  1  0  0  0  0  0  0  0  0  0
   17.9868  -22.5071  -11.3745 C   0  0  0  0  0  0  0  0  0  0  0  0
   18.4483  -23.8778  -11.0657 C   0  0  0  0  0  0  0  0  0  0  0  0
   18.8014  -24.6462  -11.9893 O   0  0  0  0  0  0  0  0  0  0  0  0
   16.8430  -21.6055  -13.3661 C   0  0  0  0  0  0  0  0  0  0  0  0
   16.0513  -22.3520  -14.2042 O   0  0  0  0  0  0  0  0  0  0  0  0
   18.4983  -24.3343   -9.7594 O   0  0  0  0  0  0  0  0  0  0  0  0
   16.4854  -20.4468  -13.0592 O   0  0  0  0  0  0  0  0  0  0  0  0
  2  3  1  0
  2  1  1  6
  3  4  1  0
  4  5  2  0
  6  5  1  0
  7  6  1  0
  8  7  2  0
  9  8  1  0
 10 11  1  0
 10  9  2  0
 11 12  2  0
 12  7  1  0
 12  4  1  0
 13  2  1  0
 13 22  1  0
 14 13  2  0
 16 15  1  0
 16 17  2  0
 18 17  1  0
 19 18  2  0
 20 19  1  0
 21 20  1  6
 21 23  1  0
 21 22  1  0
 23 27  1  0
 24 23  2  0
 25 26  2  0
 25 19  1  0
 26 16  1  0
 27 28  1  0
 28 29  1  1
 29 30  1  0
 30 31  2  0
 32 33  1  0
 32 28  1  0
 34 30  1  0
 35 32  2  0
M  END
$$$$
