WYD.pdb
     RDKit          3D

 35 37  0  0  1  0  0  0  0  0999 V2000
   24.6493  -19.5837   -8.2241 N   0  0  0  0  0  0  0  0  0  0  0  0
   25.8517  -20.0611   -8.8637 C   0  0  1  0  0  0  0  0  0  0  0  0
   26.3938  -21.3372   -8.2671 C   0  0  0  0  0  0  0  0  0  0  0  0
   26.6864  -21.2251   -6.8370 C   0  0  0  0  0  0  0  0  0  0  0  0
   25.8641  -21.6866   -5.8267 C   0  0  0  0  0  0  0  0  0  0  0  0
   26.4707  -21.4315   -4.6568 N   0  0  0  0  0  0  0  0  0  0  0  0
   27.6576  -20.8210   -4.8577 C   0  0  0  0  0  0  0  0  0  0  0  0
   28.6392  -20.3544   -4.0305 C   0  0  0  0  0  0  0  0  0  0  0  0
   29.7594  -19.7568   -4.5357 C   0  0  0  0  0  0  0  0  0  0  0  0
   29.9037  -19.6214   -5.8941 C   0  0  0  0  0  0  0  0  0  0  0  0
   28.9165  -20.0901   -6.7444 C   0  0  0  0  0  0  0  0  0  0  0  0
   27.7935  -20.6906   -6.2262 C   0  0  0  0  0  0  0  0  0  0  0  0
   25.6123  -20.3349  -10.2990 C   0  0  0  0  0  0  0  0  0  0  0  0
   24.4245  -20.4549  -10.6879 O   0  0  0  0  0  0  0  0  0  0  0  0
   27.7321  -16.9714  -18.1984 O   0  0  0  0  0  0  0  0  0  0  0  0
   27.7683  -17.5556  -16.9319 C   0  0  0  0  0  0  0  0  0  0  0  0
   28.4819  -18.7210  -16.7532 C   0  0  0  0  0  0  0  0  0  0  0  0
   28.5299  -19.3180  -15.4996 C   0  0  0  0  0  0  0  0  0  0  0  0
   27.8859  -18.7930  -14.3995 C   0  0  0  0  0  0  0  0  0  0  0  0
   27.9126  -19.3889  -13.0643 C   0  0  0  0  0  0  0  0  0  0  0  0
   26.5647  -19.8098  -12.5452 C   0  0  2  0  0  0  0  0  0  0  0  0
   26.6395  -20.4716  -11.2691 N   0  0  0  0  0  0  0  0  0  0  0  0
   25.9520  -20.7280  -13.5444 C   0  0  0  0  0  0  0  0  0  0  0  0
   26.3411  -21.9215  -13.6177 O   0  0  0  0  0  0  0  0  0  0  0  0
   27.1746  -17.6215  -14.6017 C   0  0  0  0  0  0  0  0  0  0  0  0
   27.1173  -17.0160  -15.8417 C   0  0  0  0  0  0  0  0  0  0  0  0
   24.9142  -20.2655  -14.4329 N   0  0  0  0  0  0  0  0  0  0  0  0
   24.3247  -21.0969  -15.4337 C   0  0  1  0  0  0  0  0  0  0  0  0
   22.8306  -21.0905  -15.3362 C   0  0  0  0  0  0  0  0  0  0  0  0
   22.3064  -21.6528  -14.0729 C   0  0  0  0  0  0  0  0  0  0  0  0
   22.7631  -22.7297  -13.6259 O   0  0  0  0  0  0  0  0  0  0  0  0
   24.8003  -20.7896  -16.7913 C   0  0  0  0  0  0  0  0  0  0  0  0
   25.2528  -21.7743  -17.6353 O   0  0  0  0  0  0  0  0  0  0  0  0
   21.3082  -21.0043  -13.3656 O   0  0  0  0  0  0  0  0  0  0  0  0
   24.7924  -19.6027  -17.1861 O   0  0  0  0  0  0  0  0  0  0  0  0
  2  3  1  0
  2  1  1  1
  3  4  1  0
  4  5  2  0
  6  5  1  0
  7  6  1  0
  8  7  2  0
  9  8  1  0
 10 11  1  0
 10  9  2  0
 11 12  2  0
 12  7  1  0
 12  4  1  0
 13  2  1  0
 13 22  1  0
 14 13  2  0
 16 15  1  0
 16 17  2  0
 18 17  1  0
 19 18  2  0
 20 19  1  0
 21 20  1  6
 21 23  1  0
 21 22  1  0
 23 27  1  0
 24 23  2  0
 25 26  2  0
 25 19  1  0
 26 16  1  0
 27 28  1  0
 28 29  1  6
 29 30  1  0
 30 31  2  0
 32 33  1  0
 32 28  1  0
 34 30  1  0
 35 32  2  0
M  END
$$$$
