WYD.pdb
     RDKit          3D

 35 37  0  0  1  0  0  0  0  0999 V2000
   29.2881  -21.4109  -14.0448 N   0  0  0  0  0  0  0  0  0  0  0  0
   28.2030  -20.4700  -13.9026 C   0  0  1  0  0  0  0  0  0  0  0  0
   27.4210  -20.2449  -15.1738 C   0  0  0  0  0  0  0  0  0  0  0  0
   27.8335  -19.0412  -15.8978 C   0  0  0  0  0  0  0  0  0  0  0  0
   28.6464  -19.0346  -17.0154 C   0  0  0  0  0  0  0  0  0  0  0  0
   28.7830  -17.7603  -17.4144 N   0  0  0  0  0  0  0  0  0  0  0  0
   28.0933  -16.9299  -16.6041 C   0  0  0  0  0  0  0  0  0  0  0  0
   27.9077  -15.5773  -16.5639 C   0  0  0  0  0  0  0  0  0  0  0  0
   27.1390  -15.0015  -15.5919 C   0  0  0  0  0  0  0  0  0  0  0  0
   26.5431  -15.7909  -14.6400 C   0  0  0  0  0  0  0  0  0  0  0  0
   26.7226  -17.1635  -14.6688 C   0  0  0  0  0  0  0  0  0  0  0  0
   27.4972  -17.7332  -15.6515 C   0  0  0  0  0  0  0  0  0  0  0  0
   27.2317  -20.9351  -12.8865 C   0  0  0  0  0  0  0  0  0  0  0  0
   27.0437  -22.1711  -12.7704 O   0  0  0  0  0  0  0  0  0  0  0  0
   29.3225  -20.2630   -6.0878 O   0  0  0  0  0  0  0  0  0  0  0  0
   28.3115  -20.1262   -7.0395 C   0  0  0  0  0  0  0  0  0  0  0  0
   27.8245  -21.2539   -7.6645 C   0  0  0  0  0  0  0  0  0  0  0  0
   26.8178  -21.1384   -8.6150 C   0  0  0  0  0  0  0  0  0  0  0  0
   26.2679  -19.9263   -8.9739 C   0  0  0  0  0  0  0  0  0  0  0  0
   25.2074  -19.7620   -9.9674 C   0  0  0  0  0  0  0  0  0  0  0  0
   25.4065  -20.5617  -11.2259 C   0  0  2  0  0  0  0  0  0  0  0  0
   26.4954  -20.0742  -12.0311 N   0  0  0  0  0  0  0  0  0  0  0  0
   24.1439  -20.5043  -12.0131 C   0  0  0  0  0  0  0  0  0  0  0  0
   23.9353  -19.5384  -12.7906 O   0  0  0  0  0  0  0  0  0  0  0  0
   26.7722  -18.8060   -8.3334 C   0  0  0  0  0  0  0  0  0  0  0  0
   27.7727  -18.9045   -7.3864 C   0  0  0  0  0  0  0  0  0  0  0  0
   23.1529  -21.5458  -11.8957 N   0  0  0  0  0  0  0  0  0  0  0  0
   21.9327  -21.5406  -12.6383 C   0  0  1  0  0  0  0  0  0  0  0  0
   21.6533  -22.8846  -13.2361 C   0  0  0  0  0  0  0  0  0  0  0  0
   20.3483  -22.9784  -13.9254 C   0  0  0  0  0  0  0  0  0  0  0  0
   20.2504  -22.6633  -15.1334 O   0  0  0  0  0  0  0  0  0  0  0  0
   20.7923  -21.0199  -11.8689 C   0  0  0  0  0  0  0  0  0  0  0  0
   20.8486  -20.8810  -10.5036 O   0  0  0  0  0  0  0  0  0  0  0  0
   19.2183  -23.4128  -13.2535 O   0  0  0  0  0  0  0  0  0  0  0  0
   19.7461  -20.6959  -12.4733 O   0  0  0  0  0  0  0  0  0  0  0  0
  2  3  1  0
  2  1  1  6
  3  4  1  0
  4  5  2  0
  6  5  1  0
  7  6  1  0
  8  7  2  0
  9  8  1  0
 10 11  1  0
 10  9  2  0
 11 12  2  0
 12  7  1  0
 12  4  1  0
 13  2  1  0
 13 22  1  0
 14 13  2  0
 16 15  1  0
 16 17  2  0
 18 17  1  0
 19 18  2  0
 20 19  1  0
 21 20  1  1
 21 23  1  0
 21 22  1  0
 23 27  1  0
 24 23  2  0
 25 26  2  0
 25 19  1  0
 26 16  1  0
 27 28  1  0
 28 29  1  1
 29 30  1  0
 30 31  2  0
 32 33  1  0
 32 28  1  0
 34 30  1  0
 35 32  2  0
M  END
$$$$
