WYD.pdb
     RDKit          3D

 35 37  0  0  1  0  0  0  0  0999 V2000
   27.3549  -19.1912   -9.2696 N   0  0  0  0  0  0  0  0  0  0  0  0
   26.7619  -20.4863   -9.5021 C   0  0  1  0  0  0  0  0  0  0  0  0
   25.6708  -20.8418   -8.5217 C   0  0  0  0  0  0  0  0  0  0  0  0
   26.0937  -20.7303   -7.1245 C   0  0  0  0  0  0  0  0  0  0  0  0
   25.2818  -20.9790   -6.0341 C   0  0  0  0  0  0  0  0  0  0  0  0
   26.0184  -20.7998   -4.9264 N   0  0  0  0  0  0  0  0  0  0  0  0
   27.2806  -20.4432   -5.2450 C   0  0  0  0  0  0  0  0  0  0  0  0
   28.3971  -20.1448   -4.5170 C   0  0  0  0  0  0  0  0  0  0  0  0
   29.5671  -19.8004   -5.1331 C   0  0  0  0  0  0  0  0  0  0  0  0
   29.6250  -19.7524   -6.5039 C   0  0  0  0  0  0  0  0  0  0  0  0
   28.5008  -20.0527   -7.2543 C   0  0  0  0  0  0  0  0  0  0  0  0
   27.3285  -20.3990   -6.6248 C   0  0  0  0  0  0  0  0  0  0  0  0
   26.1553  -20.5539  -10.8512 C   0  0  0  0  0  0  0  0  0  0  0  0
   25.8834  -19.4744  -11.4319 O   0  0  0  0  0  0  0  0  0  0  0  0
   25.0736  -23.1131  -19.2332 O   0  0  0  0  0  0  0  0  0  0  0  0
   25.3074  -23.0937  -17.8579 C   0  0  0  0  0  0  0  0  0  0  0  0
   26.3144  -22.2941  -17.3621 C   0  0  0  0  0  0  0  0  0  0  0  0
   26.5629  -22.2611  -15.9956 C   0  0  0  0  0  0  0  0  0  0  0  0
   25.8375  -23.0039  -15.0886 C   0  0  0  0  0  0  0  0  0  0  0  0
   26.0660  -22.9966  -13.6442 C   0  0  0  0  0  0  0  0  0  0  0  0
   25.5413  -21.7757  -12.9389 C   0  0  2  0  0  0  0  0  0  0  0  0
   25.8591  -21.7620  -11.5350 N   0  0  0  0  0  0  0  0  0  0  0  0
   24.0629  -21.7427  -13.1125 C   0  0  0  0  0  0  0  0  0  0  0  0
   23.3286  -22.4221  -12.3507 O   0  0  0  0  0  0  0  0  0  0  0  0
   24.8303  -23.8005  -15.6086 C   0  0  0  0  0  0  0  0  0  0  0  0
   24.5712  -23.8441  -16.9645 C   0  0  0  0  0  0  0  0  0  0  0  0
   23.4590  -20.9386  -14.1466 N   0  0  0  0  0  0  0  0  0  0  0  0
   22.0475  -20.8826  -14.3584 C   0  0  1  0  0  0  0  0  0  0  0  0
   21.6566  -19.6403  -15.0972 C   0  0  0  0  0  0  0  0  0  0  0  0
   21.9927  -18.3865  -14.3887 C   0  0  0  0  0  0  0  0  0  0  0  0
   21.8878  -18.3201  -13.1426 O   0  0  0  0  0  0  0  0  0  0  0  0
   21.5099  -22.1007  -14.9837 C   0  0  0  0  0  0  0  0  0  0  0  0
   20.5309  -22.8490  -14.3771 O   0  0  0  0  0  0  0  0  0  0  0  0
   22.4263  -17.2705  -15.0842 O   0  0  0  0  0  0  0  0  0  0  0  0
   21.9556  -22.4632  -16.0948 O   0  0  0  0  0  0  0  0  0  0  0  0
  2  3  1  0
  2  1  1  1
  3  4  1  0
  4  5  2  0
  6  5  1  0
  7  6  1  0
  8  7  2  0
  9  8  1  0
 10 11  1  0
 10  9  2  0
 11 12  2  0
 12  7  1  0
 12  4  1  0
 13  2  1  0
 13 22  1  0
 14 13  2  0
 16 15  1  0
 16 17  2  0
 18 17  1  0
 19 18  2  0
 20 19  1  0
 21 20  1  1
 21 23  1  0
 21 22  1  0
 23 27  1  0
 24 23  2  0
 25 26  2  0
 25 19  1  0
 26 16  1  0
 27 28  1  0
 28 29  1  6
 29 30  1  0
 30 31  2  0
 32 33  1  0
 32 28  1  0
 34 30  1  0
 35 32  2  0
M  END
$$$$
