WYD.pdb
     RDKit          3D

 35 37  0  0  1  0  0  0  0  0999 V2000
   28.1769  -20.6312  -14.5813 N   0  0  0  0  0  0  0  0  0  0  0  0
   27.1060  -19.8645  -13.9911 C   0  0  1  0  0  0  0  0  0  0  0  0
   26.0884  -19.3698  -14.9901 C   0  0  0  0  0  0  0  0  0  0  0  0
   26.6498  -18.4387  -15.9705 C   0  0  0  0  0  0  0  0  0  0  0  0
   27.0517  -18.7866  -17.2462 C   0  0  0  0  0  0  0  0  0  0  0  0
   27.4853  -17.6725  -17.8566 N   0  0  0  0  0  0  0  0  0  0  0  0
   27.3848  -16.6074  -17.0336 C   0  0  0  0  0  0  0  0  0  0  0  0
   27.6851  -15.2804  -17.1544 C   0  0  0  0  0  0  0  0  0  0  0  0
   27.4759  -14.4149  -16.1180 C   0  0  0  0  0  0  0  0  0  0  0  0
   26.9564  -14.8823  -14.9363 C   0  0  0  0  0  0  0  0  0  0  0  0
   26.6472  -16.2250  -14.8001 C   0  0  0  0  0  0  0  0  0  0  0  0
   26.8607  -17.0877  -15.8492 C   0  0  0  0  0  0  0  0  0  0  0  0
   26.3634  -20.6737  -12.9980 C   0  0  0  0  0  0  0  0  0  0  0  0
   26.2864  -21.9131  -13.1840 O   0  0  0  0  0  0  0  0  0  0  0  0
   30.6756  -21.4103   -8.0978 O   0  0  0  0  0  0  0  0  0  0  0  0
   29.3371  -21.2436   -8.4547 C   0  0  0  0  0  0  0  0  0  0  0  0
   28.5619  -20.3522   -7.7449 C   0  0  0  0  0  0  0  0  0  0  0  0
   27.2269  -20.1721   -8.0849 C   0  0  0  0  0  0  0  0  0  0  0  0
   26.6233  -20.8546   -9.1195 C   0  0  0  0  0  0  0  0  0  0  0  0
   25.2233  -20.6933   -9.5099 C   0  0  0  0  0  0  0  0  0  0  0  0
   24.9485  -20.9674  -10.9634 C   0  0  2  0  0  0  0  0  0  0  0  0
   25.7300  -20.1405  -11.8451 N   0  0  0  0  0  0  0  0  0  0  0  0
   23.5004  -20.7265  -11.2122 C   0  0  0  0  0  0  0  0  0  0  0  0
   22.8848  -19.8639  -10.5355 O   0  0  0  0  0  0  0  0  0  0  0  0
   27.4209  -21.7454   -9.8194 C   0  0  0  0  0  0  0  0  0  0  0  0
   28.7495  -21.9354   -9.4936 C   0  0  0  0  0  0  0  0  0  0  0  0
   22.7912  -21.4721  -12.2230 N   0  0  0  0  0  0  0  0  0  0  0  0
   21.4145  -21.2452  -12.5290 C   0  0  1  0  0  0  0  0  0  0  0  0
   21.1729  -19.8230  -12.9298 C   0  0  0  0  0  0  0  0  0  0  0  0
   21.7612  -19.4564  -14.2361 C   0  0  0  0  0  0  0  0  0  0  0  0
   22.5277  -20.2514  -14.8266 O   0  0  0  0  0  0  0  0  0  0  0  0
   20.8761  -22.2035  -13.5065 C   0  0  0  0  0  0  0  0  0  0  0  0
   19.5271  -22.3094  -13.7426 O   0  0  0  0  0  0  0  0  0  0  0  0
   21.4781  -18.2365  -14.8268 O   0  0  0  0  0  0  0  0  0  0  0  0
   21.6664  -22.9396  -14.1376 O   0  0  0  0  0  0  0  0  0  0  0  0
  2  3  1  0
  2  1  1  6
  3  4  1  0
  4  5  2  0
  6  5  1  0
  7  6  1  0
  8  7  2  0
  9  8  1  0
 10 11  1  0
 10  9  2  0
 11 12  2  0
 12  7  1  0
 12  4  1  0
 13  2  1  0
 13 22  1  0
 14 13  2  0
 16 15  1  0
 16 17  2  0
 18 17  1  0
 19 18  2  0
 20 19  1  0
 21 20  1  1
 21 23  1  0
 21 22  1  0
 23 27  1  0
 24 23  2  0
 25 26  2  0
 25 19  1  0
 26 16  1  0
 27 28  1  0
 28 29  1  6
 29 30  1  0
 30 31  2  0
 32 33  1  0
 32 28  1  0
 34 30  1  0
 35 32  2  0
M  END
$$$$
