WYD.pdb
     RDKit          3D

 35 37  0  0  1  0  0  0  0  0999 V2000
   40.3712  -10.2410   -8.2403 N   0  0  0  0  0  0  0  0  0  0  0  0
   40.4662  -11.1589   -9.3500 C   0  0  1  0  0  0  0  0  0  0  0  0
   40.9530  -10.5211  -10.6284 C   0  0  0  0  0  0  0  0  0  0  0  0
   39.9101   -9.7714  -11.3311 C   0  0  0  0  0  0  0  0  0  0  0  0
   39.6618   -8.4223  -11.1632 C   0  0  0  0  0  0  0  0  0  0  0  0
   38.6567   -8.0857  -11.9867 N   0  0  0  0  0  0  0  0  0  0  0  0
   38.2347   -9.1589  -12.6881 C   0  0  0  0  0  0  0  0  0  0  0  0
   37.2647   -9.3589  -13.6288 C   0  0  0  0  0  0  0  0  0  0  0  0
   37.0567  -10.5951  -14.1726 C   0  0  0  0  0  0  0  0  0  0  0  0
   37.8319  -11.6540  -13.7699 C   0  0  0  0  0  0  0  0  0  0  0  0
   38.8188  -11.4656  -12.8173 C   0  0  0  0  0  0  0  0  0  0  0  0
   39.0208  -10.2177  -12.2768 C   0  0  0  0  0  0  0  0  0  0  0  0
   41.4064  -12.2610   -9.0437 C   0  0  0  0  0  0  0  0  0  0  0  0
   42.4359  -11.9918   -8.3773 O   0  0  0  0  0  0  0  0  0  0  0  0
   45.6828  -20.0219   -8.8748 O   0  0  0  0  0  0  0  0  0  0  0  0
   44.7060  -19.0280   -8.9442 C   0  0  0  0  0  0  0  0  0  0  0  0
   43.7898  -19.0617   -9.9732 C   0  0  0  0  0  0  0  0  0  0  0  0
   42.8096  -18.0810  -10.0597 C   0  0  0  0  0  0  0  0  0  0  0  0
   42.7032  -17.0519   -9.1485 C   0  0  0  0  0  0  0  0  0  0  0  0
   41.6866  -16.0021   -9.2030 C   0  0  0  0  0  0  0  0  0  0  0  0
   42.2400  -14.6040   -9.2525 C   0  0  2  0  0  0  0  0  0  0  0  0
   41.2215  -13.6071   -9.4545 N   0  0  0  0  0  0  0  0  0  0  0  0
   43.2260  -14.5377  -10.3663 C   0  0  0  0  0  0  0  0  0  0  0  0
   42.8697  -14.1043  -11.4916 O   0  0  0  0  0  0  0  0  0  0  0  0
   43.6341  -17.0374   -8.1226 C   0  0  0  0  0  0  0  0  0  0  0  0
   44.6145  -18.0051   -8.0230 C   0  0  0  0  0  0  0  0  0  0  0  0
   44.5896  -14.9654  -10.1712 N   0  0  0  0  0  0  0  0  0  0  0  0
   45.5643  -14.9445  -11.2152 C   0  0  1  0  0  0  0  0  0  0  0  0
   45.8653  -13.5441  -11.6512 C   0  0  0  0  0  0  0  0  0  0  0  0
   45.5646  -13.2778  -13.0744 C   0  0  0  0  0  0  0  0  0  0  0  0
   45.2927  -14.2242  -13.8481 O   0  0  0  0  0  0  0  0  0  0  0  0
   46.7800  -15.7032  -10.8838 C   0  0  0  0  0  0  0  0  0  0  0  0
   47.0647  -16.0784   -9.5935 O   0  0  0  0  0  0  0  0  0  0  0  0
   45.5780  -11.9869  -13.5751 O   0  0  0  0  0  0  0  0  0  0  0  0
   47.5734  -16.0140  -11.7995 O   0  0  0  0  0  0  0  0  0  0  0  0
  2  3  1  0
  2  1  1  1
  3  4  1  0
  4  5  2  0
  6  5  1  0
  7  6  1  0
  8  7  2  0
  9  8  1  0
 10 11  1  0
 10  9  2  0
 11 12  2  0
 12  7  1  0
 12  4  1  0
 13  2  1  0
 13 22  1  0
 14 13  2  0
 16 15  1  0
 16 17  2  0
 18 17  1  0
 19 18  2  0
 20 19  1  0
 21 20  1  6
 21 23  1  0
 21 22  1  0
 23 27  1  0
 24 23  2  0
 25 26  2  0
 25 19  1  0
 26 16  1  0
 27 28  1  0
 28 29  1  1
 29 30  1  0
 30 31  2  0
 32 33  1  0
 32 28  1  0
 34 30  1  0
 35 32  2  0
M  END
$$$$
