WYD.pdb
     RDKit          3D

 35 37  0  0  1  0  0  0  0  0999 V2000
   27.4980  -22.3405  -18.3941 N   0  0  0  0  0  0  0  0  0  0  0  0
   26.6903  -21.3200  -17.7704 C   0  0  1  0  0  0  0  0  0  0  0  0
   25.3510  -21.1123  -18.4346 C   0  0  0  0  0  0  0  0  0  0  0  0
   25.4602  -20.6151  -19.8073 C   0  0  0  0  0  0  0  0  0  0  0  0
   25.5374  -21.4160  -20.9308 C   0  0  0  0  0  0  0  0  0  0  0  0
   25.6007  -20.6114  -22.0033 N   0  0  0  0  0  0  0  0  0  0  0  0
   25.5685  -19.3148  -21.6298 C   0  0  0  0  0  0  0  0  0  0  0  0
   25.6096  -18.1288  -22.3061 C   0  0  0  0  0  0  0  0  0  0  0  0
   25.5659  -16.9370  -21.6391 C   0  0  0  0  0  0  0  0  0  0  0  0
   25.4797  -16.9276  -20.2691 C   0  0  0  0  0  0  0  0  0  0  0  0
   25.4371  -18.1224  -19.5707 C   0  0  0  0  0  0  0  0  0  0  0  0
   25.4808  -19.3163  -20.2512 C   0  0  0  0  0  0  0  0  0  0  0  0
   26.4117  -21.6592  -16.3562 C   0  0  0  0  0  0  0  0  0  0  0  0
   25.9995  -22.8163  -16.0959 O   0  0  0  0  0  0  0  0  0  0  0  0
   24.0969  -20.9071   -7.8196 O   0  0  0  0  0  0  0  0  0  0  0  0
   24.6990  -20.7247   -9.0649 C   0  0  0  0  0  0  0  0  0  0  0  0
   24.0976  -19.8909   -9.9827 C   0  0  0  0  0  0  0  0  0  0  0  0
   24.6816  -19.6964  -11.2282 C   0  0  0  0  0  0  0  0  0  0  0  0
   25.8589  -20.3083  -11.6025 C   0  0  0  0  0  0  0  0  0  0  0  0
   26.5063  -20.1293  -12.9015 C   0  0  0  0  0  0  0  0  0  0  0  0
   25.9347  -20.9803  -14.0026 C   0  0  2  0  0  0  0  0  0  0  0  0
   26.5800  -20.7606  -15.2704 N   0  0  0  0  0  0  0  0  0  0  0  0
   24.4846  -20.6648  -14.1235 C   0  0  0  0  0  0  0  0  0  0  0  0
   24.1070  -19.7446  -14.8927 O   0  0  0  0  0  0  0  0  0  0  0  0
   26.4463  -21.1420  -10.6648 C   0  0  0  0  0  0  0  0  0  0  0  0
   25.8780  -21.3455   -9.4226 C   0  0  0  0  0  0  0  0  0  0  0  0
   23.5031  -21.4034  -13.3674 N   0  0  0  0  0  0  0  0  0  0  0  0
   22.0989  -21.1689  -13.4844 C   0  0  1  0  0  0  0  0  0  0  0  0
   21.5477  -21.7774  -14.7364 C   0  0  0  0  0  0  0  0  0  0  0  0
   20.0848  -21.6230  -14.8885 C   0  0  0  0  0  0  0  0  0  0  0  0
   19.3093  -22.4970  -14.4379 O   0  0  0  0  0  0  0  0  0  0  0  0
   21.3459  -21.5699  -12.2862 C   0  0  0  0  0  0  0  0  0  0  0  0
   21.6886  -22.6846  -11.5605 O   0  0  0  0  0  0  0  0  0  0  0  0
   19.5486  -20.5177  -15.5272 O   0  0  0  0  0  0  0  0  0  0  0  0
   20.3699  -20.8787  -11.9197 O   0  0  0  0  0  0  0  0  0  0  0  0
  2  3  1  0
  2  1  1  6
  3  4  1  0
  4  5  2  0
  6  5  1  0
  7  6  1  0
  8  7  2  0
  9  8  1  0
 10 11  1  0
 10  9  2  0
 11 12  2  0
 12  7  1  0
 12  4  1  0
 13  2  1  0
 13 22  1  0
 14 13  2  0
 16 15  1  0
 16 17  2  0
 18 17  1  0
 19 18  2  0
 20 19  1  0
 21 20  1  1
 21 23  1  0
 21 22  1  0
 23 27  1  0
 24 23  2  0
 25 26  2  0
 25 19  1  0
 26 16  1  0
 27 28  1  0
 28 29  1  6
 29 30  1  0
 30 31  2  0
 32 33  1  0
 32 28  1  0
 34 30  1  0
 35 32  2  0
M  END
$$$$
