WYD.pdb
     RDKit          3D

 35 37  0  0  1  0  0  0  0  0999 V2000
   28.0935  -21.7252  -10.9185 N   0  0  0  0  0  0  0  0  0  0  0  0
   26.6935  -21.3959  -10.7978 C   0  0  1  0  0  0  0  0  0  0  0  0
   26.4362  -20.0544  -10.1558 C   0  0  0  0  0  0  0  0  0  0  0  0
   26.4006  -20.1135   -8.6933 C   0  0  0  0  0  0  0  0  0  0  0  0
   25.2647  -20.3490   -7.9424 C   0  0  0  0  0  0  0  0  0  0  0  0
   25.6235  -20.3563   -6.6490 N   0  0  0  0  0  0  0  0  0  0  0  0
   26.9486  -20.1346   -6.5201 C   0  0  0  0  0  0  0  0  0  0  0  0
   27.7978  -20.0396   -5.4545 C   0  0  0  0  0  0  0  0  0  0  0  0
   29.1296  -19.7936   -5.6363 C   0  0  0  0  0  0  0  0  0  0  0  0
   29.6249  -19.6390   -6.9072 C   0  0  0  0  0  0  0  0  0  0  0  0
   28.7755  -19.7331   -7.9966 C   0  0  0  0  0  0  0  0  0  0  0  0
   27.4372  -19.9817   -7.8030 C   0  0  0  0  0  0  0  0  0  0  0  0
   26.0441  -21.3585  -12.1280 C   0  0  0  0  0  0  0  0  0  0  0  0
   26.3535  -20.4270  -12.9109 O   0  0  0  0  0  0  0  0  0  0  0  0
   29.7566  -22.0165  -17.5771 O   0  0  0  0  0  0  0  0  0  0  0  0
   28.5696  -22.3202  -16.9097 C   0  0  0  0  0  0  0  0  0  0  0  0
   28.6087  -23.1813  -15.8343 C   0  0  0  0  0  0  0  0  0  0  0  0
   27.4375  -23.4962  -15.1567 C   0  0  0  0  0  0  0  0  0  0  0  0
   26.2096  -22.9801  -15.5124 C   0  0  0  0  0  0  0  0  0  0  0  0
   24.9550  -23.2849  -14.8254 C   0  0  0  0  0  0  0  0  0  0  0  0
   24.4868  -22.2105  -13.8822 C   0  0  2  0  0  0  0  0  0  0  0  0
   25.0912  -22.3088  -12.5795 N   0  0  0  0  0  0  0  0  0  0  0  0
   23.0079  -22.3238  -13.7519 C   0  0  0  0  0  0  0  0  0  0  0  0
   22.5043  -22.7238  -12.6715 O   0  0  0  0  0  0  0  0  0  0  0  0
   26.1933  -22.1169  -16.5959 C   0  0  0  0  0  0  0  0  0  0  0  0
   27.3491  -21.7942  -17.2797 C   0  0  0  0  0  0  0  0  0  0  0  0
   22.1416  -21.9794  -14.8526 N   0  0  0  0  0  0  0  0  0  0  0  0
   20.8289  -21.4476  -14.6674 C   0  0  1  0  0  0  0  0  0  0  0  0
   20.8590  -20.1971  -13.8445 C   0  0  0  0  0  0  0  0  0  0  0  0
   19.5222  -19.6411  -13.5433 C   0  0  0  0  0  0  0  0  0  0  0  0
   19.4155  -18.5197  -12.9962 O   0  0  0  0  0  0  0  0  0  0  0  0
   20.0951  -21.2716  -15.9300 C   0  0  0  0  0  0  0  0  0  0  0  0
   20.6188  -20.5452  -16.9714 O   0  0  0  0  0  0  0  0  0  0  0  0
   18.3717  -20.3443  -13.8580 O   0  0  0  0  0  0  0  0  0  0  0  0
   18.9668  -21.7964  -16.0577 O   0  0  0  0  0  0  0  0  0  0  0  0
  2  3  1  0
  2  1  1  6
  3  4  1  0
  4  5  2  0
  6  5  1  0
  7  6  1  0
  8  7  2  0
  9  8  1  0
 10 11  1  0
 10  9  2  0
 11 12  2  0
 12  7  1  0
 12  4  1  0
 13  2  1  0
 13 22  1  0
 14 13  2  0
 16 15  1  0
 16 17  2  0
 18 17  1  0
 19 18  2  0
 20 19  1  0
 21 20  1  6
 21 23  1  0
 21 22  1  0
 23 27  1  0
 24 23  2  0
 25 26  2  0
 25 19  1  0
 26 16  1  0
 27 28  1  0
 28 29  1  6
 29 30  1  0
 30 31  2  0
 32 33  1  0
 32 28  1  0
 34 30  1  0
 35 32  2  0
M  END
$$$$
