EFL.pdb
     RDKit          3D

 29 29  0  0  1  0  0  0  0  0999 V2000
   28.2744  -22.5366  -18.0913 N   0  0  0  0  0  0  0  0  0  0  0  0
   27.9530  -21.2351  -17.5583 C   0  0  1  0  0  0  0  0  0  0  0  0
   27.0353  -20.4364  -18.4389 C   0  0  0  0  0  0  0  0  0  0  0  0
   27.6904  -19.9584  -19.7217 C   0  0  0  0  0  0  0  0  0  0  0  0
   28.7228  -18.9606  -19.3737 C   0  0  0  0  0  0  0  0  0  0  0  0
   29.9282  -19.2119  -19.6038 O   0  0  0  0  0  0  0  0  0  0  0  0
   27.1944  -21.4707  -16.2790 C   0  0  0  0  0  0  0  0  0  0  0  0
   26.3489  -22.3961  -16.2850 O   0  0  0  0  0  0  0  0  0  0  0  0
   28.3878  -17.7519  -18.7998 O   0  0  0  0  0  0  0  0  0  0  0  0
   27.4257  -20.6862  -15.1264 N   0  0  0  0  0  0  0  0  0  0  0  0
   26.6718  -20.9013  -13.9283 C   0  0  1  0  0  0  0  0  0  0  0  0
   27.3414  -20.2455  -12.7415 C   0  0  0  0  0  0  0  0  0  0  0  0
   26.5996  -20.3496  -11.4817 C   0  0  0  0  0  0  0  0  0  0  0  0
   25.9244  -19.2377  -11.0094 C   0  0  0  0  0  0  0  0  0  0  0  0
   25.2185  -19.3637   -9.8380 C   0  0  0  0  0  0  0  0  0  0  0  0
   25.1889  -20.5661   -9.1594 C   0  0  0  0  0  0  0  0  0  0  0  0
   25.8696  -21.6746   -9.6422 C   0  0  0  0  0  0  0  0  0  0  0  0
   26.5813  -21.5547  -10.8198 C   0  0  0  0  0  0  0  0  0  0  0  0
   25.3179  -20.3258  -14.1046 C   0  0  0  0  0  0  0  0  0  0  0  0
   25.1637  -19.1643  -14.5970 O   0  0  0  0  0  0  0  0  0  0  0  0
   19.9095  -20.6130  -14.7598 C   0  0  0  0  0  0  0  0  0  0  0  0
   21.0360  -20.3023  -15.6835 C   0  0  2  0  0  0  0  0  0  0  0  0
   20.7024  -20.7567  -17.1145 C   0  0  0  0  0  0  0  0  0  0  0  0
   22.3387  -20.7953  -15.2404 C   0  0  0  0  0  0  0  0  0  0  0  0
   22.8255  -20.3908  -13.8993 C   0  0  2  0  0  0  0  0  0  0  0  0
   24.1762  -21.0507  -13.7322 N   0  0  0  0  0  0  0  0  0  0  0  0
   22.1053  -20.7804  -12.7001 C   0  0  0  0  0  0  0  0  0  0  0  0
   21.3973  -19.9679  -12.0177 O   0  0  0  0  0  0  0  0  0  0  0  0
   22.1345  -22.0739  -12.2253 O   0  0  0  0  0  0  0  0  0  0  0  0
  2  3  1  0
  2  1  1  6
  4  5  1  0
  4  3  1  0
  5  9  1  0
  6  5  2  0
  7  2  1  0
  8  7  2  0
 10  7  1  0
 11 10  1  0
 12 13  1  0
 11 12  1  1
 13 14  2  0
 14 15  1  0
 16 15  2  0
 17 16  1  0
 18 17  2  0
 18 13  1  0
 19 11  1  0
 19 20  2  0
 22 21  1  1
 22 23  1  0
 25 24  1  6
 24 22  1  0
 25 26  1  0
 26 19  1  0
 27 25  1  0
 28 27  2  0
 29 27  1  0
M  END
$$$$
