EFL.pdb
     RDKit          3D

 29 29  0  0  1  0  0  0  0  0999 V2000
   28.6675  -19.8337  -16.3870 N   0  0  0  0  0  0  0  0  0  0  0  0
   28.1521  -18.9988  -15.3294 C   0  0  1  0  0  0  0  0  0  0  0  0
   27.3642  -17.8204  -15.8258 C   0  0  0  0  0  0  0  0  0  0  0  0
   26.5605  -18.1133  -17.0794 C   0  0  0  0  0  0  0  0  0  0  0  0
   27.2439  -17.4842  -18.2282 C   0  0  0  0  0  0  0  0  0  0  0  0
   27.0713  -16.2651  -18.4586 O   0  0  0  0  0  0  0  0  0  0  0  0
   27.1806  -19.8448  -14.5497 C   0  0  0  0  0  0  0  0  0  0  0  0
   26.6861  -20.8315  -15.1439 O   0  0  0  0  0  0  0  0  0  0  0  0
   28.0732  -18.2120  -19.0561 O   0  0  0  0  0  0  0  0  0  0  0  0
   26.8435  -19.5410  -13.2112 N   0  0  0  0  0  0  0  0  0  0  0  0
   25.9912  -20.4070  -12.4539 C   0  0  1  0  0  0  0  0  0  0  0  0
   26.3184  -20.3358  -10.9792 C   0  0  0  0  0  0  0  0  0  0  0  0
   27.5962  -20.9470  -10.6025 C   0  0  0  0  0  0  0  0  0  0  0  0
   28.5095  -21.2537  -11.5960 C   0  0  0  0  0  0  0  0  0  0  0  0
   29.7088  -21.8063  -11.2183 C   0  0  0  0  0  0  0  0  0  0  0  0
   29.9862  -22.0448   -9.8867 C   0  0  0  0  0  0  0  0  0  0  0  0
   29.0631  -21.7332   -8.8988 C   0  0  0  0  0  0  0  0  0  0  0  0
   27.8551  -21.1771   -9.2717 C   0  0  0  0  0  0  0  0  0  0  0  0
   24.5832  -19.9951  -12.6621 C   0  0  0  0  0  0  0  0  0  0  0  0
   24.2933  -18.7919  -12.9508 O   0  0  0  0  0  0  0  0  0  0  0  0
   21.4834  -21.4369  -16.9126 C   0  0  0  0  0  0  0  0  0  0  0  0
   21.3650  -20.7081  -15.6191 C   0  0  2  0  0  0  0  0  0  0  0  0
   21.1689  -19.2023  -15.8633 C   0  0  0  0  0  0  0  0  0  0  0  0
   22.4447  -20.9746  -14.6705 C   0  0  0  0  0  0  0  0  0  0  0  0
   22.2328  -20.6226  -13.2456 C   0  0  2  0  0  0  0  0  0  0  0  0
   23.5390  -20.9246  -12.5455 N   0  0  0  0  0  0  0  0  0  0  0  0
   21.2468  -21.3276  -12.4461 C   0  0  0  0  0  0  0  0  0  0  0  0
   21.3665  -22.5534  -12.1141 O   0  0  0  0  0  0  0  0  0  0  0  0
   20.1098  -20.7027  -11.9811 O   0  0  0  0  0  0  0  0  0  0  0  0
  2  3  1  0
  2  1  1  6
  4  5  1  0
  4  3  1  0
  5  9  1  0
  6  5  2  0
  7  2  1  0
  8  7  2  0
 10  7  1  0
 11 10  1  0
 12 13  1  0
 11 12  1  1
 13 14  2  0
 14 15  1  0
 16 15  2  0
 17 16  1  0
 18 17  2  0
 18 13  1  0
 19 11  1  0
 19 20  2  0
 22 21  1  6
 22 23  1  0
 25 24  1  6
 24 22  1  0
 25 26  1  0
 26 19  1  0
 27 25  1  0
 28 27  2  0
 29 27  1  0
M  END
$$$$
