EFL.pdb
     RDKit          3D

 29 29  0  0  1  0  0  0  0  0999 V2000
   26.4722  -19.6192  -17.2127 N   0  0  0  0  0  0  0  0  0  0  0  0
   26.8747  -21.0026  -17.2865 C   0  0  1  0  0  0  0  0  0  0  0  0
   28.0871  -21.2294  -18.1434 C   0  0  0  0  0  0  0  0  0  0  0  0
   28.2136  -20.2412  -19.2882 C   0  0  0  0  0  0  0  0  0  0  0  0
   29.4227  -20.5817  -20.0659 C   0  0  0  0  0  0  0  0  0  0  0  0
   29.4338  -21.6178  -20.7698 O   0  0  0  0  0  0  0  0  0  0  0  0
   27.2739  -21.4084  -15.8925 C   0  0  0  0  0  0  0  0  0  0  0  0
   27.6542  -22.5924  -15.7351 O   0  0  0  0  0  0  0  0  0  0  0  0
   30.5445  -19.7797  -20.0359 O   0  0  0  0  0  0  0  0  0  0  0  0
   27.2232  -20.4971  -14.8135 N   0  0  0  0  0  0  0  0  0  0  0  0
   27.4584  -20.9350  -13.4707 C   0  0  1  0  0  0  0  0  0  0  0  0
   27.8664  -19.7778  -12.5868 C   0  0  0  0  0  0  0  0  0  0  0  0
   28.0678  -20.1222  -11.1765 C   0  0  0  0  0  0  0  0  0  0  0  0
   29.0586  -21.0296  -10.8446 C   0  0  0  0  0  0  0  0  0  0  0  0
   29.2438  -21.3217   -9.5154 C   0  0  0  0  0  0  0  0  0  0  0  0
   28.4613  -20.7239   -8.5472 C   0  0  0  0  0  0  0  0  0  0  0  0
   27.4706  -19.8154   -8.8914 C   0  0  0  0  0  0  0  0  0  0  0  0
   27.2793  -19.5170  -10.2263 C   0  0  0  0  0  0  0  0  0  0  0  0
   26.2146  -21.5403  -12.9396 C   0  0  0  0  0  0  0  0  0  0  0  0
   26.2040  -22.7381  -12.5148 O   0  0  0  0  0  0  0  0  0  0  0  0
   22.0227  -21.4914   -9.8738 C   0  0  0  0  0  0  0  0  0  0  0  0
   23.4721  -21.5951   -9.5466 C   0  0  2  0  0  0  0  0  0  0  0  0
   23.7819  -20.8660   -8.2283 C   0  0  0  0  0  0  0  0  0  0  0  0
   24.3693  -21.1847  -10.6251 C   0  0  0  0  0  0  0  0  0  0  0  0
   23.8968  -21.3211  -12.0242 C   0  0  2  0  0  0  0  0  0  0  0  0
   25.0214  -20.8043  -12.8936 N   0  0  0  0  0  0  0  0  0  0  0  0
   22.7377  -20.5815  -12.4911 C   0  0  0  0  0  0  0  0  0  0  0  0
   22.8014  -19.3782  -12.9096 O   0  0  0  0  0  0  0  0  0  0  0  0
   21.4812  -21.1468  -12.5213 O   0  0  0  0  0  0  0  0  0  0  0  0
  2  3  1  0
  2  1  1  1
  4  5  1  0
  4  3  1  0
  5  9  1  0
  6  5  2  0
  7  2  1  0
  8  7  2  0
 10  7  1  0
 11 10  1  0
 12 13  1  0
 11 12  1  1
 13 14  2  0
 14 15  1  0
 16 15  2  0
 17 16  1  0
 18 17  2  0
 18 13  1  0
 19 11  1  0
 19 20  2  0
 22 21  1  6
 22 23  1  0
 25 24  1  1
 24 22  1  0
 25 26  1  0
 26 19  1  0
 27 25  1  0
 28 27  2  0
 29 27  1  0
M  END
$$$$
