EFL.pdb
     RDKit          3D

 29 29  0  0  1  0  0  0  0  0999 V2000
   27.3241  -20.2444  -17.4880 N   0  0  0  0  0  0  0  0  0  0  0  0
   27.3778  -21.6715  -17.2836 C   0  0  1  0  0  0  0  0  0  0  0  0
   28.7417  -22.2586  -17.5091 C   0  0  0  0  0  0  0  0  0  0  0  0
   29.1862  -22.2190  -18.9596 C   0  0  0  0  0  0  0  0  0  0  0  0
   29.5351  -20.8248  -19.3019 C   0  0  0  0  0  0  0  0  0  0  0  0
   30.4344  -20.2365  -18.6583 O   0  0  0  0  0  0  0  0  0  0  0  0
   27.0624  -21.9090  -15.8304 C   0  0  0  0  0  0  0  0  0  0  0  0
   27.0060  -23.1025  -15.4516 O   0  0  0  0  0  0  0  0  0  0  0  0
   28.8911  -20.1534  -20.3203 O   0  0  0  0  0  0  0  0  0  0  0  0
   26.8417  -20.8369  -14.9364 N   0  0  0  0  0  0  0  0  0  0  0  0
   26.4894  -21.0807  -13.5702 C   0  0  1  0  0  0  0  0  0  0  0  0
   27.2995  -20.2085  -12.6375 C   0  0  0  0  0  0  0  0  0  0  0  0
   26.9764  -20.3617  -11.2162 C   0  0  0  0  0  0  0  0  0  0  0  0
   27.7226  -21.2416  -10.4518 C   0  0  0  0  0  0  0  0  0  0  0  0
   27.4161  -21.3537   -9.1177 C   0  0  0  0  0  0  0  0  0  0  0  0
   26.3939  -20.6077   -8.5648 C   0  0  0  0  0  0  0  0  0  0  0  0
   25.6522  -19.7284   -9.3406 C   0  0  0  0  0  0  0  0  0  0  0  0
   25.9553  -19.6108  -10.6830 C   0  0  0  0  0  0  0  0  0  0  0  0
   25.0490  -20.7854  -13.3870 C   0  0  0  0  0  0  0  0  0  0  0  0
   24.5796  -19.6378  -13.6663 O   0  0  0  0  0  0  0  0  0  0  0  0
   19.9996  -24.1587  -13.5666 C   0  0  0  0  0  0  0  0  0  0  0  0
   20.5708  -22.8054  -13.3202 C   0  0  2  0  0  0  0  0  0  0  0  0
   19.9817  -21.7825  -14.3061 C   0  0  0  0  0  0  0  0  0  0  0  0
   22.0314  -22.7591  -13.2882 C   0  0  0  0  0  0  0  0  0  0  0  0
   22.6875  -21.4767  -12.9357 C   0  0  2  0  0  0  0  0  0  0  0  0
   24.1717  -21.7662  -12.9015 N   0  0  0  0  0  0  0  0  0  0  0  0
   22.4347  -20.8417  -11.6546 C   0  0  0  0  0  0  0  0  0  0  0  0
   21.6579  -19.8395  -11.5151 O   0  0  0  0  0  0  0  0  0  0  0  0
   23.0188  -21.2967  -10.4922 O   0  0  0  0  0  0  0  0  0  0  0  0
  2  3  1  0
  2  1  1  1
  4  5  1  0
  4  3  1  0
  5  9  1  0
  6  5  2  0
  7  2  1  0
  8  7  2  0
 10  7  1  0
 11 10  1  0
 12 13  1  0
 11 12  1  1
 13 14  2  0
 14 15  1  0
 16 15  2  0
 17 16  1  0
 18 17  2  0
 18 13  1  0
 19 11  1  0
 19 20  2  0
 22 21  1  6
 22 23  1  0
 25 24  1  1
 24 22  1  0
 25 26  1  0
 26 19  1  0
 27 25  1  0
 28 27  2  0
 29 27  1  0
M  END
$$$$
