EFL.pdb
     RDKit          3D

 29 29  0  0  1  0  0  0  0  0999 V2000
   27.6941  -21.4866  -13.1896 N   0  0  0  0  0  0  0  0  0  0  0  0
   27.4544  -20.2192  -12.5435 C   0  0  1  0  0  0  0  0  0  0  0  0
   26.3410  -19.4285  -13.1686 C   0  0  0  0  0  0  0  0  0  0  0  0
   26.7923  -18.5571  -14.3262 C   0  0  0  0  0  0  0  0  0  0  0  0
   26.6602  -19.3360  -15.5746 C   0  0  0  0  0  0  0  0  0  0  0  0
   25.5265  -19.7121  -15.9519 O   0  0  0  0  0  0  0  0  0  0  0  0
   27.0014  -20.5311  -11.1417 C   0  0  0  0  0  0  0  0  0  0  0  0
   26.4493  -21.6416  -10.9595 O   0  0  0  0  0  0  0  0  0  0  0  0
   27.7622  -19.6586  -16.3389 O   0  0  0  0  0  0  0  0  0  0  0  0
   27.1910  -19.6155  -10.0819 N   0  0  0  0  0  0  0  0  0  0  0  0
   26.6911  -19.8969   -8.7701 C   0  0  1  0  0  0  0  0  0  0  0  0
   27.2108  -18.8934   -7.7651 C   0  0  0  0  0  0  0  0  0  0  0  0
   27.8423  -19.4805   -6.5800 C   0  0  0  0  0  0  0  0  0  0  0  0
   27.2275  -19.3276   -5.3496 C   0  0  0  0  0  0  0  0  0  0  0  0
   27.8259  -19.9038   -4.2558 C   0  0  0  0  0  0  0  0  0  0  0  0
   29.0040  -20.6120   -4.3890 C   0  0  0  0  0  0  0  0  0  0  0  0
   29.6117  -20.7591   -5.6276 C   0  0  0  0  0  0  0  0  0  0  0  0
   29.0151  -20.1822   -6.7317 C   0  0  0  0  0  0  0  0  0  0  0  0
   25.2108  -19.8375   -8.7987 C   0  0  0  0  0  0  0  0  0  0  0  0
   24.6091  -18.8960   -9.4044 O   0  0  0  0  0  0  0  0  0  0  0  0
   21.8323  -22.4155  -11.9276 C   0  0  0  0  0  0  0  0  0  0  0  0
   21.7212  -21.7481  -10.6006 C   0  0  2  0  0  0  0  0  0  0  0  0
   20.8314  -20.4974  -10.6977 C   0  0  0  0  0  0  0  0  0  0  0  0
   23.0012  -21.4627   -9.9551 C   0  0  0  0  0  0  0  0  0  0  0  0
   22.9896  -20.9631   -8.5589 C   0  0  2  0  0  0  0  0  0  0  0  0
   24.4409  -20.8195   -8.1580 N   0  0  0  0  0  0  0  0  0  0  0  0
   22.4183  -21.7625   -7.4897 C   0  0  0  0  0  0  0  0  0  0  0  0
   21.1673  -21.8050   -7.2438 O   0  0  0  0  0  0  0  0  0  0  0  0
   23.2036  -22.5441   -6.6702 O   0  0  0  0  0  0  0  0  0  0  0  0
  2  3  1  0
  2  1  1  6
  4  5  1  0
  4  3  1  0
  5  9  1  0
  6  5  2  0
  7  2  1  0
  8  7  2  0
 10  7  1  0
 11 10  1  0
 12 13  1  0
 11 12  1  1
 13 14  2  0
 14 15  1  0
 16 15  2  0
 17 16  1  0
 18 17  2  0
 18 13  1  0
 19 11  1  0
 19 20  2  0
 22 21  1  6
 22 23  1  0
 25 24  1  6
 24 22  1  0
 25 26  1  0
 26 19  1  0
 27 25  1  0
 28 27  2  0
 29 27  1  0
M  END
$$$$
