EFL.pdb
     RDKit          3D

 29 29  0  0  1  0  0  0  0  0999 V2000
   25.9169  -22.1892  -13.0485 N   0  0  0  0  0  0  0  0  0  0  0  0
   25.3728  -21.0458  -12.3573 C   0  0  1  0  0  0  0  0  0  0  0  0
   23.8761  -20.9514  -12.4401 C   0  0  0  0  0  0  0  0  0  0  0  0
   23.3661  -20.6143  -13.8291 C   0  0  0  0  0  0  0  0  0  0  0  0
   23.8025  -19.2435  -14.1656 C   0  0  0  0  0  0  0  0  0  0  0  0
   23.2815  -18.2671  -13.5789 O   0  0  0  0  0  0  0  0  0  0  0  0
   25.6934  -21.2339  -10.8981 C   0  0  0  0  0  0  0  0  0  0  0  0
   25.4886  -22.3728  -10.4162 O   0  0  0  0  0  0  0  0  0  0  0  0
   24.7767  -19.0134  -15.1145 O   0  0  0  0  0  0  0  0  0  0  0  0
   26.2022  -20.1768  -10.1101 N   0  0  0  0  0  0  0  0  0  0  0  0
   26.5971  -20.3977   -8.7517 C   0  0  1  0  0  0  0  0  0  0  0  0
   27.6653  -19.4134   -8.3308 C   0  0  0  0  0  0  0  0  0  0  0  0
   28.1360  -19.5689   -6.9516 C   0  0  0  0  0  0  0  0  0  0  0  0
   27.7152  -18.6615   -5.9950 C   0  0  0  0  0  0  0  0  0  0  0  0
   28.1517  -18.8386   -4.7049 C   0  0  0  0  0  0  0  0  0  0  0  0
   28.9840  -19.8919   -4.3813 C   0  0  0  0  0  0  0  0  0  0  0  0
   29.3997  -20.7958   -5.3484 C   0  0  0  0  0  0  0  0  0  0  0  0
   28.9643  -20.6236   -6.6478 C   0  0  0  0  0  0  0  0  0  0  0  0
   25.4126  -20.2367   -7.8763 C   0  0  0  0  0  0  0  0  0  0  0  0
   24.6203  -19.2546   -8.0278 O   0  0  0  0  0  0  0  0  0  0  0  0
   21.2727  -20.7043   -7.4830 C   0  0  0  0  0  0  0  0  0  0  0  0
   22.1479  -21.9090   -7.4461 C   0  0  2  0  0  0  0  0  0  0  0  0
   21.3221  -23.1843   -7.6846 C   0  0  0  0  0  0  0  0  0  0  0  0
   22.9879  -22.0134   -6.2545 C   0  0  0  0  0  0  0  0  0  0  0  0
   23.9438  -20.9163   -5.9686 C   0  0  2  0  0  0  0  0  0  0  0  0
   25.1393  -21.1653   -6.8610 N   0  0  0  0  0  0  0  0  0  0  0  0
   24.5293  -20.7679   -4.6481 C   0  0  0  0  0  0  0  0  0  0  0  0
   25.6281  -21.3190   -4.3074 O   0  0  0  0  0  0  0  0  0  0  0  0
   23.9301  -20.0021   -3.6715 O   0  0  0  0  0  0  0  0  0  0  0  0
  2  3  1  0
  2  1  1  6
  4  5  1  0
  4  3  1  0
  5  9  1  0
  6  5  2  0
  7  2  1  0
  8  7  2  0
 10  7  1  0
 11 10  1  0
 12 13  1  0
 11 12  1  1
 13 14  2  0
 14 15  1  0
 16 15  2  0
 17 16  1  0
 18 17  2  0
 18 13  1  0
 19 11  1  0
 19 20  2  0
 22 21  1  1
 22 23  1  0
 25 24  1  1
 24 22  1  0
 25 26  1  0
 26 19  1  0
 27 25  1  0
 28 27  2  0
 29 27  1  0
M  END
$$$$
