EFL.pdb
     RDKit          3D

 29 29  0  0  1  0  0  0  0  0999 V2000
   28.5325  -19.6679  -13.6105 N   0  0  0  0  0  0  0  0  0  0  0  0
   27.7003  -20.8440  -13.5368 C   0  0  1  0  0  0  0  0  0  0  0  0
   28.3131  -22.0536  -14.1827 C   0  0  0  0  0  0  0  0  0  0  0  0
   29.1612  -21.7275  -15.3982 C   0  0  0  0  0  0  0  0  0  0  0  0
   28.2702  -21.2372  -16.4698 C   0  0  0  0  0  0  0  0  0  0  0  0
   27.3107  -21.9473  -16.8495 O   0  0  0  0  0  0  0  0  0  0  0  0
   27.5635  -21.1821  -12.0758 C   0  0  0  0  0  0  0  0  0  0  0  0
   26.9404  -22.2326  -11.7942 O   0  0  0  0  0  0  0  0  0  0  0  0
   28.4708  -20.0085  -17.0636 O   0  0  0  0  0  0  0  0  0  0  0  0
   28.1128  -20.3546  -11.0704 N   0  0  0  0  0  0  0  0  0  0  0  0
   27.7874  -20.5601   -9.6913 C   0  0  1  0  0  0  0  0  0  0  0  0
   28.7703  -19.8467   -8.7903 C   0  0  0  0  0  0  0  0  0  0  0  0
   28.4469  -19.9014   -7.3618 C   0  0  0  0  0  0  0  0  0  0  0  0
   27.5593  -18.9760   -6.8411 C   0  0  0  0  0  0  0  0  0  0  0  0
   27.2546  -19.0590   -5.5045 C   0  0  0  0  0  0  0  0  0  0  0  0
   27.8206  -20.0385   -4.7125 C   0  0  0  0  0  0  0  0  0  0  0  0
   28.7094  -20.9613   -5.2451 C   0  0  0  0  0  0  0  0  0  0  0  0
   29.0200  -20.8836   -6.5887 C   0  0  0  0  0  0  0  0  0  0  0  0
   26.4243  -20.0375   -9.4378 C   0  0  0  0  0  0  0  0  0  0  0  0
   26.0598  -18.9151   -9.9095 O   0  0  0  0  0  0  0  0  0  0  0  0
   21.2483  -20.9874  -10.0243 C   0  0  0  0  0  0  0  0  0  0  0  0
   22.3921  -20.3721  -10.7534 C   0  0  2  0  0  0  0  0  0  0  0  0
   22.2601  -20.6121  -12.2668 C   0  0  0  0  0  0  0  0  0  0  0  0
   23.7100  -20.7543  -10.2497 C   0  0  0  0  0  0  0  0  0  0  0  0
   24.0342  -20.4611   -8.8326 C   0  0  2  0  0  0  0  0  0  0  0  0
   25.5059  -20.7704   -8.6716 N   0  0  0  0  0  0  0  0  0  0  0  0
   23.4088  -21.2114   -7.7581 C   0  0  0  0  0  0  0  0  0  0  0  0
   22.2917  -20.8827   -7.2373 O   0  0  0  0  0  0  0  0  0  0  0  0
   23.9876  -22.3475   -7.2351 O   0  0  0  0  0  0  0  0  0  0  0  0
  2  3  1  0
  2  1  1  1
  4  5  1  0
  4  3  1  0
  5  9  1  0
  6  5  2  0
  7  2  1  0
  8  7  2  0
 10  7  1  0
 11 10  1  0
 12 13  1  0
 11 12  1  1
 13 14  2  0
 14 15  1  0
 16 15  2  0
 17 16  1  0
 18 17  2  0
 18 13  1  0
 19 11  1  0
 19 20  2  0
 22 21  1  1
 22 23  1  0
 25 24  1  6
 24 22  1  0
 25 26  1  0
 26 19  1  0
 27 25  1  0
 28 27  2  0
 29 27  1  0
M  END
$$$$
