EFL.pdb
     RDKit          3D

 29 29  0  0  1  0  0  0  0  0999 V2000
   15.8233  -24.4403    4.4258 N   0  0  0  0  0  0  0  0  0  0  0  0
   17.1043  -24.8588    4.9407 C   0  0  1  0  0  0  0  0  0  0  0  0
   18.2153  -24.7629    3.9346 C   0  0  0  0  0  0  0  0  0  0  0  0
   18.1264  -25.8024    2.8325 C   0  0  0  0  0  0  0  0  0  0  0  0
   18.9640  -26.9581    3.2137 C   0  0  0  0  0  0  0  0  0  0  0  0
   18.5487  -27.7649    4.0773 O   0  0  0  0  0  0  0  0  0  0  0  0
   17.4605  -23.8942    6.0408 C   0  0  0  0  0  0  0  0  0  0  0  0
   16.9628  -22.7460    5.9694 O   0  0  0  0  0  0  0  0  0  0  0  0
   20.1984  -27.1710    2.6363 O   0  0  0  0  0  0  0  0  0  0  0  0
   18.3145  -24.2666    7.1035 N   0  0  0  0  0  0  0  0  0  0  0  0
   18.6422  -23.3373    8.1423 C   0  0  1  0  0  0  0  0  0  0  0  0
   19.0973  -24.0586    9.3911 C   0  0  0  0  0  0  0  0  0  0  0  0
   19.4177  -23.1853   10.5237 C   0  0  0  0  0  0  0  0  0  0  0  0
   20.7411  -23.0378   10.9010 C   0  0  0  0  0  0  0  0  0  0  0  0
   21.0203  -22.1982   11.9515 C   0  0  0  0  0  0  0  0  0  0  0  0
   20.0061  -21.5260   12.6047 C   0  0  0  0  0  0  0  0  0  0  0  0
   18.6827  -21.6813   12.2178 C   0  0  0  0  0  0  0  0  0  0  0  0
   18.3950  -22.5241   11.1621 C   0  0  0  0  0  0  0  0  0  0  0  0
   19.7301  -22.4510    7.6664 C   0  0  0  0  0  0  0  0  0  0  0  0
   20.7658  -22.9335    7.1099 O   0  0  0  0  0  0  0  0  0  0  0  0
   20.8074  -20.7663    4.2643 C   0  0  0  0  0  0  0  0  0  0  0  0
   19.7286  -20.0150    4.9646 C   0  0  2  0  0  0  0  0  0  0  0  0
   19.0441  -19.0298    4.0023 C   0  0  0  0  0  0  0  0  0  0  0  0
   20.1466  -19.3684    6.2070 C   0  0  0  0  0  0  0  0  0  0  0  0
   20.7600  -20.2068    7.2653 C   0  0  2  0  0  0  0  0  0  0  0  0
   19.6405  -21.0596    7.8194 N   0  0  0  0  0  0  0  0  0  0  0  0
   21.3430  -19.5992    8.4483 C   0  0  0  0  0  0  0  0  0  0  0  0
   20.7518  -19.5670    9.5782 O   0  0  0  0  0  0  0  0  0  0  0  0
   22.5939  -19.0213    8.4246 O   0  0  0  0  0  0  0  0  0  0  0  0
  2  3  1  0
  2  1  1  6
  4  5  1  0
  4  3  1  0
  5  9  1  0
  6  5  2  0
  7  2  1  0
  8  7  2  0
 10  7  1  0
 11 10  1  0
 12 13  1  0
 11 12  1  1
 13 14  2  0
 14 15  1  0
 16 15  2  0
 17 16  1  0
 18 17  2  0
 18 13  1  0
 19 11  1  0
 19 20  2  0
 22 21  1  6
 22 23  1  0
 25 24  1  6
 24 22  1  0
 25 26  1  0
 26 19  1  0
 27 25  1  0
 28 27  2  0
 29 27  1  0
M  END
$$$$
