EFL.pdb
     RDKit          3D

 29 29  0  0  1  0  0  0  0  0999 V2000
   29.0385  -20.8100  -13.8892 N   0  0  0  0  0  0  0  0  0  0  0  0
   28.2847  -19.7902  -13.2014 C   0  0  1  0  0  0  0  0  0  0  0  0
   27.6041  -18.8217  -14.1256 C   0  0  0  0  0  0  0  0  0  0  0  0
   28.5683  -18.0197  -14.9801 C   0  0  0  0  0  0  0  0  0  0  0  0
   28.2108  -18.2206  -16.3994 C   0  0  0  0  0  0  0  0  0  0  0  0
   27.0531  -17.9450  -16.7906 O   0  0  0  0  0  0  0  0  0  0  0  0
   27.1809  -20.4982  -12.4612 C   0  0  0  0  0  0  0  0  0  0  0  0
   26.9070  -21.6634  -12.8334 O   0  0  0  0  0  0  0  0  0  0  0  0
   29.1277  -18.7057  -17.3086 O   0  0  0  0  0  0  0  0  0  0  0  0
   26.4878  -19.8785  -11.3968 N   0  0  0  0  0  0  0  0  0  0  0  0
   25.4557  -20.5740  -10.6890 C   0  0  1  0  0  0  0  0  0  0  0  0
   25.1997  -19.9382   -9.3409 C   0  0  0  0  0  0  0  0  0  0  0  0
   26.2986  -20.0700   -8.3801 C   0  0  0  0  0  0  0  0  0  0  0  0
   26.8521  -21.3199   -8.1644 C   0  0  0  0  0  0  0  0  0  0  0  0
   27.8946  -21.4167   -7.2755 C   0  0  0  0  0  0  0  0  0  0  0  0
   28.3694  -20.2966   -6.6221 C   0  0  0  0  0  0  0  0  0  0  0  0
   27.8069  -19.0481   -6.8460 C   0  0  0  0  0  0  0  0  0  0  0  0
   26.7582  -18.9437   -7.7388 C   0  0  0  0  0  0  0  0  0  0  0  0
   24.2117  -20.5320  -11.4928 C   0  0  0  0  0  0  0  0  0  0  0  0
   23.9059  -19.4974  -12.1647 O   0  0  0  0  0  0  0  0  0  0  0  0
   23.2416  -22.1033  -15.1779 C   0  0  0  0  0  0  0  0  0  0  0  0
   23.0729  -23.1467  -14.1284 C   0  0  2  0  0  0  0  0  0  0  0  0
   22.8674  -24.5295  -14.7694 C   0  0  0  0  0  0  0  0  0  0  0  0
   22.0471  -22.8456  -13.1316 C   0  0  0  0  0  0  0  0  0  0  0  0
   22.1206  -21.5492  -12.4153 C   0  0  2  0  0  0  0  0  0  0  0  0
   23.3441  -21.6336  -11.5301 N   0  0  0  0  0  0  0  0  0  0  0  0
   21.0664  -21.1456  -11.5019 C   0  0  0  0  0  0  0  0  0  0  0  0
   21.1727  -21.2316  -10.2336 O   0  0  0  0  0  0  0  0  0  0  0  0
   19.8730  -20.6270  -11.9562 O   0  0  0  0  0  0  0  0  0  0  0  0
  2  3  1  0
  2  1  1  6
  4  5  1  0
  4  3  1  0
  5  9  1  0
  6  5  2  0
  7  2  1  0
  8  7  2  0
 10  7  1  0
 11 10  1  0
 12 13  1  0
 11 12  1  1
 13 14  2  0
 14 15  1  0
 16 15  2  0
 17 16  1  0
 18 17  2  0
 18 13  1  0
 19 11  1  0
 19 20  2  0
 22 21  1  6
 22 23  1  0
 25 24  1  1
 24 22  1  0
 25 26  1  0
 26 19  1  0
 27 25  1  0
 28 27  2  0
 29 27  1  0
M  END
$$$$
