EFL.pdb
     RDKit          3D

 29 29  0  0  1  0  0  0  0  0999 V2000
   27.1518  -21.9282  -13.6260 N   0  0  0  0  0  0  0  0  0  0  0  0
   27.2448  -20.6600  -12.9447 C   0  0  1  0  0  0  0  0  0  0  0  0
   26.2220  -19.6586  -13.3994 C   0  0  0  0  0  0  0  0  0  0  0  0
   26.5957  -18.9543  -14.6907 C   0  0  0  0  0  0  0  0  0  0  0  0
   26.5819  -19.9479  -15.7839 C   0  0  0  0  0  0  0  0  0  0  0  0
   27.6644  -20.4052  -16.2177 O   0  0  0  0  0  0  0  0  0  0  0  0
   26.9416  -20.9287  -11.4944 C   0  0  0  0  0  0  0  0  0  0  0  0
   26.1580  -21.8751  -11.2463 O   0  0  0  0  0  0  0  0  0  0  0  0
   25.3982  -20.3869  -16.3395 O   0  0  0  0  0  0  0  0  0  0  0  0
   27.5144  -20.1514  -10.4624 N   0  0  0  0  0  0  0  0  0  0  0  0
   27.2733  -20.4654   -9.0864 C   0  0  1  0  0  0  0  0  0  0  0  0
   28.1783  -19.6612   -8.1802 C   0  0  0  0  0  0  0  0  0  0  0  0
   28.0087  -19.9265   -6.7488 C   0  0  0  0  0  0  0  0  0  0  0  0
   27.3983  -18.9681   -5.9587 C   0  0  0  0  0  0  0  0  0  0  0  0
   27.2308  -19.2466   -4.6243 C   0  0  0  0  0  0  0  0  0  0  0  0
   27.6609  -20.4480   -4.0961 C   0  0  0  0  0  0  0  0  0  0  0  0
   28.2716  -21.4018   -4.8976 C   0  0  0  0  0  0  0  0  0  0  0  0
   28.4430  -21.1281   -6.2405 C   0  0  0  0  0  0  0  0  0  0  0  0
   25.8604  -20.1559   -8.7650 C   0  0  0  0  0  0  0  0  0  0  0  0
   25.3538  -19.0323   -9.0750 O   0  0  0  0  0  0  0  0  0  0  0  0
   21.0763  -21.1645  -10.8934 C   0  0  0  0  0  0  0  0  0  0  0  0
   21.5719  -20.7993   -9.5371 C   0  0  2  0  0  0  0  0  0  0  0  0
   21.0854  -19.3941   -9.1443 C   0  0  0  0  0  0  0  0  0  0  0  0
   23.0143  -20.9516   -9.3559 C   0  0  0  0  0  0  0  0  0  0  0  0
   23.5718  -20.8037   -7.9897 C   0  0  2  0  0  0  0  0  0  0  0  0
   25.0506  -21.0967   -8.1116 N   0  0  0  0  0  0  0  0  0  0  0  0
   23.1390  -21.6771   -6.9134 C   0  0  0  0  0  0  0  0  0  0  0  0
   23.7059  -22.7885   -6.6475 O   0  0  0  0  0  0  0  0  0  0  0  0
   22.0804  -21.3483   -6.0945 O   0  0  0  0  0  0  0  0  0  0  0  0
  2  3  1  0
  2  1  1  6
  4  5  1  0
  4  3  1  0
  5  9  1  0
  6  5  2  0
  7  2  1  0
  8  7  2  0
 10  7  1  0
 11 10  1  0
 12 13  1  0
 11 12  1  1
 13 14  2  0
 14 15  1  0
 16 15  2  0
 17 16  1  0
 18 17  2  0
 18 13  1  0
 19 11  1  0
 19 20  2  0
 22 21  1  6
 22 23  1  0
 25 24  1  6
 24 22  1  0
 25 26  1  0
 26 19  1  0
 27 25  1  0
 28 27  2  0
 29 27  1  0
M  END
$$$$
