EFL.pdb
     RDKit          3D

 29 29  0  0  1  0  0  0  0  0999 V2000
   20.4816  -27.3703  -11.8455 N   0  0  0  0  0  0  0  0  0  0  0  0
   19.1768  -26.9095  -11.4377 C   0  0  1  0  0  0  0  0  0  0  0  0
   18.2126  -28.0229  -11.1436 C   0  0  0  0  0  0  0  0  0  0  0  0
   17.5514  -28.5955  -12.3838 C   0  0  0  0  0  0  0  0  0  0  0  0
   16.4885  -27.6652  -12.8166 C   0  0  0  0  0  0  0  0  0  0  0  0
   16.7096  -26.8679  -13.7571 O   0  0  0  0  0  0  0  0  0  0  0  0
   19.3680  -26.1759  -10.1366 C   0  0  0  0  0  0  0  0  0  0  0  0
   20.3351  -26.5323   -9.4231 O   0  0  0  0  0  0  0  0  0  0  0  0
   15.2514  -27.6556  -12.2066 O   0  0  0  0  0  0  0  0  0  0  0  0
   18.4990  -25.1345   -9.7398 N   0  0  0  0  0  0  0  0  0  0  0  0
   18.7035  -24.4375   -8.5059 C   0  0  1  0  0  0  0  0  0  0  0  0
   18.3657  -22.9705   -8.6496 C   0  0  0  0  0  0  0  0  0  0  0  0
   19.4272  -22.1496   -9.2390 C   0  0  0  0  0  0  0  0  0  0  0  0
   19.5022  -22.0417  -10.6167 C   0  0  0  0  0  0  0  0  0  0  0  0
   20.4918  -21.2505  -11.1467 C   0  0  0  0  0  0  0  0  0  0  0  0
   21.3798  -20.5869  -10.3231 C   0  0  0  0  0  0  0  0  0  0  0  0
   21.2954  -20.7023   -8.9430 C   0  0  0  0  0  0  0  0  0  0  0  0
   20.3023  -21.4963   -8.4035 C   0  0  0  0  0  0  0  0  0  0  0  0
   17.8355  -25.0390   -7.4666 C   0  0  0  0  0  0  0  0  0  0  0  0
   16.6969  -25.5173   -7.7668 O   0  0  0  0  0  0  0  0  0  0  0  0
   18.5968  -27.3077   -1.8204 C   0  0  0  0  0  0  0  0  0  0  0  0
   17.6536  -27.0090   -2.9338 C   0  0  2  0  0  0  0  0  0  0  0  0
   16.9231  -28.2865   -3.3806 C   0  0  0  0  0  0  0  0  0  0  0  0
   18.2508  -26.2951   -4.0609 C   0  0  0  0  0  0  0  0  0  0  0  0
   17.3547  -25.7912   -5.1296 C   0  0  2  0  0  0  0  0  0  0  0  0
   18.2517  -25.0940   -6.1281 N   0  0  0  0  0  0  0  0  0  0  0  0
   16.3355  -24.7993   -4.8366 C   0  0  0  0  0  0  0  0  0  0  0  0
   16.4644  -23.5627   -5.1219 O   0  0  0  0  0  0  0  0  0  0  0  0
   15.1444  -25.1405   -4.2332 O   0  0  0  0  0  0  0  0  0  0  0  0
  2  3  1  0
  2  1  1  1
  4  5  1  0
  4  3  1  0
  5  9  1  0
  6  5  2  0
  7  2  1  0
  8  7  2  0
 10  7  1  0
 11 10  1  0
 12 13  1  0
 11 12  1  6
 13 14  2  0
 14 15  1  0
 16 15  2  0
 17 16  1  0
 18 17  2  0
 18 13  1  0
 19 11  1  0
 19 20  2  0
 22 21  1  1
 22 23  1  0
 25 24  1  1
 24 22  1  0
 25 26  1  0
 26 19  1  0
 27 25  1  0
 28 27  2  0
 29 27  1  0
M  END
$$$$
