DCS.pdb
     RDKit          3D

 21 20  0  0  1  0  0  0  0  0999 V2000
   -2.8517  -24.3907   23.9278 N   0  0  0  0  0  0  0  0  0  0  0  0
   -4.2851  -24.3148   24.1104 C   0  0  1  0  0  0  0  0  0  0  0  0
   -4.9395  -25.6003   23.6337 C   0  0  0  0  0  0  0  0  0  0  0  0
   -5.1863  -25.5011   22.1841 C   0  0  0  0  0  0  0  0  0  0  0  0
   -5.7703  -26.4475   21.5555 O   0  0  0  0  0  0  0  0  0  0  0  0
   -4.5534  -24.0687   25.5450 C   0  0  0  0  0  0  0  0  0  0  0  0
   -3.9996  -24.7926   26.4065 O   0  0  0  0  0  0  0  0  0  0  0  0
   -4.8176  -24.4129   21.4165 O   0  0  0  0  0  0  0  0  0  0  0  0
   -5.4077  -23.0538   26.0193 N   0  0  0  0  0  0  0  0  0  0  0  0
   -5.5377  -22.6730   27.4236 C   0  0  1  0  0  0  0  0  0  0  0  0
   -5.0593  -21.2337   27.4852 C   0  0  0  0  0  0  0  0  0  0  0  0
   -3.2799  -21.0607   27.4028 S   0  0  0  0  0  0  0  0  0  0  0  0
   -6.9043  -22.8742   27.9074 C   0  0  0  0  0  0  0  0  0  0  0  0
   -7.8564  -22.3875   27.2049 O   0  0  0  0  0  0  0  0  0  0  0  0
   -7.7393  -24.3220   31.5827 O   0  0  0  0  0  0  0  0  0  0  0  0
   -8.6702  -24.7343   30.6401 C   0  0  0  0  0  0  0  0  0  0  0  0
   -8.6772  -23.7839   29.4355 C   0  0  2  0  0  0  0  0  0  0  0  0
   -7.2944  -23.5486   29.0677 N   0  0  0  0  0  0  0  0  0  0  0  0
   -9.3145  -22.5132   29.9235 C   0  0  0  0  0  0  0  0  0  0  0  0
  -10.6746  -22.4834   30.1928 O   0  0  0  0  0  0  0  0  0  0  0  0
   -8.6641  -21.4621   30.1014 O   0  0  0  0  0  0  0  0  0  0  0  0
  2  1  1  1
  3  2  1  0
  3  4  1  0
  4  5  2  0
  4  8  1  0
  6  2  1  0
  7  6  2  0
  9  6  1  0
 10 13  1  0
 10  9  1  0
 10 11  1  6
 12 11  1  0
 13 18  1  0
 14 13  2  0
 16 15  1  0
 17 16  1  1
 17 19  1  0
 18 17  1  0
 19 21  2  0
 19 20  1  0
M  END
$$$$
