DCS.pdb
     RDKit          3D

 21 20  0  0  1  0  0  0  0  0999 V2000
   10.1838  -16.6416   18.7603 N   0  0  0  0  0  0  0  0  0  0  0  0
   10.0614  -17.7848   19.6388 C   0  0  1  0  0  0  0  0  0  0  0  0
   11.1349  -18.8092   19.3129 C   0  0  0  0  0  0  0  0  0  0  0  0
   10.8909  -19.3427   17.9609 C   0  0  0  0  0  0  0  0  0  0  0  0
    9.8516  -18.9997   17.3021 O   0  0  0  0  0  0  0  0  0  0  0  0
   10.1739  -17.3060   21.0347 C   0  0  0  0  0  0  0  0  0  0  0  0
   11.0835  -16.4964   21.3350 O   0  0  0  0  0  0  0  0  0  0  0  0
   11.7388  -20.2264   17.3211 O   0  0  0  0  0  0  0  0  0  0  0  0
    9.3092  -17.7067   22.0723 N   0  0  0  0  0  0  0  0  0  0  0  0
    9.4273  -17.2690   23.4610 C   0  0  1  0  0  0  0  0  0  0  0  0
    8.2049  -16.4024   23.7040 C   0  0  0  0  0  0  0  0  0  0  0  0
    7.9710  -15.9497   25.4197 S   0  0  0  0  0  0  0  0  0  0  0  0
    9.5478  -18.4082   24.3719 C   0  0  0  0  0  0  0  0  0  0  0  0
    8.5852  -19.2507   24.3936 O   0  0  0  0  0  0  0  0  0  0  0  0
   13.0520  -19.6521   25.7608 O   0  0  0  0  0  0  0  0  0  0  0  0
   12.0080  -20.5657   25.7715 C   0  0  0  0  0  0  0  0  0  0  0  0
   10.6784  -19.8637   26.0777 C   0  0  2  0  0  0  0  0  0  0  0  0
   10.6121  -18.6858   25.2344 N   0  0  0  0  0  0  0  0  0  0  0  0
   10.7505  -19.4692   27.5261 C   0  0  0  0  0  0  0  0  0  0  0  0
   10.8600  -20.4481   28.5025 O   0  0  0  0  0  0  0  0  0  0  0  0
   10.7159  -18.2780   27.8994 O   0  0  0  0  0  0  0  0  0  0  0  0
  2  1  1  6
  3  2  1  0
  3  4  1  0
  4  5  2  0
  4  8  1  0
  6  2  1  0
  7  6  2  0
  9  6  1  0
 10 13  1  0
 10  9  1  0
 10 11  1  1
 12 11  1  0
 13 18  1  0
 14 13  2  0
 16 15  1  0
 17 16  1  6
 17 19  1  0
 18 17  1  0
 19 21  2  0
 19 20  1  0
M  END
$$$$
