DCS.pdb
     RDKit          3D

 21 20  0  0  1  0  0  0  0  0999 V2000
   11.4408  -17.7048   16.0397 N   0  0  0  0  0  0  0  0  0  0  0  0
   12.5089  -18.0623   16.9480 C   0  0  1  0  0  0  0  0  0  0  0  0
   13.8502  -17.9543   16.2426 C   0  0  0  0  0  0  0  0  0  0  0  0
   13.9686  -19.0562   15.2711 C   0  0  0  0  0  0  0  0  0  0  0  0
   13.6516  -20.2500   15.5968 O   0  0  0  0  0  0  0  0  0  0  0  0
   12.4375  -17.1605   18.1193 C   0  0  0  0  0  0  0  0  0  0  0  0
   12.7109  -15.9449   17.9763 O   0  0  0  0  0  0  0  0  0  0  0  0
   14.4169  -18.8900   13.9746 O   0  0  0  0  0  0  0  0  0  0  0  0
   12.0750  -17.5843   19.4132 N   0  0  0  0  0  0  0  0  0  0  0  0
   11.9494  -16.6979   20.5675 C   0  0  1  0  0  0  0  0  0  0  0  0
   10.4803  -16.7526   20.9455 C   0  0  0  0  0  0  0  0  0  0  0  0
   10.0921  -15.8814   22.4599 S   0  0  0  0  0  0  0  0  0  0  0  0
   12.8623  -17.0885   21.6428 C   0  0  0  0  0  0  0  0  0  0  0  0
   12.8730  -18.3200   21.9894 O   0  0  0  0  0  0  0  0  0  0  0  0
   16.3919  -15.2745   22.6784 O   0  0  0  0  0  0  0  0  0  0  0  0
   15.5592  -15.5623   23.7503 C   0  0  0  0  0  0  0  0  0  0  0  0
   14.6135  -16.7201   23.4046 C   0  0  2  0  0  0  0  0  0  0  0  0
   13.7383  -16.2563   22.3453 N   0  0  0  0  0  0  0  0  0  0  0  0
   13.8261  -16.9900   24.6560 C   0  0  0  0  0  0  0  0  0  0  0  0
   14.4605  -17.5238   25.7678 O   0  0  0  0  0  0  0  0  0  0  0  0
   12.6035  -16.7515   24.7437 O   0  0  0  0  0  0  0  0  0  0  0  0
  2  1  1  6
  3  2  1  0
  3  4  1  0
  4  5  2  0
  4  8  1  0
  6  2  1  0
  7  6  2  0
  9  6  1  0
 10 13  1  0
 10  9  1  0
 10 11  1  1
 12 11  1  0
 13 18  1  0
 14 13  2  0
 16 15  1  0
 17 16  1  1
 17 19  1  0
 18 17  1  0
 19 21  2  0
 19 20  1  0
M  END
$$$$
