DCS.pdb
     RDKit          3D

 21 20  0  0  1  0  0  0  0  0999 V2000
    7.8260  -14.0743   20.1135 N   0  0  0  0  0  0  0  0  0  0  0  0
    7.5165  -15.1640   21.0137 C   0  0  1  0  0  0  0  0  0  0  0  0
    7.9972  -16.4791   20.4241 C   0  0  0  0  0  0  0  0  0  0  0  0
    7.2226  -16.7665   19.2038 C   0  0  0  0  0  0  0  0  0  0  0  0
    5.9483  -16.8462   19.2437 O   0  0  0  0  0  0  0  0  0  0  0  0
    8.1640  -14.8834   22.3147 C   0  0  0  0  0  0  0  0  0  0  0  0
    9.3751  -14.5584   22.3407 O   0  0  0  0  0  0  0  0  0  0  0  0
    7.7948  -16.9658   17.9619 O   0  0  0  0  0  0  0  0  0  0  0  0
    7.4975  -14.9583   23.5537 N   0  0  0  0  0  0  0  0  0  0  0  0
    8.1221  -14.6836   24.8453 C   0  0  1  0  0  0  0  0  0  0  0  0
    7.0429  -13.9998   25.6650 C   0  0  0  0  0  0  0  0  0  0  0  0
    7.2030  -12.2182   25.7255 S   0  0  0  0  0  0  0  0  0  0  0  0
    8.6551  -15.9045   25.4515 C   0  0  0  0  0  0  0  0  0  0  0  0
    7.8878  -16.9275   25.4902 O   0  0  0  0  0  0  0  0  0  0  0  0
   12.4600  -18.6052   26.6629 O   0  0  0  0  0  0  0  0  0  0  0  0
   11.9047  -17.4395   26.1550 C   0  0  0  0  0  0  0  0  0  0  0  0
   10.4141  -17.3523   26.5081 C   0  0  2  0  0  0  0  0  0  0  0  0
    9.9276  -16.0836   26.0013 N   0  0  0  0  0  0  0  0  0  0  0  0
   10.3494  -17.3777   28.0094 C   0  0  0  0  0  0  0  0  0  0  0  0
   10.5994  -18.5599   28.6902 O   0  0  0  0  0  0  0  0  0  0  0  0
   10.0757  -16.3646   28.6862 O   0  0  0  0  0  0  0  0  0  0  0  0
  2  1  1  6
  3  2  1  0
  3  4  1  0
  4  5  2  0
  4  8  1  0
  6  2  1  0
  7  6  2  0
  9  6  1  0
 10 13  1  0
 10  9  1  0
 10 11  1  1
 12 11  1  0
 13 18  1  0
 14 13  2  0
 16 15  1  0
 17 16  1  1
 17 19  1  0
 18 17  1  0
 19 21  2  0
 19 20  1  0
M  END
$$$$
