DCS.pdb
     RDKit          3D

 21 20  0  0  1  0  0  0  0  0999 V2000
    9.0275  -17.2697   16.1718 N   0  0  0  0  0  0  0  0  0  0  0  0
    8.0481  -17.2755   17.2368 C   0  0  1  0  0  0  0  0  0  0  0  0
    7.7020  -18.7048   17.6182 C   0  0  0  0  0  0  0  0  0  0  0  0
    6.9615  -19.3292   16.5074 C   0  0  0  0  0  0  0  0  0  0  0  0
    7.5121  -20.2195   15.7753 O   0  0  0  0  0  0  0  0  0  0  0  0
    8.6117  -16.5289   18.3838 C   0  0  0  0  0  0  0  0  0  0  0  0
    9.7752  -16.7885   18.7736 O   0  0  0  0  0  0  0  0  0  0  0  0
    5.6569  -19.0112   16.1814 O   0  0  0  0  0  0  0  0  0  0  0  0
    7.9145  -15.5240   19.0831 N   0  0  0  0  0  0  0  0  0  0  0  0
    8.4546  -14.7827   20.2200 C   0  0  1  0  0  0  0  0  0  0  0  0
    7.4124  -13.7228   20.5275 C   0  0  0  0  0  0  0  0  0  0  0  0
    7.0917  -12.6094   19.1634 S   0  0  0  0  0  0  0  0  0  0  0  0
    8.7576  -15.6720   21.3423 C   0  0  0  0  0  0  0  0  0  0  0  0
    7.9129  -16.5955   21.6080 O   0  0  0  0  0  0  0  0  0  0  0  0
   12.4416  -16.2689   22.5736 O   0  0  0  0  0  0  0  0  0  0  0  0
   11.5059  -17.2368   22.9095 C   0  0  0  0  0  0  0  0  0  0  0  0
   10.1487  -16.5918   23.2198 C   0  0  2  0  0  0  0  0  0  0  0  0
    9.8829  -15.6273   22.1701 N   0  0  0  0  0  0  0  0  0  0  0  0
   10.3212  -15.8962   24.5409 C   0  0  0  0  0  0  0  0  0  0  0  0
   10.5366  -16.6424   25.6899 O   0  0  0  0  0  0  0  0  0  0  0  0
   10.2790  -14.6533   24.6550 O   0  0  0  0  0  0  0  0  0  0  0  0
  2  1  1  6
  3  2  1  0
  3  4  1  0
  4  5  2  0
  4  8  1  0
  6  2  1  0
  7  6  2  0
  9  6  1  0
 10 13  1  0
 10  9  1  0
 10 11  1  1
 12 11  1  0
 13 18  1  0
 14 13  2  0
 16 15  1  0
 17 16  1  6
 17 19  1  0
 18 17  1  0
 19 21  2  0
 19 20  1  0
M  END
$$$$
