DCS.pdb
     RDKit          3D

 21 20  0  0  1  0  0  0  0  0999 V2000
    7.2244  -15.9813   21.2899 N   0  0  0  0  0  0  0  0  0  0  0  0
    8.6445  -16.0621   21.5551 C   0  0  1  0  0  0  0  0  0  0  0  0
    9.4284  -15.5906   20.3421 C   0  0  0  0  0  0  0  0  0  0  0  0
    9.2262  -16.5493   19.2411 C   0  0  0  0  0  0  0  0  0  0  0  0
    8.5780  -16.2121   18.1933 O   0  0  0  0  0  0  0  0  0  0  0  0
    8.9375  -15.2340   22.7463 C   0  0  0  0  0  0  0  0  0  0  0  0
   10.1282  -14.9483   23.0180 O   0  0  0  0  0  0  0  0  0  0  0  0
    9.7060  -17.8450   19.2553 O   0  0  0  0  0  0  0  0  0  0  0  0
    7.9478  -14.7336   23.6152 N   0  0  0  0  0  0  0  0  0  0  0  0
    8.2253  -14.0206   24.8596 C   0  0  1  0  0  0  0  0  0  0  0  0
    6.9854  -13.1833   25.1163 C   0  0  0  0  0  0  0  0  0  0  0  0
    6.9321  -12.4554   26.7505 S   0  0  0  0  0  0  0  0  0  0  0  0
    8.5609  -14.9464   25.9423 C   0  0  0  0  0  0  0  0  0  0  0  0
    7.7005  -15.8463   26.2371 O   0  0  0  0  0  0  0  0  0  0  0  0
   12.1597  -16.0158   26.7791 O   0  0  0  0  0  0  0  0  0  0  0  0
   11.1576  -16.7802   27.3591 C   0  0  0  0  0  0  0  0  0  0  0  0
    9.9796  -15.8941   27.7850 C   0  0  2  0  0  0  0  0  0  0  0  0
    9.7333  -14.9603   26.7031 N   0  0  0  0  0  0  0  0  0  0  0  0
   10.4433  -15.1637   29.0139 C   0  0  0  0  0  0  0  0  0  0  0  0
   10.8021  -15.8790   30.1466 O   0  0  0  0  0  0  0  0  0  0  0  0
   10.5222  -13.9184   29.0642 O   0  0  0  0  0  0  0  0  0  0  0  0
  2  1  1  6
  3  2  1  0
  3  4  1  0
  4  5  2  0
  4  8  1  0
  6  2  1  0
  7  6  2  0
  9  6  1  0
 10 13  1  0
 10  9  1  0
 10 11  1  1
 12 11  1  0
 13 18  1  0
 14 13  2  0
 16 15  1  0
 17 16  1  6
 17 19  1  0
 18 17  1  0
 19 21  2  0
 19 20  1  0
M  END
$$$$
