DCS.pdb
     RDKit          3D

 21 20  0  0  1  0  0  0  0  0999 V2000
   10.9508  -18.3733   15.9940 N   0  0  0  0  0  0  0  0  0  0  0  0
   10.7457  -19.0001   17.2819 C   0  0  1  0  0  0  0  0  0  0  0  0
   11.7239  -20.1481   17.4640 C   0  0  0  0  0  0  0  0  0  0  0  0
   11.4043  -21.2066   16.4896 C   0  0  0  0  0  0  0  0  0  0  0  0
   12.2960  -21.6449   15.6867 O   0  0  0  0  0  0  0  0  0  0  0  0
   10.9192  -17.9679   18.3283 C   0  0  0  0  0  0  0  0  0  0  0  0
   11.9406  -17.2402   18.3100 O   0  0  0  0  0  0  0  0  0  0  0  0
   10.1566  -21.7885   16.3717 O   0  0  0  0  0  0  0  0  0  0  0  0
    9.9944  -17.7421   19.3670 N   0  0  0  0  0  0  0  0  0  0  0  0
   10.1192  -16.6863   20.3688 C   0  0  1  0  0  0  0  0  0  0  0  0
    8.6940  -16.2539   20.6620 C   0  0  0  0  0  0  0  0  0  0  0  0
    7.7067  -17.5160   21.4591 S   0  0  0  0  0  0  0  0  0  0  0  0
   10.8613  -17.1486   21.5426 C   0  0  0  0  0  0  0  0  0  0  0  0
   10.8718  -18.4065   21.7761 O   0  0  0  0  0  0  0  0  0  0  0  0
   14.2025  -16.4747   24.9569 O   0  0  0  0  0  0  0  0  0  0  0  0
   13.4626  -15.9915   23.8873 C   0  0  0  0  0  0  0  0  0  0  0  0
   12.2479  -16.8902   23.6202 C   0  0  2  0  0  0  0  0  0  0  0  0
   11.5717  -16.3602   22.4520 N   0  0  0  0  0  0  0  0  0  0  0  0
   11.3732  -16.7640   24.8358 C   0  0  0  0  0  0  0  0  0  0  0  0
   11.6583  -17.5089   25.9705 O   0  0  0  0  0  0  0  0  0  0  0  0
   10.3822  -16.0051   24.8732 O   0  0  0  0  0  0  0  0  0  0  0  0
  2  1  1  6
  3  2  1  0
  3  4  1  0
  4  5  2  0
  4  8  1  0
  6  2  1  0
  7  6  2  0
  9  6  1  0
 10 13  1  0
 10  9  1  0
 10 11  1  1
 12 11  1  0
 13 18  1  0
 14 13  2  0
 16 15  1  0
 17 16  1  1
 17 19  1  0
 18 17  1  0
 19 21  2  0
 19 20  1  0
M  END
$$$$
