DCS.pdb
     RDKit          3D

 21 20  0  0  1  0  0  0  0  0999 V2000
    8.0143  -17.4811   20.0489 N   0  0  0  0  0  0  0  0  0  0  0  0
    9.4490  -17.3115   19.9687 C   0  0  1  0  0  0  0  0  0  0  0  0
    9.8277  -16.7073   18.6271 C   0  0  0  0  0  0  0  0  0  0  0  0
    9.5590  -17.6944   17.5662 C   0  0  0  0  0  0  0  0  0  0  0  0
    9.9355  -18.9084   17.6941 O   0  0  0  0  0  0  0  0  0  0  0  0
    9.8733  -16.4470   21.0926 C   0  0  0  0  0  0  0  0  0  0  0  0
   11.0477  -16.0078   21.1203 O   0  0  0  0  0  0  0  0  0  0  0  0
    8.9007  -17.3942   16.3890 O   0  0  0  0  0  0  0  0  0  0  0  0
    9.0286  -16.0755   22.1572 N   0  0  0  0  0  0  0  0  0  0  0  0
    9.4628  -15.3240   23.3322 C   0  0  1  0  0  0  0  0  0  0  0  0
    8.2470  -14.5186   23.7535 C   0  0  0  0  0  0  0  0  0  0  0  0
    7.6022  -14.9726   25.3601 S   0  0  0  0  0  0  0  0  0  0  0  0
    9.9856  -16.2123   24.3714 C   0  0  0  0  0  0  0  0  0  0  0  0
    9.3111  -17.2654   24.6415 O   0  0  0  0  0  0  0  0  0  0  0  0
   13.6516  -15.6689   25.8837 O   0  0  0  0  0  0  0  0  0  0  0  0
   13.2028  -16.9801   25.9503 C   0  0  0  0  0  0  0  0  0  0  0  0
   11.6720  -17.0234   26.0459 C   0  0  2  0  0  0  0  0  0  0  0  0
   11.1569  -16.0390   25.1140 N   0  0  0  0  0  0  0  0  0  0  0  0
   11.3413  -16.6326   27.4590 C   0  0  0  0  0  0  0  0  0  0  0  0
   11.7953  -17.4106   28.5136 O   0  0  0  0  0  0  0  0  0  0  0  0
   10.6636  -15.6203   27.7338 O   0  0  0  0  0  0  0  0  0  0  0  0
  2  1  1  6
  3  2  1  0
  3  4  1  0
  4  5  2  0
  4  8  1  0
  6  2  1  0
  7  6  2  0
  9  6  1  0
 10 13  1  0
 10  9  1  0
 10 11  1  1
 12 11  1  0
 13 18  1  0
 14 13  2  0
 16 15  1  0
 17 16  1  1
 17 19  1  0
 18 17  1  0
 19 21  2  0
 19 20  1  0
M  END
$$$$
