DCS.pdb
     RDKit          3D

 21 20  0  0  1  0  0  0  0  0999 V2000
   -2.0708  -26.7065   26.1883 N   0  0  0  0  0  0  0  0  0  0  0  0
   -2.7858  -25.4594   26.3530 C   0  0  1  0  0  0  0  0  0  0  0  0
   -3.6306  -25.1770   25.1222 C   0  0  0  0  0  0  0  0  0  0  0  0
   -2.7379  -24.8621   23.9926 C   0  0  0  0  0  0  0  0  0  0  0  0
   -1.5965  -24.3247   24.1933 O   0  0  0  0  0  0  0  0  0  0  0  0
   -3.6197  -25.5651   27.5712 C   0  0  0  0  0  0  0  0  0  0  0  0
   -4.2909  -26.6062   27.7677 O   0  0  0  0  0  0  0  0  0  0  0  0
   -3.0548  -25.1150   22.6717 O   0  0  0  0  0  0  0  0  0  0  0  0
   -3.7129  -24.5530   28.5469 N   0  0  0  0  0  0  0  0  0  0  0  0
   -4.5587  -24.6273   29.7356 C   0  0  1  0  0  0  0  0  0  0  0  0
   -3.6203  -24.3709   30.9009 C   0  0  0  0  0  0  0  0  0  0  0  0
   -2.4113  -25.6665   31.1521 S   0  0  0  0  0  0  0  0  0  0  0  0
   -5.6823  -23.6931   29.6511 C   0  0  0  0  0  0  0  0  0  0  0  0
   -5.4156  -22.4733   29.3723 O   0  0  0  0  0  0  0  0  0  0  0  0
   -9.5462  -24.8041   30.3797 O   0  0  0  0  0  0  0  0  0  0  0  0
   -9.3954  -23.7993   29.4348 C   0  0  0  0  0  0  0  0  0  0  0  0
   -8.1000  -23.0150   29.6818 C   0  0  2  0  0  0  0  0  0  0  0  0
   -7.0354  -23.9863   29.8427 N   0  0  0  0  0  0  0  0  0  0  0  0
   -8.3196  -22.2594   30.9623 C   0  0  0  0  0  0  0  0  0  0  0  0
   -9.2673  -21.2480   31.0120 O   0  0  0  0  0  0  0  0  0  0  0  0
   -7.6763  -22.5042   32.0043 O   0  0  0  0  0  0  0  0  0  0  0  0
  2  1  1  6
  3  2  1  0
  3  4  1  0
  4  5  2  0
  4  8  1  0
  6  2  1  0
  7  6  2  0
  9  6  1  0
 10 13  1  0
 10  9  1  0
 10 11  1  1
 12 11  1  0
 13 18  1  0
 14 13  2  0
 16 15  1  0
 17 16  1  1
 17 19  1  0
 18 17  1  0
 19 21  2  0
 19 20  1  0
M  END
$$$$
