DCS.pdb
     RDKit          3D

 21 20  0  0  1  0  0  0  0  0999 V2000
    8.9636  -16.0490   17.5588 N   0  0  0  0  0  0  0  0  0  0  0  0
    8.2223  -16.6065   18.6694 C   0  0  1  0  0  0  0  0  0  0  0  0
    8.3307  -18.1219   18.6595 C   0  0  0  0  0  0  0  0  0  0  0  0
    7.6608  -18.6404   17.4535 C   0  0  0  0  0  0  0  0  0  0  0  0
    6.4034  -18.4868   17.2888 O   0  0  0  0  0  0  0  0  0  0  0  0
    8.7664  -16.0316   19.9200 C   0  0  0  0  0  0  0  0  0  0  0  0
   10.0025  -15.8472   20.0245 O   0  0  0  0  0  0  0  0  0  0  0  0
    8.3183  -19.3111   16.4400 O   0  0  0  0  0  0  0  0  0  0  0  0
    7.9723  -15.6693   21.0259 N   0  0  0  0  0  0  0  0  0  0  0  0
    8.4979  -15.1402   22.2820 C   0  0  1  0  0  0  0  0  0  0  0  0
    7.3560  -14.3360   22.8767 C   0  0  0  0  0  0  0  0  0  0  0  0
    7.6539  -13.7933   24.5560 S   0  0  0  0  0  0  0  0  0  0  0  0
    8.9938  -16.2115   23.1471 C   0  0  0  0  0  0  0  0  0  0  0  0
    8.2675  -17.2582   23.2654 O   0  0  0  0  0  0  0  0  0  0  0  0
   12.8506  -16.6955   24.0593 O   0  0  0  0  0  0  0  0  0  0  0  0
   11.9933  -17.7805   24.1714 C   0  0  0  0  0  0  0  0  0  0  0  0
   10.6218  -17.3340   24.6950 C   0  0  2  0  0  0  0  0  0  0  0  0
   10.1899  -16.2223   23.8701 N   0  0  0  0  0  0  0  0  0  0  0  0
   10.8540  -16.8801   26.1088 C   0  0  0  0  0  0  0  0  0  0  0  0
   11.3492  -17.7734   27.0470 O   0  0  0  0  0  0  0  0  0  0  0  0
   10.6174  -15.7134   26.4860 O   0  0  0  0  0  0  0  0  0  0  0  0
  2  1  1  6
  3  2  1  0
  3  4  1  0
  4  5  2  0
  4  8  1  0
  6  2  1  0
  7  6  2  0
  9  6  1  0
 10 13  1  0
 10  9  1  0
 10 11  1  1
 12 11  1  0
 13 18  1  0
 14 13  2  0
 16 15  1  0
 17 16  1  6
 17 19  1  0
 18 17  1  0
 19 21  2  0
 19 20  1  0
M  END
$$$$
