DCS.pdb
     RDKit          3D

 21 20  0  0  1  0  0  0  0  0999 V2000
   10.0448  -16.1860   22.0187 N   0  0  0  0  0  0  0  0  0  0  0  0
   11.1796  -16.9047   22.5566 C   0  0  1  0  0  0  0  0  0  0  0  0
   12.4164  -16.6267   21.7191 C   0  0  0  0  0  0  0  0  0  0  0  0
   12.1060  -16.8991   20.3044 C   0  0  0  0  0  0  0  0  0  0  0  0
   12.4320  -16.0657   19.3929 O   0  0  0  0  0  0  0  0  0  0  0  0
   11.3688  -16.4801   23.9617 C   0  0  0  0  0  0  0  0  0  0  0  0
   12.5299  -16.4060   24.4300 O   0  0  0  0  0  0  0  0  0  0  0  0
   11.4595  -18.0394   19.8674 O   0  0  0  0  0  0  0  0  0  0  0  0
   10.3095  -16.1458   24.8283 N   0  0  0  0  0  0  0  0  0  0  0  0
   10.4767  -15.7685   26.2296 C   0  0  1  0  0  0  0  0  0  0  0  0
    9.6054  -14.5387   26.4109 C   0  0  0  0  0  0  0  0  0  0  0  0
    9.6887  -13.8313   28.0528 S   0  0  0  0  0  0  0  0  0  0  0  0
   10.1452  -16.8779   27.1248 C   0  0  0  0  0  0  0  0  0  0  0  0
    8.9520  -17.3371   27.0786 O   0  0  0  0  0  0  0  0  0  0  0  0
   12.7973  -19.4131   28.4722 O   0  0  0  0  0  0  0  0  0  0  0  0
   11.4684  -19.7944   28.5886 C   0  0  0  0  0  0  0  0  0  0  0  0
   10.5850  -18.5831   28.9152 C   0  0  2  0  0  0  0  0  0  0  0  0
   10.9975  -17.5037   28.0390 N   0  0  0  0  0  0  0  0  0  0  0  0
   10.8804  -18.2385   30.3480 C   0  0  0  0  0  0  0  0  0  0  0  0
   10.5800  -19.1475   31.3515 O   0  0  0  0  0  0  0  0  0  0  0  0
   11.3936  -17.1509   30.6841 O   0  0  0  0  0  0  0  0  0  0  0  0
  2  1  1  6
  3  2  1  0
  3  4  1  0
  4  5  2  0
  4  8  1  0
  6  2  1  0
  7  6  2  0
  9  6  1  0
 10 13  1  0
 10  9  1  0
 10 11  1  1
 12 11  1  0
 13 18  1  0
 14 13  2  0
 16 15  1  0
 17 16  1  6
 17 19  1  0
 18 17  1  0
 19 21  2  0
 19 20  1  0
M  END
$$$$
