DCS.pdb
     RDKit          3D

 21 20  0  0  1  0  0  0  0  0999 V2000
    9.9717  -16.8758   18.7692 N   0  0  0  0  0  0  0  0  0  0  0  0
    9.0119  -17.2740   19.7760 C   0  0  1  0  0  0  0  0  0  0  0  0
    8.8257  -18.7816   19.7505 C   0  0  0  0  0  0  0  0  0  0  0  0
    8.2412  -19.1685   18.4541 C   0  0  0  0  0  0  0  0  0  0  0  0
    7.0396  -18.8504   18.1594 O   0  0  0  0  0  0  0  0  0  0  0  0
    9.5066  -16.8103   21.0916 C   0  0  0  0  0  0  0  0  0  0  0  0
   10.7389  -16.8249   21.3244 O   0  0  0  0  0  0  0  0  0  0  0  0
    8.9242  -19.8818   17.4877 O   0  0  0  0  0  0  0  0  0  0  0  0
    8.6685  -16.3433   22.1233 N   0  0  0  0  0  0  0  0  0  0  0  0
    9.1356  -15.9368   23.4464 C   0  0  1  0  0  0  0  0  0  0  0  0
    8.1148  -14.9217   23.9276 C   0  0  0  0  0  0  0  0  0  0  0  0
    8.3823  -14.3711   25.6095 S   0  0  0  0  0  0  0  0  0  0  0  0
    9.3009  -17.0902   24.3322 C   0  0  0  0  0  0  0  0  0  0  0  0
    8.3134  -17.8963   24.4417 O   0  0  0  0  0  0  0  0  0  0  0  0
   12.8068  -18.6470   25.2496 O   0  0  0  0  0  0  0  0  0  0  0  0
   11.6840  -19.4310   25.4722 C   0  0  0  0  0  0  0  0  0  0  0  0
   10.5116  -18.5699   25.9604 C   0  0  2  0  0  0  0  0  0  0  0  0
   10.4328  -17.4172   25.0840 N   0  0  0  0  0  0  0  0  0  0  0  0
   10.8723  -18.1449   27.3561 C   0  0  0  0  0  0  0  0  0  0  0  0
   10.9637  -19.0935   28.3637 O   0  0  0  0  0  0  0  0  0  0  0  0
   11.0983  -16.9542   27.6574 O   0  0  0  0  0  0  0  0  0  0  0  0
  2  1  1  6
  3  2  1  0
  3  4  1  0
  4  5  2  0
  4  8  1  0
  6  2  1  0
  7  6  2  0
  9  6  1  0
 10 13  1  0
 10  9  1  0
 10 11  1  1
 12 11  1  0
 13 18  1  0
 14 13  2  0
 16 15  1  0
 17 16  1  6
 17 19  1  0
 18 17  1  0
 19 21  2  0
 19 20  1  0
M  END
$$$$
