DCS.pdb
     RDKit          3D

 21 20  0  0  1  0  0  0  0  0999 V2000
    8.0243  -16.2451   20.9759 N   0  0  0  0  0  0  0  0  0  0  0  0
    9.2983  -16.4882   21.6174 C   0  0  1  0  0  0  0  0  0  0  0  0
   10.4273  -16.3138   20.6159 C   0  0  0  0  0  0  0  0  0  0  0  0
   10.1373  -17.1290   19.4229 C   0  0  0  0  0  0  0  0  0  0  0  0
    9.6658  -18.3105   19.5390 O   0  0  0  0  0  0  0  0  0  0  0  0
    9.4287  -15.5468   22.7519 C   0  0  0  0  0  0  0  0  0  0  0  0
   10.5669  -15.1352   23.0809 O   0  0  0  0  0  0  0  0  0  0  0  0
   10.3455  -16.6938   18.1280 O   0  0  0  0  0  0  0  0  0  0  0  0
    8.3369  -15.0710   23.5045 N   0  0  0  0  0  0  0  0  0  0  0  0
    8.4584  -14.2898   24.7329 C   0  0  1  0  0  0  0  0  0  0  0  0
    7.0783  -13.7000   24.9603 C   0  0  0  0  0  0  0  0  0  0  0  0
    6.8920  -12.8907   26.5458 S   0  0  0  0  0  0  0  0  0  0  0  0
    8.9525  -15.1092   25.8404 C   0  0  0  0  0  0  0  0  0  0  0  0
    8.3639  -16.2242   26.0577 O   0  0  0  0  0  0  0  0  0  0  0  0
   12.0765  -16.5715   26.3590 O   0  0  0  0  0  0  0  0  0  0  0  0
   11.8808  -16.0106   27.6129 C   0  0  0  0  0  0  0  0  0  0  0  0
   10.4045  -15.6462   27.8177 C   0  0  2  0  0  0  0  0  0  0  0  0
   10.0116  -14.8081   26.7014 N   0  0  0  0  0  0  0  0  0  0  0  0
   10.3517  -14.8684   29.1026 C   0  0  0  0  0  0  0  0  0  0  0  0
   10.6446  -15.4990   30.3026 O   0  0  0  0  0  0  0  0  0  0  0  0
   10.0507  -13.6571   29.1415 O   0  0  0  0  0  0  0  0  0  0  0  0
  2  1  1  6
  3  2  1  0
  3  4  1  0
  4  5  2  0
  4  8  1  0
  6  2  1  0
  7  6  2  0
  9  6  1  0
 10 13  1  0
 10  9  1  0
 10 11  1  1
 12 11  1  0
 13 18  1  0
 14 13  2  0
 16 15  1  0
 17 16  1  6
 17 19  1  0
 18 17  1  0
 19 21  2  0
 19 20  1  0
M  END
$$$$
