CAD.pdb
     RDKit          3D

 20 19  0  0  1  0  0  0  0  0999 V2000
   24.9976  -11.1589  -18.0931 N   0  0  0  0  0  0  0  0  0  0  0  0
   24.5187  -10.8640  -16.7938 C   0  0  1  0  0  0  0  0  0  0  0  0
   25.7130  -10.4326  -15.9479 C   0  0  0  0  0  0  0  0  0  0  0  0
   26.7542  -11.8789  -15.6155 S   0  0  0  0  0  0  0  0  0  0  0  0
   23.3953   -9.9451  -16.6752 C   0  0  0  0  0  0  0  0  0  0  0  0
   23.5047   -8.7991  -17.2323 O   0  0  0  0  0  0  0  0  0  0  0  0
   19.7969   -9.8644  -15.6284 C   0  0  0  0  0  0  0  0  0  0  0  0
   21.0978   -9.1928  -16.0496 C   0  0  2  0  0  0  0  0  0  0  0  0
   22.1655  -10.1605  -16.0059 N   0  0  0  0  0  0  0  0  0  0  0  0
   21.3858   -8.0042  -15.2079 C   0  0  0  0  0  0  0  0  0  0  0  0
   22.0747   -8.1709  -14.1717 O   0  0  0  0  0  0  0  0  0  0  0  0
   20.9294   -6.6997  -15.5061 N   0  0  0  0  0  0  0  0  0  0  0  0
   21.2309   -5.5201  -14.7668 C   0  0  1  0  0  0  0  0  0  0  0  0
   22.3776   -4.7085  -15.2962 C   0  0  0  0  0  0  0  0  0  0  0  0
   22.6183   -3.4672  -14.5251 C   0  0  0  0  0  0  0  0  0  0  0  0
   22.5387   -3.5263  -13.2708 O   0  0  0  0  0  0  0  0  0  0  0  0
   20.0615   -4.6317  -14.5727 C   0  0  0  0  0  0  0  0  0  0  0  0
   20.0572   -3.6800  -13.7686 O   0  0  0  0  0  0  0  0  0  0  0  0
   22.9246   -2.2544  -15.1193 O   0  0  0  0  0  0  0  0  0  0  0  0
   18.9139   -4.8962  -15.3449 O   0  0  0  0  0  0  0  0  0  0  0  0
  2  5  1  0
  2  1  1  6
  3  2  1  0
  4  3  1  0
  5  6  2  0
  8  7  1  1
  8 10  1  0
  9  8  1  0
  9  5  1  0
 10 11  2  0
 12 13  1  0
 12 10  1  0
 13 17  1  0
 13 14  1  6
 15 14  1  0
 16 15  2  0
 17 18  2  0
 17 20  1  0
 19 15  1  0
M  END
$$$$
