CAD.pdb
     RDKit          3D

 20 19  0  0  1  0  0  0  0  0999 V2000
   13.6398  -11.5326  -10.1786 N   0  0  0  0  0  0  0  0  0  0  0  0
   14.8608  -10.9884   -9.7119 C   0  0  1  0  0  0  0  0  0  0  0  0
   15.9573  -12.0143   -9.9821 C   0  0  0  0  0  0  0  0  0  0  0  0
   15.6272  -13.5033   -9.0020 S   0  0  0  0  0  0  0  0  0  0  0  0
   15.2275   -9.6537  -10.1642 C   0  0  0  0  0  0  0  0  0  0  0  0
   15.0405   -9.3730  -11.3979 O   0  0  0  0  0  0  0  0  0  0  0  0
   16.0798   -6.2457   -8.9347 C   0  0  0  0  0  0  0  0  0  0  0  0
   16.1506   -7.3398   -9.9923 C   0  0  2  0  0  0  0  0  0  0  0  0
   15.7787   -8.5987   -9.3963 N   0  0  0  0  0  0  0  0  0  0  0  0
   17.4949   -7.3941  -10.6200 C   0  0  0  0  0  0  0  0  0  0  0  0
   18.3073   -8.2522  -10.1960 O   0  0  0  0  0  0  0  0  0  0  0  0
   17.9106   -6.5367  -11.6646 N   0  0  0  0  0  0  0  0  0  0  0  0
   19.1433   -6.6209  -12.3734 C   0  0  1  0  0  0  0  0  0  0  0  0
   19.4423   -7.9610  -12.9805 C   0  0  0  0  0  0  0  0  0  0  0  0
   20.6609   -7.9610  -13.8220 C   0  0  0  0  0  0  0  0  0  0  0  0
   21.6213   -7.2279  -13.4708 O   0  0  0  0  0  0  0  0  0  0  0  0
   19.2976   -5.5765  -13.4126 C   0  0  0  0  0  0  0  0  0  0  0  0
   20.4038   -5.2324  -13.8711 O   0  0  0  0  0  0  0  0  0  0  0  0
   20.7887   -8.7263  -14.9691 O   0  0  0  0  0  0  0  0  0  0  0  0
   18.1243   -4.9595  -13.8877 O   0  0  0  0  0  0  0  0  0  0  0  0
  2  5  1  0
  2  1  1  6
  3  2  1  0
  4  3  1  0
  5  6  2  0
  8  7  1  1
  8 10  1  0
  9  8  1  0
  9  5  1  0
 10 11  2  0
 12 13  1  0
 12 10  1  0
 13 17  1  0
 13 14  1  6
 15 14  1  0
 16 15  2  0
 17 18  2  0
 17 20  1  0
 19 15  1  0
M  END
$$$$
