CAD.pdb
     RDKit          3D

 20 19  0  0  1  0  0  0  0  0999 V2000
   14.4225  -12.5700  -10.3623 N   0  0  0  0  0  0  0  0  0  0  0  0
   14.3888  -11.3413  -11.0650 C   0  0  1  0  0  0  0  0  0  0  0  0
   12.9719  -10.7856  -10.9567 C   0  0  0  0  0  0  0  0  0  0  0  0
   11.8180  -11.9586  -11.7178 S   0  0  0  0  0  0  0  0  0  0  0  0
   15.4005  -10.3450  -10.7420 C   0  0  0  0  0  0  0  0  0  0  0  0
   15.6628  -10.1447   -9.5063 O   0  0  0  0  0  0  0  0  0  0  0  0
   18.2849   -8.5695  -12.2151 C   0  0  0  0  0  0  0  0  0  0  0  0
   17.1693   -8.6376  -11.1800 C   0  0  2  0  0  0  0  0  0  0  0  0
   16.1512   -9.5482  -11.6410 N   0  0  0  0  0  0  0  0  0  0  0  0
   16.6225   -7.2881  -10.8899 C   0  0  0  0  0  0  0  0  0  0  0  0
   15.6651   -6.8788  -11.5912 O   0  0  0  0  0  0  0  0  0  0  0  0
   17.1176   -6.4408   -9.8721 N   0  0  0  0  0  0  0  0  0  0  0  0
   16.6834   -5.1099   -9.6088 C   0  0  1  0  0  0  0  0  0  0  0  0
   16.7688   -4.6812   -8.1725 C   0  0  0  0  0  0  0  0  0  0  0  0
   16.2350   -3.3199   -7.9378 C   0  0  0  0  0  0  0  0  0  0  0  0
   15.3642   -2.8816   -8.7333 O   0  0  0  0  0  0  0  0  0  0  0  0
   17.3517   -4.0941  -10.4548 C   0  0  0  0  0  0  0  0  0  0  0  0
   18.5244   -4.2113  -10.8590 O   0  0  0  0  0  0  0  0  0  0  0  0
   16.6488   -2.5149   -6.8897 O   0  0  0  0  0  0  0  0  0  0  0  0
   16.6053   -2.9523  -10.8047 O   0  0  0  0  0  0  0  0  0  0  0  0
  2  5  1  0
  2  1  1  1
  3  2  1  0
  4  3  1  0
  5  6  2  0
  8  7  1  6
  8 10  1  0
  9  8  1  0
  9  5  1  0
 10 11  2  0
 12 13  1  0
 12 10  1  0
 13 17  1  0
 13 14  1  1
 15 14  1  0
 16 15  2  0
 17 18  2  0
 17 20  1  0
 19 15  1  0
M  END
$$$$
