CAD.pdb
     RDKit          3D

 20 19  0  0  1  0  0  0  0  0999 V2000
   18.0714  -15.7976  -16.6171 N   0  0  0  0  0  0  0  0  0  0  0  0
   17.7041  -14.8651  -15.6169 C   0  0  1  0  0  0  0  0  0  0  0  0
   18.6560  -15.0518  -14.4392 C   0  0  0  0  0  0  0  0  0  0  0  0
   18.1953  -16.5576  -13.5408 S   0  0  0  0  0  0  0  0  0  0  0  0
   17.5711  -13.4680  -16.0054 C   0  0  0  0  0  0  0  0  0  0  0  0
   18.4916  -12.9655  -16.7375 O   0  0  0  0  0  0  0  0  0  0  0  0
   15.1387  -10.6070  -15.9055 C   0  0  0  0  0  0  0  0  0  0  0  0
   16.5189  -11.2074  -16.1405 C   0  0  2  0  0  0  0  0  0  0  0  0
   16.5285  -12.5699  -15.6694 N   0  0  0  0  0  0  0  0  0  0  0  0
   17.5778  -10.3871  -15.5001 C   0  0  0  0  0  0  0  0  0  0  0  0
   18.1783  -10.8717  -14.5099 O   0  0  0  0  0  0  0  0  0  0  0  0
   17.9464   -9.0952  -15.9407 N   0  0  0  0  0  0  0  0  0  0  0  0
   18.9446   -8.2659  -15.3535 C   0  0  1  0  0  0  0  0  0  0  0  0
   20.3537   -8.7654  -15.4908 C   0  0  0  0  0  0  0  0  0  0  0  0
   21.3489   -7.8931  -14.8262 C   0  0  0  0  0  0  0  0  0  0  0  0
   20.9966   -7.2826  -13.7838 O   0  0  0  0  0  0  0  0  0  0  0  0
   18.8860   -6.8587  -15.8126 C   0  0  0  0  0  0  0  0  0  0  0  0
   18.9676   -6.5312  -17.0119 O   0  0  0  0  0  0  0  0  0  0  0  0
   22.6396   -7.7212  -15.2977 O   0  0  0  0  0  0  0  0  0  0  0  0
   18.7302   -5.8639  -14.8281 O   0  0  0  0  0  0  0  0  0  0  0  0
  2  5  1  0
  2  1  1  6
  3  2  1  0
  4  3  1  0
  5  6  2  0
  8  7  1  1
  8 10  1  0
  9  8  1  0
  9  5  1  0
 10 11  2  0
 12 13  1  0
 12 10  1  0
 13 17  1  0
 13 14  1  6
 15 14  1  0
 16 15  2  0
 17 18  2  0
 17 20  1  0
 19 15  1  0
M  END
$$$$
