CAD.pdb
     RDKit          3D

 20 19  0  0  1  0  0  0  0  0999 V2000
   18.5284  -12.1686  -15.7780 N   0  0  0  0  0  0  0  0  0  0  0  0
   18.5953  -10.8349  -16.2483 C   0  0  1  0  0  0  0  0  0  0  0  0
   17.1701  -10.2929  -16.3052 C   0  0  0  0  0  0  0  0  0  0  0  0
   17.2063   -8.6052  -16.9662 S   0  0  0  0  0  0  0  0  0  0  0  0
   19.5086   -9.9215  -15.5759 C   0  0  0  0  0  0  0  0  0  0  0  0
   19.3008   -9.6795  -14.3373 O   0  0  0  0  0  0  0  0  0  0  0  0
   22.9308   -8.6971  -15.6569 C   0  0  0  0  0  0  0  0  0  0  0  0
   21.4731   -8.3998  -15.3292 C   0  0  2  0  0  0  0  0  0  0  0  0
   20.6258   -9.2487  -16.1290 N   0  0  0  0  0  0  0  0  0  0  0  0
   21.1622   -6.9606  -15.5199 C   0  0  0  0  0  0  0  0  0  0  0  0
   20.7378   -6.5950  -16.6434 O   0  0  0  0  0  0  0  0  0  0  0  0
   21.3170   -5.9820  -14.5113 N   0  0  0  0  0  0  0  0  0  0  0  0
   21.0971   -4.5830  -14.6645 C   0  0  1  0  0  0  0  0  0  0  0  0
   20.3115   -3.9341  -13.5618 C   0  0  0  0  0  0  0  0  0  0  0  0
   20.0518   -2.4957  -13.7994 C   0  0  0  0  0  0  0  0  0  0  0  0
   19.6851   -2.1440  -14.9506 O   0  0  0  0  0  0  0  0  0  0  0  0
   22.3422   -3.8118  -14.8865 C   0  0  0  0  0  0  0  0  0  0  0  0
   22.3732   -2.7384  -15.5183 O   0  0  0  0  0  0  0  0  0  0  0  0
   20.1937   -1.5286  -12.8184 O   0  0  0  0  0  0  0  0  0  0  0  0
   23.5325   -4.3377  -14.3481 O   0  0  0  0  0  0  0  0  0  0  0  0
  2  5  1  0
  2  1  1  1
  3  2  1  0
  4  3  1  0
  5  6  2  0
  8  7  1  6
  8 10  1  0
  9  8  1  0
  9  5  1  0
 10 11  2  0
 12 13  1  0
 12 10  1  0
 13 17  1  0
 13 14  1  1
 15 14  1  0
 16 15  2  0
 17 18  2  0
 17 20  1  0
 19 15  1  0
M  END
$$$$
