CAD.pdb
     RDKit          3D

 20 19  0  0  1  0  0  0  0  0999 V2000
   23.7588  -12.5058  -18.2600 N   0  0  0  0  0  0  0  0  0  0  0  0
   23.4422  -12.1039  -16.9399 C   0  0  1  0  0  0  0  0  0  0  0  0
   24.7468  -11.7195  -16.2484 C   0  0  0  0  0  0  0  0  0  0  0  0
   25.7437  -13.2125  -15.9964 S   0  0  0  0  0  0  0  0  0  0  0  0
   22.4053  -11.0964  -16.7658 C   0  0  0  0  0  0  0  0  0  0  0  0
   22.5879   -9.9560  -17.3151 O   0  0  0  0  0  0  0  0  0  0  0  0
   18.9023  -10.6887  -15.4758 C   0  0  0  0  0  0  0  0  0  0  0  0
   20.2252  -10.1474  -16.0028 C   0  0  2  0  0  0  0  0  0  0  0  0
   21.1896  -11.2179  -16.0488 N   0  0  0  0  0  0  0  0  0  0  0  0
   20.7002   -9.0017  -15.1867 C   0  0  0  0  0  0  0  0  0  0  0  0
   21.7617   -9.1465  -14.5322 O   0  0  0  0  0  0  0  0  0  0  0  0
   20.0267   -7.7612  -15.1050 N   0  0  0  0  0  0  0  0  0  0  0  0
   20.5053   -6.5931  -14.4451 C   0  0  1  0  0  0  0  0  0  0  0  0
   21.8494   -6.1050  -14.9024 C   0  0  0  0  0  0  0  0  0  0  0  0
   22.2986   -4.8848  -14.1936 C   0  0  0  0  0  0  0  0  0  0  0  0
   22.0246   -4.7777  -12.9702 O   0  0  0  0  0  0  0  0  0  0  0  0
   19.5468   -5.4641  -14.4772 C   0  0  0  0  0  0  0  0  0  0  0  0
   18.8352   -5.2047  -15.4665 O   0  0  0  0  0  0  0  0  0  0  0  0
   23.0013   -3.8649  -14.8131 O   0  0  0  0  0  0  0  0  0  0  0  0
   19.4545   -4.6620  -13.3234 O   0  0  0  0  0  0  0  0  0  0  0  0
  2  5  1  0
  2  1  1  6
  3  2  1  0
  4  3  1  0
  5  6  2  0
  8  7  1  1
  8 10  1  0
  9  8  1  0
  9  5  1  0
 10 11  2  0
 12 13  1  0
 12 10  1  0
 13 17  1  0
 13 14  1  6
 15 14  1  0
 16 15  2  0
 17 18  2  0
 17 20  1  0
 19 15  1  0
M  END
$$$$
