CAD.pdb
     RDKit          3D

 20 19  0  0  1  0  0  0  0  0999 V2000
   17.4400  -11.5568  -15.5527 N   0  0  0  0  0  0  0  0  0  0  0  0
   18.0555  -10.3466  -15.9544 C   0  0  1  0  0  0  0  0  0  0  0  0
   17.1335   -9.2015  -15.5461 C   0  0  0  0  0  0  0  0  0  0  0  0
   15.8638   -8.9825  -16.8213 S   0  0  0  0  0  0  0  0  0  0  0  0
   19.4353  -10.1180  -15.5491 C   0  0  0  0  0  0  0  0  0  0  0  0
   19.7539  -10.3996  -14.3429 O   0  0  0  0  0  0  0  0  0  0  0  0
   22.8469   -9.5099  -16.8959 C   0  0  0  0  0  0  0  0  0  0  0  0
   21.8111   -9.3861  -15.7859 C   0  0  2  0  0  0  0  0  0  0  0  0
   20.4980   -9.6113  -16.3368 N   0  0  0  0  0  0  0  0  0  0  0  0
   21.9121   -8.0728  -15.1008 C   0  0  0  0  0  0  0  0  0  0  0  0
   22.9970   -7.7853  -14.5383 O   0  0  0  0  0  0  0  0  0  0  0  0
   20.8590   -7.1310  -15.0459 N   0  0  0  0  0  0  0  0  0  0  0  0
   20.8895   -5.8832  -14.3598 C   0  0  1  0  0  0  0  0  0  0  0  0
   21.8433   -4.8680  -14.9198 C   0  0  0  0  0  0  0  0  0  0  0  0
   21.8054   -3.5737  -14.2011 C   0  0  0  0  0  0  0  0  0  0  0  0
   22.2755   -3.5318  -13.0347 O   0  0  0  0  0  0  0  0  0  0  0  0
   19.5541   -5.2591  -14.2125 C   0  0  0  0  0  0  0  0  0  0  0  0
   18.5614   -5.6137  -14.8766 O   0  0  0  0  0  0  0  0  0  0  0  0
   21.2795   -2.4171  -14.7520 O   0  0  0  0  0  0  0  0  0  0  0  0
   19.4272   -4.2191  -13.2715 O   0  0  0  0  0  0  0  0  0  0  0  0
  2  5  1  0
  2  1  1  1
  3  2  1  0
  4  3  1  0
  5  6  2  0
  8  7  1  6
  8 10  1  0
  9  8  1  0
  9  5  1  0
 10 11  2  0
 12 13  1  0
 12 10  1  0
 13 17  1  0
 13 14  1  6
 15 14  1  0
 16 15  2  0
 17 18  2  0
 17 20  1  0
 19 15  1  0
M  END
$$$$
