CAD.pdb
     RDKit          3D

 20 19  0  0  1  0  0  0  0  0999 V2000
   17.6495  -12.5575  -16.8711 N   0  0  0  0  0  0  0  0  0  0  0  0
   17.3317  -11.4825  -16.0061 C   0  0  1  0  0  0  0  0  0  0  0  0
   17.8635  -11.8324  -14.6195 C   0  0  0  0  0  0  0  0  0  0  0  0
   16.7503  -13.0368  -13.8469 S   0  0  0  0  0  0  0  0  0  0  0  0
   17.7113  -10.1396  -16.4222 C   0  0  0  0  0  0  0  0  0  0  0  0
   18.9174   -9.9560  -16.8059 O   0  0  0  0  0  0  0  0  0  0  0  0
   16.2676   -6.7516  -17.1477 C   0  0  0  0  0  0  0  0  0  0  0  0
   17.4245   -7.6952  -16.8447 C   0  0  2  0  0  0  0  0  0  0  0  0
   16.8979   -8.9804  -16.4582 N   0  0  0  0  0  0  0  0  0  0  0  0
   18.3251   -7.1263  -15.8106 C   0  0  0  0  0  0  0  0  0  0  0  0
   18.3192   -7.6538  -14.6714 O   0  0  0  0  0  0  0  0  0  0  0  0
   19.1860   -6.0274  -16.0354 N   0  0  0  0  0  0  0  0  0  0  0  0
   20.0418   -5.4256  -15.0688 C   0  0  1  0  0  0  0  0  0  0  0  0
   21.1652   -6.2933  -14.5799 C   0  0  0  0  0  0  0  0  0  0  0  0
   22.0032   -5.6370  -13.5502 C   0  0  0  0  0  0  0  0  0  0  0  0
   22.7600   -4.6999  -13.9140 O   0  0  0  0  0  0  0  0  0  0  0  0
   20.5946   -4.1214  -15.5023 C   0  0  0  0  0  0  0  0  0  0  0  0
   20.9928   -3.2526  -14.7030 O   0  0  0  0  0  0  0  0  0  0  0  0
   21.9904   -6.0064  -12.2157 O   0  0  0  0  0  0  0  0  0  0  0  0
   20.6625   -3.8768  -16.8875 O   0  0  0  0  0  0  0  0  0  0  0  0
  2  5  1  0
  2  1  1  6
  3  2  1  0
  4  3  1  0
  5  6  2  0
  8  7  1  1
  8 10  1  0
  9  8  1  0
  9  5  1  0
 10 11  2  0
 12 13  1  0
 12 10  1  0
 13 17  1  0
 13 14  1  6
 15 14  1  0
 16 15  2  0
 17 18  2  0
 17 20  1  0
 19 15  1  0
M  END
$$$$
