CAD.pdb
     RDKit          3D

 20 19  0  0  1  0  0  0  0  0999 V2000
   22.7145  -12.5659  -19.1732 N   0  0  0  0  0  0  0  0  0  0  0  0
   23.5571  -11.8272  -18.3077 C   0  0  1  0  0  0  0  0  0  0  0  0
   24.5729  -11.0868  -19.1726 C   0  0  0  0  0  0  0  0  0  0  0  0
   25.5873  -12.2989  -20.0604 S   0  0  0  0  0  0  0  0  0  0  0  0
   22.9273  -10.9565  -17.3250 C   0  0  0  0  0  0  0  0  0  0  0  0
   21.9804  -10.1961  -17.7263 O   0  0  0  0  0  0  0  0  0  0  0  0
   22.9132  -10.1830  -13.6436 C   0  0  0  0  0  0  0  0  0  0  0  0
   22.5554   -9.8942  -15.0959 C   0  0  2  0  0  0  0  0  0  0  0  0
   23.2345  -10.8389  -15.9472 N   0  0  0  0  0  0  0  0  0  0  0  0
   22.8699   -8.4891  -15.4576 C   0  0  0  0  0  0  0  0  0  0  0  0
   23.9385   -8.2670  -16.0779 O   0  0  0  0  0  0  0  0  0  0  0  0
   22.0369   -7.3906  -15.1437 N   0  0  0  0  0  0  0  0  0  0  0  0
   22.2965   -6.0273  -15.4645 C   0  0  1  0  0  0  0  0  0  0  0  0
   21.8183   -5.5859  -16.8174 C   0  0  0  0  0  0  0  0  0  0  0  0
   22.1071   -4.1615  -17.1017 C   0  0  0  0  0  0  0  0  0  0  0  0
   21.2520   -3.3053  -16.7570 O   0  0  0  0  0  0  0  0  0  0  0  0
   21.7974   -5.0767  -14.4439 C   0  0  0  0  0  0  0  0  0  0  0  0
   22.0981   -3.8676  -14.4366 O   0  0  0  0  0  0  0  0  0  0  0  0
   23.2674   -3.7341  -17.7252 O   0  0  0  0  0  0  0  0  0  0  0  0
   20.9448   -5.5883  -13.4466 O   0  0  0  0  0  0  0  0  0  0  0  0
  2  5  1  0
  2  1  1  6
  3  2  1  0
  4  3  1  0
  5  6  2  0
  8  7  1  1
  8 10  1  0
  9  8  1  0
  9  5  1  0
 10 11  2  0
 12 13  1  0
 12 10  1  0
 13 17  1  0
 13 14  1  6
 15 14  1  0
 16 15  2  0
 17 18  2  0
 17 20  1  0
 19 15  1  0
M  END
$$$$
