YRG.pdb
     RDKit          3D

 28 28  0  0  1  0  0  0  0  0999 V2000
    5.1022  -10.3994   27.1263 O   0  0  0  0  0  0  0  0  0  0  0  0
    5.7989  -11.5756   26.8763 C   0  0  0  0  0  0  0  0  0  0  0  0
    6.8230  -11.5375   25.9505 C   0  0  0  0  0  0  0  0  0  0  0  0
    7.5591  -12.6824   25.6554 C   0  0  0  0  0  0  0  0  0  0  0  0
    7.2680  -13.8611   26.2877 C   0  0  0  0  0  0  0  0  0  0  0  0
    8.0263  -15.1333   26.0134 C   0  0  0  0  0  0  0  0  0  0  0  0
    7.4353  -15.8091   24.7936 C   0  0  2  0  0  0  0  0  0  0  0  0
    6.3763  -16.6933   25.1960 N   0  0  0  0  0  0  0  0  0  0  0  0
    8.4320  -16.5550   24.0231 C   0  0  0  0  0  0  0  0  0  0  0  0
    8.5930  -17.8037   24.0979 O   0  0  0  0  0  0  0  0  0  0  0  0
    6.2336  -13.8676   27.2128 C   0  0  0  0  0  0  0  0  0  0  0  0
    5.4907  -12.7626   27.5265 C   0  0  0  0  0  0  0  0  0  0  0  0
    9.6915  -15.4854   15.7771 N   0  0  0  0  0  0  0  0  0  0  0  0
    8.4692  -15.5627   16.5072 C   0  0  0  0  0  0  0  0  0  0  0  0
    7.3608  -15.5652   15.8525 N   0  0  0  0  0  0  0  0  0  0  0  0
    8.4292  -15.6373   17.9317 N   0  0  0  0  0  0  0  0  0  0  0  0
    9.6227  -15.7580   18.7251 C   0  0  0  0  0  0  0  0  0  0  0  0
    9.2380  -15.7016   20.1997 C   0  0  0  0  0  0  0  0  0  0  0  0
   10.4799  -15.8023   21.0174 C   0  0  0  0  0  0  0  0  0  0  0  0
   10.2395  -16.6107   22.2625 C   0  0  2  0  0  0  0  0  0  0  0  0
    9.2876  -15.8771   23.1288 N   0  0  0  0  0  0  0  0  0  0  0  0
   11.5033  -16.7476   23.0255 C   0  0  0  0  0  0  0  0  0  0  0  0
   11.9825  -15.8457   23.7439 O   0  0  0  0  0  0  0  0  0  0  0  0
    6.4501  -15.5968   16.3383 N   0  0  0  0  0  0  0  0  0  0  0  0
   12.2787  -17.9597   22.9857 C   0  0  0  0  0  0  0  0  0  0  0  0
   13.5157  -18.0806   23.7625 C   0  0  0  0  0  0  0  0  0  0  0  0
   14.2003  -19.3460   23.4923 O   0  0  0  0  0  0  0  0  0  0  0  0
   13.6251  -20.2073   22.7904 O   0  0  0  0  0  0  0  0  0  0  0  0
  2  1  1  0
  3  2  2  0
  4  3  1  0
  5  4  2  0
  5 11  1  0
  6  5  1  0
  7  9  1  0
  7  6  1  0
  7  8  1  1
  9 10  2  0
 11 12  2  0
 12  2  1  0
 14 15  2  0
 14 13  1  0
 16 14  1  0
 17 18  1  0
 17 16  1  0
 18 19  1  0
 20 19  1  6
 21 20  1  0
 21  9  1  0
 22 24  1  0
 22 20  1  0
 23 22  2  0
 25 24  1  0
 26 25  1  0
 26 28  1  0
 27 26  2  0
M  END
$$$$
