YRG.pdb
     RDKit          3D

 28 28  0  0  1  0  0  0  0  0999 V2000
    8.0199  -11.3441   26.2465 O   0  0  0  0  0  0  0  0  0  0  0  0
    7.7378  -12.7026   26.3267 C   0  0  0  0  0  0  0  0  0  0  0  0
    6.4218  -13.0998   26.1937 C   0  0  0  0  0  0  0  0  0  0  0  0
    6.0739  -14.4465   26.2645 C   0  0  0  0  0  0  0  0  0  0  0  0
    7.0438  -15.3907   26.4681 C   0  0  0  0  0  0  0  0  0  0  0  0
    6.7330  -16.8621   26.5542 C   0  0  0  0  0  0  0  0  0  0  0  0
    6.6233  -17.4280   25.1536 C   0  0  2  0  0  0  0  0  0  0  0  0
    5.8715  -18.6523   25.1840 N   0  0  0  0  0  0  0  0  0  0  0  0
    7.9298  -17.6689   24.5383 C   0  0  0  0  0  0  0  0  0  0  0  0
    8.6384  -18.6883   24.7610 O   0  0  0  0  0  0  0  0  0  0  0  0
    8.3568  -14.9606   26.5979 C   0  0  0  0  0  0  0  0  0  0  0  0
    8.7337  -13.6472   26.5336 C   0  0  0  0  0  0  0  0  0  0  0  0
    9.0868  -13.0694   18.2234 N   0  0  0  0  0  0  0  0  0  0  0  0
    7.7995  -13.2612   18.8059 C   0  0  0  0  0  0  0  0  0  0  0  0
    6.9308  -12.3167   18.7027 N   0  0  0  0  0  0  0  0  0  0  0  0
    7.4397  -14.4570   19.4966 N   0  0  0  0  0  0  0  0  0  0  0  0
    8.3844  -15.5141   19.7388 C   0  0  0  0  0  0  0  0  0  0  0  0
    8.5258  -15.7088   21.2446 C   0  0  0  0  0  0  0  0  0  0  0  0
    9.6137  -16.6962   21.4945 C   0  0  0  0  0  0  0  0  0  0  0  0
    9.7728  -16.9596   22.9665 C   0  0  2  0  0  0  0  0  0  0  0  0
    8.4700  -16.7302   23.6337 N   0  0  0  0  0  0  0  0  0  0  0  0
   10.7346  -15.9936   23.5496 C   0  0  0  0  0  0  0  0  0  0  0  0
   10.3964  -14.9462   24.1392 O   0  0  0  0  0  0  0  0  0  0  0  0
    6.0059  -12.3857   19.1568 N   0  0  0  0  0  0  0  0  0  0  0  0
   12.1560  -16.2067   23.4710 C   0  0  0  0  0  0  0  0  0  0  0  0
   13.0923  -15.1448   23.8506 C   0  0  0  0  0  0  0  0  0  0  0  0
   14.4837  -15.5721   23.6947 O   0  0  0  0  0  0  0  0  0  0  0  0
   14.7186  -16.7241   23.2667 O   0  0  0  0  0  0  0  0  0  0  0  0
  2  1  1  0
  3  2  2  0
  4  3  1  0
  5  4  2  0
  5 11  1  0
  6  5  1  0
  7  9  1  0
  7  6  1  0
  7  8  1  1
  9 10  2  0
 11 12  2  0
 12  2  1  0
 14 15  2  0
 14 13  1  0
 16 14  1  0
 17 18  1  0
 17 16  1  0
 18 19  1  0
 20 19  1  6
 21 20  1  0
 21  9  1  0
 22 24  1  0
 22 20  1  0
 23 22  2  0
 25 24  1  0
 26 25  1  0
 26 28  1  0
 27 26  2  0
M  END
$$$$
