YRG.pdb
     RDKit          3D

 28 28  0  0  1  0  0  0  0  0999 V2000
    7.0459  -10.6069   27.0671 O   0  0  0  0  0  0  0  0  0  0  0  0
    6.9046  -11.9593   26.7799 C   0  0  0  0  0  0  0  0  0  0  0  0
    5.7494  -12.3690   26.1436 C   0  0  0  0  0  0  0  0  0  0  0  0
    5.5477  -13.7105   25.8283 C   0  0  0  0  0  0  0  0  0  0  0  0
    6.5024  -14.6370   26.1507 C   0  0  0  0  0  0  0  0  0  0  0  0
    6.3447  -16.1018   25.8371 C   0  0  0  0  0  0  0  0  0  0  0  0
    7.6759  -16.6552   25.3730 C   0  0  2  0  0  0  0  0  0  0  0  0
    8.7461  -15.8922   25.9541 N   0  0  0  0  0  0  0  0  0  0  0  0
    7.8091  -16.6568   23.9149 C   0  0  0  0  0  0  0  0  0  0  0  0
    7.0109  -17.2423   23.1333 O   0  0  0  0  0  0  0  0  0  0  0  0
    7.6522  -14.1945   26.7896 C   0  0  0  0  0  0  0  0  0  0  0  0
    7.8828  -12.8858   27.1140 C   0  0  0  0  0  0  0  0  0  0  0  0
    9.7529  -14.2504   16.9646 N   0  0  0  0  0  0  0  0  0  0  0  0
    8.3706  -13.9198   16.8502 C   0  0  0  0  0  0  0  0  0  0  0  0
    7.8207  -13.9688   15.6872 N   0  0  0  0  0  0  0  0  0  0  0  0
    7.5769  -13.5379   17.9730 N   0  0  0  0  0  0  0  0  0  0  0  0
    8.1470  -13.3280   19.2766 C   0  0  0  0  0  0  0  0  0  0  0  0
    8.7006  -14.6537   19.7881 C   0  0  0  0  0  0  0  0  0  0  0  0
    8.5254  -14.7011   21.2673 C   0  0  0  0  0  0  0  0  0  0  0  0
    9.0658  -15.9860   21.8316 C   0  0  2  0  0  0  0  0  0  0  0  0
    8.8810  -15.9743   23.3015 N   0  0  0  0  0  0  0  0  0  0  0  0
   10.5242  -16.0728   21.5786 C   0  0  0  0  0  0  0  0  0  0  0  0
   11.2411  -15.0890   21.3012 O   0  0  0  0  0  0  0  0  0  0  0  0
    6.8404  -13.6774   15.5439 N   0  0  0  0  0  0  0  0  0  0  0  0
   11.2246  -17.3291   21.6377 C   0  0  0  0  0  0  0  0  0  0  0  0
   11.1058  -18.3020   20.5480 C   0  0  0  0  0  0  0  0  0  0  0  0
   12.1348  -18.0962   19.5273 O   0  0  0  0  0  0  0  0  0  0  0  0
   12.8431  -17.0662   19.5813 O   0  0  0  0  0  0  0  0  0  0  0  0
  2  1  1  0
  3  2  2  0
  4  3  1  0
  5  4  2  0
  5 11  1  0
  6  5  1  0
  7  9  1  0
  7  6  1  0
  7  8  1  1
  9 10  2  0
 11 12  2  0
 12  2  1  0
 14 15  2  0
 14 13  1  0
 16 14  1  0
 17 18  1  0
 17 16  1  0
 18 19  1  0
 20 19  1  6
 21 20  1  0
 21  9  1  0
 22 24  1  0
 22 20  1  0
 23 22  2  0
 25 24  1  0
 26 25  1  0
 26 28  1  0
 27 26  2  0
M  END
$$$$
