YRG.pdb
     RDKit          3D

 28 28  0  0  1  0  0  0  0  0999 V2000
   10.6633  -13.8655   30.4458 O   0  0  0  0  0  0  0  0  0  0  0  0
   10.1511  -14.3683   29.2557 C   0  0  0  0  0  0  0  0  0  0  0  0
   10.0160  -13.4997   28.1906 C   0  0  0  0  0  0  0  0  0  0  0  0
    9.5091  -13.9419   26.9711 C   0  0  0  0  0  0  0  0  0  0  0  0
    9.1393  -15.2515   26.8218 C   0  0  0  0  0  0  0  0  0  0  0  0
    8.5848  -15.7917   25.5296 C   0  0  0  0  0  0  0  0  0  0  0  0
    9.5098  -16.8709   25.0064 C   0  0  2  0  0  0  0  0  0  0  0  0
   10.8449  -16.3511   24.8943 N   0  0  0  0  0  0  0  0  0  0  0  0
    9.0799  -17.4041   23.7124 C   0  0  0  0  0  0  0  0  0  0  0  0
    7.9478  -17.9184   23.5012 O   0  0  0  0  0  0  0  0  0  0  0  0
    9.2870  -16.0998   27.9101 C   0  0  0  0  0  0  0  0  0  0  0  0
    9.7809  -15.6993   29.1213 C   0  0  0  0  0  0  0  0  0  0  0  0
    6.4953  -11.4370   19.8254 N   0  0  0  0  0  0  0  0  0  0  0  0
    7.3009  -12.5126   19.3489 C   0  0  0  0  0  0  0  0  0  0  0  0
    7.7948  -12.4326   18.1627 N   0  0  0  0  0  0  0  0  0  0  0  0
    7.5789  -13.6705   20.1352 N   0  0  0  0  0  0  0  0  0  0  0  0
    8.4751  -14.7023   19.6870 C   0  0  0  0  0  0  0  0  0  0  0  0
    8.5566  -15.7809   20.7620 C   0  0  0  0  0  0  0  0  0  0  0  0
    9.4636  -16.8613   20.2812 C   0  0  0  0  0  0  0  0  0  0  0  0
    9.5787  -17.9600   21.3016 C   0  0  2  0  0  0  0  0  0  0  0  0
    9.9525  -17.3615   22.6042 N   0  0  0  0  0  0  0  0  0  0  0  0
   10.6710  -18.8876   20.9212 C   0  0  0  0  0  0  0  0  0  0  0  0
   10.5074  -19.8974   20.2053 O   0  0  0  0  0  0  0  0  0  0  0  0
    8.3871  -13.1847   17.7757 N   0  0  0  0  0  0  0  0  0  0  0  0
   12.0244  -18.6783   21.3647 C   0  0  0  0  0  0  0  0  0  0  0  0
   13.1047  -19.5560   20.9055 C   0  0  0  0  0  0  0  0  0  0  0  0
   13.9873  -18.8737   19.9577 O   0  0  0  0  0  0  0  0  0  0  0  0
   13.6633  -17.7407   19.5371 O   0  0  0  0  0  0  0  0  0  0  0  0
  2  1  1  0
  3  2  2  0
  4  3  1  0
  5  4  2  0
  5 11  1  0
  6  5  1  0
  7  9  1  0
  7  6  1  0
  7  8  1  6
  9 10  2  0
 11 12  2  0
 12  2  1  0
 14 15  2  0
 14 13  1  0
 16 14  1  0
 17 18  1  0
 17 16  1  0
 18 19  1  0
 20 19  1  6
 21 20  1  0
 21  9  1  0
 22 24  1  0
 22 20  1  0
 23 22  2  0
 25 24  1  0
 26 25  1  0
 26 28  1  0
 27 26  2  0
M  END
$$$$
