YRG.pdb
     RDKit          3D

 28 28  0  0  1  0  0  0  0  0999 V2000
    5.1422  -10.7133   28.0237 O   0  0  0  0  0  0  0  0  0  0  0  0
    5.8513  -11.6164   27.2409 C   0  0  0  0  0  0  0  0  0  0  0  0
    6.9732  -12.2070   27.7887 C   0  0  0  0  0  0  0  0  0  0  0  0
    7.7269  -13.1204   27.0556 C   0  0  0  0  0  0  0  0  0  0  0  0
    7.3554  -13.4395   25.7773 C   0  0  0  0  0  0  0  0  0  0  0  0
    8.1274  -14.4193   24.9329 C   0  0  0  0  0  0  0  0  0  0  0  0
    7.3126  -15.6860   24.7740 C   0  0  2  0  0  0  0  0  0  0  0  0
    7.0099  -16.2320   26.0684 N   0  0  0  0  0  0  0  0  0  0  0  0
    7.9927  -16.6964   23.9614 C   0  0  0  0  0  0  0  0  0  0  0  0
    8.3990  -17.8044   24.4064 O   0  0  0  0  0  0  0  0  0  0  0  0
    6.2237  -12.8297   25.2547 C   0  0  0  0  0  0  0  0  0  0  0  0
    5.4608  -11.9289   25.9460 C   0  0  0  0  0  0  0  0  0  0  0  0
   10.1811  -13.5574   18.8445 N   0  0  0  0  0  0  0  0  0  0  0  0
    8.8060  -13.2127   18.9975 C   0  0  0  0  0  0  0  0  0  0  0  0
    8.5110  -12.1075   19.5878 N   0  0  0  0  0  0  0  0  0  0  0  0
    7.7485  -14.0446   18.5221 N   0  0  0  0  0  0  0  0  0  0  0  0
    7.7574  -15.4714   18.7030 C   0  0  0  0  0  0  0  0  0  0  0  0
    7.9906  -15.7762   20.1789 C   0  0  0  0  0  0  0  0  0  0  0  0
    8.6319  -17.1168   20.2902 C   0  0  0  0  0  0  0  0  0  0  0  0
    8.8737  -17.4791   21.7296 C   0  0  2  0  0  0  0  0  0  0  0  0
    8.2301  -16.4597   22.5907 N   0  0  0  0  0  0  0  0  0  0  0  0
   10.3267  -17.4385   22.0215 C   0  0  0  0  0  0  0  0  0  0  0  0
   11.1158  -18.3682   21.7530 O   0  0  0  0  0  0  0  0  0  0  0  0
    7.5320  -11.7913   19.6779 N   0  0  0  0  0  0  0  0  0  0  0  0
   10.9363  -16.2957   22.6497 C   0  0  0  0  0  0  0  0  0  0  0  0
   12.3807  -16.2611   22.8961 C   0  0  0  0  0  0  0  0  0  0  0  0
   13.1196  -15.8272   21.7092 O   0  0  0  0  0  0  0  0  0  0  0  0
   12.4911  -15.6200   20.6473 O   0  0  0  0  0  0  0  0  0  0  0  0
  2  1  1  0
  3  2  2  0
  4  3  1  0
  5  4  2  0
  5 11  1  0
  6  5  1  0
  7  9  1  0
  7  6  1  0
  7  8  1  1
  9 10  2  0
 11 12  2  0
 12  2  1  0
 14 15  2  0
 14 13  1  0
 16 14  1  0
 17 18  1  0
 17 16  1  0
 18 19  1  0
 20 19  1  6
 21 20  1  0
 21  9  1  0
 22 24  1  0
 22 20  1  0
 23 22  2  0
 25 24  1  0
 26 25  1  0
 26 28  1  0
 27 26  2  0
M  END
$$$$
