YRG.pdb
     RDKit          3D

 28 28  0  0  1  0  0  0  0  0999 V2000
    6.4761  -12.7053   16.3947 O   0  0  0  0  0  0  0  0  0  0  0  0
    7.1536  -13.0846   17.5472 C   0  0  0  0  0  0  0  0  0  0  0  0
    8.1632  -14.0193   17.4271 C   0  0  0  0  0  0  0  0  0  0  0  0
    8.8798  -14.4409   18.5444 C   0  0  0  0  0  0  0  0  0  0  0  0
    8.5838  -13.9258   19.7777 C   0  0  0  0  0  0  0  0  0  0  0  0
    9.3213  -14.3400   21.0241 C   0  0  0  0  0  0  0  0  0  0  0  0
    8.9674  -15.7748   21.3553 C   0  0  2  0  0  0  0  0  0  0  0  0
    7.5873  -15.8543   21.7480 N   0  0  0  0  0  0  0  0  0  0  0  0
    9.8119  -16.3350   22.4120 C   0  0  0  0  0  0  0  0  0  0  0  0
    9.5320  -16.2853   23.6408 O   0  0  0  0  0  0  0  0  0  0  0  0
    7.5643  -12.9884   19.8662 C   0  0  0  0  0  0  0  0  0  0  0  0
    6.8407  -12.5522   18.7904 C   0  0  0  0  0  0  0  0  0  0  0  0
   14.3769  -21.3967   25.8994 N   0  0  0  0  0  0  0  0  0  0  0  0
   13.4443  -22.2754   25.2740 C   0  0  0  0  0  0  0  0  0  0  0  0
   13.0254  -23.2984   25.9337 N   0  0  0  0  0  0  0  0  0  0  0  0
   12.9596  -22.0636   23.9486 N   0  0  0  0  0  0  0  0  0  0  0  0
   13.4979  -21.0417   23.0916 C   0  0  0  0  0  0  0  0  0  0  0  0
   13.1103  -19.6778   23.6530 C   0  0  0  0  0  0  0  0  0  0  0  0
   12.1519  -19.0329   22.7114 C   0  0  0  0  0  0  0  0  0  0  0  0
   11.8692  -17.6137   23.1206 C   0  0  2  0  0  0  0  0  0  0  0  0
   11.0232  -16.9795   22.0828 N   0  0  0  0  0  0  0  0  0  0  0  0
   13.1355  -16.8445   23.1774 C   0  0  0  0  0  0  0  0  0  0  0  0
   13.8350  -16.7325   24.2056 O   0  0  0  0  0  0  0  0  0  0  0  0
   12.3159  -23.9375   25.5404 N   0  0  0  0  0  0  0  0  0  0  0  0
   13.6524  -16.1600   22.0215 C   0  0  0  0  0  0  0  0  0  0  0  0
   14.9150  -15.4193   22.0950 C   0  0  0  0  0  0  0  0  0  0  0  0
   15.2170  -14.7422   20.8328 O   0  0  0  0  0  0  0  0  0  0  0  0
   14.4322  -14.8819   19.8684 O   0  0  0  0  0  0  0  0  0  0  0  0
  2  1  1  0
  3  2  2  0
  4  3  1  0
  5  4  2  0
  5 11  1  0
  6  5  1  0
  7  9  1  0
  7  6  1  0
  7  8  1  1
  9 10  2  0
 11 12  2  0
 12  2  1  0
 14 15  2  0
 14 13  1  0
 16 14  1  0
 17 18  1  0
 17 16  1  0
 18 19  1  0
 20 19  1  6
 21 20  1  0
 21  9  1  0
 22 24  1  0
 22 20  1  0
 23 22  2  0
 25 24  1  0
 26 25  1  0
 26 28  1  0
 27 26  2  0
M  END
$$$$
