YRG.pdb
     RDKit          3D

 28 28  0  0  1  0  0  0  0  0999 V2000
    6.0863  -10.4220   27.4006 O   0  0  0  0  0  0  0  0  0  0  0  0
    6.5032  -11.6994   27.0460 C   0  0  0  0  0  0  0  0  0  0  0  0
    7.8466  -11.8953   26.7928 C   0  0  0  0  0  0  0  0  0  0  0  0
    8.3275  -13.1519   26.4330 C   0  0  0  0  0  0  0  0  0  0  0  0
    7.4626  -14.2078   26.3280 C   0  0  0  0  0  0  0  0  0  0  0  0
    7.9195  -15.5907   25.9435 C   0  0  0  0  0  0  0  0  0  0  0  0
    7.1166  -16.0635   24.7495 C   0  0  2  0  0  0  0  0  0  0  0  0
    6.0843  -16.9629   25.1863 N   0  0  0  0  0  0  0  0  0  0  0  0
    7.9449  -16.7210   23.7369 C   0  0  0  0  0  0  0  0  0  0  0  0
    8.0040  -17.9704   23.5751 O   0  0  0  0  0  0  0  0  0  0  0  0
    6.1188  -13.9794   26.5887 C   0  0  0  0  0  0  0  0  0  0  0  0
    5.6127  -12.7593   26.9441 C   0  0  0  0  0  0  0  0  0  0  0  0
    6.5189  -12.7777   17.8225 N   0  0  0  0  0  0  0  0  0  0  0  0
    7.5284  -13.5895   17.2266 C   0  0  0  0  0  0  0  0  0  0  0  0
    7.4150  -13.8969   15.9816 N   0  0  0  0  0  0  0  0  0  0  0  0
    8.6557  -14.0721   17.9565 N   0  0  0  0  0  0  0  0  0  0  0  0
    8.8639  -13.7505   19.3428 C   0  0  0  0  0  0  0  0  0  0  0  0
    8.5328  -14.9779   20.1851 C   0  0  0  0  0  0  0  0  0  0  0  0
    9.8038  -15.5405   20.7226 C   0  0  0  0  0  0  0  0  0  0  0  0
    9.5292  -16.5764   21.7776 C   0  0  2  0  0  0  0  0  0  0  0  0
    8.7431  -15.9495   22.8658 N   0  0  0  0  0  0  0  0  0  0  0  0
   10.8056  -17.0371   22.3748 C   0  0  0  0  0  0  0  0  0  0  0  0
   11.5971  -17.8177   21.8062 O   0  0  0  0  0  0  0  0  0  0  0  0
    8.1637  -14.4046   15.4834 N   0  0  0  0  0  0  0  0  0  0  0  0
   11.2246  -16.6033   23.6819 C   0  0  0  0  0  0  0  0  0  0  0  0
   12.4390  -17.1481   24.2957 C   0  0  0  0  0  0  0  0  0  0  0  0
   13.6393  -16.4578   23.8206 O   0  0  0  0  0  0  0  0  0  0  0  0
   13.5203  -15.5666   22.9505 O   0  0  0  0  0  0  0  0  0  0  0  0
  2  1  1  0
  3  2  2  0
  4  3  1  0
  5  4  2  0
  5 11  1  0
  6  5  1  0
  7  9  1  0
  7  6  1  0
  7  8  1  1
  9 10  2  0
 11 12  2  0
 12  2  1  0
 14 15  2  0
 14 13  1  0
 16 14  1  0
 17 18  1  0
 17 16  1  0
 18 19  1  0
 20 19  1  6
 21 20  1  0
 21  9  1  0
 22 24  1  0
 22 20  1  0
 23 22  2  0
 25 24  1  0
 26 25  1  0
 26 28  1  0
 27 26  2  0
M  END
$$$$
