YRG.pdb
     RDKit          3D

 28 28  0  0  1  0  0  0  0  0999 V2000
    5.0872  -10.8548   28.3815 O   0  0  0  0  0  0  0  0  0  0  0  0
    5.8513  -11.7333   27.6227 C   0  0  0  0  0  0  0  0  0  0  0  0
    5.2529  -12.3392   26.5355 C   0  0  0  0  0  0  0  0  0  0  0  0
    5.9648  -13.2295   25.7354 C   0  0  0  0  0  0  0  0  0  0  0  0
    7.2727  -13.5102   26.0259 C   0  0  0  0  0  0  0  0  0  0  0  0
    8.0967  -14.4632   25.2002 C   0  0  0  0  0  0  0  0  0  0  0  0
    7.2140  -15.5990   24.7264 C   0  0  2  0  0  0  0  0  0  0  0  0
    6.6813  -16.3030   25.8604 N   0  0  0  0  0  0  0  0  0  0  0  0
    7.9217  -16.5375   23.8535 C   0  0  0  0  0  0  0  0  0  0  0  0
    7.4337  -17.6257   23.4429 O   0  0  0  0  0  0  0  0  0  0  0  0
    7.8460  -12.8858   27.1247 C   0  0  0  0  0  0  0  0  0  0  0  0
    7.1767  -12.0069   27.9313 C   0  0  0  0  0  0  0  0  0  0  0  0
    8.4360  -14.1811   15.3914 N   0  0  0  0  0  0  0  0  0  0  0  0
    8.4998  -13.9196   16.7916 C   0  0  0  0  0  0  0  0  0  0  0  0
    9.2679  -12.9733   17.2062 N   0  0  0  0  0  0  0  0  0  0  0  0
    7.7464  -14.6652   17.7470 N   0  0  0  0  0  0  0  0  0  0  0  0
    7.8186  -14.3944   19.1577 C   0  0  0  0  0  0  0  0  0  0  0  0
    8.7452  -15.4175   19.8058 C   0  0  0  0  0  0  0  0  0  0  0  0
    8.6984  -15.2298   21.2835 C   0  0  0  0  0  0  0  0  0  0  0  0
    9.5839  -16.2260   21.9801 C   0  0  2  0  0  0  0  0  0  0  0  0
    9.2329  -16.2489   23.4192 N   0  0  0  0  0  0  0  0  0  0  0  0
   10.9990  -15.7938   21.8857 C   0  0  0  0  0  0  0  0  0  0  0  0
   11.5038  -14.9058   22.6038 O   0  0  0  0  0  0  0  0  0  0  0  0
    9.4137  -12.8026   18.2142 N   0  0  0  0  0  0  0  0  0  0  0  0
   11.9046  -16.3851   20.9357 C   0  0  0  0  0  0  0  0  0  0  0  0
   12.3300  -17.7804   21.0785 C   0  0  0  0  0  0  0  0  0  0  0  0
   13.2967  -17.9405   22.1660 O   0  0  0  0  0  0  0  0  0  0  0  0
   12.9601  -17.6181   23.3271 O   0  0  0  0  0  0  0  0  0  0  0  0
  2  1  1  0
  3  2  2  0
  4  3  1  0
  5  4  2  0
  5 11  1  0
  6  5  1  0
  7  9  1  0
  7  6  1  0
  7  8  1  1
  9 10  2  0
 11 12  2  0
 12  2  1  0
 14 15  2  0
 14 13  1  0
 16 14  1  0
 17 18  1  0
 17 16  1  0
 18 19  1  0
 20 19  1  6
 21 20  1  0
 21  9  1  0
 22 24  1  0
 22 20  1  0
 23 22  2  0
 25 24  1  0
 26 25  1  0
 26 28  1  0
 27 26  2  0
M  END
$$$$
