YRG.pdb
     RDKit          3D

 28 28  0  0  1  0  0  0  0  0999 V2000
    5.4439  -10.6221   27.3782 O   0  0  0  0  0  0  0  0  0  0  0  0
    6.0942  -11.7991   27.0274 C   0  0  0  0  0  0  0  0  0  0  0  0
    7.2041  -12.1693   27.7612 C   0  0  0  0  0  0  0  0  0  0  0  0
    7.8997  -13.3376   27.4598 C   0  0  0  0  0  0  0  0  0  0  0  0
    7.4824  -14.1311   26.4254 C   0  0  0  0  0  0  0  0  0  0  0  0
    8.1907  -15.4062   26.0491 C   0  0  0  0  0  0  0  0  0  0  0  0
    7.2407  -16.2880   25.2659 C   0  0  2  0  0  0  0  0  0  0  0  0
    6.8889  -17.4383   26.0522 N   0  0  0  0  0  0  0  0  0  0  0  0
    7.8000  -16.7216   23.9841 C   0  0  0  0  0  0  0  0  0  0  0  0
    8.2968  -17.8627   23.7800 O   0  0  0  0  0  0  0  0  0  0  0  0
    6.3641  -13.7326   25.7067 C   0  0  0  0  0  0  0  0  0  0  0  0
    5.6577  -12.5924   25.9753 C   0  0  0  0  0  0  0  0  0  0  0  0
    7.8108  -12.6377   16.0099 N   0  0  0  0  0  0  0  0  0  0  0  0
    8.2265  -13.9975   15.9041 C   0  0  0  0  0  0  0  0  0  0  0  0
    8.3932  -14.5002   14.7308 N   0  0  0  0  0  0  0  0  0  0  0  0
    8.4639  -14.8189   17.0467 N   0  0  0  0  0  0  0  0  0  0  0  0
    8.2921  -14.3307   18.3886 C   0  0  0  0  0  0  0  0  0  0  0  0
    8.7667  -15.4026   19.3640 C   0  0  0  0  0  0  0  0  0  0  0  0
    8.5202  -14.9217   20.7529 C   0  0  0  0  0  0  0  0  0  0  0  0
    8.7467  -16.0234   21.7511 C   0  0  2  0  0  0  0  0  0  0  0  0
    7.8052  -15.8421   22.8806 N   0  0  0  0  0  0  0  0  0  0  0  0
   10.1169  -15.9237   22.3086 C   0  0  0  0  0  0  0  0  0  0  0  0
   10.6507  -14.8486   22.6525 O   0  0  0  0  0  0  0  0  0  0  0  0
    8.7006  -15.4780   14.6041 N   0  0  0  0  0  0  0  0  0  0  0  0
   10.9408  -17.0896   22.4933 C   0  0  0  0  0  0  0  0  0  0  0  0
   12.0364  -17.3842   21.5653 C   0  0  0  0  0  0  0  0  0  0  0  0
   13.2496  -16.6414   21.9107 O   0  0  0  0  0  0  0  0  0  0  0  0
   13.5243  -16.4589   23.1176 O   0  0  0  0  0  0  0  0  0  0  0  0
  2  1  1  0
  3  2  2  0
  4  3  1  0
  5  4  2  0
  5 11  1  0
  6  5  1  0
  7  9  1  0
  7  6  1  0
  7  8  1  1
  9 10  2  0
 11 12  2  0
 12  2  1  0
 14 15  2  0
 14 13  1  0
 16 14  1  0
 17 18  1  0
 17 16  1  0
 18 19  1  0
 20 19  1  6
 21 20  1  0
 21  9  1  0
 22 24  1  0
 22 20  1  0
 23 22  2  0
 25 24  1  0
 26 25  1  0
 26 28  1  0
 27 26  2  0
M  END
$$$$
