YRG.pdb
     RDKit          3D

 28 28  0  0  1  0  0  0  0  0999 V2000
    5.0852  -10.4336   27.5249 O   0  0  0  0  0  0  0  0  0  0  0  0
    5.8904  -11.4606   27.0471 C   0  0  0  0  0  0  0  0  0  0  0  0
    6.1842  -12.5045   27.9023 C   0  0  0  0  0  0  0  0  0  0  0  0
    6.9857  -13.5638   27.4837 C   0  0  0  0  0  0  0  0  0  0  0  0
    7.4902  -13.5748   26.2112 C   0  0  0  0  0  0  0  0  0  0  0  0
    8.3624  -14.6905   25.6980 C   0  0  0  0  0  0  0  0  0  0  0  0
    7.5099  -15.6636   24.9106 C   0  0  2  0  0  0  0  0  0  0  0  0
    6.6388  -16.3764   25.8041 N   0  0  0  0  0  0  0  0  0  0  0  0
    8.3087  -16.6172   24.1385 C   0  0  0  0  0  0  0  0  0  0  0  0
    8.4315  -17.8374   24.4331 O   0  0  0  0  0  0  0  0  0  0  0  0
    7.1772  -12.5119   25.3756 C   0  0  0  0  0  0  0  0  0  0  0  0
    6.3938  -11.4562   25.7536 C   0  0  0  0  0  0  0  0  0  0  0  0
    8.3609  -14.0642   16.5386 N   0  0  0  0  0  0  0  0  0  0  0  0
    7.8689  -13.7457   17.8384 C   0  0  0  0  0  0  0  0  0  0  0  0
    7.2391  -12.6350   18.0026 N   0  0  0  0  0  0  0  0  0  0  0  0
    8.0480  -14.6096   18.9601 N   0  0  0  0  0  0  0  0  0  0  0  0
    8.6095  -15.9272   18.8288 C   0  0  0  0  0  0  0  0  0  0  0  0
    8.5355  -16.6279   20.1812 C   0  0  0  0  0  0  0  0  0  0  0  0
    9.9003  -16.6481   20.7795 C   0  0  0  0  0  0  0  0  0  0  0  0
    9.8543  -17.1184   22.2072 C   0  0  2  0  0  0  0  0  0  0  0  0
    9.0018  -16.1901   22.9859 N   0  0  0  0  0  0  0  0  0  0  0  0
   11.2120  -17.0608   22.8000 C   0  0  0  0  0  0  0  0  0  0  0  0
   11.9095  -16.0260   22.8401 O   0  0  0  0  0  0  0  0  0  0  0  0
    6.9018  -12.3413   18.9335 N   0  0  0  0  0  0  0  0  0  0  0  0
   11.8289  -18.2241   23.3818 C   0  0  0  0  0  0  0  0  0  0  0  0
   13.1697  -18.1436   23.9684 C   0  0  0  0  0  0  0  0  0  0  0  0
   13.5824  -19.4232   24.5472 O   0  0  0  0  0  0  0  0  0  0  0  0
   12.7927  -20.3926   24.4975 O   0  0  0  0  0  0  0  0  0  0  0  0
  2  1  1  0
  3  2  2  0
  4  3  1  0
  5  4  2  0
  5 11  1  0
  6  5  1  0
  7  9  1  0
  7  6  1  0
  7  8  1  1
  9 10  2  0
 11 12  2  0
 12  2  1  0
 14 15  2  0
 14 13  1  0
 16 14  1  0
 17 18  1  0
 17 16  1  0
 18 19  1  0
 20 19  1  6
 21 20  1  0
 21  9  1  0
 22 24  1  0
 22 20  1  0
 23 22  2  0
 25 24  1  0
 26 25  1  0
 26 28  1  0
 27 26  2  0
M  END
$$$$
