YRG.pdb
     RDKit          3D

 28 28  0  0  1  0  0  0  0  0999 V2000
   10.1679  -14.4017   31.4272 O   0  0  0  0  0  0  0  0  0  0  0  0
   10.1804  -14.6807   30.0658 C   0  0  0  0  0  0  0  0  0  0  0  0
   10.7170  -15.8856   29.6565 C   0  0  0  0  0  0  0  0  0  0  0  0
   10.7589  -16.2243   28.3062 C   0  0  0  0  0  0  0  0  0  0  0  0
   10.2638  -15.3563   27.3706 C   0  0  0  0  0  0  0  0  0  0  0  0
   10.2795  -15.6634   25.8960 C   0  0  0  0  0  0  0  0  0  0  0  0
    8.9765  -16.3353   25.5160 C   0  0  2  0  0  0  0  0  0  0  0  0
    8.8991  -17.6280   26.1391 N   0  0  0  0  0  0  0  0  0  0  0  0
    8.8162  -16.4777   24.0676 C   0  0  0  0  0  0  0  0  0  0  0  0
    9.1379  -17.5107   23.4195 O   0  0  0  0  0  0  0  0  0  0  0  0
    9.7312  -14.1536   27.8129 C   0  0  0  0  0  0  0  0  0  0  0  0
    9.6742  -13.7891   29.1301 C   0  0  0  0  0  0  0  0  0  0  0  0
    8.7420  -12.9382   17.0034 N   0  0  0  0  0  0  0  0  0  0  0  0
    7.8458  -14.0468   16.9756 C   0  0  0  0  0  0  0  0  0  0  0  0
    8.0415  -14.9742   16.1045 N   0  0  0  0  0  0  0  0  0  0  0  0
    6.7437  -14.1659   17.8743 N   0  0  0  0  0  0  0  0  0  0  0  0
    6.7488  -13.5544   19.1761 C   0  0  0  0  0  0  0  0  0  0  0  0
    8.0545  -13.9102   19.8790 C   0  0  0  0  0  0  0  0  0  0  0  0
    7.7730  -14.1093   21.3288 C   0  0  0  0  0  0  0  0  0  0  0  0
    8.4278  -15.3645   21.8361 C   0  0  2  0  0  0  0  0  0  0  0  0
    8.2725  -15.4198   23.3084 N   0  0  0  0  0  0  0  0  0  0  0  0
    9.8829  -15.3219   21.5549 C   0  0  0  0  0  0  0  0  0  0  0  0
   10.6960  -14.6302   22.2025 O   0  0  0  0  0  0  0  0  0  0  0  0
    7.4218  -15.7984   16.0490 N   0  0  0  0  0  0  0  0  0  0  0  0
   10.4663  -16.0948   20.4897 C   0  0  0  0  0  0  0  0  0  0  0  0
   11.9132  -16.0728   20.2572 C   0  0  0  0  0  0  0  0  0  0  0  0
   12.2830  -16.8693   19.0860 O   0  0  0  0  0  0  0  0  0  0  0  0
   11.6647  -17.9329   18.8578 O   0  0  0  0  0  0  0  0  0  0  0  0
  2  1  1  0
  3  2  2  0
  4  3  1  0
  5  4  2  0
  5 11  1  0
  6  5  1  0
  7  9  1  0
  7  6  1  0
  7  8  1  1
  9 10  2  0
 11 12  2  0
 12  2  1  0
 14 15  2  0
 14 13  1  0
 16 14  1  0
 17 18  1  0
 17 16  1  0
 18 19  1  0
 20 19  1  1
 21 20  1  0
 21  9  1  0
 22 24  1  0
 22 20  1  0
 23 22  2  0
 25 24  1  0
 26 25  1  0
 26 28  1  0
 27 26  2  0
M  END
$$$$
