YRG.pdb
     RDKit          3D

 28 28  0  0  1  0  0  0  0  0999 V2000
    8.4789  -12.6875   28.1200 O   0  0  0  0  0  0  0  0  0  0  0  0
    9.3982  -13.6968   28.3797 C   0  0  0  0  0  0  0  0  0  0  0  0
    9.6317  -14.6307   27.3894 C   0  0  0  0  0  0  0  0  0  0  0  0
   10.5411  -15.6667   27.5878 C   0  0  0  0  0  0  0  0  0  0  0  0
   11.2134  -15.7646   28.7762 C   0  0  0  0  0  0  0  0  0  0  0  0
   12.2091  -16.8605   29.0528 C   0  0  0  0  0  0  0  0  0  0  0  0
   11.4838  -18.1894   29.0962 C   0  0  2  0  0  0  0  0  0  0  0  0
   10.6101  -18.2266   30.2366 N   0  0  0  0  0  0  0  0  0  0  0  0
   12.3994  -19.3310   29.1412 C   0  0  0  0  0  0  0  0  0  0  0  0
   12.8717  -19.8162   30.2053 O   0  0  0  0  0  0  0  0  0  0  0  0
   10.9573  -14.8113   29.7517 C   0  0  0  0  0  0  0  0  0  0  0  0
   10.0715  -13.7815   29.5906 C   0  0  0  0  0  0  0  0  0  0  0  0
   14.2305  -25.4152   24.3930 N   0  0  0  0  0  0  0  0  0  0  0  0
   14.5377  -26.1196   25.5940 C   0  0  0  0  0  0  0  0  0  0  0  0
   15.3077  -27.1489   25.5235 N   0  0  0  0  0  0  0  0  0  0  0  0
   14.0252  -25.7273   26.8667 N   0  0  0  0  0  0  0  0  0  0  0  0
   13.1918  -24.5667   27.0309 C   0  0  0  0  0  0  0  0  0  0  0  0
   14.0396  -23.3193   26.8049 C   0  0  0  0  0  0  0  0  0  0  0  0
   13.1572  -22.1225   26.9042 C   0  0  0  0  0  0  0  0  0  0  0  0
   13.6554  -21.1735   27.9590 C   0  0  2  0  0  0  0  0  0  0  0  0
   12.8064  -19.9594   27.9451 N   0  0  0  0  0  0  0  0  0  0  0  0
   15.0360  -20.7408   27.6351 C   0  0  0  0  0  0  0  0  0  0  0  0
   16.0353  -21.4846   27.7200 O   0  0  0  0  0  0  0  0  0  0  0  0
   15.5933  -27.6650   26.3711 N   0  0  0  0  0  0  0  0  0  0  0  0
   15.3200  -19.4013   27.1910 C   0  0  0  0  0  0  0  0  0  0  0  0
   16.6970  -18.9831   26.9128 C   0  0  0  0  0  0  0  0  0  0  0  0
   17.0226  -19.1121   25.4914 O   0  0  0  0  0  0  0  0  0  0  0  0
   16.1681  -19.5967   24.7165 O   0  0  0  0  0  0  0  0  0  0  0  0
  2  1  1  0
  3  2  2  0
  4  3  1  0
  5  4  2  0
  5 11  1  0
  6  5  1  0
  7  9  1  0
  7  6  1  0
  7  8  1  1
  9 10  2  0
 11 12  2  0
 12  2  1  0
 14 15  2  0
 14 13  1  0
 16 14  1  0
 17 18  1  0
 17 16  1  0
 18 19  1  0
 20 19  1  6
 21 20  1  0
 21  9  1  0
 22 24  1  0
 22 20  1  0
 23 22  2  0
 25 24  1  0
 26 25  1  0
 26 28  1  0
 27 26  2  0
M  END
$$$$
