YRG.pdb
     RDKit          3D

 28 28  0  0  1  0  0  0  0  0999 V2000
    8.1575  -12.6581   17.8414 O   0  0  0  0  0  0  0  0  0  0  0  0
    7.9342  -13.1223   19.1321 C   0  0  0  0  0  0  0  0  0  0  0  0
    6.6877  -13.6378   19.4284 C   0  0  0  0  0  0  0  0  0  0  0  0
    6.4010  -14.1191   20.7034 C   0  0  0  0  0  0  0  0  0  0  0  0
    7.3623  -14.0829   21.6773 C   0  0  0  0  0  0  0  0  0  0  0  0
    7.1154  -14.5876   23.0749 C   0  0  0  0  0  0  0  0  0  0  0  0
    7.3385  -16.0852   23.1074 C   0  0  2  0  0  0  0  0  0  0  0  0
    6.5042  -16.7200   22.1244 N   0  0  0  0  0  0  0  0  0  0  0  0
    7.0747  -16.6667   24.4250 C   0  0  0  0  0  0  0  0  0  0  0  0
    5.9209  -16.9186   24.8678 O   0  0  0  0  0  0  0  0  0  0  0  0
    8.6048  -13.5592   21.3490 C   0  0  0  0  0  0  0  0  0  0  0  0
    8.9204  -13.0782   20.1079 C   0  0  0  0  0  0  0  0  0  0  0  0
    5.3959  -22.6550   25.8662 N   0  0  0  0  0  0  0  0  0  0  0  0
    5.2358  -22.5516   24.4531 C   0  0  0  0  0  0  0  0  0  0  0  0
    4.1268  -22.9429   23.9295 N   0  0  0  0  0  0  0  0  0  0  0  0
    6.2558  -22.0323   23.6008 N   0  0  0  0  0  0  0  0  0  0  0  0
    7.4571  -21.4366   24.1208 C   0  0  0  0  0  0  0  0  0  0  0  0
    7.2222  -19.9411   24.3044 C   0  0  0  0  0  0  0  0  0  0  0  0
    8.5145  -19.3011   24.6801 C   0  0  0  0  0  0  0  0  0  0  0  0
    8.3285  -18.3483   25.8286 C   0  0  2  0  0  0  0  0  0  0  0  0
    8.1466  -16.9813   25.2872 N   0  0  0  0  0  0  0  0  0  0  0  0
    9.5521  -18.3238   26.6655 C   0  0  0  0  0  0  0  0  0  0  0  0
   10.4553  -19.1836   26.6013 O   0  0  0  0  0  0  0  0  0  0  0  0
    3.9737  -22.9102   22.9088 N   0  0  0  0  0  0  0  0  0  0  0  0
    9.7829  -17.2809   27.6305 C   0  0  0  0  0  0  0  0  0  0  0  0
    9.4719  -17.4924   29.0471 C   0  0  0  0  0  0  0  0  0  0  0  0
   10.3399  -18.5093   29.6434 O   0  0  0  0  0  0  0  0  0  0  0  0
   10.5932  -19.5466   28.9911 O   0  0  0  0  0  0  0  0  0  0  0  0
  2  1  1  0
  3  2  2  0
  4  3  1  0
  5  4  2  0
  5 11  1  0
  6  5  1  0
  7  9  1  0
  7  6  1  0
  7  8  1  6
  9 10  2  0
 11 12  2  0
 12  2  1  0
 14 15  2  0
 14 13  1  0
 16 14  1  0
 17 18  1  0
 17 16  1  0
 18 19  1  0
 20 19  1  6
 21 20  1  0
 21  9  1  0
 22 24  1  0
 22 20  1  0
 23 22  2  0
 25 24  1  0
 26 25  1  0
 26 28  1  0
 27 26  2  0
M  END
$$$$
