QGV.pdb
     RDKit          3D

 21 20  0  0  1  0  0  0  0  0999 V2000
   15.7555  -13.6842  -13.8986 N   0  0  0  0  0  0  0  0  0  0  0  0
   14.4293  -13.4843  -14.3675 C   0  0  0  0  0  0  0  0  0  0  0  0
   13.5032  -14.2433  -14.0009 O   0  0  0  0  0  0  0  0  0  0  0  0
   14.1421  -12.3774  -15.2902 C   0  0  0  0  0  0  0  0  0  0  0  0
   15.3159  -11.4389  -15.4499 C   0  0  0  0  0  0  0  0  0  0  0  0
   15.7325  -11.4895  -16.9029 C   0  0  2  0  0  0  0  0  0  0  0  0
   15.7609  -12.8890  -17.2936 N   0  0  0  0  0  0  0  0  0  0  0  0
   17.0796  -10.9059  -17.1250 C   0  0  0  0  0  0  0  0  0  0  0  0
   17.8405  -11.2932  -18.0653 O   0  0  0  0  0  0  0  0  0  0  0  0
   17.5690   -9.8814  -16.2822 N   0  0  0  0  0  0  0  0  0  0  0  0
   18.8680   -9.2677  -16.4803 C   0  0  0  0  0  0  0  0  0  0  0  0
   19.0818   -8.1615  -15.5037 C   0  0  0  0  0  0  0  0  0  0  0  0
   18.1295   -7.7180  -14.8111 O   0  0  0  0  0  0  0  0  0  0  0  0
   20.8185   -8.4614  -12.5423 C   0  0  0  0  0  0  0  0  0  0  0  0
   21.4783   -7.2755  -13.1656 C   0  0  1  0  0  0  0  0  0  0  0  0
   22.8154   -7.6834  -13.7063 C   0  0  0  0  0  0  0  0  0  0  0  0
   20.5858   -6.6485  -14.2162 C   0  0  2  0  0  0  0  0  0  0  0  0
   20.3517   -7.5627  -15.3099 N   0  0  0  0  0  0  0  0  0  0  0  0
   21.1043   -5.3416  -14.6717 C   0  0  0  0  0  0  0  0  0  0  0  0
   20.8723   -4.1495  -14.0011 O   0  0  0  0  0  0  0  0  0  0  0  0
   21.7961   -5.2669  -15.7179 O   0  0  0  0  0  0  0  0  0  0  0  0
  1  2  1  0
  2  3  2  0
  4  5  1  0
  4  2  1  0
  6  7  1  1
  6  8  1  0
  6  5  1  0
  8 10  1  0
  8  9  2  0
 10 11  1  0
 11 12  1  0
 12 18  1  0
 12 13  2  0
 15 14  1  6
 15 17  1  0
 16 15  1  0
 17 19  1  0
 17 18  1  6
 19 20  1  0
 21 19  2  0
M  END
$$$$
