QGV.pdb
     RDKit          3D

 21 20  0  0  1  0  0  0  0  0999 V2000
   26.1222  -15.6789  -14.9042 N   0  0  0  0  0  0  0  0  0  0  0  0
   25.5790  -15.3848  -16.1836 C   0  0  0  0  0  0  0  0  0  0  0  0
   25.1523  -16.3030  -16.9205 O   0  0  0  0  0  0  0  0  0  0  0  0
   25.5174  -13.9914  -16.6460 C   0  0  0  0  0  0  0  0  0  0  0  0
   24.1833  -13.3441  -16.3535 C   0  0  0  0  0  0  0  0  0  0  0  0
   24.2516  -11.9267  -16.8767 C   0  0  2  0  0  0  0  0  0  0  0  0
   25.6571  -11.5677  -16.9639 N   0  0  0  0  0  0  0  0  0  0  0  0
   23.5681  -10.9602  -15.9805 C   0  0  0  0  0  0  0  0  0  0  0  0
   22.3300  -11.0441  -15.7097 O   0  0  0  0  0  0  0  0  0  0  0  0
   24.2852   -9.8951  -15.3882 N   0  0  0  0  0  0  0  0  0  0  0  0
   23.6692   -8.9655  -14.4611 C   0  0  0  0  0  0  0  0  0  0  0  0
   23.3397   -7.6817  -15.1443 C   0  0  0  0  0  0  0  0  0  0  0  0
   24.1627   -7.1344  -15.9230 O   0  0  0  0  0  0  0  0  0  0  0  0
   20.1854   -7.0456  -17.1068 C   0  0  0  0  0  0  0  0  0  0  0  0
   20.3718   -5.8581  -16.2207 C   0  0  1  0  0  0  0  0  0  0  0  0
   19.3266   -5.8761  -15.1466 C   0  0  0  0  0  0  0  0  0  0  0  0
   21.7812   -5.8096  -15.6687 C   0  0  2  0  0  0  0  0  0  0  0  0
   22.0993   -7.0233  -14.9527 N   0  0  0  0  0  0  0  0  0  0  0  0
   22.0145   -4.5961  -14.8578 C   0  0  0  0  0  0  0  0  0  0  0  0
   22.2391   -4.6211  -13.4890 O   0  0  0  0  0  0  0  0  0  0  0  0
   22.0167   -3.4639  -15.4023 O   0  0  0  0  0  0  0  0  0  0  0  0
  1  2  1  0
  2  3  2  0
  4  5  1  0
  4  2  1  0
  6  7  1  1
  6  8  1  0
  6  5  1  0
  8 10  1  0
  8  9  2  0
 10 11  1  0
 11 12  1  0
 12 18  1  0
 12 13  2  0
 15 14  1  1
 15 17  1  0
 16 15  1  0
 17 19  1  0
 17 18  1  1
 19 20  1  0
 21 19  2  0
M  END
$$$$
