QGV.pdb
     RDKit          3D

 21 20  0  0  1  0  0  0  0  0999 V2000
   14.5679  -28.3436   -3.8516 N   0  0  0  0  0  0  0  0  0  0  0  0
   15.2526  -27.5664   -4.8241 C   0  0  0  0  0  0  0  0  0  0  0  0
   15.8007  -28.1154   -5.8071 O   0  0  0  0  0  0  0  0  0  0  0  0
   15.3180  -26.1060   -4.6751 C   0  0  0  0  0  0  0  0  0  0  0  0
   14.6627  -25.6254   -3.4008 C   0  0  0  0  0  0  0  0  0  0  0  0
   14.8340  -24.1235   -3.3507 C   0  0  2  0  0  0  0  0  0  0  0  0
   16.2604  -23.8557   -3.2749 N   0  0  0  0  0  0  0  0  0  0  0  0
   14.1725  -23.5186   -2.1671 C   0  0  0  0  0  0  0  0  0  0  0  0
   12.9456  -23.7128   -1.9020 O   0  0  0  0  0  0  0  0  0  0  0  0
   14.8991  -22.6915   -1.2796 N   0  0  0  0  0  0  0  0  0  0  0  0
   14.3250  -22.1794   -0.0502 C   0  0  0  0  0  0  0  0  0  0  0  0
   15.3257  -21.3666    0.6991 C   0  0  0  0  0  0  0  0  0  0  0  0
   16.5400  -21.6955    0.7198 O   0  0  0  0  0  0  0  0  0  0  0  0
   14.3354  -17.9257    3.2628 C   0  0  0  0  0  0  0  0  0  0  0  0
   15.4920  -17.9964    2.3208 C   0  0  1  0  0  0  0  0  0  0  0  0
   16.5837  -17.0947    2.8126 C   0  0  0  0  0  0  0  0  0  0  0  0
   15.9514  -19.4272    2.1329 C   0  0  2  0  0  0  0  0  0  0  0  0
   14.9630  -20.1988    1.4155 N   0  0  0  0  0  0  0  0  0  0  0  0
   16.3390  -20.0547    3.4138 C   0  0  0  0  0  0  0  0  0  0  0  0
   15.6013  -21.0543    4.0312 O   0  0  0  0  0  0  0  0  0  0  0  0
   17.3861  -19.6892    4.0043 O   0  0  0  0  0  0  0  0  0  0  0  0
  1  2  1  0
  2  3  2  0
  4  5  1  0
  4  2  1  0
  6  7  1  1
  6  8  1  0
  6  5  1  0
  8 10  1  0
  8  9  2  0
 10 11  1  0
 11 12  1  0
 12 18  1  0
 12 13  2  0
 15 14  1  1
 15 17  1  0
 16 15  1  0
 17 19  1  0
 17 18  1  1
 19 20  1  0
 21 19  2  0
M  END
$$$$
