QGV.pdb
     RDKit          3D

 21 20  0  0  1  0  0  0  0  0999 V2000
   18.2979  -13.3763  -17.5956 N   0  0  0  0  0  0  0  0  0  0  0  0
   19.3082  -13.8773  -18.4597 C   0  0  0  0  0  0  0  0  0  0  0  0
   19.5653  -15.1025  -18.4955 O   0  0  0  0  0  0  0  0  0  0  0  0
   20.0578  -12.9502  -19.3185 C   0  0  0  0  0  0  0  0  0  0  0  0
   19.5680  -11.5255  -19.1965 C   0  0  0  0  0  0  0  0  0  0  0  0
   20.6961  -10.7163  -18.5967 C   0  0  2  0  0  0  0  0  0  0  0  0
   21.6011  -11.6525  -17.9513 N   0  0  0  0  0  0  0  0  0  0  0  0
   20.2163   -9.7427  -17.5835 C   0  0  0  0  0  0  0  0  0  0  0  0
   19.5560   -8.7046  -17.8991 O   0  0  0  0  0  0  0  0  0  0  0  0
   20.4832   -9.9422  -16.2093 N   0  0  0  0  0  0  0  0  0  0  0  0
   20.0482   -9.0063  -15.1904 C   0  0  0  0  0  0  0  0  0  0  0  0
   21.0015   -7.8647  -15.0832 C   0  0  0  0  0  0  0  0  0  0  0  0
   22.1055   -7.8860  -15.6863 O   0  0  0  0  0  0  0  0  0  0  0  0
   20.5185   -4.5262  -16.1901 C   0  0  0  0  0  0  0  0  0  0  0  0
   20.9877   -4.3380  -14.7848 C   0  0  1  0  0  0  0  0  0  0  0  0
   19.8397   -3.8739  -13.9403 C   0  0  0  0  0  0  0  0  0  0  0  0
   21.6340   -5.6012  -14.2554 C   0  0  2  0  0  0  0  0  0  0  0  0
   20.7146   -6.7143  -14.3066 N   0  0  0  0  0  0  0  0  0  0  0  0
   22.2092   -5.4035  -12.9084 C   0  0  0  0  0  0  0  0  0  0  0  0
   23.3282   -4.6217  -12.6605 O   0  0  0  0  0  0  0  0  0  0  0  0
   21.6841   -5.9571  -11.9103 O   0  0  0  0  0  0  0  0  0  0  0  0
  1  2  1  0
  2  3  2  0
  4  5  1  0
  4  2  1  0
  6  7  1  1
  6  8  1  0
  6  5  1  0
  8 10  1  0
  8  9  2  0
 10 11  1  0
 11 12  1  0
 12 18  1  0
 12 13  2  0
 15 14  1  6
 15 17  1  0
 16 15  1  0
 17 19  1  0
 17 18  1  1
 19 20  1  0
 21 19  2  0
M  END
$$$$
