QGV.pdb
     RDKit          3D

 21 20  0  0  1  0  0  0  0  0999 V2000
   18.9658  -15.1706  -17.6290 N   0  0  0  0  0  0  0  0  0  0  0  0
   19.0240  -14.9156  -19.0254 C   0  0  0  0  0  0  0  0  0  0  0  0
   18.1981  -15.4444  -19.8042 O   0  0  0  0  0  0  0  0  0  0  0  0
   20.0621  -14.0238  -19.5604 C   0  0  0  0  0  0  0  0  0  0  0  0
   20.9444  -13.4485  -18.4764 C   0  0  0  0  0  0  0  0  0  0  0  0
   20.5440  -12.0011  -18.2973 C   0  0  2  0  0  0  0  0  0  0  0  0
   21.2609  -11.2295  -19.2987 N   0  0  0  0  0  0  0  0  0  0  0  0
   20.8962  -11.4798  -16.9525 C   0  0  0  0  0  0  0  0  0  0  0  0
   20.3743  -11.9376  -15.8889 O   0  0  0  0  0  0  0  0  0  0  0  0
   21.8411  -10.4378  -16.8082 N   0  0  0  0  0  0  0  0  0  0  0  0
   22.1343   -9.8279  -15.5255 C   0  0  0  0  0  0  0  0  0  0  0  0
   22.3191   -8.3556  -15.6729 C   0  0  0  0  0  0  0  0  0  0  0  0
   23.0349   -7.8833  -16.5936 O   0  0  0  0  0  0  0  0  0  0  0  0
   20.4300   -5.9895  -16.9711 C   0  0  0  0  0  0  0  0  0  0  0  0
   20.6795   -5.3792  -15.6311 C   0  0  1  0  0  0  0  0  0  0  0  0
   19.4367   -5.4898  -14.8005 C   0  0  0  0  0  0  0  0  0  0  0  0
   21.8880   -6.0052  -14.9670 C   0  0  2  0  0  0  0  0  0  0  0  0
   21.7057   -7.4279  -14.7945 N   0  0  0  0  0  0  0  0  0  0  0  0
   22.2390   -5.3221  -13.7042 C   0  0  0  0  0  0  0  0  0  0  0  0
   22.9009   -4.1040  -13.6506 O   0  0  0  0  0  0  0  0  0  0  0  0
   21.9381   -5.8419  -12.6006 O   0  0  0  0  0  0  0  0  0  0  0  0
  1  2  1  0
  2  3  2  0
  4  5  1  0
  4  2  1  0
  6  7  1  6
  6  8  1  0
  6  5  1  0
  8 10  1  0
  8  9  2  0
 10 11  1  0
 11 12  1  0
 12 18  1  0
 12 13  2  0
 15 14  1  6
 15 17  1  0
 16 15  1  0
 17 19  1  0
 17 18  1  1
 19 20  1  0
 21 19  2  0
M  END
$$$$
