QGV.pdb
     RDKit          3D

 21 20  0  0  1  0  0  0  0  0999 V2000
   24.7557  -24.7592  -17.1858 N   0  0  0  0  0  0  0  0  0  0  0  0
   25.3252  -24.9018  -15.8921 C   0  0  0  0  0  0  0  0  0  0  0  0
   26.4552  -25.4219  -15.7476 O   0  0  0  0  0  0  0  0  0  0  0  0
   24.5820  -24.4350  -14.7136 C   0  0  0  0  0  0  0  0  0  0  0  0
   23.1419  -24.1048  -15.0321 C   0  0  0  0  0  0  0  0  0  0  0  0
   23.0928  -22.6401  -15.4057 C   0  0  2  0  0  0  0  0  0  0  0  0
   24.1277  -22.4151  -16.4010 N   0  0  0  0  0  0  0  0  0  0  0  0
   23.3486  -21.7518  -14.2438 C   0  0  0  0  0  0  0  0  0  0  0  0
   22.5660  -21.6985  -13.2449 O   0  0  0  0  0  0  0  0  0  0  0  0
   24.4922  -20.9209  -14.2099 N   0  0  0  0  0  0  0  0  0  0  0  0
   24.7037  -19.9337  -13.1687 C   0  0  0  0  0  0  0  0  0  0  0  0
   25.2656  -20.5727  -11.9442 C   0  0  0  0  0  0  0  0  0  0  0  0
   25.3552  -21.8243  -11.8516 O   0  0  0  0  0  0  0  0  0  0  0  0
   26.3800  -18.2945   -8.4049 C   0  0  0  0  0  0  0  0  0  0  0  0
   27.0348  -19.5782   -8.7970 C   0  0  1  0  0  0  0  0  0  0  0  0
   27.5567  -20.2603   -7.5686 C   0  0  0  0  0  0  0  0  0  0  0  0
   26.0866  -20.4487   -9.5949 C   0  0  2  0  0  0  0  0  0  0  0  0
   25.7204  -19.8114  -10.8386 N   0  0  0  0  0  0  0  0  0  0  0  0
   24.9094  -20.8553   -8.7990 C   0  0  0  0  0  0  0  0  0  0  0  0
   24.9579  -21.8077   -7.7914 O   0  0  0  0  0  0  0  0  0  0  0  0
   23.7882  -20.3324   -9.0180 O   0  0  0  0  0  0  0  0  0  0  0  0
  1  2  1  0
  2  3  2  0
  4  5  1  0
  4  2  1  0
  6  7  1  6
  6  8  1  0
  6  5  1  0
  8 10  1  0
  8  9  2  0
 10 11  1  0
 11 12  1  0
 12 18  1  0
 12 13  2  0
 15 14  1  1
 15 17  1  0
 16 15  1  0
 17 19  1  0
 17 18  1  6
 19 20  1  0
 21 19  2  0
M  END
$$$$
