QGV.pdb
     RDKit          3D

 21 20  0  0  1  0  0  0  0  0999 V2000
   25.1117  -17.1780  -19.7506 N   0  0  0  0  0  0  0  0  0  0  0  0
   24.0592  -17.8516  -20.4264 C   0  0  0  0  0  0  0  0  0  0  0  0
   24.1580  -18.1271  -21.6440 O   0  0  0  0  0  0  0  0  0  0  0  0
   22.8445  -18.2283  -19.6905 C   0  0  0  0  0  0  0  0  0  0  0  0
   22.8877  -17.7941  -18.2434 C   0  0  0  0  0  0  0  0  0  0  0  0
   23.4290  -18.9588  -17.4448 C   0  0  2  0  0  0  0  0  0  0  0  0
   22.4885  -20.0566  -17.5937 N   0  0  0  0  0  0  0  0  0  0  0  0
   23.5635  -18.6397  -16.0009 C   0  0  0  0  0  0  0  0  0  0  0  0
   24.2929  -17.6885  -15.5810 O   0  0  0  0  0  0  0  0  0  0  0  0
   22.8718  -19.3976  -15.0279 N   0  0  0  0  0  0  0  0  0  0  0  0
   22.9646  -19.1095  -13.6096 C   0  0  0  0  0  0  0  0  0  0  0  0
   22.0838  -20.0244  -12.8281 C   0  0  0  0  0  0  0  0  0  0  0  0
   21.3800  -20.8930  -13.4055 O   0  0  0  0  0  0  0  0  0  0  0  0
   23.2299  -21.3366   -9.2435 C   0  0  0  0  0  0  0  0  0  0  0  0
   21.7613  -21.0657   -9.2528 C   0  0  1  0  0  0  0  0  0  0  0  0
   21.4794  -19.8507   -8.4216 C   0  0  0  0  0  0  0  0  0  0  0  0
   21.2419  -20.9419  -10.6699 C   0  0  2  0  0  0  0  0  0  0  0  0
   21.9973  -19.9614  -11.4149 N   0  0  0  0  0  0  0  0  0  0  0  0
   19.7875  -20.6811  -10.7035 C   0  0  0  0  0  0  0  0  0  0  0  0
   18.8284  -21.6823  -10.6521 O   0  0  0  0  0  0  0  0  0  0  0  0
   19.3592  -19.5027  -10.7823 O   0  0  0  0  0  0  0  0  0  0  0  0
  1  2  1  0
  2  3  2  0
  4  5  1  0
  4  2  1  0
  6  7  1  1
  6  8  1  0
  6  5  1  0
  8 10  1  0
  8  9  2  0
 10 11  1  0
 11 12  1  0
 12 18  1  0
 12 13  2  0
 15 14  1  6
 15 17  1  0
 16 15  1  0
 17 19  1  0
 17 18  1  1
 19 20  1  0
 21 19  2  0
M  END
$$$$
