QGV.pdb
     RDKit          3D

 21 20  0  0  1  0  0  0  0  0999 V2000
   22.9528  -22.8204  -14.0676 N   0  0  0  0  0  0  0  0  0  0  0  0
   22.4853  -21.4819  -13.9758 C   0  0  0  0  0  0  0  0  0  0  0  0
   21.2588  -21.2319  -14.0137 O   0  0  0  0  0  0  0  0  0  0  0  0
   23.4491  -20.3817  -13.8353 C   0  0  0  0  0  0  0  0  0  0  0  0
   24.8794  -20.8684  -13.7939 C   0  0  0  0  0  0  0  0  0  0  0  0
   25.0630  -21.6011  -12.4836 C   0  0  2  0  0  0  0  0  0  0  0  0
   23.8226  -21.4669  -11.7383 N   0  0  0  0  0  0  0  0  0  0  0  0
   26.1701  -21.0366  -11.6710 C   0  0  0  0  0  0  0  0  0  0  0  0
   27.3838  -21.1003  -12.0400 O   0  0  0  0  0  0  0  0  0  0  0  0
   25.9056  -20.3980  -10.4374 N   0  0  0  0  0  0  0  0  0  0  0  0
   26.9574  -19.8300   -9.6163 C   0  0  0  0  0  0  0  0  0  0  0  0
   26.9893  -20.4830   -8.2761 C   0  0  0  0  0  0  0  0  0  0  0  0
   26.4712  -21.6155   -8.0968 O   0  0  0  0  0  0  0  0  0  0  0  0
   30.0773  -20.0695   -5.6879 C   0  0  0  0  0  0  0  0  0  0  0  0
   28.7523  -19.9661   -5.0070 C   0  0  1  0  0  0  0  0  0  0  0  0
   28.5067  -18.5386   -4.6215 C   0  0  0  0  0  0  0  0  0  0  0  0
   27.6509  -20.5386   -5.8745 C   0  0  2  0  0  0  0  0  0  0  0  0
   27.5970  -19.8682   -7.1530 N   0  0  0  0  0  0  0  0  0  0  0  0
   26.3461  -20.5395   -5.1802 C   0  0  0  0  0  0  0  0  0  0  0  0
   26.0663  -21.3324   -4.0767 O   0  0  0  0  0  0  0  0  0  0  0  0
   25.4167  -19.7957   -5.5821 O   0  0  0  0  0  0  0  0  0  0  0  0
  1  2  1  0
  2  3  2  0
  4  5  1  0
  4  2  1  0
  6  7  1  1
  6  8  1  0
  6  5  1  0
  8 10  1  0
  8  9  2  0
 10 11  1  0
 11 12  1  0
 12 18  1  0
 12 13  2  0
 15 14  1  6
 15 17  1  0
 16 15  1  0
 17 19  1  0
 17 18  1  6
 19 20  1  0
 21 19  2  0
M  END
$$$$
