QGV.pdb
     RDKit          3D

 21 20  0  0  1  0  0  0  0  0999 V2000
   21.3608  -23.2113  -16.2409 N   0  0  0  0  0  0  0  0  0  0  0  0
   21.8047  -22.4534  -17.3575 C   0  0  0  0  0  0  0  0  0  0  0  0
   22.8088  -22.8141  -18.0133 O   0  0  0  0  0  0  0  0  0  0  0  0
   21.0794  -21.2361  -17.7463 C   0  0  0  0  0  0  0  0  0  0  0  0
   21.7742  -19.9766  -17.2824 C   0  0  0  0  0  0  0  0  0  0  0  0
   20.8102  -19.2439  -16.3762 C   0  0  2  0  0  0  0  0  0  0  0  0
   19.5313  -19.1878  -17.0641 N   0  0  0  0  0  0  0  0  0  0  0  0
   21.2538  -17.8578  -16.0821 C   0  0  0  0  0  0  0  0  0  0  0  0
   22.3292  -17.6081  -15.4541 O   0  0  0  0  0  0  0  0  0  0  0  0
   20.4803  -16.7499  -16.4988 N   0  0  0  0  0  0  0  0  0  0  0  0
   20.8429  -15.3839  -16.1737 C   0  0  0  0  0  0  0  0  0  0  0  0
   19.8872  -14.4234  -16.7963 C   0  0  0  0  0  0  0  0  0  0  0  0
   19.3033  -14.7011  -17.8757 O   0  0  0  0  0  0  0  0  0  0  0  0
   16.8439  -13.2744  -15.2675 C   0  0  0  0  0  0  0  0  0  0  0  0
   17.4969  -12.0148  -15.7336 C   0  0  1  0  0  0  0  0  0  0  0  0
   18.0181  -11.2620  -14.5469 C   0  0  0  0  0  0  0  0  0  0  0  0
   18.5700  -12.3086  -16.7610 C   0  0  2  0  0  0  0  0  0  0  0  0
   19.5934  -13.1668  -16.2104 N   0  0  0  0  0  0  0  0  0  0  0  0
   19.1246  -11.0711  -17.3487 C   0  0  0  0  0  0  0  0  0  0  0  0
   18.4765  -10.3301  -18.3263 O   0  0  0  0  0  0  0  0  0  0  0  0
   20.2399  -10.6361  -16.9676 O   0  0  0  0  0  0  0  0  0  0  0  0
  1  2  1  0
  2  3  2  0
  4  5  1  0
  4  2  1  0
  6  7  1  6
  6  8  1  0
  6  5  1  0
  8 10  1  0
  8  9  2  0
 10 11  1  0
 11 12  1  0
 12 18  1  0
 12 13  2  0
 15 14  1  1
 15 17  1  0
 16 15  1  0
 17 19  1  0
 17 18  1  1
 19 20  1  0
 21 19  2  0
M  END
$$$$
