QGV.pdb
     RDKit          3D

 21 20  0  0  1  0  0  0  0  0999 V2000
   29.3083  -23.5166  -17.8134 N   0  0  0  0  0  0  0  0  0  0  0  0
   28.9138  -22.1964  -18.1595 C   0  0  0  0  0  0  0  0  0  0  0  0
   29.7723  -21.3056  -18.3536 O   0  0  0  0  0  0  0  0  0  0  0  0
   27.4863  -21.8736  -18.2909 C   0  0  0  0  0  0  0  0  0  0  0  0
   27.0276  -20.8572  -17.2706 C   0  0  0  0  0  0  0  0  0  0  0  0
   26.5639  -21.6257  -16.0534 C   0  0  2  0  0  0  0  0  0  0  0  0
   25.4152  -22.4190  -16.4576 N   0  0  0  0  0  0  0  0  0  0  0  0
   26.1565  -20.7303  -14.9413 C   0  0  0  0  0  0  0  0  0  0  0  0
   25.0793  -20.0580  -14.9710 O   0  0  0  0  0  0  0  0  0  0  0  0
   26.9685  -20.5935  -13.7918 N   0  0  0  0  0  0  0  0  0  0  0  0
   26.6023  -19.7368  -12.6804 C   0  0  0  0  0  0  0  0  0  0  0  0
   26.4195  -20.5383  -11.4363 C   0  0  0  0  0  0  0  0  0  0  0  0
   26.3779  -21.7952  -11.4778 O   0  0  0  0  0  0  0  0  0  0  0  0
   28.0699  -20.1818   -8.0004 C   0  0  0  0  0  0  0  0  0  0  0  0
   26.5969  -20.2475   -7.7639 C   0  0  1  0  0  0  0  0  0  0  0  0
   26.1195  -18.9195   -7.2588 C   0  0  0  0  0  0  0  0  0  0  0  0
   25.8671  -20.6986   -9.0119 C   0  0  2  0  0  0  0  0  0  0  0  0
   26.2853  -19.9317  -10.1625 N   0  0  0  0  0  0  0  0  0  0  0  0
   24.4008  -20.6886   -8.8273 C   0  0  0  0  0  0  0  0  0  0  0  0
   23.5397  -19.9009   -9.5775 O   0  0  0  0  0  0  0  0  0  0  0  0
   23.8695  -21.4193   -7.9542 O   0  0  0  0  0  0  0  0  0  0  0  0
  1  2  1  0
  2  3  2  0
  4  5  1  0
  4  2  1  0
  6  7  1  6
  6  8  1  0
  6  5  1  0
  8 10  1  0
  8  9  2  0
 10 11  1  0
 11 12  1  0
 12 18  1  0
 12 13  2  0
 15 14  1  6
 15 17  1  0
 16 15  1  0
 17 19  1  0
 17 18  1  6
 19 20  1  0
 21 19  2  0
M  END
$$$$
