QGV.pdb
     RDKit          3D

 21 20  0  0  1  0  0  0  0  0999 V2000
   24.8121  -24.5169  -13.8666 N   0  0  0  0  0  0  0  0  0  0  0  0
   25.5617  -23.3487  -14.1698 C   0  0  0  0  0  0  0  0  0  0  0  0
   26.8099  -23.3986  -14.2593 O   0  0  0  0  0  0  0  0  0  0  0  0
   24.8667  -22.0713  -14.3801 C   0  0  0  0  0  0  0  0  0  0  0  0
   25.3903  -20.9740  -13.4823 C   0  0  0  0  0  0  0  0  0  0  0  0
   24.9225  -21.2859  -12.0783 C   0  0  2  0  0  0  0  0  0  0  0  0
   23.4697  -21.3123  -12.1049 N   0  0  0  0  0  0  0  0  0  0  0  0
   25.3622  -20.2628  -11.0961 C   0  0  0  0  0  0  0  0  0  0  0  0
   25.2049  -19.0184  -11.2957 O   0  0  0  0  0  0  0  0  0  0  0  0
   25.9815  -20.6466   -9.8842 N   0  0  0  0  0  0  0  0  0  0  0  0
   26.5168  -19.6791   -8.9458 C   0  0  0  0  0  0  0  0  0  0  0  0
   27.1119  -20.3661   -7.7637 C   0  0  0  0  0  0  0  0  0  0  0  0
   26.9249  -21.5950   -7.5689 O   0  0  0  0  0  0  0  0  0  0  0  0
   30.6593  -20.1343   -5.9989 C   0  0  0  0  0  0  0  0  0  0  0  0
   29.5720  -19.7902   -5.0347 C   0  0  1  0  0  0  0  0  0  0  0  0
   29.5972  -18.3152   -4.7699 C   0  0  0  0  0  0  0  0  0  0  0  0
   28.2281  -20.2743   -5.5379 C   0  0  2  0  0  0  0  0  0  0  0  0
   27.9070  -19.6776   -6.8138 N   0  0  0  0  0  0  0  0  0  0  0  0
   27.1601  -20.0767   -4.5356 C   0  0  0  0  0  0  0  0  0  0  0  0
   26.0682  -19.2441   -4.7338 O   0  0  0  0  0  0  0  0  0  0  0  0
   27.2097  -20.6779   -3.4335 O   0  0  0  0  0  0  0  0  0  0  0  0
  1  2  1  0
  2  3  2  0
  4  5  1  0
  4  2  1  0
  6  7  1  6
  6  8  1  0
  6  5  1  0
  8 10  1  0
  8  9  2  0
 10 11  1  0
 11 12  1  0
 12 18  1  0
 12 13  2  0
 15 14  1  6
 15 17  1  0
 16 15  1  0
 17 19  1  0
 17 18  1  6
 19 20  1  0
 21 19  2  0
M  END
$$$$
