QGV.pdb
     RDKit          3D

 21 20  0  0  1  0  0  0  0  0999 V2000
   13.1967  -15.8225  -17.7270 N   0  0  0  0  0  0  0  0  0  0  0  0
   14.1014  -15.8395  -16.6318 C   0  0  0  0  0  0  0  0  0  0  0  0
   14.1175  -16.8048  -15.8341 O   0  0  0  0  0  0  0  0  0  0  0  0
   15.0261  -14.7150  -16.4334 C   0  0  0  0  0  0  0  0  0  0  0  0
   16.3105  -14.8786  -17.2130 C   0  0  0  0  0  0  0  0  0  0  0  0
   17.4389  -14.4277  -16.3125 C   0  0  2  0  0  0  0  0  0  0  0  0
   16.8753  -14.2166  -14.9896 N   0  0  0  0  0  0  0  0  0  0  0  0
   18.0577  -13.1595  -16.7742 C   0  0  0  0  0  0  0  0  0  0  0  0
   18.7256  -13.0830  -17.8518 O   0  0  0  0  0  0  0  0  0  0  0  0
   17.9219  -11.9735  -16.0162 N   0  0  0  0  0  0  0  0  0  0  0  0
   18.5268  -10.7195  -16.4220 C   0  0  0  0  0  0  0  0  0  0  0  0
   19.4096  -10.1880  -15.3442 C   0  0  0  0  0  0  0  0  0  0  0  0
   19.1218  -10.3573  -14.1311 O   0  0  0  0  0  0  0  0  0  0  0  0
   22.9582  -10.9185  -14.5319 C   0  0  0  0  0  0  0  0  0  0  0  0
   22.8648   -9.4402  -14.7218 C   0  0  1  0  0  0  0  0  0  0  0  0
   23.4599   -9.0755  -16.0483 C   0  0  0  0  0  0  0  0  0  0  0  0
   21.4357   -8.9632  -14.5676 C   0  0  2  0  0  0  0  0  0  0  0  0
   20.6010   -9.4753  -15.6296 N   0  0  0  0  0  0  0  0  0  0  0  0
   21.3556   -7.4926  -14.4435 C   0  0  0  0  0  0  0  0  0  0  0  0
   21.6551   -6.8049  -13.2765 O   0  0  0  0  0  0  0  0  0  0  0  0
   21.0010   -6.7947  -15.4262 O   0  0  0  0  0  0  0  0  0  0  0  0
  1  2  1  0
  2  3  2  0
  4  5  1  0
  4  2  1  0
  6  7  1  1
  6  8  1  0
  6  5  1  0
  8 10  1  0
  8  9  2  0
 10 11  1  0
 11 12  1  0
 12 18  1  0
 12 13  2  0
 15 14  1  6
 15 17  1  0
 16 15  1  0
 17 19  1  0
 17 18  1  6
 19 20  1  0
 21 19  2  0
M  END
$$$$
