QGV.pdb
     RDKit          3D

 21 20  0  0  1  0  0  0  0  0999 V2000
   23.2895  -21.1338  -15.0316 N   0  0  0  0  0  0  0  0  0  0  0  0
   22.4449  -20.3896  -15.8983 C   0  0  0  0  0  0  0  0  0  0  0  0
   21.3492  -20.8613  -16.2792 O   0  0  0  0  0  0  0  0  0  0  0  0
   22.8606  -19.0551  -16.3514 C   0  0  0  0  0  0  0  0  0  0  0  0
   24.1899  -18.6348  -15.7678 C   0  0  0  0  0  0  0  0  0  0  0  0
   24.1501  -17.1316  -15.6058 C   0  0  2  0  0  0  0  0  0  0  0  0
   23.4594  -16.5922  -16.7651 N   0  0  0  0  0  0  0  0  0  0  0  0
   25.5078  -16.5344  -15.5400 C   0  0  0  0  0  0  0  0  0  0  0  0
   26.2732  -16.6970  -14.5396 O   0  0  0  0  0  0  0  0  0  0  0  0
   26.0030  -15.7507  -16.6078 N   0  0  0  0  0  0  0  0  0  0  0  0
   27.3225  -15.1496  -16.5826 C   0  0  0  0  0  0  0  0  0  0  0  0
   27.2623  -13.7290  -17.0319 C   0  0  0  0  0  0  0  0  0  0  0  0
   26.1630  -13.1214  -17.1076 O   0  0  0  0  0  0  0  0  0  0  0  0
   30.7091  -11.5343  -18.5649 C   0  0  0  0  0  0  0  0  0  0  0  0
   29.6644  -10.9232  -17.6902 C   0  0  1  0  0  0  0  0  0  0  0  0
   29.5752   -9.4556  -17.9812 C   0  0  0  0  0  0  0  0  0  0  0  0
   28.3379  -11.6361  -17.8510 C   0  0  2  0  0  0  0  0  0  0  0  0
   28.4250  -13.0028  -17.3912 N   0  0  0  0  0  0  0  0  0  0  0  0
   27.8216  -11.5352  -19.2322 C   0  0  0  0  0  0  0  0  0  0  0  0
   27.0569  -10.4713  -19.6883 O   0  0  0  0  0  0  0  0  0  0  0  0
   28.0678  -12.4423  -20.0660 O   0  0  0  0  0  0  0  0  0  0  0  0
  1  2  1  0
  2  3  2  0
  4  5  1  0
  4  2  1  0
  6  7  1  6
  6  8  1  0
  6  5  1  0
  8 10  1  0
  8  9  2  0
 10 11  1  0
 11 12  1  0
 12 18  1  0
 12 13  2  0
 15 14  1  6
 15 17  1  0
 16 15  1  0
 17 19  1  0
 17 18  1  6
 19 20  1  0
 21 19  2  0
M  END
$$$$
