QGV.pdb
     RDKit          3D

 21 20  0  0  1  0  0  0  0  0999 V2000
   25.2224  -23.8376  -13.8806 N   0  0  0  0  0  0  0  0  0  0  0  0
   25.3098  -22.5128  -14.3863 C   0  0  0  0  0  0  0  0  0  0  0  0
   26.3248  -22.1376  -15.0167 O   0  0  0  0  0  0  0  0  0  0  0  0
   24.1999  -21.5750  -14.1678 C   0  0  0  0  0  0  0  0  0  0  0  0
   24.5339  -20.5127  -13.1458 C   0  0  0  0  0  0  0  0  0  0  0  0
   24.4484  -21.1629  -11.7830 C   0  0  2  0  0  0  0  0  0  0  0  0
   23.0590  -21.5317  -11.5688 N   0  0  0  0  0  0  0  0  0  0  0  0
   24.8715  -20.2479  -10.6930 C   0  0  0  0  0  0  0  0  0  0  0  0
   24.0884  -19.3838  -10.1897 O   0  0  0  0  0  0  0  0  0  0  0  0
   26.1837  -20.3089  -10.1695 N   0  0  0  0  0  0  0  0  0  0  0  0
   26.6611  -19.3818   -9.1616 C   0  0  0  0  0  0  0  0  0  0  0  0
   27.0227  -20.1063   -7.9095 C   0  0  0  0  0  0  0  0  0  0  0  0
   26.8145  -21.3419   -7.7949 O   0  0  0  0  0  0  0  0  0  0  0  0
   30.2484  -19.1185   -5.8741 C   0  0  0  0  0  0  0  0  0  0  0  0
   29.1602  -19.4796   -4.9173 C   0  0  1  0  0  0  0  0  0  0  0  0
   28.7154  -18.2472   -4.1893 C   0  0  0  0  0  0  0  0  0  0  0  0
   28.0242  -20.1840   -5.6292 C   0  0  2  0  0  0  0  0  0  0  0  0
   27.6111  -19.4473   -6.8012 N   0  0  0  0  0  0  0  0  0  0  0  0
   26.8980  -20.4751   -4.7174 C   0  0  0  0  0  0  0  0  0  0  0  0
   26.9676  -21.3993   -3.6850 O   0  0  0  0  0  0  0  0  0  0  0  0
   25.8037  -19.8732   -4.8537 O   0  0  0  0  0  0  0  0  0  0  0  0
  1  2  1  0
  2  3  2  0
  4  5  1  0
  4  2  1  0
  6  7  1  1
  6  8  1  0
  6  5  1  0
  8 10  1  0
  8  9  2  0
 10 11  1  0
 11 12  1  0
 12 18  1  0
 12 13  2  0
 15 14  1  6
 15 17  1  0
 16 15  1  0
 17 19  1  0
 17 18  1  6
 19 20  1  0
 21 19  2  0
M  END
$$$$
