QGV.pdb
     RDKit          3D

 21 20  0  0  1  0  0  0  0  0999 V2000
   19.0238  -16.9795  -18.4573 N   0  0  0  0  0  0  0  0  0  0  0  0
   17.6053  -17.0527  -18.4859 C   0  0  0  0  0  0  0  0  0  0  0  0
   17.0164  -18.1165  -18.1862 O   0  0  0  0  0  0  0  0  0  0  0  0
   16.8225  -15.8701  -18.8702 C   0  0  0  0  0  0  0  0  0  0  0  0
   17.6872  -14.6487  -19.0823 C   0  0  0  0  0  0  0  0  0  0  0  0
   17.4973  -13.7537  -17.8781 C   0  0  2  0  0  0  0  0  0  0  0  0
   16.2557  -13.0247  -18.0756 N   0  0  0  0  0  0  0  0  0  0  0  0
   18.6036  -12.7760  -17.7208 C   0  0  0  0  0  0  0  0  0  0  0  0
   19.7759  -13.1265  -17.3804 O   0  0  0  0  0  0  0  0  0  0  0  0
   18.3851  -11.3977  -17.9488 N   0  0  0  0  0  0  0  0  0  0  0  0
   19.4663  -10.4311  -17.9553 C   0  0  0  0  0  0  0  0  0  0  0  0
   19.9007  -10.1183  -16.5636 C   0  0  0  0  0  0  0  0  0  0  0  0
   19.1938  -10.4484  -15.5764 O   0  0  0  0  0  0  0  0  0  0  0  0
   22.7712  -11.2958  -14.7606 C   0  0  0  0  0  0  0  0  0  0  0  0
   22.8529   -9.8117  -14.6159 C   0  0  1  0  0  0  0  0  0  0  0  0
   23.9688   -9.2940  -15.4721 C   0  0  0  0  0  0  0  0  0  0  0  0
   21.5211   -9.1624  -14.9298 C   0  0  2  0  0  0  0  0  0  0  0  0
   21.1155   -9.4424  -16.2878 N   0  0  0  0  0  0  0  0  0  0  0  0
   21.5281   -7.7156  -14.6278 C   0  0  0  0  0  0  0  0  0  0  0  0
   21.4219   -7.2006  -13.3440 O   0  0  0  0  0  0  0  0  0  0  0  0
   21.6342   -6.8773  -15.5575 O   0  0  0  0  0  0  0  0  0  0  0  0
  1  2  1  0
  2  3  2  0
  4  5  1  0
  4  2  1  0
  6  7  1  6
  6  8  1  0
  6  5  1  0
  8 10  1  0
  8  9  2  0
 10 11  1  0
 11 12  1  0
 12 18  1  0
 12 13  2  0
 15 14  1  6
 15 17  1  0
 16 15  1  0
 17 19  1  0
 17 18  1  6
 19 20  1  0
 21 19  2  0
M  END
$$$$
