IIN.pdb
     RDKit          3D

 25 24  0  0  1  0  0  0  0  0999 V2000
   11.7964  -14.7349   30.5337 C   0  0  0  0  0  0  0  0  0  0  0  0
   10.9542  -15.8138   29.9787 C   0  0  0  0  0  0  0  0  0  0  0  0
   10.1537  -15.5608   28.7717 C   0  0  2  0  0  0  0  0  0  0  0  0
    9.3801  -14.2468   28.8478 C   0  0  0  0  0  0  0  0  0  0  0  0
    9.2433  -16.5931   28.2802 C   0  0  2  0  0  0  0  0  0  0  0  0
    9.8715  -17.9289   28.3635 N   0  0  0  0  0  0  0  0  0  0  0  0
    8.6002  -16.4499   26.9600 C   0  0  0  0  0  0  0  0  0  0  0  0
    8.0715  -17.4668   26.4221 O   0  0  0  0  0  0  0  0  0  0  0  0
    6.2426  -11.7668   26.3215 C   0  0  0  0  0  0  0  0  0  0  0  0
    6.3714  -13.2106   25.9373 C   0  0  0  0  0  0  0  0  0  0  0  0
    7.4223  -13.4713   24.8923 C   0  0  2  0  0  0  0  0  0  0  0  0
    6.8864  -13.2282   23.4989 C   0  0  0  0  0  0  0  0  0  0  0  0
    7.8843  -14.8996   25.0295 C   0  0  2  0  0  0  0  0  0  0  0  0
    8.5500  -15.2179   26.2655 N   0  0  0  0  0  0  0  0  0  0  0  0
    8.5598  -15.4298   23.8525 C   0  0  0  0  0  0  0  0  0  0  0  0
    8.1125  -15.2827   22.6923 O   0  0  0  0  0  0  0  0  0  0  0  0
   12.0631  -17.0870   20.5653 N   0  0  0  0  0  0  0  0  0  0  0  0
   11.9322  -15.7093   20.8528 C   0  0  0  0  0  0  0  0  0  0  0  0
   12.4509  -14.8021   20.1340 O   0  0  0  0  0  0  0  0  0  0  0  0
   11.1497  -15.3274   22.0529 C   0  0  0  0  0  0  0  0  0  0  0  0
   10.5567  -16.5218   22.7537 C   0  0  2  0  0  0  0  0  0  0  0  0
    9.7978  -16.1675   23.9212 N   0  0  0  0  0  0  0  0  0  0  0  0
   11.7167  -17.3513   23.2314 C   0  0  0  0  0  0  0  0  0  0  0  0
   11.9025  -17.5026   24.4699 O   0  0  0  0  0  0  0  0  0  0  0  0
   12.5997  -17.9635   22.3727 O   0  0  0  0  0  0  0  0  0  0  0  0
  2  1  1  0
  2  3  1  0
  3  5  1  0
  3  4  1  1
  5  6  1  6
  7  5  1  0
  7  8  2  0
  9 10  1  0
 10 11  1  0
 11 12  1  6
 13 11  1  0
 13 14  1  1
 14  7  1  0
 15 13  1  0
 16 15  2  0
 17 18  1  0
 18 20  1  0
 18 19  2  0
 21 20  1  1
 21 22  1  0
 22 15  1  0
 23 21  1  0
 23 25  1  0
 24 23  2  0
M  END
$$$$
