IIN.pdb
     RDKit          3D

 25 24  0  0  1  0  0  0  0  0999 V2000
   11.5101  -14.5502   30.4531 C   0  0  0  0  0  0  0  0  0  0  0  0
   10.6702  -15.6690   29.9793 C   0  0  0  0  0  0  0  0  0  0  0  0
   10.1483  -15.6524   28.6050 C   0  0  2  0  0  0  0  0  0  0  0  0
    9.9095  -14.2362   28.0870 C   0  0  0  0  0  0  0  0  0  0  0  0
    8.9776  -16.4600   28.2679 C   0  0  2  0  0  0  0  0  0  0  0  0
    9.1711  -17.8643   28.6880 N   0  0  0  0  0  0  0  0  0  0  0  0
    8.4324  -16.4429   26.8971 C   0  0  0  0  0  0  0  0  0  0  0  0
    8.3566  -17.5308   26.2538 O   0  0  0  0  0  0  0  0  0  0  0  0
    7.2377  -11.6097   25.7202 C   0  0  0  0  0  0  0  0  0  0  0  0
    7.4408  -12.6668   24.6763 C   0  0  0  0  0  0  0  0  0  0  0  0
    6.5239  -13.8511   24.8222 C   0  0  2  0  0  0  0  0  0  0  0  0
    5.6048  -13.6931   26.0130 C   0  0  0  0  0  0  0  0  0  0  0  0
    7.3690  -15.0895   24.9787 C   0  0  2  0  0  0  0  0  0  0  0  0
    7.9892  -15.2557   26.2671 N   0  0  0  0  0  0  0  0  0  0  0  0
    8.2688  -15.3495   23.8627 C   0  0  0  0  0  0  0  0  0  0  0  0
    7.9460  -15.1416   22.6710 O   0  0  0  0  0  0  0  0  0  0  0  0
   12.0820  -16.9089   20.8670 N   0  0  0  0  0  0  0  0  0  0  0  0
   12.0154  -15.5279   21.1602 C   0  0  0  0  0  0  0  0  0  0  0  0
   12.6382  -14.6493   20.4899 O   0  0  0  0  0  0  0  0  0  0  0  0
   11.1747  -15.1067   22.3066 C   0  0  0  0  0  0  0  0  0  0  0  0
   10.4319  -16.2615   22.9265 C   0  0  2  0  0  0  0  0  0  0  0  0
    9.6048  -15.8671   24.0332 N   0  0  0  0  0  0  0  0  0  0  0  0
   11.4781  -17.1885   23.4818 C   0  0  0  0  0  0  0  0  0  0  0  0
   12.3218  -17.7095   22.7019 O   0  0  0  0  0  0  0  0  0  0  0  0
   11.5632  -17.5023   24.8182 O   0  0  0  0  0  0  0  0  0  0  0  0
  2  1  1  0
  2  3  1  0
  3  5  1  0
  3  4  1  1
  5  6  1  6
  7  5  1  0
  7  8  2  0
  9 10  1  0
 10 11  1  0
 11 12  1  1
 13 11  1  0
 13 14  1  1
 14  7  1  0
 15 13  1  0
 16 15  2  0
 17 18  1  0
 18 20  1  0
 18 19  2  0
 21 20  1  1
 21 22  1  0
 22 15  1  0
 23 21  1  0
 23 25  1  0
 24 23  2  0
M  END
$$$$
