IIN.pdb
     RDKit          3D

 25 24  0  0  1  0  0  0  0  0999 V2000
    6.9762  -17.8051   17.9719 C   0  0  0  0  0  0  0  0  0  0  0  0
    6.3880  -17.0435   19.0923 C   0  0  0  0  0  0  0  0  0  0  0  0
    7.2722  -16.3976   20.0733 C   0  0  2  0  0  0  0  0  0  0  0  0
    8.3540  -17.3400   20.5954 C   0  0  0  0  0  0  0  0  0  0  0  0
    6.6913  -15.6986   21.2180 C   0  0  2  0  0  0  0  0  0  0  0  0
    5.6471  -14.7491   20.7775 N   0  0  0  0  0  0  0  0  0  0  0  0
    7.5639  -15.0263   22.1995 C   0  0  0  0  0  0  0  0  0  0  0  0
    8.4763  -14.2545   21.7813 O   0  0  0  0  0  0  0  0  0  0  0  0
    5.7849  -12.2448   26.2672 C   0  0  0  0  0  0  0  0  0  0  0  0
    6.6881  -12.8907   25.2595 C   0  0  0  0  0  0  0  0  0  0  0  0
    7.4735  -14.0538   25.8027 C   0  0  2  0  0  0  0  0  0  0  0  0
    8.4303  -13.6138   26.8885 C   0  0  0  0  0  0  0  0  0  0  0  0
    8.2339  -14.6860   24.6650 C   0  0  2  0  0  0  0  0  0  0  0  0
    7.4243  -15.2094   23.5959 N   0  0  0  0  0  0  0  0  0  0  0  0
    9.3006  -15.5872   25.0807 C   0  0  0  0  0  0  0  0  0  0  0  0
    9.0795  -16.7335   25.5332 O   0  0  0  0  0  0  0  0  0  0  0  0
   13.8310  -17.9085   25.5610 N   0  0  0  0  0  0  0  0  0  0  0  0
   14.1805  -16.6721   24.9721 C   0  0  0  0  0  0  0  0  0  0  0  0
   15.3610  -16.3942   24.6003 O   0  0  0  0  0  0  0  0  0  0  0  0
   13.1053  -15.6677   24.7890 C   0  0  0  0  0  0  0  0  0  0  0  0
   11.7496  -16.2049   25.1674 C   0  0  2  0  0  0  0  0  0  0  0  0
   10.6986  -15.2384   25.0073 N   0  0  0  0  0  0  0  0  0  0  0  0
   11.8165  -16.5268   26.6351 C   0  0  0  0  0  0  0  0  0  0  0  0
   12.2874  -17.6370   27.0055 O   0  0  0  0  0  0  0  0  0  0  0  0
   11.3835  -15.6584   27.6098 O   0  0  0  0  0  0  0  0  0  0  0  0
  2  1  1  0
  2  3  1  0
  3  5  1  0
  3  4  1  1
  5  6  1  6
  7  5  1  0
  7  8  2  0
  9 10  1  0
 10 11  1  0
 11 12  1  1
 13 11  1  0
 13 14  1  6
 14  7  1  0
 15 13  1  0
 16 15  2  0
 17 18  1  0
 18 20  1  0
 18 19  2  0
 21 20  1  1
 21 22  1  0
 22 15  1  0
 23 21  1  0
 23 25  1  0
 24 23  2  0
M  END
$$$$
