IIN.pdb
     RDKit          3D

 25 24  0  0  1  0  0  0  0  0999 V2000
    7.4903  -11.1997   27.5807 C   0  0  0  0  0  0  0  0  0  0  0  0
    7.8289  -12.5861   27.2002 C   0  0  0  0  0  0  0  0  0  0  0  0
    7.1309  -13.2195   26.0720 C   0  0  2  0  0  0  0  0  0  0  0  0
    5.6185  -13.2710   26.2744 C   0  0  0  0  0  0  0  0  0  0  0  0
    7.5679  -14.5311   25.5976 C   0  0  2  0  0  0  0  0  0  0  0  0
    9.0294  -14.6864   25.7590 N   0  0  0  0  0  0  0  0  0  0  0  0
    7.1838  -15.0012   24.2529 C   0  0  0  0  0  0  0  0  0  0  0  0
    5.9977  -15.3990   24.0582 O   0  0  0  0  0  0  0  0  0  0  0  0
    7.9738  -11.9612   20.2221 C   0  0  0  0  0  0  0  0  0  0  0  0
    7.5531  -13.1095   21.0899 C   0  0  0  0  0  0  0  0  0  0  0  0
    8.2390  -14.4071   20.7577 C   0  0  2  0  0  0  0  0  0  0  0  0
    7.8487  -14.9006   19.3822 C   0  0  0  0  0  0  0  0  0  0  0  0
    7.8595  -15.4257   21.8022 C   0  0  2  0  0  0  0  0  0  0  0  0
    8.0900  -15.0275   23.1662 N   0  0  0  0  0  0  0  0  0  0  0  0
    8.3036  -16.7822   21.5099 C   0  0  0  0  0  0  0  0  0  0  0  0
    7.9531  -17.4014   20.4797 O   0  0  0  0  0  0  0  0  0  0  0  0
   13.7004  -17.9416   21.5228 N   0  0  0  0  0  0  0  0  0  0  0  0
   12.5332  -18.0057   20.7283 C   0  0  0  0  0  0  0  0  0  0  0  0
   12.4780  -18.6434   19.6333 O   0  0  0  0  0  0  0  0  0  0  0  0
   11.3295  -17.2888   21.2135 C   0  0  0  0  0  0  0  0  0  0  0  0
   10.3534  -18.2082   21.9000 C   0  0  2  0  0  0  0  0  0  0  0  0
    9.1825  -17.5268   22.3787 N   0  0  0  0  0  0  0  0  0  0  0  0
   11.0613  -18.7481   23.1122 C   0  0  0  0  0  0  0  0  0  0  0  0
   12.1551  -19.3604   22.9701 O   0  0  0  0  0  0  0  0  0  0  0  0
   10.5689  -18.6060   24.3886 O   0  0  0  0  0  0  0  0  0  0  0  0
  2  1  1  0
  2  3  1  0
  3  5  1  0
  3  4  1  1
  5  6  1  6
  7  5  1  0
  7  8  2  0
  9 10  1  0
 10 11  1  0
 11 12  1  6
 13 11  1  0
 13 14  1  1
 14  7  1  0
 15 13  1  0
 16 15  2  0
 17 18  1  0
 18 20  1  0
 18 19  2  0
 21 20  1  1
 21 22  1  0
 22 15  1  0
 23 21  1  0
 23 25  1  0
 24 23  2  0
M  END
$$$$
