IIN.pdb
     RDKit          3D

 25 24  0  0  1  0  0  0  0  0999 V2000
    5.9438  -20.4685   21.5159 C   0  0  0  0  0  0  0  0  0  0  0  0
    5.8974  -19.0134   21.2671 C   0  0  0  0  0  0  0  0  0  0  0  0
    6.6672  -18.1053   22.1299 C   0  0  2  0  0  0  0  0  0  0  0  0
    6.4188  -18.3587   23.6148 C   0  0  0  0  0  0  0  0  0  0  0  0
    6.6012  -16.6633   21.9006 C   0  0  2  0  0  0  0  0  0  0  0  0
    6.7676  -16.3528   20.4647 N   0  0  0  0  0  0  0  0  0  0  0  0
    7.4467  -15.7459   22.6882 C   0  0  0  0  0  0  0  0  0  0  0  0
    8.6228  -15.5007   22.2885 O   0  0  0  0  0  0  0  0  0  0  0  0
    7.0313  -11.3286   27.1257 C   0  0  0  0  0  0  0  0  0  0  0  0
    7.7590  -12.3758   26.3367 C   0  0  0  0  0  0  0  0  0  0  0  0
    6.8532  -13.2867   25.5528 C   0  0  2  0  0  0  0  0  0  0  0  0
    5.9141  -14.0467   26.4629 C   0  0  0  0  0  0  0  0  0  0  0  0
    7.7096  -14.2487   24.7696 C   0  0  2  0  0  0  0  0  0  0  0  0
    6.9968  -15.1260   23.8782 N   0  0  0  0  0  0  0  0  0  0  0  0
    8.7302  -14.9261   25.5584 C   0  0  0  0  0  0  0  0  0  0  0  0
    9.5226  -14.3127   26.3092 O   0  0  0  0  0  0  0  0  0  0  0  0
    7.6622  -19.3544   27.6870 N   0  0  0  0  0  0  0  0  0  0  0  0
    8.8266  -18.5597   27.7872 C   0  0  0  0  0  0  0  0  0  0  0  0
    9.1589  -17.9535   28.8507 O   0  0  0  0  0  0  0  0  0  0  0  0
    9.6857  -18.4417   26.5845 C   0  0  0  0  0  0  0  0  0  0  0  0
    9.9917  -17.0079   26.2380 C   0  0  2  0  0  0  0  0  0  0  0  0
    8.9158  -16.3568   25.5431 N   0  0  0  0  0  0  0  0  0  0  0  0
   11.1577  -17.0415   25.2886 C   0  0  0  0  0  0  0  0  0  0  0  0
   12.2441  -17.5648   25.6589 O   0  0  0  0  0  0  0  0  0  0  0  0
   11.0988  -16.5222   24.0163 O   0  0  0  0  0  0  0  0  0  0  0  0
  2  1  1  0
  2  3  1  0
  3  5  1  0
  3  4  1  1
  5  6  1  6
  7  5  1  0
  7  8  2  0
  9 10  1  0
 10 11  1  0
 11 12  1  1
 13 11  1  0
 13 14  1  1
 14  7  1  0
 15 13  1  0
 16 15  2  0
 17 18  1  0
 18 20  1  0
 18 19  2  0
 21 20  1  6
 21 22  1  0
 22 15  1  0
 23 21  1  0
 23 25  1  0
 24 23  2  0
M  END
$$$$
