IIN.pdb
     RDKit          3D

 25 24  0  0  1  0  0  0  0  0999 V2000
    8.3057  -21.2763   15.9369 C   0  0  0  0  0  0  0  0  0  0  0  0
    8.3102  -19.7996   15.9083 C   0  0  0  0  0  0  0  0  0  0  0  0
    8.8442  -19.0537   17.0572 C   0  0  2  0  0  0  0  0  0  0  0  0
    8.2727  -19.5399   18.3869 C   0  0  0  0  0  0  0  0  0  0  0  0
    8.7986  -17.5928   17.0533 C   0  0  2  0  0  0  0  0  0  0  0  0
    9.4019  -17.0530   15.8161 N   0  0  0  0  0  0  0  0  0  0  0  0
    9.3126  -16.8299   18.2068 C   0  0  0  0  0  0  0  0  0  0  0  0
   10.5609  -16.8019   18.4163 O   0  0  0  0  0  0  0  0  0  0  0  0
    7.0418  -12.1281   19.9700 C   0  0  0  0  0  0  0  0  0  0  0  0
    8.0272  -13.2420   19.7782 C   0  0  0  0  0  0  0  0  0  0  0  0
    7.8687  -14.3712   20.7603 C   0  0  2  0  0  0  0  0  0  0  0  0
    8.1915  -13.9257   22.1692 C   0  0  0  0  0  0  0  0  0  0  0  0
    8.7871  -15.4927   20.3466 C   0  0  2  0  0  0  0  0  0  0  0  0
    8.4648  -16.1254   19.0943 N   0  0  0  0  0  0  0  0  0  0  0  0
    9.1018  -16.4369   21.4106 C   0  0  0  0  0  0  0  0  0  0  0  0
    8.2697  -17.2631   21.8496 O   0  0  0  0  0  0  0  0  0  0  0  0
   11.8640  -20.0519   21.8289 N   0  0  0  0  0  0  0  0  0  0  0  0
   12.4067  -18.7475   21.8677 C   0  0  0  0  0  0  0  0  0  0  0  0
   13.1166  -18.2673   20.9326 O   0  0  0  0  0  0  0  0  0  0  0  0
   12.1224  -17.9184   23.0636 C   0  0  0  0  0  0  0  0  0  0  0  0
   10.6963  -17.4343   23.0988 C   0  0  2  0  0  0  0  0  0  0  0  0
   10.3944  -16.5017   22.0482 N   0  0  0  0  0  0  0  0  0  0  0  0
   10.5344  -16.6880   24.3945 C   0  0  0  0  0  0  0  0  0  0  0  0
   10.6594  -17.3073   25.4865 O   0  0  0  0  0  0  0  0  0  0  0  0
   10.2526  -15.3430   24.4506 O   0  0  0  0  0  0  0  0  0  0  0  0
  2  1  1  0
  2  3  1  0
  3  5  1  0
  3  4  1  1
  5  6  1  6
  7  5  1  0
  7  8  2  0
  9 10  1  0
 10 11  1  0
 11 12  1  1
 13 11  1  0
 13 14  1  6
 14  7  1  0
 15 13  1  0
 16 15  2  0
 17 18  1  0
 18 20  1  0
 18 19  2  0
 21 20  1  6
 21 22  1  0
 22 15  1  0
 23 21  1  0
 23 25  1  0
 24 23  2  0
M  END
$$$$
