IIN.pdb
     RDKit          3D

 25 24  0  0  1  0  0  0  0  0999 V2000
    6.5198  -21.6070   28.2235 C   0  0  0  0  0  0  0  0  0  0  0  0
    5.8667  -20.6454   27.3122 C   0  0  0  0  0  0  0  0  0  0  0  0
    6.6899  -19.6975   26.5472 C   0  0  2  0  0  0  0  0  0  0  0  0
    7.6915  -18.9514   27.4255 C   0  0  0  0  0  0  0  0  0  0  0  0
    6.0423  -18.7222   25.6722 C   0  0  2  0  0  0  0  0  0  0  0  0
    5.1018  -19.3907   24.7478 N   0  0  0  0  0  0  0  0  0  0  0  0
    6.8532  -17.7537   24.9098 C   0  0  0  0  0  0  0  0  0  0  0  0
    7.2664  -18.0736   23.7565 O   0  0  0  0  0  0  0  0  0  0  0  0
    7.6494  -12.4500   27.1352 C   0  0  0  0  0  0  0  0  0  0  0  0
    7.9216  -13.8470   26.6633 C   0  0  0  0  0  0  0  0  0  0  0  0
    7.6956  -14.0467   25.1890 C   0  0  2  0  0  0  0  0  0  0  0  0
    6.2609  -13.7572   24.8072 C   0  0  0  0  0  0  0  0  0  0  0  0
    8.0481  -15.4710   24.8432 C   0  0  2  0  0  0  0  0  0  0  0  0
    7.1914  -16.4762   25.4160 N   0  0  0  0  0  0  0  0  0  0  0  0
    9.4666  -15.7843   24.9545 C   0  0  0  0  0  0  0  0  0  0  0  0
    9.9474  -16.4062   25.9290 O   0  0  0  0  0  0  0  0  0  0  0  0
   13.1904  -18.0492   21.5666 N   0  0  0  0  0  0  0  0  0  0  0  0
   13.3728  -16.7145   21.9942 C   0  0  0  0  0  0  0  0  0  0  0  0
   14.5170  -16.1863   22.1382 O   0  0  0  0  0  0  0  0  0  0  0  0
   12.1600  -15.9116   22.2824 C   0  0  0  0  0  0  0  0  0  0  0  0
   11.5814  -16.2156   23.6397 C   0  0  2  0  0  0  0  0  0  0  0  0
   10.4366  -15.4068   23.9554 N   0  0  0  0  0  0  0  0  0  0  0  0
   12.6456  -15.8629   24.6422 C   0  0  0  0  0  0  0  0  0  0  0  0
   12.5912  -14.7532   25.2398 O   0  0  0  0  0  0  0  0  0  0  0  0
   13.6922  -16.7021   24.9457 O   0  0  0  0  0  0  0  0  0  0  0  0
  2  1  1  0
  2  3  1  0
  3  5  1  0
  3  4  1  1
  5  6  1  6
  7  5  1  0
  7  8  2  0
  9 10  1  0
 10 11  1  0
 11 12  1  1
 13 11  1  0
 13 14  1  1
 14  7  1  0
 15 13  1  0
 16 15  2  0
 17 18  1  0
 18 20  1  0
 18 19  2  0
 21 20  1  6
 21 22  1  0
 22 15  1  0
 23 21  1  0
 23 25  1  0
 24 23  2  0
M  END
$$$$
