IIN.pdb
     RDKit          3D

 25 24  0  0  1  0  0  0  0  0999 V2000
    6.0649  -18.1463   20.1482 C   0  0  0  0  0  0  0  0  0  0  0  0
    7.1945  -17.1990   20.2373 C   0  0  0  0  0  0  0  0  0  0  0  0
    6.9849  -15.8753   20.8416 C   0  0  2  0  0  0  0  0  0  0  0  0
    5.9169  -15.0625   20.1138 C   0  0  0  0  0  0  0  0  0  0  0  0
    8.1319  -15.0017   21.0814 C   0  0  2  0  0  0  0  0  0  0  0  0
    9.2334  -15.3144   20.1461 N   0  0  0  0  0  0  0  0  0  0  0  0
    8.6866  -14.8594   22.4411 C   0  0  0  0  0  0  0  0  0  0  0  0
    9.9318  -15.0098   22.6141 O   0  0  0  0  0  0  0  0  0  0  0  0
    7.3629  -11.1792   27.1889 C   0  0  0  0  0  0  0  0  0  0  0  0
    8.0141  -12.4234   26.6631 C   0  0  0  0  0  0  0  0  0  0  0  0
    7.3827  -12.9563   25.4054 C   0  0  2  0  0  0  0  0  0  0  0  0
    5.9992  -13.5058   25.6732 C   0  0  0  0  0  0  0  0  0  0  0  0
    8.2728  -14.0382   24.8489 C   0  0  2  0  0  0  0  0  0  0  0  0
    7.8815  -14.5615   23.5662 N   0  0  0  0  0  0  0  0  0  0  0  0
    8.6396  -15.0700   25.8100 C   0  0  0  0  0  0  0  0  0  0  0  0
    9.1841  -14.8096   26.9070 O   0  0  0  0  0  0  0  0  0  0  0  0
   11.6182  -19.3047   24.1803 N   0  0  0  0  0  0  0  0  0  0  0  0
   11.7407  -18.0637   24.8454 C   0  0  0  0  0  0  0  0  0  0  0  0
   12.7577  -17.7473   25.5342 O   0  0  0  0  0  0  0  0  0  0  0  0
   10.6194  -17.1016   24.7206 C   0  0  0  0  0  0  0  0  0  0  0  0
    9.4615  -17.4521   25.6183 C   0  0  2  0  0  0  0  0  0  0  0  0
    8.4081  -16.4757   25.5822 N   0  0  0  0  0  0  0  0  0  0  0  0
    9.9995  -17.4512   27.0228 C   0  0  0  0  0  0  0  0  0  0  0  0
   10.5247  -18.5004   27.4863 O   0  0  0  0  0  0  0  0  0  0  0  0
    9.9473  -16.3469   27.8409 O   0  0  0  0  0  0  0  0  0  0  0  0
  2  1  1  0
  2  3  1  0
  3  5  1  0
  3  4  1  6
  5  6  1  6
  7  5  1  0
  7  8  2  0
  9 10  1  0
 10 11  1  0
 11 12  1  1
 13 11  1  0
 13 14  1  6
 14  7  1  0
 15 13  1  0
 16 15  2  0
 17 18  1  0
 18 20  1  0
 18 19  2  0
 21 20  1  6
 21 22  1  0
 22 15  1  0
 23 21  1  0
 23 25  1  0
 24 23  2  0
M  END
$$$$
