IIN.pdb
     RDKit          3D

 25 24  0  0  1  0  0  0  0  0999 V2000
    6.4683  -10.7558   27.8735 C   0  0  0  0  0  0  0  0  0  0  0  0
    5.9146  -11.8442   27.0427 C   0  0  0  0  0  0  0  0  0  0  0  0
    6.8282  -12.7481   26.3288 C   0  0  2  0  0  0  0  0  0  0  0  0
    7.8417  -11.9964   25.4694 C   0  0  0  0  0  0  0  0  0  0  0  0
    6.2815  -13.8426   25.5291 C   0  0  2  0  0  0  0  0  0  0  0  0
    5.3430  -14.6582   26.3290 N   0  0  0  0  0  0  0  0  0  0  0  0
    7.1838  -14.7438   24.7871 C   0  0  0  0  0  0  0  0  0  0  0  0
    7.5242  -15.8424   25.3163 O   0  0  0  0  0  0  0  0  0  0  0  0
    7.5969  -12.8286   19.9682 C   0  0  0  0  0  0  0  0  0  0  0  0
    7.4524  -14.0978   20.7536 C   0  0  0  0  0  0  0  0  0  0  0  0
    8.7561  -14.6510   21.2623 C   0  0  2  0  0  0  0  0  0  0  0  0
    9.2989  -15.7197   20.3397 C   0  0  0  0  0  0  0  0  0  0  0  0
    8.5253  -15.2209   22.6386 C   0  0  2  0  0  0  0  0  0  0  0  0
    7.6883  -14.4301   23.5026 N   0  0  0  0  0  0  0  0  0  0  0  0
    9.7272  -15.7210   23.2928 C   0  0  0  0  0  0  0  0  0  0  0  0
   10.5431  -14.9701   23.8743 O   0  0  0  0  0  0  0  0  0  0  0  0
    9.0745  -19.8173   25.5940 N   0  0  0  0  0  0  0  0  0  0  0  0
   10.2730  -19.0741   25.6880 C   0  0  0  0  0  0  0  0  0  0  0  0
   10.6304  -18.4720   26.7456 O   0  0  0  0  0  0  0  0  0  0  0  0
   11.1381  -19.0071   24.4857 C   0  0  0  0  0  0  0  0  0  0  0  0
   11.2774  -17.6029   23.9581 C   0  0  2  0  0  0  0  0  0  0  0  0
   10.0805  -17.1195   23.3272 N   0  0  0  0  0  0  0  0  0  0  0  0
   12.3346  -17.6551   22.8897 C   0  0  0  0  0  0  0  0  0  0  0  0
   12.0241  -18.0372   21.7282 O   0  0  0  0  0  0  0  0  0  0  0  0
   13.6441  -17.3017   23.1181 O   0  0  0  0  0  0  0  0  0  0  0  0
  2  1  1  0
  2  3  1  0
  3  5  1  0
  3  4  1  6
  5  6  1  1
  7  5  1  0
  7  8  2  0
  9 10  1  0
 10 11  1  0
 11 12  1  6
 13 11  1  0
 13 14  1  1
 14  7  1  0
 15 13  1  0
 16 15  2  0
 17 18  1  0
 18 20  1  0
 18 19  2  0
 21 20  1  6
 21 22  1  0
 22 15  1  0
 23 21  1  0
 23 25  1  0
 24 23  2  0
M  END
$$$$
