IIN.pdb
     RDKit          3D

 25 24  0  0  1  0  0  0  0  0999 V2000
   11.7532  -14.3815   30.3441 C   0  0  0  0  0  0  0  0  0  0  0  0
   11.1657  -15.5655   29.6851 C   0  0  0  0  0  0  0  0  0  0  0  0
   10.0592  -15.3910   28.7329 C   0  0  2  0  0  0  0  0  0  0  0  0
    8.8998  -14.5924   29.3235 C   0  0  0  0  0  0  0  0  0  0  0  0
    9.5028  -16.5582   28.0514 C   0  0  2  0  0  0  0  0  0  0  0  0
   10.5587  -17.5545   27.7717 N   0  0  0  0  0  0  0  0  0  0  0  0
    8.6748  -16.3883   26.8421 C   0  0  0  0  0  0  0  0  0  0  0  0
    7.8127  -17.2717   26.5604 O   0  0  0  0  0  0  0  0  0  0  0  0
    6.3211  -11.9862   26.2763 C   0  0  0  0  0  0  0  0  0  0  0  0
    6.4946  -13.4020   25.8136 C   0  0  0  0  0  0  0  0  0  0  0  0
    7.5090  -13.5633   24.7138 C   0  0  2  0  0  0  0  0  0  0  0  0
    6.8930  -13.3143   23.3550 C   0  0  0  0  0  0  0  0  0  0  0  0
    8.0662  -14.9623   24.7833 C   0  0  2  0  0  0  0  0  0  0  0  0
    8.8049  -15.2746   25.9787 N   0  0  0  0  0  0  0  0  0  0  0  0
    8.7211  -15.4110   23.5616 C   0  0  0  0  0  0  0  0  0  0  0  0
    8.1589  -15.3830   22.4433 O   0  0  0  0  0  0  0  0  0  0  0  0
   13.7598  -15.8207   20.5294 N   0  0  0  0  0  0  0  0  0  0  0  0
   12.3467  -15.7952   20.5385 C   0  0  0  0  0  0  0  0  0  0  0  0
   11.6437  -16.1497   19.5440 O   0  0  0  0  0  0  0  0  0  0  0  0
   11.6740  -15.3302   21.7753 C   0  0  0  0  0  0  0  0  0  0  0  0
   10.7130  -16.3526   22.3235 C   0  0  2  0  0  0  0  0  0  0  0  0
   10.0691  -15.9246   23.5345 N   0  0  0  0  0  0  0  0  0  0  0  0
   11.5365  -17.5599   22.6788 C   0  0  0  0  0  0  0  0  0  0  0  0
   12.2563  -18.1014   21.7956 O   0  0  0  0  0  0  0  0  0  0  0  0
   11.5451  -18.1126   23.9383 O   0  0  0  0  0  0  0  0  0  0  0  0
  2  1  1  0
  2  3  1  0
  3  5  1  0
  3  4  1  1
  5  6  1  6
  7  5  1  0
  7  8  2  0
  9 10  1  0
 10 11  1  0
 11 12  1  6
 13 11  1  0
 13 14  1  1
 14  7  1  0
 15 13  1  0
 16 15  2  0
 17 18  1  0
 18 20  1  0
 18 19  2  0
 21 20  1  1
 21 22  1  0
 22 15  1  0
 23 21  1  0
 23 25  1  0
 24 23  2  0
M  END
$$$$
