IIN.pdb
     RDKit          3D

 25 24  0  0  1  0  0  0  0  0999 V2000
    9.9128  -21.3122   16.5003 C   0  0  0  0  0  0  0  0  0  0  0  0
    8.9578  -20.3527   17.0907 C   0  0  0  0  0  0  0  0  0  0  0  0
    9.4224  -19.4024   18.1118 C   0  0  2  0  0  0  0  0  0  0  0  0
    8.8532  -19.7061   19.4956 C   0  0  0  0  0  0  0  0  0  0  0  0
    9.2902  -17.9663   17.8743 C   0  0  2  0  0  0  0  0  0  0  0  0
    9.9473  -17.5820   16.6069 N   0  0  0  0  0  0  0  0  0  0  0  0
    9.6736  -17.0011   18.9223 C   0  0  0  0  0  0  0  0  0  0  0  0
   10.9011  -16.7506   19.1056 O   0  0  0  0  0  0  0  0  0  0  0  0
    6.7364  -12.4743   20.0335 C   0  0  0  0  0  0  0  0  0  0  0  0
    7.8055  -13.5209   19.9326 C   0  0  0  0  0  0  0  0  0  0  0  0
    7.8593  -14.4524   21.1132 C   0  0  2  0  0  0  0  0  0  0  0  0
    8.1375  -13.7009   22.3961 C   0  0  0  0  0  0  0  0  0  0  0  0
    8.9403  -15.4730   20.8640 C   0  0  2  0  0  0  0  0  0  0  0  0
    8.7226  -16.3410   19.7363 N   0  0  0  0  0  0  0  0  0  0  0  0
    9.3934  -16.1743   22.0580 C   0  0  0  0  0  0  0  0  0  0  0  0
    8.7362  -17.0975   22.5904 O   0  0  0  0  0  0  0  0  0  0  0  0
   14.1580  -15.6409   22.4033 N   0  0  0  0  0  0  0  0  0  0  0  0
   13.4213  -16.6974   22.9853 C   0  0  0  0  0  0  0  0  0  0  0  0
   13.4644  -17.8890   22.5527 O   0  0  0  0  0  0  0  0  0  0  0  0
   12.5652  -16.3786   24.1532 C   0  0  0  0  0  0  0  0  0  0  0  0
   11.1028  -16.6029   23.8694 C   0  0  2  0  0  0  0  0  0  0  0  0
   10.6337  -15.8671   22.7279 N   0  0  0  0  0  0  0  0  0  0  0  0
   10.3541  -16.0707   25.0603 C   0  0  0  0  0  0  0  0  0  0  0  0
    9.6181  -15.0549   24.9267 O   0  0  0  0  0  0  0  0  0  0  0  0
   10.4322  -16.6444   26.3079 O   0  0  0  0  0  0  0  0  0  0  0  0
  2  1  1  0
  2  3  1  0
  3  5  1  0
  3  4  1  1
  5  6  1  6
  7  5  1  0
  7  8  2  0
  9 10  1  0
 10 11  1  0
 11 12  1  1
 13 11  1  0
 13 14  1  6
 14  7  1  0
 15 13  1  0
 16 15  2  0
 17 18  1  0
 18 20  1  0
 18 19  2  0
 21 20  1  1
 21 22  1  0
 22 15  1  0
 23 21  1  0
 23 25  1  0
 24 23  2  0
M  END
$$$$
