IIN.pdb
     RDKit          3D

 25 24  0  0  1  0  0  0  0  0999 V2000
    7.8975  -11.4444   19.5853 C   0  0  0  0  0  0  0  0  0  0  0  0
    7.6668  -12.5647   20.5198 C   0  0  0  0  0  0  0  0  0  0  0  0
    8.1154  -13.9167   20.1559 C   0  0  2  0  0  0  0  0  0  0  0  0
    7.5398  -14.3844   18.8214 C   0  0  0  0  0  0  0  0  0  0  0  0
    7.9710  -15.0080   21.1174 C   0  0  2  0  0  0  0  0  0  0  0  0
    6.5545  -15.4127   21.2420 N   0  0  0  0  0  0  0  0  0  0  0  0
    8.5543  -14.8913   22.4675 C   0  0  0  0  0  0  0  0  0  0  0  0
    9.8142  -14.8841   22.5925 O   0  0  0  0  0  0  0  0  0  0  0  0
    6.2622  -11.6174   26.0106 C   0  0  0  0  0  0  0  0  0  0  0  0
    7.2158  -12.5283   25.2968 C   0  0  0  0  0  0  0  0  0  0  0  0
    7.3381  -13.8920   25.9212 C   0  0  2  0  0  0  0  0  0  0  0  0
    7.9678  -13.8151   27.2943 C   0  0  0  0  0  0  0  0  0  0  0  0
    8.1751  -14.7566   25.0133 C   0  0  2  0  0  0  0  0  0  0  0  0
    7.7611  -14.7876   23.6349 N   0  0  0  0  0  0  0  0  0  0  0  0
    8.4891  -16.0720   25.5554 C   0  0  0  0  0  0  0  0  0  0  0  0
    7.6266  -16.9685   25.6972 O   0  0  0  0  0  0  0  0  0  0  0  0
   11.2156  -20.2864   26.7096 N   0  0  0  0  0  0  0  0  0  0  0  0
   11.8083  -19.6253   25.6098 C   0  0  0  0  0  0  0  0  0  0  0  0
   12.7264  -20.1447   24.9055 O   0  0  0  0  0  0  0  0  0  0  0  0
   11.3214  -18.2641   25.2804 C   0  0  0  0  0  0  0  0  0  0  0  0
   10.1997  -17.8229   26.1840 C   0  0  2  0  0  0  0  0  0  0  0  0
    9.8157  -16.4543   25.9743 N   0  0  0  0  0  0  0  0  0  0  0  0
   10.7291  -17.9095   27.5891 C   0  0  0  0  0  0  0  0  0  0  0  0
   11.1114  -19.0240   28.0401 O   0  0  0  0  0  0  0  0  0  0  0  0
   10.8192  -16.8179   28.4210 O   0  0  0  0  0  0  0  0  0  0  0  0
  2  1  1  0
  2  3  1  0
  3  5  1  0
  3  4  1  6
  5  6  1  1
  7  5  1  0
  7  8  2  0
  9 10  1  0
 10 11  1  0
 11 12  1  1
 13 11  1  0
 13 14  1  6
 14  7  1  0
 15 13  1  0
 16 15  2  0
 17 18  1  0
 18 20  1  0
 18 19  2  0
 21 20  1  6
 21 22  1  0
 22 15  1  0
 23 21  1  0
 23 25  1  0
 24 23  2  0
M  END
$$$$
