NAQ.pdb
     RDKit          3D

 23 22  0  0  1  0  0  0  0  0999 V2000
   13.2208  -18.0942   17.9214 N   0  0  0  0  0  0  0  0  0  0  0  0
   12.1299  -18.5751   18.6954 C   0  0  0  0  0  0  0  0  0  0  0  0
   11.9106  -19.8133   18.7012 O   0  0  0  0  0  0  0  0  0  0  0  0
   11.2534  -17.6694   19.4869 C   0  0  0  0  0  0  0  0  0  0  0  0
    9.8171  -18.1063   19.3627 C   0  0  2  0  0  0  0  0  0  0  0  0
    9.3277  -17.8236   18.0308 N   0  0  0  0  0  0  0  0  0  0  0  0
    8.9296  -17.5060   20.3510 C   0  0  0  0  0  0  0  0  0  0  0  0
    8.8852  -16.2525   20.4358 O   0  0  0  0  0  0  0  0  0  0  0  0
    6.2035  -18.6313   22.7538 C   0  0  0  0  0  0  0  0  0  0  0  0
    7.1887  -17.6464   22.1812 C   0  0  2  0  0  0  0  0  0  0  0  0
    8.0956  -18.2299   21.2425 N   0  0  0  0  0  0  0  0  0  0  0  0
    7.9762  -16.9636   23.2377 C   0  0  0  0  0  0  0  0  0  0  0  0
    9.1729  -17.2833   23.4060 O   0  0  0  0  0  0  0  0  0  0  0  0
    6.3268  -11.5998   27.8215 N   0  0  0  0  0  0  0  0  0  0  0  0
    6.6506  -12.2425   26.6018 C   0  0  0  0  0  0  0  0  0  0  0  0
    6.0770  -11.8268   25.5474 O   0  0  0  0  0  0  0  0  0  0  0  0
    7.6132  -13.3479   26.5098 C   0  0  0  0  0  0  0  0  0  0  0  0
    7.7987  -13.9585   25.1766 C   0  0  0  0  0  0  0  0  0  0  0  0
    8.2739  -15.3697   25.1051 C   0  0  2  0  0  0  0  0  0  0  0  0
    7.4067  -15.9700   24.0486 N   0  0  0  0  0  0  0  0  0  0  0  0
    8.1886  -16.1807   26.3142 C   0  0  0  0  0  0  0  0  0  0  0  0
    7.2047  -16.9352   26.5199 O   0  0  0  0  0  0  0  0  0  0  0  0
    9.1658  -16.1825   27.3100 O   0  0  0  0  0  0  0  0  0  0  0  0
  2  1  1  0
  3  2  2  0
  4  2  1  0
  5  4  1  0
  5  6  1  6
  7 11  1  0
  7  5  1  0
  8  7  2  0
 10  9  1  1
 10 11  1  0
 10 12  1  0
 12 20  1  0
 13 12  2  0
 15 17  1  0
 15 14  1  0
 16 15  2  0
 18 17  1  0
 19 18  1  1
 19 21  1  0
 20 19  1  0
 21 23  1  0
 22 21  2  0
M  END
$$$$
