NAQ.pdb
     RDKit          3D

 23 22  0  0  1  0  0  0  0  0999 V2000
    9.2734  -13.2319   16.8354 N   0  0  0  0  0  0  0  0  0  0  0  0
    7.8804  -13.3954   17.0657 C   0  0  0  0  0  0  0  0  0  0  0  0
    7.0821  -12.9230   16.2166 O   0  0  0  0  0  0  0  0  0  0  0  0
    7.3476  -14.0986   18.2644 C   0  0  0  0  0  0  0  0  0  0  0  0
    8.4816  -14.4987   19.1718 C   0  0  2  0  0  0  0  0  0  0  0  0
    9.3126  -15.4866   18.5184 N   0  0  0  0  0  0  0  0  0  0  0  0
    8.0501  -14.9998   20.4708 C   0  0  0  0  0  0  0  0  0  0  0  0
    7.3519  -14.2520   21.2014 O   0  0  0  0  0  0  0  0  0  0  0  0
    8.0353  -18.2984   22.3563 C   0  0  0  0  0  0  0  0  0  0  0  0
    7.8838  -16.8048   22.2354 C   0  0  2  0  0  0  0  0  0  0  0  0
    8.3567  -16.2843   20.9907 N   0  0  0  0  0  0  0  0  0  0  0  0
    8.5637  -16.0819   23.3391 C   0  0  0  0  0  0  0  0  0  0  0  0
    9.7898  -15.8547   23.2521 O   0  0  0  0  0  0  0  0  0  0  0  0
    5.6600  -12.1697   27.1570 N   0  0  0  0  0  0  0  0  0  0  0  0
    6.4374  -11.8283   26.0235 C   0  0  0  0  0  0  0  0  0  0  0  0
    6.2579  -10.6800   25.5111 O   0  0  0  0  0  0  0  0  0  0  0  0
    7.4316  -12.7333   25.4322 C   0  0  0  0  0  0  0  0  0  0  0  0
    7.6658  -14.0131   26.1336 C   0  0  0  0  0  0  0  0  0  0  0  0
    8.6454  -14.9718   25.5474 C   0  0  2  0  0  0  0  0  0  0  0  0
    7.8605  -15.6500   24.4740 N   0  0  0  0  0  0  0  0  0  0  0  0
    9.2249  -15.9795   26.4280 C   0  0  0  0  0  0  0  0  0  0  0  0
   10.0414  -15.6603   27.3286 O   0  0  0  0  0  0  0  0  0  0  0  0
    8.9265  -17.3397   26.3421 O   0  0  0  0  0  0  0  0  0  0  0  0
  2  1  1  0
  3  2  2  0
  4  2  1  0
  5  4  1  0
  5  6  1  6
  7 11  1  0
  7  5  1  0
  8  7  2  0
 10  9  1  6
 10 11  1  0
 10 12  1  0
 12 20  1  0
 13 12  2  0
 15 17  1  0
 15 14  1  0
 16 15  2  0
 18 17  1  0
 19 18  1  1
 19 21  1  0
 20 19  1  0
 21 23  1  0
 22 21  2  0
M  END
$$$$
