NAQ.pdb
     RDKit          3D

 23 22  0  0  1  0  0  0  0  0999 V2000
    7.2735  -19.1896   16.0043 N   0  0  0  0  0  0  0  0  0  0  0  0
    6.8796  -19.5345   17.3258 C   0  0  0  0  0  0  0  0  0  0  0  0
    6.5274  -20.7214   17.5461 O   0  0  0  0  0  0  0  0  0  0  0  0
    6.8723  -18.5466   18.4389 C   0  0  0  0  0  0  0  0  0  0  0  0
    7.2002  -17.1744   17.9104 C   0  0  2  0  0  0  0  0  0  0  0  0
    7.9575  -17.2856   16.6826 N   0  0  0  0  0  0  0  0  0  0  0  0
    7.9199  -16.3329   18.8583 C   0  0  0  0  0  0  0  0  0  0  0  0
    9.1439  -16.5502   19.0457 O   0  0  0  0  0  0  0  0  0  0  0  0
    7.1904  -13.3690   21.1481 C   0  0  0  0  0  0  0  0  0  0  0  0
    8.0294  -14.4845   20.5820 C   0  0  2  0  0  0  0  0  0  0  0  0
    7.3457  -15.2690   19.6016 N   0  0  0  0  0  0  0  0  0  0  0  0
    8.5426  -15.3910   21.6391 C   0  0  0  0  0  0  0  0  0  0  0  0
    7.9223  -16.4476   21.8872 O   0  0  0  0  0  0  0  0  0  0  0  0
   14.4286  -18.6207   23.3835 N   0  0  0  0  0  0  0  0  0  0  0  0
   13.8309  -17.3410   23.4870 C   0  0  0  0  0  0  0  0  0  0  0  0
   14.5502  -16.3315   23.2094 O   0  0  0  0  0  0  0  0  0  0  0  0
   12.4327  -17.1402   23.8892 C   0  0  0  0  0  0  0  0  0  0  0  0
   11.5982  -16.3062   22.9988 C   0  0  0  0  0  0  0  0  0  0  0  0
   10.1691  -16.0920   23.3651 C   0  0  2  0  0  0  0  0  0  0  0  0
    9.7056  -15.0873   22.3631 N   0  0  0  0  0  0  0  0  0  0  0  0
    9.8743  -15.6030   24.7071 C   0  0  0  0  0  0  0  0  0  0  0  0
    9.5592  -14.4024   24.9041 O   0  0  0  0  0  0  0  0  0  0  0  0
    9.9177  -16.4075   25.8460 O   0  0  0  0  0  0  0  0  0  0  0  0
  2  1  1  0
  3  2  2  0
  4  2  1  0
  5  4  1  0
  5  6  1  6
  7 11  1  0
  7  5  1  0
  8  7  2  0
 10  9  1  1
 10 11  1  0
 10 12  1  0
 12 20  1  0
 13 12  2  0
 15 17  1  0
 15 14  1  0
 16 15  2  0
 18 17  1  0
 19 18  1  1
 19 21  1  0
 20 19  1  0
 21 23  1  0
 22 21  2  0
M  END
$$$$
