NAQ.pdb
     RDKit          3D

 23 22  0  0  1  0  0  0  0  0999 V2000
    6.6440  -17.3298   14.4028 N   0  0  0  0  0  0  0  0  0  0  0  0
    7.4930  -16.2625   14.0023 C   0  0  0  0  0  0  0  0  0  0  0  0
    7.2975  -15.7442   12.8734 O   0  0  0  0  0  0  0  0  0  0  0  0
    8.5898  -15.7487   14.8673 C   0  0  0  0  0  0  0  0  0  0  0  0
    8.5449  -16.4273   16.2115 C   0  0  2  0  0  0  0  0  0  0  0  0
    7.2469  -17.0329   16.4165 N   0  0  0  0  0  0  0  0  0  0  0  0
    8.8588  -15.5456   17.3290 C   0  0  0  0  0  0  0  0  0  0  0  0
   10.0581  -15.2205   17.5193 O   0  0  0  0  0  0  0  0  0  0  0  0
    7.0521  -13.5619   20.0232 C   0  0  0  0  0  0  0  0  0  0  0  0
    8.2214  -14.3153   19.4456 C   0  0  2  0  0  0  0  0  0  0  0  0
    7.9076  -15.0129   18.2378 N   0  0  0  0  0  0  0  0  0  0  0  0
    8.7982  -15.2814   20.4134 C   0  0  0  0  0  0  0  0  0  0  0  0
    8.4180  -16.4718   20.3835 O   0  0  0  0  0  0  0  0  0  0  0  0
   14.7190  -14.9235   22.9955 N   0  0  0  0  0  0  0  0  0  0  0  0
   14.1591  -16.2154   22.8431 C   0  0  0  0  0  0  0  0  0  0  0  0
   14.9518  -17.1733   22.5834 O   0  0  0  0  0  0  0  0  0  0  0  0
   12.7220  -16.4865   22.9787 C   0  0  0  0  0  0  0  0  0  0  0  0
   11.8148  -15.7176   22.1009 C   0  0  0  0  0  0  0  0  0  0  0  0
   10.3476  -15.9536   22.2199 C   0  0  2  0  0  0  0  0  0  0  0  0
    9.7582  -14.8869   21.3578 N   0  0  0  0  0  0  0  0  0  0  0  0
    9.7503  -15.8819   23.5484 C   0  0  0  0  0  0  0  0  0  0  0  0
    9.2018  -14.8270   23.9558 O   0  0  0  0  0  0  0  0  0  0  0  0
    9.7413  -16.9494   24.4467 O   0  0  0  0  0  0  0  0  0  0  0  0
  2  1  1  0
  3  2  2  0
  4  2  1  0
  5  4  1  0
  5  6  1  1
  7 11  1  0
  7  5  1  0
  8  7  2  0
 10  9  1  1
 10 11  1  0
 10 12  1  0
 12 20  1  0
 13 12  2  0
 15 17  1  0
 15 14  1  0
 16 15  2  0
 18 17  1  0
 19 18  1  1
 19 21  1  0
 20 19  1  0
 21 23  1  0
 22 21  2  0
M  END
$$$$
