NAQ.pdb
     RDKit          3D

 23 22  0  0  1  0  0  0  0  0999 V2000
    9.5518  -14.6766   16.0793 N   0  0  0  0  0  0  0  0  0  0  0  0
   10.4633  -14.4079   17.1364 C   0  0  0  0  0  0  0  0  0  0  0  0
   11.6935  -14.4434   16.8785 O   0  0  0  0  0  0  0  0  0  0  0  0
   10.0104  -14.0907   18.5182 C   0  0  0  0  0  0  0  0  0  0  0  0
    8.5062  -14.1334   18.5886 C   0  0  2  0  0  0  0  0  0  0  0  0
    7.9514  -12.9079   18.0559 N   0  0  0  0  0  0  0  0  0  0  0  0
    7.9841  -14.3684   19.9291 C   0  0  0  0  0  0  0  0  0  0  0  0
    7.9795  -13.4144   20.7477 O   0  0  0  0  0  0  0  0  0  0  0  0
    6.0386  -17.0344   21.7878 C   0  0  0  0  0  0  0  0  0  0  0  0
    6.9541  -15.8410   21.7096 C   0  0  2  0  0  0  0  0  0  0  0  0
    7.4709  -15.6059   20.3975 N   0  0  0  0  0  0  0  0  0  0  0  0
    8.0935  -15.9464   22.6547 C   0  0  0  0  0  0  0  0  0  0  0  0
    9.2393  -16.1615   22.2035 O   0  0  0  0  0  0  0  0  0  0  0  0
    8.4904  -13.0425   28.1321 N   0  0  0  0  0  0  0  0  0  0  0  0
    9.5973  -13.9255   28.1589 C   0  0  0  0  0  0  0  0  0  0  0  0
   10.3791  -13.8586   29.1578 O   0  0  0  0  0  0  0  0  0  0  0  0
    9.8674  -14.9039   27.0974 C   0  0  0  0  0  0  0  0  0  0  0  0
    8.8944  -14.9647   25.9864 C   0  0  0  0  0  0  0  0  0  0  0  0
    9.1164  -15.9679   24.9062 C   0  0  2  0  0  0  0  0  0  0  0  0
    7.9114  -15.8101   24.0394 N   0  0  0  0  0  0  0  0  0  0  0  0
    9.2503  -17.3679   25.2919 C   0  0  0  0  0  0  0  0  0  0  0  0
    8.2472  -18.1230   25.3479 O   0  0  0  0  0  0  0  0  0  0  0  0
   10.4691  -17.9624   25.6201 O   0  0  0  0  0  0  0  0  0  0  0  0
  2  1  1  0
  3  2  2  0
  4  2  1  0
  5  4  1  0
  5  6  1  1
  7 11  1  0
  7  5  1  0
  8  7  2  0
 10  9  1  6
 10 11  1  0
 10 12  1  0
 12 20  1  0
 13 12  2  0
 15 17  1  0
 15 14  1  0
 16 15  2  0
 18 17  1  0
 19 18  1  1
 19 21  1  0
 20 19  1  0
 21 23  1  0
 22 21  2  0
M  END
$$$$
