NAQ.pdb
     RDKit          3D

 23 22  0  0  1  0  0  0  0  0999 V2000
   14.2966  -15.9582   18.5389 N   0  0  0  0  0  0  0  0  0  0  0  0
   13.6289  -14.7362   18.8237 C   0  0  0  0  0  0  0  0  0  0  0  0
   13.9848  -13.7080   18.1932 O   0  0  0  0  0  0  0  0  0  0  0  0
   12.5376  -14.6401   19.8311 C   0  0  0  0  0  0  0  0  0  0  0  0
   11.2939  -15.3093   19.3069 C   0  0  2  0  0  0  0  0  0  0  0  0
   10.6845  -14.4879   18.2834 N   0  0  0  0  0  0  0  0  0  0  0  0
   10.3115  -15.6208   20.3377 C   0  0  0  0  0  0  0  0  0  0  0  0
    9.4387  -14.7597   20.6156 O   0  0  0  0  0  0  0  0  0  0  0  0
    9.1846  -18.6454   22.3353 C   0  0  0  0  0  0  0  0  0  0  0  0
    9.2596  -17.1708   22.0379 C   0  0  2  0  0  0  0  0  0  0  0  0
   10.2555  -16.8363   21.0682 N   0  0  0  0  0  0  0  0  0  0  0  0
    9.5004  -16.3646   23.2605 C   0  0  0  0  0  0  0  0  0  0  0  0
   10.6567  -15.9543   23.4998 O   0  0  0  0  0  0  0  0  0  0  0  0
    5.5009  -12.2169   25.2763 N   0  0  0  0  0  0  0  0  0  0  0  0
    6.5065  -12.1739   26.2726 C   0  0  0  0  0  0  0  0  0  0  0  0
    6.4289  -11.2565   27.1476 O   0  0  0  0  0  0  0  0  0  0  0  0
    7.6131  -13.1376   26.3358 C   0  0  0  0  0  0  0  0  0  0  0  0
    7.6507  -14.1763   25.2849 C   0  0  0  0  0  0  0  0  0  0  0  0
    8.7830  -15.1460   25.2894 C   0  0  2  0  0  0  0  0  0  0  0  0
    8.4602  -16.0547   24.1499 N   0  0  0  0  0  0  0  0  0  0  0  0
    8.9953  -15.9419   26.4929 C   0  0  0  0  0  0  0  0  0  0  0  0
    8.5007  -17.0918   26.6045 O   0  0  0  0  0  0  0  0  0  0  0  0
    9.7437  -15.5011   27.5847 O   0  0  0  0  0  0  0  0  0  0  0  0
  2  1  1  0
  3  2  2  0
  4  2  1  0
  5  4  1  0
  5  6  1  6
  7 11  1  0
  7  5  1  0
  8  7  2  0
 10  9  1  1
 10 11  1  0
 10 12  1  0
 12 20  1  0
 13 12  2  0
 15 17  1  0
 15 14  1  0
 16 15  2  0
 18 17  1  0
 19 18  1  1
 19 21  1  0
 20 19  1  0
 21 23  1  0
 22 21  2  0
M  END
$$$$
