NAQ.pdb
     RDKit          3D

 23 22  0  0  1  0  0  0  0  0999 V2000
    7.6552  -12.0607   18.7661 N   0  0  0  0  0  0  0  0  0  0  0  0
    7.7379  -13.4770   18.6785 C   0  0  0  0  0  0  0  0  0  0  0  0
    8.0187  -13.9841   17.5626 O   0  0  0  0  0  0  0  0  0  0  0  0
    7.5054  -14.3632   19.8514 C   0  0  0  0  0  0  0  0  0  0  0  0
    8.8220  -14.8617   20.3879 C   0  0  2  0  0  0  0  0  0  0  0  0
    9.5755  -15.5021   19.3317 N   0  0  0  0  0  0  0  0  0  0  0  0
    8.6924  -15.7699   21.5206 C   0  0  0  0  0  0  0  0  0  0  0  0
    8.0154  -15.3997   22.5130 O   0  0  0  0  0  0  0  0  0  0  0  0
    9.5857  -19.3553   22.4157 C   0  0  0  0  0  0  0  0  0  0  0  0
    9.1976  -17.9341   22.7292 C   0  0  2  0  0  0  0  0  0  0  0  0
    9.2765  -17.0609   21.5998 N   0  0  0  0  0  0  0  0  0  0  0  0
   10.0132  -17.3604   23.8284 C   0  0  0  0  0  0  0  0  0  0  0  0
   10.9835  -16.6250   23.5449 O   0  0  0  0  0  0  0  0  0  0  0  0
    8.6636  -13.1160   27.1038 N   0  0  0  0  0  0  0  0  0  0  0  0
    9.6018  -13.6982   27.9907 C   0  0  0  0  0  0  0  0  0  0  0  0
    9.7772  -13.1339   29.1151 O   0  0  0  0  0  0  0  0  0  0  0  0
   10.3618  -14.9130   27.6683 C   0  0  0  0  0  0  0  0  0  0  0  0
    9.8384  -15.7526   26.5703 C   0  0  0  0  0  0  0  0  0  0  0  0
   10.5900  -16.9869   26.2040 C   0  0  2  0  0  0  0  0  0  0  0  0
    9.7183  -17.6258   25.1743 N   0  0  0  0  0  0  0  0  0  0  0  0
   10.8729  -17.9524   27.2598 C   0  0  0  0  0  0  0  0  0  0  0  0
   10.1014  -18.9209   27.4753 O   0  0  0  0  0  0  0  0  0  0  0  0
   11.9913  -17.8786   28.0905 O   0  0  0  0  0  0  0  0  0  0  0  0
  2  1  1  0
  3  2  2  0
  4  2  1  0
  5  4  1  0
  5  6  1  6
  7 11  1  0
  7  5  1  0
  8  7  2  0
 10  9  1  6
 10 11  1  0
 10 12  1  0
 12 20  1  0
 13 12  2  0
 15 17  1  0
 15 14  1  0
 16 15  2  0
 18 17  1  0
 19 18  1  1
 19 21  1  0
 20 19  1  0
 21 23  1  0
 22 21  2  0
M  END
$$$$
