NAQ.pdb
     RDKit          3D

 23 22  0  0  1  0  0  0  0  0999 V2000
    5.1155  -19.5524   16.9073 N   0  0  0  0  0  0  0  0  0  0  0  0
    6.3862  -19.4182   17.5300 C   0  0  0  0  0  0  0  0  0  0  0  0
    6.9942  -20.4673   17.8630 O   0  0  0  0  0  0  0  0  0  0  0  0
    7.0080  -18.0923   17.7951 C   0  0  0  0  0  0  0  0  0  0  0  0
    7.7882  -18.1388   19.0830 C   0  0  2  0  0  0  0  0  0  0  0  0
    6.9872  -18.7447   20.1245 N   0  0  0  0  0  0  0  0  0  0  0  0
    8.2718  -16.8377   19.5279 C   0  0  0  0  0  0  0  0  0  0  0  0
    9.2983  -16.3595   18.9818 O   0  0  0  0  0  0  0  0  0  0  0  0
    7.0183  -13.9052   21.5437 C   0  0  0  0  0  0  0  0  0  0  0  0
    8.1137  -14.7532   20.9525 C   0  0  2  0  0  0  0  0  0  0  0  0
    7.6712  -16.0499   20.5442 N   0  0  0  0  0  0  0  0  0  0  0  0
    9.2595  -14.9154   21.8817 C   0  0  0  0  0  0  0  0  0  0  0  0
    9.7980  -13.8966   22.3661 O   0  0  0  0  0  0  0  0  0  0  0  0
   10.0552  -19.7106   25.7260 N   0  0  0  0  0  0  0  0  0  0  0  0
   11.1841  -18.8906   25.9683 C   0  0  0  0  0  0  0  0  0  0  0  0
   11.9698  -19.2331   26.9058 O   0  0  0  0  0  0  0  0  0  0  0  0
   11.4802  -17.6836   25.1855 C   0  0  0  0  0  0  0  0  0  0  0  0
   10.5685  -17.3796   24.0625 C   0  0  0  0  0  0  0  0  0  0  0  0
   10.9081  -16.2386   23.1651 C   0  0  2  0  0  0  0  0  0  0  0  0
    9.7489  -16.1847   22.2261 N   0  0  0  0  0  0  0  0  0  0  0  0
   12.1450  -16.3194   22.3966 C   0  0  0  0  0  0  0  0  0  0  0  0
   12.1578  -16.8106   21.2398 O   0  0  0  0  0  0  0  0  0  0  0  0
   13.3772  -15.8701   22.8724 O   0  0  0  0  0  0  0  0  0  0  0  0
  2  1  1  0
  3  2  2  0
  4  2  1  0
  5  4  1  0
  5  6  1  1
  7 11  1  0
  7  5  1  0
  8  7  2  0
 10  9  1  1
 10 11  1  0
 10 12  1  0
 12 20  1  0
 13 12  2  0
 15 17  1  0
 15 14  1  0
 16 15  2  0
 18 17  1  0
 19 18  1  1
 19 21  1  0
 20 19  1  0
 21 23  1  0
 22 21  2  0
M  END
$$$$
