NAQ.pdb
     RDKit          3D

 23 22  0  0  1  0  0  0  0  0999 V2000
    8.4230  -18.8672   15.2929 N   0  0  0  0  0  0  0  0  0  0  0  0
    9.5639  -18.0200   15.2608 C   0  0  0  0  0  0  0  0  0  0  0  0
   10.4525  -18.2584   14.4037 O   0  0  0  0  0  0  0  0  0  0  0  0
    9.7342  -16.8764   16.1980 C   0  0  0  0  0  0  0  0  0  0  0  0
    8.6113  -16.8633   17.2023 C   0  0  2  0  0  0  0  0  0  0  0  0
    7.3752  -16.4774   16.5568 N   0  0  0  0  0  0  0  0  0  0  0  0
    8.8567  -16.0009   18.3515 C   0  0  0  0  0  0  0  0  0  0  0  0
    9.8927  -16.1938   19.0370 O   0  0  0  0  0  0  0  0  0  0  0  0
    7.1788  -13.0508   20.0963 C   0  0  0  0  0  0  0  0  0  0  0  0
    8.2086  -14.1381   19.9357 C   0  0  2  0  0  0  0  0  0  0  0  0
    8.0096  -14.9419   18.7702 N   0  0  0  0  0  0  0  0  0  0  0  0
    8.2705  -15.0301   21.1203 C   0  0  0  0  0  0  0  0  0  0  0  0
    7.5156  -16.0251   21.1719 O   0  0  0  0  0  0  0  0  0  0  0  0
   12.3635  -18.4202   21.0677 N   0  0  0  0  0  0  0  0  0  0  0  0
   11.9057  -18.7517   22.3662 C   0  0  0  0  0  0  0  0  0  0  0  0
   12.4370  -19.7529   22.9396 O   0  0  0  0  0  0  0  0  0  0  0  0
   10.8626  -17.9908   23.0663 C   0  0  0  0  0  0  0  0  0  0  0  0
   10.3777  -16.7623   22.4028 C   0  0  0  0  0  0  0  0  0  0  0  0
    9.4103  -15.8972   23.1365 C   0  0  2  0  0  0  0  0  0  0  0  0
    9.1561  -14.7799   22.1797 N   0  0  0  0  0  0  0  0  0  0  0  0
    9.8263  -15.3446   24.4204 C   0  0  0  0  0  0  0  0  0  0  0  0
   10.3009  -14.1837   24.5026 O   0  0  0  0  0  0  0  0  0  0  0  0
    9.7327  -16.0421   25.6250 O   0  0  0  0  0  0  0  0  0  0  0  0
  2  1  1  0
  3  2  2  0
  4  2  1  0
  5  4  1  0
  5  6  1  6
  7 11  1  0
  7  5  1  0
  8  7  2  0
 10  9  1  1
 10 11  1  0
 10 12  1  0
 12 20  1  0
 13 12  2  0
 15 17  1  0
 15 14  1  0
 16 15  2  0
 18 17  1  0
 19 18  1  6
 19 21  1  0
 20 19  1  0
 21 23  1  0
 22 21  2  0
M  END
$$$$
