NAQ.pdb
     RDKit          3D

 23 22  0  0  1  0  0  0  0  0999 V2000
   10.4327  -19.4088   17.0164 N   0  0  0  0  0  0  0  0  0  0  0  0
    9.1282  -19.2817   17.5662 C   0  0  0  0  0  0  0  0  0  0  0  0
    8.4509  -20.3289   17.7277 O   0  0  0  0  0  0  0  0  0  0  0  0
    8.5498  -17.9653   17.9504 C   0  0  0  0  0  0  0  0  0  0  0  0
    8.5913  -17.8030   19.4476 C   0  0  2  0  0  0  0  0  0  0  0  0
    7.3505  -18.2668   20.0297 N   0  0  0  0  0  0  0  0  0  0  0  0
    8.8617  -16.4396   19.8865 C   0  0  0  0  0  0  0  0  0  0  0  0
    9.9916  -15.9439   19.6457 O   0  0  0  0  0  0  0  0  0  0  0  0
    6.9414  -13.3995   20.9599 C   0  0  0  0  0  0  0  0  0  0  0  0
    8.1820  -14.2536   20.9633 C   0  0  2  0  0  0  0  0  0  0  0  0
    7.9406  -15.6084   20.5757 N   0  0  0  0  0  0  0  0  0  0  0  0
    8.8587  -14.2530   22.2842 C   0  0  0  0  0  0  0  0  0  0  0  0
    9.2311  -13.1656   22.7757 O   0  0  0  0  0  0  0  0  0  0  0  0
    5.8051  -15.6627   25.7520 N   0  0  0  0  0  0  0  0  0  0  0  0
    6.4930  -14.4369   25.9249 C   0  0  0  0  0  0  0  0  0  0  0  0
    5.8092  -13.4212   26.2628 O   0  0  0  0  0  0  0  0  0  0  0  0
    7.9433  -14.2991   25.7385 C   0  0  0  0  0  0  0  0  0  0  0  0
    8.6734  -15.5039   25.2913 C   0  0  0  0  0  0  0  0  0  0  0  0
    9.7809  -15.3352   24.3077 C   0  0  2  0  0  0  0  0  0  0  0  0
    9.0880  -15.4440   22.9899 N   0  0  0  0  0  0  0  0  0  0  0  0
   10.8833  -16.2890   24.3507 C   0  0  0  0  0  0  0  0  0  0  0  0
   11.6614  -16.3354   25.3366 O   0  0  0  0  0  0  0  0  0  0  0  0
   11.1531  -17.1998   23.3289 O   0  0  0  0  0  0  0  0  0  0  0  0
  2  1  1  0
  3  2  2  0
  4  2  1  0
  5  4  1  0
  5  6  1  1
  7 11  1  0
  7  5  1  0
  8  7  2  0
 10  9  1  1
 10 11  1  0
 10 12  1  0
 12 20  1  0
 13 12  2  0
 15 17  1  0
 15 14  1  0
 16 15  2  0
 18 17  1  0
 19 18  1  1
 19 21  1  0
 20 19  1  0
 21 23  1  0
 22 21  2  0
M  END
$$$$
