NAQ.pdb
     RDKit          3D

 23 22  0  0  1  0  0  0  0  0999 V2000
    8.8349  -18.7505   14.5790 N   0  0  0  0  0  0  0  0  0  0  0  0
    8.5899  -17.4736   15.1534 C   0  0  0  0  0  0  0  0  0  0  0  0
    7.6800  -16.7652   14.6518 O   0  0  0  0  0  0  0  0  0  0  0  0
    9.3674  -16.9589   16.3134 C   0  0  0  0  0  0  0  0  0  0  0  0
    8.5772  -17.1408   17.5831 C   0  0  2  0  0  0  0  0  0  0  0  0
    7.1603  -17.1200   17.2908 N   0  0  0  0  0  0  0  0  0  0  0  0
    8.8817  -16.1567   18.6144 C   0  0  0  0  0  0  0  0  0  0  0  0
   10.0060  -16.2023   19.1751 O   0  0  0  0  0  0  0  0  0  0  0  0
    7.1662  -13.2155   20.3343 C   0  0  0  0  0  0  0  0  0  0  0  0
    8.2033  -14.2983   20.1910 C   0  0  2  0  0  0  0  0  0  0  0  0
    8.0003  -15.1322   19.0476 N   0  0  0  0  0  0  0  0  0  0  0  0
    8.2834  -15.1601   21.3966 C   0  0  0  0  0  0  0  0  0  0  0  0
    7.4446  -16.0748   21.5464 O   0  0  0  0  0  0  0  0  0  0  0  0
   12.9500  -18.3098   22.5941 N   0  0  0  0  0  0  0  0  0  0  0  0
   12.2072  -18.5407   23.7776 C   0  0  0  0  0  0  0  0  0  0  0  0
   12.6620  -19.3949   24.6003 O   0  0  0  0  0  0  0  0  0  0  0  0
   10.9561  -17.8369   24.0881 C   0  0  0  0  0  0  0  0  0  0  0  0
   10.5242  -16.7958   23.1319 C   0  0  0  0  0  0  0  0  0  0  0  0
    9.3417  -15.9591   23.4840 C   0  0  2  0  0  0  0  0  0  0  0  0
    9.2778  -14.9696   22.3681 N   0  0  0  0  0  0  0  0  0  0  0  0
    9.3642  -15.2468   24.7565 C   0  0  0  0  0  0  0  0  0  0  0  0
    9.6281  -14.0191   24.8069 O   0  0  0  0  0  0  0  0  0  0  0  0
    9.1016  -15.8559   25.9839 O   0  0  0  0  0  0  0  0  0  0  0  0
  2  1  1  0
  3  2  2  0
  4  2  1  0
  5  4  1  0
  5  6  1  6
  7 11  1  0
  7  5  1  0
  8  7  2  0
 10  9  1  1
 10 11  1  0
 10 12  1  0
 12 20  1  0
 13 12  2  0
 15 17  1  0
 15 14  1  0
 16 15  2  0
 18 17  1  0
 19 18  1  6
 19 21  1  0
 20 19  1  0
 21 23  1  0
 22 21  2  0
M  END
$$$$
