NAQ.pdb
     RDKit          3D

 23 22  0  0  1  0  0  0  0  0999 V2000
    4.5240  -19.7411   21.1483 N   0  0  0  0  0  0  0  0  0  0  0  0
    4.9423  -19.0424   22.3133 C   0  0  0  0  0  0  0  0  0  0  0  0
    4.3673  -19.3082   23.3996 O   0  0  0  0  0  0  0  0  0  0  0  0
    6.0245  -18.0210   22.2848 C   0  0  0  0  0  0  0  0  0  0  0  0
    6.3969  -17.7065   20.8594 C   0  0  2  0  0  0  0  0  0  0  0  0
    6.8396  -18.9089   20.1873 N   0  0  0  0  0  0  0  0  0  0  0  0
    7.4114  -16.6679   20.7294 C   0  0  0  0  0  0  0  0  0  0  0  0
    8.6222  -17.0057   20.7432 O   0  0  0  0  0  0  0  0  0  0  0  0
    7.5895  -12.9227   20.0741 C   0  0  0  0  0  0  0  0  0  0  0  0
    8.1334  -14.2517   20.5288 C   0  0  2  0  0  0  0  0  0  0  0  0
    7.1434  -15.2816   20.5858 N   0  0  0  0  0  0  0  0  0  0  0  0
    8.7985  -14.1612   21.8524 C   0  0  0  0  0  0  0  0  0  0  0  0
    9.8312  -13.4663   21.9674 O   0  0  0  0  0  0  0  0  0  0  0  0
    5.6909  -12.3200   26.3865 N   0  0  0  0  0  0  0  0  0  0  0  0
    6.9559  -12.5090   26.9946 C   0  0  0  0  0  0  0  0  0  0  0  0
    7.1357  -12.0061   28.1470 O   0  0  0  0  0  0  0  0  0  0  0  0
    8.0471  -13.2578   26.3575 C   0  0  0  0  0  0  0  0  0  0  0  0
    7.7967  -13.7640   24.9915 C   0  0  0  0  0  0  0  0  0  0  0  0
    8.8910  -14.5035   24.2999 C   0  0  2  0  0  0  0  0  0  0  0  0
    8.2933  -14.8375   22.9734 N   0  0  0  0  0  0  0  0  0  0  0  0
    9.3897  -15.7241   24.9229 C   0  0  0  0  0  0  0  0  0  0  0  0
    9.0160  -16.8552   24.5221 O   0  0  0  0  0  0  0  0  0  0  0  0
   10.2960  -15.7318   25.9836 O   0  0  0  0  0  0  0  0  0  0  0  0
  2  1  1  0
  3  2  2  0
  4  2  1  0
  5  4  1  0
  5  6  1  1
  7 11  1  0
  7  5  1  0
  8  7  2  0
 10  9  1  1
 10 11  1  0
 10 12  1  0
 12 20  1  0
 13 12  2  0
 15 17  1  0
 15 14  1  0
 16 15  2  0
 18 17  1  0
 19 18  1  1
 19 21  1  0
 20 19  1  0
 21 23  1  0
 22 21  2  0
M  END
$$$$
