NAQ.pdb
     RDKit          3D

 23 22  0  0  1  0  0  0  0  0999 V2000
    6.1196  -18.5636   21.1472 N   0  0  0  0  0  0  0  0  0  0  0  0
    7.3343  -17.8415   20.9939 C   0  0  0  0  0  0  0  0  0  0  0  0
    7.8506  -17.7909   19.8484 O   0  0  0  0  0  0  0  0  0  0  0  0
    8.0023  -17.1542   22.1325 C   0  0  0  0  0  0  0  0  0  0  0  0
    7.8748  -15.6611   21.9778 C   0  0  2  0  0  0  0  0  0  0  0  0
    8.6060  -15.2210   20.8094 N   0  0  0  0  0  0  0  0  0  0  0  0
    8.3128  -14.9068   23.1457 C   0  0  0  0  0  0  0  0  0  0  0  0
    9.5208  -14.9755   23.4868 O   0  0  0  0  0  0  0  0  0  0  0  0
    6.8273  -12.4624   25.6686 C   0  0  0  0  0  0  0  0  0  0  0  0
    7.8931  -13.3678   25.1091 C   0  0  2  0  0  0  0  0  0  0  0  0
    7.4757  -14.0860   23.9455 N   0  0  0  0  0  0  0  0  0  0  0  0
    8.3848  -14.3421   26.1150 C   0  0  0  0  0  0  0  0  0  0  0  0
    7.6896  -15.3472   26.3779 O   0  0  0  0  0  0  0  0  0  0  0  0
   13.9576  -16.0450   25.7521 N   0  0  0  0  0  0  0  0  0  0  0  0
   12.7580  -16.6751   25.3403 C   0  0  0  0  0  0  0  0  0  0  0  0
   12.8513  -17.6344   24.5130 O   0  0  0  0  0  0  0  0  0  0  0  0
   11.4331  -16.2732   25.8304 C   0  0  0  0  0  0  0  0  0  0  0  0
   11.3829  -15.6341   27.1623 C   0  0  0  0  0  0  0  0  0  0  0  0
   10.0529  -15.2371   27.7063 C   0  0  2  0  0  0  0  0  0  0  0  0
    9.6098  -14.1584   26.7744 N   0  0  0  0  0  0  0  0  0  0  0  0
    9.9964  -14.7409   29.0765 C   0  0  0  0  0  0  0  0  0  0  0  0
    9.7955  -13.5238   29.3168 O   0  0  0  0  0  0  0  0  0  0  0  0
   10.1566  -15.5562   30.1973 O   0  0  0  0  0  0  0  0  0  0  0  0
  2  1  1  0
  3  2  2  0
  4  2  1  0
  5  4  1  0
  5  6  1  6
  7 11  1  0
  7  5  1  0
  8  7  2  0
 10  9  1  1
 10 11  1  0
 10 12  1  0
 12 20  1  0
 13 12  2  0
 15 17  1  0
 15 14  1  0
 16 15  2  0
 18 17  1  0
 19 18  1  6
 19 21  1  0
 20 19  1  0
 21 23  1  0
 22 21  2  0
M  END
$$$$
