NAQ.pdb
     RDKit          3D

 23 22  0  0  1  0  0  0  0  0999 V2000
   10.1488  -16.5257   15.0922 N   0  0  0  0  0  0  0  0  0  0  0  0
    9.0596  -17.3982   15.3617 C   0  0  0  0  0  0  0  0  0  0  0  0
    9.2919  -18.6328   15.4180 O   0  0  0  0  0  0  0  0  0  0  0  0
    7.6734  -16.9004   15.5758 C   0  0  0  0  0  0  0  0  0  0  0  0
    7.6359  -15.4023   15.4219 C   0  0  2  0  0  0  0  0  0  0  0  0
    8.2144  -15.0212   14.1516 N   0  0  0  0  0  0  0  0  0  0  0  0
    8.2991  -14.6809   16.5010 C   0  0  0  0  0  0  0  0  0  0  0  0
    9.5269  -14.4337   16.3927 O   0  0  0  0  0  0  0  0  0  0  0  0
    7.3658  -12.9910   19.7866 C   0  0  0  0  0  0  0  0  0  0  0  0
    8.3193  -13.5592   18.7684 C   0  0  2  0  0  0  0  0  0  0  0  0
    7.6646  -14.2252   17.6860 N   0  0  0  0  0  0  0  0  0  0  0  0
    9.2968  -14.4951   19.3777 C   0  0  0  0  0  0  0  0  0  0  0  0
    9.0824  -15.7250   19.3124 O   0  0  0  0  0  0  0  0  0  0  0  0
   15.1254  -14.3593   18.2981 N   0  0  0  0  0  0  0  0  0  0  0  0
   15.1234  -15.1499   19.4731 C   0  0  0  0  0  0  0  0  0  0  0  0
   16.2385  -15.6025   19.8796 O   0  0  0  0  0  0  0  0  0  0  0  0
   13.9029  -15.4553   20.2309 C   0  0  0  0  0  0  0  0  0  0  0  0
   12.6791  -14.7229   19.8431 C   0  0  0  0  0  0  0  0  0  0  0  0
   11.4052  -15.0540   20.5431 C   0  0  2  0  0  0  0  0  0  0  0  0
   10.4523  -14.0292   20.0232 N   0  0  0  0  0  0  0  0  0  0  0  0
   11.3987  -15.0196   22.0011 C   0  0  0  0  0  0  0  0  0  0  0  0
   10.8501  -14.0760   22.6242 O   0  0  0  0  0  0  0  0  0  0  0  0
   11.9849  -16.0045   22.7966 O   0  0  0  0  0  0  0  0  0  0  0  0
  2  1  1  0
  3  2  2  0
  4  2  1  0
  5  4  1  0
  5  6  1  6
  7 11  1  0
  7  5  1  0
  8  7  2  0
 10  9  1  1
 10 11  1  0
 10 12  1  0
 12 20  1  0
 13 12  2  0
 15 17  1  0
 15 14  1  0
 16 15  2  0
 18 17  1  0
 19 18  1  6
 19 21  1  0
 20 19  1  0
 21 23  1  0
 22 21  2  0
M  END
$$$$
