NAQ.pdb
     RDKit          3D

 23 22  0  0  1  0  0  0  0  0999 V2000
   15.3211  -13.4846   18.9737 N   0  0  0  0  0  0  0  0  0  0  0  0
   14.1824  -13.9931   18.2916 C   0  0  0  0  0  0  0  0  0  0  0  0
   14.3091  -14.3003   17.0788 O   0  0  0  0  0  0  0  0  0  0  0  0
   12.8650  -14.1697   18.9612 C   0  0  0  0  0  0  0  0  0  0  0  0
   12.8605  -15.4487   19.7573 C   0  0  2  0  0  0  0  0  0  0  0  0
   12.8051  -16.5862   18.8649 N   0  0  0  0  0  0  0  0  0  0  0  0
   11.7797  -15.5342   20.7316 C   0  0  0  0  0  0  0  0  0  0  0  0
   11.6508  -14.6054   21.5689 O   0  0  0  0  0  0  0  0  0  0  0  0
    8.8322  -17.8222   21.5105 C   0  0  0  0  0  0  0  0  0  0  0  0
    9.7955  -16.6974   21.7850 C   0  0  2  0  0  0  0  0  0  0  0  0
   10.8427  -16.5967   20.8168 N   0  0  0  0  0  0  0  0  0  0  0  0
   10.4066  -16.8001   23.1336 C   0  0  0  0  0  0  0  0  0  0  0  0
   11.5675  -17.2511   23.2419 O   0  0  0  0  0  0  0  0  0  0  0  0
    8.7290  -13.3007   28.0346 N   0  0  0  0  0  0  0  0  0  0  0  0
    9.7272  -14.1568   28.5605 C   0  0  0  0  0  0  0  0  0  0  0  0
   10.0678  -13.9884   29.7725 O   0  0  0  0  0  0  0  0  0  0  0  0
   10.3676  -15.2186   27.7734 C   0  0  0  0  0  0  0  0  0  0  0  0
    9.9247  -15.3654   26.3709 C   0  0  0  0  0  0  0  0  0  0  0  0
   10.4181  -16.5373   25.5926 C   0  0  2  0  0  0  0  0  0  0  0  0
    9.7103  -16.4026   24.2852 N   0  0  0  0  0  0  0  0  0  0  0  0
   10.1745  -17.8688   26.1355 C   0  0  0  0  0  0  0  0  0  0  0  0
    9.1251  -18.5007   25.8545 O   0  0  0  0  0  0  0  0  0  0  0  0
   11.0630  -18.5273   26.9861 O   0  0  0  0  0  0  0  0  0  0  0  0
  2  1  1  0
  3  2  2  0
  4  2  1  0
  5  4  1  0
  5  6  1  6
  7 11  1  0
  7  5  1  0
  8  7  2  0
 10  9  1  6
 10 11  1  0
 10 12  1  0
 12 20  1  0
 13 12  2  0
 15 17  1  0
 15 14  1  0
 16 15  2  0
 18 17  1  0
 19 18  1  1
 19 21  1  0
 20 19  1  0
 21 23  1  0
 22 21  2  0
M  END
$$$$
