NAQ.pdb
     RDKit          3D

 23 22  0  0  1  0  0  0  0  0999 V2000
    3.8944  -20.0980   22.6173 N   0  0  0  0  0  0  0  0  0  0  0  0
    3.8865  -18.7160   22.2854 C   0  0  0  0  0  0  0  0  0  0  0  0
    2.7969  -18.2011   21.9264 O   0  0  0  0  0  0  0  0  0  0  0  0
    5.1119  -17.8737   22.3497 C   0  0  0  0  0  0  0  0  0  0  0  0
    5.4422  -17.3416   20.9795 C   0  0  2  0  0  0  0  0  0  0  0  0
    5.5541  -18.4348   20.0384 N   0  0  0  0  0  0  0  0  0  0  0  0
    6.6521  -16.5297   20.9371 C   0  0  0  0  0  0  0  0  0  0  0  0
    7.7535  -17.1028   20.7400 O   0  0  0  0  0  0  0  0  0  0  0  0
    7.5967  -12.8393   21.0404 C   0  0  0  0  0  0  0  0  0  0  0  0
    7.8763  -14.3192   21.0587 C   0  0  2  0  0  0  0  0  0  0  0  0
    6.6932  -15.1207   21.1025 N   0  0  0  0  0  0  0  0  0  0  0  0
    8.7539  -14.7093   22.1901 C   0  0  0  0  0  0  0  0  0  0  0  0
    9.8776  -14.1728   22.3005 O   0  0  0  0  0  0  0  0  0  0  0  0
    7.9192  -12.9038   27.2422 N   0  0  0  0  0  0  0  0  0  0  0  0
    8.9223  -13.8474   27.5727 C   0  0  0  0  0  0  0  0  0  0  0  0
    9.4071  -13.8041   28.7460 O   0  0  0  0  0  0  0  0  0  0  0  0
    9.4102  -14.8615   26.6290 C   0  0  0  0  0  0  0  0  0  0  0  0
    8.8307  -14.8377   25.2695 C   0  0  0  0  0  0  0  0  0  0  0  0
    9.2491  -15.8936   24.3039 C   0  0  2  0  0  0  0  0  0  0  0  0
    8.3494  -15.6647   23.1349 N   0  0  0  0  0  0  0  0  0  0  0  0
    9.1429  -17.2855   24.7261 C   0  0  0  0  0  0  0  0  0  0  0  0
    8.1016  -17.9526   24.5022 O   0  0  0  0  0  0  0  0  0  0  0  0
   10.1611  -17.9670   25.3935 O   0  0  0  0  0  0  0  0  0  0  0  0
  2  1  1  0
  3  2  2  0
  4  2  1  0
  5  4  1  0
  5  6  1  6
  7 11  1  0
  7  5  1  0
  8  7  2  0
 10  9  1  1
 10 11  1  0
 10 12  1  0
 12 20  1  0
 13 12  2  0
 15 17  1  0
 15 14  1  0
 16 15  2  0
 18 17  1  0
 19 18  1  1
 19 21  1  0
 20 19  1  0
 21 23  1  0
 22 21  2  0
M  END
$$$$
