NFD.pdb
     RDKit          3D

 28 28  0  0  1  0  0  0  0  0999 V2000
   28.9075  -17.5112  -19.0340 N   0  0  0  0  0  0  0  0  0  0  0  0
   27.9799  -18.4025  -19.6068 C   0  0  0  0  0  0  0  0  0  0  0  0
   27.9609  -18.5540  -20.8423 O   0  0  0  0  0  0  0  0  0  0  0  0
   27.0381  -19.1525  -18.7634 C   0  0  0  0  0  0  0  0  0  0  0  0
   27.8798  -20.0940  -17.9196 C   0  0  2  0  0  0  0  0  0  0  0  0
   28.3046  -21.1598  -18.7986 N   0  0  0  0  0  0  0  0  0  0  0  0
   27.1490  -20.6774  -16.7823 C   0  0  0  0  0  0  0  0  0  0  0  0
   26.1677  -21.4622  -17.0156 O   0  0  0  0  0  0  0  0  0  0  0  0
   27.5216  -20.3783  -15.4553 N   0  0  0  0  0  0  0  0  0  0  0  0
   26.7454  -20.8048  -14.3180 C   0  0  1  0  0  0  0  0  0  0  0  0
   27.4887  -20.2643  -13.0825 C   0  0  0  0  0  0  0  0  0  0  0  0
   26.7258  -20.5229  -11.8436 C   0  0  0  0  0  0  0  0  0  0  0  0
   26.5695  -19.4946  -10.9156 C   0  0  0  0  0  0  0  0  0  0  0  0
   25.8734  -19.6598   -9.7374 C   0  0  0  0  0  0  0  0  0  0  0  0
   25.3232  -20.9031   -9.4997 C   0  0  0  0  0  0  0  0  0  0  0  0
   25.4802  -21.9241  -10.4247 C   0  0  0  0  0  0  0  0  0  0  0  0
   26.1745  -21.7527  -11.5959 C   0  0  0  0  0  0  0  0  0  0  0  0
   25.4480  -20.0409  -14.3611 C   0  0  0  0  0  0  0  0  0  0  0  0
   25.4540  -18.7652  -14.4639 O   0  0  0  0  0  0  0  0  0  0  0  0
   24.1980  -20.7061  -14.2879 N   0  0  0  0  0  0  0  0  0  0  0  0
   22.9655  -19.8837  -14.2633 C   0  0  1  0  0  0  0  0  0  0  0  0
   22.1755  -20.0927  -15.5072 C   0  0  0  0  0  0  0  0  0  0  0  0
   20.9357  -19.3114  -15.4820 C   0  0  0  0  0  0  0  0  0  0  0  0
   20.9488  -18.1113  -15.1396 O   0  0  0  0  0  0  0  0  0  0  0  0
   22.2015  -20.3655  -13.0519 C   0  0  0  0  0  0  0  0  0  0  0  0
   22.2998  -21.6309  -12.5338 O   0  0  0  0  0  0  0  0  0  0  0  0
   19.7330  -19.8943  -15.8370 O   0  0  0  0  0  0  0  0  0  0  0  0
   21.4050  -19.5790  -12.4439 O   0  0  0  0  0  0  0  0  0  0  0  0
  1  2  1  0
  2  3  2  0
  4  5  1  0
  4  2  1  0
  5  7  1  0
  5  6  1  6
  7  8  2  0
  9 10  1  0
  9  7  1  0
 10 11  1  1
 11 12  1  0
 12 17  2  0
 13 14  2  0
 13 12  1  0
 14 15  1  0
 15 16  2  0
 17 16  1  0
 18 19  2  0
 18 10  1  0
 20 18  1  0
 21 20  1  0
 21 22  1  6
 22 23  1  0
 23 27  1  0
 23 24  2  0
 25 21  1  0
 26 25  1  0
 28 25  2  0
M  END
$$$$
