NFD.pdb
     RDKit          3D

 28 28  0  0  1  0  0  0  0  0999 V2000
   28.5703  -19.5325  -18.2363 N   0  0  0  0  0  0  0  0  0  0  0  0
   27.5536  -20.4873  -18.4307 C   0  0  0  0  0  0  0  0  0  0  0  0
   27.3625  -20.9531  -19.5693 O   0  0  0  0  0  0  0  0  0  0  0  0
   26.7197  -20.9374  -17.3070 C   0  0  0  0  0  0  0  0  0  0  0  0
   27.6535  -21.6471  -16.3420 C   0  0  2  0  0  0  0  0  0  0  0  0
   27.9084  -22.9528  -16.9072 N   0  0  0  0  0  0  0  0  0  0  0  0
   27.0890  -21.8143  -14.9924 C   0  0  0  0  0  0  0  0  0  0  0  0
   26.1735  -22.6869  -14.8094 O   0  0  0  0  0  0  0  0  0  0  0  0
   27.5475  -21.0268  -13.9159 N   0  0  0  0  0  0  0  0  0  0  0  0
   27.0145  -21.1521  -12.5825 C   0  0  1  0  0  0  0  0  0  0  0  0
   27.9494  -20.3231  -11.6827 C   0  0  0  0  0  0  0  0  0  0  0  0
   27.4902  -20.3359  -10.2781 C   0  0  0  0  0  0  0  0  0  0  0  0
   26.4225  -19.5210   -9.9056 C   0  0  0  0  0  0  0  0  0  0  0  0
   25.9390  -19.4772   -8.6156 C   0  0  0  0  0  0  0  0  0  0  0  0
   26.5590  -20.2839   -7.6828 C   0  0  0  0  0  0  0  0  0  0  0  0
   27.6208  -21.0936   -8.0562 C   0  0  0  0  0  0  0  0  0  0  0  0
   28.0970  -21.1324   -9.3426 C   0  0  0  0  0  0  0  0  0  0  0  0
   25.6996  -20.4176  -12.5649 C   0  0  0  0  0  0  0  0  0  0  0  0
   25.5752  -19.3035  -13.1824 O   0  0  0  0  0  0  0  0  0  0  0  0
   24.5764  -20.9332  -11.8701 N   0  0  0  0  0  0  0  0  0  0  0  0
   23.2435  -20.3558  -12.1638 C   0  0  1  0  0  0  0  0  0  0  0  0
   22.7042  -20.9114  -13.4348 C   0  0  0  0  0  0  0  0  0  0  0  0
   21.3279  -20.4627  -13.6645 C   0  0  0  0  0  0  0  0  0  0  0  0
   21.0281  -19.2558  -13.5587 O   0  0  0  0  0  0  0  0  0  0  0  0
   22.3798  -20.7569  -10.9905 C   0  0  0  0  0  0  0  0  0  0  0  0
   21.2644  -20.0702  -10.5862 O   0  0  0  0  0  0  0  0  0  0  0  0
   20.3417  -21.3717  -14.0011 O   0  0  0  0  0  0  0  0  0  0  0  0
   22.6709  -21.7913  -10.3065 O   0  0  0  0  0  0  0  0  0  0  0  0
  1  2  1  0
  2  3  2  0
  4  5  1  0
  4  2  1  0
  5  7  1  0
  5  6  1  6
  7  8  2  0
  9 10  1  0
  9  7  1  0
 10 11  1  1
 11 12  1  0
 12 17  2  0
 13 14  2  0
 13 12  1  0
 14 15  1  0
 15 16  2  0
 17 16  1  0
 18 19  2  0
 18 10  1  0
 20 18  1  0
 21 20  1  0
 21 22  1  6
 22 23  1  0
 23 27  1  0
 23 24  2  0
 25 21  1  0
 26 25  1  0
 28 25  2  0
M  END
$$$$
