NFD.pdb
     RDKit          3D

 28 28  0  0  1  0  0  0  0  0999 V2000
   29.0363  -21.3065  -19.3004 N   0  0  0  0  0  0  0  0  0  0  0  0
   27.8665  -22.0235  -19.6170 C   0  0  0  0  0  0  0  0  0  0  0  0
   27.4866  -22.0808  -20.8012 O   0  0  0  0  0  0  0  0  0  0  0  0
   27.0930  -22.7022  -18.5672 C   0  0  0  0  0  0  0  0  0  0  0  0
   27.8315  -22.4495  -17.2643 C   0  0  2  0  0  0  0  0  0  0  0  0
   28.8540  -23.4668  -17.1712 N   0  0  0  0  0  0  0  0  0  0  0  0
   26.9690  -22.5307  -16.0737 C   0  0  0  0  0  0  0  0  0  0  0  0
   26.1641  -23.5168  -15.9599 O   0  0  0  0  0  0  0  0  0  0  0  0
   27.0262  -21.5391  -15.0723 N   0  0  0  0  0  0  0  0  0  0  0  0
   26.2254  -21.6000  -13.8753 C   0  0  1  0  0  0  0  0  0  0  0  0
   26.8761  -20.6113  -12.8904 C   0  0  0  0  0  0  0  0  0  0  0  0
   26.1529  -20.5857  -11.6020 C   0  0  0  0  0  0  0  0  0  0  0  0
   25.0653  -19.7271  -11.4509 C   0  0  0  0  0  0  0  0  0  0  0  0
   24.3428  -19.6458  -10.2799 C   0  0  0  0  0  0  0  0  0  0  0  0
   24.7385  -20.4598   -9.2378 C   0  0  0  0  0  0  0  0  0  0  0  0
   25.8206  -21.3130   -9.3908 C   0  0  0  0  0  0  0  0  0  0  0  0
   26.5356  -21.3889  -10.5597 C   0  0  0  0  0  0  0  0  0  0  0  0
   24.8873  -20.9958  -14.2118 C   0  0  0  0  0  0  0  0  0  0  0  0
   24.8221  -19.8707  -14.8183 O   0  0  0  0  0  0  0  0  0  0  0  0
   23.6764  -21.6483  -13.8681 N   0  0  0  0  0  0  0  0  0  0  0  0
   22.3981  -20.9723  -14.1924 C   0  0  1  0  0  0  0  0  0  0  0  0
   21.6008  -21.7947  -15.1425 C   0  0  0  0  0  0  0  0  0  0  0  0
   20.3144  -21.1583  -15.4399 C   0  0  0  0  0  0  0  0  0  0  0  0
   19.8314  -21.2105  -16.5895 O   0  0  0  0  0  0  0  0  0  0  0  0
   21.6846  -20.8353  -12.8674 C   0  0  0  0  0  0  0  0  0  0  0  0
   20.8171  -19.8186  -12.5624 O   0  0  0  0  0  0  0  0  0  0  0  0
   19.6180  -20.4899  -14.4497 O   0  0  0  0  0  0  0  0  0  0  0  0
   21.8728  -21.6966  -11.9479 O   0  0  0  0  0  0  0  0  0  0  0  0
  1  2  1  0
  2  3  2  0
  4  5  1  0
  4  2  1  0
  5  7  1  0
  5  6  1  1
  7  8  2  0
  9 10  1  0
  9  7  1  0
 10 11  1  1
 11 12  1  0
 12 17  2  0
 13 14  2  0
 13 12  1  0
 14 15  1  0
 15 16  2  0
 17 16  1  0
 18 19  2  0
 18 10  1  0
 20 18  1  0
 21 20  1  0
 21 22  1  6
 22 23  1  0
 23 27  1  0
 23 24  2  0
 25 21  1  0
 26 25  1  0
 28 25  2  0
M  END
$$$$
