NFD.pdb
     RDKit          3D

 28 28  0  0  1  0  0  0  0  0999 V2000
   20.6944  -13.5002  -20.6670 N   0  0  0  0  0  0  0  0  0  0  0  0
   21.5529  -12.4661  -20.2467 C   0  0  0  0  0  0  0  0  0  0  0  0
   22.3551  -11.9698  -21.0592 O   0  0  0  0  0  0  0  0  0  0  0  0
   21.5110  -11.9690  -18.8640 C   0  0  0  0  0  0  0  0  0  0  0  0
   22.8490  -11.2954  -18.6136 C   0  0  2  0  0  0  0  0  0  0  0  0
   23.7792  -12.3490  -18.2762 N   0  0  0  0  0  0  0  0  0  0  0  0
   22.8186  -10.3168  -17.5138 C   0  0  0  0  0  0  0  0  0  0  0  0
   22.3836  -10.6860  -16.3702 O   0  0  0  0  0  0  0  0  0  0  0  0
   23.2610   -8.9926  -17.7138 N   0  0  0  0  0  0  0  0  0  0  0  0
   23.1954   -7.9897  -16.6804 C   0  0  1  0  0  0  0  0  0  0  0  0
   24.6171   -7.4076  -16.5768 C   0  0  0  0  0  0  0  0  0  0  0  0
   25.5742   -8.4183  -16.0806 C   0  0  0  0  0  0  0  0  0  0  0  0
   25.3025   -9.0810  -14.8847 C   0  0  0  0  0  0  0  0  0  0  0  0
   26.1472  -10.0341  -14.3577 C   0  0  0  0  0  0  0  0  0  0  0  0
   27.2966  -10.3187  -15.0669 C   0  0  0  0  0  0  0  0  0  0  0  0
   27.5643   -9.6581  -16.2562 C   0  0  0  0  0  0  0  0  0  0  0  0
   26.7187   -8.7102  -16.7754 C   0  0  0  0  0  0  0  0  0  0  0  0
   22.3483   -6.8646  -17.2145 C   0  0  0  0  0  0  0  0  0  0  0  0
   22.5305   -6.4290  -18.4041 O   0  0  0  0  0  0  0  0  0  0  0  0
   21.3383   -6.2621  -16.4225 N   0  0  0  0  0  0  0  0  0  0  0  0
   20.5382   -5.1667  -17.0194 C   0  0  1  0  0  0  0  0  0  0  0  0
   19.1109   -5.2848  -16.6150 C   0  0  0  0  0  0  0  0  0  0  0  0
   18.3291   -4.1441  -17.1007 C   0  0  0  0  0  0  0  0  0  0  0  0
   18.1809   -3.9516  -18.3248 O   0  0  0  0  0  0  0  0  0  0  0  0
   21.1502   -3.8974  -16.4736 C   0  0  0  0  0  0  0  0  0  0  0  0
   21.0274   -2.6675  -17.0664 O   0  0  0  0  0  0  0  0  0  0  0  0
   17.7450   -3.2642  -16.2080 O   0  0  0  0  0  0  0  0  0  0  0  0
   21.8312   -3.9274  -15.3975 O   0  0  0  0  0  0  0  0  0  0  0  0
  1  2  1  0
  2  3  2  0
  4  5  1  0
  4  2  1  0
  5  7  1  0
  5  6  1  1
  7  8  2  0
  9 10  1  0
  9  7  1  0
 10 11  1  6
 11 12  1  0
 12 17  2  0
 13 14  2  0
 13 12  1  0
 14 15  1  0
 15 16  2  0
 17 16  1  0
 18 19  2  0
 18 10  1  0
 20 18  1  0
 21 20  1  0
 21 22  1  1
 22 23  1  0
 23 27  1  0
 23 24  2  0
 25 21  1  0
 26 25  1  0
 28 25  2  0
M  END
$$$$
