NFD.pdb
     RDKit          3D

 28 28  0  0  1  0  0  0  0  0999 V2000
   23.2555  -12.1809  -21.1499 N   0  0  0  0  0  0  0  0  0  0  0  0
   22.0853  -11.6194  -20.6039 C   0  0  0  0  0  0  0  0  0  0  0  0
   21.1357  -11.3341  -21.3567 O   0  0  0  0  0  0  0  0  0  0  0  0
   21.9747  -11.3681  -19.1598 C   0  0  0  0  0  0  0  0  0  0  0  0
   23.2679  -11.8693  -18.5407 C   0  0  2  0  0  0  0  0  0  0  0  0
   23.1089  -13.2948  -18.3625 N   0  0  0  0  0  0  0  0  0  0  0  0
   23.5719  -11.2573  -17.2365 C   0  0  0  0  0  0  0  0  0  0  0  0
   22.9891  -11.7073  -16.1920 O   0  0  0  0  0  0  0  0  0  0  0  0
   24.4904  -10.1917  -17.1361 N   0  0  0  0  0  0  0  0  0  0  0  0
   24.7883   -9.5412  -15.8847 C   0  0  1  0  0  0  0  0  0  0  0  0
   26.3076   -9.2914  -15.8986 C   0  0  0  0  0  0  0  0  0  0  0  0
   27.0579  -10.5616  -15.9848 C   0  0  0  0  0  0  0  0  0  0  0  0
   27.0965  -11.4038  -14.8747 C   0  0  0  0  0  0  0  0  0  0  0  0
   27.7761  -12.6030  -14.8781 C   0  0  0  0  0  0  0  0  0  0  0  0
   28.4320  -12.9521  -16.0413 C   0  0  0  0  0  0  0  0  0  0  0  0
   28.3919  -12.1124  -17.1440 C   0  0  0  0  0  0  0  0  0  0  0  0
   27.7132  -10.9198  -17.1337 C   0  0  0  0  0  0  0  0  0  0  0  0
   24.1646   -8.1715  -15.9431 C   0  0  0  0  0  0  0  0  0  0  0  0
   24.2527   -7.3796  -14.9415 O   0  0  0  0  0  0  0  0  0  0  0  0
   23.4687   -7.7268  -17.0956 N   0  0  0  0  0  0  0  0  0  0  0  0
   22.8102   -6.3999  -17.0498 C   0  0  1  0  0  0  0  0  0  0  0  0
   22.5285   -5.9109  -18.4268 C   0  0  0  0  0  0  0  0  0  0  0  0
   21.8200   -4.6281  -18.3962 C   0  0  0  0  0  0  0  0  0  0  0  0
   22.2588   -3.6771  -17.7177 O   0  0  0  0  0  0  0  0  0  0  0  0
   21.5268   -6.6300  -16.2860 C   0  0  0  0  0  0  0  0  0  0  0  0
   20.7934   -7.7867  -16.3448 O   0  0  0  0  0  0  0  0  0  0  0  0
   20.6540   -4.4544  -19.1190 O   0  0  0  0  0  0  0  0  0  0  0  0
   21.0612   -5.7177  -15.5286 O   0  0  0  0  0  0  0  0  0  0  0  0
  1  2  1  0
  2  3  2  0
  4  5  1  0
  4  2  1  0
  5  7  1  0
  5  6  1  1
  7  8  2  0
  9 10  1  0
  9  7  1  0
 10 11  1  6
 11 12  1  0
 12 17  2  0
 13 14  2  0
 13 12  1  0
 14 15  1  0
 15 16  2  0
 17 16  1  0
 18 19  2  0
 18 10  1  0
 20 18  1  0
 21 20  1  0
 21 22  1  6
 22 23  1  0
 23 27  1  0
 23 24  2  0
 25 21  1  0
 26 25  1  0
 28 25  2  0
M  END
$$$$
