NFD.pdb
     RDKit          3D

 28 28  0  0  1  0  0  0  0  0999 V2000
   38.5239  -26.3493    3.1102 N   0  0  0  0  0  0  0  0  0  0  0  0
   38.3037  -26.8134    4.4213 C   0  0  0  0  0  0  0  0  0  0  0  0
   38.4136  -28.0292    4.6656 O   0  0  0  0  0  0  0  0  0  0  0  0
   37.9471  -25.8802    5.4996 C   0  0  0  0  0  0  0  0  0  0  0  0
   37.9714  -24.4913    4.8852 C   0  0  2  0  0  0  0  0  0  0  0  0
   39.3600  -24.0942    4.8298 N   0  0  0  0  0  0  0  0  0  0  0  0
   37.2206  -23.4909    5.6621 C   0  0  0  0  0  0  0  0  0  0  0  0
   37.7508  -23.0034    6.7177 O   0  0  0  0  0  0  0  0  0  0  0  0
   35.9369  -23.0742    5.2524 N   0  0  0  0  0  0  0  0  0  0  0  0
   35.1555  -22.1228    6.0020 C   0  0  1  0  0  0  0  0  0  0  0  0
   34.0578  -21.6366    5.0379 C   0  0  0  0  0  0  0  0  0  0  0  0
   33.1608  -20.6636    5.6955 C   0  0  0  0  0  0  0  0  0  0  0  0
   31.7911  -20.9199    5.7319 C   0  0  0  0  0  0  0  0  0  0  0  0
   30.8921  -20.0599    6.3251 C   0  0  0  0  0  0  0  0  0  0  0  0
   31.4017  -18.9108    6.8952 C   0  0  0  0  0  0  0  0  0  0  0  0
   32.7646  -18.6584    6.8576 C   0  0  0  0  0  0  0  0  0  0  0  0
   33.6542  -19.5192    6.2653 C   0  0  0  0  0  0  0  0  0  0  0  0
   34.4266  -22.8973    7.0685 C   0  0  0  0  0  0  0  0  0  0  0  0
   33.9232  -24.0436    6.8025 O   0  0  0  0  0  0  0  0  0  0  0  0
   34.2778  -22.3832    8.3814 N   0  0  0  0  0  0  0  0  0  0  0  0
   33.6867  -23.2631    9.4172 C   0  0  1  0  0  0  0  0  0  0  0  0
   34.5764  -23.3354   10.6080 C   0  0  0  0  0  0  0  0  0  0  0  0
   33.9684  -24.1391   11.6723 C   0  0  0  0  0  0  0  0  0  0  0  0
   32.8367  -24.6424   11.5195 O   0  0  0  0  0  0  0  0  0  0  0  0
   32.3669  -22.6165    9.7684 C   0  0  0  0  0  0  0  0  0  0  0  0
   31.9734  -21.3807    9.3242 O   0  0  0  0  0  0  0  0  0  0  0  0
   34.6411  -24.3502   12.8619 O   0  0  0  0  0  0  0  0  0  0  0  0
   31.5384  -23.2230   10.5222 O   0  0  0  0  0  0  0  0  0  0  0  0
  1  2  1  0
  2  3  2  0
  4  5  1  0
  4  2  1  0
  5  7  1  0
  5  6  1  1
  7  8  2  0
  9 10  1  0
  9  7  1  0
 10 11  1  6
 11 12  1  0
 12 17  2  0
 13 14  2  0
 13 12  1  0
 14 15  1  0
 15 16  2  0
 17 16  1  0
 18 19  2  0
 18 10  1  0
 20 18  1  0
 21 20  1  0
 21 22  1  1
 22 23  1  0
 23 27  1  0
 23 24  2  0
 25 21  1  0
 26 25  1  0
 28 25  2  0
M  END
$$$$
