NFD.pdb
     RDKit          3D

 28 28  0  0  1  0  0  0  0  0999 V2000
   27.8184  -21.0356  -20.4037 N   0  0  0  0  0  0  0  0  0  0  0  0
   27.4191  -20.6693  -19.1039 C   0  0  0  0  0  0  0  0  0  0  0  0
   27.4562  -19.4710  -18.7683 O   0  0  0  0  0  0  0  0  0  0  0  0
   26.9607  -21.6838  -18.1440 C   0  0  0  0  0  0  0  0  0  0  0  0
   27.8316  -21.5254  -16.9097 C   0  0  2  0  0  0  0  0  0  0  0  0
   28.8987  -22.4919  -17.0368 N   0  0  0  0  0  0  0  0  0  0  0  0
   27.1140  -21.7714  -15.6477 C   0  0  0  0  0  0  0  0  0  0  0  0
   26.6206  -22.9306  -15.4334 O   0  0  0  0  0  0  0  0  0  0  0  0
   26.9706  -20.7480  -14.6878 N   0  0  0  0  0  0  0  0  0  0  0  0
   26.2768  -20.9479  -13.4403 C   0  0  1  0  0  0  0  0  0  0  0  0
   26.7326  -19.7978  -12.5235 C   0  0  0  0  0  0  0  0  0  0  0  0
   26.9152  -20.2626  -11.1326 C   0  0  0  0  0  0  0  0  0  0  0  0
   28.1116  -20.8826  -10.7757 C   0  0  0  0  0  0  0  0  0  0  0  0
   28.3548  -21.3437   -9.4997 C   0  0  0  0  0  0  0  0  0  0  0  0
   27.3544  -21.1685   -8.5651 C   0  0  0  0  0  0  0  0  0  0  0  0
   26.1654  -20.5514   -8.9230 C   0  0  0  0  0  0  0  0  0  0  0  0
   25.9299  -20.0945  -10.1953 C   0  0  0  0  0  0  0  0  0  0  0  0
   24.8172  -20.6854  -13.7033 C   0  0  0  0  0  0  0  0  0  0  0  0
   24.4631  -19.7282  -14.4756 O   0  0  0  0  0  0  0  0  0  0  0  0
   23.8060  -21.4813  -13.1080 N   0  0  0  0  0  0  0  0  0  0  0  0
   22.3948  -21.2099  -13.4701 C   0  0  1  0  0  0  0  0  0  0  0  0
   21.6718  -22.4831  -13.7367 C   0  0  0  0  0  0  0  0  0  0  0  0
   20.2711  -22.2308  -14.0868 C   0  0  0  0  0  0  0  0  0  0  0  0
   19.9530  -21.2145  -14.7377 O   0  0  0  0  0  0  0  0  0  0  0  0
   21.8150  -20.5020  -12.2675 C   0  0  0  0  0  0  0  0  0  0  0  0
   22.5109  -20.2503  -11.1136 O   0  0  0  0  0  0  0  0  0  0  0  0
   19.2818  -23.1160  -13.6997 O   0  0  0  0  0  0  0  0  0  0  0  0
   20.6073  -20.0973  -12.2847 O   0  0  0  0  0  0  0  0  0  0  0  0
  1  2  1  0
  2  3  2  0
  4  5  1  0
  4  2  1  0
  5  7  1  0
  5  6  1  6
  7  8  2  0
  9 10  1  0
  9  7  1  0
 10 11  1  1
 11 12  1  0
 12 17  2  0
 13 14  2  0
 13 12  1  0
 14 15  1  0
 15 16  2  0
 17 16  1  0
 18 19  2  0
 18 10  1  0
 20 18  1  0
 21 20  1  0
 21 22  1  1
 22 23  1  0
 23 27  1  0
 23 24  2  0
 25 21  1  0
 26 25  1  0
 28 25  2  0
M  END
$$$$
