NFD.pdb
     RDKit          3D

 28 28  0  0  1  0  0  0  0  0999 V2000
   17.5357  -10.4702  -16.5237 N   0  0  0  0  0  0  0  0  0  0  0  0
   16.8332  -10.2681  -15.3201 C   0  0  0  0  0  0  0  0  0  0  0  0
   16.0724  -11.1593  -14.8997 O   0  0  0  0  0  0  0  0  0  0  0  0
   16.9892   -9.0205  -14.5585 C   0  0  0  0  0  0  0  0  0  0  0  0
   18.2077   -9.2127  -13.6724 C   0  0  2  0  0  0  0  0  0  0  0  0
   17.8171  -10.1441  -12.6384 N   0  0  0  0  0  0  0  0  0  0  0  0
   18.6777   -7.9688  -13.0401 C   0  0  0  0  0  0  0  0  0  0  0  0
   18.0138   -7.4840  -12.0616 O   0  0  0  0  0  0  0  0  0  0  0  0
   19.8408   -7.3190  -13.5029 N   0  0  0  0  0  0  0  0  0  0  0  0
   20.3118   -6.0791  -12.9384 C   0  0  1  0  0  0  0  0  0  0  0  0
   21.7520   -6.3575  -12.4701 C   0  0  0  0  0  0  0  0  0  0  0  0
   22.5226   -7.0749  -13.5071 C   0  0  0  0  0  0  0  0  0  0  0  0
   22.6300   -8.4627  -13.4345 C   0  0  0  0  0  0  0  0  0  0  0  0
   23.3325   -9.2008  -14.3627 C   0  0  0  0  0  0  0  0  0  0  0  0
   23.9399   -8.5073  -15.3899 C   0  0  0  0  0  0  0  0  0  0  0  0
   23.8313   -7.1267  -15.4597 C   0  0  0  0  0  0  0  0  0  0  0  0
   23.1302   -6.3981  -14.5321 C   0  0  0  0  0  0  0  0  0  0  0  0
   20.4510   -5.1035  -14.0775 C   0  0  0  0  0  0  0  0  0  0  0  0
   20.5440   -5.5273  -15.2815 O   0  0  0  0  0  0  0  0  0  0  0  0
   20.4844   -3.7044  -13.8500 N   0  0  0  0  0  0  0  0  0  0  0  0
   20.5696   -2.8041  -15.0241 C   0  0  1  0  0  0  0  0  0  0  0  0
   19.5532   -1.7216  -14.9247 C   0  0  0  0  0  0  0  0  0  0  0  0
   19.6028   -0.8425  -16.0964 C   0  0  0  0  0  0  0  0  0  0  0  0
   19.8962   -1.2992  -17.2202 O   0  0  0  0  0  0  0  0  0  0  0  0
   21.9691   -2.2361  -14.9766 C   0  0  0  0  0  0  0  0  0  0  0  0
   22.7936   -2.1300  -16.0666 O   0  0  0  0  0  0  0  0  0  0  0  0
   19.3255    0.5065  -15.9723 O   0  0  0  0  0  0  0  0  0  0  0  0
   22.4524   -1.8184  -13.8745 O   0  0  0  0  0  0  0  0  0  0  0  0
  1  2  1  0
  2  3  2  0
  4  5  1  0
  4  2  1  0
  5  7  1  0
  5  6  1  1
  7  8  2  0
  9 10  1  0
  9  7  1  0
 10 11  1  6
 11 12  1  0
 12 17  2  0
 13 14  2  0
 13 12  1  0
 14 15  1  0
 15 16  2  0
 17 16  1  0
 18 19  2  0
 18 10  1  0
 20 18  1  0
 21 20  1  0
 21 22  1  1
 22 23  1  0
 23 27  1  0
 23 24  2  0
 25 21  1  0
 26 25  1  0
 28 25  2  0
M  END
$$$$
