LRM.pdb
     RDKit          3D

 28 27  0  0  1  0  0  0  0  0999 V2000
   28.5119  -21.8864  -16.6702 C   0  0  0  0  0  0  0  0  0  0  0  0
   28.6850  -20.6483  -15.7929 C   0  0  2  0  0  0  0  0  0  0  0  0
   29.3980  -21.0436  -14.5185 C   0  0  0  0  0  0  0  0  0  0  0  0
   27.3095  -20.0966  -15.5499 C   0  0  0  0  0  0  0  0  0  0  0  0
   26.6526  -19.6589  -16.8431 C   0  0  2  0  0  0  0  0  0  0  0  0
   27.3193  -18.4939  -17.3946 N   0  0  0  0  0  0  0  0  0  0  0  0
   25.2218  -19.3082  -16.6101 C   0  0  0  0  0  0  0  0  0  0  0  0
   24.9233  -18.1406  -16.2003 O   0  0  0  0  0  0  0  0  0  0  0  0
   18.9354  -23.1777  -17.9187 N   0  0  0  0  0  0  0  0  0  0  0  0
   18.0925  -22.0161  -18.0076 C   0  0  0  0  0  0  0  0  0  0  0  0
   16.8845  -22.1251  -17.5825 N   0  0  0  0  0  0  0  0  0  0  0  0
   18.6113  -20.8230  -18.5488 N   0  0  0  0  0  0  0  0  0  0  0  0
   19.9969  -20.7121  -18.9228 C   0  0  0  0  0  0  0  0  0  0  0  0
   20.8872  -20.8607  -17.6835 C   0  0  0  0  0  0  0  0  0  0  0  0
   21.8780  -19.7297  -17.5900 C   0  0  0  0  0  0  0  0  0  0  0  0
   22.8212  -19.8387  -16.4125 C   0  0  2  0  0  0  0  0  0  0  0  0
   24.1464  -20.2051  -16.8186 N   0  0  0  0  0  0  0  0  0  0  0  0
   22.3037  -20.7841  -15.3597 C   0  0  0  0  0  0  0  0  0  0  0  0
   22.2451  -22.0196  -15.5763 O   0  0  0  0  0  0  0  0  0  0  0  0
   16.2045  -21.3491  -17.6494 C   0  0  0  0  0  0  0  0  0  0  0  0
   23.0211  -20.1771   -8.6125 S   0  0  0  0  0  0  0  0  0  0  0  0
   24.2071  -20.5237   -9.9544 C   0  0  0  0  0  0  0  0  0  0  0  0
   23.3889  -21.3036  -11.2995 C   0  0  0  0  0  0  0  0  0  0  0  0
   22.1613  -20.7610  -11.8350 C   0  0  2  0  0  0  0  0  0  0  0  0
   21.4799  -21.3176  -13.0425 N   0  0  0  0  0  0  0  0  0  0  0  0
   21.8757  -20.3175  -14.1159 C   0  0  0  0  0  0  0  0  0  0  0  0
   19.9933  -21.0895  -13.0448 O   0  0  0  0  0  0  0  0  0  0  0  0
   19.0639  -21.9815  -12.6862 O   0  0  0  0  0  0  0  0  0  0  0  0
  2  1  1  6
  2  3  1  0
  4  2  1  0
  5  4  1  0
  5  6  1  1
  7  5  1  0
  7  8  2  0
  9 10  1  0
 10 11  2  0
 12 10  1  0
 12 13  1  0
 13 14  1  0
 15 14  1  0
 16 15  1  6
 16 17  1  0
 17  7  1  0
 18 25  1  0
 18 16  1  0
 19 18  2  0
 20 21  1  0
 21 22  1  0
 22 23  1  0
 24 23  1  6
 24 25  1  0
 24 26  1  0
 26 27  1  0
 28 26  2  0
M  END
$$$$
