LRM.pdb
     RDKit          3D

 28 27  0  0  1  0  0  0  0  0999 V2000
   33.4634  -21.9748  -11.2773 C   0  0  0  0  0  0  0  0  0  0  0  0
   32.3383  -22.2159  -10.2730 C   0  0  2  0  0  0  0  0  0  0  0  0
   31.7994  -23.6165  -10.4641 C   0  0  0  0  0  0  0  0  0  0  0  0
   31.3076  -21.1511  -10.5167 C   0  0  0  0  0  0  0  0  0  0  0  0
   30.8491  -21.1454  -11.9608 C   0  0  2  0  0  0  0  0  0  0  0  0
   31.6482  -20.2305  -12.7546 N   0  0  0  0  0  0  0  0  0  0  0  0
   29.4232  -20.7180  -12.0548 C   0  0  0  0  0  0  0  0  0  0  0  0
   29.0950  -19.5485  -11.6743 O   0  0  0  0  0  0  0  0  0  0  0  0
   24.0374  -24.5666  -13.7473 N   0  0  0  0  0  0  0  0  0  0  0  0
   22.8089  -23.8388  -13.5775 C   0  0  0  0  0  0  0  0  0  0  0  0
   21.8269  -24.4531  -13.0204 N   0  0  0  0  0  0  0  0  0  0  0  0
   22.7270  -22.5040  -14.0212 N   0  0  0  0  0  0  0  0  0  0  0  0
   23.8738  -21.8251  -14.5651 C   0  0  0  0  0  0  0  0  0  0  0  0
   24.7084  -21.2170  -13.4317 C   0  0  0  0  0  0  0  0  0  0  0  0
   26.1488  -21.6480  -13.5288 C   0  0  0  0  0  0  0  0  0  0  0  0
   27.0174  -21.1370  -12.4009 C   0  0  2  0  0  0  0  0  0  0  0  0
   28.3844  -21.5423  -12.5505 N   0  0  0  0  0  0  0  0  0  0  0  0
   26.4846  -21.5397  -11.0504 C   0  0  0  0  0  0  0  0  0  0  0  0
   26.7627  -22.6602  -10.5564 O   0  0  0  0  0  0  0  0  0  0  0  0
   20.9057  -24.0055  -12.8787 C   0  0  0  0  0  0  0  0  0  0  0  0
   28.8408  -19.6504   -6.0544 S   0  0  0  0  0  0  0  0  0  0  0  0
   27.1059  -19.2659   -5.6426 C   0  0  0  0  0  0  0  0  0  0  0  0
   26.0208  -20.2565   -6.6059 C   0  0  0  0  0  0  0  0  0  0  0  0
   26.1007  -20.2546   -8.0488 C   0  0  1  0  0  0  0  0  0  0  0  0
   25.2250  -21.0982   -8.9170 N   0  0  0  0  0  0  0  0  0  0  0  0
   25.6692  -20.6828  -10.3096 C   0  0  0  0  0  0  0  0  0  0  0  0
   23.8008  -20.6180   -8.9710 O   0  0  0  0  0  0  0  0  0  0  0  0
   22.8182  -20.9871   -8.1425 O   0  0  0  0  0  0  0  0  0  0  0  0
  2  1  1  6
  2  3  1  0
  4  2  1  0
  5  4  1  0
  5  6  1  6
  7  5  1  0
  7  8  2  0
  9 10  1  0
 10 11  2  0
 12 10  1  0
 12 13  1  0
 13 14  1  0
 15 14  1  0
 16 15  1  6
 16 17  1  0
 17  7  1  0
 18 25  1  0
 18 16  1  0
 19 18  2  0
 20 21  1  0
 21 22  1  0
 22 23  1  0
 24 23  1  1
 24 25  1  0
 24 26  1  0
 26 27  1  0
 28 26  2  0
M  END
$$$$
