LRM.pdb
     RDKit          3D

 28 27  0  0  1  0  0  0  0  0999 V2000
   19.1223  -20.2878  -17.4403 C   0  0  0  0  0  0  0  0  0  0  0  0
   18.4000  -19.2194  -16.6220 C   0  0  2  0  0  0  0  0  0  0  0  0
   17.5808  -18.3549  -17.5549 C   0  0  0  0  0  0  0  0  0  0  0  0
   19.4597  -18.4502  -15.8866 C   0  0  0  0  0  0  0  0  0  0  0  0
   20.3599  -19.3722  -15.0898 C   0  0  2  0  0  0  0  0  0  0  0  0
   19.7193  -19.7809  -13.8535 N   0  0  0  0  0  0  0  0  0  0  0  0
   21.6383  -18.6855  -14.7454 C   0  0  0  0  0  0  0  0  0  0  0  0
   21.6260  -17.7235  -13.9119 O   0  0  0  0  0  0  0  0  0  0  0  0
   28.8447  -21.6367  -11.9759 N   0  0  0  0  0  0  0  0  0  0  0  0
   27.4156  -21.7278  -12.1077 C   0  0  0  0  0  0  0  0  0  0  0  0
   26.8384  -22.7633  -11.6113 N   0  0  0  0  0  0  0  0  0  0  0  0
   26.7132  -20.6985  -12.7654 N   0  0  0  0  0  0  0  0  0  0  0  0
   27.3982  -19.5565  -13.3119 C   0  0  0  0  0  0  0  0  0  0  0  0
   26.3817  -18.5576  -13.8773 C   0  0  0  0  0  0  0  0  0  0  0  0
   25.1049  -19.2512  -14.2752 C   0  0  0  0  0  0  0  0  0  0  0  0
   24.0747  -18.3303  -14.8904 C   0  0  2  0  0  0  0  0  0  0  0  0
   22.8950  -19.0380  -15.2937 N   0  0  0  0  0  0  0  0  0  0  0  0
   24.6409  -17.5359  -16.0386 C   0  0  0  0  0  0  0  0  0  0  0  0
   24.7572  -18.0468  -17.1798 O   0  0  0  0  0  0  0  0  0  0  0  0
   25.8122  -22.8874  -11.6364 C   0  0  0  0  0  0  0  0  0  0  0  0
   26.0062  -11.3231  -14.9494 S   0  0  0  0  0  0  0  0  0  0  0  0
   27.0822  -11.5801  -16.3998 C   0  0  0  0  0  0  0  0  0  0  0  0
   26.7151  -13.1204  -17.1610 C   0  0  0  0  0  0  0  0  0  0  0  0
   26.0020  -14.1510  -16.4414 C   0  0  1  0  0  0  0  0  0  0  0  0
   25.5702  -15.4364  -17.0687 N   0  0  0  0  0  0  0  0  0  0  0  0
   25.0514  -16.2126  -15.8699 C   0  0  0  0  0  0  0  0  0  0  0  0
   26.7196  -16.3291  -17.4478 O   0  0  0  0  0  0  0  0  0  0  0  0
   27.3957  -17.1301  -16.6175 O   0  0  0  0  0  0  0  0  0  0  0  0
  2  1  1  6
  2  3  1  0
  4  2  1  0
  5  4  1  0
  5  6  1  1
  7  5  1  0
  7  8  2  0
  9 10  1  0
 10 11  2  0
 12 10  1  0
 12 13  1  0
 13 14  1  0
 15 14  1  0
 16 15  1  6
 16 17  1  0
 17  7  1  0
 18 25  1  0
 18 16  1  0
 19 18  2  0
 20 21  1  0
 21 22  1  0
 22 23  1  0
 24 23  1  6
 24 25  1  0
 24 26  1  0
 26 27  1  0
 28 26  2  0
M  END
$$$$
