LRM.pdb
     RDKit          3D

 28 27  0  0  1  0  0  0  0  0999 V2000
   18.6233  -20.3499  -10.0220 C   0  0  0  0  0  0  0  0  0  0  0  0
   20.1460  -20.3599   -9.9033 C   0  0  2  0  0  0  0  0  0  0  0  0
   20.5310  -20.0278   -8.4784 C   0  0  0  0  0  0  0  0  0  0  0  0
   20.6626  -19.3619  -10.8995 C   0  0  0  0  0  0  0  0  0  0  0  0
   20.2550  -19.7285  -12.3120 C   0  0  2  0  0  0  0  0  0  0  0  0
   20.3714  -21.1584  -12.5304 N   0  0  0  0  0  0  0  0  0  0  0  0
   21.1261  -19.0348  -13.3042 C   0  0  0  0  0  0  0  0  0  0  0  0
   21.2933  -17.7760  -13.2167 O   0  0  0  0  0  0  0  0  0  0  0  0
   26.5811  -22.7706  -17.0732 N   0  0  0  0  0  0  0  0  0  0  0  0
   25.5968  -22.3654  -18.0400 C   0  0  0  0  0  0  0  0  0  0  0  0
   25.1142  -23.2726  -18.8121 N   0  0  0  0  0  0  0  0  0  0  0  0
   25.2053  -21.0134  -18.1057 N   0  0  0  0  0  0  0  0  0  0  0  0
   25.7999  -20.0203  -17.2502 C   0  0  0  0  0  0  0  0  0  0  0  0
   24.7164  -19.0822  -16.7053 C   0  0  0  0  0  0  0  0  0  0  0  0
   23.7407  -19.8303  -15.8346 C   0  0  0  0  0  0  0  0  0  0  0  0
   22.6654  -18.9552  -15.2297 C   0  0  2  0  0  0  0  0  0  0  0  0
   21.7966  -19.6951  -14.3619 N   0  0  0  0  0  0  0  0  0  0  0  0
   21.8737  -18.2237  -16.2823 C   0  0  0  0  0  0  0  0  0  0  0  0
   20.9491  -18.7985  -16.9082 O   0  0  0  0  0  0  0  0  0  0  0  0
   24.5582  -23.0422  -19.6528 C   0  0  0  0  0  0  0  0  0  0  0  0
   21.3395  -19.4693  -21.0343 S   0  0  0  0  0  0  0  0  0  0  0  0
   19.9172  -18.3330  -20.9197 C   0  0  0  0  0  0  0  0  0  0  0  0
   20.2884  -17.0056  -19.8303 C   0  0  0  0  0  0  0  0  0  0  0  0
   20.9035  -17.2513  -18.5459 C   0  0  2  0  0  0  0  0  0  0  0  0
   21.2486  -16.1622  -17.5832 N   0  0  0  0  0  0  0  0  0  0  0  0
   22.1423  -16.8897  -16.5927 C   0  0  0  0  0  0  0  0  0  0  0  0
   20.1169  -15.8034  -16.6600 O   0  0  0  0  0  0  0  0  0  0  0  0
   19.5118  -14.6130  -16.5890 O   0  0  0  0  0  0  0  0  0  0  0  0
  2  1  1  1
  2  3  1  0
  4  2  1  0
  5  4  1  0
  5  6  1  1
  7  5  1  0
  7  8  2  0
  9 10  1  0
 10 11  2  0
 12 10  1  0
 12 13  1  0
 13 14  1  0
 15 14  1  0
 16 15  1  6
 16 17  1  0
 17  7  1  0
 18 25  1  0
 18 16  1  0
 19 18  2  0
 20 21  1  0
 21 22  1  0
 22 23  1  0
 24 23  1  6
 24 25  1  0
 24 26  1  0
 26 27  1  0
 28 26  2  0
M  END
$$$$
