LRM.pdb
     RDKit          3D

 28 27  0  0  1  0  0  0  0  0999 V2000
   10.4713  -21.5540   -6.9605 C   0  0  0  0  0  0  0  0  0  0  0  0
   11.8881  -21.1831   -6.5270 C   0  0  2  0  0  0  0  0  0  0  0  0
   12.8782  -21.8593   -7.4497 C   0  0  0  0  0  0  0  0  0  0  0  0
   12.0282  -21.6161   -5.0958 C   0  0  0  0  0  0  0  0  0  0  0  0
   13.3931  -21.2620   -4.5417 C   0  0  2  0  0  0  0  0  0  0  0  0
   14.4428  -21.9481   -5.2721 N   0  0  0  0  0  0  0  0  0  0  0  0
   13.4929  -21.6552   -3.1064 C   0  0  0  0  0  0  0  0  0  0  0  0
   12.6041  -21.2577   -2.2864 O   0  0  0  0  0  0  0  0  0  0  0  0
   16.2193  -28.7317    0.7475 N   0  0  0  0  0  0  0  0  0  0  0  0
   14.8769  -28.2338    0.8805 C   0  0  0  0  0  0  0  0  0  0  0  0
   13.9400  -29.0941    1.0656 N   0  0  0  0  0  0  0  0  0  0  0  0
   14.6412  -26.8468    0.8031 N   0  0  0  0  0  0  0  0  0  0  0  0
   15.7286  -25.9045    0.7646 C   0  0  0  0  0  0  0  0  0  0  0  0
   15.1847  -24.4855    0.5610 C   0  0  0  0  0  0  0  0  0  0  0  0
   15.1029  -24.1422   -0.9037 C   0  0  0  0  0  0  0  0  0  0  0  0
   14.5671  -22.7544   -1.1774 C   0  0  2  0  0  0  0  0  0  0  0  0
   14.5320  -22.4598   -2.5801 N   0  0  0  0  0  0  0  0  0  0  0  0
   15.3322  -21.6952   -0.4273 C   0  0  0  0  0  0  0  0  0  0  0  0
   16.4621  -21.3155   -0.8224 O   0  0  0  0  0  0  0  0  0  0  0  0
   12.9509  -28.8158    1.1803 C   0  0  0  0  0  0  0  0  0  0  0  0
   12.2623  -17.3622    3.7572 S   0  0  0  0  0  0  0  0  0  0  0  0
   13.5785  -16.6073    2.7447 C   0  0  0  0  0  0  0  0  0  0  0  0
   14.8535  -17.7767    2.4389 C   0  0  0  0  0  0  0  0  0  0  0  0
   14.5644  -19.0353    1.7903 C   0  0  2  0  0  0  0  0  0  0  0  0
   15.6171  -20.0374    1.4444 N   0  0  0  0  0  0  0  0  0  0  0  0
   14.8104  -21.1054    0.7250 C   0  0  0  0  0  0  0  0  0  0  0  0
   16.0791  -20.8466    2.6249 O   0  0  0  0  0  0  0  0  0  0  0  0
   17.1001  -20.5406    3.4325 O   0  0  0  0  0  0  0  0  0  0  0  0
  2  1  1  6
  2  3  1  0
  4  2  1  0
  5  4  1  0
  5  6  1  6
  7  5  1  0
  7  8  2  0
  9 10  1  0
 10 11  2  0
 12 10  1  0
 12 13  1  0
 13 14  1  0
 15 14  1  0
 16 15  1  6
 16 17  1  0
 17  7  1  0
 18 25  1  0
 18 16  1  0
 19 18  2  0
 20 21  1  0
 21 22  1  0
 22 23  1  0
 24 23  1  6
 24 25  1  0
 24 26  1  0
 26 27  1  0
 28 26  2  0
M  END
$$$$
