LRM.pdb
     RDKit          3D

 28 27  0  0  1  0  0  0  0  0999 V2000
   20.0550  -24.3508  -10.0320 C   0  0  0  0  0  0  0  0  0  0  0  0
   18.8211  -23.4643   -9.8759 C   0  0  2  0  0  0  0  0  0  0  0  0
   19.2645  -22.0262   -9.7208 C   0  0  0  0  0  0  0  0  0  0  0  0
   18.0687  -23.9793   -8.6825 C   0  0  0  0  0  0  0  0  0  0  0  0
   17.7881  -25.4632   -8.8037 C   0  0  2  0  0  0  0  0  0  0  0  0
   16.9581  -25.7409   -9.9612 N   0  0  0  0  0  0  0  0  0  0  0  0
   17.0761  -25.9613   -7.5915 C   0  0  0  0  0  0  0  0  0  0  0  0
   15.8571  -25.6438   -7.4081 O   0  0  0  0  0  0  0  0  0  0  0  0
   18.2097  -33.3787   -4.1943 N   0  0  0  0  0  0  0  0  0  0  0  0
   18.9158  -32.1317   -4.0746 C   0  0  0  0  0  0  0  0  0  0  0  0
   20.0397  -32.1433   -3.4513 N   0  0  0  0  0  0  0  0  0  0  0  0
   18.3597  -30.9638   -4.6334 N   0  0  0  0  0  0  0  0  0  0  0  0
   17.1463  -31.0093   -5.4064 C   0  0  0  0  0  0  0  0  0  0  0  0
   16.8112  -29.6105   -5.9373 C   0  0  0  0  0  0  0  0  0  0  0  0
   17.2513  -28.5440   -4.9684 C   0  0  0  0  0  0  0  0  0  0  0  0
   16.9426  -27.1361   -5.4269 C   0  0  2  0  0  0  0  0  0  0  0  0
   17.6760  -26.7831   -6.6071 N   0  0  0  0  0  0  0  0  0  0  0  0
   17.1680  -26.1237   -4.3341 C   0  0  0  0  0  0  0  0  0  0  0  0
   18.3235  -25.7107   -4.0673 O   0  0  0  0  0  0  0  0  0  0  0  0
   20.5814  -31.2803   -3.2753 C   0  0  0  0  0  0  0  0  0  0  0  0
   12.7856  -21.3570   -1.5922 S   0  0  0  0  0  0  0  0  0  0  0  0
   12.8420  -22.3596   -3.1150 C   0  0  0  0  0  0  0  0  0  0  0  0
   14.4526  -23.0229   -3.3442 C   0  0  0  0  0  0  0  0  0  0  0  0
   15.0258  -23.9282   -2.3746 C   0  0  2  0  0  0  0  0  0  0  0  0
   16.3734  -24.5526   -2.5360 N   0  0  0  0  0  0  0  0  0  0  0  0
   16.1036  -25.6153   -3.5881 C   0  0  0  0  0  0  0  0  0  0  0  0
   16.7555  -25.4479   -1.3896 O   0  0  0  0  0  0  0  0  0  0  0  0
   17.4410  -25.0784   -0.3025 O   0  0  0  0  0  0  0  0  0  0  0  0
  2  1  1  1
  2  3  1  0
  4  2  1  0
  5  4  1  0
  5  6  1  6
  7  5  1  0
  7  8  2  0
  9 10  1  0
 10 11  2  0
 12 10  1  0
 12 13  1  0
 13 14  1  0
 15 14  1  0
 16 15  1  1
 16 17  1  0
 17  7  1  0
 18 25  1  0
 18 16  1  0
 19 18  2  0
 20 21  1  0
 21 22  1  0
 22 23  1  0
 24 23  1  6
 24 25  1  0
 24 26  1  0
 26 27  1  0
 28 26  2  0
M  END
$$$$
