LRM.pdb
     RDKit          3D

 28 27  0  0  1  0  0  0  0  0999 V2000
   19.0043  -24.9444   -7.6794 C   0  0  0  0  0  0  0  0  0  0  0  0
   17.5599  -24.5869   -7.3350 C   0  0  2  0  0  0  0  0  0  0  0  0
   17.3881  -23.0868   -7.4294 C   0  0  0  0  0  0  0  0  0  0  0  0
   17.3003  -25.1226   -5.9562 C   0  0  0  0  0  0  0  0  0  0  0  0
   17.4935  -26.6242   -5.9008 C   0  0  2  0  0  0  0  0  0  0  0  0
   16.4439  -27.3091   -6.6324 N   0  0  0  0  0  0  0  0  0  0  0  0
   17.4637  -27.1034   -4.4886 C   0  0  0  0  0  0  0  0  0  0  0  0
   16.4087  -26.9400   -3.7954 O   0  0  0  0  0  0  0  0  0  0  0  0
   22.3848  -33.5028   -1.5707 N   0  0  0  0  0  0  0  0  0  0  0  0
   21.2026  -33.7896   -2.3375 C   0  0  0  0  0  0  0  0  0  0  0  0
   21.0228  -35.0035   -2.7198 N   0  0  0  0  0  0  0  0  0  0  0  0
   20.3015  -32.7487   -2.6376 N   0  0  0  0  0  0  0  0  0  0  0  0
   20.4971  -31.4188   -2.1228 C   0  0  0  0  0  0  0  0  0  0  0  0
   19.3914  -30.4901   -2.6384 C   0  0  0  0  0  0  0  0  0  0  0  0
   19.5476  -29.1000   -2.0790 C   0  0  0  0  0  0  0  0  0  0  0  0
   18.4401  -28.1512   -2.4806 C   0  0  2  0  0  0  0  0  0  0  0  0
   18.5534  -27.7434   -3.8504 N   0  0  0  0  0  0  0  0  0  0  0  0
   18.3646  -26.9531   -1.5702 C   0  0  0  0  0  0  0  0  0  0  0  0
   18.8971  -25.8631   -1.8948 O   0  0  0  0  0  0  0  0  0  0  0  0
   20.1917  -35.2932   -3.2623 C   0  0  0  0  0  0  0  0  0  0  0  0
   12.9029  -24.2283    1.5025 S   0  0  0  0  0  0  0  0  0  0  0  0
   14.1872  -23.4592    0.4603 C   0  0  0  0  0  0  0  0  0  0  0  0
   15.7731  -24.0733    0.9012 C   0  0  0  0  0  0  0  0  0  0  0  0
   16.3870  -25.1455    0.1517 C   0  0  1  0  0  0  0  0  0  0  0  0
   17.6741  -25.7899    0.5518 N   0  0  0  0  0  0  0  0  0  0  0  0
   17.7026  -27.0176   -0.3432 C   0  0  0  0  0  0  0  0  0  0  0  0
   17.6063  -26.4748    1.8890 O   0  0  0  0  0  0  0  0  0  0  0  0
   17.3850  -27.7781    2.0907 O   0  0  0  0  0  0  0  0  0  0  0  0
  2  1  1  1
  2  3  1  0
  4  2  1  0
  5  4  1  0
  5  6  1  6
  7  5  1  0
  7  8  2  0
  9 10  1  0
 10 11  2  0
 12 10  1  0
 12 13  1  0
 13 14  1  0
 15 14  1  0
 16 15  1  1
 16 17  1  0
 17  7  1  0
 18 25  1  0
 18 16  1  0
 19 18  2  0
 20 21  1  0
 21 22  1  0
 22 23  1  0
 24 23  1  6
 24 25  1  0
 24 26  1  0
 26 27  1  0
 28 26  2  0
M  END
$$$$
