LRM.pdb
     RDKit          3D

 28 27  0  0  1  0  0  0  0  0999 V2000
   24.8785  -17.4658  -18.6435 C   0  0  0  0  0  0  0  0  0  0  0  0
   25.3727  -18.8788  -18.9468 C   0  0  2  0  0  0  0  0  0  0  0  0
   24.5780  -19.4402  -20.1052 C   0  0  0  0  0  0  0  0  0  0  0  0
   25.2098  -19.6729  -17.6825 C   0  0  0  0  0  0  0  0  0  0  0  0
   25.9271  -19.0165  -16.5207 C   0  0  2  0  0  0  0  0  0  0  0  0
   27.3154  -18.7527  -16.8510 N   0  0  0  0  0  0  0  0  0  0  0  0
   25.8955  -19.9006  -15.3198 C   0  0  0  0  0  0  0  0  0  0  0  0
   24.7798  -20.3520  -14.9054 O   0  0  0  0  0  0  0  0  0  0  0  0
   32.8235  -22.8748  -11.2706 N   0  0  0  0  0  0  0  0  0  0  0  0
   31.8167  -22.2039  -10.4934 C   0  0  0  0  0  0  0  0  0  0  0  0
   31.9864  -22.1511   -9.2204 N   0  0  0  0  0  0  0  0  0  0  0  0
   30.7007  -21.6403  -11.1432 N   0  0  0  0  0  0  0  0  0  0  0  0
   30.6829  -21.4510  -12.5700 C   0  0  0  0  0  0  0  0  0  0  0  0
   29.3850  -20.7506  -12.9889 C   0  0  0  0  0  0  0  0  0  0  0  0
   28.2297  -21.7174  -13.0072 C   0  0  0  0  0  0  0  0  0  0  0  0
   26.9147  -21.0914  -13.4156 C   0  0  2  0  0  0  0  0  0  0  0  0
   27.0480  -20.2824  -14.5916 N   0  0  0  0  0  0  0  0  0  0  0  0
   26.2908  -20.3043  -12.2926 C   0  0  0  0  0  0  0  0  0  0  0  0
   26.5730  -19.0928  -12.1210 O   0  0  0  0  0  0  0  0  0  0  0  0
   31.3089  -21.6863   -8.5928 C   0  0  0  0  0  0  0  0  0  0  0  0
   20.3869  -20.6600  -11.5284 S   0  0  0  0  0  0  0  0  0  0  0  0
   20.6358  -19.8855   -9.8957 C   0  0  0  0  0  0  0  0  0  0  0  0
   22.3518  -19.6920   -9.5724 C   0  0  0  0  0  0  0  0  0  0  0  0
   23.3414  -20.2509  -10.4648 C   0  0  1  0  0  0  0  0  0  0  0  0
   24.8118  -20.0720  -10.2699 N   0  0  0  0  0  0  0  0  0  0  0  0
   25.3829  -20.8951  -11.4124 C   0  0  0  0  0  0  0  0  0  0  0  0
   25.3592  -20.8626   -9.1135 O   0  0  0  0  0  0  0  0  0  0  0  0
   25.5186  -20.4139   -7.8639 O   0  0  0  0  0  0  0  0  0  0  0  0
  2  1  1  1
  2  3  1  0
  4  2  1  0
  5  4  1  0
  5  6  1  6
  7  5  1  0
  7  8  2  0
  9 10  1  0
 10 11  2  0
 12 10  1  0
 12 13  1  0
 13 14  1  0
 15 14  1  0
 16 15  1  1
 16 17  1  0
 17  7  1  0
 18 25  1  0
 18 16  1  0
 19 18  2  0
 20 21  1  0
 21 22  1  0
 22 23  1  0
 24 23  1  6
 24 25  1  0
 24 26  1  0
 26 27  1  0
 28 26  2  0
M  END
$$$$
