LRM.pdb
     RDKit          3D

 28 27  0  0  1  0  0  0  0  0999 V2000
   19.6820  -28.6279   -9.1187 C   0  0  0  0  0  0  0  0  0  0  0  0
   18.5552  -27.6416   -8.8185 C   0  0  2  0  0  0  0  0  0  0  0  0
   17.3988  -27.9153   -9.7548 C   0  0  0  0  0  0  0  0  0  0  0  0
   19.1321  -26.2649   -8.9837 C   0  0  0  0  0  0  0  0  0  0  0  0
   18.0882  -25.1946   -8.7386 C   0  0  2  0  0  0  0  0  0  0  0  0
   18.4701  -23.9442   -9.3682 N   0  0  0  0  0  0  0  0  0  0  0  0
   17.9258  -24.9477   -7.2767 C   0  0  0  0  0  0  0  0  0  0  0  0
   18.8161  -24.2864   -6.6519 O   0  0  0  0  0  0  0  0  0  0  0  0
   13.2183  -21.2742   -6.1984 N   0  0  0  0  0  0  0  0  0  0  0  0
   12.4400  -22.4755   -6.0606 C   0  0  0  0  0  0  0  0  0  0  0  0
   11.5669  -22.7250   -6.9702 N   0  0  0  0  0  0  0  0  0  0  0  0
   12.6576  -23.3191   -4.9532 N   0  0  0  0  0  0  0  0  0  0  0  0
   13.7144  -23.0589   -4.0112 C   0  0  0  0  0  0  0  0  0  0  0  0
   15.0745  -23.3490   -4.6569 C   0  0  0  0  0  0  0  0  0  0  0  0
   15.3806  -24.8240   -4.6348 C   0  0  0  0  0  0  0  0  0  0  0  0
   16.7770  -25.1658   -5.1050 C   0  0  2  0  0  0  0  0  0  0  0  0
   16.8233  -25.4083   -6.5173 N   0  0  0  0  0  0  0  0  0  0  0  0
   17.3612  -26.3271   -4.3434 C   0  0  0  0  0  0  0  0  0  0  0  0
   17.1592  -27.5090   -4.7165 O   0  0  0  0  0  0  0  0  0  0  0  0
   10.9677  -23.5672   -6.9429 C   0  0  0  0  0  0  0  0  0  0  0  0
   23.1317  -27.7665    0.7712 S   0  0  0  0  0  0  0  0  0  0  0  0
   21.9050  -26.5817    0.1241 C   0  0  0  0  0  0  0  0  0  0  0  0
   20.7182  -27.4181   -0.8651 C   0  0  0  0  0  0  0  0  0  0  0  0
   19.6370  -26.6952   -1.4949 C   0  0  2  0  0  0  0  0  0  0  0  0
   18.6735  -27.3294   -2.4444 N   0  0  0  0  0  0  0  0  0  0  0  0
   18.1424  -26.1256   -3.2044 C   0  0  0  0  0  0  0  0  0  0  0  0
   17.3963  -27.7750   -1.7869 O   0  0  0  0  0  0  0  0  0  0  0  0
   16.4090  -26.9744   -1.3715 O   0  0  0  0  0  0  0  0  0  0  0  0
  2  1  1  6
  2  3  1  0
  4  2  1  0
  5  4  1  0
  5  6  1  6
  7  5  1  0
  7  8  2  0
  9 10  1  0
 10 11  2  0
 12 10  1  0
 12 13  1  0
 13 14  1  0
 15 14  1  0
 16 15  1  1
 16 17  1  0
 17  7  1  0
 18 25  1  0
 18 16  1  0
 19 18  2  0
 20 21  1  0
 21 22  1  0
 22 23  1  0
 24 23  1  6
 24 25  1  0
 24 26  1  0
 26 27  1  0
 28 26  2  0
M  END
$$$$
