LRM.pdb
     RDKit          3D

 28 27  0  0  1  0  0  0  0  0999 V2000
   18.4722  -11.8985    4.1454 C   0  0  0  0  0  0  0  0  0  0  0  0
   18.8803  -12.1365    5.5978 C   0  0  2  0  0  0  0  0  0  0  0  0
   20.3389  -11.7717    5.7656 C   0  0  0  0  0  0  0  0  0  0  0  0
   18.5981  -13.5817    5.8934 C   0  0  0  0  0  0  0  0  0  0  0  0
   17.1318  -13.9100    5.6993 C   0  0  2  0  0  0  0  0  0  0  0  0
   16.3196  -13.2791    6.7231 N   0  0  0  0  0  0  0  0  0  0  0  0
   16.9115  -15.3832    5.7742 C   0  0  0  0  0  0  0  0  0  0  0  0
   16.9094  -15.9578    6.9100 O   0  0  0  0  0  0  0  0  0  0  0  0
   16.9131  -22.5794    2.1760 N   0  0  0  0  0  0  0  0  0  0  0  0
   15.5974  -22.7907    2.7164 C   0  0  0  0  0  0  0  0  0  0  0  0
   15.3133  -23.9690    3.1441 N   0  0  0  0  0  0  0  0  0  0  0  0
   14.6838  -21.7187    2.7556 N   0  0  0  0  0  0  0  0  0  0  0  0
   15.1046  -20.3675    2.4927 C   0  0  0  0  0  0  0  0  0  0  0  0
   15.7613  -19.7710    3.7432 C   0  0  0  0  0  0  0  0  0  0  0  0
   15.9665  -18.2863    3.5909 C   0  0  0  0  0  0  0  0  0  0  0  0
   16.5855  -17.6270    4.8033 C   0  0  2  0  0  0  0  0  0  0  0  0
   16.6990  -16.2069    4.6425 N   0  0  0  0  0  0  0  0  0  0  0  0
   17.9184  -18.2335    5.1576 C   0  0  0  0  0  0  0  0  0  0  0  0
   18.9851  -17.7597    4.6944 O   0  0  0  0  0  0  0  0  0  0  0  0
   14.3680  -24.2208    3.4787 C   0  0  0  0  0  0  0  0  0  0  0  0
   22.3849  -16.3417    7.3526 S   0  0  0  0  0  0  0  0  0  0  0  0
   22.0354  -17.6241    8.6018 C   0  0  0  0  0  0  0  0  0  0  0  0
   21.2375  -18.9983    7.8524 C   0  0  0  0  0  0  0  0  0  0  0  0
   20.0140  -18.8263    7.1029 C   0  0  1  0  0  0  0  0  0  0  0  0
   19.3734  -19.9258    6.3202 N   0  0  0  0  0  0  0  0  0  0  0  0
   18.0081  -19.3360    6.0088 C   0  0  0  0  0  0  0  0  0  0  0  0
   18.9396  -21.0873    7.1714 O   0  0  0  0  0  0  0  0  0  0  0  0
   19.6521  -22.1940    7.4076 O   0  0  0  0  0  0  0  0  0  0  0  0
  2  1  1  6
  2  3  1  0
  4  2  1  0
  5  4  1  0
  5  6  1  1
  7  5  1  0
  7  8  2  0
  9 10  1  0
 10 11  2  0
 12 10  1  0
 12 13  1  0
 13 14  1  0
 15 14  1  0
 16 15  1  6
 16 17  1  0
 17  7  1  0
 18 25  1  0
 18 16  1  0
 19 18  2  0
 20 21  1  0
 21 22  1  0
 22 23  1  0
 24 23  1  6
 24 25  1  0
 24 26  1  0
 26 27  1  0
 28 26  2  0
M  END
$$$$
