LRM.pdb
     RDKit          3D

 28 27  0  0  1  0  0  0  0  0999 V2000
   33.0539  -24.1324  -11.1514 C   0  0  0  0  0  0  0  0  0  0  0  0
   33.2486  -22.7717  -11.8172 C   0  0  2  0  0  0  0  0  0  0  0  0
   34.6169  -22.2375  -11.4548 C   0  0  0  0  0  0  0  0  0  0  0  0
   32.1288  -21.8932  -11.3379 C   0  0  0  0  0  0  0  0  0  0  0  0
   30.7772  -22.4659  -11.7129 C   0  0  2  0  0  0  0  0  0  0  0  0
   30.6842  -22.6796  -13.1452 N   0  0  0  0  0  0  0  0  0  0  0  0
   29.6846  -21.5336  -11.3106 C   0  0  0  0  0  0  0  0  0  0  0  0
   29.6507  -21.0879  -10.1187 O   0  0  0  0  0  0  0  0  0  0  0  0
   28.4742  -17.7571  -17.0933 N   0  0  0  0  0  0  0  0  0  0  0  0
   27.5821  -18.8845  -17.0620 C   0  0  0  0  0  0  0  0  0  0  0  0
   27.6672  -19.7358  -18.0212 N   0  0  0  0  0  0  0  0  0  0  0  0
   26.6632  -19.0120  -16.0014 N   0  0  0  0  0  0  0  0  0  0  0  0
   26.7057  -18.1296  -14.8650 C   0  0  0  0  0  0  0  0  0  0  0  0
   27.6151  -18.7173  -13.7795 C   0  0  0  0  0  0  0  0  0  0  0  0
   26.8384  -19.6116  -12.8485 C   0  0  0  0  0  0  0  0  0  0  0  0
   27.6638  -20.1786  -11.7149 C   0  0  2  0  0  0  0  0  0  0  0  0
   28.6582  -21.0990  -12.1834 N   0  0  0  0  0  0  0  0  0  0  0  0
   26.8045  -20.8141  -10.6531 C   0  0  0  0  0  0  0  0  0  0  0  0
   26.4135  -22.0020  -10.7667 O   0  0  0  0  0  0  0  0  0  0  0  0
   27.0642  -20.5743  -18.0690 C   0  0  0  0  0  0  0  0  0  0  0  0
   27.8532  -18.2818   -5.3046 S   0  0  0  0  0  0  0  0  0  0  0  0
   27.2341  -19.9006   -4.7359 C   0  0  0  0  0  0  0  0  0  0  0  0
   26.5401  -20.7908   -6.0822 C   0  0  0  0  0  0  0  0  0  0  0  0
   25.9741  -20.0965   -7.2161 C   0  0  2  0  0  0  0  0  0  0  0  0
   25.5515  -20.7888   -8.4708 N   0  0  0  0  0  0  0  0  0  0  0  0
   26.4185  -20.1049   -9.5146 C   0  0  0  0  0  0  0  0  0  0  0  0
   24.1997  -20.3523   -8.9649 O   0  0  0  0  0  0  0  0  0  0  0  0
   23.0310  -20.9235   -8.6549 O   0  0  0  0  0  0  0  0  0  0  0  0
  2  1  1  1
  2  3  1  0
  4  2  1  0
  5  4  1  0
  5  6  1  6
  7  5  1  0
  7  8  2  0
  9 10  1  0
 10 11  2  0
 12 10  1  0
 12 13  1  0
 13 14  1  0
 15 14  1  0
 16 15  1  6
 16 17  1  0
 17  7  1  0
 18 25  1  0
 18 16  1  0
 19 18  2  0
 20 21  1  0
 21 22  1  0
 22 23  1  0
 24 23  1  1
 24 25  1  0
 24 26  1  0
 26 27  1  0
 28 26  2  0
M  END
$$$$
