LRM.pdb
     RDKit          3D

 28 27  0  0  1  0  0  0  0  0999 V2000
   29.5026  -23.8580  -16.6663 C   0  0  0  0  0  0  0  0  0  0  0  0
   28.3064  -24.0157  -17.6027 C   0  0  2  0  0  0  0  0  0  0  0  0
   28.7883  -23.9368  -19.0346 C   0  0  0  0  0  0  0  0  0  0  0  0
   27.3353  -22.9263  -17.2485 C   0  0  0  0  0  0  0  0  0  0  0  0
   26.7844  -23.1097  -15.8491 C   0  0  2  0  0  0  0  0  0  0  0  0
   26.7155  -24.5165  -15.4995 N   0  0  0  0  0  0  0  0  0  0  0  0
   25.4103  -22.5385  -15.7491 C   0  0  0  0  0  0  0  0  0  0  0  0
   25.1915  -21.3587  -16.1739 O   0  0  0  0  0  0  0  0  0  0  0  0
   20.0463  -26.3737  -12.5853 N   0  0  0  0  0  0  0  0  0  0  0  0
   19.7625  -25.1280  -11.9254 C   0  0  0  0  0  0  0  0  0  0  0  0
   19.5975  -25.1552  -10.6510 N   0  0  0  0  0  0  0  0  0  0  0  0
   19.6757  -23.9449  -12.6857 N   0  0  0  0  0  0  0  0  0  0  0  0
   19.5362  -23.9849  -14.1178 C   0  0  0  0  0  0  0  0  0  0  0  0
   20.5421  -23.0282  -14.7686 C   0  0  0  0  0  0  0  0  0  0  0  0
   21.9445  -23.5703  -14.6731 C   0  0  0  0  0  0  0  0  0  0  0  0
   22.9952  -22.6555  -15.2621 C   0  0  2  0  0  0  0  0  0  0  0  0
   24.3054  -23.2344  -15.2019 N   0  0  0  0  0  0  0  0  0  0  0  0
   22.9824  -21.2928  -14.6195 C   0  0  0  0  0  0  0  0  0  0  0  0
   23.6362  -21.0690  -13.5711 O   0  0  0  0  0  0  0  0  0  0  0  0
   19.4253  -24.2981  -10.0991 C   0  0  0  0  0  0  0  0  0  0  0  0
   26.9193  -18.3555  -15.2861 S   0  0  0  0  0  0  0  0  0  0  0  0
   26.0068  -16.8406  -14.8391 C   0  0  0  0  0  0  0  0  0  0  0  0
   24.3480  -17.2353  -14.4157 C   0  0  0  0  0  0  0  0  0  0  0  0
   23.7752  -18.5121  -14.7761 C   0  0  1  0  0  0  0  0  0  0  0  0
   22.3416  -18.8605  -14.5408 N   0  0  0  0  0  0  0  0  0  0  0  0
   22.2466  -20.2413  -15.1680 C   0  0  0  0  0  0  0  0  0  0  0  0
   21.3939  -18.1243  -15.4473 O   0  0  0  0  0  0  0  0  0  0  0  0
   20.7286  -17.0053  -15.1418 O   0  0  0  0  0  0  0  0  0  0  0  0
  2  1  1  1
  2  3  1  0
  4  2  1  0
  5  4  1  0
  5  6  1  6
  7  5  1  0
  7  8  2  0
  9 10  1  0
 10 11  2  0
 12 10  1  0
 12 13  1  0
 13 14  1  0
 15 14  1  0
 16 15  1  1
 16 17  1  0
 17  7  1  0
 18 25  1  0
 18 16  1  0
 19 18  2  0
 20 21  1  0
 21 22  1  0
 22 23  1  0
 24 23  1  1
 24 25  1  0
 24 26  1  0
 26 27  1  0
 28 26  2  0
M  END
$$$$
