LSC.pdb
     RDKit          3D

 21 20  0  0  1  0  0  0  0  0999 V2000
   17.1153  -12.3396  -18.9237 C   0  0  0  0  0  0  0  0  0  0  0  0
   16.2962  -11.9640  -17.6941 C   0  0  2  0  0  0  0  0  0  0  0  0
   15.0749  -11.1929  -18.1786 C   0  0  0  0  0  0  0  0  0  0  0  0
   17.1401  -11.0363  -16.8645 C   0  0  0  0  0  0  0  0  0  0  0  0
   18.3648  -11.6414  -16.3370 C   0  0  2  0  0  0  0  0  0  0  0  0
   18.0832  -12.7050  -15.4012 N   0  0  0  0  0  0  0  0  0  0  0  0
   19.3500  -10.7060  -15.7605 C   0  0  0  0  0  0  0  0  0  0  0  0
   19.1035  -10.2895  -14.5839 O   0  0  0  0  0  0  0  0  0  0  0  0
   23.4833  -10.7861  -15.8092 O   0  0  0  0  0  0  0  0  0  0  0  0
   22.8281   -9.7549  -16.4308 C   0  0  0  0  0  0  0  0  0  0  0  0
   21.5005   -9.3906  -15.7505 C   0  0  2  0  0  0  0  0  0  0  0  0
   20.5126  -10.2421  -16.3799 N   0  0  0  0  0  0  0  0  0  0  0  0
   21.2633   -7.9617  -16.0077 C   0  0  0  0  0  0  0  0  0  0  0  0
   20.6738   -7.5932  -17.0409 O   0  0  0  0  0  0  0  0  0  0  0  0
   21.7067   -7.0020  -15.0762 N   0  0  0  0  0  0  0  0  0  0  0  0
   21.5000   -5.6024  -15.3666 C   0  0  1  0  0  0  0  0  0  0  0  0
   20.8338   -4.8929  -14.1945 C   0  0  0  0  0  0  0  0  0  0  0  0
   21.2412   -5.7229  -12.6312 S   0  0  0  0  0  0  0  0  0  0  0  0
   22.8207   -4.9654  -15.5665 C   0  0  0  0  0  0  0  0  0  0  0  0
   24.0183   -5.6376  -15.3662 O   0  0  0  0  0  0  0  0  0  0  0  0
   22.8875   -3.7674  -15.9323 O   0  0  0  0  0  0  0  0  0  0  0  0
  2  4  1  0
  2  3  1  6
  2  1  1  0
  5  7  1  0
  5  4  1  0
  5  6  1  1
  7  8  2  0
  9 10  1  0
 11 10  1  6
 12 11  1  0
 12  7  1  0
 13 14  2  0
 13 11  1  0
 15 13  1  0
 16 15  1  0
 16 19  1  0
 17 18  1  0
 16 17  1  1
 19 20  1  0
 21 19  2  0
M  END
$$$$
