LSC.pdb
     RDKit          3D

 21 20  0  0  1  0  0  0  0  0999 V2000
   27.2543  -15.9337  -15.2418 C   0  0  0  0  0  0  0  0  0  0  0  0
   26.4807  -15.9729  -16.5548 C   0  0  2  0  0  0  0  0  0  0  0  0
   27.4411  -16.4542  -17.6350 C   0  0  0  0  0  0  0  0  0  0  0  0
   26.0799  -14.5598  -16.8767 C   0  0  0  0  0  0  0  0  0  0  0  0
   25.0520  -14.0062  -15.9929 C   0  0  2  0  0  0  0  0  0  0  0  0
   24.1055  -15.0111  -15.5679 N   0  0  0  0  0  0  0  0  0  0  0  0
   24.3376  -12.8182  -16.4991 C   0  0  0  0  0  0  0  0  0  0  0  0
   25.0642  -11.8942  -16.9858 O   0  0  0  0  0  0  0  0  0  0  0  0
   20.2803  -12.4404  -16.0995 O   0  0  0  0  0  0  0  0  0  0  0  0
   20.8265  -11.8951  -17.2323 C   0  0  0  0  0  0  0  0  0  0  0  0
   22.2864  -11.4577  -17.0439 C   0  0  2  0  0  0  0  0  0  0  0  0
   22.9554  -12.6177  -16.4927 N   0  0  0  0  0  0  0  0  0  0  0  0
   22.2770  -10.3154  -16.1170 C   0  0  0  0  0  0  0  0  0  0  0  0
   22.1893  -10.4972  -14.8881 O   0  0  0  0  0  0  0  0  0  0  0  0
   22.3686   -9.0042  -16.6245 N   0  0  0  0  0  0  0  0  0  0  0  0
   22.3680   -7.8970  -15.6971 C   0  0  1  0  0  0  0  0  0  0  0  0
   23.0960   -6.6930  -16.2817 C   0  0  0  0  0  0  0  0  0  0  0  0
   24.8396   -7.0928  -16.5963 S   0  0  0  0  0  0  0  0  0  0  0  0
   20.9665   -7.4847  -15.4606 C   0  0  0  0  0  0  0  0  0  0  0  0
   20.6037   -6.5889  -14.4645 O   0  0  0  0  0  0  0  0  0  0  0  0
   20.0488   -7.9506  -16.1777 O   0  0  0  0  0  0  0  0  0  0  0  0
  2  4  1  0
  2  3  1  6
  2  1  1  0
  5  7  1  0
  5  4  1  0
  5  6  1  6
  7  8  2  0
  9 10  1  0
 11 10  1  1
 12 11  1  0
 12  7  1  0
 13 14  2  0
 13 11  1  0
 15 13  1  0
 16 15  1  0
 16 19  1  0
 17 18  1  0
 16 17  1  6
 19 20  1  0
 21 19  2  0
M  END
$$$$
