LSC.pdb
     RDKit          3D

 21 20  0  0  1  0  0  0  0  0999 V2000
   11.7920  -10.6849  -11.2060 C   0  0  0  0  0  0  0  0  0  0  0  0
   12.7332  -10.7456  -10.0083 C   0  0  2  0  0  0  0  0  0  0  0  0
   11.8788  -10.6363   -8.7517 C   0  0  0  0  0  0  0  0  0  0  0  0
   13.6222   -9.5350  -10.0800 C   0  0  0  0  0  0  0  0  0  0  0  0
   14.5193   -9.5109  -11.2371 C   0  0  2  0  0  0  0  0  0  0  0  0
   15.5816  -10.4823  -11.1184 N   0  0  0  0  0  0  0  0  0  0  0  0
   15.0758   -8.1916  -11.5946 C   0  0  0  0  0  0  0  0  0  0  0  0
   16.1160   -7.8321  -10.9563 O   0  0  0  0  0  0  0  0  0  0  0  0
   14.9063   -6.1822  -15.2124 O   0  0  0  0  0  0  0  0  0  0  0  0
   14.4078   -5.5362  -14.1110 C   0  0  0  0  0  0  0  0  0  0  0  0
   15.0773   -5.9785  -12.8017 C   0  0  2  0  0  0  0  0  0  0  0  0
   14.5718   -7.3131  -12.5563 N   0  0  0  0  0  0  0  0  0  0  0  0
   14.6694   -5.0185  -11.7642 C   0  0  0  0  0  0  0  0  0  0  0  0
   13.7399   -5.2891  -10.9808 O   0  0  0  0  0  0  0  0  0  0  0  0
   15.3368   -3.7823  -11.6562 N   0  0  0  0  0  0  0  0  0  0  0  0
   14.9290   -2.8589  -10.6233 C   0  0  1  0  0  0  0  0  0  0  0  0
   15.3234   -3.3717   -9.2439 C   0  0  0  0  0  0  0  0  0  0  0  0
   15.0084   -2.1069   -7.9790 S   0  0  0  0  0  0  0  0  0  0  0  0
   15.6419   -1.5788  -10.8312 C   0  0  0  0  0  0  0  0  0  0  0  0
   15.1073   -0.3517  -10.4640 O   0  0  0  0  0  0  0  0  0  0  0  0
   16.7793   -1.5759  -11.3600 O   0  0  0  0  0  0  0  0  0  0  0  0
  2  4  1  0
  2  3  1  1
  2  1  1  0
  5  7  1  0
  5  4  1  0
  5  6  1  1
  7  8  2  0
  9 10  1  0
 11 10  1  6
 12 11  1  0
 12  7  1  0
 13 14  2  0
 13 11  1  0
 15 13  1  0
 16 15  1  0
 16 19  1  0
 17 18  1  0
 16 17  1  1
 19 20  1  0
 21 19  2  0
M  END
$$$$
