LSC.pdb
     RDKit          3D

 21 20  0  0  1  0  0  0  0  0999 V2000
   24.4254  -32.5540   -5.0210 C   0  0  0  0  0  0  0  0  0  0  0  0
   24.9204  -33.8238   -5.7042 C   0  0  2  0  0  0  0  0  0  0  0  0
   23.6932  -34.6182   -6.1329 C   0  0  0  0  0  0  0  0  0  0  0  0
   25.6620  -34.6245   -4.6699 C   0  0  0  0  0  0  0  0  0  0  0  0
   26.8638  -33.9718   -4.1465 C   0  0  2  0  0  0  0  0  0  0  0  0
   27.8673  -33.7862   -5.1686 N   0  0  0  0  0  0  0  0  0  0  0  0
   27.4662  -34.5923   -2.9507 C   0  0  0  0  0  0  0  0  0  0  0  0
   26.7218  -34.6605   -1.9213 O   0  0  0  0  0  0  0  0  0  0  0  0
   31.4141  -34.8802   -2.4957 O   0  0  0  0  0  0  0  0  0  0  0  0
   30.7843  -35.9901   -1.9954 C   0  0  0  0  0  0  0  0  0  0  0  0
   29.3048  -35.7433   -1.6663 C   0  0  2  0  0  0  0  0  0  0  0  0
   28.7614  -35.1044   -2.8468 N   0  0  0  0  0  0  0  0  0  0  0  0
   29.2672  -34.8712   -0.4821 C   0  0  0  0  0  0  0  0  0  0  0  0
   29.3090  -33.6327   -0.6057 O   0  0  0  0  0  0  0  0  0  0  0  0
   29.1828  -35.4427    0.8030 N   0  0  0  0  0  0  0  0  0  0  0  0
   29.0974  -34.5687    1.9495 C   0  0  1  0  0  0  0  0  0  0  0  0
   27.7655  -33.8294    1.9761 C   0  0  0  0  0  0  0  0  0  0  0  0
   27.8382  -32.4251    3.1257 S   0  0  0  0  0  0  0  0  0  0  0  0
   29.1598  -35.3959    3.1750 C   0  0  0  0  0  0  0  0  0  0  0  0
   29.3827  -34.8583    4.4350 O   0  0  0  0  0  0  0  0  0  0  0  0
   29.0079  -36.6386    3.0982 O   0  0  0  0  0  0  0  0  0  0  0  0
  2  4  1  0
  2  3  1  1
  2  1  1  0
  5  7  1  0
  5  4  1  0
  5  6  1  6
  7  8  2  0
  9 10  1  0
 11 10  1  6
 12 11  1  0
 12  7  1  0
 13 14  2  0
 13 11  1  0
 15 13  1  0
 16 15  1  0
 16 19  1  0
 17 18  1  0
 16 17  1  6
 19 20  1  0
 21 19  2  0
M  END
$$$$
