LSC.pdb
     RDKit          3D

 21 20  0  0  1  0  0  0  0  0999 V2000
   11.6831  -12.5377  -12.6369 C   0  0  0  0  0  0  0  0  0  0  0  0
   12.4581  -13.6725  -11.9768 C   0  0  2  0  0  0  0  0  0  0  0  0
   11.5945  -14.2161  -10.8456 C   0  0  0  0  0  0  0  0  0  0  0  0
   13.6987  -13.0723  -11.3754 C   0  0  0  0  0  0  0  0  0  0  0  0
   14.6326  -12.5081  -12.3520 C   0  0  2  0  0  0  0  0  0  0  0  0
   15.4184  -13.5306  -13.0026 N   0  0  0  0  0  0  0  0  0  0  0  0
   15.5115  -11.4311  -11.8567 C   0  0  0  0  0  0  0  0  0  0  0  0
   16.4886  -11.7973  -11.1288 O   0  0  0  0  0  0  0  0  0  0  0  0
   16.0457   -7.9849  -13.7578 O   0  0  0  0  0  0  0  0  0  0  0  0
   16.9297   -8.4264  -12.8078 C   0  0  0  0  0  0  0  0  0  0  0  0
   16.2366   -9.0327  -11.5789 C   0  0  2  0  0  0  0  0  0  0  0  0
   15.3708  -10.0649  -12.1101 N   0  0  0  0  0  0  0  0  0  0  0  0
   15.4892   -7.9463  -10.9268 C   0  0  0  0  0  0  0  0  0  0  0  0
   14.3325   -7.6646  -11.2926 O   0  0  0  0  0  0  0  0  0  0  0  0
   16.0874   -7.2186   -9.8791 N   0  0  0  0  0  0  0  0  0  0  0  0
   15.3409   -6.1488   -9.2595 C   0  0  1  0  0  0  0  0  0  0  0  0
   15.8434   -5.8773   -7.8471 C   0  0  0  0  0  0  0  0  0  0  0  0
   15.4160   -7.2541   -6.7423 S   0  0  0  0  0  0  0  0  0  0  0  0
   15.5568   -4.9119  -10.0429 C   0  0  0  0  0  0  0  0  0  0  0  0
   14.8464   -3.7420   -9.8128 O   0  0  0  0  0  0  0  0  0  0  0  0
   16.4129   -4.8945  -10.9595 O   0  0  0  0  0  0  0  0  0  0  0  0
  2  4  1  0
  2  3  1  1
  2  1  1  0
  5  7  1  0
  5  4  1  0
  5  6  1  1
  7  8  2  0
  9 10  1  0
 11 10  1  6
 12 11  1  0
 12  7  1  0
 13 14  2  0
 13 11  1  0
 15 13  1  0
 16 15  1  0
 16 19  1  0
 17 18  1  0
 16 17  1  1
 19 20  1  0
 21 19  2  0
M  END
$$$$
