LSC.pdb
     RDKit          3D

 21 20  0  0  1  0  0  0  0  0999 V2000
   19.0227  -29.2782   -4.5526 C   0  0  0  0  0  0  0  0  0  0  0  0
   17.6160  -28.9202   -4.0868 C   0  0  2  0  0  0  0  0  0  0  0  0
   16.7078  -30.0917   -4.4383 C   0  0  0  0  0  0  0  0  0  0  0  0
   17.1740  -27.7255   -4.8857 C   0  0  0  0  0  0  0  0  0  0  0  0
   17.9289  -26.5011   -4.6113 C   0  0  2  0  0  0  0  0  0  0  0  0
   17.7728  -26.0644   -3.2434 N   0  0  0  0  0  0  0  0  0  0  0  0
   17.6888  -25.3746   -5.5340 C   0  0  0  0  0  0  0  0  0  0  0  0
   16.8547  -24.4981   -5.1409 O   0  0  0  0  0  0  0  0  0  0  0  0
   19.0616  -25.4020   -9.4489 O   0  0  0  0  0  0  0  0  0  0  0  0
   19.0144  -24.1934   -8.8040 C   0  0  0  0  0  0  0  0  0  0  0  0
   17.9324  -24.1356   -7.7159 C   0  0  2  0  0  0  0  0  0  0  0  0
   18.2851  -25.1853   -6.7826 N   0  0  0  0  0  0  0  0  0  0  0  0
   16.6418  -24.3776   -8.3793 C   0  0  0  0  0  0  0  0  0  0  0  0
   16.1450  -25.5194   -8.4016 O   0  0  0  0  0  0  0  0  0  0  0  0
   15.9620  -23.3077   -8.9944 N   0  0  0  0  0  0  0  0  0  0  0  0
   14.7598  -23.5861   -9.7449 C   0  0  1  0  0  0  0  0  0  0  0  0
   13.5301  -23.0387   -9.0312 C   0  0  0  0  0  0  0  0  0  0  0  0
   12.9320  -24.2234   -7.7912 S   0  0  0  0  0  0  0  0  0  0  0  0
   14.8503  -22.8923  -11.0489 C   0  0  0  0  0  0  0  0  0  0  0  0
   13.8706  -22.9970  -12.0264 O   0  0  0  0  0  0  0  0  0  0  0  0
   15.8451  -22.1728  -11.3060 O   0  0  0  0  0  0  0  0  0  0  0  0
  2  4  1  0
  2  3  1  6
  2  1  1  0
  5  7  1  0
  5  4  1  0
  5  6  1  1
  7  8  2  0
  9 10  1  0
 11 10  1  6
 12 11  1  0
 12  7  1  0
 13 14  2  0
 13 11  1  0
 15 13  1  0
 16 15  1  0
 16 19  1  0
 17 18  1  0
 16 17  1  1
 19 20  1  0
 21 19  2  0
M  END
$$$$
