LSC.pdb
     RDKit          3D

 21 20  0  0  1  0  0  0  0  0999 V2000
   18.2226  -14.3567  -16.8450 C   0  0  0  0  0  0  0  0  0  0  0  0
   19.5646  -14.5846  -17.5314 C   0  0  2  0  0  0  0  0  0  0  0  0
   20.0866  -15.9401  -17.0724 C   0  0  0  0  0  0  0  0  0  0  0  0
   20.5054  -13.5236  -17.0311 C   0  0  0  0  0  0  0  0  0  0  0  0
   20.1556  -12.1622  -17.4417 C   0  0  2  0  0  0  0  0  0  0  0  0
   19.9891  -12.0545  -18.8724 N   0  0  0  0  0  0  0  0  0  0  0  0
   21.0463  -11.0920  -16.9526 C   0  0  0  0  0  0  0  0  0  0  0  0
   21.3166  -11.1142  -15.7096 O   0  0  0  0  0  0  0  0  0  0  0  0
   21.7731   -7.6149  -19.0964 O   0  0  0  0  0  0  0  0  0  0  0  0
   22.8287   -8.1638  -18.4155 C   0  0  0  0  0  0  0  0  0  0  0  0
   22.3934   -8.9740  -17.1858 C   0  0  2  0  0  0  0  0  0  0  0  0
   21.6118  -10.0705  -17.7188 N   0  0  0  0  0  0  0  0  0  0  0  0
   21.5997   -8.0730  -16.3359 C   0  0  0  0  0  0  0  0  0  0  0  0
   20.3553   -8.0923  -16.3809 O   0  0  0  0  0  0  0  0  0  0  0  0
   22.2535   -7.1809  -15.4631 N   0  0  0  0  0  0  0  0  0  0  0  0
   21.4578   -6.2692  -14.6749 C   0  0  1  0  0  0  0  0  0  0  0  0
   21.0421   -6.9062  -13.3548 C   0  0  0  0  0  0  0  0  0  0  0  0
   20.2904   -5.6688  -12.2581 S   0  0  0  0  0  0  0  0  0  0  0  0
   22.2867   -5.0883  -14.3456 C   0  0  0  0  0  0  0  0  0  0  0  0
   21.7444   -3.8824  -13.9237 O   0  0  0  0  0  0  0  0  0  0  0  0
   23.5354   -5.1546  -14.4438 O   0  0  0  0  0  0  0  0  0  0  0  0
  2  4  1  0
  2  3  1  1
  2  1  1  0
  5  7  1  0
  5  4  1  0
  5  6  1  6
  7  8  2  0
  9 10  1  0
 11 10  1  6
 12 11  1  0
 12  7  1  0
 13 14  2  0
 13 11  1  0
 15 13  1  0
 16 15  1  0
 16 19  1  0
 17 18  1  0
 16 17  1  1
 19 20  1  0
 21 19  2  0
M  END
$$$$
