LSC.pdb
     RDKit          3D

 21 20  0  0  1  0  0  0  0  0999 V2000
   26.2139  -16.4453  -19.7309 C   0  0  0  0  0  0  0  0  0  0  0  0
   24.7568  -16.5472  -19.2941 C   0  0  2  0  0  0  0  0  0  0  0  0
   24.3362  -15.1735  -18.7873 C   0  0  0  0  0  0  0  0  0  0  0  0
   24.7050  -17.5107  -18.1410 C   0  0  0  0  0  0  0  0  0  0  0  0
   25.1701  -18.8621  -18.4601 C   0  0  2  0  0  0  0  0  0  0  0  0
   24.3671  -19.4818  -19.4885 N   0  0  0  0  0  0  0  0  0  0  0  0
   25.3230  -19.7793  -17.3142 C   0  0  0  0  0  0  0  0  0  0  0  0
   24.3042  -20.4829  -17.0216 O   0  0  0  0  0  0  0  0  0  0  0  0
   28.6310  -19.9203  -14.5075 O   0  0  0  0  0  0  0  0  0  0  0  0
   28.0840  -20.9951  -15.1590 C   0  0  0  0  0  0  0  0  0  0  0  0
   26.5755  -20.8446  -15.4033 C   0  0  2  0  0  0  0  0  0  0  0  0
   26.4681  -19.9433  -16.5317 N   0  0  0  0  0  0  0  0  0  0  0  0
   25.9943  -20.2844  -14.1734 C   0  0  0  0  0  0  0  0  0  0  0  0
   25.5712  -19.1134  -14.1488 O   0  0  0  0  0  0  0  0  0  0  0  0
   25.9155  -21.0803  -13.0135 N   0  0  0  0  0  0  0  0  0  0  0  0
   25.2650  -20.5413  -11.8421 C   0  0  1  0  0  0  0  0  0  0  0  0
   23.7631  -20.4096  -12.0619 C   0  0  0  0  0  0  0  0  0  0  0  0
   22.9225  -20.0122  -10.5017 S   0  0  0  0  0  0  0  0  0  0  0  0
   25.4588  -21.4879  -10.7212 C   0  0  0  0  0  0  0  0  0  0  0  0
   25.6451  -21.0732   -9.4098 O   0  0  0  0  0  0  0  0  0  0  0  0
   25.4587  -22.7231  -10.9396 O   0  0  0  0  0  0  0  0  0  0  0  0
  2  4  1  0
  2  3  1  1
  2  1  1  0
  5  7  1  0
  5  4  1  0
  5  6  1  6
  7  8  2  0
  9 10  1  0
 11 10  1  1
 12 11  1  0
 12  7  1  0
 13 14  2  0
 13 11  1  0
 15 13  1  0
 16 15  1  0
 16 19  1  0
 17 18  1  0
 16 17  1  6
 19 20  1  0
 21 19  2  0
M  END
$$$$
