LSC.pdb
     RDKit          3D

 21 20  0  0  1  0  0  0  0  0999 V2000
   18.5311  -10.3066  -19.4832 C   0  0  0  0  0  0  0  0  0  0  0  0
   17.4403  -10.6236  -18.4665 C   0  0  2  0  0  0  0  0  0  0  0  0
   16.1034  -10.2797  -19.1108 C   0  0  0  0  0  0  0  0  0  0  0  0
   17.6470   -9.7069  -17.2927 C   0  0  0  0  0  0  0  0  0  0  0  0
   18.9424   -9.8589  -16.6270 C   0  0  2  0  0  0  0  0  0  0  0  0
   19.0567  -11.1292  -15.9492 N   0  0  0  0  0  0  0  0  0  0  0  0
   19.3341   -8.7628  -15.7197 C   0  0  0  0  0  0  0  0  0  0  0  0
   18.5993   -8.5961  -14.6946 O   0  0  0  0  0  0  0  0  0  0  0  0
   22.5671   -7.8303  -13.5353 O   0  0  0  0  0  0  0  0  0  0  0  0
   22.3176   -7.1343  -14.6896 C   0  0  0  0  0  0  0  0  0  0  0  0
   20.8212   -6.8869  -14.9295 C   0  0  2  0  0  0  0  0  0  0  0  0
   20.4227   -7.9029  -15.8813 N   0  0  0  0  0  0  0  0  0  0  0  0
   20.6915   -5.5240  -15.4681 C   0  0  0  0  0  0  0  0  0  0  0  0
   20.8790   -5.3007  -16.6788 O   0  0  0  0  0  0  0  0  0  0  0  0
   20.3517   -4.4625  -14.6062 N   0  0  0  0  0  0  0  0  0  0  0  0
   20.1846   -3.1402  -15.1624 C   0  0  1  0  0  0  0  0  0  0  0  0
   18.7705   -2.6231  -14.9295 C   0  0  0  0  0  0  0  0  0  0  0  0
   17.5604   -3.6606  -15.8002 S   0  0  0  0  0  0  0  0  0  0  0  0
   21.1055   -2.2175  -14.4621 C   0  0  0  0  0  0  0  0  0  0  0  0
   21.2148   -0.8728  -14.7878 O   0  0  0  0  0  0  0  0  0  0  0  0
   21.8290   -2.6446  -13.5308 O   0  0  0  0  0  0  0  0  0  0  0  0
  2  4  1  0
  2  3  1  6
  2  1  1  0
  5  7  1  0
  5  4  1  0
  5  6  1  1
  7  8  2  0
  9 10  1  0
 11 10  1  6
 12 11  1  0
 12  7  1  0
 13 14  2  0
 13 11  1  0
 15 13  1  0
 16 15  1  0
 16 19  1  0
 17 18  1  0
 16 17  1  1
 19 20  1  0
 21 19  2  0
M  END
$$$$
