LSC.pdb
     RDKit          3D

 21 20  0  0  1  0  0  0  0  0999 V2000
   21.9299  -13.3885  -17.3950 C   0  0  0  0  0  0  0  0  0  0  0  0
   21.1592  -12.7683  -18.5550 C   0  0  2  0  0  0  0  0  0  0  0  0
   22.1043  -12.7061  -19.7482 C   0  0  0  0  0  0  0  0  0  0  0  0
   20.8118  -11.3609  -18.1556 C   0  0  0  0  0  0  0  0  0  0  0  0
   19.8538  -11.2640  -17.0523 C   0  0  2  0  0  0  0  0  0  0  0  0
   18.6443  -12.0070  -17.3192 N   0  0  0  0  0  0  0  0  0  0  0  0
   19.5216   -9.8977  -16.6045 C   0  0  0  0  0  0  0  0  0  0  0  0
   19.0286   -9.1247  -17.4866 O   0  0  0  0  0  0  0  0  0  0  0  0
   19.5548   -8.7832  -12.6311 O   0  0  0  0  0  0  0  0  0  0  0  0
   18.7581   -8.1352  -13.5390 C   0  0  0  0  0  0  0  0  0  0  0  0
   19.4029   -8.0189  -14.9278 C   0  0  2  0  0  0  0  0  0  0  0  0
   19.6966   -9.3821  -15.3184 N   0  0  0  0  0  0  0  0  0  0  0  0
   20.6154   -7.2004  -14.7720 C   0  0  0  0  0  0  0  0  0  0  0  0
   21.7445   -7.7090  -14.9041 O   0  0  0  0  0  0  0  0  0  0  0  0
   20.4976   -5.8290  -14.4712 N   0  0  0  0  0  0  0  0  0  0  0  0
   21.6982   -5.0326  -14.3711 C   0  0  1  0  0  0  0  0  0  0  0  0
   22.3761   -4.8914  -15.7283 C   0  0  0  0  0  0  0  0  0  0  0  0
   23.8024   -3.7725  -15.6157 S   0  0  0  0  0  0  0  0  0  0  0  0
   21.3219   -3.6712  -13.9296 C   0  0  0  0  0  0  0  0  0  0  0  0
   22.1112   -2.9115  -13.0773 O   0  0  0  0  0  0  0  0  0  0  0  0
   20.2486   -3.1594  -14.3288 O   0  0  0  0  0  0  0  0  0  0  0  0
  2  4  1  0
  2  3  1  6
  2  1  1  0
  5  7  1  0
  5  4  1  0
  5  6  1  6
  7  8  2  0
  9 10  1  0
 11 10  1  1
 12 11  1  0
 12  7  1  0
 13 14  2  0
 13 11  1  0
 15 13  1  0
 16 15  1  0
 16 19  1  0
 17 18  1  0
 16 17  1  6
 19 20  1  0
 21 19  2  0
M  END
$$$$
