LSC.pdb
     RDKit          3D

 21 20  0  0  1  0  0  0  0  0999 V2000
   24.0093  -20.7663   -8.7776 C   0  0  0  0  0  0  0  0  0  0  0  0
   25.3973  -21.3898   -8.6841 C   0  0  2  0  0  0  0  0  0  0  0  0
   26.0048  -20.9521   -7.3574 C   0  0  0  0  0  0  0  0  0  0  0  0
   26.2231  -20.8045   -9.7960 C   0  0  0  0  0  0  0  0  0  0  0  0
   25.5396  -20.7429  -11.0896 C   0  0  2  0  0  0  0  0  0  0  0  0
   25.1182  -22.0484  -11.5416 N   0  0  0  0  0  0  0  0  0  0  0  0
   26.2620  -20.0413  -12.1683 C   0  0  0  0  0  0  0  0  0  0  0  0
   26.6452  -18.8568  -11.9060 O   0  0  0  0  0  0  0  0  0  0  0  0
   26.5008  -21.3639  -16.1822 O   0  0  0  0  0  0  0  0  0  0  0  0
   27.6084  -20.8900  -15.5284 C   0  0  0  0  0  0  0  0  0  0  0  0
   27.2722  -19.8310  -14.4684 C   0  0  2  0  0  0  0  0  0  0  0  0
   26.5595  -20.5515  -13.4339 N   0  0  0  0  0  0  0  0  0  0  0  0
   26.4389  -18.8129  -15.1266 C   0  0  0  0  0  0  0  0  0  0  0  0
   25.1989  -18.9266  -15.1489 O   0  0  0  0  0  0  0  0  0  0  0  0
   27.0495  -17.6993  -15.7368 N   0  0  0  0  0  0  0  0  0  0  0  0
   26.2108  -16.6690  -16.3034 C   0  0  1  0  0  0  0  0  0  0  0  0
   26.7241  -15.2822  -15.9365 C   0  0  0  0  0  0  0  0  0  0  0  0
   28.5396  -15.2435  -15.9736 S   0  0  0  0  0  0  0  0  0  0  0  0
   26.2675  -16.7773  -17.7782 C   0  0  0  0  0  0  0  0  0  0  0  0
   25.4607  -16.0238  -18.6195 O   0  0  0  0  0  0  0  0  0  0  0  0
   27.0708  -17.5769  -18.3155 O   0  0  0  0  0  0  0  0  0  0  0  0
  2  4  1  0
  2  3  1  1
  2  1  1  0
  5  7  1  0
  5  4  1  0
  5  6  1  6
  7  8  2  0
  9 10  1  0
 11 10  1  6
 12 11  1  0
 12  7  1  0
 13 14  2  0
 13 11  1  0
 15 13  1  0
 16 15  1  0
 16 19  1  0
 17 18  1  0
 16 17  1  6
 19 20  1  0
 21 19  2  0
M  END
$$$$
