LSC.pdb
     RDKit          3D

 21 20  0  0  1  0  0  0  0  0999 V2000
   19.5230  -14.7434  -16.4659 C   0  0  0  0  0  0  0  0  0  0  0  0
   18.2635  -14.0582  -16.9837 C   0  0  2  0  0  0  0  0  0  0  0  0
   17.9314  -14.6770  -18.3356 C   0  0  0  0  0  0  0  0  0  0  0  0
   18.6027  -12.6093  -17.1995 C   0  0  0  0  0  0  0  0  0  0  0  0
   18.8501  -11.8559  -15.9685 C   0  0  2  0  0  0  0  0  0  0  0  0
   17.8328  -12.0982  -14.9722 N   0  0  0  0  0  0  0  0  0  0  0  0
   19.0645  -10.4050  -16.1322 C   0  0  0  0  0  0  0  0  0  0  0  0
   19.9435  -10.0626  -16.9859 O   0  0  0  0  0  0  0  0  0  0  0  0
   17.2210   -7.6513  -13.6911 O   0  0  0  0  0  0  0  0  0  0  0  0
   17.4277   -7.2768  -14.9934 C   0  0  0  0  0  0  0  0  0  0  0  0
   18.6393   -7.9710  -15.6323 C   0  0  2  0  0  0  0  0  0  0  0  0
   18.4000   -9.3868  -15.4448 N   0  0  0  0  0  0  0  0  0  0  0  0
   19.8336   -7.4983  -14.9151 C   0  0  0  0  0  0  0  0  0  0  0  0
   20.2519   -8.1058  -13.9116 O   0  0  0  0  0  0  0  0  0  0  0  0
   20.5101   -6.3484  -15.3680 N   0  0  0  0  0  0  0  0  0  0  0  0
   21.7216   -5.9427  -14.6946 C   0  0  1  0  0  0  0  0  0  0  0  0
   22.7677   -5.4619  -15.6924 C   0  0  0  0  0  0  0  0  0  0  0  0
   24.1775   -4.7119  -14.8270 S   0  0  0  0  0  0  0  0  0  0  0  0
   21.4057   -4.7985  -13.8108 C   0  0  0  0  0  0  0  0  0  0  0  0
   22.0598   -4.5744  -12.6073 O   0  0  0  0  0  0  0  0  0  0  0  0
   20.5126   -3.9821  -14.1411 O   0  0  0  0  0  0  0  0  0  0  0  0
  2  4  1  0
  2  3  1  6
  2  1  1  0
  5  7  1  0
  5  4  1  0
  5  6  1  1
  7  8  2  0
  9 10  1  0
 11 10  1  1
 12 11  1  0
 12  7  1  0
 13 14  2  0
 13 11  1  0
 15 13  1  0
 16 15  1  0
 16 19  1  0
 17 18  1  0
 16 17  1  6
 19 20  1  0
 21 19  2  0
M  END
$$$$
