LSC.pdb
     RDKit          3D

 21 20  0  0  1  0  0  0  0  0999 V2000
   23.6565  -14.6340  -15.8166 C   0  0  0  0  0  0  0  0  0  0  0  0
   24.7377  -14.0482  -16.7177 C   0  0  2  0  0  0  0  0  0  0  0  0
   26.0510  -14.1023  -15.9476 C   0  0  0  0  0  0  0  0  0  0  0  0
   24.3876  -12.6046  -16.9510 C   0  0  0  0  0  0  0  0  0  0  0  0
   23.1103  -12.3946  -17.6355 C   0  0  2  0  0  0  0  0  0  0  0  0
   23.0978  -12.9890  -18.9518 N   0  0  0  0  0  0  0  0  0  0  0  0
   22.6373  -10.9984  -17.7047 C   0  0  0  0  0  0  0  0  0  0  0  0
   23.3676  -10.1929  -18.3653 O   0  0  0  0  0  0  0  0  0  0  0  0
   18.8888   -9.8991  -16.3955 O   0  0  0  0  0  0  0  0  0  0  0  0
   19.4988   -9.2231  -17.4200 C   0  0  0  0  0  0  0  0  0  0  0  0
   21.0212   -9.1186  -17.2475 C   0  0  2  0  0  0  0  0  0  0  0  0
   21.4771  -10.4871  -17.1192 N   0  0  0  0  0  0  0  0  0  0  0  0
   21.2629   -8.3246  -16.0328 C   0  0  0  0  0  0  0  0  0  0  0  0
   21.4501   -8.8849  -14.9364 O   0  0  0  0  0  0  0  0  0  0  0  0
   21.2830   -6.9180  -16.1110 N   0  0  0  0  0  0  0  0  0  0  0  0
   21.4236   -6.1548  -14.8930 C   0  0  1  0  0  0  0  0  0  0  0  0
   22.3962   -4.9973  -15.0815 C   0  0  0  0  0  0  0  0  0  0  0  0
   22.4588   -3.9668  -13.5872 S   0  0  0  0  0  0  0  0  0  0  0  0
   20.1086   -5.5666  -14.5542 C   0  0  0  0  0  0  0  0  0  0  0  0
   19.6396   -5.4726  -13.2513 O   0  0  0  0  0  0  0  0  0  0  0  0
   19.3673   -5.1272  -15.4657 O   0  0  0  0  0  0  0  0  0  0  0  0
  2  4  1  0
  2  3  1  1
  2  1  1  0
  5  7  1  0
  5  4  1  0
  5  6  1  6
  7  8  2  0
  9 10  1  0
 11 10  1  1
 12 11  1  0
 12  7  1  0
 13 14  2  0
 13 11  1  0
 15 13  1  0
 16 15  1  0
 16 19  1  0
 17 18  1  0
 16 17  1  6
 19 20  1  0
 21 19  2  0
M  END
$$$$
