LPM.pdb
     RDKit          3D

 24 24  0  0  1  0  0  0  0  0999 V2000
   29.1596  -17.3441  -17.0878 C   0  0  0  0  0  0  0  0  0  0  0  0
   27.6753  -17.4531  -17.1148 C   0  0  2  0  0  0  0  0  0  0  0  0
   27.0674  -16.0694  -17.2019 C   0  0  0  0  0  0  0  0  0  0  0  0
   27.0534  -18.3219  -16.0867 C   0  0  0  0  0  0  0  0  0  0  0  0
   27.6390  -19.7096  -15.9682 C   0  0  2  0  0  0  0  0  0  0  0  0
   27.2850  -20.5406  -17.0737 N   0  0  0  0  0  0  0  0  0  0  0  0
   27.3801  -20.3628  -14.6922 C   0  0  0  0  0  0  0  0  0  0  0  0
   26.2499  -20.9600  -14.5917 O   0  0  0  0  0  0  0  0  0  0  0  0
   28.2257  -20.4170  -13.5504 N   0  0  0  0  0  0  0  0  0  0  0  0
   29.5904  -20.0022  -13.5202 C   0  0  0  0  0  0  0  0  0  0  0  0
   30.1633  -20.7103  -12.3084 C   0  0  0  0  0  0  0  0  0  0  0  0
   28.9881  -20.8699  -11.3769 C   0  0  0  0  0  0  0  0  0  0  0  0
   27.8273  -20.8839  -12.2803 C   0  0  1  0  0  0  0  0  0  0  0  0
   26.6424  -20.1675  -11.7304 C   0  0  0  0  0  0  0  0  0  0  0  0
   26.4039  -19.0242  -12.1553 O   0  0  0  0  0  0  0  0  0  0  0  0
   21.7911  -20.3877  -14.3661 C   0  0  0  0  0  0  0  0  0  0  0  0
   21.0774  -20.7477  -12.7451 S   0  0  0  0  0  0  0  0  0  0  0  0
   22.1539  -20.3086  -11.4454 C   0  0  0  0  0  0  0  0  0  0  0  0
   23.5716  -20.5552  -11.3935 C   0  0  0  0  0  0  0  0  0  0  0  0
   24.5072  -20.1129  -10.3483 C   0  0  2  0  0  0  0  0  0  0  0  0
   25.8190  -20.7618  -10.7633 N   0  0  0  0  0  0  0  0  0  0  0  0
   24.2282  -20.8099   -9.0618 C   0  0  0  0  0  0  0  0  0  0  0  0
   24.9216  -22.0020   -8.7808 O   0  0  0  0  0  0  0  0  0  0  0  0
   23.4333  -20.4411   -8.1982 O   0  0  0  0  0  0  0  0  0  0  0  0
  2  1  1  1
  2  3  1  0
  4  2  1  0
  5  6  1  6
  5  7  1  0
  5  4  1  0
  7  9  1  0
  7  8  2  0
  9 10  1  0
 11 10  1  0
 12 13  1  0
 12 11  1  0
 13  9  1  0
 14 15  2  0
 13 14  1  1
 16 17  1  0
 18 19  1  0
 18 17  1  0
 20 19  1  6
 20 21  1  0
 21 14  1  0
 22 20  1  0
 22 23  1  0
 24 22  2  0
M  END
$$$$
