LPM.pdb
     RDKit          3D

 24 24  0  0  1  0  0  0  0  0999 V2000
   31.2922  -21.9486  -12.4848 C   0  0  0  0  0  0  0  0  0  0  0  0
   30.3480  -21.1530  -11.6535 C   0  0  2  0  0  0  0  0  0  0  0  0
   30.3629  -21.6732  -10.2319 C   0  0  0  0  0  0  0  0  0  0  0  0
   28.9877  -20.9456  -12.2060 C   0  0  0  0  0  0  0  0  0  0  0  0
   28.9260  -20.1948  -13.5156 C   0  0  2  0  0  0  0  0  0  0  0  0
   29.5254  -18.9023  -13.4249 N   0  0  0  0  0  0  0  0  0  0  0  0
   27.5982  -20.1376  -14.1121 C   0  0  0  0  0  0  0  0  0  0  0  0
   26.7673  -19.3420  -13.5459 O   0  0  0  0  0  0  0  0  0  0  0  0
   27.1155  -20.8550  -15.2409 N   0  0  0  0  0  0  0  0  0  0  0  0
   27.9274  -21.5966  -16.1499 C   0  0  0  0  0  0  0  0  0  0  0  0
   27.0689  -21.7201  -17.3932 C   0  0  0  0  0  0  0  0  0  0  0  0
   25.6527  -21.6909  -16.8755 C   0  0  0  0  0  0  0  0  0  0  0  0
   25.7582  -20.9391  -15.6155 C   0  0  1  0  0  0  0  0  0  0  0  0
   24.8774  -21.4683  -14.5368 C   0  0  0  0  0  0  0  0  0  0  0  0
   25.1832  -22.5540  -14.0150 O   0  0  0  0  0  0  0  0  0  0  0  0
   26.0847  -19.8708   -9.5792 C   0  0  0  0  0  0  0  0  0  0  0  0
   24.4370  -20.3826   -9.0407 S   0  0  0  0  0  0  0  0  0  0  0  0
   23.3857  -20.7239  -10.3894 C   0  0  0  0  0  0  0  0  0  0  0  0
   23.7676  -20.7688  -11.7769 C   0  0  0  0  0  0  0  0  0  0  0  0
   22.9401  -21.2193  -12.9065 C   0  0  2  0  0  0  0  0  0  0  0  0
   23.7376  -20.7656  -14.1200 N   0  0  0  0  0  0  0  0  0  0  0  0
   21.7149  -20.3813  -13.0296 C   0  0  0  0  0  0  0  0  0  0  0  0
   20.5609  -20.7730  -12.3256 O   0  0  0  0  0  0  0  0  0  0  0  0
   21.6056  -19.3560  -13.7008 O   0  0  0  0  0  0  0  0  0  0  0  0
  2  1  1  6
  2  3  1  0
  4  2  1  0
  5  6  1  1
  5  7  1  0
  5  4  1  0
  7  9  1  0
  7  8  2  0
  9 10  1  0
 11 10  1  0
 12 13  1  0
 12 11  1  0
 13  9  1  0
 14 15  2  0
 13 14  1  1
 16 17  1  0
 18 19  1  0
 18 17  1  0
 20 19  1  1
 20 21  1  0
 21 14  1  0
 22 20  1  0
 22 23  1  0
 24 22  2  0
M  END
$$$$
