LPM.pdb
     RDKit          3D

 24 24  0  0  1  0  0  0  0  0999 V2000
   28.4597  -20.2060   -6.9789 C   0  0  0  0  0  0  0  0  0  0  0  0
   26.9911  -20.0572   -7.1706 C   0  0  2  0  0  0  0  0  0  0  0  0
   26.2598  -20.9661   -6.2058 C   0  0  0  0  0  0  0  0  0  0  0  0
   26.4916  -20.1300   -8.5648 C   0  0  0  0  0  0  0  0  0  0  0  0
   27.1265  -19.1602   -9.5338 C   0  0  2  0  0  0  0  0  0  0  0  0
   26.8815  -17.8004   -9.1743 N   0  0  0  0  0  0  0  0  0  0  0  0
   26.8121  -19.4177  -10.9327 C   0  0  0  0  0  0  0  0  0  0  0  0
   25.9063  -18.6698  -11.4465 O   0  0  0  0  0  0  0  0  0  0  0  0
   27.3859  -20.3944  -11.7921 N   0  0  0  0  0  0  0  0  0  0  0  0
   28.3934  -21.3305  -11.4124 C   0  0  0  0  0  0  0  0  0  0  0  0
   29.0088  -21.7626  -12.7287 C   0  0  0  0  0  0  0  0  0  0  0  0
   27.8909  -21.6181  -13.7306 C   0  0  0  0  0  0  0  0  0  0  0  0
   27.0305  -20.5787  -13.1446 C   0  0  1  0  0  0  0  0  0  0  0  0
   25.5765  -20.8332  -13.3459 C   0  0  0  0  0  0  0  0  0  0  0  0
   24.9704  -21.4738  -12.4702 O   0  0  0  0  0  0  0  0  0  0  0  0
   22.4097  -15.9300  -15.4978 C   0  0  0  0  0  0  0  0  0  0  0  0
   21.1127  -17.1556  -15.7849 S   0  0  0  0  0  0  0  0  0  0  0  0
   21.6174  -18.7604  -15.3257 C   0  0  0  0  0  0  0  0  0  0  0  0
   22.9614  -19.1753  -15.0182 C   0  0  0  0  0  0  0  0  0  0  0  0
   23.4025  -20.5239  -14.6308 C   0  0  2  0  0  0  0  0  0  0  0  0
   24.9087  -20.3656  -14.4870 N   0  0  0  0  0  0  0  0  0  0  0  0
   23.3141  -21.4597  -15.7863 C   0  0  0  0  0  0  0  0  0  0  0  0
   22.2006  -22.3161  -15.8721 O   0  0  0  0  0  0  0  0  0  0  0  0
   24.1358  -21.5633  -16.6961 O   0  0  0  0  0  0  0  0  0  0  0  0
  2  1  1  6
  2  3  1  0
  4  2  1  0
  5  6  1  1
  5  7  1  0
  5  4  1  0
  7  9  1  0
  7  8  2  0
  9 10  1  0
 11 10  1  0
 12 13  1  0
 12 11  1  0
 13  9  1  0
 14 15  2  0
 13 14  1  1
 16 17  1  0
 18 19  1  0
 18 17  1  0
 20 19  1  6
 20 21  1  0
 21 14  1  0
 22 20  1  0
 22 23  1  0
 24 22  2  0
M  END
$$$$
