LPM.pdb
     RDKit          3D

 24 24  0  0  1  0  0  0  0  0999 V2000
   18.9614  -11.8031    4.1262 C   0  0  0  0  0  0  0  0  0  0  0  0
   19.2358  -12.3679    5.4759 C   0  0  2  0  0  0  0  0  0  0  0  0
   20.6463  -12.0132    5.8959 C   0  0  0  0  0  0  0  0  0  0  0  0
   18.8843  -13.7932    5.6845 C   0  0  0  0  0  0  0  0  0  0  0  0
   17.4555  -14.1637    5.3625 C   0  0  2  0  0  0  0  0  0  0  0  0
   16.5225  -13.5182    6.2291 N   0  0  0  0  0  0  0  0  0  0  0  0
   17.2131  -15.5974    5.2740 C   0  0  0  0  0  0  0  0  0  0  0  0
   17.1020  -16.2134    6.3931 O   0  0  0  0  0  0  0  0  0  0  0  0
   17.0860  -16.3917    4.1015 N   0  0  0  0  0  0  0  0  0  0  0  0
   16.9624  -15.8817    2.7749 C   0  0  0  0  0  0  0  0  0  0  0  0
   16.3584  -17.0317    1.9935 C   0  0  0  0  0  0  0  0  0  0  0  0
   16.8410  -18.2672    2.7112 C   0  0  0  0  0  0  0  0  0  0  0  0
   17.0722  -17.8021    4.0875 C   0  0  1  0  0  0  0  0  0  0  0  0
   18.2731  -18.4129    4.7232 C   0  0  0  0  0  0  0  0  0  0  0  0
   19.3915  -17.9993    4.3730 O   0  0  0  0  0  0  0  0  0  0  0  0
   23.2400  -18.0185    9.6568 C   0  0  0  0  0  0  0  0  0  0  0  0
   21.7464  -17.5955    8.7311 S   0  0  0  0  0  0  0  0  0  0  0  0
   20.8408  -19.0125    8.2695 C   0  0  0  0  0  0  0  0  0  0  0  0
   19.6757  -19.0406    7.4241 C   0  0  0  0  0  0  0  0  0  0  0  0
   19.3782  -20.0143    6.3624 C   0  0  2  0  0  0  0  0  0  0  0  0
   18.1494  -19.4234    5.6877 N   0  0  0  0  0  0  0  0  0  0  0  0
   18.8218  -21.2697    6.9394 C   0  0  0  0  0  0  0  0  0  0  0  0
   19.6651  -22.3918    7.0426 O   0  0  0  0  0  0  0  0  0  0  0  0
   17.6714  -21.4304    7.3450 O   0  0  0  0  0  0  0  0  0  0  0  0
  2  1  1  6
  2  3  1  0
  4  2  1  0
  5  6  1  1
  5  7  1  0
  5  4  1  0
  7  9  1  0
  7  8  2  0
  9 10  1  0
 11 10  1  0
 12 13  1  0
 12 11  1  0
 13  9  1  0
 14 15  2  0
 13 14  1  6
 16 17  1  0
 18 19  1  0
 18 17  1  0
 20 19  1  1
 20 21  1  0
 21 14  1  0
 22 20  1  0
 22 23  1  0
 24 22  2  0
M  END
$$$$
