LPM.pdb
     RDKit          3D

 24 24  0  0  1  0  0  0  0  0999 V2000
   22.7771  -19.0923  -15.9397 C   0  0  0  0  0  0  0  0  0  0  0  0
   21.8727  -18.7183  -14.8182 C   0  0  2  0  0  0  0  0  0  0  0  0
   21.6143  -17.2270  -14.8518 C   0  0  0  0  0  0  0  0  0  0  0  0
   22.2270  -19.2394  -13.4760 C   0  0  0  0  0  0  0  0  0  0  0  0
   22.5372  -20.7167  -13.4137 C   0  0  2  0  0  0  0  0  0  0  0  0
   21.3543  -21.5149  -13.3739 N   0  0  0  0  0  0  0  0  0  0  0  0
   23.4792  -21.0881  -12.3664 C   0  0  0  0  0  0  0  0  0  0  0  0
   22.9798  -21.2328  -11.1944 O   0  0  0  0  0  0  0  0  0  0  0  0
   24.8788  -21.3077  -12.4873 N   0  0  0  0  0  0  0  0  0  0  0  0
   25.6169  -21.2425  -13.7065 C   0  0  0  0  0  0  0  0  0  0  0  0
   26.8814  -22.0254  -13.4132 C   0  0  0  0  0  0  0  0  0  0  0  0
   27.0923  -21.8551  -11.9296 C   0  0  0  0  0  0  0  0  0  0  0  0
   25.7370  -21.6148  -11.4107 C   0  0  1  0  0  0  0  0  0  0  0  0
   25.6948  -20.6079  -10.3135 C   0  0  0  0  0  0  0  0  0  0  0  0
   25.2821  -19.4675  -10.5848 O   0  0  0  0  0  0  0  0  0  0  0  0
   28.2166  -19.9368   -2.7636 C   0  0  0  0  0  0  0  0  0  0  0  0
   27.6819  -20.9991   -4.1246 S   0  0  0  0  0  0  0  0  0  0  0  0
   27.3084  -20.0827   -5.5605 C   0  0  0  0  0  0  0  0  0  0  0  0
   26.7781  -20.6076   -6.7919 C   0  0  0  0  0  0  0  0  0  0  0  0
   26.4385  -19.8452   -8.0031 C   0  0  2  0  0  0  0  0  0  0  0  0
   26.1069  -20.9334   -9.0132 N   0  0  0  0  0  0  0  0  0  0  0  0
   27.6602  -19.2449   -8.6079 C   0  0  0  0  0  0  0  0  0  0  0  0
   28.4626  -20.0500   -9.4378 O   0  0  0  0  0  0  0  0  0  0  0  0
   28.0495  -18.0883   -8.4520 O   0  0  0  0  0  0  0  0  0  0  0  0
  2  1  1  6
  2  3  1  0
  4  2  1  0
  5  6  1  1
  5  7  1  0
  5  4  1  0
  7  9  1  0
  7  8  2  0
  9 10  1  0
 11 10  1  0
 12 13  1  0
 12 11  1  0
 13  9  1  0
 14 15  2  0
 13 14  1  1
 16 17  1  0
 18 19  1  0
 18 17  1  0
 20 19  1  1
 20 21  1  0
 21 14  1  0
 22 20  1  0
 22 23  1  0
 24 22  2  0
M  END
$$$$
