LPM.pdb
     RDKit          3D

 24 24  0  0  1  0  0  0  0  0999 V2000
   24.6361  -14.7703  -15.5357 C   0  0  0  0  0  0  0  0  0  0  0  0
   24.9132  -15.9679  -16.3752 C   0  0  2  0  0  0  0  0  0  0  0  0
   24.8873  -15.5779  -17.8378 C   0  0  0  0  0  0  0  0  0  0  0  0
   24.1378  -17.1926  -16.0633 C   0  0  0  0  0  0  0  0  0  0  0  0
   24.7646  -18.4910  -16.5149 C   0  0  2  0  0  0  0  0  0  0  0  0
   23.9495  -19.1830  -17.4609 N   0  0  0  0  0  0  0  0  0  0  0  0
   25.1927  -19.3605  -15.4273 C   0  0  0  0  0  0  0  0  0  0  0  0
   24.2765  -20.0880  -14.9026 O   0  0  0  0  0  0  0  0  0  0  0  0
   26.4979  -19.4981  -14.8803 N   0  0  0  0  0  0  0  0  0  0  0  0
   27.6828  -18.9261  -15.4320 C   0  0  0  0  0  0  0  0  0  0  0  0
   28.8038  -19.7492  -14.8287 C   0  0  0  0  0  0  0  0  0  0  0  0
   28.2585  -20.2087  -13.4998 C   0  0  0  0  0  0  0  0  0  0  0  0
   26.8020  -20.2171  -13.7054 C   0  0  1  0  0  0  0  0  0  0  0  0
   26.0348  -19.7572  -12.5140 C   0  0  0  0  0  0  0  0  0  0  0  0
   25.8314  -18.5378  -12.3871 O   0  0  0  0  0  0  0  0  0  0  0  0
   21.1701  -22.5508  -12.3573 C   0  0  0  0  0  0  0  0  0  0  0  0
   20.8729  -20.8326  -11.8821 S   0  0  0  0  0  0  0  0  0  0  0  0
   22.3051  -20.0766  -11.2353 C   0  0  0  0  0  0  0  0  0  0  0  0
   23.4151  -20.7487  -10.6115 C   0  0  0  0  0  0  0  0  0  0  0  0
   24.7543  -20.1949  -10.3596 C   0  0  2  0  0  0  0  0  0  0  0  0
   25.5551  -20.6693  -11.5630 N   0  0  0  0  0  0  0  0  0  0  0  0
   25.4276  -20.9273   -9.2510 C   0  0  0  0  0  0  0  0  0  0  0  0
   25.2924  -20.4319   -7.9406 O   0  0  0  0  0  0  0  0  0  0  0  0
   26.1071  -21.9464   -9.3665 O   0  0  0  0  0  0  0  0  0  0  0  0
  2  1  1  1
  2  3  1  0
  4  2  1  0
  5  6  1  1
  5  7  1  0
  5  4  1  0
  7  9  1  0
  7  8  2  0
  9 10  1  0
 11 10  1  0
 12 13  1  0
 12 11  1  0
 13  9  1  0
 14 15  2  0
 13 14  1  1
 16 17  1  0
 18 19  1  0
 18 17  1  0
 20 19  1  6
 20 21  1  0
 21 14  1  0
 22 20  1  0
 22 23  1  0
 24 22  2  0
M  END
$$$$
