LPM.pdb
     RDKit          3D

 24 24  0  0  1  0  0  0  0  0999 V2000
   21.5774  -18.1923  -14.6301 C   0  0  0  0  0  0  0  0  0  0  0  0
   22.4647  -19.2906  -15.1015 C   0  0  2  0  0  0  0  0  0  0  0  0
   21.8114  -20.0050  -16.2654 C   0  0  0  0  0  0  0  0  0  0  0  0
   23.0071  -20.1995  -14.0631 C   0  0  0  0  0  0  0  0  0  0  0  0
   24.0318  -21.1994  -14.5458 C   0  0  2  0  0  0  0  0  0  0  0  0
   23.4268  -22.3857  -15.0604 N   0  0  0  0  0  0  0  0  0  0  0  0
   25.0794  -21.4988  -13.5790 C   0  0  0  0  0  0  0  0  0  0  0  0
   24.8690  -22.5158  -12.8271 O   0  0  0  0  0  0  0  0  0  0  0  0
   26.3010  -20.8017  -13.3699 N   0  0  0  0  0  0  0  0  0  0  0  0
   26.8122  -19.7715  -14.2140 C   0  0  0  0  0  0  0  0  0  0  0  0
   28.2915  -19.7274  -13.8859 C   0  0  0  0  0  0  0  0  0  0  0  0
   28.3713  -20.1851  -12.4511 C   0  0  0  0  0  0  0  0  0  0  0  0
   27.1773  -21.0288  -12.2881 C   0  0  1  0  0  0  0  0  0  0  0  0
   26.5262  -20.8796  -10.9565 C   0  0  0  0  0  0  0  0  0  0  0  0
   25.3475  -20.4870  -10.9251 O   0  0  0  0  0  0  0  0  0  0  0  0
   28.5325  -19.9601   -3.3556 C   0  0  0  0  0  0  0  0  0  0  0  0
   28.9149  -20.7732   -4.9238 S   0  0  0  0  0  0  0  0  0  0  0  0
   27.7179  -20.4323   -6.1453 C   0  0  0  0  0  0  0  0  0  0  0  0
   27.7085  -20.9382   -7.4932 C   0  0  0  0  0  0  0  0  0  0  0  0
   26.5624  -20.9758   -8.4145 C   0  0  2  0  0  0  0  0  0  0  0  0
   27.2187  -21.1724   -9.7728 N   0  0  0  0  0  0  0  0  0  0  0  0
   25.9661  -19.6197   -8.5694 C   0  0  0  0  0  0  0  0  0  0  0  0
   26.6768  -18.6548   -9.3074 O   0  0  0  0  0  0  0  0  0  0  0  0
   24.8888  -19.2473   -8.1063 O   0  0  0  0  0  0  0  0  0  0  0  0
  2  1  1  1
  2  3  1  0
  4  2  1  0
  5  6  1  1
  5  7  1  0
  5  4  1  0
  7  9  1  0
  7  8  2  0
  9 10  1  0
 11 10  1  0
 12 13  1  0
 12 11  1  0
 13  9  1  0
 14 15  2  0
 13 14  1  1
 16 17  1  0
 18 19  1  0
 18 17  1  0
 20 19  1  1
 20 21  1  0
 21 14  1  0
 22 20  1  0
 22 23  1  0
 24 22  2  0
M  END
$$$$
