LPM.pdb
     RDKit          3D

 24 24  0  0  1  0  0  0  0  0999 V2000
   27.3854  -15.9098  -17.1571 C   0  0  0  0  0  0  0  0  0  0  0  0
   25.9628  -15.8846  -16.7198 C   0  0  2  0  0  0  0  0  0  0  0  0
   25.5829  -14.4768  -16.3130 C   0  0  0  0  0  0  0  0  0  0  0  0
   25.5466  -16.9262  -15.7500 C   0  0  0  0  0  0  0  0  0  0  0  0
   25.8585  -18.3491  -16.1510 C   0  0  2  0  0  0  0  0  0  0  0  0
   25.0424  -18.7953  -17.2341 N   0  0  0  0  0  0  0  0  0  0  0  0
   25.8603  -19.2972  -15.0451 C   0  0  0  0  0  0  0  0  0  0  0  0
   24.7129  -19.7569  -14.7041 O   0  0  0  0  0  0  0  0  0  0  0  0
   26.9760  -19.7713  -14.3020 N   0  0  0  0  0  0  0  0  0  0  0  0
   28.3431  -19.5378  -14.6364 C   0  0  0  0  0  0  0  0  0  0  0  0
   29.0945  -20.6236  -13.8918 C   0  0  0  0  0  0  0  0  0  0  0  0
   28.2380  -20.9120  -12.6844 C   0  0  0  0  0  0  0  0  0  0  0  0
   26.8843  -20.5360  -13.1202 C   0  0  1  0  0  0  0  0  0  0  0  0
   26.0806  -19.8802  -12.0508 C   0  0  0  0  0  0  0  0  0  0  0  0
   26.1070  -18.6397  -11.9801 O   0  0  0  0  0  0  0  0  0  0  0  0
   20.1630  -20.6954  -11.8109 C   0  0  0  0  0  0  0  0  0  0  0  0
   20.3109  -20.1681  -10.0885 S   0  0  0  0  0  0  0  0  0  0  0  0
   21.9663  -19.8482   -9.6432 C   0  0  0  0  0  0  0  0  0  0  0  0
   23.1382  -20.2427  -10.3808 C   0  0  0  0  0  0  0  0  0  0  0  0
   24.5388  -19.9635  -10.0288 C   0  0  2  0  0  0  0  0  0  0  0  0
   25.3164  -20.6360  -11.1502 N   0  0  0  0  0  0  0  0  0  0  0  0
   24.9584  -20.7748   -8.8522 C   0  0  0  0  0  0  0  0  0  0  0  0
   24.7928  -20.2269   -7.5664 O   0  0  0  0  0  0  0  0  0  0  0  0
   25.4475  -21.9030   -8.8903 O   0  0  0  0  0  0  0  0  0  0  0  0
  2  1  1  1
  2  3  1  0
  4  2  1  0
  5  6  1  6
  5  7  1  0
  5  4  1  0
  7  9  1  0
  7  8  2  0
  9 10  1  0
 11 10  1  0
 12 13  1  0
 12 11  1  0
 13  9  1  0
 14 15  2  0
 13 14  1  1
 16 17  1  0
 18 19  1  0
 18 17  1  0
 20 19  1  6
 20 21  1  0
 21 14  1  0
 22 20  1  0
 22 23  1  0
 24 22  2  0
M  END
$$$$
