LPM.pdb
     RDKit          3D

 24 24  0  0  1  0  0  0  0  0999 V2000
   18.6425  -21.0564  -17.7909 C   0  0  0  0  0  0  0  0  0  0  0  0
   19.7322  -20.4853  -16.9529 C   0  0  2  0  0  0  0  0  0  0  0  0
   20.0233  -19.0679  -17.3979 C   0  0  0  0  0  0  0  0  0  0  0  0
   20.9428  -21.3227  -16.7750 C   0  0  0  0  0  0  0  0  0  0  0  0
   21.8768  -20.8882  -15.6698 C   0  0  2  0  0  0  0  0  0  0  0  0
   23.2317  -21.2519  -15.9345 N   0  0  0  0  0  0  0  0  0  0  0  0
   21.4560  -21.2930  -14.3352 C   0  0  0  0  0  0  0  0  0  0  0  0
   21.6836  -22.5166  -14.0270 O   0  0  0  0  0  0  0  0  0  0  0  0
   20.8260  -20.4981  -13.3387 N   0  0  0  0  0  0  0  0  0  0  0  0
   20.5690  -19.0990  -13.4470 C   0  0  0  0  0  0  0  0  0  0  0  0
   20.3830  -18.6471  -12.0120 C   0  0  0  0  0  0  0  0  0  0  0  0
   19.8457  -19.8644  -11.3020 C   0  0  0  0  0  0  0  0  0  0  0  0
   20.3585  -20.9879  -12.1012 C   0  0  1  0  0  0  0  0  0  0  0  0
   19.3860  -22.1084  -12.2366 C   0  0  0  0  0  0  0  0  0  0  0  0
   18.7904  -22.2353  -13.3199 O   0  0  0  0  0  0  0  0  0  0  0  0
   17.2957  -28.8256   -8.5140 C   0  0  0  0  0  0  0  0  0  0  0  0
   18.4871  -27.4918   -8.7753 S   0  0  0  0  0  0  0  0  0  0  0  0
   17.8848  -26.2854   -9.8811 C   0  0  0  0  0  0  0  0  0  0  0  0
   18.5584  -25.0734  -10.2688 C   0  0  0  0  0  0  0  0  0  0  0  0
   18.1428  -24.1285  -11.3167 C   0  0  2  0  0  0  0  0  0  0  0  0
   19.1477  -22.9950  -11.1765 N   0  0  0  0  0  0  0  0  0  0  0  0
   16.8744  -23.4457  -10.9376 C   0  0  0  0  0  0  0  0  0  0  0  0
   16.9417  -22.3387  -10.0710 O   0  0  0  0  0  0  0  0  0  0  0  0
   15.7455  -23.7584  -11.3137 O   0  0  0  0  0  0  0  0  0  0  0  0
  2  1  1  6
  2  3  1  0
  4  2  1  0
  5  6  1  6
  5  7  1  0
  5  4  1  0
  7  9  1  0
  7  8  2  0
  9 10  1  0
 11 10  1  0
 12 13  1  0
 12 11  1  0
 13  9  1  0
 14 15  2  0
 13 14  1  6
 16 17  1  0
 18 19  1  0
 18 17  1  0
 20 19  1  1
 20 21  1  0
 21 14  1  0
 22 20  1  0
 22 23  1  0
 24 22  2  0
M  END
$$$$
