LPM.pdb
     RDKit          3D

 24 24  0  0  1  0  0  0  0  0999 V2000
   22.4953  -18.0810  -14.7313 C   0  0  0  0  0  0  0  0  0  0  0  0
   22.1910  -19.4814  -14.3287 C   0  0  2  0  0  0  0  0  0  0  0  0
   20.6941  -19.6518  -14.1804 C   0  0  0  0  0  0  0  0  0  0  0  0
   22.9763  -20.0341  -13.1989 C   0  0  0  0  0  0  0  0  0  0  0  0
   23.9281  -21.1521  -13.5549 C   0  0  2  0  0  0  0  0  0  0  0  0
   23.2414  -22.3432  -13.9392 N   0  0  0  0  0  0  0  0  0  0  0  0
   24.9489  -21.4136  -12.5491 C   0  0  0  0  0  0  0  0  0  0  0  0
   24.5804  -22.1373  -11.5569 O   0  0  0  0  0  0  0  0  0  0  0  0
   26.2980  -20.9645  -12.5356 N   0  0  0  0  0  0  0  0  0  0  0  0
   26.9022  -20.1526  -13.5410 C   0  0  0  0  0  0  0  0  0  0  0  0
   28.3891  -20.3799  -13.3529 C   0  0  0  0  0  0  0  0  0  0  0  0
   28.5376  -20.6956  -11.8857 C   0  0  0  0  0  0  0  0  0  0  0  0
   27.2284  -21.2553  -11.5160 C   0  0  1  0  0  0  0  0  0  0  0  0
   26.7707  -20.8407  -10.1602 C   0  0  0  0  0  0  0  0  0  0  0  0
   25.8337  -20.0277  -10.0849 O   0  0  0  0  0  0  0  0  0  0  0  0
   28.3464  -19.8116   -2.7387 C   0  0  0  0  0  0  0  0  0  0  0  0
   27.6218  -20.8646   -4.0165 S   0  0  0  0  0  0  0  0  0  0  0  0
   28.5405  -20.8200   -5.4981 C   0  0  0  0  0  0  0  0  0  0  0  0
   28.1157  -21.3218   -6.7790 C   0  0  0  0  0  0  0  0  0  0  0  0
   27.0494  -20.7752   -7.6322 C   0  0  2  0  0  0  0  0  0  0  0  0
   27.3758  -21.3503   -9.0023 N   0  0  0  0  0  0  0  0  0  0  0  0
   27.2569  -19.3191   -7.8673 C   0  0  0  0  0  0  0  0  0  0  0  0
   28.2580  -18.9220   -8.7733 O   0  0  0  0  0  0  0  0  0  0  0  0
   26.6271  -18.4049   -7.3369 O   0  0  0  0  0  0  0  0  0  0  0  0
  2  1  1  1
  2  3  1  0
  4  2  1  0
  5  6  1  1
  5  7  1  0
  5  4  1  0
  7  9  1  0
  7  8  2  0
  9 10  1  0
 11 10  1  0
 12 13  1  0
 12 11  1  0
 13  9  1  0
 14 15  2  0
 13 14  1  1
 16 17  1  0
 18 19  1  0
 18 17  1  0
 20 19  1  1
 20 21  1  0
 21 14  1  0
 22 20  1  0
 22 23  1  0
 24 22  2  0
M  END
$$$$
