LPM.pdb
     RDKit          3D

 24 24  0  0  1  0  0  0  0  0999 V2000
   15.2025  -28.1856   -5.9113 C   0  0  0  0  0  0  0  0  0  0  0  0
   16.1324  -28.1762   -4.7490 C   0  0  2  0  0  0  0  0  0  0  0  0
   16.0989  -29.5252   -4.0628 C   0  0  0  0  0  0  0  0  0  0  0  0
   16.0260  -27.0243   -3.8214 C   0  0  0  0  0  0  0  0  0  0  0  0
   16.2429  -25.6655   -4.4453 C   0  0  2  0  0  0  0  0  0  0  0  0
   17.5475  -25.5333   -5.0097 N   0  0  0  0  0  0  0  0  0  0  0  0
   15.9113  -24.5459   -3.5744 C   0  0  0  0  0  0  0  0  0  0  0  0
   16.8645  -24.1168   -2.8319 O   0  0  0  0  0  0  0  0  0  0  0  0
   14.6636  -23.8755   -3.4492 N   0  0  0  0  0  0  0  0  0  0  0  0
   13.5335  -24.0815   -4.2953 C   0  0  0  0  0  0  0  0  0  0  0  0
   12.6958  -22.8332   -4.1003 C   0  0  0  0  0  0  0  0  0  0  0  0
   13.0162  -22.3818   -2.6975 C   0  0  0  0  0  0  0  0  0  0  0  0
   14.3668  -22.9142   -2.4605 C   0  0  1  0  0  0  0  0  0  0  0  0
   14.5702  -23.4111   -1.0708 C   0  0  0  0  0  0  0  0  0  0  0  0
   14.5237  -24.6380   -0.8782 O   0  0  0  0  0  0  0  0  0  0  0  0
   18.7717  -22.2412    5.3445 C   0  0  0  0  0  0  0  0  0  0  0  0
   18.4384  -21.9910    3.5858 S   0  0  0  0  0  0  0  0  0  0  0  0
   16.8342  -22.5130    3.1443 C   0  0  0  0  0  0  0  0  0  0  0  0
   16.2720  -22.5094    1.8188 C   0  0  0  0  0  0  0  0  0  0  0  0
   14.9587  -23.0346    1.4151 C   0  0  2  0  0  0  0  0  0  0  0  0
   14.8073  -22.5249   -0.0102 N   0  0  0  0  0  0  0  0  0  0  0  0
   13.8624  -22.3016    2.1076 C   0  0  0  0  0  0  0  0  0  0  0  0
   13.4066  -22.7906    3.3462 O   0  0  0  0  0  0  0  0  0  0  0  0
   13.3001  -21.2872    1.6972 O   0  0  0  0  0  0  0  0  0  0  0  0
  2  1  1  6
  2  3  1  0
  4  2  1  0
  5  6  1  1
  5  7  1  0
  5  4  1  0
  7  9  1  0
  7  8  2  0
  9 10  1  0
 11 10  1  0
 12 13  1  0
 12 11  1  0
 13  9  1  0
 14 15  2  0
 13 14  1  1
 16 17  1  0
 18 19  1  0
 18 17  1  0
 20 19  1  1
 20 21  1  0
 21 14  1  0
 22 20  1  0
 22 23  1  0
 24 22  2  0
M  END
$$$$
