GAK.pdb
     RDKit          3D

 19 18  0  0  1  0  0  0  0  0999 V2000
    7.4067  -16.9700   16.2268 N   0  0  0  0  0  0  0  0  0  0  0  0
    6.6983  -16.4682   17.3873 C   0  0  0  0  0  0  0  0  0  0  0  0
    7.6780  -15.9039   18.3234 C   0  0  0  0  0  0  0  0  0  0  0  0
    8.8103  -16.4135   18.4342 O   0  0  0  0  0  0  0  0  0  0  0  0
    7.8290  -12.9313   20.6456 C   0  0  0  0  0  0  0  0  0  0  0  0
    8.3607  -14.2650   20.1224 C   0  0  2  0  0  0  0  0  0  0  0  0
    7.4078  -14.7637   19.1484 N   0  0  0  0  0  0  0  0  0  0  0  0
    8.5861  -15.2276   21.2210 C   0  0  0  0  0  0  0  0  0  0  0  0
    7.6144  -15.7818   21.7838 O   0  0  0  0  0  0  0  0  0  0  0  0
    9.9132  -15.5093   21.6222 N   0  0  0  0  0  0  0  0  0  0  0  0
   10.2201  -16.4747   22.7007 C   0  0  1  0  0  0  0  0  0  0  0  0
   11.3651  -17.3440   22.3169 C   0  0  0  0  0  0  0  0  0  0  0  0
   11.3220  -18.6883   22.9971 C   0  0  0  0  0  0  0  0  0  0  0  0
   12.5614  -19.5040   22.5836 C   0  0  0  0  0  0  0  0  0  0  0  0
   12.4187  -20.8949   23.2141 C   0  0  0  0  0  0  0  0  0  0  0  0
   13.5332  -21.7028   22.7106 N   0  0  0  0  0  0  0  0  0  0  0  0
   10.3585  -15.7595   23.9785 C   0  0  0  0  0  0  0  0  0  0  0  0
   10.8344  -14.5774   24.0245 O   0  0  0  0  0  0  0  0  0  0  0  0
    9.9877  -16.3112   25.1862 O   0  0  0  0  0  0  0  0  0  0  0  0
  2  3  1  0
  2  1  1  0
  3  7  1  0
  4  3  2  0
  6  5  1  1
  7  6  1  0
  8 10  1  0
  8  6  1  0
  9  8  2  0
 11 10  1  0
 11 17  1  0
 11 12  1  6
 13 12  1  0
 13 14  1  0
 14 15  1  0
 15 16  1  0
 17 18  2  0
 17 19  1  0
M  END
$$$$
