GAK.pdb
     RDKit          3D

 19 18  0  0  1  0  0  0  0  0999 V2000
    7.6782  -12.4689   18.1887 N   0  0  0  0  0  0  0  0  0  0  0  0
    8.8535  -13.2701   18.4664 C   0  0  0  0  0  0  0  0  0  0  0  0
    8.5334  -14.2071   19.5500 C   0  0  0  0  0  0  0  0  0  0  0  0
    7.6359  -13.9374   20.3721 O   0  0  0  0  0  0  0  0  0  0  0  0
    9.3278  -17.7721   20.3671 C   0  0  0  0  0  0  0  0  0  0  0  0
    8.8674  -16.3800   20.7973 C   0  0  2  0  0  0  0  0  0  0  0  0
    9.2100  -15.4574   19.7311 N   0  0  0  0  0  0  0  0  0  0  0  0
    9.4692  -15.9844   22.0879 C   0  0  0  0  0  0  0  0  0  0  0  0
   10.5940  -15.4348   22.1176 O   0  0  0  0  0  0  0  0  0  0  0  0
    8.7542  -16.2371   23.2822 N   0  0  0  0  0  0  0  0  0  0  0  0
    9.2748  -15.8399   24.6091 C   0  0  1  0  0  0  0  0  0  0  0  0
    8.1688  -15.3762   25.4896 C   0  0  0  0  0  0  0  0  0  0  0  0
    7.8318  -13.9228   25.2753 C   0  0  0  0  0  0  0  0  0  0  0  0
    6.7093  -13.5153   26.2482 C   0  0  0  0  0  0  0  0  0  0  0  0
    6.4482  -12.0188   26.0366 C   0  0  0  0  0  0  0  0  0  0  0  0
    5.3752  -11.6428   26.9617 N   0  0  0  0  0  0  0  0  0  0  0  0
   10.1171  -16.9171   25.1512 C   0  0  0  0  0  0  0  0  0  0  0  0
    9.9312  -18.1327   24.8141 O   0  0  0  0  0  0  0  0  0  0  0  0
   11.1438  -16.6850   26.0413 O   0  0  0  0  0  0  0  0  0  0  0  0
  2  3  1  0
  2  1  1  0
  3  7  1  0
  4  3  2  0
  6  5  1  6
  7  6  1  0
  8 10  1  0
  8  6  1  0
  9  8  2  0
 11 10  1  0
 11 17  1  0
 11 12  1  1
 13 12  1  0
 13 14  1  0
 14 15  1  0
 15 16  1  0
 17 18  2  0
 17 19  1  0
M  END
$$$$
