GAK.pdb
     RDKit          3D

 19 18  0  0  1  0  0  0  0  0999 V2000
    4.0674  -18.2093   20.8664 N   0  0  0  0  0  0  0  0  0  0  0  0
    4.1232  -16.7614   20.8394 C   0  0  0  0  0  0  0  0  0  0  0  0
    5.5216  -16.3458   21.0011 C   0  0  0  0  0  0  0  0  0  0  0  0
    6.3832  -17.1646   21.3771 O   0  0  0  0  0  0  0  0  0  0  0  0
    7.5014  -13.1888   20.3817 C   0  0  0  0  0  0  0  0  0  0  0  0
    7.3685  -14.6239   20.8896 C   0  0  2  0  0  0  0  0  0  0  0  0
    5.9777  -15.0115   20.7457 N   0  0  0  0  0  0  0  0  0  0  0  0
    7.8383  -14.7511   22.2851 C   0  0  0  0  0  0  0  0  0  0  0  0
    7.1829  -14.2383   23.2208 O   0  0  0  0  0  0  0  0  0  0  0  0
    9.0358  -15.4593   22.5419 N   0  0  0  0  0  0  0  0  0  0  0  0
    9.4972  -15.7506   23.9173 C   0  0  1  0  0  0  0  0  0  0  0  0
    8.7445  -16.8985   24.4914 C   0  0  0  0  0  0  0  0  0  0  0  0
    9.1808  -17.2298   25.8955 C   0  0  0  0  0  0  0  0  0  0  0  0
    8.4240  -18.4817   26.3779 C   0  0  0  0  0  0  0  0  0  0  0  0
    8.9326  -18.8022   27.7890 C   0  0  0  0  0  0  0  0  0  0  0  0
    8.2015  -19.9893   28.2416 N   0  0  0  0  0  0  0  0  0  0  0  0
   10.9628  -15.8742   23.9303 C   0  0  0  0  0  0  0  0  0  0  0  0
   11.6003  -16.0481   25.0207 O   0  0  0  0  0  0  0  0  0  0  0  0
   11.7268  -15.8127   22.7845 O   0  0  0  0  0  0  0  0  0  0  0  0
  2  3  1  0
  2  1  1  0
  3  7  1  0
  4  3  2  0
  6  5  1  1
  7  6  1  0
  8 10  1  0
  8  6  1  0
  9  8  2  0
 11 10  1  0
 11 17  1  0
 11 12  1  6
 13 12  1  0
 13 14  1  0
 14 15  1  0
 15 16  1  0
 17 18  2  0
 17 19  1  0
M  END
$$$$
