GAK.pdb
     RDKit          3D

 19 18  0  0  1  0  0  0  0  0999 V2000
    4.4819  -18.7844   22.0551 N   0  0  0  0  0  0  0  0  0  0  0  0
    4.4630  -17.3356   22.0266 C   0  0  0  0  0  0  0  0  0  0  0  0
    5.8311  -16.8561   21.7966 C   0  0  0  0  0  0  0  0  0  0  0  0
    6.7997  -17.6315   21.9178 O   0  0  0  0  0  0  0  0  0  0  0  0
    7.4243  -13.6538   20.5967 C   0  0  0  0  0  0  0  0  0  0  0  0
    7.4980  -15.0424   21.2304 C   0  0  2  0  0  0  0  0  0  0  0  0
    6.1372  -15.5053   21.4283 N   0  0  0  0  0  0  0  0  0  0  0  0
    8.2663  -15.0224   22.4928 C   0  0  0  0  0  0  0  0  0  0  0  0
    7.7237  -14.6431   23.5558 O   0  0  0  0  0  0  0  0  0  0  0  0
    9.6186  -15.4376   22.4773 N   0  0  0  0  0  0  0  0  0  0  0  0
   10.3876  -15.6575   23.7222 C   0  0  1  0  0  0  0  0  0  0  0  0
    9.7371  -16.6975   24.5642 C   0  0  0  0  0  0  0  0  0  0  0  0
   10.5227  -17.0022   25.8139 C   0  0  0  0  0  0  0  0  0  0  0  0
    9.7767  -18.0735   26.6315 C   0  0  0  0  0  0  0  0  0  0  0  0
   10.6567  -18.4140   27.8406 C   0  0  0  0  0  0  0  0  0  0  0  0
    9.8831  -19.3339   28.6797 N   0  0  0  0  0  0  0  0  0  0  0  0
   11.8021  -15.8914   23.3935 C   0  0  0  0  0  0  0  0  0  0  0  0
   12.1385  -16.5145   22.3331 O   0  0  0  0  0  0  0  0  0  0  0  0
   12.8360  -15.4581   24.1959 O   0  0  0  0  0  0  0  0  0  0  0  0
  2  3  1  0
  2  1  1  0
  3  7  1  0
  4  3  2  0
  6  5  1  1
  7  6  1  0
  8 10  1  0
  8  6  1  0
  9  8  2  0
 11 10  1  0
 11 17  1  0
 11 12  1  6
 13 12  1  0
 13 14  1  0
 14 15  1  0
 15 16  1  0
 17 18  2  0
 17 19  1  0
M  END
$$$$
