GAK.pdb
     RDKit          3D

 19 18  0  0  1  0  0  0  0  0999 V2000
    6.8360  -16.3449   15.1171 N   0  0  0  0  0  0  0  0  0  0  0  0
    6.7886  -16.1745   16.5554 C   0  0  0  0  0  0  0  0  0  0  0  0
    7.6452  -15.0393   16.9188 C   0  0  0  0  0  0  0  0  0  0  0  0
    7.8446  -14.1147   16.1068 O   0  0  0  0  0  0  0  0  0  0  0  0
    7.7061  -12.6756   18.8218 C   0  0  0  0  0  0  0  0  0  0  0  0
    8.8558  -13.6699   18.6646 C   0  0  2  0  0  0  0  0  0  0  0  0
    8.2909  -14.9203   18.1927 N   0  0  0  0  0  0  0  0  0  0  0  0
    9.6021  -13.8405   19.9288 C   0  0  0  0  0  0  0  0  0  0  0  0
   10.2189  -12.8742   20.4328 O   0  0  0  0  0  0  0  0  0  0  0  0
    9.6062  -15.1091   20.5550 N   0  0  0  0  0  0  0  0  0  0  0  0
   10.2504  -15.3356   21.8676 C   0  0  1  0  0  0  0  0  0  0  0  0
    9.2295  -15.6278   22.9099 C   0  0  0  0  0  0  0  0  0  0  0  0
    9.8446  -15.9081   24.2570 C   0  0  0  0  0  0  0  0  0  0  0  0
    8.7411  -16.3588   25.2327 C   0  0  0  0  0  0  0  0  0  0  0  0
    9.4023  -16.5600   26.6019 C   0  0  0  0  0  0  0  0  0  0  0  0
    8.3666  -17.0827   27.4979 N   0  0  0  0  0  0  0  0  0  0  0  0
   11.3240  -16.3309   21.7251 C   0  0  0  0  0  0  0  0  0  0  0  0
   11.2668  -17.2394   20.8323 O   0  0  0  0  0  0  0  0  0  0  0  0
   12.4413  -16.3437   22.5325 O   0  0  0  0  0  0  0  0  0  0  0  0
  2  3  1  0
  2  1  1  0
  3  7  1  0
  4  3  2  0
  6  5  1  1
  7  6  1  0
  8 10  1  0
  8  6  1  0
  9  8  2  0
 11 10  1  0
 11 17  1  0
 11 12  1  1
 13 12  1  0
 13 14  1  0
 14 15  1  0
 15 16  1  0
 17 18  2  0
 17 19  1  0
M  END
$$$$
