GAK.pdb
     RDKit          3D

 19 18  0  0  1  0  0  0  0  0999 V2000
    7.7112  -12.6852   17.7601 N   0  0  0  0  0  0  0  0  0  0  0  0
    8.8602  -13.3776   18.3083 C   0  0  0  0  0  0  0  0  0  0  0  0
    8.4207  -14.1662   19.4656 C   0  0  0  0  0  0  0  0  0  0  0  0
    7.5906  -13.6978   20.2692 O   0  0  0  0  0  0  0  0  0  0  0  0
    8.6805  -17.7405   20.5502 C   0  0  0  0  0  0  0  0  0  0  0  0
    8.4263  -16.2679   20.8697 C   0  0  2  0  0  0  0  0  0  0  0  0
    8.9011  -15.4877   19.7422 N   0  0  0  0  0  0  0  0  0  0  0  0
    9.0768  -15.8671   22.1348 C   0  0  0  0  0  0  0  0  0  0  0  0
   10.2848  -15.5374   22.1463 O   0  0  0  0  0  0  0  0  0  0  0  0
    8.3130  -15.8633   23.3256 N   0  0  0  0  0  0  0  0  0  0  0  0
    8.8545  -15.3546   24.6052 C   0  0  1  0  0  0  0  0  0  0  0  0
    7.7539  -14.9008   25.4976 C   0  0  0  0  0  0  0  0  0  0  0  0
    7.4997  -13.4189   25.3920 C   0  0  0  0  0  0  0  0  0  0  0  0
    6.3855  -13.0254   26.3800 C   0  0  0  0  0  0  0  0  0  0  0  0
    6.1671  -11.5140   26.2373 C   0  0  0  0  0  0  0  0  0  0  0  0
    5.1072  -11.1497   27.1820 N   0  0  0  0  0  0  0  0  0  0  0  0
    9.7776  -16.3457   25.1790 C   0  0  0  0  0  0  0  0  0  0  0  0
    9.5246  -17.5940   25.1205 O   0  0  0  0  0  0  0  0  0  0  0  0
   10.9551  -15.9944   25.8040 O   0  0  0  0  0  0  0  0  0  0  0  0
  2  3  1  0
  2  1  1  0
  3  7  1  0
  4  3  2  0
  6  5  1  6
  7  6  1  0
  8 10  1  0
  8  6  1  0
  9  8  2  0
 11 10  1  0
 11 17  1  0
 11 12  1  1
 13 12  1  0
 13 14  1  0
 14 15  1  0
 15 16  1  0
 17 18  2  0
 17 19  1  0
M  END
$$$$
