GAK.pdb
     RDKit          3D

 19 18  0  0  1  0  0  0  0  0999 V2000
    7.6355  -18.5185   20.2460 N   0  0  0  0  0  0  0  0  0  0  0  0
    6.7851  -17.8470   21.2084 C   0  0  0  0  0  0  0  0  0  0  0  0
    7.6385  -17.1440   22.1738 C   0  0  0  0  0  0  0  0  0  0  0  0
    8.7701  -17.5858   22.4538 O   0  0  0  0  0  0  0  0  0  0  0  0
    7.4229  -13.9986   24.2464 C   0  0  0  0  0  0  0  0  0  0  0  0
    7.9723  -15.3975   23.9702 C   0  0  2  0  0  0  0  0  0  0  0  0
    7.2411  -15.9389   22.8399 N   0  0  0  0  0  0  0  0  0  0  0  0
    7.8720  -16.2649   25.1626 C   0  0  0  0  0  0  0  0  0  0  0  0
    6.7750  -16.7801   25.4777 O   0  0  0  0  0  0  0  0  0  0  0  0
    9.0324  -16.5006   25.9367 N   0  0  0  0  0  0  0  0  0  0  0  0
    9.0844  -17.5539   26.9746 C   0  0  1  0  0  0  0  0  0  0  0  0
    8.8840  -18.8981   26.3687 C   0  0  0  0  0  0  0  0  0  0  0  0
    8.8829  -19.9998   27.3972 C   0  0  0  0  0  0  0  0  0  0  0  0
    8.7496  -21.3580   26.6830 C   0  0  0  0  0  0  0  0  0  0  0  0
    8.8538  -22.4468   27.7582 C   0  0  0  0  0  0  0  0  0  0  0  0
    8.6483  -23.7302   27.0804 N   0  0  0  0  0  0  0  0  0  0  0  0
   10.3023  -17.3904   27.7830 C   0  0  0  0  0  0  0  0  0  0  0  0
   11.3583  -16.8752   27.2878 O   0  0  0  0  0  0  0  0  0  0  0  0
   10.3778  -17.7754   29.1045 O   0  0  0  0  0  0  0  0  0  0  0  0
  2  3  1  0
  2  1  1  0
  3  7  1  0
  4  3  2  0
  6  5  1  1
  7  6  1  0
  8 10  1  0
  8  6  1  0
  9  8  2  0
 11 10  1  0
 11 17  1  0
 11 12  1  6
 13 12  1  0
 13 14  1  0
 14 15  1  0
 15 16  1  0
 17 18  2  0
 17 19  1  0
M  END
$$$$
