GAK.pdb
     RDKit          3D

 19 18  0  0  1  0  0  0  0  0999 V2000
    4.2462  -21.1772   22.1937 N   0  0  0  0  0  0  0  0  0  0  0  0
    5.5158  -21.2673   22.8868 C   0  0  0  0  0  0  0  0  0  0  0  0
    5.8471  -19.9432   23.4266 C   0  0  0  0  0  0  0  0  0  0  0  0
    5.5663  -18.9123   22.7845 O   0  0  0  0  0  0  0  0  0  0  0  0
    7.1688  -18.5718   26.6730 C   0  0  0  0  0  0  0  0  0  0  0  0
    6.8717  -18.4383   25.1800 C   0  0  2  0  0  0  0  0  0  0  0  0
    6.4961  -19.7513   24.6899 N   0  0  0  0  0  0  0  0  0  0  0  0
    8.0264  -17.8813   24.4448 C   0  0  0  0  0  0  0  0  0  0  0  0
    8.9317  -18.6378   24.0250 O   0  0  0  0  0  0  0  0  0  0  0  0
    8.0890  -16.4850   24.2257 N   0  0  0  0  0  0  0  0  0  0  0  0
    9.1826  -15.8593   23.4499 C   0  0  1  0  0  0  0  0  0  0  0  0
    8.6902  -14.6577   22.7237 C   0  0  0  0  0  0  0  0  0  0  0  0
    8.2554  -14.9729   21.3154 C   0  0  0  0  0  0  0  0  0  0  0  0
    7.8814  -13.6629   20.5966 C   0  0  0  0  0  0  0  0  0  0  0  0
    7.3899  -14.0409   19.1938 C   0  0  0  0  0  0  0  0  0  0  0  0
    6.8768  -12.8121   18.5811 N   0  0  0  0  0  0  0  0  0  0  0  0
   10.3481  -15.6483   24.3220 C   0  0  0  0  0  0  0  0  0  0  0  0
   11.5038  -15.4190   23.8344 O   0  0  0  0  0  0  0  0  0  0  0  0
   10.2665  -15.6828   25.6977 O   0  0  0  0  0  0  0  0  0  0  0  0
  2  3  1  0
  2  1  1  0
  3  7  1  0
  4  3  2  0
  6  5  1  1
  7  6  1  0
  8 10  1  0
  8  6  1  0
  9  8  2  0
 11 10  1  0
 11 17  1  0
 11 12  1  1
 13 12  1  0
 13 14  1  0
 14 15  1  0
 15 16  1  0
 17 18  2  0
 17 19  1  0
M  END
$$$$
