GAK.pdb
     RDKit          3D

 19 18  0  0  1  0  0  0  0  0999 V2000
    4.1257  -18.3319   20.8411 N   0  0  0  0  0  0  0  0  0  0  0  0
    4.2091  -16.9402   21.2365 C   0  0  0  0  0  0  0  0  0  0  0  0
    5.5971  -16.4916   21.0731 C   0  0  0  0  0  0  0  0  0  0  0  0
    6.5298  -17.3186   21.0617 O   0  0  0  0  0  0  0  0  0  0  0  0
    7.3686  -13.2049   20.5264 C   0  0  0  0  0  0  0  0  0  0  0  0
    7.3421  -14.6656   20.9743 C   0  0  2  0  0  0  0  0  0  0  0  0
    5.9634  -15.1145   20.9201 N   0  0  0  0  0  0  0  0  0  0  0  0
    7.9265  -14.8306   22.3217 C   0  0  0  0  0  0  0  0  0  0  0  0
    7.2497  -14.5613   23.3404 O   0  0  0  0  0  0  0  0  0  0  0  0
    9.2575  -15.2958   22.4379 N   0  0  0  0  0  0  0  0  0  0  0  0
    9.8614  -15.6316   23.7463 C   0  0  1  0  0  0  0  0  0  0  0  0
    9.0722  -16.6900   24.4325 C   0  0  0  0  0  0  0  0  0  0  0  0
    9.6742  -17.0925   25.7544 C   0  0  0  0  0  0  0  0  0  0  0  0
    8.7865  -18.1688   26.4073 C   0  0  0  0  0  0  0  0  0  0  0  0
    9.3250  -18.4006   27.8246 C   0  0  0  0  0  0  0  0  0  0  0  0
    8.3703  -19.2850   28.4993 N   0  0  0  0  0  0  0  0  0  0  0  0
   11.2944  -15.9129   23.5707 C   0  0  0  0  0  0  0  0  0  0  0  0
   11.7776  -16.1826   22.4219 O   0  0  0  0  0  0  0  0  0  0  0  0
   12.1907  -15.9015   24.6180 O   0  0  0  0  0  0  0  0  0  0  0  0
  2  3  1  0
  2  1  1  0
  3  7  1  0
  4  3  2  0
  6  5  1  1
  7  6  1  0
  8 10  1  0
  8  6  1  0
  9  8  2  0
 11 10  1  0
 11 17  1  0
 11 12  1  6
 13 12  1  0
 13 14  1  0
 14 15  1  0
 15 16  1  0
 17 18  2  0
 17 19  1  0
M  END
$$$$
