GAK.pdb
     RDKit          3D

 19 18  0  0  1  0  0  0  0  0999 V2000
    5.7805  -23.5477   25.3570 N   0  0  0  0  0  0  0  0  0  0  0  0
    6.1548  -22.4296   26.1996 C   0  0  0  0  0  0  0  0  0  0  0  0
    7.5621  -22.5876   26.5857 C   0  0  0  0  0  0  0  0  0  0  0  0
    7.9654  -23.6620   27.0727 O   0  0  0  0  0  0  0  0  0  0  0  0
   10.7573  -20.6836   26.1133 C   0  0  0  0  0  0  0  0  0  0  0  0
    9.9117  -21.7025   26.8762 C   0  0  2  0  0  0  0  0  0  0  0  0
    8.5383  -21.5495   26.4339 N   0  0  0  0  0  0  0  0  0  0  0  0
   10.0459  -21.5327   28.3382 C   0  0  0  0  0  0  0  0  0  0  0  0
    9.3886  -20.6487   28.9337 O   0  0  0  0  0  0  0  0  0  0  0  0
   10.9261  -22.3830   29.0478 N   0  0  0  0  0  0  0  0  0  0  0  0
   11.2033  -22.2006   30.4898 C   0  0  1  0  0  0  0  0  0  0  0  0
   11.6514  -23.4795   31.1041 C   0  0  0  0  0  0  0  0  0  0  0  0
   10.5385  -24.4907   31.2074 C   0  0  0  0  0  0  0  0  0  0  0  0
   11.0766  -25.7678   31.8798 C   0  0  0  0  0  0  0  0  0  0  0  0
    9.9212  -26.7753   31.9274 C   0  0  0  0  0  0  0  0  0  0  0  0
   10.4059  -27.9381   32.6767 N   0  0  0  0  0  0  0  0  0  0  0  0
   12.1002  -21.0501   30.6781 C   0  0  0  0  0  0  0  0  0  0  0  0
   12.3145  -20.5637   31.8371 O   0  0  0  0  0  0  0  0  0  0  0  0
   12.7559  -20.4363   29.6322 O   0  0  0  0  0  0  0  0  0  0  0  0
  2  3  1  0
  2  1  1  0
  3  7  1  0
  4  3  2  0
  6  5  1  6
  7  6  1  0
  8 10  1  0
  8  6  1  0
  9  8  2  0
 11 10  1  0
 11 17  1  0
 11 12  1  6
 13 12  1  0
 13 14  1  0
 14 15  1  0
 15 16  1  0
 17 18  2  0
 17 19  1  0
M  END
$$$$
