GAK.pdb
     RDKit          3D

 19 18  0  0  1  0  0  0  0  0999 V2000
    5.0637  -18.6231   21.1987 N   0  0  0  0  0  0  0  0  0  0  0  0
    5.0254  -17.1973   21.4551 C   0  0  0  0  0  0  0  0  0  0  0  0
    6.3304  -16.6251   21.1030 C   0  0  0  0  0  0  0  0  0  0  0  0
    7.3092  -17.3685   20.8945 O   0  0  0  0  0  0  0  0  0  0  0  0
    7.6517  -13.2757   20.0722 C   0  0  0  0  0  0  0  0  0  0  0  0
    7.8675  -14.6665   20.6674 C   0  0  2  0  0  0  0  0  0  0  0  0
    6.5613  -15.2162   20.9787 N   0  0  0  0  0  0  0  0  0  0  0  0
    8.7463  -14.6180   21.8547 C   0  0  0  0  0  0  0  0  0  0  0  0
    9.9549  -14.3136   21.7332 O   0  0  0  0  0  0  0  0  0  0  0  0
    8.1990  -14.9203   23.1237 N   0  0  0  0  0  0  0  0  0  0  0  0
    8.9536  -14.7017   24.3775 C   0  0  1  0  0  0  0  0  0  0  0  0
    8.0270  -14.4021   25.5025 C   0  0  0  0  0  0  0  0  0  0  0  0
    7.3556  -13.0608   25.3550 C   0  0  0  0  0  0  0  0  0  0  0  0
    6.3634  -12.8617   26.5163 C   0  0  0  0  0  0  0  0  0  0  0  0
    5.7804  -11.4500   26.3763 C   0  0  0  0  0  0  0  0  0  0  0  0
    4.8477  -11.2661   27.4920 N   0  0  0  0  0  0  0  0  0  0  0  0
    9.8847  -15.8195   24.5943 C   0  0  0  0  0  0  0  0  0  0  0  0
   10.7669  -15.7742   25.5138 O   0  0  0  0  0  0  0  0  0  0  0  0
    9.8621  -16.9678   23.8318 O   0  0  0  0  0  0  0  0  0  0  0  0
  2  3  1  0
  2  1  1  0
  3  7  1  0
  4  3  2  0
  6  5  1  1
  7  6  1  0
  8 10  1  0
  8  6  1  0
  9  8  2  0
 11 10  1  0
 11 17  1  0
 11 12  1  1
 13 12  1  0
 13 14  1  0
 14 15  1  0
 15 16  1  0
 17 18  2  0
 17 19  1  0
M  END
$$$$
