PGL.pdb
     RDKit          3D

 20 20  0  0  1  0  0  0  0  0999 V2000
   19.6254   -9.7787  -17.6304 N   0  0  0  0  0  0  0  0  0  0  0  0
   19.6545  -11.2166  -17.5427 C   0  0  0  0  0  0  0  0  0  0  0  0
   18.2497  -11.7036  -17.3981 C   0  0  0  0  0  0  0  0  0  0  0  0
   17.4031  -10.4479  -17.1688 C   0  0  0  0  0  0  0  0  0  0  0  0
   18.4059   -9.3379  -16.9870 C   0  0  1  0  0  0  0  0  0  0  0  0
   18.6974   -9.0200  -15.5937 C   0  0  0  0  0  0  0  0  0  0  0  0
   17.7471   -8.7192  -14.8136 O   0  0  0  0  0  0  0  0  0  0  0  0
   20.0578   -9.0553  -15.1376 N   0  0  0  0  0  0  0  0  0  0  0  0
   20.4172   -8.6456  -13.8049 C   0  0  0  0  0  0  0  0  0  0  0  0
   21.1965   -7.3875  -13.8619 C   0  0  0  0  0  0  0  0  0  0  0  0
   21.8876   -7.0216  -12.8427 O   0  0  0  0  0  0  0  0  0  0  0  0
   23.6653   -5.9293  -18.5280 C   0  0  0  0  0  0  0  0  0  0  0  0
   23.2358   -6.3726  -17.0938 C   0  0  1  0  0  0  0  0  0  0  0  0
   24.5478   -6.8779  -16.4859 C   0  0  0  0  0  0  0  0  0  0  0  0
   22.6623   -5.2012  -16.3956 C   0  0  0  0  0  0  0  0  0  0  0  0
   22.2188   -5.3793  -15.0011 C   0  0  2  0  0  0  0  0  0  0  0  0
   21.2469   -6.5251  -14.9702 N   0  0  0  0  0  0  0  0  0  0  0  0
   21.5296   -4.2943  -14.3354 C   0  0  0  0  0  0  0  0  0  0  0  0
   20.2845   -4.1903  -14.2716 O   0  0  0  0  0  0  0  0  0  0  0  0
   22.2551   -3.2605  -13.7007 O   0  0  0  0  0  0  0  0  0  0  0  0
  2  1  1  0
  3  2  1  0
  3  4  1  0
  5  1  1  0
  5  4  1  0
  5  6  1  1
  7  6  2  0
  8  6  1  0
  9 10  1  0
  9  8  1  0
 10 17  1  0
 11 10  2  0
 13 12  1  6
 13 15  1  0
 13 14  1  0
 16 15  1  6
 16 18  1  0
 17 16  1  0
 18 20  1  0
 19 18  2  0
M  END
$$$$
