PGL.pdb
     RDKit          3D

 20 20  0  0  1  0  0  0  0  0999 V2000
   17.8732   -9.5973  -15.2689 N   0  0  0  0  0  0  0  0  0  0  0  0
   17.3313   -8.3448  -15.7311 C   0  0  0  0  0  0  0  0  0  0  0  0
   17.6280   -8.2181  -17.1896 C   0  0  0  0  0  0  0  0  0  0  0  0
   18.5867   -9.3681  -17.5133 C   0  0  0  0  0  0  0  0  0  0  0  0
   18.9447   -9.9568  -16.1733 C   0  0  1  0  0  0  0  0  0  0  0  0
   20.2059   -9.4699  -15.6258 C   0  0  0  0  0  0  0  0  0  0  0  0
   21.2540   -9.5299  -16.3328 O   0  0  0  0  0  0  0  0  0  0  0  0
   20.2302   -8.9326  -14.2952 N   0  0  0  0  0  0  0  0  0  0  0  0
   21.4571   -8.4980  -13.6796 C   0  0  0  0  0  0  0  0  0  0  0  0
   21.7161   -7.0818  -14.0270 C   0  0  0  0  0  0  0  0  0  0  0  0
   22.7130   -6.4696  -13.4961 O   0  0  0  0  0  0  0  0  0  0  0  0
   22.4003   -3.1145  -17.5982 C   0  0  0  0  0  0  0  0  0  0  0  0
   20.9247   -3.2166  -17.0982 C   0  0  1  0  0  0  0  0  0  0  0  0
   20.1145   -2.9136  -18.3623 C   0  0  0  0  0  0  0  0  0  0  0  0
   20.7082   -4.5767  -16.5579 C   0  0  0  0  0  0  0  0  0  0  0  0
   21.3452   -4.9171  -15.2728 C   0  0  2  0  0  0  0  0  0  0  0  0
   20.9389   -6.3190  -14.9150 N   0  0  0  0  0  0  0  0  0  0  0  0
   21.0297   -4.1316  -14.0986 C   0  0  0  0  0  0  0  0  0  0  0  0
   21.7687   -3.2332  -13.6381 O   0  0  0  0  0  0  0  0  0  0  0  0
   19.8272   -4.3475  -13.3880 O   0  0  0  0  0  0  0  0  0  0  0  0
  2  1  1  0
  3  2  1  0
  3  4  1  0
  5  1  1  0
  5  4  1  0
  5  6  1  1
  7  6  2  0
  8  6  1  0
  9 10  1  0
  9  8  1  0
 10 17  1  0
 11 10  2  0
 13 12  1  6
 13 15  1  0
 13 14  1  0
 16 15  1  6
 16 18  1  0
 17 16  1  0
 18 20  1  0
 19 18  2  0
M  END
$$$$
