PGL.pdb
     RDKit          3D

 20 20  0  0  1  0  0  0  0  0999 V2000
   25.7568  -17.7691  -13.8178 N   0  0  0  0  0  0  0  0  0  0  0  0
   26.8307  -17.1809  -14.5773 C   0  0  0  0  0  0  0  0  0  0  0  0
   26.5529  -17.4043  -16.0280 C   0  0  0  0  0  0  0  0  0  0  0  0
   25.3639  -18.3689  -16.0728 C   0  0  0  0  0  0  0  0  0  0  0  0
   25.1686  -18.8027  -14.6430 C   0  0  1  0  0  0  0  0  0  0  0  0
   25.7947  -20.0789  -14.3163 C   0  0  0  0  0  0  0  0  0  0  0  0
   25.5139  -21.1027  -15.0056 O   0  0  0  0  0  0  0  0  0  0  0  0
   26.7168  -20.1453  -13.2185 N   0  0  0  0  0  0  0  0  0  0  0  0
   27.2111  -21.4039  -12.7239 C   0  0  0  0  0  0  0  0  0  0  0  0
   26.9054  -21.5283  -11.2801 C   0  0  0  0  0  0  0  0  0  0  0  0
   26.6345  -22.6825  -10.7854 O   0  0  0  0  0  0  0  0  0  0  0  0
   28.1073  -20.9328   -6.1281 C   0  0  0  0  0  0  0  0  0  0  0  0
   27.2333  -19.7532   -6.6594 C   0  0  1  0  0  0  0  0  0  0  0  0
   27.8357  -18.5362   -5.9506 C   0  0  0  0  0  0  0  0  0  0  0  0
   27.3536  -19.7102   -8.1333 C   0  0  0  0  0  0  0  0  0  0  0  0
   26.5906  -20.6991   -8.9161 C   0  0  2  0  0  0  0  0  0  0  0  0
   26.8809  -20.4575  -10.3706 N   0  0  0  0  0  0  0  0  0  0  0  0
   25.1460  -20.7082   -8.8258 C   0  0  0  0  0  0  0  0  0  0  0  0
   24.3918  -20.0870   -9.6073 O   0  0  0  0  0  0  0  0  0  0  0  0
   24.4911  -21.4464   -7.8139 O   0  0  0  0  0  0  0  0  0  0  0  0
  2  1  1  0
  3  2  1  0
  3  4  1  0
  5  1  1  0
  5  4  1  0
  5  6  1  6
  7  6  2  0
  8  6  1  0
  9 10  1  0
  9  8  1  0
 10 17  1  0
 11 10  2  0
 13 12  1  1
 13 15  1  0
 13 14  1  0
 16 15  1  1
 16 18  1  0
 17 16  1  0
 18 20  1  0
 19 18  2  0
M  END
$$$$
