PGL.pdb
     RDKit          3D

 20 20  0  0  1  0  0  0  0  0999 V2000
   18.5456  -14.1432  -17.5638 N   0  0  0  0  0  0  0  0  0  0  0  0
   17.8392  -14.7618  -16.4709 C   0  0  0  0  0  0  0  0  0  0  0  0
   16.4544  -15.0806  -16.9315 C   0  0  0  0  0  0  0  0  0  0  0  0
   16.3096  -14.3978  -18.2950 C   0  0  0  0  0  0  0  0  0  0  0  0
   17.5505  -13.5543  -18.4346 C   0  0  1  0  0  0  0  0  0  0  0  0
   17.3665  -12.1565  -18.0611 C   0  0  0  0  0  0  0  0  0  0  0  0
   16.4505  -11.4812  -18.6153 O   0  0  0  0  0  0  0  0  0  0  0  0
   18.2297  -11.5769  -17.0718 N   0  0  0  0  0  0  0  0  0  0  0  0
   18.1070  -10.1971  -16.6790 C   0  0  0  0  0  0  0  0  0  0  0  0
   19.1211   -9.8790  -15.6477 C   0  0  0  0  0  0  0  0  0  0  0  0
   18.9864  -10.3465  -14.4588 O   0  0  0  0  0  0  0  0  0  0  0  0
   24.2536  -10.7434  -16.0735 C   0  0  0  0  0  0  0  0  0  0  0  0
   22.8225  -10.6110  -15.4634 C   0  0  1  0  0  0  0  0  0  0  0  0
   22.9052  -11.4833  -14.2071 C   0  0  0  0  0  0  0  0  0  0  0  0
   22.5642   -9.1810  -15.1856 C   0  0  0  0  0  0  0  0  0  0  0  0
   21.2134   -8.7996  -14.7352 C   0  0  2  0  0  0  0  0  0  0  0  0
   20.2572   -9.0797  -15.8601 N   0  0  0  0  0  0  0  0  0  0  0  0
   20.9545   -7.4240  -14.3662 C   0  0  0  0  0  0  0  0  0  0  0  0
   21.4432   -6.8657  -13.3588 O   0  0  0  0  0  0  0  0  0  0  0  0
   20.1064   -6.6132  -15.1541 O   0  0  0  0  0  0  0  0  0  0  0  0
  2  1  1  0
  3  2  1  0
  3  4  1  0
  5  1  1  0
  5  4  1  0
  5  6  1  1
  7  6  2  0
  8  6  1  0
  9 10  1  0
  9  8  1  0
 10 17  1  0
 11 10  2  0
 13 12  1  1
 13 15  1  0
 13 14  1  0
 16 15  1  6
 16 18  1  0
 17 16  1  0
 18 20  1  0
 19 18  2  0
M  END
$$$$
