PGL.pdb
     RDKit          3D

 20 20  0  0  1  0  0  0  0  0999 V2000
   25.8802  -18.2014  -16.0942 N   0  0  0  0  0  0  0  0  0  0  0  0
   25.4528  -16.8647  -15.7675 C   0  0  0  0  0  0  0  0  0  0  0  0
   26.6134  -16.1361  -15.1730 C   0  0  0  0  0  0  0  0  0  0  0  0
   27.6934  -17.1993  -14.9507 C   0  0  0  0  0  0  0  0  0  0  0  0
   27.0060  -18.5092  -15.2379 C   0  0  1  0  0  0  0  0  0  0  0  0
   26.5183  -19.1998  -14.0494 C   0  0  0  0  0  0  0  0  0  0  0  0
   25.2804  -19.4374  -13.9336 O   0  0  0  0  0  0  0  0  0  0  0  0
   27.4545  -19.5953  -13.0361 N   0  0  0  0  0  0  0  0  0  0  0  0
   27.6717  -20.9807  -12.7094 C   0  0  0  0  0  0  0  0  0  0  0  0
   27.0756  -21.2817  -11.3875 C   0  0  0  0  0  0  0  0  0  0  0  0
   27.0619  -22.4922  -10.9576 O   0  0  0  0  0  0  0  0  0  0  0  0
   27.8320  -18.6910   -6.7619 C   0  0  0  0  0  0  0  0  0  0  0  0
   27.6216  -19.8265   -7.8126 C   0  0  1  0  0  0  0  0  0  0  0  0
   28.0855  -21.0776   -7.0604 C   0  0  0  0  0  0  0  0  0  0  0  0
   26.1923  -19.8505   -8.1938 C   0  0  0  0  0  0  0  0  0  0  0  0
   25.7844  -20.7576   -9.2819 C   0  0  2  0  0  0  0  0  0  0  0  0
   26.4995  -20.3276  -10.5317 N   0  0  0  0  0  0  0  0  0  0  0  0
   24.3888  -20.8230   -9.6605 C   0  0  0  0  0  0  0  0  0  0  0  0
   23.4645  -21.1330   -8.8764 O   0  0  0  0  0  0  0  0  0  0  0  0
   23.9856  -20.5289  -10.9829 O   0  0  0  0  0  0  0  0  0  0  0  0
  2  1  1  0
  3  2  1  0
  3  4  1  0
  5  1  1  0
  5  4  1  0
  5  6  1  1
  7  6  2  0
  8  6  1  0
  9 10  1  0
  9  8  1  0
 10 17  1  0
 11 10  2  0
 13 12  1  1
 13 15  1  0
 13 14  1  0
 16 15  1  1
 16 18  1  0
 17 16  1  0
 18 20  1  0
 19 18  2  0
M  END
$$$$
