PGL.pdb
     RDKit          3D

 20 20  0  0  1  0  0  0  0  0999 V2000
   27.4176  -19.5593  -16.8998 N   0  0  0  0  0  0  0  0  0  0  0  0
   27.5358  -18.8007  -15.6805 C   0  0  0  0  0  0  0  0  0  0  0  0
   28.3681  -19.5868  -14.7209 C   0  0  0  0  0  0  0  0  0  0  0  0
   28.5407  -20.9662  -15.3641 C   0  0  0  0  0  0  0  0  0  0  0  0
   27.6191  -20.9509  -16.5562 C   0  0  1  0  0  0  0  0  0  0  0  0
   26.3203  -21.5686  -16.3137 C   0  0  0  0  0  0  0  0  0  0  0  0
   25.2709  -20.8684  -16.4171 O   0  0  0  0  0  0  0  0  0  0  0  0
   26.2611  -22.9589  -15.9627 N   0  0  0  0  0  0  0  0  0  0  0  0
   25.0050  -23.6322  -15.7582 C   0  0  0  0  0  0  0  0  0  0  0  0
   24.4041  -23.1912  -14.4784 C   0  0  0  0  0  0  0  0  0  0  0  0
   23.2499  -23.6361  -14.1318 O   0  0  0  0  0  0  0  0  0  0  0  0
   26.2618  -20.8609   -9.1223 C   0  0  0  0  0  0  0  0  0  0  0  0
   24.9791  -21.1830   -9.9522 C   0  0  1  0  0  0  0  0  0  0  0  0
   24.2279  -19.8482   -9.9511 C   0  0  0  0  0  0  0  0  0  0  0  0
   25.3955  -21.6367  -11.2974 C   0  0  0  0  0  0  0  0  0  0  0  0
   24.3389  -21.9676  -12.2707 C   0  0  2  0  0  0  0  0  0  0  0  0
   25.0038  -22.2942  -13.5782 N   0  0  0  0  0  0  0  0  0  0  0  0
   23.3463  -20.9677  -12.6023 C   0  0  0  0  0  0  0  0  0  0  0  0
   23.5094  -20.0795  -13.4682 O   0  0  0  0  0  0  0  0  0  0  0  0
   22.0974  -20.9439  -11.9409 O   0  0  0  0  0  0  0  0  0  0  0  0
  2  1  1  0
  3  2  1  0
  3  4  1  0
  5  1  1  0
  5  4  1  0
  5  6  1  1
  7  6  2  0
  8  6  1  0
  9 10  1  0
  9  8  1  0
 10 17  1  0
 11 10  2  0
 13 12  1  1
 13 15  1  0
 13 14  1  0
 16 15  1  1
 16 18  1  0
 17 16  1  0
 18 20  1  0
 19 18  2  0
M  END
$$$$
