PGL.pdb
     RDKit          3D

 20 20  0  0  1  0  0  0  0  0999 V2000
   26.2958  -22.2215  -15.5945 N   0  0  0  0  0  0  0  0  0  0  0  0
   26.5901  -23.5040  -15.0074 C   0  0  0  0  0  0  0  0  0  0  0  0
   25.3041  -24.2439  -14.8341 C   0  0  0  0  0  0  0  0  0  0  0  0
   24.2018  -23.2250  -15.1388 C   0  0  0  0  0  0  0  0  0  0  0  0
   24.9222  -21.9073  -15.2632 C   0  0  1  0  0  0  0  0  0  0  0  0
   24.9039  -21.1007  -14.0481 C   0  0  0  0  0  0  0  0  0  0  0  0
   23.7938  -20.7968  -13.5213 O   0  0  0  0  0  0  0  0  0  0  0  0
   26.1472  -20.6687  -13.4760 N   0  0  0  0  0  0  0  0  0  0  0  0
   26.1889  -19.7472  -12.3705 C   0  0  0  0  0  0  0  0  0  0  0  0
   26.0860  -20.4922  -11.0947 C   0  0  0  0  0  0  0  0  0  0  0  0
   25.9872  -21.7729  -11.1131 O   0  0  0  0  0  0  0  0  0  0  0  0
   28.0113  -18.3086   -6.4554 C   0  0  0  0  0  0  0  0  0  0  0  0
   27.8153  -19.3330   -7.6173 C   0  0  1  0  0  0  0  0  0  0  0  0
   29.0020  -20.2844   -7.4371 C   0  0  0  0  0  0  0  0  0  0  0  0
   26.4956  -19.9806   -7.4507 C   0  0  0  0  0  0  0  0  0  0  0  0
   25.9580  -20.7515   -8.5864 C   0  0  2  0  0  0  0  0  0  0  0  0
   26.0832  -19.9018   -9.8195 N   0  0  0  0  0  0  0  0  0  0  0  0
   24.5713  -21.1663   -8.5647 C   0  0  0  0  0  0  0  0  0  0  0  0
   23.6962  -20.7243   -9.3418 O   0  0  0  0  0  0  0  0  0  0  0  0
   24.1202  -22.1266   -7.6308 O   0  0  0  0  0  0  0  0  0  0  0  0
  2  1  1  0
  3  2  1  0
  3  4  1  0
  5  1  1  0
  5  4  1  0
  5  6  1  1
  7  6  2  0
  8  6  1  0
  9 10  1  0
  9  8  1  0
 10 17  1  0
 11 10  2  0
 13 12  1  1
 13 15  1  0
 13 14  1  0
 16 15  1  1
 16 18  1  0
 17 16  1  0
 18 20  1  0
 19 18  2  0
M  END
$$$$
