PGL.pdb
     RDKit          3D

 20 20  0  0  1  0  0  0  0  0999 V2000
   26.5154  -19.2225  -15.1510 N   0  0  0  0  0  0  0  0  0  0  0  0
   27.5592  -18.2354  -15.2621 C   0  0  0  0  0  0  0  0  0  0  0  0
   28.8533  -18.8808  -14.8875 C   0  0  0  0  0  0  0  0  0  0  0  0
   28.4768  -20.2527  -14.3197 C   0  0  0  0  0  0  0  0  0  0  0  0
   26.9742  -20.2227  -14.2105 C   0  0  1  0  0  0  0  0  0  0  0  0
   26.4796  -19.8809  -12.8816 C   0  0  0  0  0  0  0  0  0  0  0  0
   26.8952  -18.8273  -12.3164 O   0  0  0  0  0  0  0  0  0  0  0  0
   25.5310  -20.7484  -12.2433 N   0  0  0  0  0  0  0  0  0  0  0  0
   25.0002  -20.4549  -10.9375 C   0  0  0  0  0  0  0  0  0  0  0  0
   25.9764  -20.8574   -9.8991 C   0  0  0  0  0  0  0  0  0  0  0  0
   26.4543  -22.0498   -9.9045 O   0  0  0  0  0  0  0  0  0  0  0  0
   29.2579  -20.6171   -5.4212 C   0  0  0  0  0  0  0  0  0  0  0  0
   27.9014  -19.8456   -5.3726 C   0  0  1  0  0  0  0  0  0  0  0  0
   28.2417  -18.6098   -4.5340 C   0  0  0  0  0  0  0  0  0  0  0  0
   27.4910  -19.5355   -6.7597 C   0  0  0  0  0  0  0  0  0  0  0  0
   26.8285  -20.5990   -7.5363 C   0  0  2  0  0  0  0  0  0  0  0  0
   26.4412  -20.0223   -8.8689 N   0  0  0  0  0  0  0  0  0  0  0  0
   25.6115  -21.1928   -7.0248 C   0  0  0  0  0  0  0  0  0  0  0  0
   25.5804  -22.2169   -6.3067 O   0  0  0  0  0  0  0  0  0  0  0  0
   24.3517  -20.6247   -7.3211 O   0  0  0  0  0  0  0  0  0  0  0  0
  2  1  1  0
  3  2  1  0
  3  4  1  0
  5  1  1  0
  5  4  1  0
  5  6  1  1
  7  6  2  0
  8  6  1  0
  9 10  1  0
  9  8  1  0
 10 17  1  0
 11 10  2  0
 13 12  1  6
 13 15  1  0
 13 14  1  0
 16 15  1  1
 16 18  1  0
 17 16  1  0
 18 20  1  0
 19 18  2  0
M  END
$$$$
