PGL.pdb
     RDKit          3D

 20 20  0  0  1  0  0  0  0  0999 V2000
   25.2274  -22.2410  -13.1098 N   0  0  0  0  0  0  0  0  0  0  0  0
   24.5305  -21.4433  -14.0866 C   0  0  0  0  0  0  0  0  0  0  0  0
   25.5441  -20.6779  -14.8728 C   0  0  0  0  0  0  0  0  0  0  0  0
   26.8742  -20.8931  -14.1443 C   0  0  0  0  0  0  0  0  0  0  0  0
   26.5009  -21.5978  -12.8657 C   0  0  1  0  0  0  0  0  0  0  0  0
   26.3680  -20.7128  -11.7140 C   0  0  0  0  0  0  0  0  0  0  0  0
   27.0746  -19.6644  -11.6517 O   0  0  0  0  0  0  0  0  0  0  0  0
   25.4374  -21.0511  -10.6751 N   0  0  0  0  0  0  0  0  0  0  0  0
   25.2759  -20.2231   -9.5083 C   0  0  0  0  0  0  0  0  0  0  0  0
   26.3459  -20.5244   -8.5297 C   0  0  0  0  0  0  0  0  0  0  0  0
   27.1058  -21.5438   -8.7131 O   0  0  0  0  0  0  0  0  0  0  0  0
   29.3731  -18.6932   -4.0508 C   0  0  0  0  0  0  0  0  0  0  0  0
   29.8264  -19.0043   -5.5122 C   0  0  1  0  0  0  0  0  0  0  0  0
   30.4231  -20.4099   -5.3924 C   0  0  0  0  0  0  0  0  0  0  0  0
   28.6414  -18.9282   -6.3945 C   0  0  0  0  0  0  0  0  0  0  0  0
   27.7744  -20.1167   -6.4880 C   0  0  2  0  0  0  0  0  0  0  0  0
   26.6118  -19.7696   -7.3746 N   0  0  0  0  0  0  0  0  0  0  0  0
   27.1726  -20.6480   -5.2834 C   0  0  0  0  0  0  0  0  0  0  0  0
   27.8182  -21.1889   -4.3582 O   0  0  0  0  0  0  0  0  0  0  0  0
   25.7749  -20.5795   -5.0846 O   0  0  0  0  0  0  0  0  0  0  0  0
  2  1  1  0
  3  2  1  0
  3  4  1  0
  5  1  1  0
  5  4  1  0
  5  6  1  1
  7  6  2  0
  8  6  1  0
  9 10  1  0
  9  8  1  0
 10 17  1  0
 11 10  2  0
 13 12  1  1
 13 15  1  0
 13 14  1  0
 16 15  1  1
 16 18  1  0
 17 16  1  0
 18 20  1  0
 19 18  2  0
M  END
$$$$
