PGL.pdb
     RDKit          3D

 20 20  0  0  1  0  0  0  0  0999 V2000
   26.0553  -17.5240  -14.1325 N   0  0  0  0  0  0  0  0  0  0  0  0
   27.2275  -16.7743  -14.5068 C   0  0  0  0  0  0  0  0  0  0  0  0
   27.2539  -16.6627  -15.9962 C   0  0  0  0  0  0  0  0  0  0  0  0
   26.1471  -17.5963  -16.4959 C   0  0  0  0  0  0  0  0  0  0  0  0
   25.6946  -18.3449  -15.2689 C   0  0  1  0  0  0  0  0  0  0  0  0
   26.3067  -19.6595  -15.1129 C   0  0  0  0  0  0  0  0  0  0  0  0
   26.1918  -20.5120  -16.0415 O   0  0  0  0  0  0  0  0  0  0  0  0
   27.0270  -19.9577  -13.9079 N   0  0  0  0  0  0  0  0  0  0  0  0
   27.3508  -21.3110  -13.5381 C   0  0  0  0  0  0  0  0  0  0  0  0
   26.9274  -21.5623  -12.1413 C   0  0  0  0  0  0  0  0  0  0  0  0
   26.6228  -22.7553  -11.7748 O   0  0  0  0  0  0  0  0  0  0  0  0
   28.5881  -19.8209   -6.6931 C   0  0  0  0  0  0  0  0  0  0  0  0
   27.3524  -20.4705   -7.3924 C   0  0  1  0  0  0  0  0  0  0  0  0
   26.1773  -19.6737   -6.8177 C   0  0  0  0  0  0  0  0  0  0  0  0
   27.5161  -20.3280   -8.8558 C   0  0  0  0  0  0  0  0  0  0  0  0
   26.5063  -20.9565   -9.7266 C   0  0  2  0  0  0  0  0  0  0  0  0
   26.8217  -20.5763  -11.1458 N   0  0  0  0  0  0  0  0  0  0  0  0
   25.1114  -20.6099   -9.5542 C   0  0  0  0  0  0  0  0  0  0  0  0
   24.4146  -20.9744   -8.5812 O   0  0  0  0  0  0  0  0  0  0  0  0
   24.4426  -19.8130  -10.5110 O   0  0  0  0  0  0  0  0  0  0  0  0
  2  1  1  0
  3  2  1  0
  3  4  1  0
  5  1  1  0
  5  4  1  0
  5  6  1  1
  7  6  2  0
  8  6  1  0
  9 10  1  0
  9  8  1  0
 10 17  1  0
 11 10  2  0
 13 12  1  1
 13 15  1  0
 13 14  1  0
 16 15  1  1
 16 18  1  0
 17 16  1  0
 18 20  1  0
 19 18  2  0
M  END
$$$$
