DNT.pdb
     RDKit          3D

 24 23  0  0  1  0  0  0  0  0999 V2000
   13.1571  -16.7669   16.0387 N   0  0  0  0  0  0  0  0  0  0  0  0
   13.5978  -18.1248   16.3944 C   0  0  1  0  0  0  0  0  0  0  0  0
   14.5438  -18.5386   15.3220 C   0  0  0  0  0  0  0  0  0  0  0  0
   13.8930  -18.6570   14.0288 C   0  0  0  0  0  0  0  0  0  0  0  0
   12.8515  -18.1054   13.6376 O   0  0  0  0  0  0  0  0  0  0  0  0
   14.1697  -18.1026   17.7663 C   0  0  0  0  0  0  0  0  0  0  0  0
   14.3570  -19.1138   18.4692 O   0  0  0  0  0  0  0  0  0  0  0  0
   14.5049  -19.5027   13.0761 O   0  0  0  0  0  0  0  0  0  0  0  0
   18.8090  -16.7389   19.9971 N   0  0  0  0  0  0  0  0  0  0  0  0
   17.6003  -16.7200   19.2681 C   0  0  0  0  0  0  0  0  0  0  0  0
   17.5394  -17.3579   18.1932 O   0  0  0  0  0  0  0  0  0  0  0  0
   16.4107  -15.9744   19.7316 C   0  0  0  0  0  0  0  0  0  0  0  0
   15.1765  -16.8358   19.6810 C   0  0  2  0  0  0  0  0  0  0  0  0
   14.5536  -16.8502   18.3803 N   0  0  0  0  0  0  0  0  0  0  0  0
   14.2195  -16.2680   20.6853 C   0  0  0  0  0  0  0  0  0  0  0  0
   13.4572  -15.3494   20.3114 O   0  0  0  0  0  0  0  0  0  0  0  0
   11.5137  -15.8809   21.2321 C   0  0  0  0  0  0  0  0  0  0  0  0
   11.9088  -16.6298   22.4621 C   0  0  1  0  0  0  0  0  0  0  0  0
   11.9021  -18.0064   22.1576 O   0  0  0  0  0  0  0  0  0  0  0  0
   13.2707  -16.3219   22.9895 C   0  0  2  0  0  0  0  0  0  0  0  0
   14.2254  -16.7956   21.9997 N   0  0  0  0  0  0  0  0  0  0  0  0
   13.5949  -16.9182   24.2873 C   0  0  0  0  0  0  0  0  0  0  0  0
   13.0851  -16.4461   25.4988 O   0  0  0  0  0  0  0  0  0  0  0  0
   14.3604  -17.8971   24.3526 O   0  0  0  0  0  0  0  0  0  0  0  0
  2  1  1  6
  2  3  1  0
  3  4  1  0
  4  5  2  0
  4  8  1  0
  6  2  1  0
  6 14  1  0
  7  6  2  0
  9 10  1  0
 10 12  1  0
 10 11  2  0
 13 12  1  6
 13 14  1  0
 13 15  1  0
 15 16  2  0
 18 17  1  6
 18 19  1  0
 20 18  1  0
 21 15  1  0
 20 21  1  6
 22 23  1  0
 22 20  1  0
 24 22  2  0
M  END
$$$$
