DNT.pdb
     RDKit          3D

 24 23  0  0  1  0  0  0  0  0999 V2000
    9.1149  -18.6469   20.5151 N   0  0  0  0  0  0  0  0  0  0  0  0
    9.8626  -17.6018   21.2317 C   0  0  1  0  0  0  0  0  0  0  0  0
   10.6451  -16.8777   20.1927 C   0  0  0  0  0  0  0  0  0  0  0  0
   11.8710  -17.5733   19.8418 C   0  0  0  0  0  0  0  0  0  0  0  0
   12.2972  -18.6528   20.2835 O   0  0  0  0  0  0  0  0  0  0  0  0
    8.9045  -16.7633   21.9989 C   0  0  0  0  0  0  0  0  0  0  0  0
    8.3715  -15.7244   21.5649 O   0  0  0  0  0  0  0  0  0  0  0  0
   12.7023  -16.9633   18.8753 O   0  0  0  0  0  0  0  0  0  0  0  0
    7.4736  -18.2279   27.0311 N   0  0  0  0  0  0  0  0  0  0  0  0
    7.3717  -18.2751   25.6240 C   0  0  0  0  0  0  0  0  0  0  0  0
    7.9633  -19.1919   25.0113 O   0  0  0  0  0  0  0  0  0  0  0  0
    6.5926  -17.2811   24.8553 C   0  0  0  0  0  0  0  0  0  0  0  0
    7.4970  -16.3948   24.0404 C   0  0  2  0  0  0  0  0  0  0  0  0
    8.5273  -17.1281   23.3470 N   0  0  0  0  0  0  0  0  0  0  0  0
    8.1301  -15.4340   25.0010 C   0  0  0  0  0  0  0  0  0  0  0  0
    9.3434  -15.5858   25.2647 O   0  0  0  0  0  0  0  0  0  0  0  0
    6.6076  -11.5152   25.4140 C   0  0  0  0  0  0  0  0  0  0  0  0
    6.8940  -12.3390   26.6260 C   0  0  1  0  0  0  0  0  0  0  0  0
    5.7007  -12.9852   27.0083 O   0  0  0  0  0  0  0  0  0  0  0  0
    7.9145  -13.4130   26.4438 C   0  0  2  0  0  0  0  0  0  0  0  0
    7.3288  -14.4083   25.5596 N   0  0  0  0  0  0  0  0  0  0  0  0
    8.3634  -14.0724   27.6720 C   0  0  0  0  0  0  0  0  0  0  0  0
    9.0537  -13.4120   28.6907 O   0  0  0  0  0  0  0  0  0  0  0  0
    8.1356  -15.2825   27.8518 O   0  0  0  0  0  0  0  0  0  0  0  0
  2  1  1  6
  2  3  1  0
  3  4  1  0
  4  5  2  0
  4  8  1  0
  6  2  1  0
  6 14  1  0
  7  6  2  0
  9 10  1  0
 10 12  1  0
 10 11  2  0
 13 12  1  1
 13 14  1  0
 13 15  1  0
 15 16  2  0
 18 17  1  6
 18 19  1  0
 20 18  1  0
 21 15  1  0
 20 21  1  6
 22 23  1  0
 22 20  1  0
 24 22  2  0
M  END
$$$$
