DNT.pdb
     RDKit          3D

 24 23  0  0  1  0  0  0  0  0999 V2000
   11.0274  -17.6875   22.0013 N   0  0  0  0  0  0  0  0  0  0  0  0
   11.3677  -16.5205   22.8302 C   0  0  1  0  0  0  0  0  0  0  0  0
   11.9017  -15.4968   21.8906 C   0  0  0  0  0  0  0  0  0  0  0  0
   13.1172  -15.9374   21.2285 C   0  0  0  0  0  0  0  0  0  0  0  0
   13.9492  -16.7713   21.6215 O   0  0  0  0  0  0  0  0  0  0  0  0
   10.1638  -16.1062   23.5974 C   0  0  0  0  0  0  0  0  0  0  0  0
   10.0608  -15.0347   24.2242 O   0  0  0  0  0  0  0  0  0  0  0  0
   13.4125  -15.3573   19.9741 O   0  0  0  0  0  0  0  0  0  0  0  0
    5.8582  -19.3356   23.4403 N   0  0  0  0  0  0  0  0  0  0  0  0
    6.6700  -18.2757   22.9819 C   0  0  0  0  0  0  0  0  0  0  0  0
    7.5206  -18.5132   22.0953 O   0  0  0  0  0  0  0  0  0  0  0  0
    6.5481  -16.9014   23.5133 C   0  0  0  0  0  0  0  0  0  0  0  0
    7.7835  -16.5028   24.2766 C   0  0  2  0  0  0  0  0  0  0  0  0
    9.0011  -16.9648   23.6568 N   0  0  0  0  0  0  0  0  0  0  0  0
    7.6564  -17.1118   25.6403 C   0  0  0  0  0  0  0  0  0  0  0  0
    6.6020  -16.8994   26.2789 O   0  0  0  0  0  0  0  0  0  0  0  0
    6.8438  -20.0480   26.9158 C   0  0  0  0  0  0  0  0  0  0  0  0
    8.2480  -19.8475   27.3827 C   0  0  1  0  0  0  0  0  0  0  0  0
    9.1106  -20.4646   26.4538 O   0  0  0  0  0  0  0  0  0  0  0  0
    8.6908  -18.4260   27.4885 C   0  0  2  0  0  0  0  0  0  0  0  0
    8.7293  -17.8925   26.1358 N   0  0  0  0  0  0  0  0  0  0  0  0
    9.9953  -18.2163   28.1202 C   0  0  0  0  0  0  0  0  0  0  0  0
   10.2767  -18.5762   29.4400 O   0  0  0  0  0  0  0  0  0  0  0  0
   10.9247  -17.6936   27.4787 O   0  0  0  0  0  0  0  0  0  0  0  0
  2  1  1  6
  2  3  1  0
  3  4  1  0
  4  5  2  0
  4  8  1  0
  6  2  1  0
  6 14  1  0
  7  6  2  0
  9 10  1  0
 10 12  1  0
 10 11  2  0
 13 12  1  6
 13 14  1  0
 13 15  1  0
 15 16  2  0
 18 17  1  6
 18 19  1  0
 20 18  1  0
 21 15  1  0
 20 21  1  6
 22 23  1  0
 22 20  1  0
 24 22  2  0
M  END
$$$$
