DNT.pdb
     RDKit          3D

 24 23  0  0  1  0  0  0  0  0999 V2000
    8.8995  -18.7948   18.9296 N   0  0  0  0  0  0  0  0  0  0  0  0
    9.7799  -17.7491   18.3852 C   0  0  1  0  0  0  0  0  0  0  0  0
    9.2724  -17.4637   17.0152 C   0  0  0  0  0  0  0  0  0  0  0  0
    9.9408  -18.2624   16.0026 C   0  0  0  0  0  0  0  0  0  0  0  0
   10.5081  -19.3587   16.1373 O   0  0  0  0  0  0  0  0  0  0  0  0
    9.7801  -16.5876   19.3129 C   0  0  0  0  0  0  0  0  0  0  0  0
   10.7999  -15.9625   19.6607 O   0  0  0  0  0  0  0  0  0  0  0  0
    9.9609  -17.7467   14.6869 O   0  0  0  0  0  0  0  0  0  0  0  0
    8.0917  -11.6289   21.1601 N   0  0  0  0  0  0  0  0  0  0  0  0
    7.5069  -12.8714   21.4868 C   0  0  0  0  0  0  0  0  0  0  0  0
    7.0167  -13.0207   22.6285 O   0  0  0  0  0  0  0  0  0  0  0  0
    7.4556  -13.9959   20.5282 C   0  0  0  0  0  0  0  0  0  0  0  0
    8.5460  -14.9966   20.8063 C   0  0  2  0  0  0  0  0  0  0  0  0
    8.5414  -16.1046   19.8831 N   0  0  0  0  0  0  0  0  0  0  0  0
    8.3124  -15.5056   22.1967 C   0  0  0  0  0  0  0  0  0  0  0  0
    7.2123  -16.0477   22.4430 O   0  0  0  0  0  0  0  0  0  0  0  0
    8.3560  -18.0034   23.0414 C   0  0  0  0  0  0  0  0  0  0  0  0
    9.3765  -17.5488   24.0323 C   0  0  1  0  0  0  0  0  0  0  0  0
   10.6536  -17.7612   23.4742 O   0  0  0  0  0  0  0  0  0  0  0  0
    9.3127  -16.1036   24.3999 C   0  0  2  0  0  0  0  0  0  0  0  0
    9.3415  -15.3486   23.1570 N   0  0  0  0  0  0  0  0  0  0  0  0
   10.3877  -15.6259   25.2723 C   0  0  0  0  0  0  0  0  0  0  0  0
   10.3998  -15.8221   26.6549 O   0  0  0  0  0  0  0  0  0  0  0  0
   11.3564  -15.0098   24.7919 O   0  0  0  0  0  0  0  0  0  0  0  0
  2  1  1  1
  2  3  1  0
  3  4  1  0
  4  5  2  0
  4  8  1  0
  6  2  1  0
  6 14  1  0
  7  6  2  0
  9 10  1  0
 10 12  1  0
 10 11  2  0
 13 12  1  6
 13 14  1  0
 13 15  1  0
 15 16  2  0
 18 17  1  6
 18 19  1  0
 20 18  1  0
 21 15  1  0
 20 21  1  6
 22 23  1  0
 22 20  1  0
 24 22  2  0
M  END
$$$$
