DNT.pdb
     RDKit          3D

 24 23  0  0  1  0  0  0  0  0999 V2000
   14.3442  -14.1295   18.0573 N   0  0  0  0  0  0  0  0  0  0  0  0
   13.2989  -15.1396   18.2850 C   0  0  1  0  0  0  0  0  0  0  0  0
   14.0183  -16.4046   18.5986 C   0  0  0  0  0  0  0  0  0  0  0  0
   14.5891  -17.0220   17.4141 C   0  0  0  0  0  0  0  0  0  0  0  0
   14.5172  -16.6383   16.2353 O   0  0  0  0  0  0  0  0  0  0  0  0
   12.3825  -14.6540   19.3499 C   0  0  0  0  0  0  0  0  0  0  0  0
   12.7323  -13.9448   20.3124 O   0  0  0  0  0  0  0  0  0  0  0  0
   15.3259  -18.2133   17.6017 O   0  0  0  0  0  0  0  0  0  0  0  0
    9.4953  -12.5225   18.4348 N   0  0  0  0  0  0  0  0  0  0  0  0
    8.4576  -13.3958   18.8257 C   0  0  0  0  0  0  0  0  0  0  0  0
    7.3407  -13.2842   18.2723 O   0  0  0  0  0  0  0  0  0  0  0  0
    8.6471  -14.4325   19.8627 C   0  0  0  0  0  0  0  0  0  0  0  0
   10.0795  -14.4825   20.3250 C   0  0  2  0  0  0  0  0  0  0  0  0
   10.9773  -14.9962   19.3200 N   0  0  0  0  0  0  0  0  0  0  0  0
   10.1085  -15.3803   21.5249 C   0  0  0  0  0  0  0  0  0  0  0  0
    9.3650  -15.0917   22.4886 O   0  0  0  0  0  0  0  0  0  0  0  0
   11.1626  -19.8385   23.2093 C   0  0  0  0  0  0  0  0  0  0  0  0
   11.0610  -18.7783   22.1626 C   0  0  1  0  0  0  0  0  0  0  0  0
    9.8365  -18.9483   21.4847 O   0  0  0  0  0  0  0  0  0  0  0  0
   11.0700  -17.3746   22.6699 C   0  0  2  0  0  0  0  0  0  0  0  0
   10.9707  -16.5039   21.5090 N   0  0  0  0  0  0  0  0  0  0  0  0
   12.2483  -16.9933   23.4517 C   0  0  0  0  0  0  0  0  0  0  0  0
   12.3028  -17.0675   24.8452 O   0  0  0  0  0  0  0  0  0  0  0  0
   13.2718  -16.5776   22.8789 O   0  0  0  0  0  0  0  0  0  0  0  0
  2  1  1  1
  2  3  1  0
  3  4  1  0
  4  5  2  0
  4  8  1  0
  6  2  1  0
  6 14  1  0
  7  6  2  0
  9 10  1  0
 10 12  1  0
 10 11  2  0
 13 12  1  6
 13 14  1  0
 13 15  1  0
 15 16  2  0
 18 17  1  1
 18 19  1  0
 20 18  1  0
 21 15  1  0
 20 21  1  6
 22 23  1  0
 22 20  1  0
 24 22  2  0
M  END
$$$$
