DNT.pdb
     RDKit          3D

 24 23  0  0  1  0  0  0  0  0999 V2000
    9.8033  -17.5704   13.2293 N   0  0  0  0  0  0  0  0  0  0  0  0
   10.6009  -17.4007   14.4540 C   0  0  1  0  0  0  0  0  0  0  0  0
   11.6614  -16.4129   14.1142 C   0  0  0  0  0  0  0  0  0  0  0  0
   12.7260  -16.9992   13.3186 C   0  0  0  0  0  0  0  0  0  0  0  0
   12.9379  -16.8707   12.1017 O   0  0  0  0  0  0  0  0  0  0  0  0
    9.6987  -17.0008   15.5657 C   0  0  0  0  0  0  0  0  0  0  0  0
    8.9164  -16.0322   15.5259 O   0  0  0  0  0  0  0  0  0  0  0  0
   13.6525  -17.8257   13.9935 O   0  0  0  0  0  0  0  0  0  0  0  0
    5.9776  -17.8491   19.2079 N   0  0  0  0  0  0  0  0  0  0  0  0
    7.2389  -18.3572   19.5863 C   0  0  0  0  0  0  0  0  0  0  0  0
    7.4727  -18.5342   20.8029 O   0  0  0  0  0  0  0  0  0  0  0  0
    8.2871  -18.6850   18.5964 C   0  0  0  0  0  0  0  0  0  0  0  0
    8.6993  -17.4638   17.8176 C   0  0  2  0  0  0  0  0  0  0  0  0
    9.6841  -17.7494   16.8034 N   0  0  0  0  0  0  0  0  0  0  0  0
    9.2725  -16.4987   18.8109 C   0  0  0  0  0  0  0  0  0  0  0  0
   10.4864  -16.6040   19.0941 O   0  0  0  0  0  0  0  0  0  0  0  0
    7.5899  -12.7077   19.1742 C   0  0  0  0  0  0  0  0  0  0  0  0
    7.9003  -13.4620   20.4250 C   0  0  1  0  0  0  0  0  0  0  0  0
    6.7234  -14.1141   20.8464 O   0  0  0  0  0  0  0  0  0  0  0  0
    8.9437  -14.5210   20.2919 C   0  0  2  0  0  0  0  0  0  0  0  0
    8.4175  -15.5216   19.3767 N   0  0  0  0  0  0  0  0  0  0  0  0
    9.3393  -15.1781   21.5395 C   0  0  0  0  0  0  0  0  0  0  0  0
   10.0327  -14.5291   22.5635 O   0  0  0  0  0  0  0  0  0  0  0  0
    9.0602  -16.3754   21.7321 O   0  0  0  0  0  0  0  0  0  0  0  0
  2  1  1  6
  2  3  1  0
  3  4  1  0
  4  5  2  0
  4  8  1  0
  6  2  1  0
  6 14  1  0
  7  6  2  0
  9 10  1  0
 10 12  1  0
 10 11  2  0
 13 12  1  1
 13 14  1  0
 13 15  1  0
 15 16  2  0
 18 17  1  6
 18 19  1  0
 20 18  1  0
 21 15  1  0
 20 21  1  6
 22 23  1  0
 22 20  1  0
 24 22  2  0
M  END
$$$$
