DNT.pdb
     RDKit          3D

 24 23  0  0  1  0  0  0  0  0999 V2000
   10.7770  -18.1384   20.1882 N   0  0  0  0  0  0  0  0  0  0  0  0
   11.4072  -17.2431   21.1711 C   0  0  1  0  0  0  0  0  0  0  0  0
   12.0681  -16.1705   20.3780 C   0  0  0  0  0  0  0  0  0  0  0  0
   13.4655  -16.4643   20.1111 C   0  0  0  0  0  0  0  0  0  0  0  0
   14.2158  -17.2496   20.7130 O   0  0  0  0  0  0  0  0  0  0  0  0
   10.3721  -16.7731   22.1288 C   0  0  0  0  0  0  0  0  0  0  0  0
    9.2389  -16.3719   21.8023 O   0  0  0  0  0  0  0  0  0  0  0  0
   14.0713  -15.7813   19.0322 O   0  0  0  0  0  0  0  0  0  0  0  0
    6.5543  -16.4830   25.3462 N   0  0  0  0  0  0  0  0  0  0  0  0
    7.4515  -17.5728   25.3537 C   0  0  0  0  0  0  0  0  0  0  0  0
    7.3299  -18.4422   26.2456 O   0  0  0  0  0  0  0  0  0  0  0  0
    8.5244  -17.7188   24.3471 C   0  0  0  0  0  0  0  0  0  0  0  0
    9.5601  -16.6359   24.4965 C   0  0  2  0  0  0  0  0  0  0  0  0
   10.6415  -16.7573   23.5500 N   0  0  0  0  0  0  0  0  0  0  0  0
   10.1015  -16.7538   25.8893 C   0  0  0  0  0  0  0  0  0  0  0  0
   10.8817  -17.7003   26.1345 O   0  0  0  0  0  0  0  0  0  0  0  0
   10.3413  -13.1028   27.9664 C   0  0  0  0  0  0  0  0  0  0  0  0
    9.9983  -14.3523   28.7086 C   0  0  1  0  0  0  0  0  0  0  0  0
    8.5935  -14.4441   28.7856 O   0  0  0  0  0  0  0  0  0  0  0  0
   10.4692  -15.6210   28.0789 C   0  0  2  0  0  0  0  0  0  0  0  0
    9.7057  -15.7943   26.8531 N   0  0  0  0  0  0  0  0  0  0  0  0
   10.3287  -16.8245   28.9016 C   0  0  0  0  0  0  0  0  0  0  0  0
   11.0923  -17.0667   30.0455 O   0  0  0  0  0  0  0  0  0  0  0  0
    9.4962  -17.6976   28.5963 O   0  0  0  0  0  0  0  0  0  0  0  0
  2  1  1  6
  2  3  1  0
  3  4  1  0
  4  5  2  0
  4  8  1  0
  6  2  1  0
  6 14  1  0
  7  6  2  0
  9 10  1  0
 10 12  1  0
 10 11  2  0
 13 12  1  6
 13 14  1  0
 13 15  1  0
 15 16  2  0
 18 17  1  6
 18 19  1  0
 20 18  1  0
 21 15  1  0
 20 21  1  6
 22 23  1  0
 22 20  1  0
 24 22  2  0
M  END
$$$$
