DNT.pdb
     RDKit          3D

 24 23  0  0  1  0  0  0  0  0999 V2000
   14.6732  -14.5897   18.4664 N   0  0  0  0  0  0  0  0  0  0  0  0
   13.2574  -14.6313   18.0680 C   0  0  1  0  0  0  0  0  0  0  0  0
   13.1011  -15.8673   17.2531 C   0  0  0  0  0  0  0  0  0  0  0  0
   14.3799  -16.4420   16.8731 C   0  0  0  0  0  0  0  0  0  0  0  0
   15.1646  -16.0584   15.9904 O   0  0  0  0  0  0  0  0  0  0  0  0
   12.4108  -14.5686   19.2883 C   0  0  0  0  0  0  0  0  0  0  0  0
   12.7920  -14.1290   20.3896 O   0  0  0  0  0  0  0  0  0  0  0  0
   14.8081  -17.5851   17.5853 O   0  0  0  0  0  0  0  0  0  0  0  0
    9.4844  -12.6054   18.9475 N   0  0  0  0  0  0  0  0  0  0  0  0
    8.4639  -13.5249   19.2724 C   0  0  0  0  0  0  0  0  0  0  0  0
    7.2961  -13.2815   18.8943 O   0  0  0  0  0  0  0  0  0  0  0  0
    8.7295  -14.7595   20.0412 C   0  0  0  0  0  0  0  0  0  0  0  0
   10.1867  -14.8698   20.4049 C   0  0  2  0  0  0  0  0  0  0  0  0
   11.0422  -15.0360   19.2557 N   0  0  0  0  0  0  0  0  0  0  0  0
   10.3133  -16.0672   21.2976 C   0  0  0  0  0  0  0  0  0  0  0  0
   10.1583  -17.1974   20.7844 O   0  0  0  0  0  0  0  0  0  0  0  0
   12.5529  -17.8750   25.1518 C   0  0  0  0  0  0  0  0  0  0  0  0
   12.1872  -16.8721   24.1076 C   0  0  1  0  0  0  0  0  0  0  0  0
   13.0646  -17.0366   23.0163 O   0  0  0  0  0  0  0  0  0  0  0  0
   10.8047  -16.9946   23.5584 C   0  0  2  0  0  0  0  0  0  0  0  0
   10.6002  -15.8617   22.6693 N   0  0  0  0  0  0  0  0  0  0  0  0
    9.7300  -17.0194   24.5530 C   0  0  0  0  0  0  0  0  0  0  0  0
    8.8210  -15.9738   24.7283 O   0  0  0  0  0  0  0  0  0  0  0  0
    9.5890  -18.0065   25.2976 O   0  0  0  0  0  0  0  0  0  0  0  0
  2  1  1  1
  2  3  1  0
  3  4  1  0
  4  5  2  0
  4  8  1  0
  6  2  1  0
  6 14  1  0
  7  6  2  0
  9 10  1  0
 10 12  1  0
 10 11  2  0
 13 12  1  6
 13 14  1  0
 13 15  1  0
 15 16  2  0
 18 17  1  1
 18 19  1  0
 20 18  1  0
 21 15  1  0
 20 21  1  6
 22 23  1  0
 22 20  1  0
 24 22  2  0
M  END
$$$$
