DNT.pdb
     RDKit          3D

 24 23  0  0  1  0  0  0  0  0999 V2000
   11.4151  -17.9572   21.9542 N   0  0  0  0  0  0  0  0  0  0  0  0
   11.1280  -16.7271   21.1998 C   0  0  1  0  0  0  0  0  0  0  0  0
   10.8653  -17.1610   19.8002 C   0  0  0  0  0  0  0  0  0  0  0  0
   12.0868  -17.4949   19.0886 C   0  0  0  0  0  0  0  0  0  0  0  0
   13.2230  -17.0184   19.2436 O   0  0  0  0  0  0  0  0  0  0  0  0
   10.0061  -16.0079   21.8587 C   0  0  0  0  0  0  0  0  0  0  0  0
    9.0275  -15.5255   21.2577 O   0  0  0  0  0  0  0  0  0  0  0  0
   11.9963  -18.4873   18.0864 O   0  0  0  0  0  0  0  0  0  0  0  0
    6.4799  -16.5763   25.5143 N   0  0  0  0  0  0  0  0  0  0  0  0
    7.0453  -17.6263   24.7592 C   0  0  0  0  0  0  0  0  0  0  0  0
    6.4664  -18.7357   24.7492 O   0  0  0  0  0  0  0  0  0  0  0  0
    8.2931  -17.4580   23.9841 C   0  0  0  0  0  0  0  0  0  0  0  0
    8.7835  -16.0355   24.0470 C   0  0  2  0  0  0  0  0  0  0  0  0
    9.9951  -15.8245   23.2935 N   0  0  0  0  0  0  0  0  0  0  0  0
    9.0379  -15.7364   25.4935 C   0  0  0  0  0  0  0  0  0  0  0  0
    8.0662  -15.7850   26.2798 O   0  0  0  0  0  0  0  0  0  0  0  0
    8.3113  -13.9963   27.4789 C   0  0  0  0  0  0  0  0  0  0  0  0
    9.7865  -13.7653   27.4967 C   0  0  1  0  0  0  0  0  0  0  0  0
   10.1388  -13.2836   28.7741 O   0  0  0  0  0  0  0  0  0  0  0  0
   10.6270  -14.9752   27.2565 C   0  0  2  0  0  0  0  0  0  0  0  0
   10.3572  -15.4153   25.8967 N   0  0  0  0  0  0  0  0  0  0  0  0
   10.3992  -16.0945   28.1732 C   0  0  0  0  0  0  0  0  0  0  0  0
    9.8233  -17.3045   27.7803 O   0  0  0  0  0  0  0  0  0  0  0  0
   10.7231  -15.9984   29.3709 O   0  0  0  0  0  0  0  0  0  0  0  0
  2  1  1  1
  2  3  1  0
  3  4  1  0
  4  5  2  0
  4  8  1  0
  6  2  1  0
  6 14  1  0
  7  6  2  0
  9 10  1  0
 10 12  1  0
 10 11  2  0
 13 12  1  1
 13 14  1  0
 13 15  1  0
 15 16  2  0
 18 17  1  1
 18 19  1  0
 20 18  1  0
 21 15  1  0
 20 21  1  6
 22 23  1  0
 22 20  1  0
 24 22  2  0
M  END
$$$$
