DNT.pdb
     RDKit          3D

 24 23  0  0  1  0  0  0  0  0999 V2000
   10.6077  -18.7661   21.0856 N   0  0  0  0  0  0  0  0  0  0  0  0
   11.5918  -17.7761   20.6205 C   0  0  1  0  0  0  0  0  0  0  0  0
   12.1002  -18.2895   19.3189 C   0  0  0  0  0  0  0  0  0  0  0  0
   13.0175  -19.4032   19.4864 C   0  0  0  0  0  0  0  0  0  0  0  0
   14.0928  -19.4284   20.1069 O   0  0  0  0  0  0  0  0  0  0  0  0
   10.9417  -16.4406   20.5617 C   0  0  0  0  0  0  0  0  0  0  0  0
   11.5039  -15.3986   20.1746 O   0  0  0  0  0  0  0  0  0  0  0  0
   12.6623  -20.6264   18.8740 O   0  0  0  0  0  0  0  0  0  0  0  0
    7.6874  -12.5072   20.6527 N   0  0  0  0  0  0  0  0  0  0  0  0
    7.0001  -13.6495   20.1889 C   0  0  0  0  0  0  0  0  0  0  0  0
    5.8750  -13.4986   19.6621 O   0  0  0  0  0  0  0  0  0  0  0  0
    7.5640  -15.0113   20.3052 C   0  0  0  0  0  0  0  0  0  0  0  0
    8.9371  -14.9793   20.9229 C   0  0  2  0  0  0  0  0  0  0  0  0
    9.5633  -16.2777   20.9693 N   0  0  0  0  0  0  0  0  0  0  0  0
    8.7643  -14.4594   22.3181 C   0  0  0  0  0  0  0  0  0  0  0  0
    8.2726  -13.3179   22.4594 O   0  0  0  0  0  0  0  0  0  0  0  0
    7.1802  -13.3131   24.0019 C   0  0  0  0  0  0  0  0  0  0  0  0
    7.6711  -14.3326   24.9764 C   0  0  1  0  0  0  0  0  0  0  0  0
    6.8562  -15.4773   24.8602 O   0  0  0  0  0  0  0  0  0  0  0  0
    9.0756  -14.7930   24.7685 C   0  0  2  0  0  0  0  0  0  0  0  0
    9.1637  -15.2804   23.4009 N   0  0  0  0  0  0  0  0  0  0  0  0
    9.5372  -15.8432   25.6790 C   0  0  0  0  0  0  0  0  0  0  0  0
    9.8844  -17.1283   25.2566 O   0  0  0  0  0  0  0  0  0  0  0  0
    9.6379  -15.6148   26.8981 O   0  0  0  0  0  0  0  0  0  0  0  0
  2  1  1  6
  2  3  1  0
  3  4  1  0
  4  5  2  0
  4  8  1  0
  6  2  1  0
  6 14  1  0
  7  6  2  0
  9 10  1  0
 10 12  1  0
 10 11  2  0
 13 12  1  1
 13 14  1  0
 13 15  1  0
 15 16  2  0
 18 17  1  6
 18 19  1  0
 20 18  1  0
 21 15  1  0
 20 21  1  6
 22 23  1  0
 22 20  1  0
 24 22  2  0
M  END
$$$$
