AWI.pdb
     RDKit          3D

 28 29  0  0  1  0  0  0  0  0999 V2000
   12.4055  -18.2171   20.1979 C   0  0  0  0  0  0  0  0  0  0  0  0
   11.0307  -17.6327   19.9848 C   0  0  2  0  0  0  0  0  0  0  0  0
   11.0686  -16.7811   18.8331 N   0  0  0  0  0  0  0  0  0  0  0  0
   10.6076  -16.8495   21.1788 C   0  0  0  0  0  0  0  0  0  0  0  0
   11.1972  -15.7722   21.4614 O   0  0  0  0  0  0  0  0  0  0  0  0
    9.5537  -17.2652   22.0290 N   0  0  0  0  0  0  0  0  0  0  0  0
    9.0530  -16.5143   23.1481 C   0  0  1  0  0  0  0  0  0  0  0  0
    7.5904  -16.6647   23.3303 C   0  0  0  0  0  0  0  0  0  0  0  0
    6.9820  -15.7901   24.3554 C   0  0  0  0  0  0  0  0  0  0  0  0
    6.2182  -16.2298   25.4233 C   0  0  0  0  0  0  0  0  0  0  0  0
    5.8767  -15.1468   26.1354 N   0  0  0  0  0  0  0  0  0  0  0  0
    6.3897  -14.0447   25.5655 C   0  0  0  0  0  0  0  0  0  0  0  0
    6.2907  -12.7363   25.9444 C   0  0  0  0  0  0  0  0  0  0  0  0
    6.9041  -11.7706   25.1865 C   0  0  0  0  0  0  0  0  0  0  0  0
    7.6132  -12.1015   24.0561 C   0  0  0  0  0  0  0  0  0  0  0  0
    7.7065  -13.4370   23.6812 C   0  0  0  0  0  0  0  0  0  0  0  0
    7.0936  -14.4123   24.4386 C   0  0  0  0  0  0  0  0  0  0  0  0
    9.8813  -16.7494   24.3222 C   0  0  0  0  0  0  0  0  0  0  0  0
   10.6652  -17.7351   24.2964 O   0  0  0  0  0  0  0  0  0  0  0  0
    9.8197  -13.8408   29.5585 C   0  0  0  0  0  0  0  0  0  0  0  0
    9.6998  -14.9682   28.5703 C   0  0  0  0  0  0  0  0  0  0  0  0
   10.7938  -15.0665   27.5740 C   0  0  2  0  0  0  0  0  0  0  0  0
   10.9505  -13.7087   26.9181 C   0  0  0  0  0  0  0  0  0  0  0  0
   10.7193  -16.1726   26.5814 C   0  0  2  0  0  0  0  0  0  0  0  0
    9.8468  -15.9271   25.4835 N   0  0  0  0  0  0  0  0  0  0  0  0
   10.4183  -17.4827   27.1823 C   0  0  0  0  0  0  0  0  0  0  0  0
   11.3051  -18.1566   28.0133 O   0  0  0  0  0  0  0  0  0  0  0  0
    9.3217  -18.0592   26.9651 O   0  0  0  0  0  0  0  0  0  0  0  0
  2  4  1  0
  2  1  1  1
  2  3  1  0
  4  5  2  0
  6  7  1  0
  6  4  1  0
  7  8  1  1
  8  9  1  0
  9 17  1  0
 10  9  2  0
 10 11  1  0
 11 12  1  0
 12 17  2  0
 12 13  1  0
 13 14  2  0
 14 15  1  0
 16 15  2  0
 17 16  1  0
 18 19  2  0
 18  7  1  0
 21 22  1  0
 21 20  1  0
 22 23  1  6
 24 25  1  6
 24 22  1  0
 25 18  1  0
 26 24  1  0
 27 26  1  0
 28 26  2  0
M  END
$$$$
