AWI.pdb
     RDKit          3D

 28 29  0  0  1  0  0  0  0  0999 V2000
   11.4331  -20.1241   21.2325 C   0  0  0  0  0  0  0  0  0  0  0  0
   10.6763  -18.9608   20.6402 C   0  0  2  0  0  0  0  0  0  0  0  0
   11.3967  -18.4791   19.4992 N   0  0  0  0  0  0  0  0  0  0  0  0
   10.5308  -17.8699   21.6436 C   0  0  0  0  0  0  0  0  0  0  0  0
   11.4543  -17.0245   21.7870 O   0  0  0  0  0  0  0  0  0  0  0  0
    9.3820  -17.7338   22.4609 N   0  0  0  0  0  0  0  0  0  0  0  0
    9.1509  -16.6567   23.3847 C   0  0  1  0  0  0  0  0  0  0  0  0
    7.7730  -16.1181   23.3032 C   0  0  0  0  0  0  0  0  0  0  0  0
    7.6166  -14.7031   23.7022 C   0  0  0  0  0  0  0  0  0  0  0  0
    8.0973  -13.6184   22.9885 C   0  0  0  0  0  0  0  0  0  0  0  0
    7.7316  -12.5149   23.6555 N   0  0  0  0  0  0  0  0  0  0  0  0
    7.0429  -12.8539   24.7570 C   0  0  0  0  0  0  0  0  0  0  0  0
    6.4888  -12.0614   25.7215 C   0  0  0  0  0  0  0  0  0  0  0  0
    5.8288  -12.6466   26.7728 C   0  0  0  0  0  0  0  0  0  0  0  0
    5.7191  -14.0138   26.8673 C   0  0  0  0  0  0  0  0  0  0  0  0
    6.2874  -14.8094   25.8790 C   0  0  0  0  0  0  0  0  0  0  0  0
    6.9509  -14.2280   24.8197 C   0  0  0  0  0  0  0  0  0  0  0  0
    9.6284  -17.0209   24.7110 C   0  0  0  0  0  0  0  0  0  0  0  0
    9.7485  -18.2472   24.9725 O   0  0  0  0  0  0  0  0  0  0  0  0
   10.3372  -13.4868   29.4252 C   0  0  0  0  0  0  0  0  0  0  0  0
    9.8779  -14.5908   28.5129 C   0  0  0  0  0  0  0  0  0  0  0  0
   10.9551  -15.3545   27.8380 C   0  0  2  0  0  0  0  0  0  0  0  0
   11.8649  -14.3615   27.1420 C   0  0  0  0  0  0  0  0  0  0  0  0
   10.5463  -16.4735   26.9463 C   0  0  2  0  0  0  0  0  0  0  0  0
    9.9618  -16.0670   25.7135 N   0  0  0  0  0  0  0  0  0  0  0  0
    9.6871  -17.4692   27.6084 C   0  0  0  0  0  0  0  0  0  0  0  0
    8.4073  -17.7798   27.1651 O   0  0  0  0  0  0  0  0  0  0  0  0
   10.0843  -18.0953   28.6246 O   0  0  0  0  0  0  0  0  0  0  0  0
  2  4  1  0
  2  1  1  1
  2  3  1  0
  4  5  2  0
  6  7  1  0
  6  4  1  0
  7  8  1  1
  8  9  1  0
  9 17  1  0
 10  9  2  0
 10 11  1  0
 11 12  1  0
 12 17  2  0
 12 13  1  0
 13 14  2  0
 14 15  1  0
 16 15  2  0
 17 16  1  0
 18 19  2  0
 18  7  1  0
 21 22  1  0
 21 20  1  0
 22 23  1  6
 24 25  1  6
 24 22  1  0
 25 18  1  0
 26 24  1  0
 27 26  1  0
 28 26  2  0
M  END
$$$$
