AWI.pdb
     RDKit          3D

 28 29  0  0  1  0  0  0  0  0999 V2000
   12.0985  -18.5450   20.6917 C   0  0  0  0  0  0  0  0  0  0  0  0
   11.0811  -17.5532   20.1835 C   0  0  2  0  0  0  0  0  0  0  0  0
   11.6944  -16.7461   19.1709 N   0  0  0  0  0  0  0  0  0  0  0  0
   10.5976  -16.6881   21.2953 C   0  0  0  0  0  0  0  0  0  0  0  0
   11.1784  -15.5960   21.5361 O   0  0  0  0  0  0  0  0  0  0  0  0
    9.4947  -17.0404   22.1113 N   0  0  0  0  0  0  0  0  0  0  0  0
    8.9922  -16.2515   23.2030 C   0  0  1  0  0  0  0  0  0  0  0  0
    7.5123  -16.1872   23.2295 C   0  0  0  0  0  0  0  0  0  0  0  0
    6.9265  -15.4383   24.3617 C   0  0  0  0  0  0  0  0  0  0  0  0
    6.1555  -15.9946   25.3684 C   0  0  0  0  0  0  0  0  0  0  0  0
    5.8406  -15.0048   26.2155 N   0  0  0  0  0  0  0  0  0  0  0  0
    6.3770  -13.8502   25.7891 C   0  0  0  0  0  0  0  0  0  0  0  0
    6.3088  -12.5995   26.3335 C   0  0  0  0  0  0  0  0  0  0  0  0
    6.9420  -11.5582   25.7027 C   0  0  0  0  0  0  0  0  0  0  0  0
    7.6406  -11.7568   24.5353 C   0  0  0  0  0  0  0  0  0  0  0  0
    7.7025  -13.0348   23.9914 C   0  0  0  0  0  0  0  0  0  0  0  0
    7.0695  -14.0855   24.6205 C   0  0  0  0  0  0  0  0  0  0  0  0
    9.6479  -16.6363   24.4447 C   0  0  0  0  0  0  0  0  0  0  0  0
   10.0312  -17.8309   24.5572 O   0  0  0  0  0  0  0  0  0  0  0  0
   10.4307  -13.7154   29.7116 C   0  0  0  0  0  0  0  0  0  0  0  0
   10.0708  -14.8667   28.8133 C   0  0  0  0  0  0  0  0  0  0  0  0
   10.9356  -15.0450   27.6219 C   0  0  2  0  0  0  0  0  0  0  0  0
   11.0505  -13.7039   26.9243 C   0  0  0  0  0  0  0  0  0  0  0  0
   10.5904  -16.1468   26.6832 C   0  0  2  0  0  0  0  0  0  0  0  0
    9.8729  -15.7362   25.5241 N   0  0  0  0  0  0  0  0  0  0  0  0
    9.9014  -17.2760   27.3299 C   0  0  0  0  0  0  0  0  0  0  0  0
   10.5465  -18.1776   28.1676 O   0  0  0  0  0  0  0  0  0  0  0  0
    8.6728  -17.4758   27.1484 O   0  0  0  0  0  0  0  0  0  0  0  0
  2  4  1  0
  2  1  1  1
  2  3  1  0
  4  5  2  0
  6  7  1  0
  6  4  1  0
  7  8  1  1
  8  9  1  0
  9 17  1  0
 10  9  2  0
 10 11  1  0
 11 12  1  0
 12 17  2  0
 12 13  1  0
 13 14  2  0
 14 15  1  0
 16 15  2  0
 17 16  1  0
 18 19  2  0
 18  7  1  0
 21 22  1  0
 21 20  1  0
 22 23  1  6
 24 25  1  6
 24 22  1  0
 25 18  1  0
 26 24  1  0
 27 26  1  0
 28 26  2  0
M  END
$$$$
