AWI.pdb
     RDKit          3D

 28 29  0  0  1  0  0  0  0  0999 V2000
   12.0985  -18.1123   20.6270 C   0  0  0  0  0  0  0  0  0  0  0  0
   10.8072  -17.3552   20.4372 C   0  0  2  0  0  0  0  0  0  0  0  0
   10.9908  -16.3911   19.3932 N   0  0  0  0  0  0  0  0  0  0  0  0
   10.4179  -16.6660   21.6988 C   0  0  0  0  0  0  0  0  0  0  0  0
   10.9242  -15.5474   21.9825 O   0  0  0  0  0  0  0  0  0  0  0  0
    9.4878  -17.2180   22.6134 N   0  0  0  0  0  0  0  0  0  0  0  0
    8.9993  -16.5557   23.7922 C   0  0  1  0  0  0  0  0  0  0  0  0
    7.6158  -16.9548   24.1415 C   0  0  0  0  0  0  0  0  0  0  0  0
    6.7877  -15.9031   24.7693 C   0  0  0  0  0  0  0  0  0  0  0  0
    5.4817  -16.0702   25.1978 C   0  0  0  0  0  0  0  0  0  0  0  0
    5.0908  -14.9049   25.7324 N   0  0  0  0  0  0  0  0  0  0  0  0
    6.0899  -14.0109   25.6603 C   0  0  0  0  0  0  0  0  0  0  0  0
    6.1319  -12.7099   26.0736 C   0  0  0  0  0  0  0  0  0  0  0  0
    7.2799  -11.9826   25.8831 C   0  0  0  0  0  0  0  0  0  0  0  0
    8.3829  -12.5440   25.2842 C   0  0  0  0  0  0  0  0  0  0  0  0
    8.3273  -13.8693   24.8681 C   0  0  0  0  0  0  0  0  0  0  0  0
    7.1775  -14.6059   25.0573 C   0  0  0  0  0  0  0  0  0  0  0  0
    9.9869  -16.6348   24.8590 C   0  0  0  0  0  0  0  0  0  0  0  0
   10.9025  -17.4923   24.7452 O   0  0  0  0  0  0  0  0  0  0  0  0
   10.0411  -14.9026   30.4001 C   0  0  0  0  0  0  0  0  0  0  0  0
    9.7629  -14.7440   28.9305 C   0  0  0  0  0  0  0  0  0  0  0  0
   10.9456  -14.8357   28.0406 C   0  0  2  0  0  0  0  0  0  0  0  0
   11.1748  -13.4683   27.4275 C   0  0  0  0  0  0  0  0  0  0  0  0
   10.9565  -15.9236   27.0253 C   0  0  2  0  0  0  0  0  0  0  0  0
    9.9660  -15.7982   26.0104 N   0  0  0  0  0  0  0  0  0  0  0  0
   10.9121  -17.2742   27.6101 C   0  0  0  0  0  0  0  0  0  0  0  0
   11.9617  -17.8183   28.3403 O   0  0  0  0  0  0  0  0  0  0  0  0
    9.8999  -18.0080   27.4714 O   0  0  0  0  0  0  0  0  0  0  0  0
  2  4  1  0
  2  1  1  1
  2  3  1  0
  4  5  2  0
  6  7  1  0
  6  4  1  0
  7  8  1  1
  8  9  1  0
  9 17  1  0
 10  9  2  0
 10 11  1  0
 11 12  1  0
 12 17  2  0
 12 13  1  0
 13 14  2  0
 14 15  1  0
 16 15  2  0
 17 16  1  0
 18 19  2  0
 18  7  1  0
 21 22  1  0
 21 20  1  0
 22 23  1  6
 24 25  1  6
 24 22  1  0
 25 18  1  0
 26 24  1  0
 27 26  1  0
 28 26  2  0
M  END
$$$$
