AWI.pdb
     RDKit          3D

 28 29  0  0  1  0  0  0  0  0999 V2000
   12.3402  -18.1219   20.6868 C   0  0  0  0  0  0  0  0  0  0  0  0
   11.3101  -17.1638   20.1409 C   0  0  2  0  0  0  0  0  0  0  0  0
   11.9476  -16.2953   19.1963 N   0  0  0  0  0  0  0  0  0  0  0  0
   10.7117  -16.3601   21.2427 C   0  0  0  0  0  0  0  0  0  0  0  0
   11.2200  -15.2499   21.5546 O   0  0  0  0  0  0  0  0  0  0  0  0
    9.5764  -16.7916   21.9715 N   0  0  0  0  0  0  0  0  0  0  0  0
    9.0223  -16.1129   23.1114 C   0  0  1  0  0  0  0  0  0  0  0  0
    7.5562  -16.2923   23.2278 C   0  0  0  0  0  0  0  0  0  0  0  0
    6.9000  -15.5062   24.2942 C   0  0  0  0  0  0  0  0  0  0  0  0
    6.0060  -16.0152   25.2209 C   0  0  0  0  0  0  0  0  0  0  0  0
    5.6594  -15.0044   26.0299 N   0  0  0  0  0  0  0  0  0  0  0  0
    6.2933  -13.8815   25.6557 C   0  0  0  0  0  0  0  0  0  0  0  0
    6.2350  -12.6248   26.1872 C   0  0  0  0  0  0  0  0  0  0  0  0
    6.9796  -11.6215   25.6195 C   0  0  0  0  0  0  0  0  0  0  0  0
    7.7793  -11.8640   24.5277 C   0  0  0  0  0  0  0  0  0  0  0  0
    7.8298  -13.1477   23.9962 C   0  0  0  0  0  0  0  0  0  0  0  0
    7.0852  -14.1603   24.5622 C   0  0  0  0  0  0  0  0  0  0  0  0
    9.8087  -16.4047   24.3014 C   0  0  0  0  0  0  0  0  0  0  0  0
   10.6579  -17.3322   24.2277 O   0  0  0  0  0  0  0  0  0  0  0  0
    9.8115  -12.8231   28.7780 C   0  0  0  0  0  0  0  0  0  0  0  0
   10.1829  -13.6594   27.5844 C   0  0  0  0  0  0  0  0  0  0  0  0
   10.2805  -15.1187   27.8293 C   0  0  2  0  0  0  0  0  0  0  0  0
   11.3190  -15.3414   28.9111 C   0  0  0  0  0  0  0  0  0  0  0  0
   10.4914  -15.9991   26.6484 C   0  0  2  0  0  0  0  0  0  0  0  0
    9.6642  -15.6992   25.5291 N   0  0  0  0  0  0  0  0  0  0  0  0
   10.4125  -17.4352   26.9640 C   0  0  0  0  0  0  0  0  0  0  0  0
    9.2432  -18.1753   26.8383 O   0  0  0  0  0  0  0  0  0  0  0  0
   11.4225  -18.0667   27.3683 O   0  0  0  0  0  0  0  0  0  0  0  0
  2  4  1  0
  2  1  1  1
  2  3  1  0
  4  5  2  0
  6  7  1  0
  6  4  1  0
  7  8  1  1
  8  9  1  0
  9 17  1  0
 10  9  2  0
 10 11  1  0
 11 12  1  0
 12 17  2  0
 12 13  1  0
 13 14  2  0
 14 15  1  0
 16 15  2  0
 17 16  1  0
 18 19  2  0
 18  7  1  0
 21 22  1  0
 21 20  1  0
 22 23  1  1
 24 25  1  6
 24 22  1  0
 25 18  1  0
 26 24  1  0
 27 26  1  0
 28 26  2  0
M  END
$$$$
