AWI.pdb
     RDKit          3D

 28 29  0  0  1  0  0  0  0  0999 V2000
   11.7661  -18.5081   20.5348 C   0  0  0  0  0  0  0  0  0  0  0  0
   10.5024  -17.7305   20.2602 C   0  0  2  0  0  0  0  0  0  0  0  0
   10.7254  -16.8787   19.1299 N   0  0  0  0  0  0  0  0  0  0  0  0
   10.1285  -16.9100   21.4455 C   0  0  0  0  0  0  0  0  0  0  0  0
   10.5805  -15.7396   21.5639 O   0  0  0  0  0  0  0  0  0  0  0  0
    9.2727  -17.3910   22.4666 N   0  0  0  0  0  0  0  0  0  0  0  0
    8.8837  -16.6473   23.6338 C   0  0  1  0  0  0  0  0  0  0  0  0
    7.5000  -16.9481   24.0696 C   0  0  0  0  0  0  0  0  0  0  0  0
    6.7821  -15.8353   24.7271 C   0  0  0  0  0  0  0  0  0  0  0  0
    5.5278  -15.9306   25.3059 C   0  0  0  0  0  0  0  0  0  0  0  0
    5.2373  -14.7259   25.8164 N   0  0  0  0  0  0  0  0  0  0  0  0
    6.2503  -13.8754   25.5858 C   0  0  0  0  0  0  0  0  0  0  0  0
    6.3806  -12.5578   25.9208 C   0  0  0  0  0  0  0  0  0  0  0  0
    7.5228  -11.8853   25.5654 C   0  0  0  0  0  0  0  0  0  0  0  0
    8.5327  -12.5178   24.8796 C   0  0  0  0  0  0  0  0  0  0  0  0
    8.3879  -13.8593   24.5447 C   0  0  0  0  0  0  0  0  0  0  0  0
    7.2435  -14.5411   24.8995 C   0  0  0  0  0  0  0  0  0  0  0  0
    9.9192  -16.7345   24.6535 C   0  0  0  0  0  0  0  0  0  0  0  0
   10.8421  -17.5738   24.4788 O   0  0  0  0  0  0  0  0  0  0  0  0
   10.0033  -13.5940   29.6328 C   0  0  0  0  0  0  0  0  0  0  0  0
    9.9811  -14.8692   28.8358 C   0  0  0  0  0  0  0  0  0  0  0  0
   11.0415  -15.0011   27.8076 C   0  0  2  0  0  0  0  0  0  0  0  0
   11.1985  -13.6568   27.1246 C   0  0  0  0  0  0  0  0  0  0  0  0
   10.9186  -16.1218   26.8363 C   0  0  2  0  0  0  0  0  0  0  0  0
    9.9367  -15.9253   25.8244 N   0  0  0  0  0  0  0  0  0  0  0  0
   10.7298  -17.4352   27.4747 C   0  0  0  0  0  0  0  0  0  0  0  0
   11.6922  -18.0309   28.2808 O   0  0  0  0  0  0  0  0  0  0  0  0
    9.6659  -18.0869   27.3150 O   0  0  0  0  0  0  0  0  0  0  0  0
  2  4  1  0
  2  1  1  1
  2  3  1  0
  4  5  2  0
  6  7  1  0
  6  4  1  0
  7  8  1  1
  8  9  1  0
  9 17  1  0
 10  9  2  0
 10 11  1  0
 11 12  1  0
 12 17  2  0
 12 13  1  0
 13 14  2  0
 14 15  1  0
 16 15  2  0
 17 16  1  0
 18 19  2  0
 18  7  1  0
 21 22  1  0
 21 20  1  0
 22 23  1  6
 24 25  1  6
 24 22  1  0
 25 18  1  0
 26 24  1  0
 27 26  1  0
 28 26  2  0
M  END
$$$$
