AWI.pdb
     RDKit          3D

 28 29  0  0  1  0  0  0  0  0999 V2000
    8.3190  -21.5954   26.3856 C   0  0  0  0  0  0  0  0  0  0  0  0
    7.5945  -21.1614   25.1351 C   0  0  2  0  0  0  0  0  0  0  0  0
    7.8525  -22.1187   24.1007 N   0  0  0  0  0  0  0  0  0  0  0  0
    8.0610  -19.8141   24.7047 C   0  0  0  0  0  0  0  0  0  0  0  0
    9.0891  -19.7089   23.9835 O   0  0  0  0  0  0  0  0  0  0  0  0
    7.3919  -18.6215   25.0740 N   0  0  0  0  0  0  0  0  0  0  0  0
    7.7754  -17.2994   24.6594 C   0  0  1  0  0  0  0  0  0  0  0  0
    6.6604  -16.3272   24.7426 C   0  0  0  0  0  0  0  0  0  0  0  0
    6.9927  -14.9404   24.3525 C   0  0  0  0  0  0  0  0  0  0  0  0
    7.5790  -14.5709   23.1538 C   0  0  0  0  0  0  0  0  0  0  0  0
    7.6906  -13.2354   23.1654 N   0  0  0  0  0  0  0  0  0  0  0  0
    7.2022  -12.7458   24.3162 C   0  0  0  0  0  0  0  0  0  0  0  0
    7.1195  -11.4545   24.7531 C   0  0  0  0  0  0  0  0  0  0  0  0
    6.5790  -11.1978   25.9881 C   0  0  0  0  0  0  0  0  0  0  0  0
    6.1223  -12.2189   26.7875 C   0  0  0  0  0  0  0  0  0  0  0  0
    6.2121  -13.5290   26.3312 C   0  0  0  0  0  0  0  0  0  0  0  0
    6.7530  -13.7938   25.0911 C   0  0  0  0  0  0  0  0  0  0  0  0
    9.0232  -16.9130   25.3024 C   0  0  0  0  0  0  0  0  0  0  0  0
    9.7989  -16.1535   24.6637 O   0  0  0  0  0  0  0  0  0  0  0  0
    9.6602  -13.9203   29.6202 C   0  0  0  0  0  0  0  0  0  0  0  0
    9.6203  -15.2900   29.0001 C   0  0  0  0  0  0  0  0  0  0  0  0
   10.4411  -15.4643   27.7774 C   0  0  2  0  0  0  0  0  0  0  0  0
    9.9468  -14.4762   26.7393 C   0  0  0  0  0  0  0  0  0  0  0  0
   10.5749  -16.8426   27.2327 C   0  0  2  0  0  0  0  0  0  0  0  0
    9.4024  -17.3486   26.6034 N   0  0  0  0  0  0  0  0  0  0  0  0
   11.0813  -17.8163   28.2143 C   0  0  0  0  0  0  0  0  0  0  0  0
   10.3866  -18.9667   28.5677 O   0  0  0  0  0  0  0  0  0  0  0  0
   12.1886  -17.6448   28.7860 O   0  0  0  0  0  0  0  0  0  0  0  0
  2  4  1  0
  2  1  1  1
  2  3  1  0
  4  5  2  0
  6  7  1  0
  6  4  1  0
  7  8  1  1
  8  9  1  0
  9 17  1  0
 10  9  2  0
 10 11  1  0
 11 12  1  0
 12 17  2  0
 12 13  1  0
 13 14  2  0
 14 15  1  0
 16 15  2  0
 17 16  1  0
 18 19  2  0
 18  7  1  0
 21 22  1  0
 21 20  1  0
 22 23  1  6
 24 25  1  1
 24 22  1  0
 25 18  1  0
 26 24  1  0
 27 26  1  0
 28 26  2  0
M  END
$$$$
