AWI.pdb
     RDKit          3D

 28 29  0  0  1  0  0  0  0  0999 V2000
   11.3619  -20.0683   21.1237 C   0  0  0  0  0  0  0  0  0  0  0  0
   10.8414  -18.8094   20.4747 C   0  0  2  0  0  0  0  0  0  0  0  0
   11.7729  -18.3942   19.4682 N   0  0  0  0  0  0  0  0  0  0  0  0
   10.6785  -17.7306   21.4885 C   0  0  0  0  0  0  0  0  0  0  0  0
   11.6225  -16.9231   21.6999 O   0  0  0  0  0  0  0  0  0  0  0  0
    9.4903  -17.5650   22.2415 N   0  0  0  0  0  0  0  0  0  0  0  0
    9.2420  -16.4899   23.1631 C   0  0  1  0  0  0  0  0  0  0  0  0
    7.8868  -15.9098   23.0145 C   0  0  0  0  0  0  0  0  0  0  0  0
    7.7527  -14.4920   23.4115 C   0  0  0  0  0  0  0  0  0  0  0  0
    8.2465  -13.4157   22.6940 C   0  0  0  0  0  0  0  0  0  0  0  0
    7.8996  -12.3058   23.3604 N   0  0  0  0  0  0  0  0  0  0  0  0
    7.2103  -12.6327   24.4652 C   0  0  0  0  0  0  0  0  0  0  0  0
    6.6716  -11.8304   25.4303 C   0  0  0  0  0  0  0  0  0  0  0  0
    6.0073  -12.4040   26.4852 C   0  0  0  0  0  0  0  0  0  0  0  0
    5.8778  -13.7693   26.5827 C   0  0  0  0  0  0  0  0  0  0  0  0
    6.4305  -14.5749   25.5936 C   0  0  0  0  0  0  0  0  0  0  0  0
    7.0983  -14.0051   24.5307 C   0  0  0  0  0  0  0  0  0  0  0  0
    9.6375  -16.8799   24.5089 C   0  0  0  0  0  0  0  0  0  0  0  0
    9.6304  -18.1084   24.7870 O   0  0  0  0  0  0  0  0  0  0  0  0
    9.9175  -13.6261   29.4295 C   0  0  0  0  0  0  0  0  0  0  0  0
    9.6094  -14.6855   28.4074 C   0  0  0  0  0  0  0  0  0  0  0  0
   10.7862  -15.3063   27.7527 C   0  0  2  0  0  0  0  0  0  0  0  0
   11.6409  -14.1938   27.1781 C   0  0  0  0  0  0  0  0  0  0  0  0
   10.5292  -16.3925   26.7685 C   0  0  2  0  0  0  0  0  0  0  0  0
   10.0270  -15.9487   25.5125 N   0  0  0  0  0  0  0  0  0  0  0  0
    9.6834  -17.4760   27.2961 C   0  0  0  0  0  0  0  0  0  0  0  0
   10.0769  -18.3041   28.3403 O   0  0  0  0  0  0  0  0  0  0  0  0
    8.5436  -17.7021   26.8144 O   0  0  0  0  0  0  0  0  0  0  0  0
  2  4  1  0
  2  1  1  1
  2  3  1  0
  4  5  2  0
  6  7  1  0
  6  4  1  0
  7  8  1  1
  8  9  1  0
  9 17  1  0
 10  9  2  0
 10 11  1  0
 11 12  1  0
 12 17  2  0
 12 13  1  0
 13 14  2  0
 14 15  1  0
 16 15  2  0
 17 16  1  0
 18 19  2  0
 18  7  1  0
 21 22  1  0
 21 20  1  0
 22 23  1  6
 24 25  1  6
 24 22  1  0
 25 18  1  0
 26 24  1  0
 27 26  1  0
 28 26  2  0
M  END
$$$$
