AWI.pdb
     RDKit          3D

 28 29  0  0  1  0  0  0  0  0999 V2000
   10.8388  -20.4110   21.5344 C   0  0  0  0  0  0  0  0  0  0  0  0
   10.3444  -19.1906   20.7973 C   0  0  2  0  0  0  0  0  0  0  0  0
   11.2196  -18.9380   19.6912 N   0  0  0  0  0  0  0  0  0  0  0  0
   10.3215  -18.0092   21.7037 C   0  0  0  0  0  0  0  0  0  0  0  0
   11.3426  -17.2774   21.8036 O   0  0  0  0  0  0  0  0  0  0  0  0
    9.1851  -17.6613   22.4744 N   0  0  0  0  0  0  0  0  0  0  0  0
    9.0896  -16.5079   23.3273 C   0  0  1  0  0  0  0  0  0  0  0  0
    7.7675  -15.8441   23.2467 C   0  0  0  0  0  0  0  0  0  0  0  0
    7.7435  -14.4199   23.6429 C   0  0  0  0  0  0  0  0  0  0  0  0
    8.4396  -13.4062   23.0065 C   0  0  0  0  0  0  0  0  0  0  0  0
    8.1380  -12.2640   23.6396 N   0  0  0  0  0  0  0  0  0  0  0  0
    7.2843  -12.5109   24.6461 C   0  0  0  0  0  0  0  0  0  0  0  0
    6.7223  -11.6527   25.5477 C   0  0  0  0  0  0  0  0  0  0  0  0
    5.8720  -12.1477   26.5044 C   0  0  0  0  0  0  0  0  0  0  0  0
    5.5804  -13.4898   26.5668 C   0  0  0  0  0  0  0  0  0  0  0  0
    6.1589  -14.3528   25.6432 C   0  0  0  0  0  0  0  0  0  0  0  0
    7.0131  -13.8621   24.6789 C   0  0  0  0  0  0  0  0  0  0  0  0
    9.5752  -16.8281   24.6619 C   0  0  0  0  0  0  0  0  0  0  0  0
    9.3239  -17.9760   25.1154 O   0  0  0  0  0  0  0  0  0  0  0  0
   10.6150  -12.7379   28.3956 C   0  0  0  0  0  0  0  0  0  0  0  0
   10.8660  -13.8037   27.3646 C   0  0  0  0  0  0  0  0  0  0  0  0
   10.5774  -15.1931   27.7953 C   0  0  2  0  0  0  0  0  0  0  0  0
   11.3738  -15.4652   29.0562 C   0  0  0  0  0  0  0  0  0  0  0  0
   10.7318  -16.2710   26.7811 C   0  0  2  0  0  0  0  0  0  0  0  0
   10.3120  -15.9152   25.4681 N   0  0  0  0  0  0  0  0  0  0  0  0
   10.1144  -17.5467   27.1802 C   0  0  0  0  0  0  0  0  0  0  0  0
    8.7513  -17.7948   27.0734 O   0  0  0  0  0  0  0  0  0  0  0  0
   10.8099  -18.4868   27.6437 O   0  0  0  0  0  0  0  0  0  0  0  0
  2  4  1  0
  2  1  1  1
  2  3  1  0
  4  5  2  0
  6  7  1  0
  6  4  1  0
  7  8  1  1
  8  9  1  0
  9 17  1  0
 10  9  2  0
 10 11  1  0
 11 12  1  0
 12 17  2  0
 12 13  1  0
 13 14  2  0
 14 15  1  0
 16 15  2  0
 17 16  1  0
 18 19  2  0
 18  7  1  0
 21 22  1  0
 21 20  1  0
 22 23  1  1
 24 25  1  6
 24 22  1  0
 25 18  1  0
 26 24  1  0
 27 26  1  0
 28 26  2  0
M  END
$$$$
