AWI.pdb
     RDKit          3D

 28 29  0  0  1  0  0  0  0  0999 V2000
   11.0721  -16.4902   19.4375 C   0  0  0  0  0  0  0  0  0  0  0  0
   11.2736  -17.3128   20.6864 C   0  0  2  0  0  0  0  0  0  0  0  0
   10.5548  -18.5441   20.5446 N   0  0  0  0  0  0  0  0  0  0  0  0
   10.7796  -16.5739   21.8814 C   0  0  0  0  0  0  0  0  0  0  0  0
   11.3055  -15.4733   22.1979 O   0  0  0  0  0  0  0  0  0  0  0  0
    9.7264  -17.0579   22.6955 N   0  0  0  0  0  0  0  0  0  0  0  0
    9.2415  -16.4127   23.8853 C   0  0  1  0  0  0  0  0  0  0  0  0
    7.7623  -16.3467   23.9386 C   0  0  0  0  0  0  0  0  0  0  0  0
    7.1764  -15.0027   23.7478 C   0  0  0  0  0  0  0  0  0  0  0  0
    6.8044  -14.4640   22.5278 C   0  0  0  0  0  0  0  0  0  0  0  0
    6.2931  -13.2496   22.7732 N   0  0  0  0  0  0  0  0  0  0  0  0
    6.3260  -12.9978   24.0916 C   0  0  0  0  0  0  0  0  0  0  0  0
    5.9177  -11.8925   24.7822 C   0  0  0  0  0  0  0  0  0  0  0  0
    6.0615  -11.8633   26.1466 C   0  0  0  0  0  0  0  0  0  0  0  0
    6.6090  -12.9271   26.8240 C   0  0  0  0  0  0  0  0  0  0  0  0
    7.0206  -14.0463   26.1094 C   0  0  0  0  0  0  0  0  0  0  0  0
    6.8781  -14.0826   24.7388 C   0  0  0  0  0  0  0  0  0  0  0  0
    9.9101  -16.9551   25.0593 C   0  0  0  0  0  0  0  0  0  0  0  0
   10.5378  -18.0390   24.9257 O   0  0  0  0  0  0  0  0  0  0  0  0
   10.3870  -14.8297   30.4857 C   0  0  0  0  0  0  0  0  0  0  0  0
   10.1694  -14.8603   28.9979 C   0  0  0  0  0  0  0  0  0  0  0  0
   11.2437  -15.5067   28.2060 C   0  0  2  0  0  0  0  0  0  0  0  0
   11.9870  -14.4200   27.4544 C   0  0  0  0  0  0  0  0  0  0  0  0
   10.8577  -16.6440   27.3274 C   0  0  2  0  0  0  0  0  0  0  0  0
    9.8875  -16.3250   26.3355 N   0  0  0  0  0  0  0  0  0  0  0  0
   10.4443  -17.8465   28.0697 C   0  0  0  0  0  0  0  0  0  0  0  0
   11.2956  -18.5418   28.9199 O   0  0  0  0  0  0  0  0  0  0  0  0
    9.2775  -18.3046   27.9643 O   0  0  0  0  0  0  0  0  0  0  0  0
  2  4  1  0
  2  1  1  6
  2  3  1  0
  4  5  2  0
  6  7  1  0
  6  4  1  0
  7  8  1  1
  8  9  1  0
  9 17  1  0
 10  9  2  0
 10 11  1  0
 11 12  1  0
 12 17  2  0
 12 13  1  0
 13 14  2  0
 14 15  1  0
 16 15  2  0
 17 16  1  0
 18 19  2  0
 18  7  1  0
 21 22  1  0
 21 20  1  0
 22 23  1  6
 24 25  1  6
 24 22  1  0
 25 18  1  0
 26 24  1  0
 27 26  1  0
 28 26  2  0
M  END
$$$$
