AWI.pdb
     RDKit          3D

 28 29  0  0  1  0  0  0  0  0999 V2000
   12.6041  -18.2375   20.8745 C   0  0  0  0  0  0  0  0  0  0  0  0
   11.5016  -17.3530   20.3461 C   0  0  2  0  0  0  0  0  0  0  0  0
   12.0434  -16.5067   19.3246 N   0  0  0  0  0  0  0  0  0  0  0  0
   10.9318  -16.5210   21.4421 C   0  0  0  0  0  0  0  0  0  0  0  0
   11.4482  -15.4038   21.7126 O   0  0  0  0  0  0  0  0  0  0  0  0
    9.8154  -16.9329   22.2104 N   0  0  0  0  0  0  0  0  0  0  0  0
    9.2266  -16.1744   23.2804 C   0  0  1  0  0  0  0  0  0  0  0  0
    7.7460  -16.2290   23.2738 C   0  0  0  0  0  0  0  0  0  0  0  0
    7.0765  -15.5187   24.3843 C   0  0  0  0  0  0  0  0  0  0  0  0
    6.3663  -16.1288   25.4044 C   0  0  0  0  0  0  0  0  0  0  0  0
    5.9411  -15.1571   26.2237 N   0  0  0  0  0  0  0  0  0  0  0  0
    6.3500  -13.9626   25.7671 C   0  0  0  0  0  0  0  0  0  0  0  0
    6.1428  -12.7127   26.2772 C   0  0  0  0  0  0  0  0  0  0  0  0
    6.6613  -11.6257   25.6194 C   0  0  0  0  0  0  0  0  0  0  0  0
    7.3829  -11.7778   24.4590 C   0  0  0  0  0  0  0  0  0  0  0  0
    7.5868  -13.0554   23.9502 C   0  0  0  0  0  0  0  0  0  0  0  0
    7.0696  -14.1519   24.6065 C   0  0  0  0  0  0  0  0  0  0  0  0
    9.8826  -16.4908   24.5410 C   0  0  0  0  0  0  0  0  0  0  0  0
   10.4852  -17.5937   24.6254 O   0  0  0  0  0  0  0  0  0  0  0  0
    9.6574  -12.8356   28.9787 C   0  0  0  0  0  0  0  0  0  0  0  0
   10.1079  -13.6669   27.8091 C   0  0  0  0  0  0  0  0  0  0  0  0
   10.1774  -15.1285   28.0503 C   0  0  2  0  0  0  0  0  0  0  0  0
   11.1023  -15.3630   29.2284 C   0  0  0  0  0  0  0  0  0  0  0  0
   10.5032  -15.9999   26.8890 C   0  0  2  0  0  0  0  0  0  0  0  0
    9.8746  -15.6223   25.6687 N   0  0  0  0  0  0  0  0  0  0  0  0
   10.2823  -17.4324   27.1485 C   0  0  0  0  0  0  0  0  0  0  0  0
    9.0286  -18.0287   27.0876 O   0  0  0  0  0  0  0  0  0  0  0  0
   11.2399  -18.1936   27.4414 O   0  0  0  0  0  0  0  0  0  0  0  0
  2  4  1  0
  2  1  1  1
  2  3  1  0
  4  5  2  0
  6  7  1  0
  6  4  1  0
  7  8  1  1
  8  9  1  0
  9 17  1  0
 10  9  2  0
 10 11  1  0
 11 12  1  0
 12 17  2  0
 12 13  1  0
 13 14  2  0
 14 15  1  0
 16 15  2  0
 17 16  1  0
 18 19  2  0
 18  7  1  0
 21 22  1  0
 21 20  1  0
 22 23  1  1
 24 25  1  6
 24 22  1  0
 25 18  1  0
 26 24  1  0
 27 26  1  0
 28 26  2  0
M  END
$$$$
