AWI.pdb
     RDKit          3D

 28 29  0  0  1  0  0  0  0  0999 V2000
   12.1301  -18.0866   20.4732 C   0  0  0  0  0  0  0  0  0  0  0  0
   10.8273  -17.4006   20.1427 C   0  0  2  0  0  0  0  0  0  0  0  0
   11.0287  -16.5622   18.9983 N   0  0  0  0  0  0  0  0  0  0  0  0
   10.3647  -16.5794   21.2958 C   0  0  0  0  0  0  0  0  0  0  0  0
   10.8015  -15.4066   21.4438 O   0  0  0  0  0  0  0  0  0  0  0  0
    9.4391  -17.0622   22.2531 N   0  0  0  0  0  0  0  0  0  0  0  0
    8.9650  -16.3188   23.3887 C   0  0  1  0  0  0  0  0  0  0  0  0
    7.5522  -16.6179   23.7196 C   0  0  0  0  0  0  0  0  0  0  0  0
    6.8795  -15.6332   24.5936 C   0  0  0  0  0  0  0  0  0  0  0  0
    5.8707  -15.9290   25.4947 C   0  0  0  0  0  0  0  0  0  0  0  0
    5.5463  -14.7845   26.1121 N   0  0  0  0  0  0  0  0  0  0  0  0
    6.3037  -13.7807   25.6415 C   0  0  0  0  0  0  0  0  0  0  0  0
    6.3100  -12.4570   25.9776 C   0  0  0  0  0  0  0  0  0  0  0  0
    7.1831  -11.6086   25.3443 C   0  0  0  0  0  0  0  0  0  0  0  0
    8.0472  -12.0717   24.3804 C   0  0  0  0  0  0  0  0  0  0  0  0
    8.0310  -13.4214   24.0475 C   0  0  0  0  0  0  0  0  0  0  0  0
    7.1571  -14.2793   24.6805 C   0  0  0  0  0  0  0  0  0  0  0  0
    9.9213  -16.4085   24.4829 C   0  0  0  0  0  0  0  0  0  0  0  0
   10.8452  -17.2589   24.3833 O   0  0  0  0  0  0  0  0  0  0  0  0
   10.0395  -14.9044   30.0124 C   0  0  0  0  0  0  0  0  0  0  0  0
    9.7433  -14.4597   28.6065 C   0  0  0  0  0  0  0  0  0  0  0  0
   10.8645  -14.5865   27.6443 C   0  0  2  0  0  0  0  0  0  0  0  0
   11.0340  -13.2508   26.9474 C   0  0  0  0  0  0  0  0  0  0  0  0
   10.8214  -15.7257   26.6880 C   0  0  2  0  0  0  0  0  0  0  0  0
    9.8612  -15.5897   25.6457 N   0  0  0  0  0  0  0  0  0  0  0  0
   10.6747  -17.0369   27.3416 C   0  0  0  0  0  0  0  0  0  0  0  0
   11.7031  -17.6517   28.0455 O   0  0  0  0  0  0  0  0  0  0  0  0
    9.5885  -17.6692   27.2905 O   0  0  0  0  0  0  0  0  0  0  0  0
  2  4  1  0
  2  1  1  1
  2  3  1  0
  4  5  2  0
  6  7  1  0
  6  4  1  0
  7  8  1  1
  8  9  1  0
  9 17  1  0
 10  9  2  0
 10 11  1  0
 11 12  1  0
 12 17  2  0
 12 13  1  0
 13 14  2  0
 14 15  1  0
 16 15  2  0
 17 16  1  0
 18 19  2  0
 18  7  1  0
 21 22  1  0
 21 20  1  0
 22 23  1  6
 24 25  1  6
 24 22  1  0
 25 18  1  0
 26 24  1  0
 27 26  1  0
 28 26  2  0
M  END
$$$$
