AWI.pdb
     RDKit          3D

 28 29  0  0  1  0  0  0  0  0999 V2000
   12.2151  -18.6194   20.6593 C   0  0  0  0  0  0  0  0  0  0  0  0
   11.2667  -17.5580   20.1582 C   0  0  2  0  0  0  0  0  0  0  0  0
   11.9526  -16.7488   19.1951 N   0  0  0  0  0  0  0  0  0  0  0  0
   10.7933  -16.7088   21.2864 C   0  0  0  0  0  0  0  0  0  0  0  0
   11.4982  -15.7411   21.6797 O   0  0  0  0  0  0  0  0  0  0  0  0
    9.5647  -16.9409   21.9521 N   0  0  0  0  0  0  0  0  0  0  0  0
    9.0519  -16.1471   23.0355 C   0  0  1  0  0  0  0  0  0  0  0  0
    7.5717  -16.0844   23.0488 C   0  0  0  0  0  0  0  0  0  0  0  0
    6.9744  -15.3509   24.1851 C   0  0  0  0  0  0  0  0  0  0  0  0
    6.3207  -15.9387   25.2548 C   0  0  0  0  0  0  0  0  0  0  0  0
    5.9522  -14.9506   26.0821 N   0  0  0  0  0  0  0  0  0  0  0  0
    6.3430  -13.7671   25.5830 C   0  0  0  0  0  0  0  0  0  0  0  0
    6.1762  -12.5076   26.0842 C   0  0  0  0  0  0  0  0  0  0  0  0
    6.6637  -11.4356   25.3797 C   0  0  0  0  0  0  0  0  0  0  0  0
    7.3145  -11.6122   24.1816 C   0  0  0  0  0  0  0  0  0  0  0  0
    7.4778  -12.8994   23.6823 C   0  0  0  0  0  0  0  0  0  0  0  0
    6.9915  -13.9808   24.3854 C   0  0  0  0  0  0  0  0  0  0  0  0
    9.6971  -16.5249   24.2847 C   0  0  0  0  0  0  0  0  0  0  0  0
   10.3636  -17.5937   24.2983 O   0  0  0  0  0  0  0  0  0  0  0  0
   11.2787  -14.0784   29.7667 C   0  0  0  0  0  0  0  0  0  0  0  0
   11.6764  -14.8487   28.5377 C   0  0  0  0  0  0  0  0  0  0  0  0
   10.7648  -14.7169   27.3755 C   0  0  2  0  0  0  0  0  0  0  0  0
    9.4627  -14.1183   27.8699 C   0  0  0  0  0  0  0  0  0  0  0  0
   10.5518  -15.9237   26.5313 C   0  0  2  0  0  0  0  0  0  0  0  0
    9.6108  -15.7519   25.4768 N   0  0  0  0  0  0  0  0  0  0  0  0
   10.2272  -17.1332   27.3056 C   0  0  0  0  0  0  0  0  0  0  0  0
    8.9952  -17.7719   27.2318 O   0  0  0  0  0  0  0  0  0  0  0  0
   11.0698  -17.6515   28.0826 O   0  0  0  0  0  0  0  0  0  0  0  0
  2  4  1  0
  2  1  1  1
  2  3  1  0
  4  5  2  0
  6  7  1  0
  6  4  1  0
  7  8  1  1
  8  9  1  0
  9 17  1  0
 10  9  2  0
 10 11  1  0
 11 12  1  0
 12 17  2  0
 12 13  1  0
 13 14  2  0
 14 15  1  0
 16 15  2  0
 17 16  1  0
 18 19  2  0
 18  7  1  0
 21 22  1  0
 21 20  1  0
 22 23  1  1
 24 25  1  6
 24 22  1  0
 25 18  1  0
 26 24  1  0
 27 26  1  0
 28 26  2  0
M  END
$$$$
