AWI.pdb
     RDKit          3D

 28 29  0  0  1  0  0  0  0  0999 V2000
   11.9135  -19.7195   21.0212 C   0  0  0  0  0  0  0  0  0  0  0  0
   11.0528  -18.6464   20.4012 C   0  0  2  0  0  0  0  0  0  0  0  0
   11.7314  -18.1211   19.2538 N   0  0  0  0  0  0  0  0  0  0  0  0
   10.7968  -17.5542   21.3809 C   0  0  0  0  0  0  0  0  0  0  0  0
   11.5869  -16.5747   21.4465 O   0  0  0  0  0  0  0  0  0  0  0  0
    9.6862  -17.5634   22.2601 N   0  0  0  0  0  0  0  0  0  0  0  0
    9.3801  -16.5301   23.2117 C   0  0  1  0  0  0  0  0  0  0  0  0
    7.9859  -16.0420   23.0983 C   0  0  0  0  0  0  0  0  0  0  0  0
    7.7622  -14.6449   23.5273 C   0  0  0  0  0  0  0  0  0  0  0  0
    8.1245  -13.5230   22.8013 C   0  0  0  0  0  0  0  0  0  0  0  0
    7.7298  -12.4536   23.5062 N   0  0  0  0  0  0  0  0  0  0  0  0
    7.1357  -12.8495   24.6433 C   0  0  0  0  0  0  0  0  0  0  0  0
    6.5927  -12.1060   25.6521 C   0  0  0  0  0  0  0  0  0  0  0  0
    6.0403  -12.7452   26.7336 C   0  0  0  0  0  0  0  0  0  0  0  0
    6.0269  -14.1176   26.8143 C   0  0  0  0  0  0  0  0  0  0  0  0
    6.5828  -14.8629   25.7808 C   0  0  0  0  0  0  0  0  0  0  0  0
    7.1384  -14.2272   24.6910 C   0  0  0  0  0  0  0  0  0  0  0  0
    9.8244  -16.9235   24.5412 C   0  0  0  0  0  0  0  0  0  0  0  0
    9.9852  -18.1529   24.7636 O   0  0  0  0  0  0  0  0  0  0  0  0
    9.6543  -13.8349   29.5739 C   0  0  0  0  0  0  0  0  0  0  0  0
    9.4800  -14.8851   28.5115 C   0  0  0  0  0  0  0  0  0  0  0  0
   10.7285  -15.3565   27.8650 C   0  0  2  0  0  0  0  0  0  0  0  0
   11.4737  -14.1413   27.3487 C   0  0  0  0  0  0  0  0  0  0  0  0
   10.6069  -16.4275   26.8391 C   0  0  2  0  0  0  0  0  0  0  0  0
   10.0822  -15.9946   25.5884 N   0  0  0  0  0  0  0  0  0  0  0  0
    9.8729  -17.6134   27.3113 C   0  0  0  0  0  0  0  0  0  0  0  0
    8.6594  -18.0188   26.7689 O   0  0  0  0  0  0  0  0  0  0  0  0
   10.3235  -18.3258   28.2449 O   0  0  0  0  0  0  0  0  0  0  0  0
  2  4  1  0
  2  1  1  1
  2  3  1  0
  4  5  2  0
  6  7  1  0
  6  4  1  0
  7  8  1  1
  8  9  1  0
  9 17  1  0
 10  9  2  0
 10 11  1  0
 11 12  1  0
 12 17  2  0
 12 13  1  0
 13 14  2  0
 14 15  1  0
 16 15  2  0
 17 16  1  0
 18 19  2  0
 18  7  1  0
 21 22  1  0
 21 20  1  0
 22 23  1  6
 24 25  1  6
 24 22  1  0
 25 18  1  0
 26 24  1  0
 27 26  1  0
 28 26  2  0
M  END
$$$$
