PPM.pdb
     RDKit          3D

 23 24  0  0  1  0  0  0  0  0999 V2000
   19.1111  -12.7745  -16.7377 N   0  0  0  0  0  0  0  0  0  0  0  0
   18.5469  -13.1556  -18.0126 C   0  0  0  0  0  0  0  0  0  0  0  0
   17.4343  -12.1079  -18.1367 C   0  0  0  0  0  0  0  0  0  0  0  0
   18.1757  -10.8658  -17.6543 C   0  0  0  0  0  0  0  0  0  0  0  0
   19.4194  -11.3536  -16.9482 C   0  0  1  0  0  0  0  0  0  0  0  0
   19.6707  -10.6968  -15.6664 C   0  0  0  0  0  0  0  0  0  0  0  0
   19.3878  -11.2812  -14.6062 O   0  0  0  0  0  0  0  0  0  0  0  0
   20.2377   -9.3919  -15.5950 N   0  0  0  0  0  0  0  0  0  0  0  0
   20.7866   -8.7611  -16.7645 C   0  0  0  0  0  0  0  0  0  0  0  0
   21.4179   -7.4874  -16.3016 C   0  0  0  0  0  0  0  0  0  0  0  0
   21.5910   -7.6871  -14.7848 C   0  0  0  0  0  0  0  0  0  0  0  0
   20.3833   -8.5328  -14.4769 C   0  0  1  0  0  0  0  0  0  0  0  0
   19.2119   -7.7681  -14.0430 C   0  0  0  0  0  0  0  0  0  0  0  0
   18.4302   -7.4250  -14.9701 O   0  0  0  0  0  0  0  0  0  0  0  0
   14.1794   -6.4287   -8.0280 C   0  0  0  0  0  0  0  0  0  0  0  0
   15.7135   -7.1475   -8.6167 S   0  0  0  0  0  0  0  0  0  0  0  0
   16.0456   -6.6966  -10.3420 C   0  0  0  0  0  0  0  0  0  0  0  0
   17.3093   -7.3509  -10.8343 C   0  0  0  0  0  0  0  0  0  0  0  0
   17.6547   -6.8587  -12.2390 C   0  0  2  0  0  0  0  0  0  0  0  0
   18.8978   -7.3980  -12.7336 N   0  0  0  0  0  0  0  0  0  0  0  0
   17.6670   -5.3908  -12.1874 C   0  0  0  0  0  0  0  0  0  0  0  0
   18.7214   -4.7480  -11.9210 O   0  0  0  0  0  0  0  0  0  0  0  0
   16.4824   -4.6908  -12.4396 O   0  0  0  0  0  0  0  0  0  0  0  0
  1  2  1  0
  2  3  1  0
  4  3  1  0
  5  4  1  0
  5  1  1  0
  5  6  1  1
  6  7  2  0
  8  6  1  0
  9  8  1  0
 10 11  1  0
 10  9  1  0
 11 12  1  0
 12  8  1  0
 12 13  1  6
 13 20  1  0
 14 13  2  0
 16 17  1  0
 16 15  1  0
 18 17  1  0
 19 18  1  1
 19 21  1  0
 20 19  1  0
 21 22  2  0
 21 23  1  0
M  END
$$$$
