PPM.pdb
     RDKit          3D

 23 24  0  0  1  0  0  0  0  0999 V2000
   21.4026  -11.8760  -18.9641 N   0  0  0  0  0  0  0  0  0  0  0  0
   20.7547  -12.1216  -20.2325 C   0  0  0  0  0  0  0  0  0  0  0  0
   19.8164  -10.9106  -20.2924 C   0  0  0  0  0  0  0  0  0  0  0  0
   20.7540   -9.8155  -19.7955 C   0  0  0  0  0  0  0  0  0  0  0  0
   21.9235  -10.5138  -19.1414 C   0  0  1  0  0  0  0  0  0  0  0  0
   22.3056   -9.9479  -17.8487 C   0  0  0  0  0  0  0  0  0  0  0  0
   21.9758  -10.5260  -16.7987 O   0  0  0  0  0  0  0  0  0  0  0  0
   23.0542   -8.7395  -17.7551 N   0  0  0  0  0  0  0  0  0  0  0  0
   23.5871   -8.1088  -18.9320 C   0  0  0  0  0  0  0  0  0  0  0  0
   24.4275   -6.9672  -18.4570 C   0  0  0  0  0  0  0  0  0  0  0  0
   24.6964   -7.2933  -16.9764 C   0  0  0  0  0  0  0  0  0  0  0  0
   23.4117   -7.9877  -16.6077 C   0  0  1  0  0  0  0  0  0  0  0  0
   22.3996   -7.1039  -16.0248 C   0  0  0  0  0  0  0  0  0  0  0  0
   21.6059   -6.5867  -16.8561 O   0  0  0  0  0  0  0  0  0  0  0  0
   19.2027   -8.0000   -9.8418 C   0  0  0  0  0  0  0  0  0  0  0  0
   18.3135   -7.7223  -11.3744 S   0  0  0  0  0  0  0  0  0  0  0  0
   19.1851   -6.5517  -12.4516 C   0  0  0  0  0  0  0  0  0  0  0  0
   20.3285   -7.2257  -13.1629 C   0  0  0  0  0  0  0  0  0  0  0  0
   21.0932   -6.2186  -14.0208 C   0  0  2  0  0  0  0  0  0  0  0  0
   22.2443   -6.7947  -14.6718 N   0  0  0  0  0  0  0  0  0  0  0  0
   21.4538   -5.0963  -13.1446 C   0  0  0  0  0  0  0  0  0  0  0  0
   20.6728   -4.1192  -12.9671 O   0  0  0  0  0  0  0  0  0  0  0  0
   22.6914   -5.1121  -12.4925 O   0  0  0  0  0  0  0  0  0  0  0  0
  1  2  1  0
  2  3  1  0
  4  3  1  0
  5  4  1  0
  5  1  1  0
  5  6  1  1
  6  7  2  0
  8  6  1  0
  9  8  1  0
 10 11  1  0
 10  9  1  0
 11 12  1  0
 12  8  1  0
 12 13  1  6
 13 20  1  0
 14 13  2  0
 16 17  1  0
 16 15  1  0
 18 17  1  0
 19 18  1  1
 19 21  1  0
 20 19  1  0
 21 22  2  0
 21 23  1  0
M  END
$$$$
