PPM.pdb
     RDKit          3D

 23 24  0  0  1  0  0  0  0  0999 V2000
   23.6745  -21.9946  -16.4853 N   0  0  0  0  0  0  0  0  0  0  0  0
   22.4389  -21.5187  -17.0647 C   0  0  0  0  0  0  0  0  0  0  0  0
   21.7735  -20.9190  -15.8204 C   0  0  0  0  0  0  0  0  0  0  0  0
   22.9678  -20.2132  -15.1871 C   0  0  0  0  0  0  0  0  0  0  0  0
   24.2031  -20.7825  -15.8453 C   0  0  1  0  0  0  0  0  0  0  0  0
   25.2685  -21.1314  -14.9069 C   0  0  0  0  0  0  0  0  0  0  0  0
   25.5147  -22.3262  -14.6672 O   0  0  0  0  0  0  0  0  0  0  0  0
   26.0430  -20.1313  -14.2517 N   0  0  0  0  0  0  0  0  0  0  0  0
   25.9782  -18.7570  -14.6690 C   0  0  0  0  0  0  0  0  0  0  0  0
   27.0131  -18.0247  -13.8766 C   0  0  0  0  0  0  0  0  0  0  0  0
   27.9438  -19.1375  -13.3607 C   0  0  0  0  0  0  0  0  0  0  0  0
   26.9573  -20.2606  -13.1761 C   0  0  1  0  0  0  0  0  0  0  0  0
   26.4113  -20.3609  -11.8208 C   0  0  0  0  0  0  0  0  0  0  0  0
   25.3227  -19.7515  -11.6418 O   0  0  0  0  0  0  0  0  0  0  0  0
   27.8147  -18.0901   -5.8560 C   0  0  0  0  0  0  0  0  0  0  0  0
   27.8461  -19.8795   -5.7377 S   0  0  0  0  0  0  0  0  0  0  0  0
   26.7768  -20.6518   -6.9829 C   0  0  0  0  0  0  0  0  0  0  0  0
   27.3601  -20.4960   -8.3625 C   0  0  0  0  0  0  0  0  0  0  0  0
   26.4635  -21.1677   -9.4016 C   0  0  2  0  0  0  0  0  0  0  0  0
   26.9751  -21.0504  -10.7452 N   0  0  0  0  0  0  0  0  0  0  0  0
   25.1272  -20.5742   -9.2618 C   0  0  0  0  0  0  0  0  0  0  0  0
   24.8603  -19.4305   -9.7273 O   0  0  0  0  0  0  0  0  0  0  0  0
   24.1286  -21.2942   -8.5975 O   0  0  0  0  0  0  0  0  0  0  0  0
  1  2  1  0
  2  3  1  0
  4  3  1  0
  5  4  1  0
  5  1  1  0
  5  6  1  1
  6  7  2  0
  8  6  1  0
  9  8  1  0
 10 11  1  0
 10  9  1  0
 11 12  1  0
 12  8  1  0
 12 13  1  1
 13 20  1  0
 14 13  2  0
 16 17  1  0
 16 15  1  0
 18 17  1  0
 19 18  1  1
 19 21  1  0
 20 19  1  0
 21 22  2  0
 21 23  1  0
M  END
$$$$
