PPM.pdb
     RDKit          3D

 23 24  0  0  1  0  0  0  0  0999 V2000
   23.5698  -20.9862  -14.0019 N   0  0  0  0  0  0  0  0  0  0  0  0
   23.6130  -19.9137  -14.9698 C   0  0  0  0  0  0  0  0  0  0  0  0
   22.6493  -18.9198  -14.3109 C   0  0  0  0  0  0  0  0  0  0  0  0
   23.0963  -19.0307  -12.8572 C   0  0  0  0  0  0  0  0  0  0  0  0
   23.9216  -20.2925  -12.7556 C   0  0  1  0  0  0  0  0  0  0  0  0
   23.5896  -21.1278  -11.6025 C   0  0  0  0  0  0  0  0  0  0  0  0
   22.9909  -22.2043  -11.7706 O   0  0  0  0  0  0  0  0  0  0  0  0
   23.9365  -20.7409  -10.2761 N   0  0  0  0  0  0  0  0  0  0  0  0
   24.8057  -19.6207  -10.0380 C   0  0  0  0  0  0  0  0  0  0  0  0
   25.0698  -19.5950   -8.5666 C   0  0  0  0  0  0  0  0  0  0  0  0
   24.6871  -21.0098   -8.0947 C   0  0  0  0  0  0  0  0  0  0  0  0
   23.5565  -21.3210   -9.0398 C   0  0  1  0  0  0  0  0  0  0  0  0
   22.2289  -20.9996   -8.5113 C   0  0  0  0  0  0  0  0  0  0  0  0
   21.7622  -19.8915   -8.8895 O   0  0  0  0  0  0  0  0  0  0  0  0
   16.0965  -24.1979  -10.9359 C   0  0  0  0  0  0  0  0  0  0  0  0
   17.8035  -23.6514  -10.8699 S   0  0  0  0  0  0  0  0  0  0  0  0
   18.2537  -23.0598   -9.2153 C   0  0  0  0  0  0  0  0  0  0  0  0
   19.7032  -22.6548   -9.1659 C   0  0  0  0  0  0  0  0  0  0  0  0
   20.0666  -22.1353   -7.7756 C   0  0  2  0  0  0  0  0  0  0  0  0
   21.4615  -21.7889   -7.6521 N   0  0  0  0  0  0  0  0  0  0  0  0
   19.6633  -23.1691   -6.8133 C   0  0  0  0  0  0  0  0  0  0  0  0
   20.4198  -24.1411   -6.5320 O   0  0  0  0  0  0  0  0  0  0  0  0
   18.4120  -23.0729   -6.1952 O   0  0  0  0  0  0  0  0  0  0  0  0
  1  2  1  0
  2  3  1  0
  4  3  1  0
  5  4  1  0
  5  1  1  0
  5  6  1  1
  6  7  2  0
  8  6  1  0
  9  8  1  0
 10 11  1  0
 10  9  1  0
 11 12  1  0
 12  8  1  0
 12 13  1  1
 13 20  1  0
 14 13  2  0
 16 17  1  0
 16 15  1  0
 18 17  1  0
 19 18  1  6
 19 21  1  0
 20 19  1  0
 21 22  2  0
 21 23  1  0
M  END
$$$$
