PPM.pdb
     RDKit          3D

 23 24  0  0  1  0  0  0  0  0999 V2000
   26.0793  -21.7905  -10.1781 N   0  0  0  0  0  0  0  0  0  0  0  0
   26.0461  -21.2081  -11.5005 C   0  0  0  0  0  0  0  0  0  0  0  0
   25.3600  -19.8732  -11.1878 C   0  0  0  0  0  0  0  0  0  0  0  0
   26.0805  -19.4926   -9.8989 C   0  0  0  0  0  0  0  0  0  0  0  0
   26.7576  -20.7470   -9.3976 C   0  0  1  0  0  0  0  0  0  0  0  0
   26.5756  -20.9888   -7.9672 C   0  0  0  0  0  0  0  0  0  0  0  0
   25.8265  -21.9044   -7.5852 O   0  0  0  0  0  0  0  0  0  0  0  0
   27.2397  -20.1975   -6.9862 N   0  0  0  0  0  0  0  0  0  0  0  0
   28.1744  -19.1756   -7.3720 C   0  0  0  0  0  0  0  0  0  0  0  0
   28.7814  -18.6577   -6.1077 C   0  0  0  0  0  0  0  0  0  0  0  0
   28.4788  -19.7562   -5.0720 C   0  0  0  0  0  0  0  0  0  0  0  0
   27.1469  -20.2500   -5.5727 C   0  0  1  0  0  0  0  0  0  0  0  0
   25.9935  -19.6089   -4.9373 C   0  0  0  0  0  0  0  0  0  0  0  0
   25.6275  -18.5277   -5.4716 O   0  0  0  0  0  0  0  0  0  0  0  0
   21.1532  -19.5526    1.1611 C   0  0  0  0  0  0  0  0  0  0  0  0
   21.6842  -20.7018   -0.1094 S   0  0  0  0  0  0  0  0  0  0  0  0
   22.2267  -19.8379   -1.6093 C   0  0  0  0  0  0  0  0  0  0  0  0
   23.5413  -20.3856   -2.0986 C   0  0  0  0  0  0  0  0  0  0  0  0
   24.0665  -19.5526   -3.2670 C   0  0  2  0  0  0  0  0  0  0  0  0
   25.2884  -20.0768   -3.8263 N   0  0  0  0  0  0  0  0  0  0  0  0
   24.2252  -18.1776   -2.7753 C   0  0  0  0  0  0  0  0  0  0  0  0
   23.2529  -17.3717   -2.7415 O   0  0  0  0  0  0  0  0  0  0  0  0
   25.4833  -17.7532   -2.3347 O   0  0  0  0  0  0  0  0  0  0  0  0
  1  2  1  0
  2  3  1  0
  4  3  1  0
  5  4  1  0
  5  1  1  0
  5  6  1  1
  6  7  2  0
  8  6  1  0
  9  8  1  0
 10 11  1  0
 10  9  1  0
 11 12  1  0
 12  8  1  0
 12 13  1  1
 13 20  1  0
 14 13  2  0
 16 17  1  0
 16 15  1  0
 18 17  1  0
 19 18  1  1
 19 21  1  0
 20 19  1  0
 21 22  2  0
 21 23  1  0
M  END
$$$$
