PPM.pdb
     RDKit          3D

 23 24  0  0  1  0  0  0  0  0999 V2000
   27.9065  -20.7053  -15.2519 N   0  0  0  0  0  0  0  0  0  0  0  0
   28.7770  -19.6148  -15.6287 C   0  0  0  0  0  0  0  0  0  0  0  0
   27.8903  -18.4222  -15.2517 C   0  0  0  0  0  0  0  0  0  0  0  0
   27.3422  -18.9036  -13.9126 C   0  0  0  0  0  0  0  0  0  0  0  0
   27.6055  -20.3902  -13.8489 C   0  0  1  0  0  0  0  0  0  0  0  0
   26.4617  -21.1765  -13.3896 C   0  0  0  0  0  0  0  0  0  0  0  0
   26.0477  -22.1258  -14.0775 O   0  0  0  0  0  0  0  0  0  0  0  0
   25.7999  -20.8847  -12.1624 N   0  0  0  0  0  0  0  0  0  0  0  0
   26.4181  -20.0450  -11.1725 C   0  0  0  0  0  0  0  0  0  0  0  0
   25.5250  -20.0757   -9.9739 C   0  0  0  0  0  0  0  0  0  0  0  0
   24.6510  -21.3243  -10.1923 C   0  0  0  0  0  0  0  0  0  0  0  0
   24.5357  -21.3228  -11.6940 C   0  0  1  0  0  0  0  0  0  0  0  0
   23.3429  -20.6414  -12.2021 C   0  0  0  0  0  0  0  0  0  0  0  0
   23.4399  -19.3868  -12.2741 O   0  0  0  0  0  0  0  0  0  0  0  0
   23.0778  -21.6939  -18.0226 C   0  0  0  0  0  0  0  0  0  0  0  0
   21.3345  -21.9657  -17.7004 S   0  0  0  0  0  0  0  0  0  0  0  0
   20.8125  -21.1922  -16.1449 C   0  0  0  0  0  0  0  0  0  0  0  0
   21.7233  -21.5919  -15.0144 C   0  0  0  0  0  0  0  0  0  0  0  0
   21.3088  -20.8929  -13.7204 C   0  0  2  0  0  0  0  0  0  0  0  0
   22.1467  -21.2425  -12.5995 N   0  0  0  0  0  0  0  0  0  0  0  0
   19.8981  -21.2280  -13.4857 C   0  0  0  0  0  0  0  0  0  0  0  0
   19.5620  -22.2850  -12.8807 O   0  0  0  0  0  0  0  0  0  0  0  0
   18.9056  -20.3549  -13.9435 O   0  0  0  0  0  0  0  0  0  0  0  0
  1  2  1  0
  2  3  1  0
  4  3  1  0
  5  4  1  0
  5  1  1  0
  5  6  1  6
  6  7  2  0
  8  6  1  0
  9  8  1  0
 10 11  1  0
 10  9  1  0
 11 12  1  0
 12  8  1  0
 12 13  1  1
 13 20  1  0
 14 13  2  0
 16 17  1  0
 16 15  1  0
 18 17  1  0
 19 18  1  6
 19 21  1  0
 20 19  1  0
 21 22  2  0
 21 23  1  0
M  END
$$$$
