PPM.pdb
     RDKit          3D

 23 24  0  0  1  0  0  0  0  0999 V2000
   25.5450  -19.5540  -15.2805 N   0  0  0  0  0  0  0  0  0  0  0  0
   25.5713  -18.3184  -16.0299 C   0  0  0  0  0  0  0  0  0  0  0  0
   26.0452  -17.3529  -14.9374 C   0  0  0  0  0  0  0  0  0  0  0  0
   27.1322  -18.1974  -14.2812 C   0  0  0  0  0  0  0  0  0  0  0  0
   26.9108  -19.6190  -14.7432 C   0  0  1  0  0  0  0  0  0  0  0  0
   26.9842  -20.6101  -13.6709 C   0  0  0  0  0  0  0  0  0  0  0  0
   26.0082  -21.3447  -13.4399 O   0  0  0  0  0  0  0  0  0  0  0  0
   28.1550  -20.7616  -12.8736 N   0  0  0  0  0  0  0  0  0  0  0  0
   29.3746  -20.0826  -13.2176 C   0  0  0  0  0  0  0  0  0  0  0  0
   30.4178  -20.5791  -12.2687 C   0  0  0  0  0  0  0  0  0  0  0  0
   29.8222  -21.8845  -11.7101 C   0  0  0  0  0  0  0  0  0  0  0  0
   28.3558  -21.5410  -11.7067 C   0  0  1  0  0  0  0  0  0  0  0  0
   27.8693  -21.0059  -10.4331 C   0  0  0  0  0  0  0  0  0  0  0  0
   27.8380  -19.7477  -10.3645 O   0  0  0  0  0  0  0  0  0  0  0  0
   28.6285  -19.8144   -3.6077 C   0  0  0  0  0  0  0  0  0  0  0  0
   28.2741  -18.8568   -5.0822 S   0  0  0  0  0  0  0  0  0  0  0  0
   27.0812  -19.7000   -6.1576 C   0  0  0  0  0  0  0  0  0  0  0  0
   27.7495  -20.2039   -7.4094 C   0  0  0  0  0  0  0  0  0  0  0  0
   26.8771  -21.2537   -8.0963 C   0  0  2  0  0  0  0  0  0  0  0  0
   27.4518  -21.7455   -9.3245 N   0  0  0  0  0  0  0  0  0  0  0  0
   25.5574  -20.6435   -8.3053 C   0  0  0  0  0  0  0  0  0  0  0  0
   25.2740  -20.0322   -9.3740 O   0  0  0  0  0  0  0  0  0  0  0  0
   24.5938  -20.7431   -7.2962 O   0  0  0  0  0  0  0  0  0  0  0  0
  1  2  1  0
  2  3  1  0
  4  3  1  0
  5  4  1  0
  5  1  1  0
  5  6  1  1
  6  7  2  0
  8  6  1  0
  9  8  1  0
 10 11  1  0
 10  9  1  0
 11 12  1  0
 12  8  1  0
 12 13  1  1
 13 20  1  0
 14 13  2  0
 16 17  1  0
 16 15  1  0
 18 17  1  0
 19 18  1  6
 19 21  1  0
 20 19  1  0
 21 22  2  0
 21 23  1  0
M  END
$$$$
