PPM.pdb
     RDKit          3D

 23 24  0  0  1  0  0  0  0  0999 V2000
   24.7493  -19.9028  -15.2504 N   0  0  0  0  0  0  0  0  0  0  0  0
   24.3222  -18.5965  -15.6977 C   0  0  0  0  0  0  0  0  0  0  0  0
   24.2594  -17.8609  -14.3540 C   0  0  0  0  0  0  0  0  0  0  0  0
   25.5402  -18.3729  -13.7038 C   0  0  0  0  0  0  0  0  0  0  0  0
   25.9687  -19.5873  -14.4942 C   0  0  1  0  0  0  0  0  0  0  0  0
   26.3577  -20.7277  -13.6662 C   0  0  0  0  0  0  0  0  0  0  0  0
   25.6321  -21.7363  -13.6223 O   0  0  0  0  0  0  0  0  0  0  0  0
   27.5582  -20.7182  -12.8993 N   0  0  0  0  0  0  0  0  0  0  0  0
   28.4462  -19.5880  -12.9332 C   0  0  0  0  0  0  0  0  0  0  0  0
   29.6552  -19.9755  -12.1438 C   0  0  0  0  0  0  0  0  0  0  0  0
   29.5807  -21.5120  -12.0785 C   0  0  0  0  0  0  0  0  0  0  0  0
   28.0889  -21.7161  -12.0437 C   0  0  1  0  0  0  0  0  0  0  0  0
   27.5314  -21.8288  -10.6940 C   0  0  0  0  0  0  0  0  0  0  0  0
   28.1471  -22.6209   -9.9311 O   0  0  0  0  0  0  0  0  0  0  0  0
   29.2653  -19.7058   -5.4989 C   0  0  0  0  0  0  0  0  0  0  0  0
   27.7218  -18.8202   -5.7227 S   0  0  0  0  0  0  0  0  0  0  0  0
   26.5178  -19.7997   -6.6615 C   0  0  0  0  0  0  0  0  0  0  0  0
   26.9822  -20.0062   -8.0789 C   0  0  0  0  0  0  0  0  0  0  0  0
   26.0402  -20.9559   -8.8176 C   0  0  2  0  0  0  0  0  0  0  0  0
   26.4128  -21.1569  -10.1966 N   0  0  0  0  0  0  0  0  0  0  0  0
   24.6850  -20.4058   -8.6825 C   0  0  0  0  0  0  0  0  0  0  0  0
   24.1667  -19.6958   -9.5900 O   0  0  0  0  0  0  0  0  0  0  0  0
   23.9534  -20.6757   -7.5212 O   0  0  0  0  0  0  0  0  0  0  0  0
  1  2  1  0
  2  3  1  0
  4  3  1  0
  5  4  1  0
  5  1  1  0
  5  6  1  1
  6  7  2  0
  8  6  1  0
  9  8  1  0
 10 11  1  0
 10  9  1  0
 11 12  1  0
 12  8  1  0
 12 13  1  1
 13 20  1  0
 14 13  2  0
 16 17  1  0
 16 15  1  0
 18 17  1  0
 19 18  1  6
 19 21  1  0
 20 19  1  0
 21 22  2  0
 21 23  1  0
M  END
$$$$
