PPM.pdb
     RDKit          3D

 23 24  0  0  1  0  0  0  0  0999 V2000
   27.4159  -19.5030  -15.4637 N   0  0  0  0  0  0  0  0  0  0  0  0
   27.9566  -20.3187  -16.5273 C   0  0  0  0  0  0  0  0  0  0  0  0
   28.6232  -21.4261  -15.7026 C   0  0  0  0  0  0  0  0  0  0  0  0
   27.5469  -21.6658  -14.6493 C   0  0  0  0  0  0  0  0  0  0  0  0
   26.6185  -20.4748  -14.7034 C   0  0  1  0  0  0  0  0  0  0  0  0
   26.2758  -19.9291  -13.3911 C   0  0  0  0  0  0  0  0  0  0  0  0
   26.9716  -19.0255  -12.8961 O   0  0  0  0  0  0  0  0  0  0  0  0
   25.1543  -20.4069  -12.6539 N   0  0  0  0  0  0  0  0  0  0  0  0
   24.2472  -21.3631  -13.2282 C   0  0  0  0  0  0  0  0  0  0  0  0
   23.1265  -21.5231  -12.2516 C   0  0  0  0  0  0  0  0  0  0  0  0
   23.2343  -20.2771  -11.3535 C   0  0  0  0  0  0  0  0  0  0  0  0
   24.7260  -20.0692  -11.3455 C   0  0  1  0  0  0  0  0  0  0  0  0
   25.4121  -20.7000  -10.2156 C   0  0  0  0  0  0  0  0  0  0  0  0
   25.5539  -21.9486  -10.3122 O   0  0  0  0  0  0  0  0  0  0  0  0
   29.2808  -17.8510   -5.6922 C   0  0  0  0  0  0  0  0  0  0  0  0
   28.6575  -19.2283   -4.7271 S   0  0  0  0  0  0  0  0  0  0  0  0
   27.6731  -20.3653   -5.7412 C   0  0  0  0  0  0  0  0  0  0  0  0
   27.1583  -19.6747   -6.9763 C   0  0  0  0  0  0  0  0  0  0  0  0
   26.4022  -20.6611   -7.8652 C   0  0  2  0  0  0  0  0  0  0  0  0
   25.9056  -20.0580   -9.0778 N   0  0  0  0  0  0  0  0  0  0  0  0
   25.3249  -21.2349   -7.0481 C   0  0  0  0  0  0  0  0  0  0  0  0
   24.1311  -20.8349   -7.1536 O   0  0  0  0  0  0  0  0  0  0  0  0
   25.6304  -22.2476   -6.1327 O   0  0  0  0  0  0  0  0  0  0  0  0
  1  2  1  0
  2  3  1  0
  4  3  1  0
  5  4  1  0
  5  1  1  0
  5  6  1  1
  6  7  2  0
  8  6  1  0
  9  8  1  0
 10 11  1  0
 10  9  1  0
 11 12  1  0
 12  8  1  0
 12 13  1  1
 13 20  1  0
 14 13  2  0
 16 17  1  0
 16 15  1  0
 18 17  1  0
 19 18  1  1
 19 21  1  0
 20 19  1  0
 21 22  2  0
 21 23  1  0
M  END
$$$$
