PPM.pdb
     RDKit          3D

 23 24  0  0  1  0  0  0  0  0999 V2000
   27.1543  -17.9956  -16.4522 N   0  0  0  0  0  0  0  0  0  0  0  0
   27.8109  -16.7123  -16.3481 C   0  0  0  0  0  0  0  0  0  0  0  0
   26.9403  -16.0529  -15.2721 C   0  0  0  0  0  0  0  0  0  0  0  0
   26.7732  -17.2199  -14.3049 C   0  0  0  0  0  0  0  0  0  0  0  0
   27.1723  -18.4661  -15.0606 C   0  0  1  0  0  0  0  0  0  0  0  0
   26.2449  -19.5839  -14.8942 C   0  0  0  0  0  0  0  0  0  0  0  0
   25.6225  -20.0227  -15.8769 O   0  0  0  0  0  0  0  0  0  0  0  0
   26.0309  -20.1934  -13.6245 N   0  0  0  0  0  0  0  0  0  0  0  0
   26.8034  -19.7997  -12.4777 C   0  0  0  0  0  0  0  0  0  0  0  0
   26.4256  -20.7325  -11.3721 C   0  0  0  0  0  0  0  0  0  0  0  0
   25.7715  -21.9233  -12.0966 C   0  0  0  0  0  0  0  0  0  0  0  0
   25.1226  -21.2184  -13.2587 C   0  0  1  0  0  0  0  0  0  0  0  0
   23.7252  -20.8455  -13.0279 C   0  0  0  0  0  0  0  0  0  0  0  0
   23.5493  -19.9820  -12.1268 O   0  0  0  0  0  0  0  0  0  0  0  0
   21.2042  -17.1630  -16.7122 C   0  0  0  0  0  0  0  0  0  0  0  0
   19.6604  -18.0358  -16.4440 S   0  0  0  0  0  0  0  0  0  0  0  0
   19.7920  -19.2260  -15.0815 C   0  0  0  0  0  0  0  0  0  0  0  0
   21.1902  -19.7761  -14.9823 C   0  0  0  0  0  0  0  0  0  0  0  0
   21.2995  -20.7518  -13.8114 C   0  0  2  0  0  0  0  0  0  0  0  0
   22.6078  -21.3487  -13.6977 N   0  0  0  0  0  0  0  0  0  0  0  0
   20.2438  -21.7570  -13.9917 C   0  0  0  0  0  0  0  0  0  0  0  0
   19.0725  -21.5702  -13.5567 O   0  0  0  0  0  0  0  0  0  0  0  0
   20.5448  -22.9480  -14.6609 O   0  0  0  0  0  0  0  0  0  0  0  0
  1  2  1  0
  2  3  1  0
  4  3  1  0
  5  4  1  0
  5  1  1  0
  5  6  1  6
  6  7  2  0
  8  6  1  0
  9  8  1  0
 10 11  1  0
 10  9  1  0
 11 12  1  0
 12  8  1  0
 12 13  1  1
 13 20  1  0
 14 13  2  0
 16 17  1  0
 16 15  1  0
 18 17  1  0
 19 18  1  6
 19 21  1  0
 20 19  1  0
 21 22  2  0
 21 23  1  0
M  END
$$$$
