PPM.pdb
     RDKit          3D

 23 24  0  0  1  0  0  0  0  0999 V2000
   24.3446  -21.4529  -12.5150 N   0  0  0  0  0  0  0  0  0  0  0  0
   23.9113  -20.6319  -13.6227 C   0  0  0  0  0  0  0  0  0  0  0  0
   24.3735  -19.2549  -13.1319 C   0  0  0  0  0  0  0  0  0  0  0  0
   25.7469  -19.6122  -12.5738 C   0  0  0  0  0  0  0  0  0  0  0  0
   25.7712  -21.1151  -12.4190 C   0  0  1  0  0  0  0  0  0  0  0  0
   26.3125  -21.5716  -11.1399 C   0  0  0  0  0  0  0  0  0  0  0  0
   25.5670  -22.1311  -10.3172 O   0  0  0  0  0  0  0  0  0  0  0  0
   27.6854  -21.3932  -10.8043 N   0  0  0  0  0  0  0  0  0  0  0  0
   28.6207  -20.8840  -11.7701 C   0  0  0  0  0  0  0  0  0  0  0  0
   29.9720  -20.9676  -11.1359 C   0  0  0  0  0  0  0  0  0  0  0  0
   29.7797  -21.9661   -9.9797 C   0  0  0  0  0  0  0  0  0  0  0  0
   28.3576  -21.6640   -9.5860 C   0  0  1  0  0  0  0  0  0  0  0  0
   28.2313  -20.6874   -8.5018 C   0  0  0  0  0  0  0  0  0  0  0  0
   28.1929  -19.4841   -8.8746 O   0  0  0  0  0  0  0  0  0  0  0  0
   25.0406  -20.7473   -2.2971 C   0  0  0  0  0  0  0  0  0  0  0  0
   25.1690  -21.9111   -3.6557 S   0  0  0  0  0  0  0  0  0  0  0  0
   25.9263  -21.1517   -5.1186 C   0  0  0  0  0  0  0  0  0  0  0  0
   27.3265  -20.6865   -4.8180 C   0  0  0  0  0  0  0  0  0  0  0  0
   27.9508  -20.0359   -6.0517 C   0  0  2  0  0  0  0  0  0  0  0  0
   28.1533  -20.9659   -7.1356 N   0  0  0  0  0  0  0  0  0  0  0  0
   29.2052  -19.4081   -5.6162 C   0  0  0  0  0  0  0  0  0  0  0  0
   30.3235  -19.9636   -5.8084 O   0  0  0  0  0  0  0  0  0  0  0  0
   29.1579  -18.1662   -4.9739 O   0  0  0  0  0  0  0  0  0  0  0  0
  1  2  1  0
  2  3  1  0
  4  3  1  0
  5  4  1  0
  5  1  1  0
  5  6  1  1
  6  7  2  0
  8  6  1  0
  9  8  1  0
 10 11  1  0
 10  9  1  0
 11 12  1  0
 12  8  1  0
 12 13  1  1
 13 20  1  0
 14 13  2  0
 16 17  1  0
 16 15  1  0
 18 17  1  0
 19 18  1  1
 19 21  1  0
 20 19  1  0
 21 22  2  0
 21 23  1  0
M  END
$$$$
