MGG.pdb
     RDKit          3D

 17 16  0  0  1  0  0  0  0  0999 V2000
    6.2614  -11.0585   27.9030 C   0  0  0  0  0  0  0  0  0  0  0  0
    7.1154  -11.6954   26.4316 S   0  0  0  0  0  0  0  0  0  0  0  0
    6.8176  -13.4741   26.2693 C   0  0  0  0  0  0  0  0  0  0  0  0
    7.4454  -13.9785   25.0015 C   0  0  0  0  0  0  0  0  0  0  0  0
    7.2629  -15.4704   24.8271 C   0  0  2  0  0  0  0  0  0  0  0  0
    7.8186  -16.2214   25.9188 N   0  0  0  0  0  0  0  0  0  0  0  0
    7.8314  -15.9448   23.5420 C   0  0  0  0  0  0  0  0  0  0  0  0
    7.3868  -15.4133   22.4805 O   0  0  0  0  0  0  0  0  0  0  0  0
    8.8309  -16.9495   23.4794 N   0  0  0  0  0  0  0  0  0  0  0  0
    9.5229  -17.1335   22.2392 C   0  0  0  0  0  0  0  0  0  0  0  0
   10.8903  -16.5994   22.2007 C   0  0  0  0  0  0  0  0  0  0  0  0
   11.5679  -16.8467   21.1448 O   0  0  0  0  0  0  0  0  0  0  0  0
   11.5252  -15.8497   23.1991 N   0  0  0  0  0  0  0  0  0  0  0  0
   12.9067  -15.3952   23.0977 C   0  0  0  0  0  0  0  0  0  0  0  0
   13.7601  -16.3617   23.8240 C   0  0  0  0  0  0  0  0  0  0  0  0
   13.9786  -17.4831   23.3176 O   0  0  0  0  0  0  0  0  0  0  0  0
   14.3214  -16.0335   25.0653 O   0  0  0  0  0  0  0  0  0  0  0  0
  1  2  1  0
  2  3  1  0
  4  3  1  0
  5  4  1  0
  5  6  1  1
  7  9  1  0
  7  5  1  0
  8  7  2  0
 10 11  1  0
 10  9  1  0
 11 13  1  0
 12 11  2  0
 13 14  1  0
 14 15  1  0
 15 16  2  0
 15 17  1  0
M  END
$$$$
