MGG.pdb
     RDKit          3D

 17 16  0  0  1  0  0  0  0  0999 V2000
    9.7534  -13.8374   28.4179 C   0  0  0  0  0  0  0  0  0  0  0  0
    8.5241  -12.7806   27.5982 S   0  0  0  0  0  0  0  0  0  0  0  0
    6.9766  -13.6947   27.3774 C   0  0  0  0  0  0  0  0  0  0  0  0
    6.9103  -14.2474   25.9825 C   0  0  0  0  0  0  0  0  0  0  0  0
    7.2948  -15.7098   25.9279 C   0  0  2  0  0  0  0  0  0  0  0  0
    8.6516  -15.9352   26.3439 N   0  0  0  0  0  0  0  0  0  0  0  0
    7.0747  -16.2836   24.5780 C   0  0  0  0  0  0  0  0  0  0  0  0
    5.8939  -16.2471   24.1185 O   0  0  0  0  0  0  0  0  0  0  0  0
    8.1261  -16.8542   23.8155 N   0  0  0  0  0  0  0  0  0  0  0  0
    8.2014  -16.5272   22.4233 C   0  0  0  0  0  0  0  0  0  0  0  0
    9.3716  -17.0642   21.7170 C   0  0  0  0  0  0  0  0  0  0  0  0
    9.3879  -16.9139   20.4473 O   0  0  0  0  0  0  0  0  0  0  0  0
   10.4672  -17.7218   22.2906 N   0  0  0  0  0  0  0  0  0  0  0  0
   11.8087  -17.6812   21.7214 C   0  0  0  0  0  0  0  0  0  0  0  0
   12.7787  -17.6569   22.8389 C   0  0  0  0  0  0  0  0  0  0  0  0
   12.9421  -18.6870   23.5272 O   0  0  0  0  0  0  0  0  0  0  0  0
   13.5103  -16.4978   23.1301 O   0  0  0  0  0  0  0  0  0  0  0  0
  1  2  1  0
  2  3  1  0
  4  3  1  0
  5  4  1  0
  5  6  1  6
  7  9  1  0
  7  5  1  0
  8  7  2  0
 10 11  1  0
 10  9  1  0
 11 13  1  0
 12 11  2  0
 13 14  1  0
 14 15  1  0
 15 16  2  0
 15 17  1  0
M  END
$$$$
