MGG.pdb
     RDKit          3D

 17 16  0  0  1  0  0  0  0  0999 V2000
    6.0928  -10.7525   26.0817 C   0  0  0  0  0  0  0  0  0  0  0  0
    6.7787  -12.0206   27.1869 S   0  0  0  0  0  0  0  0  0  0  0  0
    6.3038  -13.6675   26.6029 C   0  0  0  0  0  0  0  0  0  0  0  0
    7.2590  -14.1208   25.5362 C   0  0  0  0  0  0  0  0  0  0  0  0
    6.9069  -15.4903   24.9977 C   0  0  2  0  0  0  0  0  0  0  0  0
    6.9600  -16.5075   26.0112 N   0  0  0  0  0  0  0  0  0  0  0  0
    7.7714  -15.8672   23.8530 C   0  0  0  0  0  0  0  0  0  0  0  0
    8.9646  -16.2057   24.1150 O   0  0  0  0  0  0  0  0  0  0  0  0
    7.3041  -15.8565   22.5136 N   0  0  0  0  0  0  0  0  0  0  0  0
    8.0315  -15.0817   21.5537 C   0  0  0  0  0  0  0  0  0  0  0  0
    9.4300  -15.4837   21.3557 C   0  0  0  0  0  0  0  0  0  0  0  0
    9.9413  -15.2202   20.2137 O   0  0  0  0  0  0  0  0  0  0  0  0
   10.2574  -16.1240   22.2870 N   0  0  0  0  0  0  0  0  0  0  0  0
   11.7104  -16.1555   22.1735 C   0  0  0  0  0  0  0  0  0  0  0  0
   12.1269  -17.5683   22.0293 C   0  0  0  0  0  0  0  0  0  0  0  0
   11.5885  -18.4390   22.7461 O   0  0  0  0  0  0  0  0  0  0  0  0
   13.1121  -17.9361   21.1033 O   0  0  0  0  0  0  0  0  0  0  0  0
  1  2  1  0
  2  3  1  0
  4  3  1  0
  5  4  1  0
  5  6  1  1
  7  9  1  0
  7  5  1  0
  8  7  2  0
 10 11  1  0
 10  9  1  0
 11 13  1  0
 12 11  2  0
 13 14  1  0
 14 15  1  0
 15 16  2  0
 15 17  1  0
M  END
$$$$
