MGG.pdb
     RDKit          3D

 17 16  0  0  1  0  0  0  0  0999 V2000
    7.4188  -12.7586   26.9898 C   0  0  0  0  0  0  0  0  0  0  0  0
    6.3912  -11.8120   25.8288 S   0  0  0  0  0  0  0  0  0  0  0  0
    6.8697  -12.2005   24.1261 C   0  0  0  0  0  0  0  0  0  0  0  0
    7.8805  -13.3114   24.1258 C   0  0  0  0  0  0  0  0  0  0  0  0
    7.5989  -14.3405   23.0529 C   0  0  2  0  0  0  0  0  0  0  0  0
    6.8174  -13.8054   21.9724 N   0  0  0  0  0  0  0  0  0  0  0  0
    6.9382  -15.5457   23.6104 C   0  0  0  0  0  0  0  0  0  0  0  0
    5.6977  -15.4639   23.8582 O   0  0  0  0  0  0  0  0  0  0  0  0
    7.6446  -16.7496   23.8636 N   0  0  0  0  0  0  0  0  0  0  0  0
    7.7434  -17.1988   25.2197 C   0  0  0  0  0  0  0  0  0  0  0  0
    9.0906  -17.1410   25.8013 C   0  0  0  0  0  0  0  0  0  0  0  0
    9.2206  -17.6114   26.9832 O   0  0  0  0  0  0  0  0  0  0  0  0
   10.2431  -16.6249   25.1952 N   0  0  0  0  0  0  0  0  0  0  0  0
   11.5297  -16.5362   25.8749 C   0  0  0  0  0  0  0  0  0  0  0  0
   12.1901  -17.8570   25.7771 C   0  0  0  0  0  0  0  0  0  0  0  0
   11.7933  -18.7925   26.5045 O   0  0  0  0  0  0  0  0  0  0  0  0
   13.2484  -18.0667   24.8831 O   0  0  0  0  0  0  0  0  0  0  0  0
  1  2  1  0
  2  3  1  0
  4  3  1  0
  5  4  1  0
  5  6  1  6
  7  9  1  0
  7  5  1  0
  8  7  2  0
 10 11  1  0
 10  9  1  0
 11 13  1  0
 12 11  2  0
 13 14  1  0
 14 15  1  0
 15 16  2  0
 15 17  1  0
M  END
$$$$
