MGG.pdb
     RDKit          3D

 17 16  0  0  1  0  0  0  0  0999 V2000
    6.1301  -11.3818   26.3273 C   0  0  0  0  0  0  0  0  0  0  0  0
    7.6113  -12.3686   26.6910 S   0  0  0  0  0  0  0  0  0  0  0  0
    7.1432  -14.0908   26.9969 C   0  0  0  0  0  0  0  0  0  0  0  0
    6.5478  -14.6821   25.7512 C   0  0  0  0  0  0  0  0  0  0  0  0
    7.1504  -16.0281   25.4125 C   0  0  2  0  0  0  0  0  0  0  0  0
    8.2080  -16.3968   26.3127 N   0  0  0  0  0  0  0  0  0  0  0  0
    7.6357  -16.0736   24.0117 C   0  0  0  0  0  0  0  0  0  0  0  0
    6.9256  -15.4978   23.1337 O   0  0  0  0  0  0  0  0  0  0  0  0
    8.8403  -16.7280   23.6471 N   0  0  0  0  0  0  0  0  0  0  0  0
    9.3310  -16.5404   22.3148 C   0  0  0  0  0  0  0  0  0  0  0  0
   10.7072  -16.0367   22.2202 C   0  0  0  0  0  0  0  0  0  0  0  0
   11.2565  -16.0963   21.0671 O   0  0  0  0  0  0  0  0  0  0  0  0
   11.4760  -15.4999   23.2606 N   0  0  0  0  0  0  0  0  0  0  0  0
   12.8916  -15.1798   23.1226 C   0  0  0  0  0  0  0  0  0  0  0  0
   13.6646  -16.1930   23.8750 C   0  0  0  0  0  0  0  0  0  0  0  0
   13.1727  -17.3281   24.0513 O   0  0  0  0  0  0  0  0  0  0  0  0
   14.9337  -15.8934   24.3878 O   0  0  0  0  0  0  0  0  0  0  0  0
  1  2  1  0
  2  3  1  0
  4  3  1  0
  5  4  1  0
  5  6  1  1
  7  9  1  0
  7  5  1  0
  8  7  2  0
 10 11  1  0
 10  9  1  0
 11 13  1  0
 12 11  2  0
 13 14  1  0
 14 15  1  0
 15 16  2  0
 15 17  1  0
M  END
$$$$
