MGG.pdb
     RDKit          3D

 17 16  0  0  1  0  0  0  0  0999 V2000
    5.9115  -12.3739   27.2242 C   0  0  0  0  0  0  0  0  0  0  0  0
    6.8287  -11.3691   26.0204 S   0  0  0  0  0  0  0  0  0  0  0  0
    7.8641  -12.4380   24.9888 C   0  0  0  0  0  0  0  0  0  0  0  0
    7.1402  -13.7233   24.7061 C   0  0  0  0  0  0  0  0  0  0  0  0
    7.9863  -14.6932   23.9106 C   0  0  2  0  0  0  0  0  0  0  0  0
    8.1999  -14.2532   22.5596 N   0  0  0  0  0  0  0  0  0  0  0  0
    7.4052  -16.0578   23.9153 C   0  0  0  0  0  0  0  0  0  0  0  0
    7.5751  -16.7633   22.8760 O   0  0  0  0  0  0  0  0  0  0  0  0
    6.6860  -16.5723   25.0246 N   0  0  0  0  0  0  0  0  0  0  0  0
    7.3931  -16.7614   26.2555 C   0  0  0  0  0  0  0  0  0  0  0  0
    8.0491  -18.0666   26.4059 C   0  0  0  0  0  0  0  0  0  0  0  0
    7.5651  -18.8472   27.2955 O   0  0  0  0  0  0  0  0  0  0  0  0
    9.1468  -18.5413   25.6767 N   0  0  0  0  0  0  0  0  0  0  0  0
   10.4768  -17.9508   25.7631 C   0  0  0  0  0  0  0  0  0  0  0  0
   11.2726  -18.7547   26.7174 C   0  0  0  0  0  0  0  0  0  0  0  0
   11.0442  -18.6503   27.9415 O   0  0  0  0  0  0  0  0  0  0  0  0
   12.2724  -19.6256   26.2642 O   0  0  0  0  0  0  0  0  0  0  0  0
  1  2  1  0
  2  3  1  0
  4  3  1  0
  5  4  1  0
  5  6  1  6
  7  9  1  0
  7  5  1  0
  8  7  2  0
 10 11  1  0
 10  9  1  0
 11 13  1  0
 12 11  2  0
 13 14  1  0
 14 15  1  0
 15 16  2  0
 15 17  1  0
M  END
$$$$
