MGG.pdb
     RDKit          3D

 17 16  0  0  1  0  0  0  0  0999 V2000
    6.6119  -11.0527   27.7234 C   0  0  0  0  0  0  0  0  0  0  0  0
    6.1133  -12.5394   26.8063 S   0  0  0  0  0  0  0  0  0  0  0  0
    7.5442  -13.6231   26.5669 C   0  0  0  0  0  0  0  0  0  0  0  0
    7.8756  -13.7076   25.1044 C   0  0  0  0  0  0  0  0  0  0  0  0
    7.1989  -14.8818   24.4316 C   0  0  2  0  0  0  0  0  0  0  0  0
    6.8434  -15.9164   25.3632 N   0  0  0  0  0  0  0  0  0  0  0  0
    8.0334  -15.4434   23.3417 C   0  0  0  0  0  0  0  0  0  0  0  0
    8.4930  -14.6293   22.4857 O   0  0  0  0  0  0  0  0  0  0  0  0
    8.3181  -16.8296   23.2416 N   0  0  0  0  0  0  0  0  0  0  0  0
    9.1730  -17.2655   22.1786 C   0  0  0  0  0  0  0  0  0  0  0  0
   10.6028  -17.3218   22.5089 C   0  0  0  0  0  0  0  0  0  0  0  0
   11.3651  -17.8740   21.6435 O   0  0  0  0  0  0  0  0  0  0  0  0
   11.2139  -16.8338   23.6710 N   0  0  0  0  0  0  0  0  0  0  0  0
   12.5586  -17.2155   24.0851 C   0  0  0  0  0  0  0  0  0  0  0  0
   13.5031  -16.2062   23.5564 C   0  0  0  0  0  0  0  0  0  0  0  0
   13.2572  -15.6549   22.4623 O   0  0  0  0  0  0  0  0  0  0  0  0
   14.6622  -15.8656   24.2663 O   0  0  0  0  0  0  0  0  0  0  0  0
  1  2  1  0
  2  3  1  0
  4  3  1  0
  5  4  1  0
  5  6  1  1
  7  9  1  0
  7  5  1  0
  8  7  2  0
 10 11  1  0
 10  9  1  0
 11 13  1  0
 12 11  2  0
 13 14  1  0
 14 15  1  0
 15 16  2  0
 15 17  1  0
M  END
$$$$
