MGG.pdb
     RDKit          3D

 17 16  0  0  1  0  0  0  0  0999 V2000
    6.5801  -11.1304   25.3695 C   0  0  0  0  0  0  0  0  0  0  0  0
    7.1084  -12.0894   26.8191 S   0  0  0  0  0  0  0  0  0  0  0  0
    6.7009  -13.8377   26.5817 C   0  0  0  0  0  0  0  0  0  0  0  0
    7.6291  -14.4401   25.5662 C   0  0  0  0  0  0  0  0  0  0  0  0
    7.2406  -15.8574   25.2060 C   0  0  2  0  0  0  0  0  0  0  0  0
    7.3485  -16.7554   26.3224 N   0  0  0  0  0  0  0  0  0  0  0  0
    8.0352  -16.3690   24.0629 C   0  0  0  0  0  0  0  0  0  0  0  0
    8.8629  -17.2986   24.3028 O   0  0  0  0  0  0  0  0  0  0  0  0
    7.8916  -15.8549   22.7486 N   0  0  0  0  0  0  0  0  0  0  0  0
    8.6947  -16.4282   21.7107 C   0  0  0  0  0  0  0  0  0  0  0  0
   10.1256  -16.1041   21.7758 C   0  0  0  0  0  0  0  0  0  0  0  0
   10.8183  -16.3768   20.7362 O   0  0  0  0  0  0  0  0  0  0  0  0
   10.8059  -15.5291   22.8568 N   0  0  0  0  0  0  0  0  0  0  0  0
   12.2265  -15.2038   22.8227 C   0  0  0  0  0  0  0  0  0  0  0  0
   12.9796  -16.3987   23.2647 C   0  0  0  0  0  0  0  0  0  0  0  0
   12.3636  -17.4665   23.4693 O   0  0  0  0  0  0  0  0  0  0  0  0
   14.3668  -16.3441   23.4544 O   0  0  0  0  0  0  0  0  0  0  0  0
  1  2  1  0
  2  3  1  0
  4  3  1  0
  5  4  1  0
  5  6  1  1
  7  9  1  0
  7  5  1  0
  8  7  2  0
 10 11  1  0
 10  9  1  0
 11 13  1  0
 12 11  2  0
 13 14  1  0
 14 15  1  0
 15 16  2  0
 15 17  1  0
M  END
$$$$
