MGG.pdb
     RDKit          3D

 17 16  0  0  1  0  0  0  0  0999 V2000
    5.5540  -11.0053   26.8212 C   0  0  0  0  0  0  0  0  0  0  0  0
    6.5006  -12.4785   27.3047 S   0  0  0  0  0  0  0  0  0  0  0  0
    6.5685  -13.6468   25.9229 C   0  0  0  0  0  0  0  0  0  0  0  0
    7.9416  -14.2492   25.8369 C   0  0  0  0  0  0  0  0  0  0  0  0
    8.0982  -15.1454   24.6279 C   0  0  2  0  0  0  0  0  0  0  0  0
    7.0401  -16.1118   24.5218 N   0  0  0  0  0  0  0  0  0  0  0  0
    9.4143  -15.8293   24.6203 C   0  0  0  0  0  0  0  0  0  0  0  0
   10.4481  -15.0960   24.6005 O   0  0  0  0  0  0  0  0  0  0  0  0
    9.5349  -17.2427   24.6344 N   0  0  0  0  0  0  0  0  0  0  0  0
   10.8496  -17.8047   24.7157 C   0  0  0  0  0  0  0  0  0  0  0  0
   11.8404  -17.2123   23.8079 C   0  0  0  0  0  0  0  0  0  0  0  0
   11.9151  -17.7213   22.6373 O   0  0  0  0  0  0  0  0  0  0  0  0
   12.7083  -16.1506   24.0931 N   0  0  0  0  0  0  0  0  0  0  0  0
   13.6620  -15.6190   23.1270 C   0  0  0  0  0  0  0  0  0  0  0  0
   14.9713  -16.2624   23.3759 C   0  0  0  0  0  0  0  0  0  0  0  0
   15.9835  -15.8358   22.7801 O   0  0  0  0  0  0  0  0  0  0  0  0
   15.0856  -17.3378   24.2669 O   0  0  0  0  0  0  0  0  0  0  0  0
  1  2  1  0
  2  3  1  0
  4  3  1  0
  5  4  1  0
  5  6  1  1
  7  9  1  0
  7  5  1  0
  8  7  2  0
 10 11  1  0
 10  9  1  0
 11 13  1  0
 12 11  2  0
 13 14  1  0
 14 15  1  0
 15 16  2  0
 15 17  1  0
M  END
$$$$
