MGG.pdb
     RDKit          3D

 17 16  0  0  1  0  0  0  0  0999 V2000
    6.3799  -11.4226   27.8718 C   0  0  0  0  0  0  0  0  0  0  0  0
    7.1296  -12.2283   26.4267 S   0  0  0  0  0  0  0  0  0  0  0  0
    5.9429  -13.3709   25.6749 C   0  0  0  0  0  0  0  0  0  0  0  0
    6.5078  -13.9171   24.3949 C   0  0  0  0  0  0  0  0  0  0  0  0
    7.0469  -15.3211   24.5609 C   0  0  2  0  0  0  0  0  0  0  0  0
    8.1202  -15.3865   25.5140 N   0  0  0  0  0  0  0  0  0  0  0  0
    7.4814  -15.8973   23.2652 C   0  0  0  0  0  0  0  0  0  0  0  0
    6.7636  -15.6481   22.2505 O   0  0  0  0  0  0  0  0  0  0  0  0
    8.6473  -16.6963   23.1430 N   0  0  0  0  0  0  0  0  0  0  0  0
    9.5053  -16.4666   22.0198 C   0  0  0  0  0  0  0  0  0  0  0  0
   10.8811  -16.0758   22.3532 C   0  0  0  0  0  0  0  0  0  0  0  0
   11.6457  -15.7905   21.3688 O   0  0  0  0  0  0  0  0  0  0  0  0
   11.4385  -15.9841   23.6349 N   0  0  0  0  0  0  0  0  0  0  0  0
   12.6293  -15.1973   23.9319 C   0  0  0  0  0  0  0  0  0  0  0  0
   13.8087  -16.0784   23.7803 C   0  0  0  0  0  0  0  0  0  0  0  0
   14.9021  -15.7236   24.2704 O   0  0  0  0  0  0  0  0  0  0  0  0
   13.7113  -17.2980   23.0972 O   0  0  0  0  0  0  0  0  0  0  0  0
  1  2  1  0
  2  3  1  0
  4  3  1  0
  5  4  1  0
  5  6  1  1
  7  9  1  0
  7  5  1  0
  8  7  2  0
 10 11  1  0
 10  9  1  0
 11 13  1  0
 12 11  2  0
 13 14  1  0
 14 15  1  0
 15 16  2  0
 15 17  1  0
M  END
$$$$
