MGG.pdb
     RDKit          3D

 17 16  0  0  1  0  0  0  0  0999 V2000
    7.4636  -10.9893   26.9740 C   0  0  0  0  0  0  0  0  0  0  0  0
    6.6721  -12.1455   25.8179 S   0  0  0  0  0  0  0  0  0  0  0  0
    6.5247  -13.7788   26.5858 C   0  0  0  0  0  0  0  0  0  0  0  0
    6.4055  -14.8300   25.5198 C   0  0  0  0  0  0  0  0  0  0  0  0
    7.4598  -14.6770   24.4453 C   0  0  2  0  0  0  0  0  0  0  0  0
    6.9299  -14.1130   23.2345 N   0  0  0  0  0  0  0  0  0  0  0  0
    8.1348  -15.9650   24.1535 C   0  0  0  0  0  0  0  0  0  0  0  0
    7.4329  -17.0177   24.2315 O   0  0  0  0  0  0  0  0  0  0  0  0
    9.5067  -16.0395   23.8001 N   0  0  0  0  0  0  0  0  0  0  0  0
   10.0481  -17.3243   23.4731 C   0  0  0  0  0  0  0  0  0  0  0  0
   11.4834  -17.3377   23.1624 C   0  0  0  0  0  0  0  0  0  0  0  0
   11.7968  -17.3516   21.9228 O   0  0  0  0  0  0  0  0  0  0  0  0
   12.5396  -17.3366   24.0824 N   0  0  0  0  0  0  0  0  0  0  0  0
   13.2370  -16.1245   24.4941 C   0  0  0  0  0  0  0  0  0  0  0  0
   14.3653  -15.9073   23.5615 C   0  0  0  0  0  0  0  0  0  0  0  0
   14.1681  -16.0085   22.3316 O   0  0  0  0  0  0  0  0  0  0  0  0
   15.6435  -15.5918   24.0412 O   0  0  0  0  0  0  0  0  0  0  0  0
  1  2  1  0
  2  3  1  0
  4  3  1  0
  5  4  1  0
  5  6  1  6
  7  9  1  0
  7  5  1  0
  8  7  2  0
 10 11  1  0
 10  9  1  0
 11 13  1  0
 12 11  2  0
 13 14  1  0
 14 15  1  0
 15 16  2  0
 15 17  1  0
M  END
$$$$
