MGG.pdb
     RDKit          3D

 17 16  0  0  1  0  0  0  0  0999 V2000
    7.1901  -11.0735   25.4438 C   0  0  0  0  0  0  0  0  0  0  0  0
    6.8675  -12.0095   26.9669 S   0  0  0  0  0  0  0  0  0  0  0  0
    6.4063  -13.7118   26.5567 C   0  0  0  0  0  0  0  0  0  0  0  0
    7.2046  -14.1812   25.3742 C   0  0  0  0  0  0  0  0  0  0  0  0
    6.8380  -15.5893   24.9592 C   0  0  2  0  0  0  0  0  0  0  0  0
    7.0570  -16.5445   26.0101 N   0  0  0  0  0  0  0  0  0  0  0  0
    7.5635  -16.0054   23.7343 C   0  0  0  0  0  0  0  0  0  0  0  0
    8.3796  -16.9691   23.8436 O   0  0  0  0  0  0  0  0  0  0  0  0
    7.3682  -15.3663   22.4829 N   0  0  0  0  0  0  0  0  0  0  0  0
    8.1254  -15.8367   21.3622 C   0  0  0  0  0  0  0  0  0  0  0  0
    9.5835  -15.7368   21.5061 C   0  0  0  0  0  0  0  0  0  0  0  0
   10.2820  -16.1445   20.5157 O   0  0  0  0  0  0  0  0  0  0  0  0
   10.2839  -15.2424   22.6138 N   0  0  0  0  0  0  0  0  0  0  0  0
   11.7351  -15.1066   22.6436 C   0  0  0  0  0  0  0  0  0  0  0  0
   12.3095  -16.4210   23.0079 C   0  0  0  0  0  0  0  0  0  0  0  0
   11.9551  -16.9669   24.0747 O   0  0  0  0  0  0  0  0  0  0  0  0
   13.2404  -17.0543   22.1738 O   0  0  0  0  0  0  0  0  0  0  0  0
  1  2  1  0
  2  3  1  0
  4  3  1  0
  5  4  1  0
  5  6  1  1
  7  9  1  0
  7  5  1  0
  8  7  2  0
 10 11  1  0
 10  9  1  0
 11 13  1  0
 12 11  2  0
 13 14  1  0
 14 15  1  0
 15 16  2  0
 15 17  1  0
M  END
$$$$
