MGG.pdb
     RDKit          3D

 17 16  0  0  1  0  0  0  0  0999 V2000
    5.1827  -11.1348   27.3525 C   0  0  0  0  0  0  0  0  0  0  0  0
    6.6476  -12.0198   26.7437 S   0  0  0  0  0  0  0  0  0  0  0  0
    6.2841  -12.7820   25.1418 C   0  0  0  0  0  0  0  0  0  0  0  0
    7.5297  -13.4117   24.5870 C   0  0  0  0  0  0  0  0  0  0  0  0
    7.4334  -14.9208   24.5354 C   0  0  2  0  0  0  0  0  0  0  0  0
    7.0976  -15.4921   25.8103 N   0  0  0  0  0  0  0  0  0  0  0  0
    8.6818  -15.5315   24.0173 C   0  0  0  0  0  0  0  0  0  0  0  0
    9.6424  -15.6670   24.8333 O   0  0  0  0  0  0  0  0  0  0  0  0
    8.8175  -15.9534   22.6697 N   0  0  0  0  0  0  0  0  0  0  0  0
   10.1403  -16.1068   22.1430 C   0  0  0  0  0  0  0  0  0  0  0  0
   10.9189  -17.2108   22.7188 C   0  0  0  0  0  0  0  0  0  0  0  0
   12.0556  -17.4454   22.1824 O   0  0  0  0  0  0  0  0  0  0  0  0
   10.5441  -18.0296   23.7916 N   0  0  0  0  0  0  0  0  0  0  0  0
   11.2735  -19.2346   24.1675 C   0  0  0  0  0  0  0  0  0  0  0  0
   12.3246  -18.8492   25.1355 C   0  0  0  0  0  0  0  0  0  0  0  0
   13.1740  -17.9942   24.8051 O   0  0  0  0  0  0  0  0  0  0  0  0
   12.3757  -19.4298   26.4097 O   0  0  0  0  0  0  0  0  0  0  0  0
  1  2  1  0
  2  3  1  0
  4  3  1  0
  5  4  1  0
  5  6  1  1
  7  9  1  0
  7  5  1  0
  8  7  2  0
 10 11  1  0
 10  9  1  0
 11 13  1  0
 12 11  2  0
 13 14  1  0
 14 15  1  0
 15 16  2  0
 15 17  1  0
M  END
$$$$
