RQW.pdb
     RDKit          3D

 35 36  0  0  1  0  0  0  0  0999 V2000
    7.7307  -13.5065   16.7559 N   0  0  0  0  0  0  0  0  0  0  0  0
    8.7272  -13.8905   17.6787 C   0  0  0  0  0  0  0  0  0  0  0  0
    9.3612  -12.9670   18.3529 N   0  0  0  0  0  0  0  0  0  0  0  0
    9.0928  -15.2334   17.9255 N   0  0  0  0  0  0  0  0  0  0  0  0
    8.4613  -16.3643   17.3188 C   0  0  0  0  0  0  0  0  0  0  0  0
    7.2290  -16.8562   18.0255 C   0  0  0  0  0  0  0  0  0  0  0  0
    7.4971  -17.9318   19.0324 C   0  0  0  0  0  0  0  0  0  0  0  0
    7.3505  -17.4605   20.4689 C   0  0  2  0  0  0  0  0  0  0  0  0
    6.9190  -16.0379   20.4200 N   0  0  0  0  0  0  0  0  0  0  0  0
    8.5938  -17.4888   21.2403 C   0  0  0  0  0  0  0  0  0  0  0  0
    8.8429  -18.5493   21.9093 O   0  0  0  0  0  0  0  0  0  0  0  0
   10.1454  -13.2238   18.9783 N   0  0  0  0  0  0  0  0  0  0  0  0
   14.5019  -14.9355   20.5618 C   0  0  0  0  0  0  0  0  0  0  0  0
   14.2766  -15.9291   21.5324 O   0  0  0  0  0  0  0  0  0  0  0  0
   15.0816  -16.8766   21.6538 C   0  0  0  0  0  0  0  0  0  0  0  0
   13.0669  -15.8552   22.4272 C   0  0  0  0  0  0  0  0  0  0  0  0
   11.8177  -15.8150   21.6227 C   0  0  2  0  0  0  0  0  0  0  0  0
   10.6376  -16.5469   22.2354 N   0  0  0  0  0  0  0  0  0  0  0  0
    9.5568  -16.4222   21.3026 C   0  0  0  0  0  0  0  0  0  0  0  0
   10.3359  -16.0591   23.6010 O   0  0  0  0  0  0  0  0  0  0  0  0
   10.1266  -14.8181   23.7266 N   0  0  0  0  0  0  0  0  0  0  0  0
   10.2644  -16.8492   24.7442 C   0  0  1  0  0  0  0  0  0  0  0  0
   10.1385  -16.4558   26.0865 C   0  0  0  0  0  0  0  0  0  0  0  0
    8.7558  -16.5283   26.7091 C   0  0  0  0  0  0  0  0  0  0  0  0
    7.7810  -15.7247   25.9395 C   0  0  0  0  0  0  0  0  0  0  0  0
    6.8398  -16.1595   25.0199 N   0  0  0  0  0  0  0  0  0  0  0  0
    6.1711  -15.0944   24.5456 C   0  0  0  0  0  0  0  0  0  0  0  0
    6.6472  -13.9546   25.1304 C   0  0  0  0  0  0  0  0  0  0  0  0
    6.2820  -12.6371   24.9650 C   0  0  0  0  0  0  0  0  0  0  0  0
    6.9248  -11.6498   25.6794 C   0  0  0  0  0  0  0  0  0  0  0  0
    7.9230  -12.0156   26.5459 C   0  0  0  0  0  0  0  0  0  0  0  0
    8.2745  -13.3305   26.6997 C   0  0  0  0  0  0  0  0  0  0  0  0
    7.6494  -14.3620   25.9960 C   0  0  0  0  0  0  0  0  0  0  0  0
   11.0994  -17.0641   26.9981 O   0  0  0  0  0  0  0  0  0  0  0  0
   11.0966  -16.7200   28.3474 O   0  0  0  0  0  0  0  0  0  0  0  0
  2  1  1  0
  3  2  2  0
  4  2  1  0
  5  4  1  0
  6  5  1  0
  7  6  1  0
  8  9  1  6
  8 10  1  0
  8  7  1  0
 10 18  1  0
 10 11  2  0
 13 12  1  0
 13 14  2  0
 15 16  1  0
 15 13  1  0
 17 16  1  6
 17 19  1  0
 18 17  1  0
 19 20  2  0
 19 21  1  0
 21 22  1  0
 22 33  1  0
 22 23  1  1
 24 25  2  0
 24 23  1  0
 26 25  1  0
 27 32  2  0
 27 26  1  0
 28 27  1  0
 29 30  1  0
 29 28  2  0
 30 31  2  0
 31 32  1  0
 32 24  1  0
 33 34  1  0
 35 33  2  0
M  END
$$$$
