RQW.pdb
     RDKit          3D

 35 36  0  0  1  0  0  0  0  0999 V2000
   18.0811  -19.7929   21.4900 N   0  0  0  0  0  0  0  0  0  0  0  0
   17.0139  -20.7164   21.4707 C   0  0  0  0  0  0  0  0  0  0  0  0
   17.2420  -21.9457   21.0887 N   0  0  0  0  0  0  0  0  0  0  0  0
   15.6892  -20.3930   21.8430 N   0  0  0  0  0  0  0  0  0  0  0  0
   15.1345  -19.0760   21.7818 C   0  0  0  0  0  0  0  0  0  0  0  0
   14.3883  -18.7616   20.5152 C   0  0  0  0  0  0  0  0  0  0  0  0
   13.0822  -19.4830   20.3868 C   0  0  0  0  0  0  0  0  0  0  0  0
   11.9776  -18.6254   19.7939 C   0  0  2  0  0  0  0  0  0  0  0  0
   12.5805  -17.8451   18.6803 N   0  0  0  0  0  0  0  0  0  0  0  0
   11.4111  -17.6479   20.7240 C   0  0  0  0  0  0  0  0  0  0  0  0
   12.0953  -16.5922   20.9515 O   0  0  0  0  0  0  0  0  0  0  0  0
   16.4660  -22.6297   21.0419 N   0  0  0  0  0  0  0  0  0  0  0  0
    5.7707  -15.7735   20.7242 C   0  0  0  0  0  0  0  0  0  0  0  0
    6.2504  -14.9657   21.7718 O   0  0  0  0  0  0  0  0  0  0  0  0
    5.5490  -14.0286   22.2084 C   0  0  0  0  0  0  0  0  0  0  0  0
    7.6082  -15.2261   22.3701 C   0  0  0  0  0  0  0  0  0  0  0  0
    8.2916  -16.3399   21.6617 C   0  0  1  0  0  0  0  0  0  0  0  0
    9.6821  -16.6676   22.1744 N   0  0  0  0  0  0  0  0  0  0  0  0
   10.1472  -17.7787   21.3981 C   0  0  0  0  0  0  0  0  0  0  0  0
    9.6908  -16.8889   23.6390 O   0  0  0  0  0  0  0  0  0  0  0  0
    9.2443  -17.9996   24.0473 N   0  0  0  0  0  0  0  0  0  0  0  0
   10.1470  -15.9823   24.5909 C   0  0  2  0  0  0  0  0  0  0  0  0
   10.1626  -16.0998   25.9903 C   0  0  0  0  0  0  0  0  0  0  0  0
    8.8596  -16.4718   26.6748 C   0  0  0  0  0  0  0  0  0  0  0  0
    7.7539  -15.5951   26.2306 C   0  0  0  0  0  0  0  0  0  0  0  0
    6.5602  -15.9525   25.6242 N   0  0  0  0  0  0  0  0  0  0  0  0
    5.8491  -14.8397   25.3744 C   0  0  0  0  0  0  0  0  0  0  0  0
    6.5446  -13.7438   25.8023 C   0  0  0  0  0  0  0  0  0  0  0  0
    6.2289  -12.4039   25.7609 C   0  0  0  0  0  0  0  0  0  0  0  0
    7.1119  -11.4729   26.2627 C   0  0  0  0  0  0  0  0  0  0  0  0
    8.2952  -11.9164   26.7959 C   0  0  0  0  0  0  0  0  0  0  0  0
    8.5946  -13.2526   26.8303 C   0  0  0  0  0  0  0  0  0  0  0  0
    7.7288  -14.2290   26.3332 C   0  0  0  0  0  0  0  0  0  0  0  0
   11.2318  -16.9332   26.5254 O   0  0  0  0  0  0  0  0  0  0  0  0
   12.1789  -17.4893   25.6694 O   0  0  0  0  0  0  0  0  0  0  0  0
  2  1  1  0
  3  2  2  0
  4  2  1  0
  5  4  1  0
  6  5  1  0
  7  6  1  0
  8  9  1  6
  8 10  1  0
  8  7  1  0
 10 18  1  0
 10 11  2  0
 13 12  1  0
 13 14  2  0
 15 16  1  0
 15 13  1  0
 17 16  1  6
 17 19  1  0
 18 17  1  0
 19 20  2  0
 19 21  1  0
 21 22  1  0
 22 33  1  0
 22 23  1  6
 24 25  2  0
 24 23  1  0
 26 25  1  0
 27 32  2  0
 27 26  1  0
 28 27  1  0
 29 30  1  0
 29 28  2  0
 30 31  2  0
 31 32  1  0
 32 24  1  0
 33 34  1  0
 35 33  2  0
M  END
$$$$
