RQW.pdb
     RDKit          3D

 35 36  0  0  1  0  0  0  0  0999 V2000
    8.2974  -13.4616   17.0788 N   0  0  0  0  0  0  0  0  0  0  0  0
    7.5650  -13.3402   18.2792 C   0  0  0  0  0  0  0  0  0  0  0  0
    6.4423  -13.9972   18.4098 N   0  0  0  0  0  0  0  0  0  0  0  0
    7.9727  -12.5388   19.3698 N   0  0  0  0  0  0  0  0  0  0  0  0
    8.3999  -13.0555   20.6333 C   0  0  0  0  0  0  0  0  0  0  0  0
    8.1018  -14.5122   20.8552 C   0  0  0  0  0  0  0  0  0  0  0  0
    8.5234  -15.0185   22.2001 C   0  0  0  0  0  0  0  0  0  0  0  0
    8.2568  -16.5011   22.3948 C   0  0  2  0  0  0  0  0  0  0  0  0
    6.7891  -16.6610   22.5754 N   0  0  0  0  0  0  0  0  0  0  0  0
    8.8845  -17.0730   23.5867 C   0  0  0  0  0  0  0  0  0  0  0  0
    8.3619  -16.7861   24.7176 O   0  0  0  0  0  0  0  0  0  0  0  0
    5.8858  -13.9111   19.2788 N   0  0  0  0  0  0  0  0  0  0  0  0
   14.5044  -17.5202   21.7376 C   0  0  0  0  0  0  0  0  0  0  0  0
   13.1080  -17.6784   21.8105 O   0  0  0  0  0  0  0  0  0  0  0  0
   12.6192  -18.8027   22.0504 C   0  0  0  0  0  0  0  0  0  0  0  0
   12.1985  -16.4961   21.6001 C   0  0  0  0  0  0  0  0  0  0  0  0
   11.4424  -16.1849   22.8415 C   0  0  2  0  0  0  0  0  0  0  0  0
   11.3195  -17.3368   23.8222 N   0  0  0  0  0  0  0  0  0  0  0  0
   10.0377  -17.9327   23.5863 C   0  0  0  0  0  0  0  0  0  0  0  0
   11.5509  -16.8985   25.2180 O   0  0  0  0  0  0  0  0  0  0  0  0
   12.7554  -16.8203   25.5955 N   0  0  0  0  0  0  0  0  0  0  0  0
   10.5592  -16.5686   26.1366 C   0  0  1  0  0  0  0  0  0  0  0  0
   10.6872  -16.2139   27.4895 C   0  0  0  0  0  0  0  0  0  0  0  0
    9.8898  -15.0175   27.9767 C   0  0  0  0  0  0  0  0  0  0  0  0
    8.6377  -14.8603   27.2047 C   0  0  0  0  0  0  0  0  0  0  0  0
    7.7141  -15.8315   26.8522 N   0  0  0  0  0  0  0  0  0  0  0  0
    6.7310  -15.2577   26.1376 C   0  0  0  0  0  0  0  0  0  0  0  0
    6.9792  -13.9203   26.0050 C   0  0  0  0  0  0  0  0  0  0  0  0
    6.2668  -12.9311   25.3644 C   0  0  0  0  0  0  0  0  0  0  0  0
    6.7328  -11.6344   25.3688 C   0  0  0  0  0  0  0  0  0  0  0  0
    7.9089  -11.3656   26.0211 C   0  0  0  0  0  0  0  0  0  0  0  0
    8.6058  -12.3604   26.6542 C   0  0  0  0  0  0  0  0  0  0  0  0
    8.1698  -13.6868   26.6743 C   0  0  0  0  0  0  0  0  0  0  0  0
   10.5143  -17.3122   28.4319 O   0  0  0  0  0  0  0  0  0  0  0  0
   10.1124  -18.5657   27.9778 O   0  0  0  0  0  0  0  0  0  0  0  0
  2  1  1  0
  3  2  2  0
  4  2  1  0
  5  4  1  0
  6  5  1  0
  7  6  1  0
  8  9  1  1
  8 10  1  0
  8  7  1  0
 10 18  1  0
 10 11  2  0
 13 12  1  0
 13 14  2  0
 15 16  1  0
 15 13  1  0
 17 16  1  6
 17 19  1  0
 18 17  1  0
 19 20  2  0
 19 21  1  0
 21 22  1  0
 22 33  1  0
 22 23  1  1
 24 25  2  0
 24 23  1  0
 26 25  1  0
 27 32  2  0
 27 26  1  0
 28 27  1  0
 29 30  1  0
 29 28  2  0
 30 31  2  0
 31 32  1  0
 32 24  1  0
 33 34  1  0
 35 33  2  0
M  END
$$$$
