RQW.pdb
     RDKit          3D

 35 36  0  0  1  0  0  0  0  0999 V2000
    9.3967  -15.0716   15.8963 N   0  0  0  0  0  0  0  0  0  0  0  0
    8.5155  -13.9689   15.8969 C   0  0  0  0  0  0  0  0  0  0  0  0
    7.7268  -13.7830   14.8710 N   0  0  0  0  0  0  0  0  0  0  0  0
    8.4292  -13.0339   16.9534 N   0  0  0  0  0  0  0  0  0  0  0  0
    8.3724  -13.3869   18.3384 C   0  0  0  0  0  0  0  0  0  0  0  0
    7.2676  -14.3385   18.7045 C   0  0  0  0  0  0  0  0  0  0  0  0
    7.2249  -14.6851   20.1608 C   0  0  0  0  0  0  0  0  0  0  0  0
    8.5806  -14.5957   20.8400 C   0  0  2  0  0  0  0  0  0  0  0  0
    9.6116  -14.7188   19.7750 N   0  0  0  0  0  0  0  0  0  0  0  0
    8.8450  -15.6705   21.7973 C   0  0  0  0  0  0  0  0  0  0  0  0
    7.9122  -15.9622   22.6214 O   0  0  0  0  0  0  0  0  0  0  0  0
    7.0759  -12.9779   14.8528 N   0  0  0  0  0  0  0  0  0  0  0  0
   13.3229  -20.0340   21.8086 C   0  0  0  0  0  0  0  0  0  0  0  0
   12.7850  -20.2158   23.0961 O   0  0  0  0  0  0  0  0  0  0  0  0
   13.2409  -21.1079   23.8424 C   0  0  0  0  0  0  0  0  0  0  0  0
   11.6600  -19.3382   23.5793 C   0  0  0  0  0  0  0  0  0  0  0  0
   11.3216  -18.3075   22.5630 C   0  0  1  0  0  0  0  0  0  0  0  0
   10.2061  -17.3581   22.9607 N   0  0  0  0  0  0  0  0  0  0  0  0
   10.0666  -16.4250   21.8820 C   0  0  0  0  0  0  0  0  0  0  0  0
   10.4538  -16.7414   24.2844 O   0  0  0  0  0  0  0  0  0  0  0  0
   11.3855  -15.8884   24.3473 N   0  0  0  0  0  0  0  0  0  0  0  0
    9.7500  -17.0223   25.4514 C   0  0  1  0  0  0  0  0  0  0  0  0
    9.9500  -16.5226   26.7486 C   0  0  0  0  0  0  0  0  0  0  0  0
    8.7157  -16.1787   27.5629 C   0  0  0  0  0  0  0  0  0  0  0  0
    7.7070  -15.4819   26.7351 C   0  0  0  0  0  0  0  0  0  0  0  0
    6.6925  -16.0314   25.9674 N   0  0  0  0  0  0  0  0  0  0  0  0
    6.0163  -15.0382   25.3651 C   0  0  0  0  0  0  0  0  0  0  0  0
    6.5593  -13.8339   25.7152 C   0  0  0  0  0  0  0  0  0  0  0  0
    6.2136  -12.5507   25.3537 C   0  0  0  0  0  0  0  0  0  0  0  0
    6.9286  -11.4807   25.8459 C   0  0  0  0  0  0  0  0  0  0  0  0
    7.9776  -11.7308   26.6933 C   0  0  0  0  0  0  0  0  0  0  0  0
    8.3088  -13.0129   27.0439 C   0  0  0  0  0  0  0  0  0  0  0  0
    7.6113  -14.1252   26.5685 C   0  0  0  0  0  0  0  0  0  0  0  0
   10.8584  -17.3063   27.5761 O   0  0  0  0  0  0  0  0  0  0  0  0
   11.2083  -16.8578   28.8472 O   0  0  0  0  0  0  0  0  0  0  0  0
  2  1  1  0
  3  2  2  0
  4  2  1  0
  5  4  1  0
  6  5  1  0
  7  6  1  0
  8  9  1  6
  8 10  1  0
  8  7  1  0
 10 18  1  0
 10 11  2  0
 13 12  1  0
 13 14  2  0
 15 16  1  0
 15 13  1  0
 17 16  1  6
 17 19  1  0
 18 17  1  0
 19 20  2  0
 19 21  1  0
 21 22  1  0
 22 33  1  0
 22 23  1  1
 24 25  2  0
 24 23  1  0
 26 25  1  0
 27 32  2  0
 27 26  1  0
 28 27  1  0
 29 30  1  0
 29 28  2  0
 30 31  2  0
 31 32  1  0
 32 24  1  0
 33 34  1  0
 35 33  2  0
M  END
$$$$
