RQW.pdb
     RDKit          3D

 35 36  0  0  1  0  0  0  0  0999 V2000
    7.8174  -13.1798   16.9103 N   0  0  0  0  0  0  0  0  0  0  0  0
    8.1130  -14.4876   17.3512 C   0  0  0  0  0  0  0  0  0  0  0  0
    7.4800  -14.9684   18.3891 N   0  0  0  0  0  0  0  0  0  0  0  0
    9.0675  -15.3273   16.7332 N   0  0  0  0  0  0  0  0  0  0  0  0
   10.4296  -14.9602   16.4970 C   0  0  0  0  0  0  0  0  0  0  0  0
   11.4485  -15.8631   17.1348 C   0  0  0  0  0  0  0  0  0  0  0  0
   11.9076  -15.4006   18.4832 C   0  0  0  0  0  0  0  0  0  0  0  0
   11.9342  -16.5087   19.5218 C   0  0  2  0  0  0  0  0  0  0  0  0
   11.4651  -17.7495   18.8488 N   0  0  0  0  0  0  0  0  0  0  0  0
   11.0370  -16.2899   20.6570 C   0  0  0  0  0  0  0  0  0  0  0  0
   11.1965  -15.2146   21.3298 O   0  0  0  0  0  0  0  0  0  0  0  0
    7.6871  -15.9242   18.7295 N   0  0  0  0  0  0  0  0  0  0  0  0
    5.7115  -19.2815   22.0382 C   0  0  0  0  0  0  0  0  0  0  0  0
    5.7368  -18.3005   23.0468 O   0  0  0  0  0  0  0  0  0  0  0  0
    4.7620  -18.1729   23.8175 C   0  0  0  0  0  0  0  0  0  0  0  0
    6.9361  -17.4022   23.2014 C   0  0  0  0  0  0  0  0  0  0  0  0
    7.9146  -17.6360   22.1072 C   0  0  1  0  0  0  0  0  0  0  0  0
    9.1752  -16.7942   22.1847 N   0  0  0  0  0  0  0  0  0  0  0  0
    9.9904  -17.1847   21.0725 C   0  0  0  0  0  0  0  0  0  0  0  0
    9.8343  -16.9102   23.5061 O   0  0  0  0  0  0  0  0  0  0  0  0
   10.4785  -17.9759   23.7269 N   0  0  0  0  0  0  0  0  0  0  0  0
    9.8021  -15.9498   24.5125 C   0  0  2  0  0  0  0  0  0  0  0  0
   10.0935  -16.0888   25.8793 C   0  0  0  0  0  0  0  0  0  0  0  0
    9.5664  -15.0188   26.8184 C   0  0  0  0  0  0  0  0  0  0  0  0
    8.2087  -14.5838   26.4238 C   0  0  0  0  0  0  0  0  0  0  0  0
    7.1042  -15.3668   26.1277 N   0  0  0  0  0  0  0  0  0  0  0  0
    6.0767  -14.5638   25.8023 C   0  0  0  0  0  0  0  0  0  0  0  0
    6.4727  -13.2578   25.8749 C   0  0  0  0  0  0  0  0  0  0  0  0
    5.7805  -12.0919   25.6337 C   0  0  0  0  0  0  0  0  0  0  0  0
    6.4114  -10.8752   25.7750 C   0  0  0  0  0  0  0  0  0  0  0  0
    7.7285  -10.8632   26.1573 C   0  0  0  0  0  0  0  0  0  0  0  0
    8.4032  -12.0314   26.3941 C   0  0  0  0  0  0  0  0  0  0  0  0
    7.8026  -13.2852   26.2629 C   0  0  0  0  0  0  0  0  0  0  0  0
    9.7941  -17.3998   26.4415 O   0  0  0  0  0  0  0  0  0  0  0  0
   10.3213  -17.7670   27.6769 O   0  0  0  0  0  0  0  0  0  0  0  0
  2  1  1  0
  3  2  2  0
  4  2  1  0
  5  4  1  0
  6  5  1  0
  7  6  1  0
  8  9  1  6
  8 10  1  0
  8  7  1  0
 10 18  1  0
 10 11  2  0
 13 12  1  0
 13 14  2  0
 15 16  1  0
 15 13  1  0
 17 16  1  6
 17 19  1  0
 18 17  1  0
 19 20  2  0
 19 21  1  0
 21 22  1  0
 22 33  1  0
 22 23  1  6
 24 25  2  0
 24 23  1  0
 26 25  1  0
 27 32  2  0
 27 26  1  0
 28 27  1  0
 29 30  1  0
 29 28  2  0
 30 31  2  0
 31 32  1  0
 32 24  1  0
 33 34  1  0
 35 33  2  0
M  END
$$$$
