RQW.pdb
     RDKit          3D

 35 36  0  0  1  0  0  0  0  0999 V2000
    7.7944  -12.7814   17.7523 N   0  0  0  0  0  0  0  0  0  0  0  0
    7.7201  -13.5554   16.5745 C   0  0  0  0  0  0  0  0  0  0  0  0
    7.6840  -12.9508   15.4159 N   0  0  0  0  0  0  0  0  0  0  0  0
    7.6801  -14.9684   16.5650 N   0  0  0  0  0  0  0  0  0  0  0  0
    8.2735  -15.7973   17.5683 C   0  0  0  0  0  0  0  0  0  0  0  0
    9.7145  -15.4933   17.8700 C   0  0  0  0  0  0  0  0  0  0  0  0
    9.9194  -14.7367   19.1461 C   0  0  0  0  0  0  0  0  0  0  0  0
   10.9162  -15.3970   20.0829 C   0  0  2  0  0  0  0  0  0  0  0  0
   11.5718  -16.4932   19.3209 N   0  0  0  0  0  0  0  0  0  0  0  0
   10.3119  -16.0177   21.2624 C   0  0  0  0  0  0  0  0  0  0  0  0
    9.6384  -15.2603   22.0416 O   0  0  0  0  0  0  0  0  0  0  0  0
    7.5559  -13.4977   14.5460 N   0  0  0  0  0  0  0  0  0  0  0  0
   10.2054  -22.0881   22.7249 C   0  0  0  0  0  0  0  0  0  0  0  0
    9.4758  -21.5120   21.6685 O   0  0  0  0  0  0  0  0  0  0  0  0
    8.9938  -22.2388   20.7741 C   0  0  0  0  0  0  0  0  0  0  0  0
    9.2733  -20.0203   21.6111 C   0  0  0  0  0  0  0  0  0  0  0  0
    9.8484  -19.3635   22.8141 C   0  0  2  0  0  0  0  0  0  0  0  0
    9.7699  -17.8477   22.8153 N   0  0  0  0  0  0  0  0  0  0  0  0
   10.4127  -17.4093   21.6118 C   0  0  0  0  0  0  0  0  0  0  0  0
   10.3259  -17.2687   24.0602 O   0  0  0  0  0  0  0  0  0  0  0  0
   11.5300  -16.8839   24.0183 N   0  0  0  0  0  0  0  0  0  0  0  0
    9.6359  -17.1152   25.2587 C   0  0  1  0  0  0  0  0  0  0  0  0
   10.1122  -16.6773   26.5053 C   0  0  0  0  0  0  0  0  0  0  0  0
    9.8261  -15.2385   26.8963 C   0  0  0  0  0  0  0  0  0  0  0  0
    8.4426  -14.8538   26.5412 C   0  0  0  0  0  0  0  0  0  0  0  0
    7.3749  -15.6759   26.2175 N   0  0  0  0  0  0  0  0  0  0  0  0
    6.3035  -14.9108   25.9469 C   0  0  0  0  0  0  0  0  0  0  0  0
    6.6340  -13.5917   26.0833 C   0  0  0  0  0  0  0  0  0  0  0  0
    5.8804  -12.4518   25.9119 C   0  0  0  0  0  0  0  0  0  0  0  0
    6.4510  -11.2134   26.1093 C   0  0  0  0  0  0  0  0  0  0  0  0
    7.7712  -11.1538   26.4762 C   0  0  0  0  0  0  0  0  0  0  0  0
    8.5074  -12.2967   26.6432 C   0  0  0  0  0  0  0  0  0  0  0  0
    7.9690  -13.5710   26.4536 C   0  0  0  0  0  0  0  0  0  0  0  0
    9.7839  -17.5461   27.6285 O   0  0  0  0  0  0  0  0  0  0  0  0
    8.9203  -18.6236   27.4492 O   0  0  0  0  0  0  0  0  0  0  0  0
  2  1  1  0
  3  2  2  0
  4  2  1  0
  5  4  1  0
  6  5  1  0
  7  6  1  0
  8  9  1  6
  8 10  1  0
  8  7  1  0
 10 18  1  0
 10 11  2  0
 13 12  1  0
 13 14  2  0
 15 16  1  0
 15 13  1  0
 17 16  1  6
 17 19  1  0
 18 17  1  0
 19 20  2  0
 19 21  1  0
 21 22  1  0
 22 33  1  0
 22 23  1  1
 24 25  2  0
 24 23  1  0
 26 25  1  0
 27 32  2  0
 27 26  1  0
 28 27  1  0
 29 30  1  0
 29 28  2  0
 30 31  2  0
 31 32  1  0
 32 24  1  0
 33 34  1  0
 35 33  2  0
M  END
$$$$
