RQW.pdb
     RDKit          3D

 35 36  0  0  1  0  0  0  0  0999 V2000
    7.4806  -15.0989   14.6655 N   0  0  0  0  0  0  0  0  0  0  0  0
    7.9250  -13.9634   15.3763 C   0  0  0  0  0  0  0  0  0  0  0  0
    7.9125  -12.7970   14.7859 N   0  0  0  0  0  0  0  0  0  0  0  0
    8.3928  -14.0053   16.7095 N   0  0  0  0  0  0  0  0  0  0  0  0
    8.5264  -15.2040   17.4785 C   0  0  0  0  0  0  0  0  0  0  0  0
    7.2738  -15.6485   18.1811 C   0  0  0  0  0  0  0  0  0  0  0  0
    7.5266  -16.4101   19.4455 C   0  0  0  0  0  0  0  0  0  0  0  0
    8.3090  -15.6175   20.4784 C   0  0  2  0  0  0  0  0  0  0  0  0
    9.5417  -15.1239   19.8083 N   0  0  0  0  0  0  0  0  0  0  0  0
    8.7516  -16.4042   21.6303 C   0  0  0  0  0  0  0  0  0  0  0  0
    7.8451  -16.9257   22.3655 O   0  0  0  0  0  0  0  0  0  0  0  0
    8.2793  -11.9611   15.2748 N   0  0  0  0  0  0  0  0  0  0  0  0
   14.2664  -19.1096   22.4897 C   0  0  0  0  0  0  0  0  0  0  0  0
   13.2799  -19.4519   21.5464 O   0  0  0  0  0  0  0  0  0  0  0  0
   13.5709  -20.1843   20.5772 C   0  0  0  0  0  0  0  0  0  0  0  0
   11.8722  -18.9382   21.7004 C   0  0  0  0  0  0  0  0  0  0  0  0
   11.7516  -18.0856   22.9121 C   0  0  2  0  0  0  0  0  0  0  0  0
   10.3790  -17.4763   23.1324 N   0  0  0  0  0  0  0  0  0  0  0  0
   10.1222  -16.6392   21.9979 C   0  0  0  0  0  0  0  0  0  0  0  0
   10.2851  -16.7902   24.4417 O   0  0  0  0  0  0  0  0  0  0  0  0
   10.7876  -15.6317   24.5123 N   0  0  0  0  0  0  0  0  0  0  0  0
    9.6934  -17.3129   25.5876 C   0  0  1  0  0  0  0  0  0  0  0  0
    9.6916  -16.8017   26.8957 C   0  0  0  0  0  0  0  0  0  0  0  0
    8.3558  -16.3751   27.4773 C   0  0  0  0  0  0  0  0  0  0  0  0
    7.6307  -15.4802   26.5490 C   0  0  0  0  0  0  0  0  0  0  0  0
    6.7781  -15.8218   25.5113 N   0  0  0  0  0  0  0  0  0  0  0  0
    6.3485  -14.6973   24.9134 C   0  0  0  0  0  0  0  0  0  0  0  0
    6.8978  -13.6092   25.5315 C   0  0  0  0  0  0  0  0  0  0  0  0
    6.7577  -12.2629   25.2775 C   0  0  0  0  0  0  0  0  0  0  0  0
    7.4291  -11.3427   26.0528 C   0  0  0  0  0  0  0  0  0  0  0  0
    8.2274  -11.8034   27.0684 C   0  0  0  0  0  0  0  0  0  0  0  0
    8.3560  -13.1457   27.3089 C   0  0  0  0  0  0  0  0  0  0  0  0
    7.6940  -14.1115   26.5481 C   0  0  0  0  0  0  0  0  0  0  0  0
   10.3940  -17.6197   27.8763 O   0  0  0  0  0  0  0  0  0  0  0  0
   10.6000  -17.1399   29.1672 O   0  0  0  0  0  0  0  0  0  0  0  0
  2  1  1  0
  3  2  2  0
  4  2  1  0
  5  4  1  0
  6  5  1  0
  7  6  1  0
  8  9  1  6
  8 10  1  0
  8  7  1  0
 10 18  1  0
 10 11  2  0
 13 12  1  0
 13 14  2  0
 15 16  1  0
 15 13  1  0
 17 16  1  6
 17 19  1  0
 18 17  1  0
 19 20  2  0
 19 21  1  0
 21 22  1  0
 22 33  1  0
 22 23  1  1
 24 25  2  0
 24 23  1  0
 26 25  1  0
 27 32  2  0
 27 26  1  0
 28 27  1  0
 29 30  1  0
 29 28  2  0
 30 31  2  0
 31 32  1  0
 32 24  1  0
 33 34  1  0
 35 33  2  0
M  END
$$$$
