RQW.pdb
     RDKit          3D

 35 36  0  0  1  0  0  0  0  0999 V2000
    7.9346  -11.1610   19.6080 N   0  0  0  0  0  0  0  0  0  0  0  0
    7.7168  -12.4026   18.9732 C   0  0  0  0  0  0  0  0  0  0  0  0
    8.4605  -12.7345   17.9505 N   0  0  0  0  0  0  0  0  0  0  0  0
    6.7275  -13.3279   19.3772 N   0  0  0  0  0  0  0  0  0  0  0  0
    6.5851  -14.6430   18.8331 C   0  0  0  0  0  0  0  0  0  0  0  0
    7.8375  -15.4744   18.8501 C   0  0  0  0  0  0  0  0  0  0  0  0
    8.2103  -15.9799   20.2096 C   0  0  0  0  0  0  0  0  0  0  0  0
    9.3709  -16.9595   20.1892 C   0  0  2  0  0  0  0  0  0  0  0  0
    8.8731  -18.2135   19.5631 N   0  0  0  0  0  0  0  0  0  0  0  0
    9.8687  -17.3289   21.5149 C   0  0  0  0  0  0  0  0  0  0  0  0
    9.4892  -18.4536   21.9896 O   0  0  0  0  0  0  0  0  0  0  0  0
    8.3066  -13.6357   17.4644 N   0  0  0  0  0  0  0  0  0  0  0  0
   14.1296  -14.8330   22.5167 C   0  0  0  0  0  0  0  0  0  0  0  0
   14.1634  -16.0448   21.8021 O   0  0  0  0  0  0  0  0  0  0  0  0
   14.8452  -16.1353   20.7593 C   0  0  0  0  0  0  0  0  0  0  0  0
   13.3797  -17.2352   22.2898 C   0  0  0  0  0  0  0  0  0  0  0  0
   12.7099  -16.9322   23.5817 C   0  0  2  0  0  0  0  0  0  0  0  0
   11.1991  -17.0769   23.5693 N   0  0  0  0  0  0  0  0  0  0  0  0
   10.7515  -16.5305   22.3224 C   0  0  0  0  0  0  0  0  0  0  0  0
   10.5781  -16.4703   24.7694 O   0  0  0  0  0  0  0  0  0  0  0  0
   10.1941  -15.2698   24.6638 N   0  0  0  0  0  0  0  0  0  0  0  0
   10.3848  -17.1094   25.9902 C   0  0  1  0  0  0  0  0  0  0  0  0
    9.8660  -16.5924   27.1885 C   0  0  0  0  0  0  0  0  0  0  0  0
    8.3643  -16.6773   27.3938 C   0  0  0  0  0  0  0  0  0  0  0  0
    7.6414  -15.8679   26.3885 C   0  0  0  0  0  0  0  0  0  0  0  0
    6.8919  -16.3038   25.3074 N   0  0  0  0  0  0  0  0  0  0  0  0
    6.4225  -15.2333   24.6438 C   0  0  0  0  0  0  0  0  0  0  0  0
    6.8440  -14.0888   25.2605 C   0  0  0  0  0  0  0  0  0  0  0  0
    6.6219  -12.7651   24.9520 C   0  0  0  0  0  0  0  0  0  0  0  0
    7.1663  -11.7742   25.7394 C   0  0  0  0  0  0  0  0  0  0  0  0
    7.9234  -12.1426   26.8220 C   0  0  0  0  0  0  0  0  0  0  0  0
    8.1348  -13.4636   27.1161 C   0  0  0  0  0  0  0  0  0  0  0  0
    7.6021  -14.4990   26.3453 C   0  0  0  0  0  0  0  0  0  0  0  0
   10.5349  -17.0548   28.3981 O   0  0  0  0  0  0  0  0  0  0  0  0
   11.5879  -17.9618   28.3108 O   0  0  0  0  0  0  0  0  0  0  0  0
  2  1  1  0
  3  2  2  0
  4  2  1  0
  5  4  1  0
  6  5  1  0
  7  6  1  0
  8  9  1  1
  8 10  1  0
  8  7  1  0
 10 18  1  0
 10 11  2  0
 13 12  1  0
 13 14  2  0
 15 16  1  0
 15 13  1  0
 17 16  1  6
 17 19  1  0
 18 17  1  0
 19 20  2  0
 19 21  1  0
 21 22  1  0
 22 33  1  0
 22 23  1  1
 24 25  2  0
 24 23  1  0
 26 25  1  0
 27 32  2  0
 27 26  1  0
 28 27  1  0
 29 30  1  0
 29 28  2  0
 30 31  2  0
 31 32  1  0
 32 24  1  0
 33 34  1  0
 35 33  2  0
M  END
$$$$
