RQW.pdb
     RDKit          3D

 35 36  0  0  1  0  0  0  0  0999 V2000
    7.7987  -12.1838   17.0573 N   0  0  0  0  0  0  0  0  0  0  0  0
    7.6901  -13.5612   17.3457 C   0  0  0  0  0  0  0  0  0  0  0  0
    8.6075  -14.3795   16.9009 N   0  0  0  0  0  0  0  0  0  0  0  0
    6.6337  -14.1250   18.0969 N   0  0  0  0  0  0  0  0  0  0  0  0
    6.5690  -15.4989   18.4896 C   0  0  0  0  0  0  0  0  0  0  0  0
    7.6235  -15.9271   19.4717 C   0  0  0  0  0  0  0  0  0  0  0  0
    7.1268  -16.0475   20.8794 C   0  0  0  0  0  0  0  0  0  0  0  0
    6.6932  -17.4565   21.2452 C   0  0  2  0  0  0  0  0  0  0  0  0
    5.3083  -17.6343   20.7325 N   0  0  0  0  0  0  0  0  0  0  0  0
    6.6368  -17.7130   22.6849 C   0  0  0  0  0  0  0  0  0  0  0  0
    5.6604  -17.2013   23.3323 O   0  0  0  0  0  0  0  0  0  0  0  0
    9.3814  -14.0247   16.3116 N   0  0  0  0  0  0  0  0  0  0  0  0
    7.6827  -22.4317   26.2752 C   0  0  0  0  0  0  0  0  0  0  0  0
    7.7114  -21.4211   27.2540 O   0  0  0  0  0  0  0  0  0  0  0  0
    7.7981  -21.7254   28.4625 C   0  0  0  0  0  0  0  0  0  0  0  0
    7.6378  -19.9716   26.8504 C   0  0  0  0  0  0  0  0  0  0  0  0
    7.5823  -19.8384   25.3710 C   0  0  1  0  0  0  0  0  0  0  0  0
    7.5588  -18.4105   24.8569 N   0  0  0  0  0  0  0  0  0  0  0  0
    7.5885  -18.4958   23.4267 C   0  0  0  0  0  0  0  0  0  0  0  0
    8.6422  -17.5937   25.4509 O   0  0  0  0  0  0  0  0  0  0  0  0
    9.8026  -17.7590   24.9758 N   0  0  0  0  0  0  0  0  0  0  0  0
    8.4864  -16.6683   26.4783 C   0  0  1  0  0  0  0  0  0  0  0  0
    9.4694  -15.9698   27.1981 C   0  0  0  0  0  0  0  0  0  0  0  0
    9.0793  -14.6284   27.7925 C   0  0  0  0  0  0  0  0  0  0  0  0
    7.9008  -14.0609   27.1017 C   0  0  0  0  0  0  0  0  0  0  0  0
    6.5725  -14.4414   27.2083 N   0  0  0  0  0  0  0  0  0  0  0  0
    5.8324  -13.6701   26.3935 C   0  0  0  0  0  0  0  0  0  0  0  0
    6.6406  -12.7803   25.7432 C   0  0  0  0  0  0  0  0  0  0  0  0
    6.3443  -11.8023   24.8200 C   0  0  0  0  0  0  0  0  0  0  0  0
    7.3517  -11.0209   24.2976 C   0  0  0  0  0  0  0  0  0  0  0  0
    8.6372  -11.2449   24.7199 C   0  0  0  0  0  0  0  0  0  0  0  0
    8.9159  -12.2212   25.6393 C   0  0  0  0  0  0  0  0  0  0  0  0
    7.9259  -13.0350   26.1938 C   0  0  0  0  0  0  0  0  0  0  0  0
   10.1606  -16.7534   28.2142 O   0  0  0  0  0  0  0  0  0  0  0  0
   11.2828  -16.2333   28.8540 O   0  0  0  0  0  0  0  0  0  0  0  0
  2  1  1  0
  3  2  2  0
  4  2  1  0
  5  4  1  0
  6  5  1  0
  7  6  1  0
  8  9  1  1
  8 10  1  0
  8  7  1  0
 10 18  1  0
 10 11  2  0
 13 12  1  0
 13 14  2  0
 15 16  1  0
 15 13  1  0
 17 16  1  6
 17 19  1  0
 18 17  1  0
 19 20  2  0
 19 21  1  0
 21 22  1  0
 22 33  1  0
 22 23  1  1
 24 25  2  0
 24 23  1  0
 26 25  1  0
 27 32  2  0
 27 26  1  0
 28 27  1  0
 29 30  1  0
 29 28  2  0
 30 31  2  0
 31 32  1  0
 32 24  1  0
 33 34  1  0
 35 33  2  0
M  END
$$$$
