RQW.pdb
     RDKit          3D

 35 36  0  0  1  0  0  0  0  0999 V2000
    8.6335  -16.5460   15.2007 N   0  0  0  0  0  0  0  0  0  0  0  0
    9.1262  -17.8476   14.9655 C   0  0  0  0  0  0  0  0  0  0  0  0
   10.2082  -17.9992   14.2474 N   0  0  0  0  0  0  0  0  0  0  0  0
    8.5142  -19.0204   15.4634 N   0  0  0  0  0  0  0  0  0  0  0  0
    7.8973  -19.1225   16.7498 C   0  0  0  0  0  0  0  0  0  0  0  0
    8.7928  -18.7880   17.9100 C   0  0  0  0  0  0  0  0  0  0  0  0
    8.1747  -19.0530   19.2481 C   0  0  0  0  0  0  0  0  0  0  0  0
    7.9143  -17.7900   20.0507 C   0  0  2  0  0  0  0  0  0  0  0  0
    8.6452  -16.6847   19.3752 N   0  0  0  0  0  0  0  0  0  0  0  0
    8.4154  -17.8374   21.4249 C   0  0  0  0  0  0  0  0  0  0  0  0
    8.2519  -18.9291   22.0697 O   0  0  0  0  0  0  0  0  0  0  0  0
   10.6097  -18.9425   14.1023 N   0  0  0  0  0  0  0  0  0  0  0  0
   13.0929  -18.4855   20.7337 C   0  0  0  0  0  0  0  0  0  0  0  0
   13.5883  -17.9510   21.9376 O   0  0  0  0  0  0  0  0  0  0  0  0
   14.7337  -18.2570   22.3313 C   0  0  0  0  0  0  0  0  0  0  0  0
   12.7421  -17.0103   22.7550 C   0  0  0  0  0  0  0  0  0  0  0  0
   11.4412  -16.7526   22.0835 C   0  0  1  0  0  0  0  0  0  0  0  0
   10.2149  -17.0728   22.9186 N   0  0  0  0  0  0  0  0  0  0  0  0
    9.0785  -16.7571   22.1046 C   0  0  0  0  0  0  0  0  0  0  0  0
   10.2471  -16.3851   24.2301 O   0  0  0  0  0  0  0  0  0  0  0  0
   10.4873  -15.1435   24.2136 N   0  0  0  0  0  0  0  0  0  0  0  0
   10.0354  -16.9898   25.4653 C   0  0  1  0  0  0  0  0  0  0  0  0
   10.1395  -16.4366   26.7520 C   0  0  0  0  0  0  0  0  0  0  0  0
    8.8618  -16.3038   27.5609 C   0  0  0  0  0  0  0  0  0  0  0  0
    7.8316  -15.5513   26.8121 C   0  0  0  0  0  0  0  0  0  0  0  0
    6.7638  -16.0461   26.0803 N   0  0  0  0  0  0  0  0  0  0  0  0
    6.0854  -15.0144   25.5493 C   0  0  0  0  0  0  0  0  0  0  0  0
    6.6792  -13.8381   25.9120 C   0  0  0  0  0  0  0  0  0  0  0  0
    6.3513  -12.5341   25.6141 C   0  0  0  0  0  0  0  0  0  0  0  0
    7.1204  -11.5017   26.1049 C   0  0  0  0  0  0  0  0  0  0  0  0
    8.2045  -11.8096   26.8866 C   0  0  0  0  0  0  0  0  0  0  0  0
    8.5174  -13.1117   27.1745 C   0  0  0  0  0  0  0  0  0  0  0  0
    7.7653  -14.1875   26.6981 C   0  0  0  0  0  0  0  0  0  0  0  0
   11.1721  -17.0279   27.5937 O   0  0  0  0  0  0  0  0  0  0  0  0
   11.4699  -16.4661   28.8325 O   0  0  0  0  0  0  0  0  0  0  0  0
  2  1  1  0
  3  2  2  0
  4  2  1  0
  5  4  1  0
  6  5  1  0
  7  6  1  0
  8  9  1  6
  8 10  1  0
  8  7  1  0
 10 18  1  0
 10 11  2  0
 13 12  1  0
 13 14  2  0
 15 16  1  0
 15 13  1  0
 17 16  1  6
 17 19  1  0
 18 17  1  0
 19 20  2  0
 19 21  1  0
 21 22  1  0
 22 33  1  0
 22 23  1  1
 24 25  2  0
 24 23  1  0
 26 25  1  0
 27 32  2  0
 27 26  1  0
 28 27  1  0
 29 30  1  0
 29 28  2  0
 30 31  2  0
 31 32  1  0
 32 24  1  0
 33 34  1  0
 35 33  2  0
M  END
$$$$
