RQW.pdb
     RDKit          3D

 35 36  0  0  1  0  0  0  0  0999 V2000
    8.2275  -14.2597   15.4090 N   0  0  0  0  0  0  0  0  0  0  0  0
    8.2523  -13.9342   16.7822 C   0  0  0  0  0  0  0  0  0  0  0  0
    8.3135  -12.6777   17.1382 N   0  0  0  0  0  0  0  0  0  0  0  0
    8.2159  -14.8957   17.8176 N   0  0  0  0  0  0  0  0  0  0  0  0
    8.6371  -16.2546   17.6694 C   0  0  0  0  0  0  0  0  0  0  0  0
    7.5388  -17.2744   17.7873 C   0  0  0  0  0  0  0  0  0  0  0  0
    7.6840  -18.1872   18.9657 C   0  0  0  0  0  0  0  0  0  0  0  0
    7.4633  -17.4899   20.2969 C   0  0  2  0  0  0  0  0  0  0  0  0
    6.9955  -16.1106   19.9953 N   0  0  0  0  0  0  0  0  0  0  0  0
    8.6727  -17.3479   21.1086 C   0  0  0  0  0  0  0  0  0  0  0  0
    9.2610  -18.4223   21.4745 O   0  0  0  0  0  0  0  0  0  0  0  0
    8.4184  -12.4230   18.1363 N   0  0  0  0  0  0  0  0  0  0  0  0
   14.2953  -13.7839   21.2573 C   0  0  0  0  0  0  0  0  0  0  0  0
   13.4655  -14.7149   20.6055 O   0  0  0  0  0  0  0  0  0  0  0  0
   13.3811  -14.7099   19.3591 C   0  0  0  0  0  0  0  0  0  0  0  0
   12.6772  -15.7190   21.4052 C   0  0  0  0  0  0  0  0  0  0  0  0
   11.3852  -15.1376   21.8549 C   0  0  2  0  0  0  0  0  0  0  0  0
   10.3858  -16.1420   22.3990 N   0  0  0  0  0  0  0  0  0  0  0  0
    9.2523  -16.0985   21.5231 C   0  0  0  0  0  0  0  0  0  0  0  0
   10.0755  -15.8923   23.8257 O   0  0  0  0  0  0  0  0  0  0  0  0
    9.9734  -14.6827   24.1806 N   0  0  0  0  0  0  0  0  0  0  0  0
    9.8886  -16.8722   24.7957 C   0  0  1  0  0  0  0  0  0  0  0  0
    9.7811  -16.7306   26.1889 C   0  0  0  0  0  0  0  0  0  0  0  0
    8.3877  -16.7723   26.7899 C   0  0  0  0  0  0  0  0  0  0  0  0
    7.5188  -15.7327   26.1960 C   0  0  0  0  0  0  0  0  0  0  0  0
    6.5184  -15.8828   25.2487 N   0  0  0  0  0  0  0  0  0  0  0  0
    5.9906  -14.6765   24.9789 C   0  0  0  0  0  0  0  0  0  0  0  0
    6.6190  -13.7216   25.7280 C   0  0  0  0  0  0  0  0  0  0  0  0
    6.4286  -12.3593   25.7945 C   0  0  0  0  0  0  0  0  0  0  0  0
    7.2037  -11.5965   26.6405 C   0  0  0  0  0  0  0  0  0  0  0  0
    8.1544  -12.2274   27.4015 C   0  0  0  0  0  0  0  0  0  0  0  0
    8.3315  -13.5834   27.3245 C   0  0  0  0  0  0  0  0  0  0  0  0
    7.5683  -14.3935   26.4811 C   0  0  0  0  0  0  0  0  0  0  0  0
   10.6562  -17.6004   26.9646 O   0  0  0  0  0  0  0  0  0  0  0  0
   11.4888  -18.5101   26.3178 O   0  0  0  0  0  0  0  0  0  0  0  0
  2  1  1  0
  3  2  2  0
  4  2  1  0
  5  4  1  0
  6  5  1  0
  7  6  1  0
  8  9  1  6
  8 10  1  0
  8  7  1  0
 10 18  1  0
 10 11  2  0
 13 12  1  0
 13 14  2  0
 15 16  1  0
 15 13  1  0
 17 16  1  6
 17 19  1  0
 18 17  1  0
 19 20  2  0
 19 21  1  0
 21 22  1  0
 22 33  1  0
 22 23  1  1
 24 25  2  0
 24 23  1  0
 26 25  1  0
 27 32  2  0
 27 26  1  0
 28 27  1  0
 29 30  1  0
 29 28  2  0
 30 31  2  0
 31 32  1  0
 32 24  1  0
 33 34  1  0
 35 33  2  0
M  END
$$$$
