RQW.pdb
     RDKit          3D

 35 36  0  0  1  0  0  0  0  0999 V2000
    6.9750  -12.4686   17.8470 N   0  0  0  0  0  0  0  0  0  0  0  0
    8.1635  -13.2191   17.7196 C   0  0  0  0  0  0  0  0  0  0  0  0
    9.2627  -12.7693   18.2659 N   0  0  0  0  0  0  0  0  0  0  0  0
    8.2453  -14.4479   17.0258 N   0  0  0  0  0  0  0  0  0  0  0  0
    7.7466  -15.6908   17.5282 C   0  0  0  0  0  0  0  0  0  0  0  0
    6.7511  -15.5675   18.6479 C   0  0  0  0  0  0  0  0  0  0  0  0
    7.1443  -16.3035   19.8915 C   0  0  0  0  0  0  0  0  0  0  0  0
    8.0748  -15.5089   20.7914 C   0  0  2  0  0  0  0  0  0  0  0  0
    9.2576  -15.1313   19.9723 N   0  0  0  0  0  0  0  0  0  0  0  0
    8.5887  -16.2600   21.9374 C   0  0  0  0  0  0  0  0  0  0  0  0
    7.7311  -16.7302   22.7606 O   0  0  0  0  0  0  0  0  0  0  0  0
   10.1679  -13.2347   18.0757 N   0  0  0  0  0  0  0  0  0  0  0  0
   14.0305  -19.1956   22.3197 C   0  0  0  0  0  0  0  0  0  0  0  0
   13.4183  -19.6282   23.5106 O   0  0  0  0  0  0  0  0  0  0  0  0
   13.9764  -20.4908   24.2213 C   0  0  0  0  0  0  0  0  0  0  0  0
   12.0908  -19.0549   23.9330 C   0  0  0  0  0  0  0  0  0  0  0  0
   11.6264  -18.0296   22.9622 C   0  0  2  0  0  0  0  0  0  0  0  0
   10.3021  -17.3735   23.3080 N   0  0  0  0  0  0  0  0  0  0  0  0
    9.9784  -16.5134   22.2084 C   0  0  0  0  0  0  0  0  0  0  0  0
   10.3487  -16.7010   24.6269 O   0  0  0  0  0  0  0  0  0  0  0  0
   10.9149  -15.5708   24.6675 N   0  0  0  0  0  0  0  0  0  0  0  0
    9.8240  -17.2080   25.8118 C   0  0  1  0  0  0  0  0  0  0  0  0
    9.8780  -16.6680   27.1071 C   0  0  0  0  0  0  0  0  0  0  0  0
    8.5581  -16.3806   27.7999 C   0  0  0  0  0  0  0  0  0  0  0  0
    7.6162  -15.6928   26.8899 C   0  0  0  0  0  0  0  0  0  0  0  0
    6.6280  -16.2471   26.0918 N   0  0  0  0  0  0  0  0  0  0  0  0
    6.0147  -15.2627   25.4125 C   0  0  0  0  0  0  0  0  0  0  0  0
    6.5741  -14.0597   25.7409 C   0  0  0  0  0  0  0  0  0  0  0  0
    6.2866  -12.7844   25.3077 C   0  0  0  0  0  0  0  0  0  0  0  0
    7.0060  -11.7142   25.7928 C   0  0  0  0  0  0  0  0  0  0  0  0
    8.0005  -11.9561   26.7058 C   0  0  0  0  0  0  0  0  0  0  0  0
    8.2742  -13.2303   27.1273 C   0  0  0  0  0  0  0  0  0  0  0  0
    7.5700  -14.3426   26.6617 C   0  0  0  0  0  0  0  0  0  0  0  0
   10.7526  -17.3768   28.0327 O   0  0  0  0  0  0  0  0  0  0  0  0
   10.9606  -16.8799   29.3168 O   0  0  0  0  0  0  0  0  0  0  0  0
  2  1  1  0
  3  2  2  0
  4  2  1  0
  5  4  1  0
  6  5  1  0
  7  6  1  0
  8  9  1  6
  8 10  1  0
  8  7  1  0
 10 18  1  0
 10 11  2  0
 13 12  1  0
 13 14  2  0
 15 16  1  0
 15 13  1  0
 17 16  1  6
 17 19  1  0
 18 17  1  0
 19 20  2  0
 19 21  1  0
 21 22  1  0
 22 33  1  0
 22 23  1  1
 24 25  2  0
 24 23  1  0
 26 25  1  0
 27 32  2  0
 27 26  1  0
 28 27  1  0
 29 30  1  0
 29 28  2  0
 30 31  2  0
 31 32  1  0
 32 24  1  0
 33 34  1  0
 35 33  2  0
M  END
$$$$
