RQW.pdb
     RDKit          3D

 35 36  0  0  1  0  0  0  0  0999 V2000
    8.6912  -13.1424   16.8823 N   0  0  0  0  0  0  0  0  0  0  0  0
    8.4142  -12.7848   18.2193 C   0  0  0  0  0  0  0  0  0  0  0  0
    8.4977  -11.5291   18.5734 N   0  0  0  0  0  0  0  0  0  0  0  0
    8.0468  -13.7130   19.2201 N   0  0  0  0  0  0  0  0  0  0  0  0
    8.1955  -15.1303   19.0973 C   0  0  0  0  0  0  0  0  0  0  0  0
    6.9199  -15.8802   18.8318 C   0  0  0  0  0  0  0  0  0  0  0  0
    6.7652  -17.1219   19.6547 C   0  0  0  0  0  0  0  0  0  0  0  0
    8.0368  -17.5233   20.3821 C   0  0  2  0  0  0  0  0  0  0  0  0
    8.3662  -18.9091   19.9537 N   0  0  0  0  0  0  0  0  0  0  0  0
    7.9090  -17.5608   21.8394 C   0  0  0  0  0  0  0  0  0  0  0  0
    7.7561  -16.4437   22.4420 O   0  0  0  0  0  0  0  0  0  0  0  0
    8.3330  -11.2528   19.5576 N   0  0  0  0  0  0  0  0  0  0  0  0
    7.0363  -22.5345   25.5604 C   0  0  0  0  0  0  0  0  0  0  0  0
    7.0427  -21.4936   26.5074 O   0  0  0  0  0  0  0  0  0  0  0  0
    6.8630  -21.7495   27.7169 C   0  0  0  0  0  0  0  0  0  0  0  0
    7.2655  -20.0700   26.0684 C   0  0  0  0  0  0  0  0  0  0  0  0
    7.4811  -19.9988   24.5994 C   0  0  2  0  0  0  0  0  0  0  0  0
    7.7694  -18.6092   24.0610 N   0  0  0  0  0  0  0  0  0  0  0  0
    7.9382  -18.7519   22.6451 C   0  0  0  0  0  0  0  0  0  0  0  0
    8.9107  -17.9740   24.7595 O   0  0  0  0  0  0  0  0  0  0  0  0
   10.0672  -18.2727   24.3440 N   0  0  0  0  0  0  0  0  0  0  0  0
    8.8125  -17.0837   25.8243 C   0  0  1  0  0  0  0  0  0  0  0  0
    9.8369  -16.4832   26.5744 C   0  0  0  0  0  0  0  0  0  0  0  0
    9.6449  -15.0344   26.9849 C   0  0  0  0  0  0  0  0  0  0  0  0
    8.2881  -14.5568   26.6393 C   0  0  0  0  0  0  0  0  0  0  0  0
    7.1245  -15.2956   26.4951 N   0  0  0  0  0  0  0  0  0  0  0  0
    6.1215  -14.4660   26.1602 C   0  0  0  0  0  0  0  0  0  0  0  0
    6.5920  -13.1855   26.0774 C   0  0  0  0  0  0  0  0  0  0  0  0
    5.9486  -12.0077   25.7683 C   0  0  0  0  0  0  0  0  0  0  0  0
    6.6530  -10.8237   25.7471 C   0  0  0  0  0  0  0  0  0  0  0  0
    7.9927  -10.8558   26.0392 C   0  0  0  0  0  0  0  0  0  0  0  0
    8.6182  -12.0353   26.3452 C   0  0  0  0  0  0  0  0  0  0  0  0
    7.9426  -13.2569   26.3781 C   0  0  0  0  0  0  0  0  0  0  0  0
   10.2792  -17.2479   27.7336 O   0  0  0  0  0  0  0  0  0  0  0  0
   11.4052  -16.8459   28.4475 O   0  0  0  0  0  0  0  0  0  0  0  0
  2  1  1  0
  3  2  2  0
  4  2  1  0
  5  4  1  0
  6  5  1  0
  7  6  1  0
  8  9  1  6
  8 10  1  0
  8  7  1  0
 10 18  1  0
 10 11  2  0
 13 12  1  0
 13 14  2  0
 15 16  1  0
 15 13  1  0
 17 16  1  6
 17 19  1  0
 18 17  1  0
 19 20  2  0
 19 21  1  0
 21 22  1  0
 22 33  1  0
 22 23  1  1
 24 25  2  0
 24 23  1  0
 26 25  1  0
 27 32  2  0
 27 26  1  0
 28 27  1  0
 29 30  1  0
 29 28  2  0
 30 31  2  0
 31 32  1  0
 32 24  1  0
 33 34  1  0
 35 33  2  0
M  END
$$$$
