RQW.pdb
     RDKit          3D

 35 36  0  0  1  0  0  0  0  0999 V2000
   10.5316  -15.1665   15.4055 N   0  0  0  0  0  0  0  0  0  0  0  0
    9.4692  -14.7397   14.5802 C   0  0  0  0  0  0  0  0  0  0  0  0
    9.7285  -13.9746   13.5523 N   0  0  0  0  0  0  0  0  0  0  0  0
    8.1171  -15.0905   14.7969 N   0  0  0  0  0  0  0  0  0  0  0  0
    7.6251  -15.6984   15.9946 C   0  0  0  0  0  0  0  0  0  0  0  0
    7.7296  -14.8442   17.2272 C   0  0  0  0  0  0  0  0  0  0  0  0
    7.0940  -15.4509   18.4400 C   0  0  0  0  0  0  0  0  0  0  0  0
    7.4956  -14.7664   19.7351 C   0  0  2  0  0  0  0  0  0  0  0  0
    8.0293  -13.4260   19.3735 N   0  0  0  0  0  0  0  0  0  0  0  0
    8.5600  -15.4501   20.4709 C   0  0  0  0  0  0  0  0  0  0  0  0
    8.3610  -16.6731   20.7855 O   0  0  0  0  0  0  0  0  0  0  0  0
    8.9565  -13.6025   12.9712 N   0  0  0  0  0  0  0  0  0  0  0  0
   14.5350  -14.0782   20.6268 C   0  0  0  0  0  0  0  0  0  0  0  0
   13.6878  -14.4548   19.5681 O   0  0  0  0  0  0  0  0  0  0  0  0
   14.1080  -14.4247   18.3920 C   0  0  0  0  0  0  0  0  0  0  0  0
   12.2743  -14.8945   19.8471 C   0  0  0  0  0  0  0  0  0  0  0  0
   12.1037  -15.2421   21.2822 C   0  0  2  0  0  0  0  0  0  0  0  0
   10.6934  -15.6346   21.6828 N   0  0  0  0  0  0  0  0  0  0  0  0
    9.8102  -14.8576   20.8642 C   0  0  0  0  0  0  0  0  0  0  0  0
   10.4745  -15.4891   23.1405 O   0  0  0  0  0  0  0  0  0  0  0  0
   10.8350  -14.3946   23.6617 N   0  0  0  0  0  0  0  0  0  0  0  0
    9.9092  -16.4502   23.9729 C   0  0  1  0  0  0  0  0  0  0  0  0
    9.7400  -16.4260   25.3669 C   0  0  0  0  0  0  0  0  0  0  0  0
    8.3179  -16.4026   25.8978 C   0  0  0  0  0  0  0  0  0  0  0  0
    7.5503  -15.2785   25.3186 C   0  0  0  0  0  0  0  0  0  0  0  0
    6.7926  -15.2587   24.1583 N   0  0  0  0  0  0  0  0  0  0  0  0
    6.2773  -14.0280   23.9965 C   0  0  0  0  0  0  0  0  0  0  0  0
    6.6760  -13.2233   25.0267 C   0  0  0  0  0  0  0  0  0  0  0  0
    6.4072  -11.8988   25.2911 C   0  0  0  0  0  0  0  0  0  0  0  0
    6.9369  -11.2996   26.4131 C   0  0  0  0  0  0  0  0  0  0  0  0
    7.7268  -12.0525   27.2439 C   0  0  0  0  0  0  0  0  0  0  0  0
    7.9845  -13.3691   26.9676 C   0  0  0  0  0  0  0  0  0  0  0  0
    7.4682  -14.0151   25.8424 C   0  0  0  0  0  0  0  0  0  0  0  0
   10.4997  -17.4337   26.0960 O   0  0  0  0  0  0  0  0  0  0  0  0
   11.2841  -18.3532   25.4044 O   0  0  0  0  0  0  0  0  0  0  0  0
  2  1  1  0
  3  2  2  0
  4  2  1  0
  5  4  1  0
  6  5  1  0
  7  6  1  0
  8  9  1  6
  8 10  1  0
  8  7  1  0
 10 18  1  0
 10 11  2  0
 13 12  1  0
 13 14  2  0
 15 16  1  0
 15 13  1  0
 17 16  1  6
 17 19  1  0
 18 17  1  0
 19 20  2  0
 19 21  1  0
 21 22  1  0
 22 33  1  0
 22 23  1  1
 24 25  2  0
 24 23  1  0
 26 25  1  0
 27 32  2  0
 27 26  1  0
 28 27  1  0
 29 30  1  0
 29 28  2  0
 30 31  2  0
 31 32  1  0
 32 24  1  0
 33 34  1  0
 35 33  2  0
M  END
$$$$
