RQW.pdb
     RDKit          3D

 35 36  0  0  1  0  0  0  0  0999 V2000
    7.7989  -14.0308   17.7118 N   0  0  0  0  0  0  0  0  0  0  0  0
    7.8462  -13.4037   18.9754 C   0  0  0  0  0  0  0  0  0  0  0  0
    8.2321  -12.1571   19.0541 N   0  0  0  0  0  0  0  0  0  0  0  0
    7.4985  -14.0477   20.1848 N   0  0  0  0  0  0  0  0  0  0  0  0
    6.2470  -14.6995   20.4189 C   0  0  0  0  0  0  0  0  0  0  0  0
    6.3474  -16.1616   20.7538 C   0  0  0  0  0  0  0  0  0  0  0  0
    7.5981  -16.5294   21.4908 C   0  0  0  0  0  0  0  0  0  0  0  0
    8.4558  -17.5417   20.7513 C   0  0  2  0  0  0  0  0  0  0  0  0
    7.9208  -18.8902   21.0796 N   0  0  0  0  0  0  0  0  0  0  0  0
    9.8625  -17.5459   21.1546 C   0  0  0  0  0  0  0  0  0  0  0  0
   10.2005  -18.3494   22.0898 O   0  0  0  0  0  0  0  0  0  0  0  0
    8.3184  -11.6952   19.9768 N   0  0  0  0  0  0  0  0  0  0  0  0
   15.0108  -13.4368   19.9029 C   0  0  0  0  0  0  0  0  0  0  0  0
   15.2728  -14.8192   19.9234 O   0  0  0  0  0  0  0  0  0  0  0  0
   16.1663  -15.2957   19.1918 C   0  0  0  0  0  0  0  0  0  0  0  0
   14.4793  -15.7285   20.8250 C   0  0  0  0  0  0  0  0  0  0  0  0
   13.0786  -15.8564   20.3443 C   0  0  1  0  0  0  0  0  0  0  0  0
   12.1859  -16.7370   21.1995 N   0  0  0  0  0  0  0  0  0  0  0  0
   10.8930  -16.7222   20.5814 C   0  0  0  0  0  0  0  0  0  0  0  0
   12.1976  -16.3181   22.6201 O   0  0  0  0  0  0  0  0  0  0  0  0
   12.8922  -15.3004   22.9056 N   0  0  0  0  0  0  0  0  0  0  0  0
   11.5119  -16.9478   23.6543 C   0  0  1  0  0  0  0  0  0  0  0  0
   10.8092  -16.3770   24.7279 C   0  0  0  0  0  0  0  0  0  0  0  0
    9.8256  -15.2660   24.4074 C   0  0  0  0  0  0  0  0  0  0  0  0
    9.2294  -14.7084   25.6411 C   0  0  0  0  0  0  0  0  0  0  0  0
    9.4734  -15.0699   26.9565 N   0  0  0  0  0  0  0  0  0  0  0  0
    8.7057  -14.3179   27.7637 C   0  0  0  0  0  0  0  0  0  0  0  0
    7.9520  -13.4597   27.0131 C   0  0  0  0  0  0  0  0  0  0  0  0
    7.0276  -12.5099   27.3871 C   0  0  0  0  0  0  0  0  0  0  0  0
    6.3862  -11.7581   26.4269 C   0  0  0  0  0  0  0  0  0  0  0  0
    6.6933  -11.9825   25.1092 C   0  0  0  0  0  0  0  0  0  0  0  0
    7.6155  -12.9306   24.7531 C   0  0  0  0  0  0  0  0  0  0  0  0
    8.2883  -13.7139   25.6932 C   0  0  0  0  0  0  0  0  0  0  0  0
   10.1666  -17.3338   25.6201 O   0  0  0  0  0  0  0  0  0  0  0  0
    9.9156  -16.9924   26.9466 O   0  0  0  0  0  0  0  0  0  0  0  0
  2  1  1  0
  3  2  2  0
  4  2  1  0
  5  4  1  0
  6  5  1  0
  7  6  1  0
  8  9  1  1
  8 10  1  0
  8  7  1  0
 10 18  1  0
 10 11  2  0
 13 12  1  0
 13 14  2  0
 15 16  1  0
 15 13  1  0
 17 16  1  6
 17 19  1  0
 18 17  1  0
 19 20  2  0
 19 21  1  0
 21 22  1  0
 22 33  1  0
 22 23  1  1
 24 25  2  0
 24 23  1  0
 26 25  1  0
 27 32  2  0
 27 26  1  0
 28 27  1  0
 29 30  1  0
 29 28  2  0
 30 31  2  0
 31 32  1  0
 32 24  1  0
 33 34  1  0
 35 33  2  0
M  END
$$$$
