QQD.pdb
     RDKit          3D

 27 26  0  0  1  0  0  0  0  0999 V2000
   28.3724  -22.7180  -19.5377 N   0  0  0  0  0  0  0  0  0  0  0  0
   29.1236  -21.6193  -19.1084 C   0  0  0  0  0  0  0  0  0  0  0  0
   30.2335  -21.3699  -19.6441 O   0  0  0  0  0  0  0  0  0  0  0  0
   28.6723  -20.7099  -18.0297 C   0  0  0  0  0  0  0  0  0  0  0  0
   27.2887  -21.0684  -17.5328 C   0  0  0  0  0  0  0  0  0  0  0  0
   27.4341  -21.4921  -16.0910 C   0  0  2  0  0  0  0  0  0  0  0  0
   28.2189  -22.6872  -16.0533 N   0  0  0  0  0  0  0  0  0  0  0  0
   26.1623  -21.5868  -15.3734 C   0  0  0  0  0  0  0  0  0  0  0  0
   25.2692  -22.3639  -15.7952 O   0  0  0  0  0  0  0  0  0  0  0  0
   25.1533  -20.6954   -9.0860 N   0  0  0  0  0  0  0  0  0  0  0  0
   23.8983  -21.1003   -9.5909 C   0  0  0  0  0  0  0  0  0  0  0  0
   22.9675  -21.3334   -8.7982 O   0  0  0  0  0  0  0  0  0  0  0  0
   23.7014  -21.2378  -11.0406 C   0  0  0  0  0  0  0  0  0  0  0  0
   24.8888  -21.0064  -11.8959 C   0  0  0  0  0  0  0  0  0  0  0  0
   24.7104  -21.0884  -13.3709 C   0  0  2  0  0  0  0  0  0  0  0  0
   25.8513  -20.8313  -14.1836 N   0  0  0  0  0  0  0  0  0  0  0  0
   23.5900  -20.2634  -13.8743 C   0  0  0  0  0  0  0  0  0  0  0  0
   23.7570  -19.0422  -14.0729 O   0  0  0  0  0  0  0  0  0  0  0  0
   22.3124  -20.8080  -14.1460 N   0  0  0  0  0  0  0  0  0  0  0  0
   21.2382  -19.9176  -14.6283 C   0  0  1  0  0  0  0  0  0  0  0  0
   20.7200  -20.4672  -15.9380 C   0  0  0  0  0  0  0  0  0  0  0  0
   19.5773  -19.7014  -16.4642 C   0  0  0  0  0  0  0  0  0  0  0  0
   19.4418  -18.4581  -16.3578 O   0  0  0  0  0  0  0  0  0  0  0  0
   20.1487  -20.0814  -13.6162 C   0  0  0  0  0  0  0  0  0  0  0  0
   20.0126  -21.0842  -12.8880 O   0  0  0  0  0  0  0  0  0  0  0  0
   18.5509  -20.3753  -17.1361 O   0  0  0  0  0  0  0  0  0  0  0  0
   19.1863  -19.0778  -13.4255 O   0  0  0  0  0  0  0  0  0  0  0  0
  1  2  1  0
  2  3  2  0
  2  4  1  0
  4  5  1  0
  5  6  1  0
  6  8  1  0
  6  7  1  6
  8  9  2  0
 11 10  1  0
 11 12  2  0
 13 11  1  0
 14 13  1  0
 15 14  1  1
 16 15  1  0
 16  8  1  0
 17 15  1  0
 17 18  2  0
 19 17  1  0
 20 19  1  0
 20 24  1  0
 20 21  1  6
 22 21  1  0
 22 26  1  0
 23 22  2  0
 24 25  2  0
 24 27  1  0
M  END
$$$$
