QQD.pdb
     RDKit          3D

 27 26  0  0  1  0  0  0  0  0999 V2000
   12.7830  -11.4094  -16.0811 N   0  0  0  0  0  0  0  0  0  0  0  0
   12.9503  -12.7824  -16.2877 C   0  0  0  0  0  0  0  0  0  0  0  0
   12.1202  -13.4176  -16.9868 O   0  0  0  0  0  0  0  0  0  0  0  0
   14.0803  -13.5492  -15.7138 C   0  0  0  0  0  0  0  0  0  0  0  0
   14.9341  -12.6961  -14.8011 C   0  0  0  0  0  0  0  0  0  0  0  0
   16.2505  -12.4764  -15.5069 C   0  0  2  0  0  0  0  0  0  0  0  0
   16.9483  -13.7241  -15.5498 N   0  0  0  0  0  0  0  0  0  0  0  0
   17.0350  -11.3689  -14.9597 C   0  0  0  0  0  0  0  0  0  0  0  0
   16.8405  -10.9979  -13.7748 O   0  0  0  0  0  0  0  0  0  0  0  0
   23.0880   -9.6956  -15.3008 N   0  0  0  0  0  0  0  0  0  0  0  0
   22.4758   -8.4945  -14.8810 C   0  0  0  0  0  0  0  0  0  0  0  0
   23.1879   -7.5223  -14.5696 O   0  0  0  0  0  0  0  0  0  0  0  0
   21.0105   -8.4012  -14.8201 C   0  0  0  0  0  0  0  0  0  0  0  0
   20.2515   -9.5977  -15.2526 C   0  0  0  0  0  0  0  0  0  0  0  0
   18.7665   -9.5461  -15.1726 C   0  0  2  0  0  0  0  0  0  0  0  0
   18.0434  -10.6524  -15.7031 N   0  0  0  0  0  0  0  0  0  0  0  0
   18.1902   -8.3053  -15.7364 C   0  0  0  0  0  0  0  0  0  0  0  0
   17.8892   -8.2533  -16.9469 O   0  0  0  0  0  0  0  0  0  0  0  0
   17.9607   -7.1522  -14.9487 N   0  0  0  0  0  0  0  0  0  0  0  0
   17.4309   -5.9342  -15.5930 C   0  0  1  0  0  0  0  0  0  0  0  0
   16.3012   -5.4013  -14.7412 C   0  0  0  0  0  0  0  0  0  0  0  0
   15.7724   -4.1184  -15.2352 C   0  0  0  0  0  0  0  0  0  0  0  0
   16.0853   -3.5921  -16.3309 O   0  0  0  0  0  0  0  0  0  0  0  0
   18.5575   -4.9544  -15.4996 C   0  0  0  0  0  0  0  0  0  0  0  0
   18.4886   -3.7680  -15.8763 O   0  0  0  0  0  0  0  0  0  0  0  0
   14.8536   -3.4085  -14.4535 O   0  0  0  0  0  0  0  0  0  0  0  0
   19.7980   -5.3328  -14.9629 O   0  0  0  0  0  0  0  0  0  0  0  0
  1  2  1  0
  2  3  2  0
  2  4  1  0
  4  5  1  0
  5  6  1  0
  6  8  1  0
  6  7  1  1
  8  9  2  0
 11 10  1  0
 11 12  2  0
 13 11  1  0
 14 13  1  0
 15 14  1  6
 16 15  1  0
 16  8  1  0
 17 15  1  0
 17 18  2  0
 19 17  1  0
 20 19  1  0
 20 24  1  0
 20 21  1  1
 22 21  1  0
 22 26  1  0
 23 22  2  0
 24 25  2  0
 24 27  1  0
M  END
$$$$
