QQD.pdb
     RDKit          3D

 27 26  0  0  1  0  0  0  0  0999 V2000
   16.7111  -10.0192  -17.2005 N   0  0  0  0  0  0  0  0  0  0  0  0
   16.4001  -11.3271  -16.8151 C   0  0  0  0  0  0  0  0  0  0  0  0
   15.3504  -11.8738  -17.2398 O   0  0  0  0  0  0  0  0  0  0  0  0
   17.2611  -12.1242  -15.9109 C   0  0  0  0  0  0  0  0  0  0  0  0
   18.4481  -11.3271  -15.4155 C   0  0  0  0  0  0  0  0  0  0  0  0
   19.5622  -11.5281  -16.4144 C   0  0  2  0  0  0  0  0  0  0  0  0
   19.9554  -12.9027  -16.3747 N   0  0  0  0  0  0  0  0  0  0  0  0
   20.6687  -10.5829  -16.2613 C   0  0  0  0  0  0  0  0  0  0  0  0
   21.5908  -10.8353  -15.4455 O   0  0  0  0  0  0  0  0  0  0  0  0
   24.8723   -8.3953  -19.9872 N   0  0  0  0  0  0  0  0  0  0  0  0
   24.5436   -9.6374  -19.4016 C   0  0  0  0  0  0  0  0  0  0  0  0
   25.0995  -10.6724  -19.8123 O   0  0  0  0  0  0  0  0  0  0  0  0
   23.5565   -9.6966  -18.3146 C   0  0  0  0  0  0  0  0  0  0  0  0
   22.8818   -8.4258  -17.9617 C   0  0  0  0  0  0  0  0  0  0  0  0
   21.8791   -8.4523  -16.8625 C   0  0  2  0  0  0  0  0  0  0  0  0
   20.7805   -9.3481  -17.0000 N   0  0  0  0  0  0  0  0  0  0  0  0
   21.3443   -7.1152  -16.5223 C   0  0  0  0  0  0  0  0  0  0  0  0
   20.4727   -6.5912  -17.2464 O   0  0  0  0  0  0  0  0  0  0  0  0
   21.7858   -6.3899  -15.3901 N   0  0  0  0  0  0  0  0  0  0  0  0
   21.2538   -5.0335  -15.1520 C   0  0  1  0  0  0  0  0  0  0  0  0
   19.7691   -5.1467  -14.8896 C   0  0  0  0  0  0  0  0  0  0  0  0
   19.1530   -3.8553  -14.5401 C   0  0  0  0  0  0  0  0  0  0  0  0
   19.4524   -2.7561  -15.0668 O   0  0  0  0  0  0  0  0  0  0  0  0
   21.8999   -4.6095  -13.8711 C   0  0  0  0  0  0  0  0  0  0  0  0
   22.5742   -5.3635  -13.1423 O   0  0  0  0  0  0  0  0  0  0  0  0
   18.1597   -3.8134  -13.5549 O   0  0  0  0  0  0  0  0  0  0  0  0
   21.7768   -3.2916  -13.4044 O   0  0  0  0  0  0  0  0  0  0  0  0
  1  2  1  0
  2  3  2  0
  2  4  1  0
  4  5  1  0
  5  6  1  0
  6  8  1  0
  6  7  1  1
  8  9  2  0
 11 10  1  0
 11 12  2  0
 13 11  1  0
 14 13  1  0
 15 14  1  6
 16 15  1  0
 16  8  1  0
 17 15  1  0
 17 18  2  0
 19 17  1  0
 20 19  1  0
 20 24  1  0
 20 21  1  1
 22 21  1  0
 22 26  1  0
 23 22  2  0
 24 25  2  0
 24 27  1  0
M  END
$$$$
