QQD.pdb
     RDKit          3D

 27 26  0  0  1  0  0  0  0  0999 V2000
   13.2707  -12.2156  -13.2554 N   0  0  0  0  0  0  0  0  0  0  0  0
   14.1070  -11.4291  -14.0541 C   0  0  0  0  0  0  0  0  0  0  0  0
   14.1581  -10.1856  -13.8750 O   0  0  0  0  0  0  0  0  0  0  0  0
   14.9578  -11.9948  -15.1268 C   0  0  0  0  0  0  0  0  0  0  0  0
   16.4260  -11.9506  -14.7635 C   0  0  0  0  0  0  0  0  0  0  0  0
   17.1996  -12.3058  -16.0105 C   0  0  2  0  0  0  0  0  0  0  0  0
   17.2044  -13.7299  -16.1431 N   0  0  0  0  0  0  0  0  0  0  0  0
   18.5267  -11.6928  -16.0754 C   0  0  0  0  0  0  0  0  0  0  0  0
   19.4770  -12.2028  -15.4301 O   0  0  0  0  0  0  0  0  0  0  0  0
   22.1607   -9.9801  -20.7301 N   0  0  0  0  0  0  0  0  0  0  0  0
   21.7446  -11.2123  -20.1803 C   0  0  0  0  0  0  0  0  0  0  0  0
   21.9415  -12.2631  -20.8176 O   0  0  0  0  0  0  0  0  0  0  0  0
   21.0900  -11.2441  -18.8649 C   0  0  0  0  0  0  0  0  0  0  0  0
   20.8203   -9.9345  -18.2269 C   0  0  0  0  0  0  0  0  0  0  0  0
   20.1304   -9.9319  -16.9084 C   0  0  2  0  0  0  0  0  0  0  0  0
   18.8313  -10.5126  -16.8482 N   0  0  0  0  0  0  0  0  0  0  0  0
   20.0669   -8.5935  -16.2807 C   0  0  0  0  0  0  0  0  0  0  0  0
   19.0496   -7.8850  -16.4280 O   0  0  0  0  0  0  0  0  0  0  0  0
   21.1293   -8.0707  -15.5057 N   0  0  0  0  0  0  0  0  0  0  0  0
   20.9846   -6.7348  -14.8941 C   0  0  1  0  0  0  0  0  0  0  0  0
   21.8639   -6.6789  -13.6655 C   0  0  0  0  0  0  0  0  0  0  0  0
   21.8916   -5.3430  -13.0460 C   0  0  0  0  0  0  0  0  0  0  0  0
   21.0495   -4.4380  -13.2634 O   0  0  0  0  0  0  0  0  0  0  0  0
   21.5765   -5.8058  -15.9063 C   0  0  0  0  0  0  0  0  0  0  0  0
   21.6406   -4.5683  -15.7699 O   0  0  0  0  0  0  0  0  0  0  0  0
   22.9154   -5.0253  -12.1459 O   0  0  0  0  0  0  0  0  0  0  0  0
   22.1109   -6.2962  -17.1079 O   0  0  0  0  0  0  0  0  0  0  0  0
  1  2  1  0
  2  3  2  0
  2  4  1  0
  4  5  1  0
  5  6  1  0
  6  8  1  0
  6  7  1  1
  8  9  2  0
 11 10  1  0
 11 12  2  0
 13 11  1  0
 14 13  1  0
 15 14  1  6
 16 15  1  0
 16  8  1  0
 17 15  1  0
 17 18  2  0
 19 17  1  0
 20 19  1  0
 20 24  1  0
 20 21  1  1
 22 21  1  0
 22 26  1  0
 23 22  2  0
 24 25  2  0
 24 27  1  0
M  END
$$$$
