QQD.pdb
     RDKit          3D

 27 26  0  0  1  0  0  0  0  0999 V2000
   17.4564  -14.6041  -13.9714 N   0  0  0  0  0  0  0  0  0  0  0  0
   16.6769  -14.0721  -15.0035 C   0  0  0  0  0  0  0  0  0  0  0  0
   15.8792  -14.8126  -15.6331 O   0  0  0  0  0  0  0  0  0  0  0  0
   16.7407  -12.6479  -15.4059 C   0  0  0  0  0  0  0  0  0  0  0  0
   18.1639  -12.1937  -15.6464 C   0  0  0  0  0  0  0  0  0  0  0  0
   18.1047  -10.7276  -16.0020 C   0  0  2  0  0  0  0  0  0  0  0  0
   17.5748  -10.6097  -17.3252 N   0  0  0  0  0  0  0  0  0  0  0  0
   19.3688  -10.0198  -15.7967 C   0  0  0  0  0  0  0  0  0  0  0  0
   19.8907  -10.0026  -14.6536 O   0  0  0  0  0  0  0  0  0  0  0  0
   24.0847  -11.0920  -19.7315 N   0  0  0  0  0  0  0  0  0  0  0  0
   24.1911  -10.1449  -18.6896 C   0  0  0  0  0  0  0  0  0  0  0  0
   25.1890   -9.4028  -18.6384 O   0  0  0  0  0  0  0  0  0  0  0  0
   23.1261  -10.0408  -17.6824 C   0  0  0  0  0  0  0  0  0  0  0  0
   22.3662   -8.7694  -17.6502 C   0  0  0  0  0  0  0  0  0  0  0  0
   21.3003   -8.6219  -16.6224 C   0  0  2  0  0  0  0  0  0  0  0  0
   20.0789   -9.3210  -16.8410 N   0  0  0  0  0  0  0  0  0  0  0  0
   20.9756   -7.2125  -16.3103 C   0  0  0  0  0  0  0  0  0  0  0  0
   20.4680   -6.4823  -17.1865 O   0  0  0  0  0  0  0  0  0  0  0  0
   21.2198   -6.6443  -15.0373 N   0  0  0  0  0  0  0  0  0  0  0  0
   20.9512   -5.2080  -14.8268 C   0  0  1  0  0  0  0  0  0  0  0  0
   19.5205   -5.0573  -14.3618 C   0  0  0  0  0  0  0  0  0  0  0  0
   19.2012   -3.6828  -13.9396 C   0  0  0  0  0  0  0  0  0  0  0  0
   19.9892   -2.7094  -14.0234 O   0  0  0  0  0  0  0  0  0  0  0  0
   21.8331   -4.8383  -13.6763 C   0  0  0  0  0  0  0  0  0  0  0  0
   22.5426   -5.6481  -13.0478 O   0  0  0  0  0  0  0  0  0  0  0  0
   17.9387   -3.4059  -13.4024 O   0  0  0  0  0  0  0  0  0  0  0  0
   21.9115   -3.5110  -13.2267 O   0  0  0  0  0  0  0  0  0  0  0  0
  1  2  1  0
  2  3  2  0
  2  4  1  0
  4  5  1  0
  5  6  1  0
  6  8  1  0
  6  7  1  6
  8  9  2  0
 11 10  1  0
 11 12  2  0
 13 11  1  0
 14 13  1  0
 15 14  1  6
 16 15  1  0
 16  8  1  0
 17 15  1  0
 17 18  2  0
 19 17  1  0
 20 19  1  0
 20 24  1  0
 20 21  1  1
 22 21  1  0
 22 26  1  0
 23 22  2  0
 24 25  2  0
 24 27  1  0
M  END
$$$$
