QQD.pdb
     RDKit          3D

 27 26  0  0  1  0  0  0  0  0999 V2000
   13.5172  -13.8965  -13.9412 N   0  0  0  0  0  0  0  0  0  0  0  0
   13.3075  -13.5179  -15.2711 C   0  0  0  0  0  0  0  0  0  0  0  0
   12.5462  -14.1985  -16.0048 O   0  0  0  0  0  0  0  0  0  0  0  0
   13.9492  -12.3289  -15.8784 C   0  0  0  0  0  0  0  0  0  0  0  0
   14.7005  -11.5085  -14.8526 C   0  0  0  0  0  0  0  0  0  0  0  0
   16.1721  -11.6795  -15.1432 C   0  0  2  0  0  0  0  0  0  0  0  0
   16.5899  -12.9385  -14.6085 N   0  0  0  0  0  0  0  0  0  0  0  0
   16.9926  -10.5451  -14.7178 C   0  0  0  0  0  0  0  0  0  0  0  0
   16.9810  -10.1896  -13.5124 O   0  0  0  0  0  0  0  0  0  0  0  0
   22.9505   -9.3517  -15.3292 N   0  0  0  0  0  0  0  0  0  0  0  0
   22.4802   -8.0809  -14.9320 C   0  0  0  0  0  0  0  0  0  0  0  0
   23.2984   -7.1730  -14.6968 O   0  0  0  0  0  0  0  0  0  0  0  0
   21.0360   -7.8409  -14.8049 C   0  0  0  0  0  0  0  0  0  0  0  0
   20.1434   -8.9745  -15.1412 C   0  0  0  0  0  0  0  0  0  0  0  0
   18.6773   -8.7214  -15.1676 C   0  0  2  0  0  0  0  0  0  0  0  0
   17.8373   -9.7843  -15.6069 N   0  0  0  0  0  0  0  0  0  0  0  0
   18.3049   -7.5000  -15.9152 C   0  0  0  0  0  0  0  0  0  0  0  0
   18.1369   -7.5541  -17.1511 O   0  0  0  0  0  0  0  0  0  0  0  0
   18.1274   -6.2485  -15.2787 N   0  0  0  0  0  0  0  0  0  0  0  0
   17.7335   -5.0787  -16.0886 C   0  0  1  0  0  0  0  0  0  0  0  0
   16.6655   -4.3191  -15.3346 C   0  0  0  0  0  0  0  0  0  0  0  0
   16.1936   -3.1283  -16.0618 C   0  0  0  0  0  0  0  0  0  0  0  0
   16.6306   -2.7536  -17.1772 O   0  0  0  0  0  0  0  0  0  0  0  0
   18.9588   -4.2206  -16.1075 C   0  0  0  0  0  0  0  0  0  0  0  0
   19.8918   -4.3118  -15.2856 O   0  0  0  0  0  0  0  0  0  0  0  0
   15.1874   -2.3348  -15.4988 O   0  0  0  0  0  0  0  0  0  0  0  0
   19.1295   -3.2308  -17.0877 O   0  0  0  0  0  0  0  0  0  0  0  0
  1  2  1  0
  2  3  2  0
  2  4  1  0
  4  5  1  0
  5  6  1  0
  6  8  1  0
  6  7  1  1
  8  9  2  0
 11 10  1  0
 11 12  2  0
 13 11  1  0
 14 13  1  0
 15 14  1  6
 16 15  1  0
 16  8  1  0
 17 15  1  0
 17 18  2  0
 19 17  1  0
 20 19  1  0
 20 24  1  0
 20 21  1  1
 22 21  1  0
 22 26  1  0
 23 22  2  0
 24 25  2  0
 24 27  1  0
M  END
$$$$
