QQD.pdb
     RDKit          3D

 27 26  0  0  1  0  0  0  0  0999 V2000
   20.8554  -13.5477  -20.5467 N   0  0  0  0  0  0  0  0  0  0  0  0
   20.5048  -14.5748  -19.6647 C   0  0  0  0  0  0  0  0  0  0  0  0
   20.9011  -15.7488  -19.8790 O   0  0  0  0  0  0  0  0  0  0  0  0
   19.6710  -14.3503  -18.4611 C   0  0  0  0  0  0  0  0  0  0  0  0
   19.0769  -12.9588  -18.4389 C   0  0  0  0  0  0  0  0  0  0  0  0
   20.0785  -12.0626  -17.7511 C   0  0  2  0  0  0  0  0  0  0  0  0
   20.4965  -12.7040  -16.5431 N   0  0  0  0  0  0  0  0  0  0  0  0
   19.6121  -10.6875  -17.5698 C   0  0  0  0  0  0  0  0  0  0  0  0
   19.1858  -10.0421  -18.5604 O   0  0  0  0  0  0  0  0  0  0  0  0
   15.3969   -8.0831  -14.0668 N   0  0  0  0  0  0  0  0  0  0  0  0
   15.3605   -8.6002  -15.3802 C   0  0  0  0  0  0  0  0  0  0  0  0
   14.2610   -8.8387  -15.9124 O   0  0  0  0  0  0  0  0  0  0  0  0
   16.6144   -8.8468  -16.1057 C   0  0  0  0  0  0  0  0  0  0  0  0
   17.8666   -8.4563  -15.4170 C   0  0  0  0  0  0  0  0  0  0  0  0
   19.1511   -8.6603  -16.1400 C   0  0  2  0  0  0  0  0  0  0  0  0
   19.6062  -10.0003  -16.3007 N   0  0  0  0  0  0  0  0  0  0  0  0
   20.2671   -7.8565  -15.5943 C   0  0  0  0  0  0  0  0  0  0  0  0
   21.0556   -8.3652  -14.7709 O   0  0  0  0  0  0  0  0  0  0  0  0
   20.4843   -6.5100  -15.9718 N   0  0  0  0  0  0  0  0  0  0  0  0
   21.5778   -5.7510  -15.3332 C   0  0  1  0  0  0  0  0  0  0  0  0
   21.8124   -4.4921  -16.1370 C   0  0  0  0  0  0  0  0  0  0  0  0
   22.7517   -3.5657  -15.4822 C   0  0  0  0  0  0  0  0  0  0  0  0
   23.7161   -3.9191  -14.7606 O   0  0  0  0  0  0  0  0  0  0  0  0
   21.0091   -5.3354  -14.0134 C   0  0  0  0  0  0  0  0  0  0  0  0
   19.7919   -5.3319  -13.7438 O   0  0  0  0  0  0  0  0  0  0  0  0
   22.5877   -2.1865  -15.6550 O   0  0  0  0  0  0  0  0  0  0  0  0
   21.8466   -4.9118  -12.9699 O   0  0  0  0  0  0  0  0  0  0  0  0
  1  2  1  0
  2  3  2  0
  2  4  1  0
  4  5  1  0
  5  6  1  0
  6  8  1  0
  6  7  1  1
  8  9  2  0
 11 10  1  0
 11 12  2  0
 13 11  1  0
 14 13  1  0
 15 14  1  1
 16 15  1  0
 16  8  1  0
 17 15  1  0
 17 18  2  0
 19 17  1  0
 20 19  1  0
 20 24  1  0
 20 21  1  6
 22 21  1  0
 22 26  1  0
 23 22  2  0
 24 25  2  0
 24 27  1  0
M  END
$$$$
