QQD.pdb
     RDKit          3D

 27 26  0  0  1  0  0  0  0  0999 V2000
   27.8612  -12.8485  -15.0920 N   0  0  0  0  0  0  0  0  0  0  0  0
   27.2534  -12.8782  -16.3511 C   0  0  0  0  0  0  0  0  0  0  0  0
   27.9025  -12.5291  -17.3699 O   0  0  0  0  0  0  0  0  0  0  0  0
   25.8510  -13.3092  -16.5560 C   0  0  0  0  0  0  0  0  0  0  0  0
   24.9675  -12.1619  -16.9954 C   0  0  0  0  0  0  0  0  0  0  0  0
   23.5662  -12.7088  -17.1240 C   0  0  2  0  0  0  0  0  0  0  0  0
   23.5839  -13.7602  -18.0934 N   0  0  0  0  0  0  0  0  0  0  0  0
   22.5532  -11.6821  -17.3710 C   0  0  0  0  0  0  0  0  0  0  0  0
   22.2354  -11.3970  -18.5531 O   0  0  0  0  0  0  0  0  0  0  0  0
   17.0867  -11.1707  -17.3237 N   0  0  0  0  0  0  0  0  0  0  0  0
   17.1625   -9.8384  -16.8621 C   0  0  0  0  0  0  0  0  0  0  0  0
   16.1752   -9.0912  -16.9883 O   0  0  0  0  0  0  0  0  0  0  0  0
   18.3985   -9.3492  -16.2354 C   0  0  0  0  0  0  0  0  0  0  0  0
   19.4796  -10.3426  -16.0375 C   0  0  0  0  0  0  0  0  0  0  0  0
   20.8280  -10.0204  -16.5780 C   0  0  2  0  0  0  0  0  0  0  0  0
   21.8742  -10.9534  -16.3265 N   0  0  0  0  0  0  0  0  0  0  0  0
   21.3085   -8.6743  -16.1952 C   0  0  0  0  0  0  0  0  0  0  0  0
   22.2044   -8.5552  -15.3339 O   0  0  0  0  0  0  0  0  0  0  0  0
   20.7872   -7.4926  -16.7737 N   0  0  0  0  0  0  0  0  0  0  0  0
   21.2158   -6.1826  -16.2447 C   0  0  1  0  0  0  0  0  0  0  0  0
   21.2489   -6.2695  -14.7356 C   0  0  0  0  0  0  0  0  0  0  0  0
   21.7271   -5.0276  -14.1046 C   0  0  0  0  0  0  0  0  0  0  0  0
   21.4554   -3.8710  -14.5094 O   0  0  0  0  0  0  0  0  0  0  0  0
   22.6303   -6.0470  -16.7125 C   0  0  0  0  0  0  0  0  0  0  0  0
   23.1807   -6.8243  -17.5171 O   0  0  0  0  0  0  0  0  0  0  0  0
   22.5445   -5.1047  -12.9710 O   0  0  0  0  0  0  0  0  0  0  0  0
   23.4430   -4.9988  -16.2536 O   0  0  0  0  0  0  0  0  0  0  0  0
  1  2  1  0
  2  3  2  0
  2  4  1  0
  4  5  1  0
  5  6  1  0
  6  8  1  0
  6  7  1  6
  8  9  2  0
 11 10  1  0
 11 12  2  0
 13 11  1  0
 14 13  1  0
 15 14  1  1
 16 15  1  0
 16  8  1  0
 17 15  1  0
 17 18  2  0
 19 17  1  0
 20 19  1  0
 20 24  1  0
 20 21  1  1
 22 21  1  0
 22 26  1  0
 23 22  2  0
 24 25  2  0
 24 27  1  0
M  END
$$$$
