QQD.pdb
     RDKit          3D

 27 26  0  0  1  0  0  0  0  0999 V2000
   26.7739  -18.3678  -17.6377 N   0  0  0  0  0  0  0  0  0  0  0  0
   27.7658  -19.0541  -18.3456 C   0  0  0  0  0  0  0  0  0  0  0  0
   28.7331  -18.4228  -18.8423 O   0  0  0  0  0  0  0  0  0  0  0  0
   27.7388  -20.5214  -18.5477 C   0  0  0  0  0  0  0  0  0  0  0  0
   26.5719  -21.1671  -17.8329 C   0  0  0  0  0  0  0  0  0  0  0  0
   27.0467  -21.5212  -16.4442 C   0  0  2  0  0  0  0  0  0  0  0  0
   27.9351  -22.6374  -16.5466 N   0  0  0  0  0  0  0  0  0  0  0  0
   25.9620  -21.7044  -15.4792 C   0  0  0  0  0  0  0  0  0  0  0  0
   25.1359  -22.6369  -15.6453 O   0  0  0  0  0  0  0  0  0  0  0  0
   25.8437  -20.6600   -9.1770 N   0  0  0  0  0  0  0  0  0  0  0  0
   24.5236  -21.0577   -9.4822 C   0  0  0  0  0  0  0  0  0  0  0  0
   23.7218  -21.2757   -8.5556 O   0  0  0  0  0  0  0  0  0  0  0  0
   24.1084  -21.2054  -10.8841 C   0  0  0  0  0  0  0  0  0  0  0  0
   25.1594  -21.0140  -11.9105 C   0  0  0  0  0  0  0  0  0  0  0  0
   24.7609  -21.1119  -13.3409 C   0  0  2  0  0  0  0  0  0  0  0  0
   25.7672  -20.8686  -14.3189 N   0  0  0  0  0  0  0  0  0  0  0  0
   23.5795  -20.2879  -13.6797 C   0  0  0  0  0  0  0  0  0  0  0  0
   23.7212  -19.0757  -13.9424 O   0  0  0  0  0  0  0  0  0  0  0  0
   22.2703  -20.8238  -13.7200 N   0  0  0  0  0  0  0  0  0  0  0  0
   21.1344  -19.9273  -14.0125 C   0  0  1  0  0  0  0  0  0  0  0  0
   20.8293  -20.0169  -15.4906 C   0  0  0  0  0  0  0  0  0  0  0  0
   19.6823  -19.1819  -15.8864 C   0  0  0  0  0  0  0  0  0  0  0  0
   19.0123  -18.4702  -15.0990 O   0  0  0  0  0  0  0  0  0  0  0  0
   19.9848  -20.5479  -13.2836 C   0  0  0  0  0  0  0  0  0  0  0  0
   18.8428  -20.0515  -13.2224 O   0  0  0  0  0  0  0  0  0  0  0  0
   19.2831  -19.1559  -17.2277 O   0  0  0  0  0  0  0  0  0  0  0  0
   20.1364  -21.7669  -12.6048 O   0  0  0  0  0  0  0  0  0  0  0  0
  1  2  1  0
  2  3  2  0
  2  4  1  0
  4  5  1  0
  5  6  1  0
  6  8  1  0
  6  7  1  6
  8  9  2  0
 11 10  1  0
 11 12  2  0
 13 11  1  0
 14 13  1  0
 15 14  1  1
 16 15  1  0
 16  8  1  0
 17 15  1  0
 17 18  2  0
 19 17  1  0
 20 19  1  0
 20 24  1  0
 20 21  1  6
 22 21  1  0
 22 26  1  0
 23 22  2  0
 24 25  2  0
 24 27  1  0
M  END
$$$$
