QQD.pdb
     RDKit          3D

 27 26  0  0  1  0  0  0  0  0999 V2000
   25.3583  -20.5188   -8.7497 N   0  0  0  0  0  0  0  0  0  0  0  0
   26.2250  -21.3084   -9.5120 C   0  0  0  0  0  0  0  0  0  0  0  0
   27.0837  -22.0283   -8.9415 O   0  0  0  0  0  0  0  0  0  0  0  0
   26.1862  -21.3443  -10.9924 C   0  0  0  0  0  0  0  0  0  0  0  0
   25.1374  -20.4077  -11.5514 C   0  0  0  0  0  0  0  0  0  0  0  0
   25.0813  -20.6471  -13.0410 C   0  0  2  0  0  0  0  0  0  0  0  0
   26.4186  -20.6263  -13.5477 N   0  0  0  0  0  0  0  0  0  0  0  0
   24.1584  -19.7574  -13.7466 C   0  0  0  0  0  0  0  0  0  0  0  0
   23.7240  -18.7299  -13.1678 O   0  0  0  0  0  0  0  0  0  0  0  0
   24.5312  -17.9552  -19.7554 N   0  0  0  0  0  0  0  0  0  0  0  0
   23.3590  -17.3083  -19.3068 C   0  0  0  0  0  0  0  0  0  0  0  0
   22.8015  -16.4744  -20.0436 O   0  0  0  0  0  0  0  0  0  0  0  0
   22.8072  -17.6270  -17.9826 C   0  0  0  0  0  0  0  0  0  0  0  0
   23.5259  -18.6556  -17.1950 C   0  0  0  0  0  0  0  0  0  0  0  0
   22.9889  -19.0042  -15.8517 C   0  0  2  0  0  0  0  0  0  0  0  0
   23.6986  -19.9809  -15.0963 N   0  0  0  0  0  0  0  0  0  0  0  0
   21.5592  -19.3851  -15.8707 C   0  0  0  0  0  0  0  0  0  0  0  0
   21.2313  -20.5567  -16.1504 O   0  0  0  0  0  0  0  0  0  0  0  0
   20.5268  -18.4617  -15.5802 N   0  0  0  0  0  0  0  0  0  0  0  0
   19.1244  -18.9228  -15.5926 C   0  0  1  0  0  0  0  0  0  0  0  0
   18.4290  -18.3559  -14.3758 C   0  0  0  0  0  0  0  0  0  0  0  0
   18.1512  -19.3773  -13.3517 C   0  0  0  0  0  0  0  0  0  0  0  0
   18.3563  -20.6071  -13.4963 O   0  0  0  0  0  0  0  0  0  0  0  0
   18.5330  -18.2548  -16.7934 C   0  0  0  0  0  0  0  0  0  0  0  0
   17.7661  -18.8148  -17.6013 O   0  0  0  0  0  0  0  0  0  0  0  0
   17.6204  -18.9847  -12.1175 O   0  0  0  0  0  0  0  0  0  0  0  0
   18.8206  -16.9124  -17.0852 O   0  0  0  0  0  0  0  0  0  0  0  0
  1  2  1  0
  2  3  2  0
  2  4  1  0
  4  5  1  0
  5  6  1  0
  6  8  1  0
  6  7  1  6
  8  9  2  0
 11 10  1  0
 11 12  2  0
 13 11  1  0
 14 13  1  0
 15 14  1  6
 16 15  1  0
 16  8  1  0
 17 15  1  0
 17 18  2  0
 19 17  1  0
 20 19  1  0
 20 24  1  0
 20 21  1  1
 22 21  1  0
 22 26  1  0
 23 22  2  0
 24 25  2  0
 24 27  1  0
M  END
$$$$
