QQD.pdb
     RDKit          3D

 27 26  0  0  1  0  0  0  0  0999 V2000
   16.9232  -11.8985  -15.3776 N   0  0  0  0  0  0  0  0  0  0  0  0
   18.0173  -12.2385  -14.5757 C   0  0  0  0  0  0  0  0  0  0  0  0
   18.7669  -13.1918  -14.9081 O   0  0  0  0  0  0  0  0  0  0  0  0
   18.3505  -11.5190  -13.3245 C   0  0  0  0  0  0  0  0  0  0  0  0
   17.4426  -10.3294  -13.0998 C   0  0  0  0  0  0  0  0  0  0  0  0
   16.5892  -10.6473  -11.8956 C   0  0  2  0  0  0  0  0  0  0  0  0
   15.8726  -11.8560  -12.1621 N   0  0  0  0  0  0  0  0  0  0  0  0
   15.7459   -9.5335  -11.4603 C   0  0  0  0  0  0  0  0  0  0  0  0
   14.7353   -9.2196  -12.1382 O   0  0  0  0  0  0  0  0  0  0  0  0
   12.3276   -8.1528   -6.6139 N   0  0  0  0  0  0  0  0  0  0  0  0
   12.2418   -9.0456   -7.7045 C   0  0  0  0  0  0  0  0  0  0  0  0
   11.3757   -9.9393   -7.6954 O   0  0  0  0  0  0  0  0  0  0  0  0
   13.1679   -8.9097   -8.8374 C   0  0  0  0  0  0  0  0  0  0  0  0
   14.2731   -7.9363   -8.6771 C   0  0  0  0  0  0  0  0  0  0  0  0
   15.1531   -7.6835   -9.8502 C   0  0  2  0  0  0  0  0  0  0  0  0
   15.9981   -8.7479  -10.2761 N   0  0  0  0  0  0  0  0  0  0  0  0
   15.9805   -6.4645   -9.7125 C   0  0  0  0  0  0  0  0  0  0  0  0
   17.0036   -6.4846   -8.9973 O   0  0  0  0  0  0  0  0  0  0  0  0
   15.6571   -5.2530  -10.3687 N   0  0  0  0  0  0  0  0  0  0  0  0
   16.5771   -4.1042  -10.2533 C   0  0  1  0  0  0  0  0  0  0  0  0
   16.7790   -3.5192  -11.6328 C   0  0  0  0  0  0  0  0  0  0  0  0
   17.6032   -2.2986  -11.6181 C   0  0  0  0  0  0  0  0  0  0  0  0
   18.3681   -1.9653  -10.6804 O   0  0  0  0  0  0  0  0  0  0  0  0
   15.8071   -3.1010   -9.4541 C   0  0  0  0  0  0  0  0  0  0  0  0
   14.5779   -3.1579   -9.2537 O   0  0  0  0  0  0  0  0  0  0  0  0
   17.5550   -1.4252  -12.7108 O   0  0  0  0  0  0  0  0  0  0  0  0
   16.4515   -2.0018   -8.8655 O   0  0  0  0  0  0  0  0  0  0  0  0
  1  2  1  0
  2  3  2  0
  2  4  1  0
  4  5  1  0
  5  6  1  0
  6  8  1  0
  6  7  1  6
  8  9  2  0
 11 10  1  0
 11 12  2  0
 13 11  1  0
 14 13  1  0
 15 14  1  1
 16 15  1  0
 16  8  1  0
 17 15  1  0
 17 18  2  0
 19 17  1  0
 20 19  1  0
 20 24  1  0
 20 21  1  6
 22 21  1  0
 22 26  1  0
 23 22  2  0
 24 25  2  0
 24 27  1  0
M  END
$$$$
