QQD.pdb
     RDKit          3D

 27 26  0  0  1  0  0  0  0  0999 V2000
   21.3349  -13.2898  -20.8997 N   0  0  0  0  0  0  0  0  0  0  0  0
   21.4602  -14.2927  -19.9332 C   0  0  0  0  0  0  0  0  0  0  0  0
   21.9899  -15.3925  -20.2350 O   0  0  0  0  0  0  0  0  0  0  0  0
   20.9914  -14.1267  -18.5379 C   0  0  0  0  0  0  0  0  0  0  0  0
   20.4659  -12.7308  -18.2825 C   0  0  0  0  0  0  0  0  0  0  0  0
   20.1749  -12.6329  -16.8043 C   0  0  2  0  0  0  0  0  0  0  0  0
   19.3311  -13.7291  -16.4412 N   0  0  0  0  0  0  0  0  0  0  0  0
   19.6701  -11.3239  -16.3884 C   0  0  0  0  0  0  0  0  0  0  0  0
   18.9688  -10.6491  -17.1837 O   0  0  0  0  0  0  0  0  0  0  0  0
   16.7946   -8.9629  -11.3049 N   0  0  0  0  0  0  0  0  0  0  0  0
   16.3935   -9.8578  -12.3207 C   0  0  0  0  0  0  0  0  0  0  0  0
   15.3037  -10.4500  -12.2177 O   0  0  0  0  0  0  0  0  0  0  0  0
   17.2595  -10.0777  -13.4875 C   0  0  0  0  0  0  0  0  0  0  0  0
   18.5881   -9.4229  -13.4597 C   0  0  0  0  0  0  0  0  0  0  0  0
   19.4123   -9.4687  -14.6979 C   0  0  2  0  0  0  0  0  0  0  0  0
   19.9264  -10.7359  -15.0956 N   0  0  0  0  0  0  0  0  0  0  0  0
   20.5287   -8.4976  -14.6972 C   0  0  0  0  0  0  0  0  0  0  0  0
   21.6624   -8.8534  -14.3141 O   0  0  0  0  0  0  0  0  0  0  0  0
   20.3649   -7.1569  -15.1198 N   0  0  0  0  0  0  0  0  0  0  0  0
   21.5173   -6.2363  -15.0558 C   0  0  1  0  0  0  0  0  0  0  0  0
   21.2352   -5.0610  -15.9641 C   0  0  0  0  0  0  0  0  0  0  0  0
   22.3013   -4.0455  -15.9283 C   0  0  0  0  0  0  0  0  0  0  0  0
   23.4839   -4.2647  -15.5691 O   0  0  0  0  0  0  0  0  0  0  0  0
   21.4967   -5.7256  -13.6498 C   0  0  0  0  0  0  0  0  0  0  0  0
   20.5864   -5.9612  -12.8311 O   0  0  0  0  0  0  0  0  0  0  0  0
   22.0110   -2.7321  -16.3155 O   0  0  0  0  0  0  0  0  0  0  0  0
   22.5396   -4.9245  -13.1595 O   0  0  0  0  0  0  0  0  0  0  0  0
  1  2  1  0
  2  3  2  0
  2  4  1  0
  4  5  1  0
  5  6  1  0
  6  8  1  0
  6  7  1  6
  8  9  2  0
 11 10  1  0
 11 12  2  0
 13 11  1  0
 14 13  1  0
 15 14  1  1
 16 15  1  0
 16  8  1  0
 17 15  1  0
 17 18  2  0
 19 17  1  0
 20 19  1  0
 20 24  1  0
 20 21  1  6
 22 21  1  0
 22 26  1  0
 23 22  2  0
 24 25  2  0
 24 27  1  0
M  END
$$$$
