QQD.pdb
     RDKit          3D

 27 26  0  0  1  0  0  0  0  0999 V2000
   42.5975  -13.6717  -11.1404 N   0  0  0  0  0  0  0  0  0  0  0  0
   42.8679  -15.0434  -11.1090 C   0  0  0  0  0  0  0  0  0  0  0  0
   43.0462  -15.6727  -12.1829 O   0  0  0  0  0  0  0  0  0  0  0  0
   42.9582  -15.8156   -9.8480 C   0  0  0  0  0  0  0  0  0  0  0  0
   42.6454  -14.9599   -8.6398 C   0  0  0  0  0  0  0  0  0  0  0  0
   43.9641  -14.4627   -8.0984 C   0  0  2  0  0  0  0  0  0  0  0  0
   44.5510  -15.5093   -7.3202 N   0  0  0  0  0  0  0  0  0  0  0  0
   43.8692  -13.1789   -7.4027 C   0  0  0  0  0  0  0  0  0  0  0  0
   43.3565  -13.1318   -6.2563 O   0  0  0  0  0  0  0  0  0  0  0  0
   47.4358   -9.1977   -4.1730 N   0  0  0  0  0  0  0  0  0  0  0  0
   47.4697  -10.1644   -5.2017 C   0  0  0  0  0  0  0  0  0  0  0  0
   48.5632  -10.4873   -5.7006 O   0  0  0  0  0  0  0  0  0  0  0  0
   46.2204  -10.7814   -5.6689 C   0  0  0  0  0  0  0  0  0  0  0  0
   45.5051  -10.0838   -6.7627 C   0  0  0  0  0  0  0  0  0  0  0  0
   44.2398  -10.6870   -7.2622 C   0  0  2  0  0  0  0  0  0  0  0  0
   44.3347  -11.9286   -7.9534 N   0  0  0  0  0  0  0  0  0  0  0  0
   43.4322   -9.7608   -8.0864 C   0  0  0  0  0  0  0  0  0  0  0  0
   43.5603   -9.7605   -9.3283 O   0  0  0  0  0  0  0  0  0  0  0  0
   42.5028   -8.8575   -7.5181 N   0  0  0  0  0  0  0  0  0  0  0  0
   41.7945   -7.9058   -8.3968 C   0  0  1  0  0  0  0  0  0  0  0  0
   40.3265   -8.2674   -8.4005 C   0  0  0  0  0  0  0  0  0  0  0  0
   39.5102   -7.3244   -9.1839 C   0  0  0  0  0  0  0  0  0  0  0  0
   39.9631   -6.3273   -9.7971 O   0  0  0  0  0  0  0  0  0  0  0  0
   41.9265   -6.5930   -7.6917 C   0  0  0  0  0  0  0  0  0  0  0  0
   41.7042   -6.4238   -6.4767 O   0  0  0  0  0  0  0  0  0  0  0  0
   38.1276   -7.5235   -9.2726 O   0  0  0  0  0  0  0  0  0  0  0  0
   42.3223   -5.4393   -8.3862 O   0  0  0  0  0  0  0  0  0  0  0  0
  1  2  1  0
  2  3  2  0
  2  4  1  0
  4  5  1  0
  5  6  1  0
  6  8  1  0
  6  7  1  1
  8  9  2  0
 11 10  1  0
 11 12  2  0
 13 11  1  0
 14 13  1  0
 15 14  1  6
 16 15  1  0
 16  8  1  0
 17 15  1  0
 17 18  2  0
 19 17  1  0
 20 19  1  0
 20 24  1  0
 20 21  1  1
 22 21  1  0
 22 26  1  0
 23 22  2  0
 24 25  2  0
 24 27  1  0
M  END
$$$$
