QQD.pdb
     RDKit          3D

 27 26  0  0  1  0  0  0  0  0999 V2000
   12.4623   -9.0589  -15.4168 N   0  0  0  0  0  0  0  0  0  0  0  0
   12.7356  -10.1206  -16.2851 C   0  0  0  0  0  0  0  0  0  0  0  0
   11.7944  -10.6964  -16.8882 O   0  0  0  0  0  0  0  0  0  0  0  0
   14.1079  -10.6168  -16.5400 C   0  0  0  0  0  0  0  0  0  0  0  0
   15.1474   -9.8051  -15.7982 C   0  0  0  0  0  0  0  0  0  0  0  0
   16.4908  -10.4205  -16.1079 C   0  0  2  0  0  0  0  0  0  0  0  0
   16.5187  -11.7370  -15.5499 N   0  0  0  0  0  0  0  0  0  0  0  0
   17.6262   -9.5816  -15.7229 C   0  0  0  0  0  0  0  0  0  0  0  0
   18.1835   -9.7652  -14.6115 O   0  0  0  0  0  0  0  0  0  0  0  0
   22.4654   -8.8246  -14.4763 N   0  0  0  0  0  0  0  0  0  0  0  0
   22.6609   -7.5964  -15.1450 C   0  0  0  0  0  0  0  0  0  0  0  0
   23.6225   -6.8737  -14.8260 O   0  0  0  0  0  0  0  0  0  0  0  0
   21.7347   -7.1862  -16.2097 C   0  0  0  0  0  0  0  0  0  0  0  0
   20.6198   -8.1137  -16.5122 C   0  0  0  0  0  0  0  0  0  0  0  0
   19.2423   -7.6898  -16.1421 C   0  0  2  0  0  0  0  0  0  0  0  0
   18.1669   -8.5298  -16.5501 N   0  0  0  0  0  0  0  0  0  0  0  0
   18.9245   -6.3032  -16.5494 C   0  0  0  0  0  0  0  0  0  0  0  0
   18.8011   -6.0231  -17.7597 O   0  0  0  0  0  0  0  0  0  0  0  0
   18.7510   -5.2599  -15.6090 N   0  0  0  0  0  0  0  0  0  0  0  0
   18.3686   -3.9164  -16.0870 C   0  0  1  0  0  0  0  0  0  0  0  0
   17.2407   -3.4082  -15.2179 C   0  0  0  0  0  0  0  0  0  0  0  0
   16.9075   -1.9985  -15.4848 C   0  0  0  0  0  0  0  0  0  0  0  0
   16.9671   -1.4526  -16.6135 O   0  0  0  0  0  0  0  0  0  0  0  0
   19.5686   -3.0719  -15.7957 C   0  0  0  0  0  0  0  0  0  0  0  0
   20.5737   -3.4713  -15.1755 O   0  0  0  0  0  0  0  0  0  0  0  0
   16.4913   -1.1801  -14.4284 O   0  0  0  0  0  0  0  0  0  0  0  0
   19.6290   -1.7357  -16.2208 O   0  0  0  0  0  0  0  0  0  0  0  0
  1  2  1  0
  2  3  2  0
  2  4  1  0
  4  5  1  0
  5  6  1  0
  6  8  1  0
  6  7  1  1
  8  9  2  0
 11 10  1  0
 11 12  2  0
 13 11  1  0
 14 13  1  0
 15 14  1  6
 16 15  1  0
 16  8  1  0
 17 15  1  0
 17 18  2  0
 19 17  1  0
 20 19  1  0
 20 24  1  0
 20 21  1  1
 22 21  1  0
 22 26  1  0
 23 22  2  0
 24 25  2  0
 24 27  1  0
M  END
$$$$
