QQD.pdb
     RDKit          3D

 27 26  0  0  1  0  0  0  0  0999 V2000
   17.7516  -11.6921  -15.1284 N   0  0  0  0  0  0  0  0  0  0  0  0
   16.8750  -12.7813  -15.1584 C   0  0  0  0  0  0  0  0  0  0  0  0
   17.2878  -13.9092  -15.5308 O   0  0  0  0  0  0  0  0  0  0  0  0
   15.4505  -12.6770  -14.7657 C   0  0  0  0  0  0  0  0  0  0  0  0
   15.0739  -11.2624  -14.3826 C   0  0  0  0  0  0  0  0  0  0  0  0
   14.5772  -11.3089  -12.9577 C   0  0  2  0  0  0  0  0  0  0  0  0
   13.3325  -12.0132  -12.9410 N   0  0  0  0  0  0  0  0  0  0  0  0
   14.5344   -9.9997  -12.3054 C   0  0  0  0  0  0  0  0  0  0  0  0
   13.4650   -9.3395  -12.3106 O   0  0  0  0  0  0  0  0  0  0  0  0
   12.6637   -7.8134   -7.7871 N   0  0  0  0  0  0  0  0  0  0  0  0
   13.1115   -9.1023   -8.1504 C   0  0  0  0  0  0  0  0  0  0  0  0
   12.6927  -10.0933   -7.5248 O   0  0  0  0  0  0  0  0  0  0  0  0
   14.0598   -9.2623   -9.2616 C   0  0  0  0  0  0  0  0  0  0  0  0
   14.5876   -8.0176   -9.8672 C   0  0  0  0  0  0  0  0  0  0  0  0
   15.5910   -8.1460  -10.9586 C   0  0  2  0  0  0  0  0  0  0  0  0
   15.6626   -9.3955  -11.6382 N   0  0  0  0  0  0  0  0  0  0  0  0
   16.9603   -7.7662  -10.5459 C   0  0  0  0  0  0  0  0  0  0  0  0
   17.7031   -8.6103  -10.0034 O   0  0  0  0  0  0  0  0  0  0  0  0
   17.4752   -6.4628  -10.7429 N   0  0  0  0  0  0  0  0  0  0  0  0
   18.9155   -6.2183  -10.5305 C   0  0  1  0  0  0  0  0  0  0  0  0
   19.6897   -7.0676  -11.5130 C   0  0  0  0  0  0  0  0  0  0  0  0
   21.1338   -6.7785  -11.5005 C   0  0  0  0  0  0  0  0  0  0  0  0
   21.6978   -5.9945  -10.6988 O   0  0  0  0  0  0  0  0  0  0  0  0
   19.1048   -4.7899  -10.9331 C   0  0  0  0  0  0  0  0  0  0  0  0
   18.3915   -4.1950  -11.7648 O   0  0  0  0  0  0  0  0  0  0  0  0
   21.9669   -7.4048  -12.4348 O   0  0  0  0  0  0  0  0  0  0  0  0
   20.1334   -4.0150  -10.3753 O   0  0  0  0  0  0  0  0  0  0  0  0
  1  2  1  0
  2  3  2  0
  2  4  1  0
  4  5  1  0
  5  6  1  0
  6  8  1  0
  6  7  1  6
  8  9  2  0
 11 10  1  0
 11 12  2  0
 13 11  1  0
 14 13  1  0
 15 14  1  1
 16 15  1  0
 16  8  1  0
 17 15  1  0
 17 18  2  0
 19 17  1  0
 20 19  1  0
 20 24  1  0
 20 21  1  6
 22 21  1  0
 22 26  1  0
 23 22  2  0
 24 25  2  0
 24 27  1  0
M  END
$$$$
