NVR.pdb
     RDKit          3D

 27 26  0  0  1  0  0  0  0  0999 V2000
   27.2933  -24.1955  -16.6450 N   0  0  0  0  0  0  0  0  0  0  0  0
   27.6086  -23.1778  -15.7240 C   0  0  0  0  0  0  0  0  0  0  0  0
   28.8149  -23.0278  -15.4006 O   0  0  0  0  0  0  0  0  0  0  0  0
   26.6016  -22.2771  -15.1165 C   0  0  0  0  0  0  0  0  0  0  0  0
   25.1995  -22.7572  -15.4214 C   0  0  2  0  0  0  0  0  0  0  0  0
   25.0868  -22.8442  -16.8480 N   0  0  0  0  0  0  0  0  0  0  0  0
   24.1621  -21.9767  -14.7555 C   0  0  0  0  0  0  0  0  0  0  0  0
   24.1199  -21.9922  -13.4955 O   0  0  0  0  0  0  0  0  0  0  0  0
   20.7849  -18.3844  -14.4934 C   0  0  0  0  0  0  0  0  0  0  0  0
   21.9976  -19.0371  -15.1539 C   0  0  2  0  0  0  0  0  0  0  0  0
   21.8953  -18.9601  -16.6408 C   0  0  0  0  0  0  0  0  0  0  0  0
   22.1952  -20.4428  -14.6284 C   0  0  2  0  0  0  0  0  0  0  0  0
   23.1721  -21.1831  -15.4003 N   0  0  0  0  0  0  0  0  0  0  0  0
   20.8666  -21.1059  -14.6524 C   0  0  0  0  0  0  0  0  0  0  0  0
   20.4963  -21.6433  -15.7482 O   0  0  0  0  0  0  0  0  0  0  0  0
   19.5579  -27.6813  -13.0979 N   0  0  0  0  0  0  0  0  0  0  0  0
   20.2042  -26.8485  -12.1183 C   0  0  0  0  0  0  0  0  0  0  0  0
   21.3885  -27.1261  -11.7176 N   0  0  0  0  0  0  0  0  0  0  0  0
   19.5495  -25.7131  -11.5749 N   0  0  0  0  0  0  0  0  0  0  0  0
   18.2458  -25.2723  -11.9154 C   0  0  0  0  0  0  0  0  0  0  0  0
   18.2551  -24.2048  -12.9609 C   0  0  0  0  0  0  0  0  0  0  0  0
   18.7145  -22.8710  -12.4349 C   0  0  0  0  0  0  0  0  0  0  0  0
   18.7497  -21.8497  -13.5123 C   0  0  2  0  0  0  0  0  0  0  0  0
   20.0464  -21.1458  -13.5279 N   0  0  0  0  0  0  0  0  0  0  0  0
   17.6510  -20.8590  -13.4870 C   0  0  0  0  0  0  0  0  0  0  0  0
   17.6668  -19.7560  -12.9331 O   0  0  0  0  0  0  0  0  0  0  0  0
   16.4575  -21.1904  -14.1579 O   0  0  0  0  0  0  0  0  0  0  0  0
  2  3  2  0
  2  1  1  0
  4  2  1  0
  5  4  1  0
  5  6  1  6
  7  5  1  0
  8  7  2  0
 10  9  1  1
 10 11  1  0
 10 12  1  0
 12 13  1  6
 13  7  1  0
 14 15  2  0
 14 12  1  0
 17 16  1  0
 17 18  2  0
 19 17  1  0
 20 19  1  0
 21 20  1  0
 23 22  1  1
 22 21  1  0
 23 24  1  0
 24 14  1  0
 25 23  1  0
 26 25  2  0
 27 25  1  0
M  END
$$$$
