NVR.pdb
     RDKit          3D

 27 26  0  0  1  0  0  0  0  0999 V2000
   31.2652  -24.0025  -17.5215 N   0  0  0  0  0  0  0  0  0  0  0  0
   29.9266  -23.5765  -17.6216 C   0  0  0  0  0  0  0  0  0  0  0  0
   29.2745  -23.9149  -18.6426 O   0  0  0  0  0  0  0  0  0  0  0  0
   29.2460  -22.7540  -16.5946 C   0  0  0  0  0  0  0  0  0  0  0  0
   28.1095  -21.9646  -17.2066 C   0  0  2  0  0  0  0  0  0  0  0  0
   28.6859  -21.0888  -18.1845 N   0  0  0  0  0  0  0  0  0  0  0  0
   27.2506  -21.3230  -16.2168 C   0  0  0  0  0  0  0  0  0  0  0  0
   26.8259  -22.0185  -15.2549 O   0  0  0  0  0  0  0  0  0  0  0  0
   25.6021  -17.2709  -16.4160 C   0  0  0  0  0  0  0  0  0  0  0  0
   25.9572  -17.9617  -15.1009 C   0  0  2  0  0  0  0  0  0  0  0  0
   27.2691  -17.4727  -14.5840 C   0  0  0  0  0  0  0  0  0  0  0  0
   25.8853  -19.4657  -15.2556 C   0  0  2  0  0  0  0  0  0  0  0  0
   26.8357  -19.9616  -16.2297 N   0  0  0  0  0  0  0  0  0  0  0  0
   24.4894  -19.7963  -15.6400 C   0  0  0  0  0  0  0  0  0  0  0  0
   24.2921  -20.2364  -16.8208 O   0  0  0  0  0  0  0  0  0  0  0  0
   22.0767  -26.6078  -16.3401 N   0  0  0  0  0  0  0  0  0  0  0  0
   23.3424  -26.3070  -15.7248 C   0  0  0  0  0  0  0  0  0  0  0  0
   24.3749  -27.0142  -15.9965 N   0  0  0  0  0  0  0  0  0  0  0  0
   23.4744  -25.2324  -14.8077 N   0  0  0  0  0  0  0  0  0  0  0  0
   22.4158  -24.4140  -14.3394 C   0  0  0  0  0  0  0  0  0  0  0  0
   22.3588  -23.0937  -15.0370 C   0  0  0  0  0  0  0  0  0  0  0  0
   23.0288  -21.9904  -14.2620 C   0  0  0  0  0  0  0  0  0  0  0  0
   22.4006  -20.6748  -14.5447 C   0  0  2  0  0  0  0  0  0  0  0  0
   23.4271  -19.6357  -14.7541 N   0  0  0  0  0  0  0  0  0  0  0  0
   21.4228  -20.2062  -13.5379 C   0  0  0  0  0  0  0  0  0  0  0  0
   21.6711  -19.5622  -12.5146 O   0  0  0  0  0  0  0  0  0  0  0  0
   20.0657  -20.5173  -13.7516 O   0  0  0  0  0  0  0  0  0  0  0  0
  2  3  2  0
  2  1  1  0
  4  2  1  0
  5  4  1  0
  5  6  1  6
  7  5  1  0
  8  7  2  0
 10  9  1  6
 10 11  1  0
 10 12  1  0
 12 13  1  6
 13  7  1  0
 14 15  2  0
 14 12  1  0
 17 16  1  0
 17 18  2  0
 19 17  1  0
 20 19  1  0
 21 20  1  0
 23 22  1  1
 22 21  1  0
 23 24  1  0
 24 14  1  0
 25 23  1  0
 26 25  2  0
 27 25  1  0
M  END
$$$$
