NVR.pdb
     RDKit          3D

 27 26  0  0  1  0  0  0  0  0999 V2000
   26.7221  -15.9576  -18.5614 N   0  0  0  0  0  0  0  0  0  0  0  0
   25.5734  -16.7697  -18.4953 C   0  0  0  0  0  0  0  0  0  0  0  0
   24.6080  -16.4890  -19.2514 O   0  0  0  0  0  0  0  0  0  0  0  0
   25.4390  -17.9324  -17.5874 C   0  0  0  0  0  0  0  0  0  0  0  0
   26.7669  -18.6380  -17.4196 C   0  0  2  0  0  0  0  0  0  0  0  0
   27.1014  -19.2104  -18.6908 N   0  0  0  0  0  0  0  0  0  0  0  0
   26.7947  -19.5594  -16.2886 C   0  0  0  0  0  0  0  0  0  0  0  0
   26.0133  -20.5487  -16.3055 O   0  0  0  0  0  0  0  0  0  0  0  0
   28.5342  -21.3660  -11.9913 C   0  0  0  0  0  0  0  0  0  0  0  0
   28.7194  -20.3813  -13.1441 C   0  0  2  0  0  0  0  0  0  0  0  0
   29.1099  -19.0349  -12.6321 C   0  0  0  0  0  0  0  0  0  0  0  0
   27.4917  -20.3643  -14.0294 C   0  0  2  0  0  0  0  0  0  0  0  0
   27.6336  -19.4502  -15.1440 N   0  0  0  0  0  0  0  0  0  0  0  0
   26.3399  -19.9964  -13.1671 C   0  0  0  0  0  0  0  0  0  0  0  0
   26.2283  -18.7732  -12.8235 O   0  0  0  0  0  0  0  0  0  0  0  0
   17.8689  -22.7117  -11.9409 N   0  0  0  0  0  0  0  0  0  0  0  0
   18.1995  -21.6359  -11.0440 C   0  0  0  0  0  0  0  0  0  0  0  0
   17.2818  -21.0656  -10.3563 N   0  0  0  0  0  0  0  0  0  0  0  0
   19.5367  -21.1826  -10.9047 N   0  0  0  0  0  0  0  0  0  0  0  0
   20.6505  -21.6639  -11.6379 C   0  0  0  0  0  0  0  0  0  0  0  0
   21.9088  -20.9212  -11.3246 C   0  0  0  0  0  0  0  0  0  0  0  0
   23.0591  -21.3131  -12.2133 C   0  0  0  0  0  0  0  0  0  0  0  0
   24.3089  -20.6163  -11.8160 C   0  0  2  0  0  0  0  0  0  0  0  0
   25.4102  -20.9421  -12.7424 N   0  0  0  0  0  0  0  0  0  0  0  0
   24.7516  -20.8468  -10.4231 C   0  0  0  0  0  0  0  0  0  0  0  0
   25.3518  -21.8372   -9.9957 O   0  0  0  0  0  0  0  0  0  0  0  0
   24.4681  -19.8455   -9.4737 O   0  0  0  0  0  0  0  0  0  0  0  0
  2  3  2  0
  2  1  1  0
  4  2  1  0
  5  4  1  0
  5  6  1  6
  7  5  1  0
  8  7  2  0
 10  9  1  1
 10 11  1  0
 10 12  1  0
 12 13  1  6
 13  7  1  0
 14 15  2  0
 14 12  1  0
 17 16  1  0
 17 18  2  0
 19 17  1  0
 20 19  1  0
 21 20  1  0
 23 22  1  6
 22 21  1  0
 23 24  1  0
 24 14  1  0
 25 23  1  0
 26 25  2  0
 27 25  1  0
M  END
$$$$
