NVR.pdb
     RDKit          3D

 27 26  0  0  1  0  0  0  0  0999 V2000
   28.5409  -20.5236  -17.6023 N   0  0  0  0  0  0  0  0  0  0  0  0
   28.8368  -21.7057  -16.8963 C   0  0  0  0  0  0  0  0  0  0  0  0
   29.7107  -22.4747  -17.3730 O   0  0  0  0  0  0  0  0  0  0  0  0
   28.1777  -22.0930  -15.6274 C   0  0  0  0  0  0  0  0  0  0  0  0
   27.1594  -21.0534  -15.2131 C   0  0  2  0  0  0  0  0  0  0  0  0
   27.8836  -19.8529  -14.9134 N   0  0  0  0  0  0  0  0  0  0  0  0
   26.2506  -21.5161  -14.1696 C   0  0  0  0  0  0  0  0  0  0  0  0
   25.4613  -22.4609  -14.4416 O   0  0  0  0  0  0  0  0  0  0  0  0
   25.2758  -19.4816  -10.2898 C   0  0  0  0  0  0  0  0  0  0  0  0
   25.2794  -20.9859  -10.5537 C   0  0  2  0  0  0  0  0  0  0  0  0
   26.5352  -21.6096  -10.0423 C   0  0  0  0  0  0  0  0  0  0  0  0
   25.0101  -21.2685  -12.0161 C   0  0  2  0  0  0  0  0  0  0  0  0
   26.1645  -20.9961  -12.8476 N   0  0  0  0  0  0  0  0  0  0  0  0
   23.8457  -20.4360  -12.4118 C   0  0  0  0  0  0  0  0  0  0  0  0
   24.0752  -19.2320  -12.7647 O   0  0  0  0  0  0  0  0  0  0  0  0
   19.3923  -21.4437  -17.9054 N   0  0  0  0  0  0  0  0  0  0  0  0
   19.4948  -20.1150  -18.4486 C   0  0  0  0  0  0  0  0  0  0  0  0
   18.9384  -19.8316  -19.5668 N   0  0  0  0  0  0  0  0  0  0  0  0
   20.2116  -19.0979  -17.7669 N   0  0  0  0  0  0  0  0  0  0  0  0
   21.2437  -19.3113  -16.8187 C   0  0  0  0  0  0  0  0  0  0  0  0
   20.7765  -20.0775  -15.6238 C   0  0  0  0  0  0  0  0  0  0  0  0
   21.9012  -20.4805  -14.7076 C   0  0  0  0  0  0  0  0  0  0  0  0
   21.4847  -20.4188  -13.2835 C   0  0  2  0  0  0  0  0  0  0  0  0
   22.5473  -20.9389  -12.4016 N   0  0  0  0  0  0  0  0  0  0  0  0
   20.2058  -21.0909  -12.9641 C   0  0  0  0  0  0  0  0  0  0  0  0
   19.0827  -20.7601  -13.3551 O   0  0  0  0  0  0  0  0  0  0  0  0
   20.2547  -22.2252  -12.1304 O   0  0  0  0  0  0  0  0  0  0  0  0
  2  3  2  0
  2  1  1  0
  4  2  1  0
  5  4  1  0
  5  6  1  1
  7  5  1  0
  8  7  2  0
 10  9  1  6
 10 11  1  0
 10 12  1  0
 12 13  1  6
 13  7  1  0
 14 15  2  0
 14 12  1  0
 17 16  1  0
 17 18  2  0
 19 17  1  0
 20 19  1  0
 21 20  1  0
 23 22  1  6
 22 21  1  0
 23 24  1  0
 24 14  1  0
 25 23  1  0
 26 25  2  0
 27 25  1  0
M  END
$$$$
