NVR.pdb
     RDKit          3D

 27 26  0  0  1  0  0  0  0  0999 V2000
   28.7149  -14.9264  -21.2077 N   0  0  0  0  0  0  0  0  0  0  0  0
   27.3984  -14.5525  -21.5399 C   0  0  0  0  0  0  0  0  0  0  0  0
   27.0794  -14.5341  -22.7565 O   0  0  0  0  0  0  0  0  0  0  0  0
   26.3715  -14.1803  -20.5392 C   0  0  0  0  0  0  0  0  0  0  0  0
   26.9279  -14.2840  -19.1360 C   0  0  2  0  0  0  0  0  0  0  0  0
   27.0139  -15.6800  -18.8208 N   0  0  0  0  0  0  0  0  0  0  0  0
   26.2101  -13.4638  -18.1659 C   0  0  0  0  0  0  0  0  0  0  0  0
   25.3347  -14.0180  -17.4476 O   0  0  0  0  0  0  0  0  0  0  0  0
   27.4143   -9.6471  -16.5060 C   0  0  0  0  0  0  0  0  0  0  0  0
   26.5534  -10.7433  -15.8815 C   0  0  2  0  0  0  0  0  0  0  0  0
   27.4017  -11.7295  -15.1497 C   0  0  0  0  0  0  0  0  0  0  0  0
   25.6530  -11.3694  -16.9247 C   0  0  2  0  0  0  0  0  0  0  0  0
   26.4037  -12.0711  -17.9455 N   0  0  0  0  0  0  0  0  0  0  0  0
   24.8357  -10.2742  -17.5064 C   0  0  0  0  0  0  0  0  0  0  0  0
   25.3459   -9.6033  -18.4637 O   0  0  0  0  0  0  0  0  0  0  0  0
   16.5318  -10.7379  -17.9424 N   0  0  0  0  0  0  0  0  0  0  0  0
   17.0570   -9.6844  -17.1145 C   0  0  0  0  0  0  0  0  0  0  0  0
   16.3176   -9.1352  -16.2246 N   0  0  0  0  0  0  0  0  0  0  0  0
   18.3927   -9.2304  -17.2657 N   0  0  0  0  0  0  0  0  0  0  0  0
   18.9862   -8.8062  -18.4812 C   0  0  0  0  0  0  0  0  0  0  0  0
   20.3973   -8.3482  -18.3023 C   0  0  0  0  0  0  0  0  0  0  0  0
   21.2896   -9.4094  -17.7155 C   0  0  0  0  0  0  0  0  0  0  0  0
   22.7001   -8.9499  -17.6464 C   0  0  2  0  0  0  0  0  0  0  0  0
   23.5596   -9.9805  -17.0329 N   0  0  0  0  0  0  0  0  0  0  0  0
   22.9159   -7.6561  -16.9617 C   0  0  0  0  0  0  0  0  0  0  0  0
   22.7663   -6.5317  -17.4484 O   0  0  0  0  0  0  0  0  0  0  0  0
   23.3348   -7.6909  -15.6172 O   0  0  0  0  0  0  0  0  0  0  0  0
  2  3  2  0
  2  1  1  0
  4  2  1  0
  5  4  1  0
  5  6  1  1
  7  5  1  0
  8  7  2  0
 10  9  1  6
 10 11  1  0
 10 12  1  0
 12 13  1  6
 13  7  1  0
 14 15  2  0
 14 12  1  0
 17 16  1  0
 17 18  2  0
 19 17  1  0
 20 19  1  0
 21 20  1  0
 23 22  1  1
 22 21  1  0
 23 24  1  0
 24 14  1  0
 25 23  1  0
 26 25  2  0
 27 25  1  0
M  END
$$$$
