NVR.pdb
     RDKit          3D

 27 26  0  0  1  0  0  0  0  0999 V2000
   30.2146  -21.7544  -11.1373 N   0  0  0  0  0  0  0  0  0  0  0  0
   29.3328  -21.3343  -10.1228 C   0  0  0  0  0  0  0  0  0  0  0  0
   29.7419  -21.3688   -8.9338 O   0  0  0  0  0  0  0  0  0  0  0  0
   27.9541  -20.8559  -10.3773 C   0  0  0  0  0  0  0  0  0  0  0  0
   27.6262  -20.9256  -11.8527 C   0  0  2  0  0  0  0  0  0  0  0  0
   28.6773  -20.2429  -12.5489 N   0  0  0  0  0  0  0  0  0  0  0  0
   26.2723  -20.4812  -12.1671 C   0  0  0  0  0  0  0  0  0  0  0  0
   26.0873  -19.2582  -12.4113 O   0  0  0  0  0  0  0  0  0  0  0  0
   24.1950  -21.3427  -15.1092 C   0  0  0  0  0  0  0  0  0  0  0  0
   23.9521  -20.2220  -14.1003 C   0  0  2  0  0  0  0  0  0  0  0  0
   24.9786  -19.1483  -14.2452 C   0  0  0  0  0  0  0  0  0  0  0  0
   23.8507  -20.7833  -12.6983 C   0  0  2  0  0  0  0  0  0  0  0  0
   25.1156  -21.3082  -12.2263 N   0  0  0  0  0  0  0  0  0  0  0  0
   22.8017  -21.8342  -12.7262 C   0  0  0  0  0  0  0  0  0  0  0  0
   23.1627  -23.0333  -12.4841 O   0  0  0  0  0  0  0  0  0  0  0  0
   16.8463  -23.7234   -8.2172 N   0  0  0  0  0  0  0  0  0  0  0  0
   18.0422  -24.2739   -7.6359 C   0  0  0  0  0  0  0  0  0  0  0  0
   17.9860  -25.3513   -6.9459 N   0  0  0  0  0  0  0  0  0  0  0  0
   19.2997  -23.6396   -7.8080 N   0  0  0  0  0  0  0  0  0  0  0  0
   19.5465  -22.5071   -8.6242 C   0  0  0  0  0  0  0  0  0  0  0  0
   20.3404  -22.8411   -9.8453 C   0  0  0  0  0  0  0  0  0  0  0  0
   20.5546  -21.6563  -10.7492 C   0  0  0  0  0  0  0  0  0  0  0  0
   20.3534  -22.0222  -12.1744 C   0  0  2  0  0  0  0  0  0  0  0  0
   21.4709  -21.5347  -13.0055 N   0  0  0  0  0  0  0  0  0  0  0  0
   19.0702  -21.5871  -12.7687 C   0  0  0  0  0  0  0  0  0  0  0  0
   18.8165  -20.4744  -13.2391 O   0  0  0  0  0  0  0  0  0  0  0  0
   18.0192  -22.5240  -12.8109 O   0  0  0  0  0  0  0  0  0  0  0  0
  2  3  2  0
  2  1  1  0
  4  2  1  0
  5  4  1  0
  5  6  1  6
  7  5  1  0
  8  7  2  0
 10  9  1  6
 10 11  1  0
 10 12  1  0
 12 13  1  6
 13  7  1  0
 14 15  2  0
 14 12  1  0
 17 16  1  0
 17 18  2  0
 19 17  1  0
 20 19  1  0
 21 20  1  0
 23 22  1  1
 22 21  1  0
 23 24  1  0
 24 14  1  0
 25 23  1  0
 26 25  2  0
 27 25  1  0
M  END
$$$$
