NVR.pdb
     RDKit          3D

 27 26  0  0  1  0  0  0  0  0999 V2000
   29.7489  -23.5889  -17.9973 N   0  0  0  0  0  0  0  0  0  0  0  0
   29.5656  -23.0672  -16.7022 C   0  0  0  0  0  0  0  0  0  0  0  0
   30.1265  -23.6574  -15.7434 O   0  0  0  0  0  0  0  0  0  0  0  0
   28.7509  -21.8657  -16.4069 C   0  0  0  0  0  0  0  0  0  0  0  0
   28.0132  -21.4010  -17.6435 C   0  0  2  0  0  0  0  0  0  0  0  0
   28.9972  -20.8871  -18.5507 N   0  0  0  0  0  0  0  0  0  0  0  0
   26.8992  -20.5051  -17.3512 C   0  0  0  0  0  0  0  0  0  0  0  0
   27.0246  -19.2838  -17.6378 O   0  0  0  0  0  0  0  0  0  0  0  0
   23.6379  -20.4206  -18.8666 C   0  0  0  0  0  0  0  0  0  0  0  0
   24.1581  -19.3268  -17.9362 C   0  0  2  0  0  0  0  0  0  0  0  0
   25.2208  -18.5224  -18.6078 C   0  0  0  0  0  0  0  0  0  0  0  0
   24.5874  -19.9181  -16.6105 C   0  0  2  0  0  0  0  0  0  0  0  0
   25.6591  -20.8806  -16.7622 N   0  0  0  0  0  0  0  0  0  0  0  0
   23.3827  -20.5365  -16.0007 C   0  0  0  0  0  0  0  0  0  0  0  0
   23.1285  -21.7502  -16.2993 O   0  0  0  0  0  0  0  0  0  0  0  0
   18.0481  -22.5110  -11.2585 N   0  0  0  0  0  0  0  0  0  0  0  0
   19.0674  -22.6444  -10.2514 C   0  0  0  0  0  0  0  0  0  0  0  0
   19.0932  -23.6768   -9.4940 N   0  0  0  0  0  0  0  0  0  0  0  0
   20.0564  -21.6429  -10.0724 N   0  0  0  0  0  0  0  0  0  0  0  0
   20.1838  -20.4628  -10.8476 C   0  0  0  0  0  0  0  0  0  0  0  0
   20.2080  -20.7399  -12.3158 C   0  0  0  0  0  0  0  0  0  0  0  0
   21.3945  -20.1261  -13.0101 C   0  0  0  0  0  0  0  0  0  0  0  0
   21.3942  -20.4441  -14.4607 C   0  0  2  0  0  0  0  0  0  0  0  0
   22.5537  -19.8285  -15.1345 N   0  0  0  0  0  0  0  0  0  0  0  0
   20.1558  -20.0918  -15.1898 C   0  0  0  0  0  0  0  0  0  0  0  0
   19.9575  -19.0700  -15.8532 O   0  0  0  0  0  0  0  0  0  0  0  0
   19.0829  -21.0028  -15.1326 O   0  0  0  0  0  0  0  0  0  0  0  0
  2  3  2  0
  2  1  1  0
  4  2  1  0
  5  4  1  0
  5  6  1  6
  7  5  1  0
  8  7  2  0
 10  9  1  6
 10 11  1  0
 10 12  1  0
 12 13  1  6
 13  7  1  0
 14 15  2  0
 14 12  1  0
 17 16  1  0
 17 18  2  0
 19 17  1  0
 20 19  1  0
 21 20  1  0
 23 22  1  1
 22 21  1  0
 23 24  1  0
 24 14  1  0
 25 23  1  0
 26 25  2  0
 27 25  1  0
M  END
$$$$
