NVR.pdb
     RDKit          3D

 27 26  0  0  1  0  0  0  0  0999 V2000
   23.8984  -23.1497  -18.8148 N   0  0  0  0  0  0  0  0  0  0  0  0
   23.2134  -24.1454  -18.0918 C   0  0  0  0  0  0  0  0  0  0  0  0
   22.8941  -25.2004  -18.6979 O   0  0  0  0  0  0  0  0  0  0  0  0
   22.8488  -24.0196  -16.6616 C   0  0  0  0  0  0  0  0  0  0  0  0
   23.3792  -22.7253  -16.0849 C   0  0  2  0  0  0  0  0  0  0  0  0
   24.8097  -22.8214  -16.0842 N   0  0  0  0  0  0  0  0  0  0  0  0
   22.7728  -22.3690  -14.8064 C   0  0  0  0  0  0  0  0  0  0  0  0
   23.4463  -22.5484  -13.7559 O   0  0  0  0  0  0  0  0  0  0  0  0
   19.1496  -19.8911  -13.9692 C   0  0  0  0  0  0  0  0  0  0  0  0
   20.5159  -19.9924  -13.2941 C   0  0  2  0  0  0  0  0  0  0  0  0
   21.4748  -19.0175  -13.8922 C   0  0  0  0  0  0  0  0  0  0  0  0
   21.0108  -21.4227  -13.3106 C   0  0  2  0  0  0  0  0  0  0  0  0
   21.4692  -21.8280  -14.6235 N   0  0  0  0  0  0  0  0  0  0  0  0
   19.8903  -22.2752  -12.8382 C   0  0  0  0  0  0  0  0  0  0  0  0
   18.9853  -22.5803  -13.6836 O   0  0  0  0  0  0  0  0  0  0  0  0
   17.6346  -25.4074   -5.1029 N   0  0  0  0  0  0  0  0  0  0  0  0
   16.6883  -25.9420   -6.0462 C   0  0  0  0  0  0  0  0  0  0  0  0
   15.4581  -26.0784   -5.7173 N   0  0  0  0  0  0  0  0  0  0  0  0
   17.0926  -26.3310   -7.3494 N   0  0  0  0  0  0  0  0  0  0  0  0
   18.2296  -25.8411   -8.0400 C   0  0  0  0  0  0  0  0  0  0  0  0
   17.8664  -25.0047   -9.2238 C   0  0  0  0  0  0  0  0  0  0  0  0
   19.0151  -24.1742   -9.7312 C   0  0  0  0  0  0  0  0  0  0  0  0
   18.6711  -23.5026  -11.0103 C   0  0  2  0  0  0  0  0  0  0  0  0
   19.8185  -22.7303  -11.5242 N   0  0  0  0  0  0  0  0  0  0  0  0
   17.4712  -22.6376  -10.9730 C   0  0  0  0  0  0  0  0  0  0  0  0
   17.3993  -21.4984  -10.5032 O   0  0  0  0  0  0  0  0  0  0  0  0
   16.2803  -23.1489  -11.5250 O   0  0  0  0  0  0  0  0  0  0  0  0
  2  3  2  0
  2  1  1  0
  4  2  1  0
  5  4  1  0
  5  6  1  1
  7  5  1  0
  8  7  2  0
 10  9  1  6
 10 11  1  0
 10 12  1  0
 12 13  1  6
 13  7  1  0
 14 15  2  0
 14 12  1  0
 17 16  1  0
 17 18  2  0
 19 17  1  0
 20 19  1  0
 21 20  1  0
 23 22  1  1
 22 21  1  0
 23 24  1  0
 24 14  1  0
 25 23  1  0
 26 25  2  0
 27 25  1  0
M  END
$$$$
