NVR.pdb
     RDKit          3D

 27 26  0  0  1  0  0  0  0  0999 V2000
   16.8568  -13.9026  -17.4954 N   0  0  0  0  0  0  0  0  0  0  0  0
   15.8977  -13.2328  -16.7113 C   0  0  0  0  0  0  0  0  0  0  0  0
   14.7173  -13.6673  -16.7244 O   0  0  0  0  0  0  0  0  0  0  0  0
   16.2006  -12.0484  -15.8749 C   0  0  0  0  0  0  0  0  0  0  0  0
   17.5944  -12.1445  -15.2940 C   0  0  2  0  0  0  0  0  0  0  0  0
   17.6400  -13.3433  -14.5090 N   0  0  0  0  0  0  0  0  0  0  0  0
   18.0222  -10.9287  -14.6098 C   0  0  0  0  0  0  0  0  0  0  0  0
   17.5681  -10.7023  -13.4557 O   0  0  0  0  0  0  0  0  0  0  0  0
   21.2241   -8.2883  -15.8567 C   0  0  0  0  0  0  0  0  0  0  0  0
   20.8092   -8.5517  -14.4106 C   0  0  2  0  0  0  0  0  0  0  0  0
   21.6457   -9.6312  -13.8086 C   0  0  0  0  0  0  0  0  0  0  0  0
   19.3210   -8.8146  -14.3253 C   0  0  2  0  0  0  0  0  0  0  0  0
   18.9196   -9.9525  -15.1267 N   0  0  0  0  0  0  0  0  0  0  0  0
   18.6350   -7.5720  -14.7625 C   0  0  0  0  0  0  0  0  0  0  0  0
   18.2521   -7.5067  -15.9774 O   0  0  0  0  0  0  0  0  0  0  0  0
   14.0255   -5.5168   -8.7481 N   0  0  0  0  0  0  0  0  0  0  0  0
   15.2781   -6.1395   -9.0862 C   0  0  0  0  0  0  0  0  0  0  0  0
   15.7392   -7.0920   -8.3649 N   0  0  0  0  0  0  0  0  0  0  0  0
   16.0272   -5.7142  -10.2136 N   0  0  0  0  0  0  0  0  0  0  0  0
   15.5953   -4.7741  -11.1829 C   0  0  0  0  0  0  0  0  0  0  0  0
   16.6496   -4.4694  -12.1972 C   0  0  0  0  0  0  0  0  0  0  0  0
   16.4164   -5.1622  -13.5134 C   0  0  0  0  0  0  0  0  0  0  0  0
   17.6787   -5.2936  -14.2845 C   0  0  2  0  0  0  0  0  0  0  0  0
   18.4127   -6.5108  -13.8887 N   0  0  0  0  0  0  0  0  0  0  0  0
   18.5874   -4.1275  -14.2224 C   0  0  0  0  0  0  0  0  0  0  0  0
   19.7143   -4.0984  -13.7195 O   0  0  0  0  0  0  0  0  0  0  0  0
   18.1383   -2.9188  -14.7895 O   0  0  0  0  0  0  0  0  0  0  0  0
  2  3  2  0
  2  1  1  0
  4  2  1  0
  5  4  1  0
  5  6  1  1
  7  5  1  0
  8  7  2  0
 10  9  1  6
 10 11  1  0
 10 12  1  0
 12 13  1  6
 13  7  1  0
 14 15  2  0
 14 12  1  0
 17 16  1  0
 17 18  2  0
 19 17  1  0
 20 19  1  0
 21 20  1  0
 23 22  1  1
 22 21  1  0
 23 24  1  0
 24 14  1  0
 25 23  1  0
 26 25  2  0
 27 25  1  0
M  END
$$$$
