NVR.pdb
     RDKit          3D

 27 26  0  0  1  0  0  0  0  0999 V2000
   21.8489  -33.7704   -5.1829 N   0  0  0  0  0  0  0  0  0  0  0  0
   21.7180  -32.5531   -4.4868 C   0  0  0  0  0  0  0  0  0  0  0  0
   22.6995  -32.1519   -3.8101 O   0  0  0  0  0  0  0  0  0  0  0  0
   20.4922  -31.7216   -4.5069 C   0  0  0  0  0  0  0  0  0  0  0  0
   20.0361  -31.4049   -3.0994 C   0  0  2  0  0  0  0  0  0  0  0  0
   19.5107  -32.6185   -2.5455 N   0  0  0  0  0  0  0  0  0  0  0  0
   19.1532  -30.2457   -3.0234 C   0  0  0  0  0  0  0  0  0  0  0  0
   17.9839  -30.3550   -3.4818 O   0  0  0  0  0  0  0  0  0  0  0  0
   20.0575  -26.3514   -1.2272 C   0  0  0  0  0  0  0  0  0  0  0  0
   18.6848  -27.0210   -1.2172 C   0  0  2  0  0  0  0  0  0  0  0  0
   18.4515  -27.7298    0.0754 C   0  0  0  0  0  0  0  0  0  0  0  0
   18.5162  -27.9034   -2.4353 C   0  0  2  0  0  0  0  0  0  0  0  0
   19.4879  -28.9770   -2.4720 N   0  0  0  0  0  0  0  0  0  0  0  0
   18.6309  -27.0247   -3.6271 C   0  0  0  0  0  0  0  0  0  0  0  0
   19.6920  -27.1191   -4.3286 O   0  0  0  0  0  0  0  0  0  0  0  0
   20.3343  -25.9346  -11.6028 N   0  0  0  0  0  0  0  0  0  0  0  0
   19.1112  -26.3825  -10.9907 C   0  0  0  0  0  0  0  0  0  0  0  0
   18.0719  -26.5944  -11.7084 N   0  0  0  0  0  0  0  0  0  0  0  0
   19.0272  -26.5939   -9.5902 N   0  0  0  0  0  0  0  0  0  0  0  0
   17.8325  -26.8208   -8.8614 C   0  0  0  0  0  0  0  0  0  0  0  0
   17.6476  -25.8462   -7.7439 C   0  0  0  0  0  0  0  0  0  0  0  0
   17.7032  -26.4925   -6.3853 C   0  0  0  0  0  0  0  0  0  0  0  0
   17.5545  -25.4864   -5.3032 C   0  0  2  0  0  0  0  0  0  0  0  0
   17.6252  -26.1270   -3.9758 N   0  0  0  0  0  0  0  0  0  0  0  0
   16.3412  -24.6430   -5.3798 C   0  0  0  0  0  0  0  0  0  0  0  0
   15.2672  -24.8444   -4.8058 O   0  0  0  0  0  0  0  0  0  0  0  0
   16.3984  -23.4884   -6.1849 O   0  0  0  0  0  0  0  0  0  0  0  0
  2  3  2  0
  2  1  1  0
  4  2  1  0
  5  4  1  0
  5  6  1  6
  7  5  1  0
  8  7  2  0
 10  9  1  1
 10 11  1  0
 10 12  1  0
 12 13  1  6
 13  7  1  0
 14 15  2  0
 14 12  1  0
 17 16  1  0
 17 18  2  0
 19 17  1  0
 20 19  1  0
 21 20  1  0
 23 22  1  6
 22 21  1  0
 23 24  1  0
 24 14  1  0
 25 23  1  0
 26 25  2  0
 27 25  1  0
M  END
$$$$
