NVR.pdb
     RDKit          3D

 27 26  0  0  1  0  0  0  0  0999 V2000
   23.4440  -15.0135  -17.8672 N   0  0  0  0  0  0  0  0  0  0  0  0
   22.6060  -15.5734  -16.8835 C   0  0  0  0  0  0  0  0  0  0  0  0
   21.6366  -14.8849  -16.4728 O   0  0  0  0  0  0  0  0  0  0  0  0
   22.8021  -16.9238  -16.3071 C   0  0  0  0  0  0  0  0  0  0  0  0
   24.0831  -17.5447  -16.8198 C   0  0  2  0  0  0  0  0  0  0  0  0
   23.8622  -17.8881  -18.1942 N   0  0  0  0  0  0  0  0  0  0  0  0
   24.5825  -18.6244  -15.9748 C   0  0  0  0  0  0  0  0  0  0  0  0
   23.9968  -19.7397  -16.0234 O   0  0  0  0  0  0  0  0  0  0  0  0
   28.4332  -19.6493  -14.9255 C   0  0  0  0  0  0  0  0  0  0  0  0
   27.4681  -19.5832  -13.7435 C   0  0  2  0  0  0  0  0  0  0  0  0
   27.8124  -20.6147  -12.7213 C   0  0  0  0  0  0  0  0  0  0  0  0
   26.0348  -19.6563  -14.2245 C   0  0  2  0  0  0  0  0  0  0  0  0
   25.6880  -18.5418  -15.0822 N   0  0  0  0  0  0  0  0  0  0  0  0
   25.1731  -19.7015  -13.0157 C   0  0  0  0  0  0  0  0  0  0  0  0
   25.0639  -18.6317  -12.3299 O   0  0  0  0  0  0  0  0  0  0  0  0
   20.5043  -23.8609   -8.1158 N   0  0  0  0  0  0  0  0  0  0  0  0
   19.4110  -22.9708   -8.4052 C   0  0  0  0  0  0  0  0  0  0  0  0
   18.4993  -22.7647   -7.5298 N   0  0  0  0  0  0  0  0  0  0  0  0
   19.3157  -22.3099   -9.6571 N   0  0  0  0  0  0  0  0  0  0  0  0
   20.2336  -22.4402  -10.7296 C   0  0  0  0  0  0  0  0  0  0  0  0
   21.4853  -21.6531  -10.5132 C   0  0  0  0  0  0  0  0  0  0  0  0
   22.4347  -21.7268  -11.6794 C   0  0  0  0  0  0  0  0  0  0  0  0
   23.6656  -20.9365  -11.4231 C   0  0  2  0  0  0  0  0  0  0  0  0
   24.5048  -20.8620  -12.6345 N   0  0  0  0  0  0  0  0  0  0  0  0
   24.4883  -21.3914  -10.2805 C   0  0  0  0  0  0  0  0  0  0  0  0
   25.3315  -22.2928  -10.2930 O   0  0  0  0  0  0  0  0  0  0  0  0
   24.3047  -20.7416   -9.0442 O   0  0  0  0  0  0  0  0  0  0  0  0
  2  3  2  0
  2  1  1  0
  4  2  1  0
  5  4  1  0
  5  6  1  6
  7  5  1  0
  8  7  2  0
 10  9  1  6
 10 11  1  0
 10 12  1  0
 12 13  1  1
 13  7  1  0
 14 15  2  0
 14 12  1  0
 17 16  1  0
 17 18  2  0
 19 17  1  0
 20 19  1  0
 21 20  1  0
 23 22  1  6
 22 21  1  0
 23 24  1  0
 24 14  1  0
 25 23  1  0
 26 25  2  0
 27 25  1  0
M  END
$$$$
