NVR.pdb
     RDKit          3D

 27 26  0  0  1  0  0  0  0  0999 V2000
   15.7579  -25.9276  -13.9917 N   0  0  0  0  0  0  0  0  0  0  0  0
   15.9839  -26.6267  -12.7902 C   0  0  0  0  0  0  0  0  0  0  0  0
   15.1234  -26.5260  -11.8782 O   0  0  0  0  0  0  0  0  0  0  0  0
   17.1752  -27.4712  -12.5413 C   0  0  0  0  0  0  0  0  0  0  0  0
   18.4003  -26.6145  -12.3078 C   0  0  2  0  0  0  0  0  0  0  0  0
   19.4826  -27.2267  -13.0215 N   0  0  0  0  0  0  0  0  0  0  0  0
   18.6541  -26.3382  -10.8977 C   0  0  0  0  0  0  0  0  0  0  0  0
   19.4106  -27.1218  -10.2629 O   0  0  0  0  0  0  0  0  0  0  0  0
   17.6568  -22.6454   -8.8710 C   0  0  0  0  0  0  0  0  0  0  0  0
   18.9072  -23.4880   -8.6272 C   0  0  2  0  0  0  0  0  0  0  0  0
   20.0453  -22.9987   -9.4595 C   0  0  0  0  0  0  0  0  0  0  0  0
   18.6013  -24.9582   -8.8167 C   0  0  2  0  0  0  0  0  0  0  0  0
   18.1211  -25.2494  -10.1520 N   0  0  0  0  0  0  0  0  0  0  0  0
   17.5995  -25.3297   -7.7851 C   0  0  0  0  0  0  0  0  0  0  0  0
   16.3715  -25.3303   -8.1299 O   0  0  0  0  0  0  0  0  0  0  0  0
   19.0723  -28.4744    0.2477 N   0  0  0  0  0  0  0  0  0  0  0  0
   19.5064  -27.5265   -0.7443 C   0  0  0  0  0  0  0  0  0  0  0  0
   20.6736  -27.0046   -0.6692 N   0  0  0  0  0  0  0  0  0  0  0  0
   18.6582  -27.1477   -1.8168 N   0  0  0  0  0  0  0  0  0  0  0  0
   17.2934  -27.5059   -1.9539 C   0  0  0  0  0  0  0  0  0  0  0  0
   16.6612  -26.9058   -3.1677 C   0  0  0  0  0  0  0  0  0  0  0  0
   17.6588  -26.5679   -4.2436 C   0  0  0  0  0  0  0  0  0  0  0  0
   16.9922  -25.9695   -5.4280 C   0  0  2  0  0  0  0  0  0  0  0  0
   17.9740  -25.6660   -6.4869 N   0  0  0  0  0  0  0  0  0  0  0  0
   16.1711  -24.7686   -5.1579 C   0  0  0  0  0  0  0  0  0  0  0  0
   16.5634  -23.5985   -5.1344 O   0  0  0  0  0  0  0  0  0  0  0  0
   14.7997  -24.9601   -4.8989 O   0  0  0  0  0  0  0  0  0  0  0  0
  2  3  2  0
  2  1  1  0
  4  2  1  0
  5  4  1  0
  5  6  1  1
  7  5  1  0
  8  7  2  0
 10  9  1  6
 10 11  1  0
 10 12  1  0
 12 13  1  6
 13  7  1  0
 14 15  2  0
 14 12  1  0
 17 16  1  0
 17 18  2  0
 19 17  1  0
 20 19  1  0
 21 20  1  0
 23 22  1  1
 22 21  1  0
 23 24  1  0
 24 14  1  0
 25 23  1  0
 26 25  2  0
 27 25  1  0
M  END
$$$$
