PWW.pdb
     RDKit          3D

 36 40  0  0  1  0  0  0  0  0999 V2000
    7.7058  -14.7078   19.4158 N   0  0  0  0  0  0  0  0  0  0  0  0
    7.3865  -13.6407   18.4993 C   0  0  0  0  0  0  0  0  0  0  0  0
    8.3798  -12.5648   18.8698 C   0  0  0  0  0  0  0  0  0  0  0  0
    9.5629  -13.3408   19.3737 C   0  0  0  0  0  0  0  0  0  0  0  0
    9.1364  -14.7968   19.3578 C   0  0  1  0  0  0  0  0  0  0  0  0
    9.7174  -15.4649   20.5478 C   0  0  0  0  0  0  0  0  0  0  0  0
   10.6055  -16.3427   20.4842 O   0  0  0  0  0  0  0  0  0  0  0  0
    9.2435  -15.0901   21.8213 N   0  0  0  0  0  0  0  0  0  0  0  0
    9.6488  -15.8157   23.0733 C   0  0  1  0  0  0  0  0  0  0  0  0
   10.7742  -15.1245   23.6901 C   0  0  0  0  0  0  0  0  0  0  0  0
   11.2021  -15.4410   25.0543 C   0  0  0  0  0  0  0  0  0  0  0  0
   12.0376  -16.4828   25.4492 C   0  0  0  0  0  0  0  0  0  0  0  0
   12.2110  -16.5029   26.7642 N   0  0  0  0  0  0  0  0  0  0  0  0
   11.4973  -15.4811   27.2645 C   0  0  0  0  0  0  0  0  0  0  0  0
   11.3959  -15.0933   28.5793 C   0  0  0  0  0  0  0  0  0  0  0  0
   10.6311  -13.9809   28.9066 C   0  0  0  0  0  0  0  0  0  0  0  0
   10.0036  -13.3132   27.8821 C   0  0  0  0  0  0  0  0  0  0  0  0
   10.1101  -13.7114   26.5621 C   0  0  0  0  0  0  0  0  0  0  0  0
   10.8643  -14.8092   26.2328 C   0  0  0  0  0  0  0  0  0  0  0  0
    8.4072  -16.0975   23.7680 C   0  0  0  0  0  0  0  0  0  0  0  0
    7.6297  -15.0967   24.0716 O   0  0  0  0  0  0  0  0  0  0  0  0
    7.9479  -17.3955   24.1423 N   0  0  0  0  0  0  0  0  0  0  0  0
    8.4414  -17.9732   25.3675 C   0  0  1  0  0  0  0  0  0  0  0  0
    7.8998  -17.1441   26.5492 C   0  0  0  0  0  0  0  0  0  0  0  0
    6.9054  -16.1388   26.1929 C   0  0  0  0  0  0  0  0  0  0  0  0
    5.6028  -16.4467   25.7739 C   0  0  0  0  0  0  0  0  0  0  0  0
    4.9410  -15.3084   25.5005 N   0  0  0  0  0  0  0  0  0  0  0  0
    5.7520  -14.2411   25.7215 C   0  0  0  0  0  0  0  0  0  0  0  0
    5.5012  -12.8976   25.5884 C   0  0  0  0  0  0  0  0  0  0  0  0
    6.5081  -11.9954   25.8991 C   0  0  0  0  0  0  0  0  0  0  0  0
    7.7171  -12.5095   26.3291 C   0  0  0  0  0  0  0  0  0  0  0  0
    7.9440  -13.8519   26.4521 C   0  0  0  0  0  0  0  0  0  0  0  0
    6.9565  -14.7681   26.1475 C   0  0  0  0  0  0  0  0  0  0  0  0
    8.2700  -19.4103   25.5363 C   0  0  0  0  0  0  0  0  0  0  0  0
    7.6085  -20.2538   24.6566 O   0  0  0  0  0  0  0  0  0  0  0  0
    8.7450  -20.0230   26.5674 O   0  0  0  0  0  0  0  0  0  0  0  0
  1  2  1  0
  3  2  1  0
  4  5  1  0
  4  3  1  0
  5  1  1  0
  6  8  1  0
  5  6  1  1
  7  6  2  0
  9 20  1  0
  9  8  1  0
  9 10  1  1
 11 10  1  0
 11 19  1  0
 12 13  1  0
 12 11  2  0
 13 14  1  0
 14 15  2  0
 14 19  1  0
 15 16  1  0
 16 17  2  0
 18 17  1  0
 19 18  2  0
 20 22  1  0
 21 20  2  0
 22 23  1  0
 23 24  1  1
 24 25  1  0
 25 33  1  0
 25 26  2  0
 26 27  1  0
 28 27  1  0
 28 29  2  0
 30 29  1  0
 31 30  2  0
 32 33  2  0
 32 31  1  0
 33 28  1  0
 34 23  1  0
 34 35  1  0
 36 34  2  0
M  END
$$$$
