PWW.pdb
     RDKit          3D

 36 40  0  0  1  0  0  0  0  0999 V2000
    9.4515  -18.3578   20.1443 N   0  0  0  0  0  0  0  0  0  0  0  0
    9.6551  -18.7170   18.7623 C   0  0  0  0  0  0  0  0  0  0  0  0
   10.0120  -17.3989   18.1167 C   0  0  0  0  0  0  0  0  0  0  0  0
   10.6829  -16.6382   19.2245 C   0  0  0  0  0  0  0  0  0  0  0  0
   10.5755  -17.5217   20.4533 C   0  0  1  0  0  0  0  0  0  0  0  0
   10.3364  -16.6528   21.6314 C   0  0  0  0  0  0  0  0  0  0  0  0
   11.1475  -15.7890   22.0306 O   0  0  0  0  0  0  0  0  0  0  0  0
    9.1283  -16.8082   22.3409 N   0  0  0  0  0  0  0  0  0  0  0  0
    8.7909  -15.9716   23.5428 C   0  0  1  0  0  0  0  0  0  0  0  0
    7.9754  -14.8366   23.1286 C   0  0  0  0  0  0  0  0  0  0  0  0
    7.4872  -14.7165   21.7532 C   0  0  0  0  0  0  0  0  0  0  0  0
    6.4646  -15.4529   21.1605 C   0  0  0  0  0  0  0  0  0  0  0  0
    6.2835  -15.1105   19.8918 N   0  0  0  0  0  0  0  0  0  0  0  0
    7.1778  -14.1462   19.6195 C   0  0  0  0  0  0  0  0  0  0  0  0
    7.3449  -13.4671   18.4361 C   0  0  0  0  0  0  0  0  0  0  0  0
    8.3078  -12.4697   18.3508 C   0  0  0  0  0  0  0  0  0  0  0  0
    9.0576  -12.2079   19.4725 C   0  0  0  0  0  0  0  0  0  0  0  0
    8.8836  -12.8973   20.6586 C   0  0  0  0  0  0  0  0  0  0  0  0
    7.9340  -13.8834   20.7490 C   0  0  0  0  0  0  0  0  0  0  0  0
    8.3818  -16.9187   24.5622 C   0  0  0  0  0  0  0  0  0  0  0  0
    7.1064  -17.0942   24.7644 O   0  0  0  0  0  0  0  0  0  0  0  0
    9.2661  -17.6977   25.3666 N   0  0  0  0  0  0  0  0  0  0  0  0
   10.1855  -17.0122   26.2402 C   0  0  1  0  0  0  0  0  0  0  0  0
    9.9094  -15.4983   26.1457 C   0  0  0  0  0  0  0  0  0  0  0  0
    8.5221  -15.1090   26.3695 C   0  0  0  0  0  0  0  0  0  0  0  0
    7.4684  -16.0250   26.5024 C   0  0  0  0  0  0  0  0  0  0  0  0
    6.3148  -15.3562   26.6773 N   0  0  0  0  0  0  0  0  0  0  0  0
    6.5533  -14.0188   26.6679 C   0  0  0  0  0  0  0  0  0  0  0  0
    5.6863  -12.9651   26.8215 C   0  0  0  0  0  0  0  0  0  0  0  0
    6.1913  -11.6735   26.7898 C   0  0  0  0  0  0  0  0  0  0  0  0
    7.5528  -11.5236   26.6034 C   0  0  0  0  0  0  0  0  0  0  0  0
    8.3963  -12.5884   26.4510 C   0  0  0  0  0  0  0  0  0  0  0  0
    7.9154  -13.8827   26.4782 C   0  0  0  0  0  0  0  0  0  0  0  0
   10.2864  -17.5023   27.6087 C   0  0  0  0  0  0  0  0  0  0  0  0
    9.5458  -18.5415   28.1513 O   0  0  0  0  0  0  0  0  0  0  0  0
   11.1119  -16.9745   28.4479 O   0  0  0  0  0  0  0  0  0  0  0  0
  1  2  1  0
  3  2  1  0
  4  5  1  0
  4  3  1  0
  5  1  1  0
  6  8  1  0
  5  6  1  1
  7  6  2  0
  9 20  1  0
  9  8  1  0
  9 10  1  6
 11 10  1  0
 11 19  1  0
 12 13  1  0
 12 11  2  0
 13 14  1  0
 14 15  2  0
 14 19  1  0
 15 16  1  0
 16 17  2  0
 18 17  1  0
 19 18  2  0
 20 22  1  0
 21 20  2  0
 22 23  1  0
 23 24  1  1
 24 25  1  0
 25 33  1  0
 25 26  2  0
 26 27  1  0
 28 27  1  0
 28 29  2  0
 30 29  1  0
 31 30  2  0
 32 33  2  0
 32 31  1  0
 33 28  1  0
 34 23  1  0
 34 35  1  0
 36 34  2  0
M  END
$$$$
