PWW.pdb
     RDKit          3D

 36 40  0  0  1  0  0  0  0  0999 V2000
    8.6684  -19.0406   21.2344 N   0  0  0  0  0  0  0  0  0  0  0  0
    8.0942  -19.7986   20.1499 C   0  0  0  0  0  0  0  0  0  0  0  0
    8.6437  -19.1089   18.9237 C   0  0  0  0  0  0  0  0  0  0  0  0
    9.9695  -18.5767   19.3874 C   0  0  0  0  0  0  0  0  0  0  0  0
   10.0483  -18.9027   20.8672 C   0  0  1  0  0  0  0  0  0  0  0  0
   10.7146  -17.7718   21.5579 C   0  0  0  0  0  0  0  0  0  0  0  0
   11.9257  -17.4933   21.4200 O   0  0  0  0  0  0  0  0  0  0  0  0
    9.9409  -16.9656   22.4172 N   0  0  0  0  0  0  0  0  0  0  0  0
   10.5123  -15.7694   23.1248 C   0  0  1  0  0  0  0  0  0  0  0  0
    9.9466  -14.5535   22.5534 C   0  0  0  0  0  0  0  0  0  0  0  0
    8.6856  -14.5818   21.8095 C   0  0  0  0  0  0  0  0  0  0  0  0
    7.5458  -15.3187   22.1214 C   0  0  0  0  0  0  0  0  0  0  0  0
    6.5812  -15.1338   21.2298 N   0  0  0  0  0  0  0  0  0  0  0  0
    7.0597  -14.2760   20.3138 C   0  0  0  0  0  0  0  0  0  0  0  0
    6.4056  -13.7704   19.2157 C   0  0  0  0  0  0  0  0  0  0  0  0
    7.0556  -12.8599   18.3924 C   0  0  0  0  0  0  0  0  0  0  0  0
    8.3416  -12.5048   18.7227 C   0  0  0  0  0  0  0  0  0  0  0  0
    8.9926  -13.0197   19.8287 C   0  0  0  0  0  0  0  0  0  0  0  0
    8.3556  -13.9192   20.6457 C   0  0  0  0  0  0  0  0  0  0  0  0
   10.4441  -16.0947   24.5366 C   0  0  0  0  0  0  0  0  0  0  0  0
   11.2194  -15.4439   25.3573 O   0  0  0  0  0  0  0  0  0  0  0  0
    9.5797  -17.0702   25.1172 N   0  0  0  0  0  0  0  0  0  0  0  0
    9.6955  -17.3390   26.5289 C   0  0  1  0  0  0  0  0  0  0  0  0
    8.2961  -17.2154   27.1642 C   0  0  0  0  0  0  0  0  0  0  0  0
    7.5906  -15.9746   26.8659 C   0  0  0  0  0  0  0  0  0  0  0  0
    6.4342  -15.9075   26.0751 C   0  0  0  0  0  0  0  0  0  0  0  0
    6.0381  -14.6265   25.9711 N   0  0  0  0  0  0  0  0  0  0  0  0
    6.8874  -13.8253   26.6658 C   0  0  0  0  0  0  0  0  0  0  0  0
    6.8685  -12.4645   26.8484 C   0  0  0  0  0  0  0  0  0  0  0  0
    7.8555  -11.8808   27.6290 C   0  0  0  0  0  0  0  0  0  0  0  0
    8.8094  -12.7141   28.1825 C   0  0  0  0  0  0  0  0  0  0  0  0
    8.8087  -14.0668   27.9850 C   0  0  0  0  0  0  0  0  0  0  0  0
    7.8364  -14.6692   27.2109 C   0  0  0  0  0  0  0  0  0  0  0  0
   10.4060  -18.5512   26.9144 C   0  0  0  0  0  0  0  0  0  0  0  0
   10.8236  -18.8693   28.1979 O   0  0  0  0  0  0  0  0  0  0  0  0
   10.7096  -19.4530   26.0433 O   0  0  0  0  0  0  0  0  0  0  0  0
  1  2  1  0
  3  2  1  0
  4  5  1  0
  4  3  1  0
  5  1  1  0
  6  8  1  0
  5  6  1  1
  7  6  2  0
  9 20  1  0
  9  8  1  0
  9 10  1  1
 11 10  1  0
 11 19  1  0
 12 13  1  0
 12 11  2  0
 13 14  1  0
 14 15  2  0
 14 19  1  0
 15 16  1  0
 16 17  2  0
 18 17  1  0
 19 18  2  0
 20 22  1  0
 21 20  2  0
 22 23  1  0
 23 24  1  6
 24 25  1  0
 25 33  1  0
 25 26  2  0
 26 27  1  0
 28 27  1  0
 28 29  2  0
 30 29  1  0
 31 30  2  0
 32 33  2  0
 32 31  1  0
 33 28  1  0
 34 23  1  0
 34 35  1  0
 36 34  2  0
M  END
$$$$
