PWW.pdb
     RDKit          3D

 36 40  0  0  1  0  0  0  0  0999 V2000
    8.1011  -15.8125   17.9543 N   0  0  0  0  0  0  0  0  0  0  0  0
    7.6067  -15.4994   16.6360 C   0  0  0  0  0  0  0  0  0  0  0  0
    7.2396  -14.0385   16.7478 C   0  0  0  0  0  0  0  0  0  0  0  0
    8.2005  -13.5151   17.7767 C   0  0  0  0  0  0  0  0  0  0  0  0
    8.9816  -14.7223   18.2613 C   0  0  1  0  0  0  0  0  0  0  0  0
    9.2180  -14.5696   19.7175 C   0  0  0  0  0  0  0  0  0  0  0  0
    9.8586  -13.6200   20.2190 O   0  0  0  0  0  0  0  0  0  0  0  0
    8.6918  -15.5479   20.5853 N   0  0  0  0  0  0  0  0  0  0  0  0
    8.6605  -15.3640   22.0763 C   0  0  1  0  0  0  0  0  0  0  0  0
    7.3283  -15.6821   22.5750 C   0  0  0  0  0  0  0  0  0  0  0  0
    6.8865  -15.2313   23.8963 C   0  0  0  0  0  0  0  0  0  0  0  0
    6.3253  -16.0127   24.9033 C   0  0  0  0  0  0  0  0  0  0  0  0
    6.0169  -15.2904   25.9723 N   0  0  0  0  0  0  0  0  0  0  0  0
    6.3648  -14.0227   25.6967 C   0  0  0  0  0  0  0  0  0  0  0  0
    6.2575  -12.9260   26.5183 C   0  0  0  0  0  0  0  0  0  0  0  0
    6.7044  -11.6898   26.0696 C   0  0  0  0  0  0  0  0  0  0  0  0
    7.2400  -11.6245   24.8055 C   0  0  0  0  0  0  0  0  0  0  0  0
    7.3427  -12.7329   23.9852 C   0  0  0  0  0  0  0  0  0  0  0  0
    6.9032  -13.9567   24.4230 C   0  0  0  0  0  0  0  0  0  0  0  0
    9.8686  -16.0020   22.5633 C   0  0  0  0  0  0  0  0  0  0  0  0
   10.2192  -17.1414   22.0368 O   0  0  0  0  0  0  0  0  0  0  0  0
   10.7281  -15.4776   23.5743 N   0  0  0  0  0  0  0  0  0  0  0  0
   11.8383  -16.2825   24.0191 C   0  0  1  0  0  0  0  0  0  0  0  0
   12.2056  -15.8544   25.4541 C   0  0  0  0  0  0  0  0  0  0  0  0
   11.2640  -16.2770   26.4841 C   0  0  0  0  0  0  0  0  0  0  0  0
   10.6314  -17.5288   26.4941 C   0  0  0  0  0  0  0  0  0  0  0  0
    9.8110  -17.6058   27.5569 N   0  0  0  0  0  0  0  0  0  0  0  0
    9.8681  -16.4486   28.2662 C   0  0  0  0  0  0  0  0  0  0  0  0
    9.2174  -16.0856   29.4196 C   0  0  0  0  0  0  0  0  0  0  0  0
    9.4663  -14.8333   29.9620 C   0  0  0  0  0  0  0  0  0  0  0  0
   10.3651  -14.0172   29.3010 C   0  0  0  0  0  0  0  0  0  0  0  0
   10.9998  -14.4001   28.1524 C   0  0  0  0  0  0  0  0  0  0  0  0
   10.7665  -15.6416   27.5942 C   0  0  0  0  0  0  0  0  0  0  0  0
   11.7163  -17.7251   23.8541 C   0  0  0  0  0  0  0  0  0  0  0  0
   10.5346  -18.4480   23.9144 O   0  0  0  0  0  0  0  0  0  0  0  0
   12.7517  -18.4617   23.6312 O   0  0  0  0  0  0  0  0  0  0  0  0
  1  2  1  0
  3  2  1  0
  4  5  1  0
  4  3  1  0
  5  1  1  0
  6  8  1  0
  5  6  1  1
  7  6  2  0
  9 20  1  0
  9  8  1  0
  9 10  1  1
 11 10  1  0
 11 19  1  0
 12 13  1  0
 12 11  2  0
 13 14  1  0
 14 15  2  0
 14 19  1  0
 15 16  1  0
 16 17  2  0
 18 17  1  0
 19 18  2  0
 20 22  1  0
 21 20  2  0
 22 23  1  0
 23 24  1  1
 24 25  1  0
 25 33  1  0
 25 26  2  0
 26 27  1  0
 28 27  1  0
 28 29  2  0
 30 29  1  0
 31 30  2  0
 32 33  2  0
 32 31  1  0
 33 28  1  0
 34 23  1  0
 34 35  1  0
 36 34  2  0
M  END
$$$$
