PWW.pdb
     RDKit          3D

 36 40  0  0  1  0  0  0  0  0999 V2000
    8.4620  -19.0412   21.5323 N   0  0  0  0  0  0  0  0  0  0  0  0
    7.5526  -19.6744   20.6089 C   0  0  0  0  0  0  0  0  0  0  0  0
    7.6440  -18.7954   19.3839 C   0  0  0  0  0  0  0  0  0  0  0  0
    9.0463  -18.2606   19.4421 C   0  0  0  0  0  0  0  0  0  0  0  0
    9.6307  -18.7803   20.7423 C   0  0  1  0  0  0  0  0  0  0  0  0
   10.4896  -17.7197   21.3230 C   0  0  0  0  0  0  0  0  0  0  0  0
   11.5172  -17.2777   20.7642 O   0  0  0  0  0  0  0  0  0  0  0  0
   10.1286  -17.1790   22.5737 N   0  0  0  0  0  0  0  0  0  0  0  0
   10.8577  -16.0159   23.1851 C   0  0  1  0  0  0  0  0  0  0  0  0
   10.5445  -14.8030   22.4398 C   0  0  0  0  0  0  0  0  0  0  0  0
    9.1771  -14.5144   22.0027 C   0  0  0  0  0  0  0  0  0  0  0  0
    8.0018  -15.0564   22.5167 C   0  0  0  0  0  0  0  0  0  0  0  0
    6.9304  -14.5985   21.8826 N   0  0  0  0  0  0  0  0  0  0  0  0
    7.3716  -13.7491   20.9403 C   0  0  0  0  0  0  0  0  0  0  0  0
    6.6195  -13.0131   20.0560 C   0  0  0  0  0  0  0  0  0  0  0  0
    7.2549  -12.1543   19.1682 C   0  0  0  0  0  0  0  0  0  0  0  0
    8.6265  -12.0830   19.2195 C   0  0  0  0  0  0  0  0  0  0  0  0
    9.3753  -12.8284   20.1116 C   0  0  0  0  0  0  0  0  0  0  0  0
    8.7533  -13.6781   20.9911 C   0  0  0  0  0  0  0  0  0  0  0  0
   10.6543  -16.1492   24.6150 C   0  0  0  0  0  0  0  0  0  0  0  0
   11.1870  -15.2552   25.3994 O   0  0  0  0  0  0  0  0  0  0  0  0
    9.8992  -17.1813   25.2479 N   0  0  0  0  0  0  0  0  0  0  0  0
   10.0048  -17.3330   26.6776 C   0  0  1  0  0  0  0  0  0  0  0  0
    8.5904  -17.2340   27.2832 C   0  0  0  0  0  0  0  0  0  0  0  0
    7.6857  -16.3228   26.5920 C   0  0  0  0  0  0  0  0  0  0  0  0
    6.7084  -16.7415   25.6773 C   0  0  0  0  0  0  0  0  0  0  0  0
    6.0552  -15.6676   25.1992 N   0  0  0  0  0  0  0  0  0  0  0  0
    6.5574  -14.5369   25.7606 C   0  0  0  0  0  0  0  0  0  0  0  0
    6.1944  -13.2247   25.5821 C   0  0  0  0  0  0  0  0  0  0  0  0
    6.8625  -12.2427   26.2986 C   0  0  0  0  0  0  0  0  0  0  0  0
    7.8650  -12.6492   27.1592 C   0  0  0  0  0  0  0  0  0  0  0  0
    8.2100  -13.9622   27.3190 C   0  0  0  0  0  0  0  0  0  0  0  0
    7.5591  -14.9565   26.6153 C   0  0  0  0  0  0  0  0  0  0  0  0
   10.7699  -18.4727   27.1663 C   0  0  0  0  0  0  0  0  0  0  0  0
   11.1503  -18.6858   28.4826 O   0  0  0  0  0  0  0  0  0  0  0  0
   11.1645  -19.4046   26.3662 O   0  0  0  0  0  0  0  0  0  0  0  0
  1  2  1  0
  3  2  1  0
  4  5  1  0
  4  3  1  0
  5  1  1  0
  6  8  1  0
  5  6  1  1
  7  6  2  0
  9 20  1  0
  9  8  1  0
  9 10  1  6
 11 10  1  0
 11 19  1  0
 12 13  1  0
 12 11  2  0
 13 14  1  0
 14 15  2  0
 14 19  1  0
 15 16  1  0
 16 17  2  0
 18 17  1  0
 19 18  2  0
 20 22  1  0
 21 20  2  0
 22 23  1  0
 23 24  1  1
 24 25  1  0
 25 33  1  0
 25 26  2  0
 26 27  1  0
 28 27  1  0
 28 29  2  0
 30 29  1  0
 31 30  2  0
 32 33  2  0
 32 31  1  0
 33 28  1  0
 34 23  1  0
 34 35  1  0
 36 34  2  0
M  END
$$$$
