PWW.pdb
     RDKit          3D

 36 40  0  0  1  0  0  0  0  0999 V2000
    8.6911  -18.2994   18.2176 N   0  0  0  0  0  0  0  0  0  0  0  0
    8.2007  -18.4310   16.8675 C   0  0  0  0  0  0  0  0  0  0  0  0
    7.8307  -17.0135   16.4997 C   0  0  0  0  0  0  0  0  0  0  0  0
    8.7870  -16.1827   17.3066 C   0  0  0  0  0  0  0  0  0  0  0  0
    9.5685  -17.1660   18.1578 C   0  0  1  0  0  0  0  0  0  0  0  0
    9.7996  -16.5497   19.4869 C   0  0  0  0  0  0  0  0  0  0  0  0
   10.6435  -15.6510   19.6960 O   0  0  0  0  0  0  0  0  0  0  0  0
    9.0256  -17.0006   20.5753 N   0  0  0  0  0  0  0  0  0  0  0  0
    9.0193  -16.2949   21.9019 C   0  0  1  0  0  0  0  0  0  0  0  0
    7.6480  -15.9599   22.2651 C   0  0  0  0  0  0  0  0  0  0  0  0
    7.3454  -14.7734   23.0683 C   0  0  0  0  0  0  0  0  0  0  0  0
    7.4651  -13.4430   22.6746 C   0  0  0  0  0  0  0  0  0  0  0  0
    7.1283  -12.6092   23.6497 N   0  0  0  0  0  0  0  0  0  0  0  0
    6.7813  -13.3659   24.7037 C   0  0  0  0  0  0  0  0  0  0  0  0
    6.3350  -12.9394   25.9319 C   0  0  0  0  0  0  0  0  0  0  0  0
    5.9881  -13.8770   26.8961 C   0  0  0  0  0  0  0  0  0  0  0  0
    6.1108  -15.2061   26.5682 C   0  0  0  0  0  0  0  0  0  0  0  0
    6.5621  -15.6261   25.3304 C   0  0  0  0  0  0  0  0  0  0  0  0
    6.9061  -14.7047   24.3739 C   0  0  0  0  0  0  0  0  0  0  0  0
    9.9025  -17.0723   22.7500 C   0  0  0  0  0  0  0  0  0  0  0  0
   10.0299  -18.3457   22.5044 O   0  0  0  0  0  0  0  0  0  0  0  0
   10.6669  -16.5552   23.8383 N   0  0  0  0  0  0  0  0  0  0  0  0
   11.5136  -17.4597   24.5755 C   0  0  1  0  0  0  0  0  0  0  0  0
   12.1550  -16.6832   25.7429 C   0  0  0  0  0  0  0  0  0  0  0  0
   11.2678  -16.4195   26.8697 C   0  0  0  0  0  0  0  0  0  0  0  0
   10.7027  -17.4252   27.6674 C   0  0  0  0  0  0  0  0  0  0  0  0
    9.9191  -16.8638   28.6051 N   0  0  0  0  0  0  0  0  0  0  0  0
    9.9361  -15.5122   28.4688 C   0  0  0  0  0  0  0  0  0  0  0  0
    9.3015  -14.5414   29.2039 C   0  0  0  0  0  0  0  0  0  0  0  0
    9.4999  -13.2105   28.8668 C   0  0  0  0  0  0  0  0  0  0  0  0
   10.3344  -12.9388   27.7988 C   0  0  0  0  0  0  0  0  0  0  0  0
   10.9543  -13.9229   27.0804 C   0  0  0  0  0  0  0  0  0  0  0  0
   10.7705  -15.2544   27.3976 C   0  0  0  0  0  0  0  0  0  0  0  0
   10.9306  -18.7343   24.9733 C   0  0  0  0  0  0  0  0  0  0  0  0
   11.6401  -19.8750   25.3171 O   0  0  0  0  0  0  0  0  0  0  0  0
    9.6518  -18.8939   25.0337 O   0  0  0  0  0  0  0  0  0  0  0  0
  1  2  1  0
  3  2  1  0
  4  5  1  0
  4  3  1  0
  5  1  1  0
  6  8  1  0
  5  6  1  1
  7  6  2  0
  9 20  1  0
  9  8  1  0
  9 10  1  1
 11 10  1  0
 11 19  1  0
 12 13  1  0
 12 11  2  0
 13 14  1  0
 14 15  2  0
 14 19  1  0
 15 16  1  0
 16 17  2  0
 18 17  1  0
 19 18  2  0
 20 22  1  0
 21 20  2  0
 22 23  1  0
 23 24  1  1
 24 25  1  0
 25 33  1  0
 25 26  2  0
 26 27  1  0
 28 27  1  0
 28 29  2  0
 30 29  1  0
 31 30  2  0
 32 33  2  0
 32 31  1  0
 33 28  1  0
 34 23  1  0
 34 35  1  0
 36 34  2  0
M  END
$$$$
