PWW.pdb
     RDKit          3D

 36 40  0  0  1  0  0  0  0  0999 V2000
    8.8337  -15.1927   18.5009 N   0  0  0  0  0  0  0  0  0  0  0  0
    8.6883  -14.5154   17.2358 C   0  0  0  0  0  0  0  0  0  0  0  0
    7.3885  -13.7636   17.3992 C   0  0  0  0  0  0  0  0  0  0  0  0
    7.3301  -13.4840   18.8737 C   0  0  0  0  0  0  0  0  0  0  0  0
    8.5393  -14.1785   19.4719 C   0  0  1  0  0  0  0  0  0  0  0  0
    8.1490  -14.7412   20.7876 C   0  0  0  0  0  0  0  0  0  0  0  0
    7.7233  -14.0488   21.7378 O   0  0  0  0  0  0  0  0  0  0  0  0
    8.2635  -16.1331   20.9786 N   0  0  0  0  0  0  0  0  0  0  0  0
    7.9105  -16.7956   22.2803 C   0  0  1  0  0  0  0  0  0  0  0  0
    7.5702  -18.1918   22.0358 C   0  0  0  0  0  0  0  0  0  0  0  0
    7.1730  -19.0777   23.1319 C   0  0  0  0  0  0  0  0  0  0  0  0
    5.8802  -19.3087   23.5953 C   0  0  0  0  0  0  0  0  0  0  0  0
    5.8676  -20.1538   24.6176 N   0  0  0  0  0  0  0  0  0  0  0  0
    7.1447  -20.4977   24.8516 C   0  0  0  0  0  0  0  0  0  0  0  0
    7.6174  -21.3736   25.7996 C   0  0  0  0  0  0  0  0  0  0  0  0
    8.9801  -21.6328   25.8714 C   0  0  0  0  0  0  0  0  0  0  0  0
    9.8008  -20.9893   24.9762 C   0  0  0  0  0  0  0  0  0  0  0  0
    9.3166  -20.1083   24.0266 C   0  0  0  0  0  0  0  0  0  0  0  0
    7.9716  -19.8485   23.9507 C   0  0  0  0  0  0  0  0  0  0  0  0
    8.9402  -16.3762   23.2116 C   0  0  0  0  0  0  0  0  0  0  0  0
   10.0721  -15.9488   22.7277 O   0  0  0  0  0  0  0  0  0  0  0  0
    8.8166  -16.3775   24.6332 N   0  0  0  0  0  0  0  0  0  0  0  0
    9.9021  -15.8454   25.4187 C   0  0  1  0  0  0  0  0  0  0  0  0
    9.3082  -15.1378   26.6531 C   0  0  0  0  0  0  0  0  0  0  0  0
    8.0379  -14.4595   26.4237 C   0  0  0  0  0  0  0  0  0  0  0  0
    6.8071  -15.1248   26.3242 C   0  0  0  0  0  0  0  0  0  0  0  0
    5.8325  -14.2279   26.0915 N   0  0  0  0  0  0  0  0  0  0  0  0
    6.3627  -12.9785   26.0311 C   0  0  0  0  0  0  0  0  0  0  0  0
    5.7496  -11.7669   25.8274 C   0  0  0  0  0  0  0  0  0  0  0  0
    6.5250  -10.6166   25.8281 C   0  0  0  0  0  0  0  0  0  0  0  0
    7.8838  -10.7614   26.0366 C   0  0  0  0  0  0  0  0  0  0  0  0
    8.4721  -11.9792   26.2356 C   0  0  0  0  0  0  0  0  0  0  0  0
    7.7198  -13.1375   26.2379 C   0  0  0  0  0  0  0  0  0  0  0  0
   10.9947  -16.7551   25.7374 C   0  0  0  0  0  0  0  0  0  0  0  0
   11.0188  -18.1150   25.4670 O   0  0  0  0  0  0  0  0  0  0  0  0
   12.0647  -16.3345   26.3227 O   0  0  0  0  0  0  0  0  0  0  0  0
  1  2  1  0
  3  2  1  0
  4  5  1  0
  4  3  1  0
  5  1  1  0
  6  8  1  0
  5  6  1  1
  7  6  2  0
  9 20  1  0
  9  8  1  0
  9 10  1  6
 11 10  1  0
 11 19  1  0
 12 13  1  0
 12 11  2  0
 13 14  1  0
 14 15  2  0
 14 19  1  0
 15 16  1  0
 16 17  2  0
 18 17  1  0
 19 18  2  0
 20 22  1  0
 21 20  2  0
 22 23  1  0
 23 24  1  1
 24 25  1  0
 25 33  1  0
 25 26  2  0
 26 27  1  0
 28 27  1  0
 28 29  2  0
 30 29  1  0
 31 30  2  0
 32 33  2  0
 32 31  1  0
 33 28  1  0
 34 23  1  0
 34 35  1  0
 36 34  2  0
M  END
$$$$
