PWW.pdb
     RDKit          3D

 36 40  0  0  1  0  0  0  0  0999 V2000
    8.5624  -18.9001   18.5108 N   0  0  0  0  0  0  0  0  0  0  0  0
    8.4300  -19.0727   17.0849 C   0  0  0  0  0  0  0  0  0  0  0  0
    8.7090  -17.6893   16.5468 C   0  0  0  0  0  0  0  0  0  0  0  0
    9.6540  -17.1057   17.5578 C   0  0  0  0  0  0  0  0  0  0  0  0
    9.7736  -18.1453   18.6566 C   0  0  1  0  0  0  0  0  0  0  0  0
    9.8553  -17.4391   19.9583 C   0  0  0  0  0  0  0  0  0  0  0  0
   10.7971  -16.6806   20.2765 O   0  0  0  0  0  0  0  0  0  0  0  0
    8.8143  -17.6323   20.8888 N   0  0  0  0  0  0  0  0  0  0  0  0
    8.7275  -16.8501   22.1690 C   0  0  1  0  0  0  0  0  0  0  0  0
    7.4676  -16.1179   22.2039 C   0  0  0  0  0  0  0  0  0  0  0  0
    7.3898  -14.7710   22.7731 C   0  0  0  0  0  0  0  0  0  0  0  0
    7.7167  -13.5743   22.1402 C   0  0  0  0  0  0  0  0  0  0  0  0
    7.5519  -12.5318   22.9436 N   0  0  0  0  0  0  0  0  0  0  0  0
    7.1155  -13.0138   24.1189 C   0  0  0  0  0  0  0  0  0  0  0  0
    6.7826  -12.3012   25.2461 C   0  0  0  0  0  0  0  0  0  0  0  0
    6.3137  -12.9747   26.3667 C   0  0  0  0  0  0  0  0  0  0  0  0
    6.2046  -14.3427   26.2906 C   0  0  0  0  0  0  0  0  0  0  0  0
    6.5432  -15.0517   25.1527 C   0  0  0  0  0  0  0  0  0  0  0  0
    7.0068  -14.3919   24.0427 C   0  0  0  0  0  0  0  0  0  0  0  0
    9.1432  -17.7734   23.2073 C   0  0  0  0  0  0  0  0  0  0  0  0
    9.1759  -19.0451   22.9246 O   0  0  0  0  0  0  0  0  0  0  0  0
    9.5390  -17.4055   24.5279 N   0  0  0  0  0  0  0  0  0  0  0  0
   10.2874  -18.3560   25.3120 C   0  0  1  0  0  0  0  0  0  0  0  0
   11.1639  -17.5777   26.3136 C   0  0  0  0  0  0  0  0  0  0  0  0
   10.7691  -16.1909   26.5311 C   0  0  0  0  0  0  0  0  0  0  0  0
   10.3417  -15.3335   25.5067 C   0  0  0  0  0  0  0  0  0  0  0  0
   10.0710  -14.1215   26.0229 N   0  0  0  0  0  0  0  0  0  0  0  0
   10.3001  -14.1309   27.3620 C   0  0  0  0  0  0  0  0  0  0  0  0
   10.1494  -13.1317   28.2917 C   0  0  0  0  0  0  0  0  0  0  0  0
   10.4381  -13.4057   29.6206 C   0  0  0  0  0  0  0  0  0  0  0  0
   10.8650  -14.6831   29.9321 C   0  0  0  0  0  0  0  0  0  0  0  0
   11.0092  -15.6614   28.9883 C   0  0  0  0  0  0  0  0  0  0  0  0
   10.7284  -15.4107   27.6595 C   0  0  0  0  0  0  0  0  0  0  0  0
    9.5375  -19.4479   25.9189 C   0  0  0  0  0  0  0  0  0  0  0  0
   10.0878  -20.5506   26.5545 O   0  0  0  0  0  0  0  0  0  0  0  0
    8.2476  -19.4619   25.9031 O   0  0  0  0  0  0  0  0  0  0  0  0
  1  2  1  0
  3  2  1  0
  4  5  1  0
  4  3  1  0
  5  1  1  0
  6  8  1  0
  5  6  1  1
  7  6  2  0
  9 20  1  0
  9  8  1  0
  9 10  1  1
 11 10  1  0
 11 19  1  0
 12 13  1  0
 12 11  2  0
 13 14  1  0
 14 15  2  0
 14 19  1  0
 15 16  1  0
 16 17  2  0
 18 17  1  0
 19 18  2  0
 20 22  1  0
 21 20  2  0
 22 23  1  0
 23 24  1  1
 24 25  1  0
 25 33  1  0
 25 26  2  0
 26 27  1  0
 28 27  1  0
 28 29  2  0
 30 29  1  0
 31 30  2  0
 32 33  2  0
 32 31  1  0
 33 28  1  0
 34 23  1  0
 34 35  1  0
 36 34  2  0
M  END
$$$$
