PWW.pdb
     RDKit          3D

 36 40  0  0  1  0  0  0  0  0999 V2000
   11.3410  -19.1289   19.6686 N   0  0  0  0  0  0  0  0  0  0  0  0
   11.4761  -19.6518   18.3312 C   0  0  0  0  0  0  0  0  0  0  0  0
   10.8899  -18.5540   17.4752 C   0  0  0  0  0  0  0  0  0  0  0  0
   11.1744  -17.3076   18.2635 C   0  0  0  0  0  0  0  0  0  0  0  0
   11.8079  -17.7768   19.5599 C   0  0  1  0  0  0  0  0  0  0  0  0
   11.3153  -16.9106   20.6586 C   0  0  0  0  0  0  0  0  0  0  0  0
   11.6648  -15.7198   20.8111 O   0  0  0  0  0  0  0  0  0  0  0  0
   10.4024  -17.4587   21.5823 N   0  0  0  0  0  0  0  0  0  0  0  0
    9.5345  -16.5997   22.4581 C   0  0  1  0  0  0  0  0  0  0  0  0
    8.1351  -16.8124   22.1099 C   0  0  0  0  0  0  0  0  0  0  0  0
    7.4775  -15.9992   21.0850 C   0  0  0  0  0  0  0  0  0  0  0  0
    6.5348  -16.4275   20.1537 C   0  0  0  0  0  0  0  0  0  0  0  0
    6.1517  -15.4421   19.3526 N   0  0  0  0  0  0  0  0  0  0  0  0
    6.8296  -14.3471   19.7341 C   0  0  0  0  0  0  0  0  0  0  0  0
    6.7392  -13.0797   19.2099 C   0  0  0  0  0  0  0  0  0  0  0  0
    7.5001  -12.0565   19.7609 C   0  0  0  0  0  0  0  0  0  0  0  0
    8.3187  -12.3684   20.8200 C   0  0  0  0  0  0  0  0  0  0  0  0
    8.4043  -13.6468   21.3401 C   0  0  0  0  0  0  0  0  0  0  0  0
    7.6551  -14.6614   20.8001 C   0  0  0  0  0  0  0  0  0  0  0  0
   10.0587  -16.7729   23.7993 C   0  0  0  0  0  0  0  0  0  0  0  0
   11.1345  -17.4922   23.9526 O   0  0  0  0  0  0  0  0  0  0  0  0
    9.4995  -16.2051   24.9829 N   0  0  0  0  0  0  0  0  0  0  0  0
   10.1146  -16.5119   26.2501 C   0  0  1  0  0  0  0  0  0  0  0  0
    9.7080  -15.4242   27.2644 C   0  0  0  0  0  0  0  0  0  0  0  0
    8.4014  -14.8202   27.0307 C   0  0  0  0  0  0  0  0  0  0  0  0
    7.2349  -15.5593   26.7856 C   0  0  0  0  0  0  0  0  0  0  0  0
    6.2053  -14.7165   26.5901 N   0  0  0  0  0  0  0  0  0  0  0  0
    6.6363  -13.4325   26.6955 C   0  0  0  0  0  0  0  0  0  0  0  0
    5.9400  -12.2542   26.5843 C   0  0  0  0  0  0  0  0  0  0  0  0
    6.6197  -11.0571   26.7550 C   0  0  0  0  0  0  0  0  0  0  0  0
    7.9728  -11.1235   27.0300 C   0  0  0  0  0  0  0  0  0  0  0  0
    8.6452  -12.3091   27.1343 C   0  0  0  0  0  0  0  0  0  0  0  0
    7.9890  -13.5128   26.9673 C   0  0  0  0  0  0  0  0  0  0  0  0
    9.9495  -17.8693   26.7532 C   0  0  0  0  0  0  0  0  0  0  0  0
   10.7165  -18.4623   27.7447 O   0  0  0  0  0  0  0  0  0  0  0  0
    9.0339  -18.6483   26.2851 O   0  0  0  0  0  0  0  0  0  0  0  0
  1  2  1  0
  3  2  1  0
  4  5  1  0
  4  3  1  0
  5  1  1  0
  6  8  1  0
  5  6  1  1
  7  6  2  0
  9 20  1  0
  9  8  1  0
  9 10  1  1
 11 10  1  0
 11 19  1  0
 12 13  1  0
 12 11  2  0
 13 14  1  0
 14 15  2  0
 14 19  1  0
 15 16  1  0
 16 17  2  0
 18 17  1  0
 19 18  2  0
 20 22  1  0
 21 20  2  0
 22 23  1  0
 23 24  1  1
 24 25  1  0
 25 33  1  0
 25 26  2  0
 26 27  1  0
 28 27  1  0
 28 29  2  0
 30 29  1  0
 31 30  2  0
 32 33  2  0
 32 31  1  0
 33 28  1  0
 34 23  1  0
 34 35  1  0
 36 34  2  0
M  END
$$$$
