PWW.pdb
     RDKit          3D

 36 40  0  0  1  0  0  0  0  0999 V2000
515636.8438-710017.6875-264721.1562 N   0  0  0  0  0  0  0  0  0  0  0  0
515637.1562-710019.0000-264721.6250 C   0  0  0  0  0  0  0  0  0  0  0  0
515638.4062-710019.1875-264720.5625 C   0  0  0  0  0  0  0  0  0  0  0  0
515637.4375-710018.6250-264719.1875 C   0  0  0  0  0  0  0  0  0  0  0  0
515636.1875-710017.8125-264719.8438 C   0  0  1  0  0  0  0  0  0  0  0  0
515636.2188-710016.5625-264719.1250 C   0  0  0  0  0  0  0  0  0  0  0  0
515637.0938-710015.3750-264719.3438 O   0  0  0  0  0  0  0  0  0  0  0  0
515635.5625-710016.4375-264717.8750 N   0  0  0  0  0  0  0  0  0  0  0  0
515636.3438-710016.3125-264716.6250 C   0  0  1  0  0  0  0  0  0  0  0  0
515637.4062-710016.9375-264716.7500 C   0  0  0  0  0  0  0  0  0  0  0  0
515637.7500-710017.6875-264717.6562 C   0  0  0  0  0  0  0  0  0  0  0  0
515638.0625-710019.1875-264717.4062 C   0  0  0  0  0  0  0  0  0  0  0  0
515638.5312-710019.8125-264718.8125 N   0  0  0  0  0  0  0  0  0  0  0  0
515638.6562-710018.8750-264719.6250 C   0  0  0  0  0  0  0  0  0  0  0  0
515638.9688-710018.8125-264721.0312 C   0  0  0  0  0  0  0  0  0  0  0  0
515638.7812-710017.6250-264721.8750 C   0  0  0  0  0  0  0  0  0  0  0  0
515638.6562-710016.7500-264721.3125 C   0  0  0  0  0  0  0  0  0  0  0  0
515638.1562-710016.5000-264719.9062 C   0  0  0  0  0  0  0  0  0  0  0  0
515638.1250-710017.6250-264719.1562 C   0  0  0  0  0  0  0  0  0  0  0  0
515636.1250-710015.1250-264716.1250 C   0  0  0  0  0  0  0  0  0  0  0  0
515637.0938-710014.1875-264716.4688 O   0  0  0  0  0  0  0  0  0  0  0  0
515635.0625-710014.3750-264716.0000 N   0  0  0  0  0  0  0  0  0  0  0  0
515635.0000-710013.0625-264715.1875 C   0  0  1  0  0  0  0  0  0  0  0  0
515635.9062-710012.9375-264714.0312 C   0  0  0  0  0  0  0  0  0  0  0  0
515635.6562-710011.5000-264713.3125 C   0  0  0  0  0  0  0  0  0  0  0  0
515634.7500-710011.3750-264712.1875 C   0  0  0  0  0  0  0  0  0  0  0  0
515634.5938-710010.0625-264711.8125 N   0  0  0  0  0  0  0  0  0  0  0  0
515635.3125-710009.6875-264712.8438 C   0  0  0  0  0  0  0  0  0  0  0  0
515635.2188-710007.7500-264712.8750 C   0  0  0  0  0  0  0  0  0  0  0  0
515636.2188-710007.3750-264713.4688 C   0  0  0  0  0  0  0  0  0  0  0  0
515636.5000-710008.0625-264714.5938 C   0  0  0  0  0  0  0  0  0  0  0  0
515636.7188-710009.8125-264714.3438 C   0  0  0  0  0  0  0  0  0  0  0  0
515635.5000-710010.0625-264713.4688 C   0  0  0  0  0  0  0  0  0  0  0  0
515634.8750-710011.6875-264716.2812 C   0  0  0  0  0  0  0  0  0  0  0  0
515634.5312-710012.0625-264717.6562 O   0  0  0  0  0  0  0  0  0  0  0  0
515635.0000-710010.8125-264716.1250 O   0  0  0  0  0  0  0  0  0  0  0  0
  1  2  1  0
  3  2  1  0
  4  5  1  0
  4  3  1  0
  5  1  1  0
  6  8  1  0
  5  6  1  1
  7  6  2  0
  9 20  1  0
  9  8  1  0
  9 10  1  6
 11 10  1  0
 11 19  1  0
 12 13  1  0
 12 11  2  0
 13 14  1  0
 14 15  2  0
 14 19  1  0
 15 16  1  0
 16 17  2  0
 18 17  1  0
 19 18  2  0
 20 22  1  0
 21 20  2  0
 22 23  1  0
 23 24  1  6
 24 25  1  0
 25 33  1  0
 25 26  2  0
 26 27  1  0
 28 27  1  0
 28 29  2  0
 30 29  1  0
 31 30  2  0
 32 33  2  0
 32 31  1  0
 33 28  1  0
 34 23  1  0
 34 35  1  0
 36 34  2  0
M  END
$$$$
