TLP.pdb
     RDKit          3D

 23 23  0  0  1  0  0  0  0  0999 V2000
    9.1685  -17.6669   21.9723 C   0  0  0  0  0  0  0  0  0  0  0  0
    9.2456  -16.3857   21.2044 C   0  0  1  0  0  0  0  0  0  0  0  0
    9.2095  -16.6416   19.8300 O   0  0  0  0  0  0  0  0  0  0  0  0
    8.1287  -15.4256   21.5374 C   0  0  2  0  0  0  0  0  0  0  0  0
    8.1380  -14.3920   20.5311 N   0  0  0  0  0  0  0  0  0  0  0  0
    8.3874  -14.7813   22.8601 C   0  0  0  0  0  0  0  0  0  0  0  0
    9.2666  -13.8528   22.9043 O   0  0  0  0  0  0  0  0  0  0  0  0
    5.1739  -11.9892   26.3114 C   0  0  0  0  0  0  0  0  0  0  0  0
    6.3193  -12.5258   25.4462 C   0  0  1  0  0  0  0  0  0  0  0  0
    7.5056  -11.5746   25.8412 C   0  0  0  0  0  0  0  0  0  0  0  0
    6.7491  -13.8809   25.8770 C   0  0  0  0  0  0  0  0  0  0  0  0
    7.9667  -14.4756   25.3645 C   0  0  2  0  0  0  0  0  0  0  0  0
    7.7299  -15.1319   24.0430 N   0  0  0  0  0  0  0  0  0  0  0  0
    9.0254  -15.1346   26.0461 C   0  0  0  0  0  0  0  0  0  0  0  0
    9.0374  -16.4484   25.7417 O   0  0  0  0  0  0  0  0  0  0  0  0
   10.0537  -14.8164   26.9395 N   0  0  0  0  0  0  0  0  0  0  0  0
   10.4816  -13.4927   27.3320 C   0  0  0  0  0  0  0  0  0  0  0  0
   11.5037  -13.6228   28.4230 C   0  0  0  0  0  0  0  0  0  0  0  0
   11.3249  -15.0122   28.8919 C   0  0  0  0  0  0  0  0  0  0  0  0
   10.9090  -15.7613   27.6167 C   0  0  1  0  0  0  0  0  0  0  0  0
   10.2453  -16.9826   28.1204 C   0  0  0  0  0  0  0  0  0  0  0  0
    8.8455  -16.9447   28.2660 O   0  0  0  0  0  0  0  0  0  0  0  0
   10.7837  -18.0635   28.4369 O   0  0  0  0  0  0  0  0  0  0  0  0
  2  4  1  0
  2  1  1  1
  3  2  1  0
  4  6  1  0
  4  5  1  6
  6  7  2  0
  9  8  1  1
  9 10  1  0
 12 11  1  1
 11  9  1  0
 12 14  1  0
 13  6  1  0
 13 12  1  0
 14 15  2  0
 16 14  1  0
 16 17  1  0
 18 17  1  0
 19 18  1  0
 20 19  1  0
 20 16  1  0
 21 22  1  0
 20 21  1  1
 23 21  2  0
M  END
$$$$
