TLP.pdb
     RDKit          3D

 23 23  0  0  1  0  0  0  0  0999 V2000
    5.5007  -21.2849   24.8433 C   0  0  0  0  0  0  0  0  0  0  0  0
    6.2936  -20.0509   24.5506 C   0  0  1  0  0  0  0  0  0  0  0  0
    7.3014  -20.3312   23.6224 O   0  0  0  0  0  0  0  0  0  0  0  0
    5.4528  -18.9189   24.0102 C   0  0  2  0  0  0  0  0  0  0  0  0
    5.1122  -19.2506   22.6482 N   0  0  0  0  0  0  0  0  0  0  0  0
    6.2503  -17.6560   23.9898 C   0  0  0  0  0  0  0  0  0  0  0  0
    6.8928  -17.3790   22.9185 O   0  0  0  0  0  0  0  0  0  0  0  0
    6.2207  -12.0952   26.4912 C   0  0  0  0  0  0  0  0  0  0  0  0
    7.1621  -13.1111   25.8354 C   0  0  1  0  0  0  0  0  0  0  0  0
    8.3552  -13.1632   26.8561 C   0  0  0  0  0  0  0  0  0  0  0  0
    6.5872  -14.4807   25.8407 C   0  0  0  0  0  0  0  0  0  0  0  0
    7.2060  -15.5527   25.0877 C   0  0  2  0  0  0  0  0  0  0  0  0
    6.3348  -16.7666   25.0651 N   0  0  0  0  0  0  0  0  0  0  0  0
    8.5703  -15.9377   24.9884 C   0  0  0  0  0  0  0  0  0  0  0  0
    8.9816  -16.5182   26.1342 O   0  0  0  0  0  0  0  0  0  0  0  0
    9.6068  -15.8873   24.0504 N   0  0  0  0  0  0  0  0  0  0  0  0
    9.5228  -15.4008   22.6919 C   0  0  0  0  0  0  0  0  0  0  0  0
   10.9025  -15.3854   22.1018 C   0  0  0  0  0  0  0  0  0  0  0  0
   11.7796  -15.4858   23.2862 C   0  0  0  0  0  0  0  0  0  0  0  0
   10.9588  -16.3479   24.2575 C   0  0  1  0  0  0  0  0  0  0  0  0
   11.5437  -16.0488   25.5820 C   0  0  0  0  0  0  0  0  0  0  0  0
   12.8335  -16.5470   25.8468 O   0  0  0  0  0  0  0  0  0  0  0  0
   11.0250  -15.3956   26.5108 O   0  0  0  0  0  0  0  0  0  0  0  0
  2  4  1  0
  2  1  1  6
  3  2  1  0
  4  6  1  0
  4  5  1  6
  6  7  2  0
  9  8  1  1
  9 10  1  0
 12 11  1  1
 11  9  1  0
 12 14  1  0
 13  6  1  0
 13 12  1  0
 14 15  2  0
 16 14  1  0
 16 17  1  0
 18 17  1  0
 19 18  1  0
 20 19  1  0
 20 16  1  0
 21 22  1  0
 20 21  1  1
 23 21  2  0
M  END
$$$$
