TLP.pdb
     RDKit          3D

 23 23  0  0  1  0  0  0  0  0999 V2000
    9.0734  -18.4925   20.5352 C   0  0  0  0  0  0  0  0  0  0  0  0
    9.3281  -17.6463   21.7420 C   0  0  1  0  0  0  0  0  0  0  0  0
   10.6822  -17.6912   22.0884 O   0  0  0  0  0  0  0  0  0  0  0  0
    8.9360  -16.2011   21.5474 C   0  0  2  0  0  0  0  0  0  0  0  0
    9.8653  -15.6285   20.6041 N   0  0  0  0  0  0  0  0  0  0  0  0
    9.0727  -15.4577   22.8358 C   0  0  0  0  0  0  0  0  0  0  0  0
   10.1873  -14.8734   23.0667 O   0  0  0  0  0  0  0  0  0  0  0  0
    7.4453  -11.4868   26.0390 C   0  0  0  0  0  0  0  0  0  0  0  0
    6.8453  -12.8462   26.4134 C   0  0  1  0  0  0  0  0  0  0  0  0
    5.3155  -12.5101   26.5356 C   0  0  0  0  0  0  0  0  0  0  0  0
    6.9403  -13.8190   25.2948 C   0  0  0  0  0  0  0  0  0  0  0  0
    8.1621  -14.5582   25.0505 C   0  0  2  0  0  0  0  0  0  0  0  0
    8.0612  -15.3647   23.7964 N   0  0  0  0  0  0  0  0  0  0  0  0
    9.0501  -15.1929   25.9605 C   0  0  0  0  0  0  0  0  0  0  0  0
    8.9379  -16.5340   25.8718 O   0  0  0  0  0  0  0  0  0  0  0  0
   10.0018  -14.8306   26.9196 N   0  0  0  0  0  0  0  0  0  0  0  0
   10.4750  -13.4959   27.2094 C   0  0  0  0  0  0  0  0  0  0  0  0
   11.3709  -13.5551   28.4117 C   0  0  0  0  0  0  0  0  0  0  0  0
   11.0538  -14.8694   29.0072 C   0  0  0  0  0  0  0  0  0  0  0  0
   10.7198  -15.7365   27.7838 C   0  0  1  0  0  0  0  0  0  0  0  0
    9.9289  -16.8535   28.3430 C   0  0  0  0  0  0  0  0  0  0  0  0
    8.5425  -16.6559   28.4869 O   0  0  0  0  0  0  0  0  0  0  0  0
   10.3474  -17.9713   28.7087 O   0  0  0  0  0  0  0  0  0  0  0  0
  2  4  1  0
  2  1  1  6
  3  2  1  0
  4  6  1  0
  4  5  1  6
  6  7  2  0
  9  8  1  6
  9 10  1  0
 12 11  1  1
 11  9  1  0
 12 14  1  0
 13  6  1  0
 13 12  1  0
 14 15  2  0
 16 14  1  0
 16 17  1  0
 18 17  1  0
 19 18  1  0
 20 19  1  0
 20 16  1  0
 21 22  1  0
 20 21  1  1
 23 21  2  0
M  END
$$$$
