TLP.pdb
     RDKit          3D

 23 23  0  0  1  0  0  0  0  0999 V2000
    9.6208  -18.1575   22.3545 C   0  0  0  0  0  0  0  0  0  0  0  0
    9.9957  -17.1269   21.3375 C   0  0  1  0  0  0  0  0  0  0  0  0
   10.0056  -17.6902   20.0575 O   0  0  0  0  0  0  0  0  0  0  0  0
    9.0643  -15.9383   21.3252 C   0  0  2  0  0  0  0  0  0  0  0  0
    9.5034  -15.0609   20.2677 N   0  0  0  0  0  0  0  0  0  0  0  0
    9.1720  -15.1928   22.6152 C   0  0  0  0  0  0  0  0  0  0  0  0
   10.2365  -14.5127   22.8187 O   0  0  0  0  0  0  0  0  0  0  0  0
    5.6719  -11.7137   25.9758 C   0  0  0  0  0  0  0  0  0  0  0  0
    6.8742  -12.6478   26.1498 C   0  0  1  0  0  0  0  0  0  0  0  0
    6.3822  -13.6115   27.2888 C   0  0  0  0  0  0  0  0  0  0  0  0
    7.0730  -13.5194   24.9636 C   0  0  0  0  0  0  0  0  0  0  0  0
    8.2390  -14.3720   24.8509 C   0  0  2  0  0  0  0  0  0  0  0  0
    8.1848  -15.1955   23.6051 N   0  0  0  0  0  0  0  0  0  0  0  0
    8.9728  -15.0629   25.8528 C   0  0  0  0  0  0  0  0  0  0  0  0
    8.7485  -16.3903   25.7713 O   0  0  0  0  0  0  0  0  0  0  0  0
    9.8554  -14.7656   26.8965 N   0  0  0  0  0  0  0  0  0  0  0  0
   10.2996  -13.4530   27.3080 C   0  0  0  0  0  0  0  0  0  0  0  0
   11.1129  -13.5930   28.5613 C   0  0  0  0  0  0  0  0  0  0  0  0
   10.7647  -14.9455   29.0429 C   0  0  0  0  0  0  0  0  0  0  0  0
   10.5193  -15.7274   27.7434 C   0  0  1  0  0  0  0  0  0  0  0  0
    9.6996  -16.8813   28.1703 C   0  0  0  0  0  0  0  0  0  0  0  0
   10.3333  -17.8753   28.9400 O   0  0  0  0  0  0  0  0  0  0  0  0
    8.4920  -17.0854   27.9286 O   0  0  0  0  0  0  0  0  0  0  0  0
  2  4  1  0
  2  1  1  1
  3  2  1  0
  4  6  1  0
  4  5  1  6
  6  7  2  0
  9  8  1  6
  9 10  1  0
 12 11  1  1
 11  9  1  0
 12 14  1  0
 13  6  1  0
 13 12  1  0
 14 15  2  0
 16 14  1  0
 16 17  1  0
 18 17  1  0
 19 18  1  0
 20 19  1  0
 20 16  1  0
 21 22  1  0
 20 21  1  1
 23 21  2  0
M  END
$$$$
