TLP.pdb
     RDKit          3D

 23 23  0  0  1  0  0  0  0  0999 V2000
    9.4966  -18.6045   20.6388 C   0  0  0  0  0  0  0  0  0  0  0  0
    9.6447  -17.7507   21.8579 C   0  0  1  0  0  0  0  0  0  0  0  0
   10.9308  -17.8852   22.3905 O   0  0  0  0  0  0  0  0  0  0  0  0
    9.3928  -16.2859   21.5912 C   0  0  2  0  0  0  0  0  0  0  0  0
   10.4809  -15.8058   20.7747 N   0  0  0  0  0  0  0  0  0  0  0  0
    9.4109  -15.5232   22.8755 C   0  0  0  0  0  0  0  0  0  0  0  0
   10.5134  -14.9744   23.2225 O   0  0  0  0  0  0  0  0  0  0  0  0
    7.3226  -11.5023   26.0181 C   0  0  0  0  0  0  0  0  0  0  0  0
    6.8440  -12.9339   26.2824 C   0  0  1  0  0  0  0  0  0  0  0  0
    5.2855  -12.7524   26.3614 C   0  0  0  0  0  0  0  0  0  0  0  0
    7.0724  -13.8179   25.1107 C   0  0  0  0  0  0  0  0  0  0  0  0
    8.2999  -14.5756   24.9756 C   0  0  2  0  0  0  0  0  0  0  0  0
    8.3017  -15.3761   23.7137 N   0  0  0  0  0  0  0  0  0  0  0  0
    9.0908  -15.2276   25.9600 C   0  0  0  0  0  0  0  0  0  0  0  0
    8.9661  -16.5664   25.8550 O   0  0  0  0  0  0  0  0  0  0  0  0
    9.9564  -14.8838   27.0037 N   0  0  0  0  0  0  0  0  0  0  0  0
   10.3775  -13.5524   27.3769 C   0  0  0  0  0  0  0  0  0  0  0  0
   11.1771  -13.6397   28.6437 C   0  0  0  0  0  0  0  0  0  0  0  0
   10.8415  -14.9804   29.1655 C   0  0  0  0  0  0  0  0  0  0  0  0
   10.6228  -15.8078   27.8897 C   0  0  1  0  0  0  0  0  0  0  0  0
    9.8138  -16.9586   28.3447 C   0  0  0  0  0  0  0  0  0  0  0  0
   10.4618  -17.9383   29.1206 O   0  0  0  0  0  0  0  0  0  0  0  0
    8.6039  -17.1711   28.1221 O   0  0  0  0  0  0  0  0  0  0  0  0
  2  4  1  0
  2  1  1  6
  3  2  1  0
  4  6  1  0
  4  5  1  6
  6  7  2  0
  9  8  1  6
  9 10  1  0
 12 11  1  1
 11  9  1  0
 12 14  1  0
 13  6  1  0
 13 12  1  0
 14 15  2  0
 16 14  1  0
 16 17  1  0
 18 17  1  0
 19 18  1  0
 20 19  1  0
 20 16  1  0
 21 22  1  0
 20 21  1  1
 23 21  2  0
M  END
$$$$
