TLP.pdb
     RDKit          3D

 23 23  0  0  1  0  0  0  0  0999 V2000
    9.0955  -18.3106   22.5344 C   0  0  0  0  0  0  0  0  0  0  0  0
    9.5692  -17.2163   21.6315 C   0  0  1  0  0  0  0  0  0  0  0  0
    9.5813  -17.6547   20.3036 O   0  0  0  0  0  0  0  0  0  0  0  0
    8.7195  -15.9705   21.7118 C   0  0  2  0  0  0  0  0  0  0  0  0
    9.2165  -15.0484   20.7200 N   0  0  0  0  0  0  0  0  0  0  0  0
    8.8768  -15.3315   23.0528 C   0  0  0  0  0  0  0  0  0  0  0  0
    9.9370  -14.6464   23.2613 O   0  0  0  0  0  0  0  0  0  0  0  0
    5.1965  -12.1782   25.9625 C   0  0  0  0  0  0  0  0  0  0  0  0
    6.3872  -12.7763   25.2056 C   0  0  1  0  0  0  0  0  0  0  0  0
    7.5579  -11.8124   25.6162 C   0  0  0  0  0  0  0  0  0  0  0  0
    6.7727  -14.1058   25.7441 C   0  0  0  0  0  0  0  0  0  0  0  0
    8.0380  -14.7162   25.3897 C   0  0  2  0  0  0  0  0  0  0  0  0
    7.9400  -15.4385   24.0851 N   0  0  0  0  0  0  0  0  0  0  0  0
    9.0224  -15.3330   26.2083 C   0  0  0  0  0  0  0  0  0  0  0  0
    9.0194  -16.6691   26.0247 O   0  0  0  0  0  0  0  0  0  0  0  0
    9.9885  -14.9569   27.1474 N   0  0  0  0  0  0  0  0  0  0  0  0
   10.3125  -13.6118   27.5659 C   0  0  0  0  0  0  0  0  0  0  0  0
   11.2931  -13.6852   28.6994 C   0  0  0  0  0  0  0  0  0  0  0  0
   11.1849  -15.0873   29.1519 C   0  0  0  0  0  0  0  0  0  0  0  0
   10.8735  -15.8505   27.8554 C   0  0  1  0  0  0  0  0  0  0  0  0
   10.2694  -17.1164   28.3226 C   0  0  0  0  0  0  0  0  0  0  0  0
    8.8956  -17.3056   28.0800 O   0  0  0  0  0  0  0  0  0  0  0  0
   10.8389  -18.0558   28.9155 O   0  0  0  0  0  0  0  0  0  0  0  0
  2  4  1  0
  2  1  1  1
  3  2  1  0
  4  6  1  0
  4  5  1  6
  6  7  2  0
  9  8  1  1
  9 10  1  0
 12 11  1  1
 11  9  1  0
 12 14  1  0
 13  6  1  0
 13 12  1  0
 14 15  2  0
 16 14  1  0
 16 17  1  0
 18 17  1  0
 19 18  1  0
 20 19  1  0
 20 16  1  0
 21 22  1  0
 20 21  1  1
 23 21  2  0
M  END
$$$$
