TLP.pdb
     RDKit          3D

 23 23  0  0  1  0  0  0  0  0999 V2000
    9.9030  -18.6816   22.8700 C   0  0  0  0  0  0  0  0  0  0  0  0
   10.4063  -17.8094   21.7641 C   0  0  1  0  0  0  0  0  0  0  0  0
   10.4612  -18.5289   20.5662 O   0  0  0  0  0  0  0  0  0  0  0  0
    9.5553  -16.5820   21.5415 C   0  0  2  0  0  0  0  0  0  0  0  0
   10.1595  -15.8307   20.4684 N   0  0  0  0  0  0  0  0  0  0  0  0
    9.5662  -15.7252   22.7651 C   0  0  0  0  0  0  0  0  0  0  0  0
   10.6041  -15.0071   22.9756 O   0  0  0  0  0  0  0  0  0  0  0  0
    5.4713  -12.5189   25.8368 C   0  0  0  0  0  0  0  0  0  0  0  0
    6.9684  -12.8374   25.7611 C   0  0  1  0  0  0  0  0  0  0  0  0
    7.2253  -13.5485   27.1382 C   0  0  0  0  0  0  0  0  0  0  0  0
    7.2627  -13.8675   24.7321 C   0  0  0  0  0  0  0  0  0  0  0  0
    8.4485  -14.6950   24.8224 C   0  0  2  0  0  0  0  0  0  0  0  0
    8.5164  -15.6634   23.6863 N   0  0  0  0  0  0  0  0  0  0  0  0
    9.1047  -15.2400   25.9590 C   0  0  0  0  0  0  0  0  0  0  0  0
    8.8383  -16.5573   26.0714 O   0  0  0  0  0  0  0  0  0  0  0  0
    9.9423  -14.8068   26.9922 N   0  0  0  0  0  0  0  0  0  0  0  0
   10.3012  -13.4411   27.3016 C   0  0  0  0  0  0  0  0  0  0  0  0
   11.0887  -13.4298   28.5788 C   0  0  0  0  0  0  0  0  0  0  0  0
   10.8051  -14.7559   29.1646 C   0  0  0  0  0  0  0  0  0  0  0  0
   10.6374  -15.6552   27.9303 C   0  0  1  0  0  0  0  0  0  0  0  0
    9.8734  -16.8159   28.4352 C   0  0  0  0  0  0  0  0  0  0  0  0
    8.4810  -16.8135   28.2275 O   0  0  0  0  0  0  0  0  0  0  0  0
   10.3201  -17.8166   29.0330 O   0  0  0  0  0  0  0  0  0  0  0  0
  2  4  1  0
  2  1  1  1
  3  2  1  0
  4  6  1  0
  4  5  1  6
  6  7  2  0
  9  8  1  1
  9 10  1  0
 12 11  1  1
 11  9  1  0
 12 14  1  0
 13  6  1  0
 13 12  1  0
 14 15  2  0
 16 14  1  0
 16 17  1  0
 18 17  1  0
 19 18  1  0
 20 19  1  0
 20 16  1  0
 21 22  1  0
 20 21  1  1
 23 21  2  0
M  END
$$$$
