TLP.pdb
     RDKit          3D

 23 23  0  0  1  0  0  0  0  0999 V2000
    9.4739  -18.3822   22.5917 C   0  0  0  0  0  0  0  0  0  0  0  0
    9.8383  -17.2865   21.6411 C   0  0  1  0  0  0  0  0  0  0  0  0
    9.8308  -17.7630   20.3264 O   0  0  0  0  0  0  0  0  0  0  0  0
    8.9096  -16.0984   21.7202 C   0  0  2  0  0  0  0  0  0  0  0  0
    9.3448  -15.1476   20.7264 N   0  0  0  0  0  0  0  0  0  0  0  0
    9.0262  -15.4483   23.0601 C   0  0  0  0  0  0  0  0  0  0  0  0
   10.0804  -14.7624   23.2954 O   0  0  0  0  0  0  0  0  0  0  0  0
    5.2364  -12.3180   25.8619 C   0  0  0  0  0  0  0  0  0  0  0  0
    6.4430  -12.9135   25.1283 C   0  0  1  0  0  0  0  0  0  0  0  0
    7.5948  -11.9226   25.5278 C   0  0  0  0  0  0  0  0  0  0  0  0
    6.8445  -14.2248   25.6990 C   0  0  0  0  0  0  0  0  0  0  0  0
    8.1227  -14.8221   25.3697 C   0  0  2  0  0  0  0  0  0  0  0  0
    8.0579  -15.5456   24.0637 N   0  0  0  0  0  0  0  0  0  0  0  0
    9.0971  -15.4285   26.2077 C   0  0  0  0  0  0  0  0  0  0  0  0
    9.0965  -16.7668   26.0406 O   0  0  0  0  0  0  0  0  0  0  0  0
   10.0518  -15.0406   27.1538 N   0  0  0  0  0  0  0  0  0  0  0  0
   10.4549  -13.6900   27.4742 C   0  0  0  0  0  0  0  0  0  0  0  0
   11.3847  -13.7335   28.6513 C   0  0  0  0  0  0  0  0  0  0  0  0
   11.1599  -15.0815   29.2121 C   0  0  0  0  0  0  0  0  0  0  0  0
   10.8437  -15.9290   27.9703 C   0  0  1  0  0  0  0  0  0  0  0  0
   10.1338  -17.1068   28.5131 C   0  0  0  0  0  0  0  0  0  0  0  0
   10.8855  -18.0197   29.2769 O   0  0  0  0  0  0  0  0  0  0  0  0
    8.9271  -17.3956   28.3756 O   0  0  0  0  0  0  0  0  0  0  0  0
  2  4  1  0
  2  1  1  1
  3  2  1  0
  4  6  1  0
  4  5  1  6
  6  7  2  0
  9  8  1  1
  9 10  1  0
 12 11  1  1
 11  9  1  0
 12 14  1  0
 13  6  1  0
 13 12  1  0
 14 15  2  0
 16 14  1  0
 16 17  1  0
 18 17  1  0
 19 18  1  0
 20 19  1  0
 20 16  1  0
 21 22  1  0
 20 21  1  1
 23 21  2  0
M  END
$$$$
