TLP.pdb
     RDKit          3D

 23 23  0  0  1  0  0  0  0  0999 V2000
    7.0478  -17.8527   21.7415 C   0  0  0  0  0  0  0  0  0  0  0  0
    7.8512  -16.8288   21.0045 C   0  0  1  0  0  0  0  0  0  0  0  0
    7.6557  -16.9596   19.6260 O   0  0  0  0  0  0  0  0  0  0  0  0
    7.5122  -15.4112   21.3991 C   0  0  2  0  0  0  0  0  0  0  0  0
    8.1720  -14.5360   20.4611 N   0  0  0  0  0  0  0  0  0  0  0  0
    8.0531  -15.1175   22.7602 C   0  0  0  0  0  0  0  0  0  0  0  0
    9.3004  -14.8487   22.8561 O   0  0  0  0  0  0  0  0  0  0  0  0
    5.4501  -12.0228   26.6590 C   0  0  0  0  0  0  0  0  0  0  0  0
    6.5210  -12.6010   25.7277 C   0  0  1  0  0  0  0  0  0  0  0  0
    7.8046  -11.8096   26.1683 C   0  0  0  0  0  0  0  0  0  0  0  0
    6.8159  -14.0229   26.0405 C   0  0  0  0  0  0  0  0  0  0  0  0
    7.8017  -14.7651   25.2812 C   0  0  2  0  0  0  0  0  0  0  0  0
    7.2814  -15.1197   23.9259 N   0  0  0  0  0  0  0  0  0  0  0  0
    8.7448  -15.7401   25.7047 C   0  0  0  0  0  0  0  0  0  0  0  0
    8.1297  -16.9135   25.9571 O   0  0  0  0  0  0  0  0  0  0  0  0
   10.1211  -15.8340   25.9367 N   0  0  0  0  0  0  0  0  0  0  0  0
   11.1349  -14.8877   25.5294 C   0  0  0  0  0  0  0  0  0  0  0  0
   12.4481  -15.3065   26.1226 C   0  0  0  0  0  0  0  0  0  0  0  0
   12.0543  -16.2588   27.1811 C   0  0  0  0  0  0  0  0  0  0  0  0
   10.7945  -16.9222   26.6041 C   0  0  1  0  0  0  0  0  0  0  0  0
   10.1057  -17.4731   27.7906 C   0  0  0  0  0  0  0  0  0  0  0  0
   10.7129  -18.5628   28.4431 O   0  0  0  0  0  0  0  0  0  0  0  0
    9.0326  -17.0823   28.2947 O   0  0  0  0  0  0  0  0  0  0  0  0
  2  4  1  0
  2  1  1  1
  3  2  1  0
  4  6  1  0
  4  5  1  6
  6  7  2  0
  9  8  1  1
  9 10  1  0
 12 11  1  1
 11  9  1  0
 12 14  1  0
 13  6  1  0
 13 12  1  0
 14 15  2  0
 16 14  1  0
 16 17  1  0
 18 17  1  0
 19 18  1  0
 20 19  1  0
 20 16  1  0
 21 22  1  0
 20 21  1  1
 23 21  2  0
M  END
$$$$
