TLP.pdb
     RDKit          3D

 23 23  0  0  1  0  0  0  0  0999 V2000
    9.2937  -17.8435   22.2845 C   0  0  0  0  0  0  0  0  0  0  0  0
    9.3375  -16.6557   21.3766 C   0  0  1  0  0  0  0  0  0  0  0  0
    9.2307  -17.0612   20.0424 O   0  0  0  0  0  0  0  0  0  0  0  0
    8.2432  -15.6534   21.6566 C   0  0  2  0  0  0  0  0  0  0  0  0
    8.3317  -14.6288   20.6450 N   0  0  0  0  0  0  0  0  0  0  0  0
    8.4701  -15.0085   22.9848 C   0  0  0  0  0  0  0  0  0  0  0  0
    9.4415  -14.1815   23.0830 O   0  0  0  0  0  0  0  0  0  0  0  0
    5.0797  -12.1146   26.2629 C   0  0  0  0  0  0  0  0  0  0  0  0
    6.2345  -12.6805   25.4295 C   0  0  1  0  0  0  0  0  0  0  0  0
    7.4037  -11.6868   25.7666 C   0  0  0  0  0  0  0  0  0  0  0  0
    6.6884  -14.0001   25.9386 C   0  0  0  0  0  0  0  0  0  0  0  0
    7.9075  -14.6101   25.4480 C   0  0  2  0  0  0  0  0  0  0  0  0
    7.6888  -15.2547   24.1177 N   0  0  0  0  0  0  0  0  0  0  0  0
    8.9416  -15.2890   26.1474 C   0  0  0  0  0  0  0  0  0  0  0  0
    8.9226  -16.6058   25.8565 O   0  0  0  0  0  0  0  0  0  0  0  0
    9.9685  -14.9882   27.0485 N   0  0  0  0  0  0  0  0  0  0  0  0
   10.3827  -13.6731   27.4823 C   0  0  0  0  0  0  0  0  0  0  0  0
   11.4089  -13.8268   28.5664 C   0  0  0  0  0  0  0  0  0  0  0  0
   11.2467  -15.2324   28.9909 C   0  0  0  0  0  0  0  0  0  0  0  0
   10.8359  -15.9448   27.6932 C   0  0  1  0  0  0  0  0  0  0  0  0
   10.1870  -17.1889   28.1588 C   0  0  0  0  0  0  0  0  0  0  0  0
   11.0138  -18.1753   28.7291 O   0  0  0  0  0  0  0  0  0  0  0  0
    8.9733  -17.4767   28.1083 O   0  0  0  0  0  0  0  0  0  0  0  0
  2  4  1  0
  2  1  1  1
  3  2  1  0
  4  6  1  0
  4  5  1  6
  6  7  2  0
  9  8  1  1
  9 10  1  0
 12 11  1  1
 11  9  1  0
 12 14  1  0
 13  6  1  0
 13 12  1  0
 14 15  2  0
 16 14  1  0
 16 17  1  0
 18 17  1  0
 19 18  1  0
 20 19  1  0
 20 16  1  0
 21 22  1  0
 20 21  1  1
 23 21  2  0
M  END
$$$$
