TLP.pdb
     RDKit          3D

 23 23  0  0  1  0  0  0  0  0999 V2000
    6.7161  -19.9980   24.8664 C   0  0  0  0  0  0  0  0  0  0  0  0
    6.0769  -19.5604   23.5869 C   0  0  1  0  0  0  0  0  0  0  0  0
    5.0955  -20.4773   23.1970 O   0  0  0  0  0  0  0  0  0  0  0  0
    5.4400  -18.1943   23.6781 C   0  0  2  0  0  0  0  0  0  0  0  0
    4.8011  -17.9341   22.4111 N   0  0  0  0  0  0  0  0  0  0  0  0
    6.4919  -17.1539   23.8843 C   0  0  0  0  0  0  0  0  0  0  0  0
    7.2695  -16.8955   22.9016 O   0  0  0  0  0  0  0  0  0  0  0  0
    6.3315  -12.4436   27.1397 C   0  0  0  0  0  0  0  0  0  0  0  0
    6.6590  -13.3304   25.9335 C   0  0  1  0  0  0  0  0  0  0  0  0
    7.6474  -12.4240   25.1153 C   0  0  0  0  0  0  0  0  0  0  0  0
    7.4574  -14.5207   26.3235 C   0  0  0  0  0  0  0  0  0  0  0  0
    7.8187  -15.5292   25.3480 C   0  0  2  0  0  0  0  0  0  0  0  0
    6.6746  -16.4523   25.0796 N   0  0  0  0  0  0  0  0  0  0  0  0
    9.0473  -16.2144   25.1462 C   0  0  0  0  0  0  0  0  0  0  0  0
    9.2246  -17.1553   26.0961 O   0  0  0  0  0  0  0  0  0  0  0  0
   10.1228  -16.1941   24.2520 N   0  0  0  0  0  0  0  0  0  0  0  0
   10.1826  -15.5021   22.9844 C   0  0  0  0  0  0  0  0  0  0  0  0
   11.5741  -15.6243   22.4363 C   0  0  0  0  0  0  0  0  0  0  0  0
   12.3661  -16.0438   23.6107 C   0  0  0  0  0  0  0  0  0  0  0  0
   11.3733  -16.8957   24.4162 C   0  0  1  0  0  0  0  0  0  0  0  0
   11.9335  -16.8987   25.7844 C   0  0  0  0  0  0  0  0  0  0  0  0
   13.1160  -17.6323   25.9975 O   0  0  0  0  0  0  0  0  0  0  0  0
   11.4787  -16.3188   26.7921 O   0  0  0  0  0  0  0  0  0  0  0  0
  2  4  1  0
  2  1  1  1
  3  2  1  0
  4  6  1  0
  4  5  1  6
  6  7  2  0
  9  8  1  1
  9 10  1  0
 12 11  1  1
 11  9  1  0
 12 14  1  0
 13  6  1  0
 13 12  1  0
 14 15  2  0
 16 14  1  0
 16 17  1  0
 18 17  1  0
 19 18  1  0
 20 19  1  0
 20 16  1  0
 21 22  1  0
 20 21  1  1
 23 21  2  0
M  END
$$$$
