TDA.pdb
     RDKit          3D

 21 20  0  0  1  0  0  0  0  0999 V2000
   21.8401  -11.5724  -20.1755 C   0  0  0  0  0  0  0  0  0  0  0  0
   20.9882  -10.4365  -19.6445 C   0  0  1  0  0  0  0  0  0  0  0  0
   19.6624  -10.8985  -19.6482 O   0  0  0  0  0  0  0  0  0  0  0  0
   21.4160  -10.1616  -18.2404 C   0  0  2  0  0  0  0  0  0  0  0  0
   21.1737  -11.3452  -17.4589 N   0  0  0  0  0  0  0  0  0  0  0  0
   20.7776   -8.9992  -17.6140 C   0  0  0  0  0  0  0  0  0  0  0  0
   19.5285   -8.9343  -17.6895 O   0  0  0  0  0  0  0  0  0  0  0  0
   21.4500   -7.9613  -16.9416 N   0  0  0  0  0  0  0  0  0  0  0  0
   20.8677   -6.8302  -16.3153 C   0  0  1  0  0  0  0  0  0  0  0  0
   20.9759   -6.7332  -14.8407 C   0  0  0  0  0  0  0  0  0  0  0  0
   20.1779   -7.7680  -14.1349 C   0  0  0  0  0  0  0  0  0  0  0  0
   19.1754   -8.2941  -14.6823 O   0  0  0  0  0  0  0  0  0  0  0  0
   21.3143   -5.5551  -16.9855 C   0  0  0  0  0  0  0  0  0  0  0  0
   22.5345   -5.2759  -17.1124 O   0  0  0  0  0  0  0  0  0  0  0  0
   20.4838   -8.2071  -12.8564 O   0  0  0  0  0  0  0  0  0  0  0  0
   19.6752   -2.6093  -18.7150 C   0  0  0  0  0  0  0  0  0  0  0  0
   20.8315   -3.4107  -18.1419 C   0  0  2  0  0  0  0  0  0  0  0  0
   20.3842   -4.6147  -17.5021 N   0  0  0  0  0  0  0  0  0  0  0  0
   21.5337   -2.5251  -17.1757 C   0  0  0  0  0  0  0  0  0  0  0  0
   22.3993   -1.5325  -17.5551 O   0  0  0  0  0  0  0  0  0  0  0  0
   21.3179   -2.6999  -15.9301 O   0  0  0  0  0  0  0  0  0  0  0  0
  2  1  1  1
  2  4  1  0
  2  3  1  0
  4  5  1  1
  6  4  1  0
  7  6  2  0
  8  6  1  0
  9 13  1  0
  9  8  1  0
  9 10  1  1
 11 15  1  0
 11 10  1  0
 12 11  2  0
 13 18  1  0
 14 13  2  0
 17 16  1  1
 17 19  1  0
 18 17  1  0
 19 21  2  0
 19 20  1  0
M  END
$$$$
