TDA.pdb
     RDKit          3D

 21 20  0  0  1  0  0  0  0  0999 V2000
   18.2279   -9.2626  -18.2166 C   0  0  0  0  0  0  0  0  0  0  0  0
   18.2064  -10.4430  -17.2656 C   0  0  1  0  0  0  0  0  0  0  0  0
   18.2063  -11.5974  -18.0649 O   0  0  0  0  0  0  0  0  0  0  0  0
   19.4590  -10.3994  -16.4539 C   0  0  2  0  0  0  0  0  0  0  0  0
   19.5236  -11.6014  -15.6657 N   0  0  0  0  0  0  0  0  0  0  0  0
   19.6001   -9.2195  -15.5942 C   0  0  0  0  0  0  0  0  0  0  0  0
   18.7590   -9.0893  -14.6746 O   0  0  0  0  0  0  0  0  0  0  0  0
   20.5954   -8.2319  -15.7190 N   0  0  0  0  0  0  0  0  0  0  0  0
   20.7495   -7.0680  -14.9238 C   0  0  1  0  0  0  0  0  0  0  0  0
   22.1169   -6.7294  -14.4643 C   0  0  0  0  0  0  0  0  0  0  0  0
   22.1526   -5.5207  -13.6021 C   0  0  0  0  0  0  0  0  0  0  0  0
   22.7402   -4.4754  -13.9807 O   0  0  0  0  0  0  0  0  0  0  0  0
   20.0759   -5.8829  -15.5690 C   0  0  0  0  0  0  0  0  0  0  0  0
   20.4695   -5.4289  -16.6743 O   0  0  0  0  0  0  0  0  0  0  0  0
   21.5524   -5.4730  -12.3537 O   0  0  0  0  0  0  0  0  0  0  0  0
   16.9851   -3.7982  -15.0469 C   0  0  0  0  0  0  0  0  0  0  0  0
   18.3921   -4.0570  -15.5578 C   0  0  2  0  0  0  0  0  0  0  0  0
   18.9717   -5.2272  -14.9630 N   0  0  0  0  0  0  0  0  0  0  0  0
   19.1959   -2.8467  -15.2413 C   0  0  0  0  0  0  0  0  0  0  0  0
   20.3046   -2.8680  -14.4359 O   0  0  0  0  0  0  0  0  0  0  0  0
   18.8331   -1.7323  -15.7466 O   0  0  0  0  0  0  0  0  0  0  0  0
  2  1  1  6
  2  4  1  0
  2  3  1  0
  4  5  1  1
  6  4  1  0
  7  6  2  0
  8  6  1  0
  9 13  1  0
  9  8  1  0
  9 10  1  6
 11 15  1  0
 11 10  1  0
 12 11  2  0
 13 18  1  0
 14 13  2  0
 17 16  1  1
 17 19  1  0
 18 17  1  0
 19 21  2  0
 19 20  1  0
M  END
$$$$
