TDA.pdb
     RDKit          3D

 21 20  0  0  1  0  0  0  0  0999 V2000
   13.8206   -8.9291   -9.0077 C   0  0  0  0  0  0  0  0  0  0  0  0
   14.1283   -7.4496   -9.1265 C   0  0  1  0  0  0  0  0  0  0  0  0
   13.5803   -6.8369   -7.9882 O   0  0  0  0  0  0  0  0  0  0  0  0
   15.6128   -7.2885   -9.1128 C   0  0  2  0  0  0  0  0  0  0  0  0
   15.9097   -5.8886   -8.9624 N   0  0  0  0  0  0  0  0  0  0  0  0
   16.3065   -7.8323  -10.2851 C   0  0  0  0  0  0  0  0  0  0  0  0
   16.4780   -9.0732  -10.3121 O   0  0  0  0  0  0  0  0  0  0  0  0
   16.7898   -7.0784  -11.3711 N   0  0  0  0  0  0  0  0  0  0  0  0
   17.3794   -7.5746  -12.5614 C   0  0  1  0  0  0  0  0  0  0  0  0
   16.5676   -7.5233  -13.7999 C   0  0  0  0  0  0  0  0  0  0  0  0
   17.2461   -8.1546  -14.9605 C   0  0  0  0  0  0  0  0  0  0  0  0
   17.4170   -7.5188  -16.0319 O   0  0  0  0  0  0  0  0  0  0  0  0
   18.7471   -6.9760  -12.7740 C   0  0  0  0  0  0  0  0  0  0  0  0
   18.9500   -5.7423  -12.6331 O   0  0  0  0  0  0  0  0  0  0  0  0
   17.7220   -9.4560  -14.9330 O   0  0  0  0  0  0  0  0  0  0  0  0
   22.2054   -8.2172  -13.7041 C   0  0  0  0  0  0  0  0  0  0  0  0
   21.1517   -7.1776  -13.3626 C   0  0  2  0  0  0  0  0  0  0  0  0
   19.8644   -7.7717  -13.1412 N   0  0  0  0  0  0  0  0  0  0  0  0
   21.1062   -6.2195  -14.4988 C   0  0  0  0  0  0  0  0  0  0  0  0
   21.9271   -5.1263  -14.5959 O   0  0  0  0  0  0  0  0  0  0  0  0
   20.2586   -6.4277  -15.4300 O   0  0  0  0  0  0  0  0  0  0  0  0
  2  1  1  1
  2  4  1  0
  2  3  1  0
  4  5  1  6
  6  4  1  0
  7  6  2  0
  8  6  1  0
  9 13  1  0
  9  8  1  0
  9 10  1  6
 11 15  1  0
 11 10  1  0
 12 11  2  0
 13 18  1  0
 14 13  2  0
 17 16  1  6
 17 19  1  0
 18 17  1  0
 19 21  2  0
 19 20  1  0
M  END
$$$$
