TDA.pdb
     RDKit          3D

 21 20  0  0  1  0  0  0  0  0999 V2000
   16.6787   -9.6059  -16.4206 C   0  0  0  0  0  0  0  0  0  0  0  0
   17.7561  -10.5215  -15.8740 C   0  0  1  0  0  0  0  0  0  0  0  0
   17.6721  -11.7161  -16.6070 O   0  0  0  0  0  0  0  0  0  0  0  0
   19.0779   -9.8743  -16.1263 C   0  0  2  0  0  0  0  0  0  0  0  0
   20.1031  -10.8697  -15.9571 N   0  0  0  0  0  0  0  0  0  0  0  0
   19.3641   -8.7026  -15.2918 C   0  0  0  0  0  0  0  0  0  0  0  0
   18.5056   -8.4022  -14.4300 O   0  0  0  0  0  0  0  0  0  0  0  0
   20.5150   -7.8971  -15.3814 N   0  0  0  0  0  0  0  0  0  0  0  0
   20.7671   -6.6861  -14.6882 C   0  0  1  0  0  0  0  0  0  0  0  0
   22.1761   -6.3667  -14.3589 C   0  0  0  0  0  0  0  0  0  0  0  0
   22.3177   -5.0961  -13.6031 C   0  0  0  0  0  0  0  0  0  0  0  0
   22.8989   -4.1040  -14.1122 O   0  0  0  0  0  0  0  0  0  0  0  0
   20.0834   -5.5258  -15.3669 C   0  0  0  0  0  0  0  0  0  0  0  0
   20.3386   -5.2243  -16.5614 O   0  0  0  0  0  0  0  0  0  0  0  0
   21.8277   -4.9308  -12.3171 O   0  0  0  0  0  0  0  0  0  0  0  0
   17.1405   -3.2911  -14.7827 C   0  0  0  0  0  0  0  0  0  0  0  0
   18.5182   -3.5973  -15.3447 C   0  0  2  0  0  0  0  0  0  0  0  0
   19.1246   -4.7233  -14.6938 N   0  0  0  0  0  0  0  0  0  0  0  0
   19.3409   -2.3722  -15.1628 C   0  0  0  0  0  0  0  0  0  0  0  0
   19.0501   -1.1737  -15.7607 O   0  0  0  0  0  0  0  0  0  0  0  0
   20.3700   -2.4425  -14.4112 O   0  0  0  0  0  0  0  0  0  0  0  0
  2  1  1  6
  2  4  1  0
  2  3  1  0
  4  5  1  1
  6  4  1  0
  7  6  2  0
  8  6  1  0
  9 13  1  0
  9  8  1  0
  9 10  1  6
 11 15  1  0
 11 10  1  0
 12 11  2  0
 13 18  1  0
 14 13  2  0
 17 16  1  1
 17 19  1  0
 18 17  1  0
 19 21  2  0
 19 20  1  0
M  END
$$$$
