TDA.pdb
     RDKit          3D

 21 20  0  0  1  0  0  0  0  0999 V2000
   15.4271  -11.2171  -12.2766 C   0  0  0  0  0  0  0  0  0  0  0  0
   16.1090   -9.8993  -12.5872 C   0  0  1  0  0  0  0  0  0  0  0  0
   15.1587   -8.8938  -12.3478 O   0  0  0  0  0  0  0  0  0  0  0  0
   17.2516   -9.7407  -11.6389 C   0  0  2  0  0  0  0  0  0  0  0  0
   16.7282   -9.7695  -10.2989 N   0  0  0  0  0  0  0  0  0  0  0  0
   18.0634   -8.5362  -11.8419 C   0  0  0  0  0  0  0  0  0  0  0  0
   17.9153   -7.6108  -11.0102 O   0  0  0  0  0  0  0  0  0  0  0  0
   18.9863   -8.3394  -12.8864 N   0  0  0  0  0  0  0  0  0  0  0  0
   19.7200   -7.1591  -13.1681 C   0  0  1  0  0  0  0  0  0  0  0  0
   21.1309   -7.3155  -13.5929 C   0  0  0  0  0  0  0  0  0  0  0  0
   21.8375   -6.0170  -13.7351 C   0  0  0  0  0  0  0  0  0  0  0  0
   21.7915   -5.1542  -12.8215 O   0  0  0  0  0  0  0  0  0  0  0  0
   18.9566   -6.2637  -14.1113 C   0  0  0  0  0  0  0  0  0  0  0  0
   18.6462   -6.6466  -15.2689 O   0  0  0  0  0  0  0  0  0  0  0  0
   22.5750   -5.6847  -14.8606 O   0  0  0  0  0  0  0  0  0  0  0  0
   16.3398   -4.0943  -14.3345 C   0  0  0  0  0  0  0  0  0  0  0  0
   17.8252   -4.1197  -14.6522 C   0  0  2  0  0  0  0  0  0  0  0  0
   18.5543   -4.9535  -13.7399 N   0  0  0  0  0  0  0  0  0  0  0  0
   18.3050   -2.7139  -14.5863 C   0  0  0  0  0  0  0  0  0  0  0  0
   17.8874   -1.7340  -15.4487 O   0  0  0  0  0  0  0  0  0  0  0  0
   19.1489   -2.4063  -13.6796 O   0  0  0  0  0  0  0  0  0  0  0  0
  2  1  1  1
  2  4  1  0
  2  3  1  0
  4  5  1  1
  6  4  1  0
  7  6  2  0
  8  6  1  0
  9 13  1  0
  9  8  1  0
  9 10  1  6
 11 15  1  0
 11 10  1  0
 12 11  2  0
 13 18  1  0
 14 13  2  0
 17 16  1  1
 17 19  1  0
 18 17  1  0
 19 21  2  0
 19 20  1  0
M  END
$$$$
