TDA.pdb
     RDKit          3D

 21 20  0  0  1  0  0  0  0  0999 V2000
   17.8778  -11.7903  -17.9469 C   0  0  0  0  0  0  0  0  0  0  0  0
   17.9410  -10.5549  -17.0707 C   0  0  1  0  0  0  0  0  0  0  0  0
   16.9103  -10.6844  -16.1261 O   0  0  0  0  0  0  0  0  0  0  0  0
   19.2605  -10.5569  -16.3715 C   0  0  2  0  0  0  0  0  0  0  0  0
   19.3206  -11.7243  -15.5326 N   0  0  0  0  0  0  0  0  0  0  0  0
   19.5485   -9.3516  -15.5870 C   0  0  0  0  0  0  0  0  0  0  0  0
   19.0525   -9.2963  -14.4376 O   0  0  0  0  0  0  0  0  0  0  0  0
   20.3298   -8.2631  -16.0185 N   0  0  0  0  0  0  0  0  0  0  0  0
   20.6157   -7.0765  -15.2968 C   0  0  1  0  0  0  0  0  0  0  0  0
   22.0013   -6.8916  -14.8053 C   0  0  0  0  0  0  0  0  0  0  0  0
   22.1793   -5.6288  -14.0441 C   0  0  0  0  0  0  0  0  0  0  0  0
   21.6836   -5.4921  -12.8965 O   0  0  0  0  0  0  0  0  0  0  0  0
   20.1301   -5.8612  -16.0462 C   0  0  0  0  0  0  0  0  0  0  0  0
   20.6206   -5.5404  -17.1594 O   0  0  0  0  0  0  0  0  0  0  0  0
   22.8881   -4.5471  -14.5426 O   0  0  0  0  0  0  0  0  0  0  0  0
   17.2608   -3.4383  -15.8224 C   0  0  0  0  0  0  0  0  0  0  0  0
   18.6400   -3.8872  -16.2741 C   0  0  2  0  0  0  0  0  0  0  0  0
   19.1022   -5.0262  -15.5338 N   0  0  0  0  0  0  0  0  0  0  0  0
   19.5531   -2.7281  -16.0903 C   0  0  0  0  0  0  0  0  0  0  0  0
   20.6613   -2.7623  -15.2846 O   0  0  0  0  0  0  0  0  0  0  0  0
   19.2896   -1.6473  -16.7157 O   0  0  0  0  0  0  0  0  0  0  0  0
  2  1  1  6
  2  4  1  0
  2  3  1  0
  4  5  1  1
  6  4  1  0
  7  6  2  0
  8  6  1  0
  9 13  1  0
  9  8  1  0
  9 10  1  6
 11 15  1  0
 11 10  1  0
 12 11  2  0
 13 18  1  0
 14 13  2  0
 17 16  1  1
 17 19  1  0
 18 17  1  0
 19 21  2  0
 19 20  1  0
M  END
$$$$
