TDA.pdb
     RDKit          3D

 21 20  0  0  1  0  0  0  0  0999 V2000
   18.0572   -9.0152  -18.0783 C   0  0  0  0  0  0  0  0  0  0  0  0
   18.0652  -10.1967  -17.1286 C   0  0  1  0  0  0  0  0  0  0  0  0
   17.9789  -11.3487  -17.9266 O   0  0  0  0  0  0  0  0  0  0  0  0
   19.3698  -10.1908  -16.4019 C   0  0  2  0  0  0  0  0  0  0  0  0
   19.4956  -11.4394  -15.6980 N   0  0  0  0  0  0  0  0  0  0  0  0
   19.5612   -9.0660  -15.4804 C   0  0  0  0  0  0  0  0  0  0  0  0
   18.7043   -8.9265  -14.5769 O   0  0  0  0  0  0  0  0  0  0  0  0
   20.6204   -8.1402  -15.5299 N   0  0  0  0  0  0  0  0  0  0  0  0
   20.7613   -6.9600  -14.7567 C   0  0  1  0  0  0  0  0  0  0  0  0
   22.0715   -6.7195  -14.1078 C   0  0  0  0  0  0  0  0  0  0  0  0
   22.1083   -5.4512  -13.3358 C   0  0  0  0  0  0  0  0  0  0  0  0
   21.4318   -5.3161  -12.2844 O   0  0  0  0  0  0  0  0  0  0  0  0
   20.3002   -5.7512  -15.5318 C   0  0  0  0  0  0  0  0  0  0  0  0
   20.8404   -5.4278  -16.6210 O   0  0  0  0  0  0  0  0  0  0  0  0
   22.8748   -4.3623  -13.7201 O   0  0  0  0  0  0  0  0  0  0  0  0
   17.4600   -3.2917  -15.4662 C   0  0  0  0  0  0  0  0  0  0  0  0
   18.8832   -3.7255  -15.7726 C   0  0  2  0  0  0  0  0  0  0  0  0
   19.2406   -4.9255  -15.0715 N   0  0  0  0  0  0  0  0  0  0  0  0
   19.7715   -2.5984  -15.3833 C   0  0  0  0  0  0  0  0  0  0  0  0
   20.0182   -1.5196  -16.1918 O   0  0  0  0  0  0  0  0  0  0  0  0
   20.3319   -2.6398  -14.2374 O   0  0  0  0  0  0  0  0  0  0  0  0
  2  1  1  6
  2  4  1  0
  2  3  1  0
  4  5  1  1
  6  4  1  0
  7  6  2  0
  8  6  1  0
  9 13  1  0
  9  8  1  0
  9 10  1  6
 11 15  1  0
 11 10  1  0
 12 11  2  0
 13 18  1  0
 14 13  2  0
 17 16  1  1
 17 19  1  0
 18 17  1  0
 19 21  2  0
 19 20  1  0
M  END
$$$$
