TDA.pdb
     RDKit          3D

 21 20  0  0  1  0  0  0  0  0999 V2000
   17.6707  -11.2675  -15.5995 C   0  0  0  0  0  0  0  0  0  0  0  0
   19.1840  -11.3553  -15.6032 C   0  0  1  0  0  0  0  0  0  0  0  0
   19.5095  -12.5856  -16.1964 O   0  0  0  0  0  0  0  0  0  0  0  0
   19.7049  -10.2409  -16.4498 C   0  0  2  0  0  0  0  0  0  0  0  0
   20.9908  -10.6323  -16.9632 N   0  0  0  0  0  0  0  0  0  0  0  0
   19.8006   -8.9421  -15.7752 C   0  0  0  0  0  0  0  0  0  0  0  0
   18.7386   -8.4729  -15.3041 O   0  0  0  0  0  0  0  0  0  0  0  0
   20.9790   -8.1886  -15.6167 N   0  0  0  0  0  0  0  0  0  0  0  0
   21.0899   -6.8741  -15.0967 C   0  0  1  0  0  0  0  0  0  0  0  0
   22.1693   -6.6153  -14.1151 C   0  0  0  0  0  0  0  0  0  0  0  0
   22.1933   -5.2076  -13.6424 C   0  0  0  0  0  0  0  0  0  0  0  0
   21.3750   -4.8036  -12.7772 O   0  0  0  0  0  0  0  0  0  0  0  0
   21.1004   -5.8552  -16.2085 C   0  0  0  0  0  0  0  0  0  0  0  0
   22.0113   -5.8439  -17.0764 O   0  0  0  0  0  0  0  0  0  0  0  0
   23.1006   -4.2734  -14.1168 O   0  0  0  0  0  0  0  0  0  0  0  0
   18.6834   -3.6194  -17.8985 C   0  0  0  0  0  0  0  0  0  0  0  0
   20.0903   -3.9381  -17.4225 C   0  0  2  0  0  0  0  0  0  0  0  0
   20.0886   -4.8660  -16.3279 N   0  0  0  0  0  0  0  0  0  0  0  0
   20.7141   -2.6484  -17.0245 C   0  0  0  0  0  0  0  0  0  0  0  0
   21.1504   -1.7126  -17.9258 O   0  0  0  0  0  0  0  0  0  0  0  0
   20.8491   -2.4023  -15.7795 O   0  0  0  0  0  0  0  0  0  0  0  0
  2  1  1  6
  2  4  1  0
  2  3  1  0
  4  5  1  1
  6  4  1  0
  7  6  2  0
  8  6  1  0
  9 13  1  0
  9  8  1  0
  9 10  1  6
 11 15  1  0
 11 10  1  0
 12 11  2  0
 13 18  1  0
 14 13  2  0
 17 16  1  1
 17 19  1  0
 18 17  1  0
 19 21  2  0
 19 20  1  0
M  END
$$$$
