TDA.pdb
     RDKit          3D

 21 20  0  0  1  0  0  0  0  0999 V2000
   21.9481  -11.6786  -16.6812 C   0  0  0  0  0  0  0  0  0  0  0  0
   20.5447  -11.9337  -17.1944 C   0  0  1  0  0  0  0  0  0  0  0  0
   20.3204  -13.3141  -17.0692 O   0  0  0  0  0  0  0  0  0  0  0  0
   19.5936  -11.1926  -16.3135 C   0  0  2  0  0  0  0  0  0  0  0  0
   18.2632  -11.6620  -16.5965 N   0  0  0  0  0  0  0  0  0  0  0  0
   19.6524   -9.7316  -16.4278 C   0  0  0  0  0  0  0  0  0  0  0  0
   20.2917   -9.2685  -17.4009 O   0  0  0  0  0  0  0  0  0  0  0  0
   19.0536   -8.8178  -15.5402 N   0  0  0  0  0  0  0  0  0  0  0  0
   19.1076   -7.4023  -15.6051 C   0  0  1  0  0  0  0  0  0  0  0  0
   17.8498   -6.6578  -15.3617 C   0  0  0  0  0  0  0  0  0  0  0  0
   16.7691   -7.0257  -16.3117 C   0  0  0  0  0  0  0  0  0  0  0  0
   15.7306   -7.6114  -15.9120 O   0  0  0  0  0  0  0  0  0  0  0  0
   20.2365   -6.8680  -14.7600 C   0  0  0  0  0  0  0  0  0  0  0  0
   20.3620   -7.1978  -13.5523 O   0  0  0  0  0  0  0  0  0  0  0  0
   16.8388   -6.7511  -17.6684 O   0  0  0  0  0  0  0  0  0  0  0  0
   23.3804   -4.8478  -15.3343 C   0  0  0  0  0  0  0  0  0  0  0  0
   22.3350   -5.5653  -14.4977 C   0  0  2  0  0  0  0  0  0  0  0  0
   21.2058   -5.9724  -15.2841 N   0  0  0  0  0  0  0  0  0  0  0  0
   21.9221   -4.6246  -13.4227 C   0  0  0  0  0  0  0  0  0  0  0  0
   22.6464   -4.4259  -12.2762 O   0  0  0  0  0  0  0  0  0  0  0  0
   20.8377   -3.9698  -13.5776 O   0  0  0  0  0  0  0  0  0  0  0  0
  2  1  1  1
  2  4  1  0
  2  3  1  0
  4  5  1  6
  6  4  1  0
  7  6  2  0
  8  6  1  0
  9 13  1  0
  9  8  1  0
  9 10  1  1
 11 15  1  0
 11 10  1  0
 12 11  2  0
 13 18  1  0
 14 13  2  0
 17 16  1  6
 17 19  1  0
 18 17  1  0
 19 21  2  0
 19 20  1  0
M  END
$$$$
