TDA.pdb
     RDKit          3D

 21 20  0  0  1  0  0  0  0  0999 V2000
   23.2162  -11.6477  -14.0560 C   0  0  0  0  0  0  0  0  0  0  0  0
   23.8059  -12.4167  -15.2217 C   0  0  1  0  0  0  0  0  0  0  0  0
   23.6362  -13.7788  -14.9259 O   0  0  0  0  0  0  0  0  0  0  0  0
   23.0193  -12.0706  -16.4429 C   0  0  2  0  0  0  0  0  0  0  0  0
   23.5189  -12.8615  -17.5361 N   0  0  0  0  0  0  0  0  0  0  0  0
   23.0235  -10.6482  -16.8008 C   0  0  0  0  0  0  0  0  0  0  0  0
   24.1281  -10.1522  -17.1227 O   0  0  0  0  0  0  0  0  0  0  0  0
   21.8965   -9.8049  -16.8111 N   0  0  0  0  0  0  0  0  0  0  0  0
   21.8593   -8.4317  -17.1624 C   0  0  1  0  0  0  0  0  0  0  0  0
   21.1245   -8.0603  -18.3943 C   0  0  0  0  0  0  0  0  0  0  0  0
   21.2534   -6.6193  -18.7301 C   0  0  0  0  0  0  0  0  0  0  0  0
   20.2621   -5.8489  -18.6579 O   0  0  0  0  0  0  0  0  0  0  0  0
   21.4293   -7.5879  -15.9888 C   0  0  0  0  0  0  0  0  0  0  0  0
   20.5058   -7.9599  -15.2195 O   0  0  0  0  0  0  0  0  0  0  0  0
   22.4497   -6.0486  -19.1352 O   0  0  0  0  0  0  0  0  0  0  0  0
   22.5747   -4.3877  -14.3200 C   0  0  0  0  0  0  0  0  0  0  0  0
   21.6710   -5.5902  -14.5327 C   0  0  2  0  0  0  0  0  0  0  0  0
   22.0427   -6.3407  -15.6980 N   0  0  0  0  0  0  0  0  0  0  0  0
   20.2831   -5.0710  -14.6557 C   0  0  0  0  0  0  0  0  0  0  0  0
   19.4790   -4.8076  -13.5776 O   0  0  0  0  0  0  0  0  0  0  0  0
   19.8191   -4.8607  -15.8259 O   0  0  0  0  0  0  0  0  0  0  0  0
  2  1  1  1
  2  4  1  0
  2  3  1  0
  4  5  1  6
  6  4  1  0
  7  6  2  0
  8  6  1  0
  9 13  1  0
  9  8  1  0
  9 10  1  6
 11 15  1  0
 11 10  1  0
 12 11  2  0
 13 18  1  0
 14 13  2  0
 17 16  1  6
 17 19  1  0
 18 17  1  0
 19 21  2  0
 19 20  1  0
M  END
$$$$
