TDA.pdb
     RDKit          3D

 21 20  0  0  1  0  0  0  0  0999 V2000
   18.8034   -8.8707  -17.9805 C   0  0  0  0  0  0  0  0  0  0  0  0
   19.6801   -9.6558  -17.0250 C   0  0  1  0  0  0  0  0  0  0  0  0
   20.2655  -10.6861  -17.7782 O   0  0  0  0  0  0  0  0  0  0  0  0
   20.7461   -8.7383  -16.5233 C   0  0  2  0  0  0  0  0  0  0  0  0
   21.7025   -9.5230  -15.7885 N   0  0  0  0  0  0  0  0  0  0  0  0
   20.2670   -7.6212  -15.7024 C   0  0  0  0  0  0  0  0  0  0  0  0
   19.5429   -7.9131  -14.7223 O   0  0  0  0  0  0  0  0  0  0  0  0
   20.5531   -6.2613  -15.9261 N   0  0  0  0  0  0  0  0  0  0  0  0
   20.1333   -5.1586  -15.1397 C   0  0  1  0  0  0  0  0  0  0  0  0
   21.1834   -4.2607  -14.6043 C   0  0  0  0  0  0  0  0  0  0  0  0
   22.1358   -4.9599  -13.7044 C   0  0  0  0  0  0  0  0  0  0  0  0
   21.8180   -5.2385  -12.5200 O   0  0  0  0  0  0  0  0  0  0  0  0
   19.0480   -4.3805  -15.8405 C   0  0  0  0  0  0  0  0  0  0  0  0
   19.2064   -3.9463  -17.0107 O   0  0  0  0  0  0  0  0  0  0  0  0
   23.4063   -5.3396  -14.1076 O   0  0  0  0  0  0  0  0  0  0  0  0
   15.4016   -3.6668  -15.4137 C   0  0  0  0  0  0  0  0  0  0  0  0
   16.8037   -3.3170  -15.8822 C   0  0  2  0  0  0  0  0  0  0  0  0
   17.8030   -4.1028  -15.2165 N   0  0  0  0  0  0  0  0  0  0  0  0
   17.0005   -1.8681  -15.6122 C   0  0  0  0  0  0  0  0  0  0  0  0
   16.4667   -0.8768  -16.3937 O   0  0  0  0  0  0  0  0  0  0  0  0
   17.7026   -1.5328  -14.6005 O   0  0  0  0  0  0  0  0  0  0  0  0
  2  1  1  6
  2  4  1  0
  2  3  1  0
  4  5  1  1
  6  4  1  0
  7  6  2  0
  8  6  1  0
  9 13  1  0
  9  8  1  0
  9 10  1  6
 11 15  1  0
 11 10  1  0
 12 11  2  0
 13 18  1  0
 14 13  2  0
 17 16  1  1
 17 19  1  0
 18 17  1  0
 19 21  2  0
 19 20  1  0
M  END
$$$$
