GSF.pdb
     RDKit          3D

 22 22  0  0  1  0  0  0  0  0999 V2000
    7.8389  -12.2413   18.3994 N   0  0  0  0  0  0  0  0  0  0  0  0
    8.7868  -13.0615   19.0887 C   0  0  0  0  0  0  0  0  0  0  0  0
    8.1722  -13.9732   20.0585 C   0  0  0  0  0  0  0  0  0  0  0  0
    6.9609  -13.8070   20.3552 O   0  0  0  0  0  0  0  0  0  0  0  0
    9.5895  -17.6275   21.0343 O   0  0  0  0  0  0  0  0  0  0  0  0
    8.2559  -17.3301   21.3721 C   0  0  0  0  0  0  0  0  0  0  0  0
    8.1970  -15.8543   21.6730 C   0  0  2  0  0  0  0  0  0  0  0  0
    8.8489  -15.0434   20.6966 N   0  0  0  0  0  0  0  0  0  0  0  0
    8.8381  -15.6776   23.0283 C   0  0  0  0  0  0  0  0  0  0  0  0
   10.0342  -15.2998   23.0904 O   0  0  0  0  0  0  0  0  0  0  0  0
    8.0836  -15.9394   24.1996 N   0  0  0  0  0  0  0  0  0  0  0  0
    8.5805  -15.7722   25.5476 C   0  0  1  0  0  0  0  0  0  0  0  0
    7.5355  -15.3166   26.4977 C   0  0  0  0  0  0  0  0  0  0  0  0
    7.2099  -13.8985   26.3478 C   0  0  0  0  0  0  0  0  0  0  0  0
    5.8670  -13.5042   26.3266 C   0  0  0  0  0  0  0  0  0  0  0  0
    5.5142  -12.1788   26.2084 C   0  0  0  0  0  0  0  0  0  0  0  0
    6.5150  -11.2376   26.1103 C   0  0  0  0  0  0  0  0  0  0  0  0
    7.8540  -11.6027   26.1288 C   0  0  0  0  0  0  0  0  0  0  0  0
    8.1877  -12.9314   26.2476 C   0  0  0  0  0  0  0  0  0  0  0  0
    9.4158  -16.9010   26.0160 C   0  0  0  0  0  0  0  0  0  0  0  0
   10.0423  -16.7901   27.0965 O   0  0  0  0  0  0  0  0  0  0  0  0
    9.5752  -18.1051   25.3561 O   0  0  0  0  0  0  0  0  0  0  0  0
  1  2  1  0
  2  3  1  0
  3  4  2  0
  3  8  1  0
  5  6  1  0
  7  9  1  0
  7  6  1  6
  8  7  1  0
  9 10  2  0
 11 12  1  0
 11  9  1  0
 12 13  1  1
 13 14  1  0
 14 19  2  0
 15 16  2  0
 15 14  1  0
 16 17  1  0
 17 18  2  0
 19 18  1  0
 20 22  1  0
 20 12  1  0
 21 20  2  0
M  END
$$$$
