GSF.pdb
     RDKit          3D

 22 22  0  0  1  0  0  0  0  0999 V2000
    7.2640  -20.3796   21.6587 N   0  0  0  0  0  0  0  0  0  0  0  0
    6.6006  -19.1662   22.0250 C   0  0  0  0  0  0  0  0  0  0  0  0
    7.4567  -17.9805   21.9233 C   0  0  0  0  0  0  0  0  0  0  0  0
    8.6922  -18.1444   21.7511 O   0  0  0  0  0  0  0  0  0  0  0  0
    6.0458  -14.1529   22.3403 O   0  0  0  0  0  0  0  0  0  0  0  0
    7.2411  -14.2329   21.6014 C   0  0  0  0  0  0  0  0  0  0  0  0
    7.8961  -15.5410   21.9647 C   0  0  2  0  0  0  0  0  0  0  0  0
    6.9914  -16.6436   22.0054 N   0  0  0  0  0  0  0  0  0  0  0  0
    8.5384  -15.3269   23.3140 C   0  0  0  0  0  0  0  0  0  0  0  0
    9.4556  -14.4759   23.4226 O   0  0  0  0  0  0  0  0  0  0  0  0
    8.0977  -16.0853   24.4278 N   0  0  0  0  0  0  0  0  0  0  0  0
    8.7123  -16.0502   25.7365 C   0  0  1  0  0  0  0  0  0  0  0  0
    7.7853  -15.5886   26.7995 C   0  0  0  0  0  0  0  0  0  0  0  0
    7.4922  -14.1580   26.7164 C   0  0  0  0  0  0  0  0  0  0  0  0
    8.5421  -13.2381   26.8208 C   0  0  0  0  0  0  0  0  0  0  0  0
    8.3158  -11.8833   26.7275 C   0  0  0  0  0  0  0  0  0  0  0  0
    7.0260  -11.4438   26.5277 C   0  0  0  0  0  0  0  0  0  0  0  0
    5.9676  -12.3354   26.4209 C   0  0  0  0  0  0  0  0  0  0  0  0
    6.2124  -13.6851   26.5165 C   0  0  0  0  0  0  0  0  0  0  0  0
    9.4919  -17.2668   26.0584 C   0  0  0  0  0  0  0  0  0  0  0  0
    9.4728  -18.2334   25.2601 O   0  0  0  0  0  0  0  0  0  0  0  0
   10.2652  -17.4444   27.1903 O   0  0  0  0  0  0  0  0  0  0  0  0
  1  2  1  0
  2  3  1  0
  3  4  2  0
  3  8  1  0
  5  6  1  0
  7  9  1  0
  7  6  1  1
  8  7  1  0
  9 10  2  0
 11 12  1  0
 11  9  1  0
 12 13  1  1
 13 14  1  0
 14 19  2  0
 15 16  2  0
 15 14  1  0
 16 17  1  0
 17 18  2  0
 19 18  1  0
 20 22  1  0
 20 12  1  0
 21 20  2  0
M  END
$$$$
