GSF.pdb
     RDKit          3D

 22 22  0  0  1  0  0  0  0  0999 V2000
    7.9784  -12.4469   18.0502 N   0  0  0  0  0  0  0  0  0  0  0  0
    8.8049  -13.2971   18.8505 C   0  0  0  0  0  0  0  0  0  0  0  0
    8.0747  -13.9750   19.9260 C   0  0  0  0  0  0  0  0  0  0  0  0
    6.8413  -14.1760   19.7809 O   0  0  0  0  0  0  0  0  0  0  0  0
    8.8979  -17.3616   21.4217 O   0  0  0  0  0  0  0  0  0  0  0  0
    7.6779  -16.6597   21.4317 C   0  0  0  0  0  0  0  0  0  0  0  0
    7.9577  -15.2996   22.0183 C   0  0  2  0  0  0  0  0  0  0  0  0
    8.6615  -14.4277   21.1348 N   0  0  0  0  0  0  0  0  0  0  0  0
    8.7555  -15.5426   23.2767 C   0  0  0  0  0  0  0  0  0  0  0  0
   10.0096  -15.5227   23.2147 O   0  0  0  0  0  0  0  0  0  0  0  0
    8.0793  -15.7873   24.4985 N   0  0  0  0  0  0  0  0  0  0  0  0
    8.7279  -15.8853   25.7875 C   0  0  1  0  0  0  0  0  0  0  0  0
    7.8583  -15.4491   26.9081 C   0  0  0  0  0  0  0  0  0  0  0  0
    7.3530  -14.0869   26.7388 C   0  0  0  0  0  0  0  0  0  0  0  0
    8.2403  -13.0101   26.8510 C   0  0  0  0  0  0  0  0  0  0  0  0
    7.8134  -11.7127   26.6786 C   0  0  0  0  0  0  0  0  0  0  0  0
    6.4850  -11.4897   26.3911 C   0  0  0  0  0  0  0  0  0  0  0  0
    5.5852  -12.5401   26.2746 C   0  0  0  0  0  0  0  0  0  0  0  0
    6.0296  -13.8295   26.4500 C   0  0  0  0  0  0  0  0  0  0  0  0
    9.4393  -17.1664   25.9975 C   0  0  0  0  0  0  0  0  0  0  0  0
   10.1863  -17.2936   26.9964 O   0  0  0  0  0  0  0  0  0  0  0  0
    9.3549  -18.2722   25.1723 O   0  0  0  0  0  0  0  0  0  0  0  0
  1  2  1  0
  2  3  1  0
  3  4  2  0
  3  8  1  0
  5  6  1  0
  7  9  1  0
  7  6  1  6
  8  7  1  0
  9 10  2  0
 11 12  1  0
 11  9  1  0
 12 13  1  1
 13 14  1  0
 14 19  2  0
 15 16  2  0
 15 14  1  0
 16 17  1  0
 17 18  2  0
 19 18  1  0
 20 22  1  0
 20 12  1  0
 21 20  2  0
M  END
$$$$
