GSF.pdb
     RDKit          3D

 22 22  0  0  1  0  0  0  0  0999 V2000
    7.8347  -12.3148   18.5884 N   0  0  0  0  0  0  0  0  0  0  0  0
    8.7456  -13.1641   19.2922 C   0  0  0  0  0  0  0  0  0  0  0  0
    8.1012  -13.9807   20.3253 C   0  0  0  0  0  0  0  0  0  0  0  0
    6.9057  -13.7324   20.6284 O   0  0  0  0  0  0  0  0  0  0  0  0
    9.1422  -17.7036   21.3648 O   0  0  0  0  0  0  0  0  0  0  0  0
    7.8936  -17.2188   21.7971 C   0  0  0  0  0  0  0  0  0  0  0  0
    8.0630  -15.7454   22.0661 C   0  0  2  0  0  0  0  0  0  0  0  0
    8.7322  -15.0444   21.0188 N   0  0  0  0  0  0  0  0  0  0  0  0
    8.8375  -15.6420   23.3578 C   0  0  0  0  0  0  0  0  0  0  0  0
   10.0664  -15.3878   23.3111 O   0  0  0  0  0  0  0  0  0  0  0  0
    8.1682  -15.8326   24.5929 N   0  0  0  0  0  0  0  0  0  0  0  0
    8.8172  -15.8222   25.8855 C   0  0  1  0  0  0  0  0  0  0  0  0
    7.9359  -15.3270   26.9720 C   0  0  0  0  0  0  0  0  0  0  0  0
    7.4302  -13.9772   26.7233 C   0  0  0  0  0  0  0  0  0  0  0  0
    8.3110  -12.8921   26.8022 C   0  0  0  0  0  0  0  0  0  0  0  0
    7.8838  -11.6069   26.5556 C   0  0  0  0  0  0  0  0  0  0  0  0
    6.5618  -11.4045   26.2266 C   0  0  0  0  0  0  0  0  0  0  0  0
    5.6685  -12.4634   26.1418 C   0  0  0  0  0  0  0  0  0  0  0  0
    6.1129  -13.7405   26.3915 C   0  0  0  0  0  0  0  0  0  0  0  0
    9.5582  -17.0676   26.1871 C   0  0  0  0  0  0  0  0  0  0  0  0
   10.2760  -17.1178   27.2139 O   0  0  0  0  0  0  0  0  0  0  0  0
    9.5326  -18.2183   25.4215 O   0  0  0  0  0  0  0  0  0  0  0  0
  1  2  1  0
  2  3  1  0
  3  4  2  0
  3  8  1  0
  5  6  1  0
  7  9  1  0
  7  6  1  6
  8  7  1  0
  9 10  2  0
 11 12  1  0
 11  9  1  0
 12 13  1  1
 13 14  1  0
 14 19  2  0
 15 16  2  0
 15 14  1  0
 16 17  1  0
 17 18  2  0
 19 18  1  0
 20 22  1  0
 20 12  1  0
 21 20  2  0
M  END
$$$$
