GSF.pdb
     RDKit          3D

 22 22  0  0  1  0  0  0  0  0999 V2000
    8.1000  -12.7924   17.8012 N   0  0  0  0  0  0  0  0  0  0  0  0
    8.9873  -13.3714   18.7623 C   0  0  0  0  0  0  0  0  0  0  0  0
    8.2936  -14.0421   19.8660 C   0  0  0  0  0  0  0  0  0  0  0  0
    7.0373  -14.1032   19.8373 O   0  0  0  0  0  0  0  0  0  0  0  0
    9.3496  -17.3569   21.1439 O   0  0  0  0  0  0  0  0  0  0  0  0
    8.0633  -16.8802   21.4593 C   0  0  0  0  0  0  0  0  0  0  0  0
    8.2218  -15.4493   21.9058 C   0  0  2  0  0  0  0  0  0  0  0  0
    8.9402  -14.6356   20.9796 N   0  0  0  0  0  0  0  0  0  0  0  0
    8.9350  -15.5022   23.2353 C   0  0  0  0  0  0  0  0  0  0  0  0
   10.1713  -15.2839   23.2711 O   0  0  0  0  0  0  0  0  0  0  0  0
    8.2016  -15.7954   24.4125 N   0  0  0  0  0  0  0  0  0  0  0  0
    8.7643  -15.8112   25.7448 C   0  0  1  0  0  0  0  0  0  0  0  0
    7.7818  -15.4390   26.7929 C   0  0  0  0  0  0  0  0  0  0  0  0
    7.2855  -14.0708   26.6468 C   0  0  0  0  0  0  0  0  0  0  0  0
    8.1372  -12.9998   26.9415 C   0  0  0  0  0  0  0  0  0  0  0  0
    7.7197  -11.6958   26.7985 C   0  0  0  0  0  0  0  0  0  0  0  0
    6.4368  -11.4603   26.3561 C   0  0  0  0  0  0  0  0  0  0  0  0
    5.5729  -12.5047   26.0572 C   0  0  0  0  0  0  0  0  0  0  0  0
    6.0072  -13.8009   26.2060 C   0  0  0  0  0  0  0  0  0  0  0  0
    9.5733  -17.0170   26.0326 C   0  0  0  0  0  0  0  0  0  0  0  0
    9.3855  -18.0548   25.3543 O   0  0  0  0  0  0  0  0  0  0  0  0
   10.5486  -17.1113   27.0076 O   0  0  0  0  0  0  0  0  0  0  0  0
  1  2  1  0
  2  3  1  0
  3  4  2  0
  3  8  1  0
  5  6  1  0
  7  9  1  0
  7  6  1  6
  8  7  1  0
  9 10  2  0
 11 12  1  0
 11  9  1  0
 12 13  1  1
 13 14  1  0
 14 19  2  0
 15 16  2  0
 15 14  1  0
 16 17  1  0
 17 18  2  0
 19 18  1  0
 20 22  1  0
 20 12  1  0
 21 20  2  0
M  END
$$$$
