GSF.pdb
     RDKit          3D

 22 22  0  0  1  0  0  0  0  0999 V2000
    8.0916  -12.8715   17.5574 N   0  0  0  0  0  0  0  0  0  0  0  0
    8.9285  -13.4516   18.5621 C   0  0  0  0  0  0  0  0  0  0  0  0
    8.1786  -14.0578   19.6664 C   0  0  0  0  0  0  0  0  0  0  0  0
    6.9258  -14.1282   19.5747 O   0  0  0  0  0  0  0  0  0  0  0  0
    8.6666  -17.3990   21.1331 O   0  0  0  0  0  0  0  0  0  0  0  0
    7.5152  -16.6261   21.3737 C   0  0  0  0  0  0  0  0  0  0  0  0
    7.9843  -15.2658   21.8226 C   0  0  2  0  0  0  0  0  0  0  0  0
    8.7665  -14.5782   20.8471 N   0  0  0  0  0  0  0  0  0  0  0  0
    8.7826  -15.4934   23.0835 C   0  0  0  0  0  0  0  0  0  0  0  0
   10.0368  -15.4903   23.0179 O   0  0  0  0  0  0  0  0  0  0  0  0
    8.1070  -15.7054   24.3116 N   0  0  0  0  0  0  0  0  0  0  0  0
    8.7556  -15.7645   25.6030 C   0  0  1  0  0  0  0  0  0  0  0  0
    7.8744  -15.3273   26.7143 C   0  0  0  0  0  0  0  0  0  0  0  0
    7.3741  -13.9638   26.5404 C   0  0  0  0  0  0  0  0  0  0  0  0
    8.2274  -12.8846   26.7988 C   0  0  0  0  0  0  0  0  0  0  0  0
    7.8059  -11.5851   26.6287 C   0  0  0  0  0  0  0  0  0  0  0  0
    6.5176  -11.3625   26.1956 C   0  0  0  0  0  0  0  0  0  0  0  0
    5.6521  -12.4151   25.9325 C   0  0  0  0  0  0  0  0  0  0  0  0
    6.0903  -13.7067   26.1080 C   0  0  0  0  0  0  0  0  0  0  0  0
    9.4956  -17.0249   25.8379 C   0  0  0  0  0  0  0  0  0  0  0  0
    9.1559  -18.0580   25.2137 O   0  0  0  0  0  0  0  0  0  0  0  0
   10.5605  -17.1767   26.7060 O   0  0  0  0  0  0  0  0  0  0  0  0
  1  2  1  0
  2  3  1  0
  3  4  2  0
  3  8  1  0
  5  6  1  0
  7  9  1  0
  7  6  1  6
  8  7  1  0
  9 10  2  0
 11 12  1  0
 11  9  1  0
 12 13  1  1
 13 14  1  0
 14 19  2  0
 15 16  2  0
 15 14  1  0
 16 17  1  0
 17 18  2  0
 19 18  1  0
 20 22  1  0
 20 12  1  0
 21 20  2  0
M  END
$$$$
