GSF.pdb
     RDKit          3D

 22 22  0  0  1  0  0  0  0  0999 V2000
    7.9457  -12.1867   18.9041 N   0  0  0  0  0  0  0  0  0  0  0  0
    8.4492  -13.4881   19.2191 C   0  0  0  0  0  0  0  0  0  0  0  0
    7.8669  -14.0591   20.4374 C   0  0  0  0  0  0  0  0  0  0  0  0
    7.5166  -13.2777   21.3591 O   0  0  0  0  0  0  0  0  0  0  0  0
    7.4043  -18.1293   21.1607 O   0  0  0  0  0  0  0  0  0  0  0  0
    6.4024  -17.2883   21.6805 C   0  0  0  0  0  0  0  0  0  0  0  0
    7.0141  -15.9196   21.8364 C   0  0  2  0  0  0  0  0  0  0  0  0
    7.6656  -15.4450   20.6589 N   0  0  0  0  0  0  0  0  0  0  0  0
    7.9920  -16.0261   22.9817 C   0  0  0  0  0  0  0  0  0  0  0  0
    9.2186  -16.1155   22.7274 O   0  0  0  0  0  0  0  0  0  0  0  0
    7.5116  -16.0232   24.3155 N   0  0  0  0  0  0  0  0  0  0  0  0
    8.3545  -16.0877   25.4890 C   0  0  1  0  0  0  0  0  0  0  0  0
    7.7466  -15.4350   26.6752 C   0  0  0  0  0  0  0  0  0  0  0  0
    7.3828  -14.0393   26.4322 C   0  0  0  0  0  0  0  0  0  0  0  0
    6.1305  -13.5763   26.8527 C   0  0  0  0  0  0  0  0  0  0  0  0
    5.7540  -12.2656   26.6637 C   0  0  0  0  0  0  0  0  0  0  0  0
    6.6392  -11.4089   26.0478 C   0  0  0  0  0  0  0  0  0  0  0  0
    7.8867  -11.8432   25.6217 C   0  0  0  0  0  0  0  0  0  0  0  0
    8.2458  -13.1559   25.8188 C   0  0  0  0  0  0  0  0  0  0  0  0
    8.9346  -17.4281   25.7296 C   0  0  0  0  0  0  0  0  0  0  0  0
    9.8732  -17.5488   26.5523 O   0  0  0  0  0  0  0  0  0  0  0  0
    8.5267  -18.5976   25.1158 O   0  0  0  0  0  0  0  0  0  0  0  0
  1  2  1  0
  2  3  1  0
  3  4  2  0
  3  8  1  0
  5  6  1  0
  7  9  1  0
  7  6  1  6
  8  7  1  0
  9 10  2  0
 11 12  1  0
 11  9  1  0
 12 13  1  1
 13 14  1  0
 14 19  2  0
 15 16  2  0
 15 14  1  0
 16 17  1  0
 17 18  2  0
 19 18  1  0
 20 22  1  0
 20 12  1  0
 21 20  2  0
M  END
$$$$
