GSF.pdb
     RDKit          3D

 22 22  0  0  1  0  0  0  0  0999 V2000
    8.3831  -18.4920   18.7531 N   0  0  0  0  0  0  0  0  0  0  0  0
    7.1090  -18.5381   19.4018 C   0  0  0  0  0  0  0  0  0  0  0  0
    7.0633  -17.7729   20.6515 C   0  0  0  0  0  0  0  0  0  0  0  0
    7.2811  -16.5346   20.6061 O   0  0  0  0  0  0  0  0  0  0  0  0
    6.2624  -19.3695   24.4455 O   0  0  0  0  0  0  0  0  0  0  0  0
    5.7011  -18.1207   24.1193 C   0  0  0  0  0  0  0  0  0  0  0  0
    6.5872  -17.5008   23.0693 C   0  0  2  0  0  0  0  0  0  0  0  0
    6.7883  -18.3305   21.9259 N   0  0  0  0  0  0  0  0  0  0  0  0
    7.9008  -17.2046   23.7518 C   0  0  0  0  0  0  0  0  0  0  0  0
    8.8644  -17.9923   23.5838 O   0  0  0  0  0  0  0  0  0  0  0  0
    8.0228  -16.0500   24.5652 N   0  0  0  0  0  0  0  0  0  0  0  0
    9.2572  -15.6034   25.1725 C   0  0  1  0  0  0  0  0  0  0  0  0
    9.3450  -14.1264   25.2872 C   0  0  0  0  0  0  0  0  0  0  0  0
    8.1795  -13.5369   25.9456 C   0  0  0  0  0  0  0  0  0  0  0  0
    8.2712  -13.1628   27.2914 C   0  0  0  0  0  0  0  0  0  0  0  0
    7.2065  -12.5854   27.9457 C   0  0  0  0  0  0  0  0  0  0  0  0
    6.0376  -12.3798   27.2469 C   0  0  0  0  0  0  0  0  0  0  0  0
    5.9211  -12.7417   25.9120 C   0  0  0  0  0  0  0  0  0  0  0  0
    6.9951  -13.3173   25.2746 C   0  0  0  0  0  0  0  0  0  0  0  0
    9.6250  -16.3578   26.3919 C   0  0  0  0  0  0  0  0  0  0  0  0
   10.7816  -16.2352   26.8604 O   0  0  0  0  0  0  0  0  0  0  0  0
    8.7883  -17.2107   27.0870 O   0  0  0  0  0  0  0  0  0  0  0  0
  1  2  1  0
  2  3  1  0
  3  4  2  0
  3  8  1  0
  5  6  1  0
  7  9  1  0
  7  6  1  1
  8  7  1  0
  9 10  2  0
 11 12  1  0
 11  9  1  0
 12 13  1  1
 13 14  1  0
 14 19  2  0
 15 16  2  0
 15 14  1  0
 16 17  1  0
 17 18  2  0
 19 18  1  0
 20 22  1  0
 20 12  1  0
 21 20  2  0
M  END
$$$$
