GSF.pdb
     RDKit          3D

 22 22  0  0  1  0  0  0  0  0999 V2000
    7.9863  -12.2542   18.8804 N   0  0  0  0  0  0  0  0  0  0  0  0
    8.4896  -13.5569   19.1906 C   0  0  0  0  0  0  0  0  0  0  0  0
    7.9468  -14.1102   20.4350 C   0  0  0  0  0  0  0  0  0  0  0  0
    7.4436  -13.3198   21.2748 O   0  0  0  0  0  0  0  0  0  0  0  0
    8.1137  -18.1354   21.5856 O   0  0  0  0  0  0  0  0  0  0  0  0
    6.9532  -17.4152   21.9259 C   0  0  0  0  0  0  0  0  0  0  0  0
    7.3370  -15.9583   21.9708 C   0  0  2  0  0  0  0  0  0  0  0  0
    7.9458  -15.4882   20.7689 N   0  0  0  0  0  0  0  0  0  0  0  0
    8.2798  -15.8097   23.1405 C   0  0  0  0  0  0  0  0  0  0  0  0
    9.5036  -15.6378   22.9169 O   0  0  0  0  0  0  0  0  0  0  0  0
    7.7705  -15.8665   24.4623 N   0  0  0  0  0  0  0  0  0  0  0  0
    8.5867  -15.8341   25.6559 C   0  0  1  0  0  0  0  0  0  0  0  0
    7.8541  -15.3324   26.8450 C   0  0  0  0  0  0  0  0  0  0  0  0
    7.3696  -13.9624   26.6782 C   0  0  0  0  0  0  0  0  0  0  0  0
    8.2950  -12.9147   26.6038 C   0  0  0  0  0  0  0  0  0  0  0  0
    7.8856  -11.6124   26.4262 C   0  0  0  0  0  0  0  0  0  0  0  0
    6.5366  -11.3550   26.3218 C   0  0  0  0  0  0  0  0  0  0  0  0
    5.5991  -12.3760   26.3923 C   0  0  0  0  0  0  0  0  0  0  0  0
    6.0263  -13.6709   26.5700 C   0  0  0  0  0  0  0  0  0  0  0  0
    9.3739  -17.0694   25.8698 C   0  0  0  0  0  0  0  0  0  0  0  0
   10.3384  -17.0480   26.6707 O   0  0  0  0  0  0  0  0  0  0  0  0
    9.1390  -18.2838   25.2527 O   0  0  0  0  0  0  0  0  0  0  0  0
  1  2  1  0
  2  3  1  0
  3  4  2  0
  3  8  1  0
  5  6  1  0
  7  9  1  0
  7  6  1  6
  8  7  1  0
  9 10  2  0
 11 12  1  0
 11  9  1  0
 12 13  1  1
 13 14  1  0
 14 19  2  0
 15 16  2  0
 15 14  1  0
 16 17  1  0
 17 18  2  0
 19 18  1  0
 20 22  1  0
 20 12  1  0
 21 20  2  0
M  END
$$$$
