GSF.pdb
     RDKit          3D

 22 22  0  0  1  0  0  0  0  0999 V2000
    7.9066  -12.3195   18.2599 N   0  0  0  0  0  0  0  0  0  0  0  0
    8.7824  -13.1377   19.0408 C   0  0  0  0  0  0  0  0  0  0  0  0
    8.0820  -13.9615   20.0308 C   0  0  0  0  0  0  0  0  0  0  0  0
    6.8542  -13.7610   20.2188 O   0  0  0  0  0  0  0  0  0  0  0  0
    8.9955  -17.6716   21.1116 O   0  0  0  0  0  0  0  0  0  0  0  0
    7.7462  -17.1439   21.4881 C   0  0  0  0  0  0  0  0  0  0  0  0
    7.9623  -15.6867   21.8072 C   0  0  2  0  0  0  0  0  0  0  0  0
    8.6919  -14.9819   20.8036 N   0  0  0  0  0  0  0  0  0  0  0  0
    8.6969  -15.6513   23.1256 C   0  0  0  0  0  0  0  0  0  0  0  0
    9.9466  -15.5267   23.1220 O   0  0  0  0  0  0  0  0  0  0  0  0
    7.9680  -15.7587   24.3367 N   0  0  0  0  0  0  0  0  0  0  0  0
    8.5688  -15.8189   25.6509 C   0  0  1  0  0  0  0  0  0  0  0  0
    7.6518  -15.3704   26.7281 C   0  0  0  0  0  0  0  0  0  0  0  0
    7.2588  -13.9680   26.5929 C   0  0  0  0  0  0  0  0  0  0  0  0
    5.9075  -13.6515   26.4103 C   0  0  0  0  0  0  0  0  0  0  0  0
    5.4894  -12.3446   26.2992 C   0  0  0  0  0  0  0  0  0  0  0  0
    6.4325  -11.3435   26.3716 C   0  0  0  0  0  0  0  0  0  0  0  0
    7.7783  -11.6309   26.5523 C   0  0  0  0  0  0  0  0  0  0  0  0
    8.1777  -12.9422   26.6612 C   0  0  0  0  0  0  0  0  0  0  0  0
    9.2889  -17.0848   25.9164 C   0  0  0  0  0  0  0  0  0  0  0  0
   10.0347  -17.1641   26.9212 O   0  0  0  0  0  0  0  0  0  0  0  0
    9.2142  -18.2251   25.1387 O   0  0  0  0  0  0  0  0  0  0  0  0
  1  2  1  0
  2  3  1  0
  3  4  2  0
  3  8  1  0
  5  6  1  0
  7  9  1  0
  7  6  1  6
  8  7  1  0
  9 10  2  0
 11 12  1  0
 11  9  1  0
 12 13  1  1
 13 14  1  0
 14 19  2  0
 15 16  2  0
 15 14  1  0
 16 17  1  0
 17 18  2  0
 19 18  1  0
 20 22  1  0
 20 12  1  0
 21 20  2  0
M  END
$$$$
