GSF.pdb
     RDKit          3D

 22 22  0  0  1  0  0  0  0  0999 V2000
    7.9093  -12.1642   18.7550 N   0  0  0  0  0  0  0  0  0  0  0  0
    8.7865  -13.1191   19.3593 C   0  0  0  0  0  0  0  0  0  0  0  0
    8.1732  -13.8517   20.4713 C   0  0  0  0  0  0  0  0  0  0  0  0
    7.3223  -13.2595   21.1842 O   0  0  0  0  0  0  0  0  0  0  0  0
    8.8672  -17.8506   21.3186 O   0  0  0  0  0  0  0  0  0  0  0  0
    7.6582  -17.3003   21.7842 C   0  0  0  0  0  0  0  0  0  0  0  0
    7.8846  -15.8195   21.9513 C   0  0  2  0  0  0  0  0  0  0  0  0
    8.4704  -15.1963   20.8092 N   0  0  0  0  0  0  0  0  0  0  0  0
    8.7764  -15.6661   23.1598 C   0  0  0  0  0  0  0  0  0  0  0  0
    9.9944  -15.4126   22.9881 O   0  0  0  0  0  0  0  0  0  0  0  0
    8.2269  -15.8100   24.4586 N   0  0  0  0  0  0  0  0  0  0  0  0
    8.9932  -15.7428   25.6835 C   0  0  1  0  0  0  0  0  0  0  0  0
    8.1978  -15.2566   26.8382 C   0  0  0  0  0  0  0  0  0  0  0  0
    7.5898  -13.9479   26.5993 C   0  0  0  0  0  0  0  0  0  0  0  0
    6.1975  -13.8504   26.4926 C   0  0  0  0  0  0  0  0  0  0  0  0
    5.5807  -12.6366   26.2888 C   0  0  0  0  0  0  0  0  0  0  0  0
    6.3645  -11.5084   26.1906 C   0  0  0  0  0  0  0  0  0  0  0  0
    7.7469  -11.5783   26.2929 C   0  0  0  0  0  0  0  0  0  0  0  0
    8.3458  -12.7993   26.4965 C   0  0  0  0  0  0  0  0  0  0  0  0
    9.8103  -16.9504   25.9388 C   0  0  0  0  0  0  0  0  0  0  0  0
    9.5185  -18.0203   25.3536 O   0  0  0  0  0  0  0  0  0  0  0  0
   10.9004  -17.0134   26.7865 O   0  0  0  0  0  0  0  0  0  0  0  0
  1  2  1  0
  2  3  1  0
  3  4  2  0
  3  8  1  0
  5  6  1  0
  7  9  1  0
  7  6  1  6
  8  7  1  0
  9 10  2  0
 11 12  1  0
 11  9  1  0
 12 13  1  1
 13 14  1  0
 14 19  2  0
 15 16  2  0
 15 14  1  0
 16 17  1  0
 17 18  2  0
 19 18  1  0
 20 22  1  0
 20 12  1  0
 21 20  2  0
M  END
$$$$
