GSF.pdb
     RDKit          3D

 22 22  0  0  1  0  0  0  0  0999 V2000
    8.8118  -12.6938   18.8349 N   0  0  0  0  0  0  0  0  0  0  0  0
    7.6134  -12.7733   19.6121 C   0  0  0  0  0  0  0  0  0  0  0  0
    7.6536  -13.8180   20.6398 C   0  0  0  0  0  0  0  0  0  0  0  0
    6.6495  -13.9689   21.3827 O   0  0  0  0  0  0  0  0  0  0  0  0
    8.9967  -18.1291   21.9998 O   0  0  0  0  0  0  0  0  0  0  0  0
    9.3364  -17.0524   21.1593 C   0  0  0  0  0  0  0  0  0  0  0  0
    8.6334  -15.8336   21.6998 C   0  0  2  0  0  0  0  0  0  0  0  0
    8.7540  -14.6838   20.8633 N   0  0  0  0  0  0  0  0  0  0  0  0
    9.2362  -15.5709   23.0588 C   0  0  0  0  0  0  0  0  0  0  0  0
   10.3673  -15.0297   23.1278 O   0  0  0  0  0  0  0  0  0  0  0  0
    8.5194  -15.9376   24.2257 N   0  0  0  0  0  0  0  0  0  0  0  0
    9.0375  -15.8306   25.5718 C   0  0  1  0  0  0  0  0  0  0  0  0
    7.9881  -15.5163   26.5729 C   0  0  0  0  0  0  0  0  0  0  0  0
    7.4864  -14.1469   26.4600 C   0  0  0  0  0  0  0  0  0  0  0  0
    8.3604  -13.0778   26.6894 C   0  0  0  0  0  0  0  0  0  0  0  0
    7.9374  -11.7729   26.5739 C   0  0  0  0  0  0  0  0  0  0  0  0
    6.6265  -11.5344   26.2254 C   0  0  0  0  0  0  0  0  0  0  0  0
    5.7401  -12.5768   25.9927 C   0  0  0  0  0  0  0  0  0  0  0  0
    6.1802  -13.8740   26.1126 C   0  0  0  0  0  0  0  0  0  0  0  0
    9.9591  -16.9284   25.9415 C   0  0  0  0  0  0  0  0  0  0  0  0
    9.8549  -18.0350   25.3611 O   0  0  0  0  0  0  0  0  0  0  0  0
   10.9568  -16.8476   26.8948 O   0  0  0  0  0  0  0  0  0  0  0  0
  1  2  1  0
  2  3  1  0
  3  4  2  0
  3  8  1  0
  5  6  1  0
  7  9  1  0
  7  6  1  6
  8  7  1  0
  9 10  2  0
 11 12  1  0
 11  9  1  0
 12 13  1  1
 13 14  1  0
 14 19  2  0
 15 16  2  0
 15 14  1  0
 16 17  1  0
 17 18  2  0
 19 18  1  0
 20 22  1  0
 20 12  1  0
 21 20  2  0
M  END
$$$$
