IRY.pdb
     RDKit          3D

 32 32  0  0  1  0  0  0  0  0999 V2000
   22.6999  -14.1920  -21.0676 C   0  0  0  0  0  0  0  0  0  0  0  0
   22.4941  -14.6397  -19.6492 C   0  0  0  0  0  0  0  0  0  0  0  0
   22.7401  -16.1756  -19.5409 C   0  0  2  0  0  0  0  0  0  0  0  0
   21.7389  -16.7528  -20.5267 C   0  0  0  0  0  0  0  0  0  0  0  0
   22.4645  -16.4968  -18.1144 C   0  0  2  0  0  0  0  0  0  0  0  0
   23.4608  -15.6924  -17.3454 N   0  0  0  0  0  0  0  0  0  0  0  0
   22.6008  -17.8819  -17.6835 C   0  0  0  0  0  0  0  0  0  0  0  0
   21.9164  -18.7972  -18.2644 O   0  0  0  0  0  0  0  0  0  0  0  0
   29.3913  -22.3867  -16.0043 N   0  0  0  0  0  0  0  0  0  0  0  0
   28.5581  -21.9340  -17.0590 C   0  0  0  0  0  0  0  0  0  0  0  0
   29.0383  -21.7362  -18.2355 N   0  0  0  0  0  0  0  0  0  0  0  0
   27.1681  -21.6811  -16.8598 N   0  0  0  0  0  0  0  0  0  0  0  0
   26.5840  -21.8254  -15.5556 C   0  0  0  0  0  0  0  0  0  0  0  0
   25.0912  -21.5495  -15.6194 C   0  0  0  0  0  0  0  0  0  0  0  0
   24.8800  -20.1350  -16.0309 C   0  0  0  0  0  0  0  0  0  0  0  0
   23.4632  -19.6948  -16.1776 C   0  0  2  0  0  0  0  0  0  0  0  0
   23.4609  -18.2967  -16.6446 N   0  0  0  0  0  0  0  0  0  0  0  0
   22.7005  -19.7867  -14.9172 C   0  0  0  0  0  0  0  0  0  0  0  0
   22.7710  -18.8139  -14.0846 O   0  0  0  0  0  0  0  0  0  0  0  0
   28.4518  -21.5002  -19.0579 O   0  0  0  0  0  0  0  0  0  0  0  0
   26.9342  -22.4150  -11.1210 C   0  0  0  0  0  0  0  0  0  0  0  0
   25.6665  -21.8934  -11.3821 C   0  0  0  0  0  0  0  0  0  0  0  0
   24.6135  -22.6941  -11.7690 C   0  0  0  0  0  0  0  0  0  0  0  0
   23.3600  -22.1797  -12.0276 C   0  0  0  0  0  0  0  0  0  0  0  0
   23.0823  -20.8333  -11.9154 C   0  0  0  0  0  0  0  0  0  0  0  0
   21.7640  -20.2189  -12.1832 C   0  0  2  0  0  0  0  0  0  0  0  0
   21.0935  -20.9018  -13.3177 N   0  0  0  0  0  0  0  0  0  0  0  0
   21.8794  -20.8768  -14.5342 C   0  0  0  0  0  0  0  0  0  0  0  0
   19.7222  -20.4445  -13.5711 O   0  0  0  0  0  0  0  0  0  0  0  0
   18.8093  -20.4126  -12.5006 C   0  0  0  0  0  0  0  0  0  0  0  0
   24.1615  -20.0316  -11.5213 C   0  0  0  0  0  0  0  0  0  0  0  0
   25.4127  -20.5434  -11.2630 O   0  0  0  0  0  0  0  0  0  0  0  0
  2  1  1  0
  3  2  1  0
  3  4  1  6
  5  3  1  0
  5  6  1  1
  7  5  1  0
  8  7  2  0
  9 10  1  0
 10 12  1  0
 11 10  2  0
 12 13  1  0
 13 14  1  0
 14 15  1  0
 16 15  1  1
 16 18  1  0
 16 17  1  0
 17  7  1  0
 18 27  1  0
 19 18  2  0
 21 22  2  0
 21 20  1  0
 23 22  1  0
 24 23  2  0
 25 24  1  0
 26 25  1  1
 27 26  1  0
 28 29  1  0
 28 26  1  0
 30 24  1  0
 30 31  2  0
 31 21  1  0
 32 28  2  0
M  END
$$$$
