IRY.pdb
     RDKit          3D

 32 32  0  0  1  0  0  0  0  0999 V2000
   19.7550  -25.1167  -16.6015 C   0  0  0  0  0  0  0  0  0  0  0  0
   20.6348  -24.0993  -17.2691 C   0  0  0  0  0  0  0  0  0  0  0  0
   22.0961  -24.2415  -16.7443 C   0  0  2  0  0  0  0  0  0  0  0  0
   22.1764  -25.7056  -16.3479 C   0  0  0  0  0  0  0  0  0  0  0  0
   22.1782  -23.2841  -15.6082 C   0  0  2  0  0  0  0  0  0  0  0  0
   22.0146  -21.9380  -16.2344 N   0  0  0  0  0  0  0  0  0  0  0  0
   23.4063  -23.2512  -14.8250 C   0  0  0  0  0  0  0  0  0  0  0  0
   23.7503  -24.2796  -14.1413 O   0  0  0  0  0  0  0  0  0  0  0  0
   29.8761  -22.8475  -16.5565 N   0  0  0  0  0  0  0  0  0  0  0  0
   29.3790  -22.0614  -17.6271 C   0  0  0  0  0  0  0  0  0  0  0  0
   29.6046  -22.3978  -18.8477 N   0  0  0  0  0  0  0  0  0  0  0  0
   28.6174  -20.8772  -17.3964 N   0  0  0  0  0  0  0  0  0  0  0  0
   28.1258  -20.5754  -16.0811 C   0  0  0  0  0  0  0  0  0  0  0  0
   27.1798  -21.6689  -15.6143 C   0  0  0  0  0  0  0  0  0  0  0  0
   26.4474  -21.1906  -14.4103 C   0  0  0  0  0  0  0  0  0  0  0  0
   25.4214  -22.1162  -13.8508 C   0  0  2  0  0  0  0  0  0  0  0  0
   24.2685  -22.1356  -14.7690 N   0  0  0  0  0  0  0  0  0  0  0  0
   24.9634  -21.7191  -12.5050 C   0  0  0  0  0  0  0  0  0  0  0  0
   24.1171  -20.7611  -12.4023 O   0  0  0  0  0  0  0  0  0  0  0  0
   29.2537  -21.8587  -19.6614 O   0  0  0  0  0  0  0  0  0  0  0  0
   28.1882  -18.2840   -5.1800 C   0  0  0  0  0  0  0  0  0  0  0  0
   27.9117  -18.9630   -6.3675 C   0  0  0  0  0  0  0  0  0  0  0  0
   26.9117  -18.5569   -7.2246 C   0  0  0  0  0  0  0  0  0  0  0  0
   26.6374  -19.2273   -8.3984 C   0  0  0  0  0  0  0  0  0  0  0  0
   27.3459  -20.3450   -8.7874 C   0  0  0  0  0  0  0  0  0  0  0  0
   27.0984  -21.1108  -10.0282 C   0  0  1  0  0  0  0  0  0  0  0  0
   25.6846  -21.5590  -10.0887 N   0  0  0  0  0  0  0  0  0  0  0  0
   25.3835  -22.3128  -11.2883 C   0  0  0  0  0  0  0  0  0  0  0  0
   24.7033  -20.4872   -9.8839 O   0  0  0  0  0  0  0  0  0  0  0  0
   24.6616  -19.4214  -10.8019 C   0  0  0  0  0  0  0  0  0  0  0  0
   28.3591  -20.7463   -7.9071 C   0  0  0  0  0  0  0  0  0  0  0  0
   28.6340  -20.0784   -6.7355 O   0  0  0  0  0  0  0  0  0  0  0  0
  2  1  1  0
  3  2  1  0
  3  4  1  1
  5  3  1  0
  5  6  1  6
  7  5  1  0
  8  7  2  0
  9 10  1  0
 10 12  1  0
 11 10  2  0
 12 13  1  0
 13 14  1  0
 14 15  1  0
 16 15  1  6
 16 18  1  0
 16 17  1  0
 17  7  1  0
 18 27  1  0
 19 18  2  0
 21 22  2  0
 21 20  1  0
 23 22  1  0
 24 23  2  0
 25 24  1  0
 26 25  1  1
 27 26  1  0
 28 29  1  0
 28 26  1  0
 30 24  1  0
 30 31  2  0
 31 21  1  0
 32 28  2  0
M  END
$$$$
