IRY.pdb
     RDKit          3D

 32 32  0  0  1  0  0  0  0  0999 V2000
   25.8503  -16.1671  -19.0864 C   0  0  0  0  0  0  0  0  0  0  0  0
   26.4270  -17.5010  -18.7085 C   0  0  0  0  0  0  0  0  0  0  0  0
   27.7081  -17.2948  -17.8439 C   0  0  2  0  0  0  0  0  0  0  0  0
   28.6458  -16.5651  -18.7903 C   0  0  0  0  0  0  0  0  0  0  0  0
   28.1382  -18.6724  -17.4816 C   0  0  2  0  0  0  0  0  0  0  0  0
   28.1363  -19.4221  -18.7735 N   0  0  0  0  0  0  0  0  0  0  0  0
   27.3156  -19.4243  -16.5432 C   0  0  0  0  0  0  0  0  0  0  0  0
   26.3355  -20.1260  -16.9798 O   0  0  0  0  0  0  0  0  0  0  0  0
   24.2404  -22.7035  -14.6678 N   0  0  0  0  0  0  0  0  0  0  0  0
   24.4037  -23.4092  -13.4485 C   0  0  0  0  0  0  0  0  0  0  0  0
   24.2433  -24.6844  -13.4021 N   0  0  0  0  0  0  0  0  0  0  0  0
   24.7480  -22.7404  -12.2361 N   0  0  0  0  0  0  0  0  0  0  0  0
   25.1682  -21.3672  -12.2590 C   0  0  0  0  0  0  0  0  0  0  0  0
   26.6603  -21.2738  -11.9877 C   0  0  0  0  0  0  0  0  0  0  0  0
   27.2567  -20.2738  -12.9145 C   0  0  0  0  0  0  0  0  0  0  0  0
   26.5986  -20.1318  -14.2446 C   0  0  2  0  0  0  0  0  0  0  0  0
   27.5321  -19.4364  -15.1490 N   0  0  0  0  0  0  0  0  0  0  0  0
   25.3319  -19.3766  -14.1804 C   0  0  0  0  0  0  0  0  0  0  0  0
   25.3592  -18.1671  -13.7551 O   0  0  0  0  0  0  0  0  0  0  0  0
   24.4878  -25.2596  -12.5743 O   0  0  0  0  0  0  0  0  0  0  0  0
   22.6195  -19.8003  -20.8780 C   0  0  0  0  0  0  0  0  0  0  0  0
   22.6621  -19.3601  -19.5544 C   0  0  0  0  0  0  0  0  0  0  0  0
   21.6587  -19.6518  -18.6556 C   0  0  0  0  0  0  0  0  0  0  0  0
   21.6997  -19.2171  -17.3472 C   0  0  0  0  0  0  0  0  0  0  0  0
   22.7462  -18.4641  -16.8570 C   0  0  0  0  0  0  0  0  0  0  0  0
   22.8472  -17.9633  -15.4690 C   0  0  1  0  0  0  0  0  0  0  0  0
   22.8425  -19.0938  -14.5073 N   0  0  0  0  0  0  0  0  0  0  0  0
   24.0596  -19.8778  -14.5535 C   0  0  0  0  0  0  0  0  0  0  0  0
   21.6597  -19.9577  -14.5984 O   0  0  0  0  0  0  0  0  0  0  0  0
   21.8428  -21.3422  -14.7720 C   0  0  0  0  0  0  0  0  0  0  0  0
   23.7587  -18.1754  -17.7811 C   0  0  0  0  0  0  0  0  0  0  0  0
   23.7193  -18.6084  -19.0869 O   0  0  0  0  0  0  0  0  0  0  0  0
  2  1  1  0
  3  2  1  0
  3  4  1  6
  5  3  1  0
  5  6  1  6
  7  5  1  0
  8  7  2  0
  9 10  1  0
 10 12  1  0
 11 10  2  0
 12 13  1  0
 13 14  1  0
 14 15  1  0
 16 15  1  1
 16 18  1  0
 16 17  1  0
 17  7  1  0
 18 27  1  0
 19 18  2  0
 21 22  2  0
 21 20  1  0
 23 22  1  0
 24 23  2  0
 25 24  1  0
 26 25  1  1
 27 26  1  0
 28 29  1  0
 28 26  1  0
 30 24  1  0
 30 31  2  0
 31 21  1  0
 32 28  2  0
M  END
$$$$
