IRY.pdb
     RDKit          3D

 32 32  0  0  1  0  0  0  0  0999 V2000
   10.9935   -8.9611   -8.7523 C   0  0  0  0  0  0  0  0  0  0  0  0
   11.2550   -9.9329   -9.8666 C   0  0  0  0  0  0  0  0  0  0  0  0
   12.7886  -10.0319  -10.1300 C   0  0  2  0  0  0  0  0  0  0  0  0
   13.1678   -8.6042  -10.4842 C   0  0  0  0  0  0  0  0  0  0  0  0
   12.9120  -11.0043  -11.2494 C   0  0  2  0  0  0  0  0  0  0  0  0
   12.5536  -12.3232  -10.6470 N   0  0  0  0  0  0  0  0  0  0  0  0
   14.2137  -11.1579  -11.8855 C   0  0  0  0  0  0  0  0  0  0  0  0
   15.1185  -11.8654  -11.3160 O   0  0  0  0  0  0  0  0  0  0  0  0
   16.9181  -15.8508  -15.7233 N   0  0  0  0  0  0  0  0  0  0  0  0
   15.5012  -15.8449  -15.7858 C   0  0  0  0  0  0  0  0  0  0  0  0
   14.8176  -16.8007  -15.2632 N   0  0  0  0  0  0  0  0  0  0  0  0
   14.7838  -14.7903  -16.4252 N   0  0  0  0  0  0  0  0  0  0  0  0
   15.3039  -13.4516  -16.4198 C   0  0  0  0  0  0  0  0  0  0  0  0
   15.3426  -12.9128  -14.9996 C   0  0  0  0  0  0  0  0  0  0  0  0
   15.6832  -11.4647  -15.0429 C   0  0  0  0  0  0  0  0  0  0  0  0
   15.8798  -10.7933  -13.7265 C   0  0  2  0  0  0  0  0  0  0  0  0
   14.5548  -10.5683  -13.1212 N   0  0  0  0  0  0  0  0  0  0  0  0
   16.5867   -9.5025  -13.8407 C   0  0  0  0  0  0  0  0  0  0  0  0
   15.9081   -8.4548  -14.1341 O   0  0  0  0  0  0  0  0  0  0  0  0
   13.7807  -16.8287  -15.2686 O   0  0  0  0  0  0  0  0  0  0  0  0
   22.3386   -2.8542  -14.3389 C   0  0  0  0  0  0  0  0  0  0  0  0
   21.6276   -3.9958  -13.9664 C   0  0  0  0  0  0  0  0  0  0  0  0
   20.3579   -3.9239  -13.4353 C   0  0  0  0  0  0  0  0  0  0  0  0
   19.6543   -5.0516  -13.0666 C   0  0  0  0  0  0  0  0  0  0  0  0
   20.1769   -6.3204  -13.2063 C   0  0  0  0  0  0  0  0  0  0  0  0
   19.4779   -7.5670  -12.8259 C   0  0  1  0  0  0  0  0  0  0  0  0
   18.6687   -8.0760  -13.9613 N   0  0  0  0  0  0  0  0  0  0  0  0
   17.9785   -9.3113  -13.6521 C   0  0  0  0  0  0  0  0  0  0  0  0
   19.4073   -8.1910  -15.2242 O   0  0  0  0  0  0  0  0  0  0  0  0
   19.2976   -7.1556  -16.1708 C   0  0  0  0  0  0  0  0  0  0  0  0
   21.4678   -6.3785  -13.7475 C   0  0  0  0  0  0  0  0  0  0  0  0
   22.1711   -5.2542  -14.1157 O   0  0  0  0  0  0  0  0  0  0  0  0
  2  1  1  0
  3  2  1  0
  3  4  1  6
  5  3  1  0
  5  6  1  1
  7  5  1  0
  8  7  2  0
  9 10  1  0
 10 12  1  0
 11 10  2  0
 12 13  1  0
 13 14  1  0
 14 15  1  0
 16 15  1  6
 16 18  1  0
 16 17  1  0
 17  7  1  0
 18 27  1  0
 19 18  2  0
 21 22  2  0
 21 20  1  0
 23 22  1  0
 24 23  2  0
 25 24  1  0
 26 25  1  1
 27 26  1  0
 28 29  1  0
 28 26  1  0
 30 24  1  0
 30 31  2  0
 31 21  1  0
 32 28  2  0
M  END
$$$$
