IRY.pdb
     RDKit          3D

 32 32  0  0  1  0  0  0  0  0999 V2000
   27.3662  -15.0498  -15.8665 C   0  0  0  0  0  0  0  0  0  0  0  0
   27.0336  -16.4877  -16.1431 C   0  0  0  0  0  0  0  0  0  0  0  0
   26.4921  -17.1619  -14.8456 C   0  0  2  0  0  0  0  0  0  0  0  0
   27.6937  -17.1309  -13.9168 C   0  0  0  0  0  0  0  0  0  0  0  0
   26.0762  -18.5231  -15.2794 C   0  0  2  0  0  0  0  0  0  0  0  0
   24.9927  -18.2875  -16.2800 N   0  0  0  0  0  0  0  0  0  0  0  0
   25.5457  -19.4327  -14.2725 C   0  0  0  0  0  0  0  0  0  0  0  0
   24.3708  -19.2381  -13.7978 O   0  0  0  0  0  0  0  0  0  0  0  0
   23.1361  -25.0115  -16.2242 N   0  0  0  0  0  0  0  0  0  0  0  0
   23.3799  -25.6886  -15.0021 C   0  0  0  0  0  0  0  0  0  0  0  0
   23.5919  -26.9569  -14.9858 N   0  0  0  0  0  0  0  0  0  0  0  0
   23.3985  -24.9979  -13.7538 N   0  0  0  0  0  0  0  0  0  0  0  0
   23.5534  -23.5705  -13.7165 C   0  0  0  0  0  0  0  0  0  0  0  0
   24.9364  -23.1829  -14.2123 C   0  0  0  0  0  0  0  0  0  0  0  0
   25.7716  -22.7840  -13.0469 C   0  0  0  0  0  0  0  0  0  0  0  0
   25.7176  -21.3460  -12.6576 C   0  0  2  0  0  0  0  0  0  0  0  0
   26.2545  -20.5459  -13.7731 N   0  0  0  0  0  0  0  0  0  0  0  0
   26.4904  -21.0533  -11.4344 C   0  0  0  0  0  0  0  0  0  0  0  0
   27.7016  -21.4680  -11.3595 O   0  0  0  0  0  0  0  0  0  0  0  0
   23.7656  -27.4944  -14.1158 O   0  0  0  0  0  0  0  0  0  0  0  0
   28.9980  -19.6635   -3.1025 C   0  0  0  0  0  0  0  0  0  0  0  0
   28.5949  -19.5783   -4.4358 C   0  0  0  0  0  0  0  0  0  0  0  0
   29.0646  -20.4470   -5.3973 C   0  0  0  0  0  0  0  0  0  0  0  0
   28.6670  -20.3636   -6.7154 C   0  0  0  0  0  0  0  0  0  0  0  0
   27.7754  -19.4066   -7.1534 C   0  0  0  0  0  0  0  0  0  0  0  0
   27.3141  -19.2605   -8.5509 C   0  0  1  0  0  0  0  0  0  0  0  0
   26.5607  -20.4659   -8.9780 N   0  0  0  0  0  0  0  0  0  0  0  0
   26.0048  -20.3404  -10.3096 C   0  0  0  0  0  0  0  0  0  0  0  0
   25.5373  -20.9067   -8.0230 O   0  0  0  0  0  0  0  0  0  0  0  0
   25.9469  -21.5272   -6.8282 C   0  0  0  0  0  0  0  0  0  0  0  0
   27.3062  -18.5308   -6.1658 C   0  0  0  0  0  0  0  0  0  0  0  0
   27.7020  -18.6127   -4.8502 O   0  0  0  0  0  0  0  0  0  0  0  0
  2  1  1  0
  3  2  1  0
  3  4  1  1
  5  3  1  0
  5  6  1  6
  7  5  1  0
  8  7  2  0
  9 10  1  0
 10 12  1  0
 11 10  2  0
 12 13  1  0
 13 14  1  0
 14 15  1  0
 16 15  1  6
 16 18  1  0
 16 17  1  0
 17  7  1  0
 18 27  1  0
 19 18  2  0
 21 22  2  0
 21 20  1  0
 23 22  1  0
 24 23  2  0
 25 24  1  0
 26 25  1  6
 27 26  1  0
 28 29  1  0
 28 26  1  0
 30 24  1  0
 30 31  2  0
 31 21  1  0
 32 28  2  0
M  END
$$$$
