IRY.pdb
     RDKit          3D

 32 32  0  0  1  0  0  0  0  0999 V2000
   32.7311  -23.5828  -11.9120 C   0  0  0  0  0  0  0  0  0  0  0  0
   32.6972  -22.4121  -12.8516 C   0  0  0  0  0  0  0  0  0  0  0  0
   31.5322  -21.4538  -12.4570 C   0  0  2  0  0  0  0  0  0  0  0  0
   31.3756  -21.7012  -10.9665 C   0  0  0  0  0  0  0  0  0  0  0  0
   30.3823  -21.9048  -13.2867 C   0  0  2  0  0  0  0  0  0  0  0  0
   30.7584  -21.5408  -14.6856 N   0  0  0  0  0  0  0  0  0  0  0  0
   29.0742  -21.3196  -13.0236 C   0  0  0  0  0  0  0  0  0  0  0  0
   28.8496  -20.0986  -13.3433 O   0  0  0  0  0  0  0  0  0  0  0  0
   26.0601  -20.7711  -17.0156 N   0  0  0  0  0  0  0  0  0  0  0  0
   25.3821  -21.9302  -16.5594 C   0  0  0  0  0  0  0  0  0  0  0  0
   25.5618  -23.0652  -17.1369 N   0  0  0  0  0  0  0  0  0  0  0  0
   24.4815  -21.8849  -15.4537 N   0  0  0  0  0  0  0  0  0  0  0  0
   24.2670  -20.6556  -14.7425 C   0  0  0  0  0  0  0  0  0  0  0  0
   25.4700  -20.3414  -13.8693 C   0  0  0  0  0  0  0  0  0  0  0  0
   25.7270  -21.4983  -12.9690 C   0  0  0  0  0  0  0  0  0  0  0  0
   26.8039  -21.3182  -11.9540 C   0  0  2  0  0  0  0  0  0  0  0  0
   28.0072  -22.0253  -12.4281 N   0  0  0  0  0  0  0  0  0  0  0  0
   26.4300  -21.8352  -10.6229 C   0  0  0  0  0  0  0  0  0  0  0  0
   26.9113  -22.9621  -10.2447 O   0  0  0  0  0  0  0  0  0  0  0  0
   25.0633  -23.9312  -16.8586 O   0  0  0  0  0  0  0  0  0  0  0  0
   28.6576  -19.0218   -2.8550 C   0  0  0  0  0  0  0  0  0  0  0  0
   28.2977  -19.2641   -4.1814 C   0  0  0  0  0  0  0  0  0  0  0  0
   27.4123  -18.4525   -4.8573 C   0  0  0  0  0  0  0  0  0  0  0  0
   27.0557  -18.6911   -6.1682 C   0  0  0  0  0  0  0  0  0  0  0  0
   27.5624  -19.7559   -6.8839 C   0  0  0  0  0  0  0  0  0  0  0  0
   27.2169  -20.0695   -8.2873 C   0  0  2  0  0  0  0  0  0  0  0  0
   25.9499  -20.8401   -8.3507 N   0  0  0  0  0  0  0  0  0  0  0  0
   25.5678  -21.1856   -9.7044 C   0  0  0  0  0  0  0  0  0  0  0  0
   24.8304  -20.2193   -7.6331 O   0  0  0  0  0  0  0  0  0  0  0  0
   24.4407  -20.7543   -6.3912 C   0  0  0  0  0  0  0  0  0  0  0  0
   28.4610  -20.5720   -6.1847 C   0  0  0  0  0  0  0  0  0  0  0  0
   28.8178  -20.3353   -4.8767 O   0  0  0  0  0  0  0  0  0  0  0  0
  2  1  1  0
  3  2  1  0
  3  4  1  1
  5  3  1  0
  5  6  1  6
  7  5  1  0
  8  7  2  0
  9 10  1  0
 10 12  1  0
 11 10  2  0
 12 13  1  0
 13 14  1  0
 14 15  1  0
 16 15  1  6
 16 18  1  0
 16 17  1  0
 17  7  1  0
 18 27  1  0
 19 18  2  0
 21 22  2  0
 21 20  1  0
 23 22  1  0
 24 23  2  0
 25 24  1  0
 26 25  1  1
 27 26  1  0
 28 29  1  0
 28 26  1  0
 30 24  1  0
 30 31  2  0
 31 21  1  0
 32 28  2  0
M  END
$$$$
