IRY.pdb
     RDKit          3D

 32 32  0  0  1  0  0  0  0  0999 V2000
   22.8000  -19.5405  -23.2601 C   0  0  0  0  0  0  0  0  0  0  0  0
   23.6331  -19.4907  -22.0119 C   0  0  0  0  0  0  0  0  0  0  0  0
   22.8318  -20.0967  -20.8195 C   0  0  2  0  0  0  0  0  0  0  0  0
   21.5928  -19.2200  -20.7591 C   0  0  0  0  0  0  0  0  0  0  0  0
   23.7449  -19.9645  -19.6521 C   0  0  2  0  0  0  0  0  0  0  0  0
   24.8694  -20.9037  -19.9423 N   0  0  0  0  0  0  0  0  0  0  0  0
   23.2270  -20.3031  -18.3331 C   0  0  0  0  0  0  0  0  0  0  0  0
   23.0173  -21.5309  -18.0300 O   0  0  0  0  0  0  0  0  0  0  0  0
   25.4797  -22.1736  -11.7677 N   0  0  0  0  0  0  0  0  0  0  0  0
   24.4957  -21.4043  -11.0958 C   0  0  0  0  0  0  0  0  0  0  0  0
   24.4819  -21.3341   -9.8118 N   0  0  0  0  0  0  0  0  0  0  0  0
   23.4908  -20.6854  -11.8093 N   0  0  0  0  0  0  0  0  0  0  0  0
   23.7772  -20.1270  -13.1012 C   0  0  0  0  0  0  0  0  0  0  0  0
   22.5969  -19.3024  -13.5864 C   0  0  0  0  0  0  0  0  0  0  0  0
   22.8563  -18.8668  -14.9856 C   0  0  0  0  0  0  0  0  0  0  0  0
   22.3170  -19.7465  -16.0615 C   0  0  2  0  0  0  0  0  0  0  0  0
   22.9359  -19.3461  -17.3379 N   0  0  0  0  0  0  0  0  0  0  0  0
   20.8486  -19.6647  -16.1873 C   0  0  0  0  0  0  0  0  0  0  0  0
   20.3309  -18.5849  -16.6461 O   0  0  0  0  0  0  0  0  0  0  0  0
   23.7374  -20.8500   -9.2757 O   0  0  0  0  0  0  0  0  0  0  0  0
   17.4345  -23.2584  -10.2920 C   0  0  0  0  0  0  0  0  0  0  0  0
   17.5356  -22.9310  -11.6448 C   0  0  0  0  0  0  0  0  0  0  0  0
   18.5545  -23.4126  -12.4381 C   0  0  0  0  0  0  0  0  0  0  0  0
   18.6555  -23.0896  -13.7752 C   0  0  0  0  0  0  0  0  0  0  0  0
   17.7442  -22.2650  -14.4014 C   0  0  0  0  0  0  0  0  0  0  0  0
   17.7991  -21.8763  -15.8273 C   0  0  1  0  0  0  0  0  0  0  0  0
   18.5015  -20.5783  -15.9852 N   0  0  0  0  0  0  0  0  0  0  0  0
   19.9379  -20.6936  -15.8389 C   0  0  0  0  0  0  0  0  0  0  0  0
   17.9741  -19.5009  -15.1398 O   0  0  0  0  0  0  0  0  0  0  0  0
   16.6968  -18.9816  -15.4212 C   0  0  0  0  0  0  0  0  0  0  0  0
   16.7141  -21.7830  -13.5833 C   0  0  0  0  0  0  0  0  0  0  0  0
   16.6120  -22.1044  -12.2490 O   0  0  0  0  0  0  0  0  0  0  0  0
  2  1  1  0
  3  2  1  0
  3  4  1  1
  5  3  1  0
  5  6  1  6
  7  5  1  0
  8  7  2  0
  9 10  1  0
 10 12  1  0
 11 10  2  0
 12 13  1  0
 13 14  1  0
 14 15  1  0
 16 15  1  1
 16 18  1  0
 16 17  1  0
 17  7  1  0
 18 27  1  0
 19 18  2  0
 21 22  2  0
 21 20  1  0
 23 22  1  0
 24 23  2  0
 25 24  1  0
 26 25  1  6
 27 26  1  0
 28 29  1  0
 28 26  1  0
 30 24  1  0
 30 31  2  0
 31 21  1  0
 32 28  2  0
M  END
$$$$
