IRY.pdb
     RDKit          3D

 32 32  0  0  1  0  0  0  0  0999 V2000
   23.1822  -12.1791  -17.0852 C   0  0  0  0  0  0  0  0  0  0  0  0
   23.1920  -13.5809  -17.6233 C   0  0  0  0  0  0  0  0  0  0  0  0
   23.5541  -14.5803  -16.4826 C   0  0  2  0  0  0  0  0  0  0  0  0
   25.0082  -14.9136  -16.7684 C   0  0  0  0  0  0  0  0  0  0  0  0
   22.6081  -15.7139  -16.6670 C   0  0  2  0  0  0  0  0  0  0  0  0
   21.2881  -15.1841  -16.2111 N   0  0  0  0  0  0  0  0  0  0  0  0
   22.8590  -16.9449  -15.9291 C   0  0  0  0  0  0  0  0  0  0  0  0
   22.7166  -16.9610  -14.6551 O   0  0  0  0  0  0  0  0  0  0  0  0
   25.0677  -24.4141  -15.8107 N   0  0  0  0  0  0  0  0  0  0  0  0
   23.7769  -24.8403  -15.4062 C   0  0  0  0  0  0  0  0  0  0  0  0
   23.6339  -25.8645  -14.6418 N   0  0  0  0  0  0  0  0  0  0  0  0
   22.5966  -24.1582  -15.8274 N   0  0  0  0  0  0  0  0  0  0  0  0
   22.6925  -22.9559  -16.6073 C   0  0  0  0  0  0  0  0  0  0  0  0
   23.3525  -21.8567  -15.7920 C   0  0  0  0  0  0  0  0  0  0  0  0
   23.0042  -20.5388  -16.3893 C   0  0  0  0  0  0  0  0  0  0  0  0
   23.5855  -19.3382  -15.7237 C   0  0  2  0  0  0  0  0  0  0  0  0
   23.2552  -18.1546  -16.5378 N   0  0  0  0  0  0  0  0  0  0  0  0
   25.0504  -19.4238  -15.5636 C   0  0  0  0  0  0  0  0  0  0  0  0
   25.7951  -19.1516  -16.5716 O   0  0  0  0  0  0  0  0  0  0  0  0
   22.7160  -26.1761  -14.2725 O   0  0  0  0  0  0  0  0  0  0  0  0
   25.0762  -21.0412   -8.3369 C   0  0  0  0  0  0  0  0  0  0  0  0
   25.7302  -20.6049   -9.4899 C   0  0  0  0  0  0  0  0  0  0  0  0
   26.9533  -21.1127   -9.8717 C   0  0  0  0  0  0  0  0  0  0  0  0
   27.6007  -20.6821  -11.0109 C   0  0  0  0  0  0  0  0  0  0  0  0
   27.0652  -19.7173  -11.8385 C   0  0  0  0  0  0  0  0  0  0  0  0
   27.7098  -19.2090  -13.0688 C   0  0  1  0  0  0  0  0  0  0  0  0
   27.1645  -19.8995  -14.2642 N   0  0  0  0  0  0  0  0  0  0  0  0
   25.7243  -19.7881  -14.3710 C   0  0  0  0  0  0  0  0  0  0  0  0
   27.5930  -21.2963  -14.4012 O   0  0  0  0  0  0  0  0  0  0  0  0
   28.9664  -21.5749  -14.5299 C   0  0  0  0  0  0  0  0  0  0  0  0
   25.8220  -19.2103  -11.4386 C   0  0  0  0  0  0  0  0  0  0  0  0
   25.1748  -19.6389  -10.3021 O   0  0  0  0  0  0  0  0  0  0  0  0
  2  1  1  0
  3  2  1  0
  3  4  1  6
  5  3  1  0
  5  6  1  1
  7  5  1  0
  8  7  2  0
  9 10  1  0
 10 12  1  0
 11 10  2  0
 12 13  1  0
 13 14  1  0
 14 15  1  0
 16 15  1  6
 16 18  1  0
 16 17  1  0
 17  7  1  0
 18 27  1  0
 19 18  2  0
 21 22  2  0
 21 20  1  0
 23 22  1  0
 24 23  2  0
 25 24  1  0
 26 25  1  6
 27 26  1  0
 28 29  1  0
 28 26  1  0
 30 24  1  0
 30 31  2  0
 31 21  1  0
 32 28  2  0
M  END
$$$$
