IRY.pdb
     RDKit          3D

 32 32  0  0  1  0  0  0  0  0999 V2000
   26.6517  -13.4733  -17.5227 C   0  0  0  0  0  0  0  0  0  0  0  0
   27.0749  -14.7303  -18.2266 C   0  0  0  0  0  0  0  0  0  0  0  0
   28.2206  -15.4217  -17.4263 C   0  0  2  0  0  0  0  0  0  0  0  0
   29.4649  -15.0355  -18.2072 C   0  0  0  0  0  0  0  0  0  0  0  0
   27.8833  -16.8703  -17.4702 C   0  0  2  0  0  0  0  0  0  0  0  0
   27.3382  -17.0911  -18.8430 N   0  0  0  0  0  0  0  0  0  0  0  0
   26.8954  -17.3745  -16.5254 C   0  0  0  0  0  0  0  0  0  0  0  0
   27.1438  -17.3385  -15.2683 O   0  0  0  0  0  0  0  0  0  0  0  0
   21.5322  -21.2563  -12.4197 N   0  0  0  0  0  0  0  0  0  0  0  0
   21.0009  -20.0266  -12.8855 C   0  0  0  0  0  0  0  0  0  0  0  0
   19.7726  -19.7168  -12.6637 N   0  0  0  0  0  0  0  0  0  0  0  0
   21.7985  -19.0933  -13.6125 N   0  0  0  0  0  0  0  0  0  0  0  0
   21.5620  -18.8718  -15.0117 C   0  0  0  0  0  0  0  0  0  0  0  0
   22.5169  -19.7133  -15.8417 C   0  0  0  0  0  0  0  0  0  0  0  0
   23.4461  -18.8086  -16.5717 C   0  0  0  0  0  0  0  0  0  0  0  0
   24.7609  -18.5471  -15.9196 C   0  0  2  0  0  0  0  0  0  0  0  0
   25.6482  -17.9110  -16.9099 N   0  0  0  0  0  0  0  0  0  0  0  0
   25.4030  -19.7747  -15.4104 C   0  0  0  0  0  0  0  0  0  0  0  0
   25.8085  -20.6509  -16.2544 O   0  0  0  0  0  0  0  0  0  0  0  0
   19.3557  -18.8077  -12.9390 O   0  0  0  0  0  0  0  0  0  0  0  0
   24.7574  -19.9545   -7.5141 C   0  0  0  0  0  0  0  0  0  0  0  0
   25.3733  -20.2297   -8.7357 C   0  0  0  0  0  0  0  0  0  0  0  0
   25.6324  -21.5189   -9.1485 C   0  0  0  0  0  0  0  0  0  0  0  0
   26.2413  -21.7920  -10.3556 C   0  0  0  0  0  0  0  0  0  0  0  0
   26.6287  -20.7930  -11.2242 C   0  0  0  0  0  0  0  0  0  0  0  0
   27.2896  -21.0185  -12.5279 C   0  0  1  0  0  0  0  0  0  0  0  0
   26.2800  -21.2835  -13.5832 N   0  0  0  0  0  0  0  0  0  0  0  0
   25.6166  -20.0808  -14.0429 C   0  0  0  0  0  0  0  0  0  0  0  0
   25.3016  -22.3203  -13.2345 O   0  0  0  0  0  0  0  0  0  0  0  0
   23.9310  -22.0068  -13.2941 C   0  0  0  0  0  0  0  0  0  0  0  0
   26.3592  -19.4880  -10.7921 C   0  0  0  0  0  0  0  0  0  0  0  0
   25.7517  -19.2139   -9.5879 O   0  0  0  0  0  0  0  0  0  0  0  0
  2  1  1  0
  3  2  1  0
  3  4  1  6
  5  3  1  0
  5  6  1  6
  7  5  1  0
  8  7  2  0
  9 10  1  0
 10 12  1  0
 11 10  2  0
 12 13  1  0
 13 14  1  0
 14 15  1  0
 16 15  1  6
 16 18  1  0
 16 17  1  0
 17  7  1  0
 18 27  1  0
 19 18  2  0
 21 22  2  0
 21 20  1  0
 23 22  1  0
 24 23  2  0
 25 24  1  0
 26 25  1  6
 27 26  1  0
 28 29  1  0
 28 26  1  0
 30 24  1  0
 30 31  2  0
 31 21  1  0
 32 28  2  0
M  END
$$$$
