IRY.pdb
     RDKit          3D

 32 32  0  0  1  0  0  0  0  0999 V2000
   32.7999  -22.8811   -8.5029 C   0  0  0  0  0  0  0  0  0  0  0  0
   32.6456  -22.8323   -9.9958 C   0  0  0  0  0  0  0  0  0  0  0  0
   31.7757  -21.6016  -10.3953 C   0  0  2  0  0  0  0  0  0  0  0  0
   31.5933  -20.8691   -9.0771 C   0  0  0  0  0  0  0  0  0  0  0  0
   30.5305  -22.1923  -10.9560 C   0  0  2  0  0  0  0  0  0  0  0  0
   30.9871  -22.9951  -12.1299 N   0  0  0  0  0  0  0  0  0  0  0  0
   29.4923  -21.2858  -11.4285 C   0  0  0  0  0  0  0  0  0  0  0  0
   28.8098  -20.6068  -10.5820 O   0  0  0  0  0  0  0  0  0  0  0  0
   27.0612  -17.2158  -17.5640 N   0  0  0  0  0  0  0  0  0  0  0  0
   26.1233  -16.7178  -16.6238 C   0  0  0  0  0  0  0  0  0  0  0  0
   25.0980  -16.0460  -17.0129 N   0  0  0  0  0  0  0  0  0  0  0  0
   26.2779  -16.9384  -15.2227 N   0  0  0  0  0  0  0  0  0  0  0  0
   27.2834  -17.8415  -14.7369 C   0  0  0  0  0  0  0  0  0  0  0  0
   27.0437  -19.2359  -15.2910 C   0  0  0  0  0  0  0  0  0  0  0  0
   28.0318  -20.1706  -14.6870 C   0  0  0  0  0  0  0  0  0  0  0  0
   28.0596  -20.2298  -13.1977 C   0  0  2  0  0  0  0  0  0  0  0  0
   29.1808  -21.0962  -12.7916 N   0  0  0  0  0  0  0  0  0  0  0  0
   26.8066  -20.7553  -12.6209 C   0  0  0  0  0  0  0  0  0  0  0  0
   26.5391  -22.0010  -12.7658 O   0  0  0  0  0  0  0  0  0  0  0  0
   24.3822  -15.6713  -16.3625 O   0  0  0  0  0  0  0  0  0  0  0  0
   19.3321  -22.0762   -8.1411 C   0  0  0  0  0  0  0  0  0  0  0  0
   20.5291  -21.5334   -8.6101 C   0  0  0  0  0  0  0  0  0  0  0  0
   21.7252  -21.7275   -7.9533 C   0  0  0  0  0  0  0  0  0  0  0  0
   22.9090  -21.1914   -8.4157 C   0  0  0  0  0  0  0  0  0  0  0  0
   22.9697  -20.4282   -9.5631 C   0  0  0  0  0  0  0  0  0  0  0  0
   24.2034  -19.8214  -10.1081 C   0  0  1  0  0  0  0  0  0  0  0  0
   24.6496  -20.5517  -11.3208 N   0  0  0  0  0  0  0  0  0  0  0  0
   25.8503  -19.9913  -11.9060 C   0  0  0  0  0  0  0  0  0  0  0  0
   23.6053  -20.7278  -12.3367 O   0  0  0  0  0  0  0  0  0  0  0  0
   22.8727  -21.9292  -12.3551 C   0  0  0  0  0  0  0  0  0  0  0  0
   21.7470  -20.2393  -10.2203 C   0  0  0  0  0  0  0  0  0  0  0  0
   20.5650  -20.7736   -9.7601 O   0  0  0  0  0  0  0  0  0  0  0  0
  2  1  1  0
  3  2  1  0
  3  4  1  1
  5  3  1  0
  5  6  1  6
  7  5  1  0
  8  7  2  0
  9 10  1  0
 10 12  1  0
 11 10  2  0
 12 13  1  0
 13 14  1  0
 14 15  1  0
 16 15  1  6
 16 18  1  0
 16 17  1  0
 17  7  1  0
 18 27  1  0
 19 18  2  0
 21 22  2  0
 21 20  1  0
 23 22  1  0
 24 23  2  0
 25 24  1  0
 26 25  1  1
 27 26  1  0
 28 29  1  0
 28 26  1  0
 30 24  1  0
 30 31  2  0
 31 21  1  0
 32 28  2  0
M  END
$$$$
