IRY.pdb
     RDKit          3D

 32 32  0  0  1  0  0  0  0  0999 V2000
   26.8278  -25.8916  -17.9611 C   0  0  0  0  0  0  0  0  0  0  0  0
   27.3980  -24.5026  -17.9462 C   0  0  0  0  0  0  0  0  0  0  0  0
   26.5325  -23.5880  -17.0267 C   0  0  2  0  0  0  0  0  0  0  0  0
   25.1805  -23.5880  -17.7191 C   0  0  0  0  0  0  0  0  0  0  0  0
   27.2365  -22.2772  -17.0369 C   0  0  2  0  0  0  0  0  0  0  0  0
   28.4818  -22.5097  -16.2456 N   0  0  0  0  0  0  0  0  0  0  0  0
   26.5585  -21.1287  -16.4503 C   0  0  0  0  0  0  0  0  0  0  0  0
   26.6158  -20.9371  -15.1840 O   0  0  0  0  0  0  0  0  0  0  0  0
   22.6798  -14.1161  -16.6916 N   0  0  0  0  0  0  0  0  0  0  0  0
   23.6828  -14.0258  -15.6930 C   0  0  0  0  0  0  0  0  0  0  0  0
   23.5138  -13.2799  -14.6591 N   0  0  0  0  0  0  0  0  0  0  0  0
   24.9079  -14.7502  -15.7939 N   0  0  0  0  0  0  0  0  0  0  0  0
   25.1962  -15.5284  -16.9661 C   0  0  0  0  0  0  0  0  0  0  0  0
   24.2825  -16.7409  -17.0249 C   0  0  0  0  0  0  0  0  0  0  0  0
   25.0744  -17.9197  -17.4701 C   0  0  0  0  0  0  0  0  0  0  0  0
   25.1088  -19.0821  -16.5373 C   0  0  2  0  0  0  0  0  0  0  0  0
   25.8263  -20.1851  -17.2016 N   0  0  0  0  0  0  0  0  0  0  0  0
   23.7625  -19.5445  -16.1469 C   0  0  0  0  0  0  0  0  0  0  0  0
   23.0633  -20.1926  -17.0045 O   0  0  0  0  0  0  0  0  0  0  0  0
   24.2560  -13.1035  -13.9563 O   0  0  0  0  0  0  0  0  0  0  0  0
   25.4037  -24.6971  -12.4462 C   0  0  0  0  0  0  0  0  0  0  0  0
   24.5283  -23.6219  -12.6044 C   0  0  0  0  0  0  0  0  0  0  0  0
   24.7294  -22.4171  -11.9660 C   0  0  0  0  0  0  0  0  0  0  0  0
   23.8647  -21.3537  -12.1216 C   0  0  0  0  0  0  0  0  0  0  0  0
   22.7460  -21.4295  -12.9248 C   0  0  0  0  0  0  0  0  0  0  0  0
   21.7784  -20.3298  -13.1291 C   0  0  2  0  0  0  0  0  0  0  0  0
   21.8460  -19.8311  -14.5255 N   0  0  0  0  0  0  0  0  0  0  0  0
   23.1581  -19.3320  -14.8825 C   0  0  0  0  0  0  0  0  0  0  0  0
   20.8040  -18.8562  -14.8684 O   0  0  0  0  0  0  0  0  0  0  0  0
   19.4549  -19.2143  -14.6894 C   0  0  0  0  0  0  0  0  0  0  0  0
   22.5543  -22.6594  -13.5674 C   0  0  0  0  0  0  0  0  0  0  0  0
   23.4160  -23.7214  -13.4133 O   0  0  0  0  0  0  0  0  0  0  0  0
  2  1  1  0
  3  2  1  0
  3  4  1  6
  5  3  1  0
  5  6  1  1
  7  5  1  0
  8  7  2  0
  9 10  1  0
 10 12  1  0
 11 10  2  0
 12 13  1  0
 13 14  1  0
 14 15  1  0
 16 15  1  6
 16 18  1  0
 16 17  1  0
 17  7  1  0
 18 27  1  0
 19 18  2  0
 21 22  2  0
 21 20  1  0
 23 22  1  0
 24 23  2  0
 25 24  1  0
 26 25  1  6
 27 26  1  0
 28 29  1  0
 28 26  1  0
 30 24  1  0
 30 31  2  0
 31 21  1  0
 32 28  2  0
M  END
$$$$
