IRY.pdb
     RDKit          3D

 32 32  0  0  1  0  0  0  0  0999 V2000
   23.5924  -19.3397  -16.8196 C   0  0  0  0  0  0  0  0  0  0  0  0
   22.9949  -19.5854  -15.4641 C   0  0  0  0  0  0  0  0  0  0  0  0
   21.6169  -20.2985  -15.6174 C   0  0  2  0  0  0  0  0  0  0  0  0
   20.7788  -19.2686  -16.3552 C   0  0  0  0  0  0  0  0  0  0  0  0
   21.1811  -20.5702  -14.2209 C   0  0  2  0  0  0  0  0  0  0  0  0
   22.3573  -21.2293  -13.5783 N   0  0  0  0  0  0  0  0  0  0  0  0
   20.0314  -21.4418  -14.0174 C   0  0  0  0  0  0  0  0  0  0  0  0
   18.8542  -21.0123  -14.2877 O   0  0  0  0  0  0  0  0  0  0  0  0
   22.6757  -25.7654  -16.9531 N   0  0  0  0  0  0  0  0  0  0  0  0
   22.0231  -26.7171  -16.1286 C   0  0  0  0  0  0  0  0  0  0  0  0
   22.6980  -27.6163  -15.5041 N   0  0  0  0  0  0  0  0  0  0  0  0
   20.6063  -26.7166  -15.9607 N   0  0  0  0  0  0  0  0  0  0  0  0
   19.8064  -25.6782  -16.5478 C   0  0  0  0  0  0  0  0  0  0  0  0
   19.8198  -24.4448  -15.6606 C   0  0  0  0  0  0  0  0  0  0  0  0
   19.0940  -24.7518  -14.3981 C   0  0  0  0  0  0  0  0  0  0  0  0
   18.9345  -23.6231  -13.4373 C   0  0  2  0  0  0  0  0  0  0  0  0
   20.1281  -22.7637  -13.5334 N   0  0  0  0  0  0  0  0  0  0  0  0
   18.7736  -24.0760  -12.0417 C   0  0  0  0  0  0  0  0  0  0  0  0
   19.8168  -24.1665  -11.3015 O   0  0  0  0  0  0  0  0  0  0  0  0
   22.2639  -28.3294  -14.8886 O   0  0  0  0  0  0  0  0  0  0  0  0
   16.7324  -25.0332   -3.6858 C   0  0  0  0  0  0  0  0  0  0  0  0
   17.0452  -24.7283   -5.0112 C   0  0  0  0  0  0  0  0  0  0  0  0
   18.2538  -25.0769   -5.5746 C   0  0  0  0  0  0  0  0  0  0  0  0
   18.5641  -24.7758   -6.8844 C   0  0  0  0  0  0  0  0  0  0  0  0
   17.6853  -24.1077   -7.7114 C   0  0  0  0  0  0  0  0  0  0  0  0
   17.9590  -23.7507   -9.1203 C   0  0  1  0  0  0  0  0  0  0  0  0
   17.4140  -24.7860  -10.0338 N   0  0  0  0  0  0  0  0  0  0  0  0
   17.5437  -24.4287  -11.4315 C   0  0  0  0  0  0  0  0  0  0  0  0
   16.0404  -25.1998   -9.7247 O   0  0  0  0  0  0  0  0  0  0  0  0
   15.8395  -26.3169   -8.8928 C   0  0  0  0  0  0  0  0  0  0  0  0
   16.4612  -23.7599   -7.1259 C   0  0  0  0  0  0  0  0  0  0  0  0
   16.1500  -24.0595   -5.8191 O   0  0  0  0  0  0  0  0  0  0  0  0
  2  1  1  0
  3  2  1  0
  3  4  1  1
  5  3  1  0
  5  6  1  1
  7  5  1  0
  8  7  2  0
  9 10  1  0
 10 12  1  0
 11 10  2  0
 12 13  1  0
 13 14  1  0
 14 15  1  0
 16 15  1  6
 16 18  1  0
 16 17  1  0
 17  7  1  0
 18 27  1  0
 19 18  2  0
 21 22  2  0
 21 20  1  0
 23 22  1  0
 24 23  2  0
 25 24  1  0
 26 25  1  6
 27 26  1  0
 28 29  1  0
 28 26  1  0
 30 24  1  0
 30 31  2  0
 31 21  1  0
 32 28  2  0
M  END
$$$$
