IRY.pdb
     RDKit          3D

 32 32  0  0  1  0  0  0  0  0999 V2000
   28.1935  -20.2319  -15.6980 C   0  0  0  0  0  0  0  0  0  0  0  0
   27.3511  -20.8829  -14.6391 C   0  0  0  0  0  0  0  0  0  0  0  0
   25.9909  -20.1313  -14.5124 C   0  0  2  0  0  0  0  0  0  0  0  0
   26.4067  -18.7486  -14.0407 C   0  0  0  0  0  0  0  0  0  0  0  0
   25.2199  -20.9227  -13.5158 C   0  0  2  0  0  0  0  0  0  0  0  0
   25.3786  -22.3417  -13.9540 N   0  0  0  0  0  0  0  0  0  0  0  0
   23.7914  -20.6651  -13.3908 C   0  0  0  0  0  0  0  0  0  0  0  0
   23.3795  -19.7488  -12.5944 O   0  0  0  0  0  0  0  0  0  0  0  0
   20.9810  -16.1866  -16.6727 N   0  0  0  0  0  0  0  0  0  0  0  0
   20.7683  -17.2859  -17.5431 C   0  0  0  0  0  0  0  0  0  0  0  0
   21.1358  -17.2285  -18.7742 N   0  0  0  0  0  0  0  0  0  0  0  0
   20.1434  -18.4873  -17.0938 N   0  0  0  0  0  0  0  0  0  0  0  0
   20.5121  -19.0696  -15.8337 C   0  0  0  0  0  0  0  0  0  0  0  0
   19.7062  -20.3339  -15.5876 C   0  0  0  0  0  0  0  0  0  0  0  0
   20.6248  -21.4072  -15.1194 C   0  0  0  0  0  0  0  0  0  0  0  0
   21.3706  -21.1337  -13.8580 C   0  0  2  0  0  0  0  0  0  0  0  0
   22.8035  -21.3718  -14.1088 N   0  0  0  0  0  0  0  0  0  0  0  0
   20.9272  -21.9815  -12.7339 C   0  0  0  0  0  0  0  0  0  0  0  0
   21.8109  -22.4441  -11.9280 O   0  0  0  0  0  0  0  0  0  0  0  0
   20.8831  -17.9471  -19.4783 O   0  0  0  0  0  0  0  0  0  0  0  0
   17.3158  -25.3691   -5.6383 C   0  0  0  0  0  0  0  0  0  0  0  0
   17.8899  -24.6749   -6.7041 C   0  0  0  0  0  0  0  0  0  0  0  0
   19.2519  -24.6572   -6.9145 C   0  0  0  0  0  0  0  0  0  0  0  0
   19.8205  -23.9713   -7.9675 C   0  0  0  0  0  0  0  0  0  0  0  0
   19.0624  -23.2608   -8.8748 C   0  0  0  0  0  0  0  0  0  0  0  0
   19.6098  -22.5014  -10.0197 C   0  0  1  0  0  0  0  0  0  0  0  0
   19.1797  -23.1127  -11.3020 N   0  0  0  0  0  0  0  0  0  0  0  0
   19.5837  -22.3396  -12.4582 C   0  0  0  0  0  0  0  0  0  0  0  0
   17.7504  -23.4396  -11.3643 O   0  0  0  0  0  0  0  0  0  0  0  0
   17.3490  -24.7709  -11.1480 C   0  0  0  0  0  0  0  0  0  0  0  0
   17.6801  -23.2877   -8.6489 C   0  0  0  0  0  0  0  0  0  0  0  0
   17.1112  -23.9717   -7.5987 O   0  0  0  0  0  0  0  0  0  0  0  0
  2  1  1  0
  3  2  1  0
  3  4  1  1
  5  3  1  0
  5  6  1  6
  7  5  1  0
  8  7  2  0
  9 10  1  0
 10 12  1  0
 11 10  2  0
 12 13  1  0
 13 14  1  0
 14 15  1  0
 16 15  1  6
 16 18  1  0
 16 17  1  0
 17  7  1  0
 18 27  1  0
 19 18  2  0
 21 22  2  0
 21 20  1  0
 23 22  1  0
 24 23  2  0
 25 24  1  0
 26 25  1  6
 27 26  1  0
 28 29  1  0
 28 26  1  0
 30 24  1  0
 30 31  2  0
 31 21  1  0
 32 28  2  0
M  END
$$$$
