CAL.pdb
     RDKit          3D

 20 19  0  0  1  0  0  0  0  0999 V2000
   17.7784  -11.2173  -18.3243 N   0  0  0  0  0  0  0  0  0  0  0  0
   17.8847  -10.0377  -19.1747 C   0  0  1  0  0  0  0  0  0  0  0  0
   16.7401  -10.1431  -20.1897 C   0  0  0  0  0  0  0  0  0  0  0  0
   16.9116  -11.5945  -21.2256 S   0  0  0  0  0  0  0  0  0  0  0  0
   17.7066   -8.8384  -18.3165 C   0  0  0  0  0  0  0  0  0  0  0  0
   18.2528   -7.7220  -18.6020 O   0  0  0  0  0  0  0  0  0  0  0  0
   15.4284   -7.8599  -15.4574 C   0  0  0  0  0  0  0  0  0  0  0  0
   16.6838   -7.6980  -16.3188 C   0  0  2  0  0  0  0  0  0  0  0  0
   16.9226   -8.8550  -17.1310 N   0  0  0  0  0  0  0  0  0  0  0  0
   17.8770   -7.4563  -15.4399 C   0  0  0  0  0  0  0  0  0  0  0  0
   17.8781   -6.5032  -14.6027 O   0  0  0  0  0  0  0  0  0  0  0  0
   21.6181   -9.3082  -12.0679 C   0  0  0  0  0  0  0  0  0  0  0  0
   22.0879   -9.1628  -13.5064 C   0  0  1  0  0  0  0  0  0  0  0  0
   23.1594  -10.2207  -13.8002 C   0  0  0  0  0  0  0  0  0  0  0  0
   20.9189   -9.3242  -14.4208 C   0  0  0  0  0  0  0  0  0  0  0  0
   20.1488   -8.0585  -14.5566 C   0  0  2  0  0  0  0  0  0  0  0  0
   19.0246   -8.2650  -15.5084 N   0  0  0  0  0  0  0  0  0  0  0  0
   20.9573   -6.9200  -15.0137 C   0  0  0  0  0  0  0  0  0  0  0  0
   21.4936   -6.0030  -14.1026 O   0  0  0  0  0  0  0  0  0  0  0  0
   21.1907   -6.7339  -16.2168 O   0  0  0  0  0  0  0  0  0  0  0  0
  2  1  1  1
  3  2  1  0
  4  3  1  0
  5  6  2  0
  5  2  1  0
  8  7  1  1
  8  9  1  0
  9  5  1  0
 10  8  1  0
 11 10  2  0
 13 12  1  1
 13 14  1  0
 15 13  1  0
 16 15  1  6
 16 17  1  0
 17 10  1  0
 18 16  1  0
 19 18  1  0
 20 18  2  0
M  END
$$$$
