CAL.pdb
     RDKit          3D

 20 19  0  0  1  0  0  0  0  0999 V2000
   23.9409  -17.6993  -19.4161 N   0  0  0  0  0  0  0  0  0  0  0  0
   23.8533  -17.1328  -18.0754 C   0  0  1  0  0  0  0  0  0  0  0  0
   22.3567  -16.9927  -17.7721 C   0  0  0  0  0  0  0  0  0  0  0  0
   21.7067  -15.4360  -18.3748 S   0  0  0  0  0  0  0  0  0  0  0  0
   24.4849  -18.0912  -17.1325 C   0  0  0  0  0  0  0  0  0  0  0  0
   24.2242  -19.3390  -17.1691 O   0  0  0  0  0  0  0  0  0  0  0  0
   27.0536  -17.8857  -14.3211 C   0  0  0  0  0  0  0  0  0  0  0  0
   25.9774  -18.5754  -15.1639 C   0  0  2  0  0  0  0  0  0  0  0  0
   25.4135  -17.6852  -16.1359 N   0  0  0  0  0  0  0  0  0  0  0  0
   24.8842  -19.0900  -14.2722 C   0  0  0  0  0  0  0  0  0  0  0  0
   24.0267  -18.2954  -13.7799 O   0  0  0  0  0  0  0  0  0  0  0  0
   26.2495  -20.0081  -10.0926 C   0  0  0  0  0  0  0  0  0  0  0  0
   25.7892  -20.6449  -11.3941 C   0  0  1  0  0  0  0  0  0  0  0  0
   26.0927  -22.1485  -11.3591 C   0  0  0  0  0  0  0  0  0  0  0  0
   24.3260  -20.4034  -11.5654 C   0  0  0  0  0  0  0  0  0  0  0  0
   23.8377  -20.8989  -12.8806 C   0  0  2  0  0  0  0  0  0  0  0  0
   24.7688  -20.4537  -13.9517 N   0  0  0  0  0  0  0  0  0  0  0  0
   22.4785  -20.4513  -13.2141 C   0  0  0  0  0  0  0  0  0  0  0  0
   22.1327  -20.1083  -14.5261 O   0  0  0  0  0  0  0  0  0  0  0  0
   21.5959  -20.3627  -12.3483 O   0  0  0  0  0  0  0  0  0  0  0  0
  2  1  1  6
  3  2  1  0
  4  3  1  0
  5  6  2  0
  5  2  1  0
  8  7  1  1
  8  9  1  0
  9  5  1  0
 10  8  1  0
 11 10  2  0
 13 12  1  1
 13 14  1  0
 15 13  1  0
 16 15  1  1
 16 17  1  0
 17 10  1  0
 18 16  1  0
 19 18  1  0
 20 18  2  0
M  END
$$$$
