CAL.pdb
     RDKit          3D

 20 19  0  0  1  0  0  0  0  0999 V2000
   18.7441  -11.9087  -17.7190 N   0  0  0  0  0  0  0  0  0  0  0  0
   19.7699  -10.8759  -17.8034 C   0  0  1  0  0  0  0  0  0  0  0  0
   19.0945   -9.6602  -18.4494 C   0  0  0  0  0  0  0  0  0  0  0  0
   19.0564   -9.8008  -20.2348 S   0  0  0  0  0  0  0  0  0  0  0  0
   20.2063  -10.5517  -16.4210 C   0  0  0  0  0  0  0  0  0  0  0  0
   19.3845  -10.5275  -15.4462 O   0  0  0  0  0  0  0  0  0  0  0  0
   23.4809  -10.2625  -14.5722 C   0  0  0  0  0  0  0  0  0  0  0  0
   22.0019   -9.9214  -14.7730 C   0  0  2  0  0  0  0  0  0  0  0  0
   21.5566  -10.2497  -16.0955 N   0  0  0  0  0  0  0  0  0  0  0  0
   21.7788   -8.4571  -14.5257 C   0  0  0  0  0  0  0  0  0  0  0  0
   22.0195   -7.9520  -13.3871 O   0  0  0  0  0  0  0  0  0  0  0  0
   23.2035   -4.7871  -18.0344 C   0  0  0  0  0  0  0  0  0  0  0  0
   22.8953   -5.5119  -16.7341 C   0  0  1  0  0  0  0  0  0  0  0  0
   23.7742   -4.9409  -15.6137 C   0  0  0  0  0  0  0  0  0  0  0  0
   21.4478   -5.3417  -16.4112 C   0  0  0  0  0  0  0  0  0  0  0  0
   21.0463   -6.1637  -15.2379 C   0  0  2  0  0  0  0  0  0  0  0  0
   21.3010   -7.5994  -15.5315 N   0  0  0  0  0  0  0  0  0  0  0  0
   19.6378   -5.9984  -14.8535 C   0  0  0  0  0  0  0  0  0  0  0  0
   19.1838   -4.8115  -14.2673 O   0  0  0  0  0  0  0  0  0  0  0  0
   18.8076   -6.9008  -15.0346 O   0  0  0  0  0  0  0  0  0  0  0  0
  2  1  1  1
  3  2  1  0
  4  3  1  0
  5  6  2  0
  5  2  1  0
  8  7  1  6
  8  9  1  0
  9  5  1  0
 10  8  1  0
 11 10  2  0
 13 12  1  6
 13 14  1  0
 15 13  1  0
 16 15  1  6
 16 17  1  0
 17 10  1  0
 18 16  1  0
 19 18  1  0
 20 18  2  0
M  END
$$$$
