CAL.pdb
     RDKit          3D

 20 19  0  0  1  0  0  0  0  0999 V2000
   25.3379  -20.6038   -6.5727 N   0  0  0  0  0  0  0  0  0  0  0  0
   25.8857  -19.9223   -7.7395 C   0  0  1  0  0  0  0  0  0  0  0  0
   27.4094  -19.9492   -7.5689 C   0  0  0  0  0  0  0  0  0  0  0  0
   28.0013  -18.4893   -6.7161 S   0  0  0  0  0  0  0  0  0  0  0  0
   25.4864  -20.6907   -8.9464 C   0  0  0  0  0  0  0  0  0  0  0  0
   25.7570  -21.9305   -9.0725 O   0  0  0  0  0  0  0  0  0  0  0  0
   22.8163  -20.8532  -11.2927 C   0  0  0  0  0  0  0  0  0  0  0  0
   24.3434  -20.8295  -11.1851 C   0  0  2  0  0  0  0  0  0  0  0  0
   24.7826  -20.1007  -10.0313 N   0  0  0  0  0  0  0  0  0  0  0  0
   24.9313  -20.2047  -12.4176 C   0  0  0  0  0  0  0  0  0  0  0  0
   25.1684  -18.9591  -12.4580 O   0  0  0  0  0  0  0  0  0  0  0  0
   29.1841  -21.9107  -14.8832 C   0  0  0  0  0  0  0  0  0  0  0  0
   28.0646  -21.0324  -14.3480 C   0  0  1  0  0  0  0  0  0  0  0  0
   28.5859  -19.6013  -14.1634 C   0  0  0  0  0  0  0  0  0  0  0  0
   26.9208  -21.0604  -15.3070 C   0  0  0  0  0  0  0  0  0  0  0  0
   25.7508  -20.3013  -14.7887 C   0  0  2  0  0  0  0  0  0  0  0  0
   25.2382  -20.9641  -13.5598 N   0  0  0  0  0  0  0  0  0  0  0  0
   24.6519  -20.1749  -15.7559 C   0  0  0  0  0  0  0  0  0  0  0  0
   23.5162  -20.9880  -15.6689 O   0  0  0  0  0  0  0  0  0  0  0  0
   24.6934  -19.3473  -16.6778 O   0  0  0  0  0  0  0  0  0  0  0  0
  2  1  1  1
  3  2  1  0
  4  3  1  0
  5  6  2  0
  5  2  1  0
  8  7  1  6
  8  9  1  0
  9  5  1  0
 10  8  1  0
 11 10  2  0
 13 12  1  6
 13 14  1  0
 15 13  1  0
 16 15  1  6
 16 17  1  0
 17 10  1  0
 18 16  1  0
 19 18  1  0
 20 18  2  0
M  END
$$$$
