CAL.pdb
     RDKit          3D

 20 19  0  0  1  0  0  0  0  0999 V2000
   22.4392  -20.6118  -14.6086 N   0  0  0  0  0  0  0  0  0  0  0  0
   23.1984  -20.0347  -13.5056 C   0  0  1  0  0  0  0  0  0  0  0  0
   22.4115  -20.3650  -12.2315 C   0  0  0  0  0  0  0  0  0  0  0  0
   21.1171  -19.1643  -11.9285 S   0  0  0  0  0  0  0  0  0  0  0  0
   24.5307  -20.6909  -13.4757 C   0  0  0  0  0  0  0  0  0  0  0  0
   24.6551  -21.9593  -13.5187 O   0  0  0  0  0  0  0  0  0  0  0  0
   28.1643  -19.6200  -13.6357 C   0  0  0  0  0  0  0  0  0  0  0  0
   27.0314  -20.5609  -13.2166 C   0  0  2  0  0  0  0  0  0  0  0  0
   25.7447  -19.9555  -13.3979 N   0  0  0  0  0  0  0  0  0  0  0  0
   27.1972  -20.9472  -11.7750 C   0  0  0  0  0  0  0  0  0  0  0  0
   28.0213  -21.8519  -11.4410 O   0  0  0  0  0  0  0  0  0  0  0  0
   28.7518  -20.5969   -6.9736 C   0  0  0  0  0  0  0  0  0  0  0  0
   27.4462  -19.8385   -7.1501 C   0  0  1  0  0  0  0  0  0  0  0  0
   27.4947  -18.5451   -6.3264 C   0  0  0  0  0  0  0  0  0  0  0  0
   27.2482  -19.5372   -8.5988 C   0  0  0  0  0  0  0  0  0  0  0  0
   26.6822  -20.7029   -9.3299 C   0  0  2  0  0  0  0  0  0  0  0  0
   26.4563  -20.3305  -10.7521 N   0  0  0  0  0  0  0  0  0  0  0  0
   25.4225  -21.2027   -8.7622 C   0  0  0  0  0  0  0  0  0  0  0  0
   25.4145  -21.9976   -7.6104 O   0  0  0  0  0  0  0  0  0  0  0  0
   24.3287  -20.9382   -9.2820 O   0  0  0  0  0  0  0  0  0  0  0  0
  2  1  1  6
  3  2  1  0
  4  3  1  0
  5  6  2  0
  5  2  1  0
  8  7  1  1
  8  9  1  0
  9  5  1  0
 10  8  1  0
 11 10  2  0
 13 12  1  6
 13 14  1  0
 15 13  1  0
 16 15  1  1
 16 17  1  0
 17 10  1  0
 18 16  1  0
 19 18  1  0
 20 18  2  0
M  END
$$$$
