CAL.pdb
     RDKit          3D

 20 19  0  0  1  0  0  0  0  0999 V2000
   22.1038  -12.0187  -18.2855 N   0  0  0  0  0  0  0  0  0  0  0  0
   21.7377  -11.4955  -16.9747 C   0  0  1  0  0  0  0  0  0  0  0  0
   22.8987  -11.8505  -16.0379 C   0  0  0  0  0  0  0  0  0  0  0  0
   22.8347  -13.5682  -15.5333 S   0  0  0  0  0  0  0  0  0  0  0  0
   21.6008  -10.0212  -17.0934 C   0  0  0  0  0  0  0  0  0  0  0  0
   22.4292   -9.3223  -17.7653 O   0  0  0  0  0  0  0  0  0  0  0  0
   18.8822   -7.4980  -16.3563 C   0  0  0  0  0  0  0  0  0  0  0  0
   20.3316   -7.8921  -16.6534 C   0  0  2  0  0  0  0  0  0  0  0  0
   20.5469   -9.2977  -16.4717 N   0  0  0  0  0  0  0  0  0  0  0  0
   21.2614   -7.1294  -15.7540 C   0  0  0  0  0  0  0  0  0  0  0  0
   21.6278   -7.6185  -14.6423 O   0  0  0  0  0  0  0  0  0  0  0  0
   25.1572   -4.0450  -17.8519 C   0  0  0  0  0  0  0  0  0  0  0  0
   24.3202   -5.0134  -17.0316 C   0  0  1  0  0  0  0  0  0  0  0  0
   25.2397   -6.0565  -16.3834 C   0  0  0  0  0  0  0  0  0  0  0  0
   23.5687   -4.2500  -15.9918 C   0  0  0  0  0  0  0  0  0  0  0  0
   22.6829   -5.1379  -15.1914 C   0  0  2  0  0  0  0  0  0  0  0  0
   21.7561   -5.8609  -16.1028 N   0  0  0  0  0  0  0  0  0  0  0  0
   21.8945   -4.4272  -14.1754 C   0  0  0  0  0  0  0  0  0  0  0  0
   22.4553   -4.0740  -12.9429 O   0  0  0  0  0  0  0  0  0  0  0  0
   20.7109   -4.1178  -14.3748 O   0  0  0  0  0  0  0  0  0  0  0  0
  2  1  1  6
  3  2  1  0
  4  3  1  0
  5  6  2  0
  5  2  1  0
  8  7  1  1
  8  9  1  0
  9  5  1  0
 10  8  1  0
 11 10  2  0
 13 12  1  1
 13 14  1  0
 15 13  1  0
 16 15  1  6
 16 17  1  0
 17 10  1  0
 18 16  1  0
 19 18  1  0
 20 18  2  0
M  END
$$$$
