CAL.pdb
     RDKit          3D

 20 19  0  0  1  0  0  0  0  0999 V2000
   28.4203  -19.7779  -14.8840 N   0  0  0  0  0  0  0  0  0  0  0  0
   28.3785  -20.6122  -13.6890 C   0  0  1  0  0  0  0  0  0  0  0  0
   29.8056  -20.6200  -13.1279 C   0  0  0  0  0  0  0  0  0  0  0  0
   29.9053  -21.5458  -11.5976 S   0  0  0  0  0  0  0  0  0  0  0  0
   27.4457  -19.9785  -12.7220 C   0  0  0  0  0  0  0  0  0  0  0  0
   27.5164  -18.7377  -12.4362 O   0  0  0  0  0  0  0  0  0  0  0  0
   24.0957  -20.2897  -11.3936 C   0  0  0  0  0  0  0  0  0  0  0  0
   25.5788  -20.1461  -11.0415 C   0  0  2  0  0  0  0  0  0  0  0  0
   26.4216  -20.7062  -12.0570 N   0  0  0  0  0  0  0  0  0  0  0  0
   25.8603  -20.8285   -9.7339 C   0  0  0  0  0  0  0  0  0  0  0  0
   25.9758  -22.0906   -9.6775 O   0  0  0  0  0  0  0  0  0  0  0  0
   28.4093  -18.3634   -5.5288 C   0  0  0  0  0  0  0  0  0  0  0  0
   27.9710  -19.3942   -6.5565 C   0  0  1  0  0  0  0  0  0  0  0  0
   28.9864  -20.5439   -6.5878 C   0  0  0  0  0  0  0  0  0  0  0  0
   26.6123  -19.8967   -6.1956 C   0  0  0  0  0  0  0  0  0  0  0  0
   26.0741  -20.8182   -7.2323 C   0  0  2  0  0  0  0  0  0  0  0  0
   26.0052  -20.1066   -8.5366 N   0  0  0  0  0  0  0  0  0  0  0  0
   24.7451  -21.3572   -6.9126 C   0  0  0  0  0  0  0  0  0  0  0  0
   24.5920  -22.4068   -5.9996 O   0  0  0  0  0  0  0  0  0  0  0  0
   23.7189  -20.9026   -7.4385 O   0  0  0  0  0  0  0  0  0  0  0  0
  2  1  1  6
  3  2  1  0
  4  3  1  0
  5  6  2  0
  5  2  1  0
  8  7  1  6
  8  9  1  0
  9  5  1  0
 10  8  1  0
 11 10  2  0
 13 12  1  1
 13 14  1  0
 15 13  1  0
 16 15  1  1
 16 17  1  0
 17 10  1  0
 18 16  1  0
 19 18  1  0
 20 18  2  0
M  END
$$$$
