CAL.pdb
     RDKit          3D

 20 19  0  0  1  0  0  0  0  0999 V2000
   19.9805  -21.1593  -11.7666 N   0  0  0  0  0  0  0  0  0  0  0  0
   20.4437  -20.3516  -12.8886 C   0  0  1  0  0  0  0  0  0  0  0  0
   20.7895  -18.9760  -12.3058 C   0  0  0  0  0  0  0  0  0  0  0  0
   19.3304  -17.9521  -12.1269 S   0  0  0  0  0  0  0  0  0  0  0  0
   21.6595  -20.9981  -13.4457 C   0  0  0  0  0  0  0  0  0  0  0  0
   22.6338  -21.3488  -12.7014 O   0  0  0  0  0  0  0  0  0  0  0  0
   22.6688  -22.5080  -16.7707 C   0  0  0  0  0  0  0  0  0  0  0  0
   22.9681  -21.9112  -15.3928 C   0  0  2  0  0  0  0  0  0  0  0  0
   21.8166  -21.2665  -14.8326 N   0  0  0  0  0  0  0  0  0  0  0  0
   24.0877  -20.9163  -15.5009 C   0  0  0  0  0  0  0  0  0  0  0  0
   23.8408  -19.6868  -15.6923 O   0  0  0  0  0  0  0  0  0  0  0  0
   28.4916  -21.2579  -12.4153 C   0  0  0  0  0  0  0  0  0  0  0  0
   27.3685  -20.6078  -13.2072 C   0  0  1  0  0  0  0  0  0  0  0  0
   27.2325  -19.1394  -12.7840 C   0  0  0  0  0  0  0  0  0  0  0  0
   27.6739  -20.7132  -14.6647 C   0  0  0  0  0  0  0  0  0  0  0  0
   26.5185  -20.2881  -15.5002 C   0  0  2  0  0  0  0  0  0  0  0  0
   25.4352  -21.3020  -15.3960 N   0  0  0  0  0  0  0  0  0  0  0  0
   26.8533  -20.0922  -16.9174 C   0  0  0  0  0  0  0  0  0  0  0  0
   26.5779  -21.0817  -17.8680 O   0  0  0  0  0  0  0  0  0  0  0  0
   27.3889  -19.0484  -17.3173 O   0  0  0  0  0  0  0  0  0  0  0  0
  2  1  1  1
  3  2  1  0
  4  3  1  0
  5  6  2  0
  5  2  1  0
  8  7  1  6
  8  9  1  0
  9  5  1  0
 10  8  1  0
 11 10  2  0
 13 12  1  1
 13 14  1  0
 15 13  1  0
 16 15  1  1
 16 17  1  0
 17 10  1  0
 18 16  1  0
 19 18  1  0
 20 18  2  0
M  END
$$$$
