CAL.pdb
     RDKit          3D

 20 19  0  0  1  0  0  0  0  0999 V2000
   20.7834  -15.4825  -18.2762 N   0  0  0  0  0  0  0  0  0  0  0  0
   19.9844  -14.2680  -18.1647 C   0  0  1  0  0  0  0  0  0  0  0  0
   19.3337  -14.3151  -16.7770 C   0  0  0  0  0  0  0  0  0  0  0  0
   17.7947  -15.2316  -16.8034 S   0  0  0  0  0  0  0  0  0  0  0  0
   20.9037  -13.1056  -18.2660 C   0  0  0  0  0  0  0  0  0  0  0  0
   22.0816  -13.1372  -17.7782 O   0  0  0  0  0  0  0  0  0  0  0  0
   20.8851   -9.7451  -20.0445 C   0  0  0  0  0  0  0  0  0  0  0  0
   21.4011  -10.7542  -19.0151 C   0  0  2  0  0  0  0  0  0  0  0  0
   20.5353  -11.8918  -18.9074 N   0  0  0  0  0  0  0  0  0  0  0  0
   21.5205  -10.0951  -17.6712 C   0  0  0  0  0  0  0  0  0  0  0  0
   20.5690  -10.1603  -16.8348 O   0  0  0  0  0  0  0  0  0  0  0  0
   26.0305  -10.3206  -14.7505 C   0  0  0  0  0  0  0  0  0  0  0  0
   24.5447  -10.2643  -15.0675 C   0  0  1  0  0  0  0  0  0  0  0  0
   23.7454  -10.7097  -13.8360 C   0  0  0  0  0  0  0  0  0  0  0  0
   24.1814   -8.8704  -15.4596 C   0  0  0  0  0  0  0  0  0  0  0  0
   22.7749   -8.7829  -15.9367 C   0  0  2  0  0  0  0  0  0  0  0  0
   22.6751   -9.3893  -17.2912 N   0  0  0  0  0  0  0  0  0  0  0  0
   22.2519   -7.4108  -15.9890 C   0  0  0  0  0  0  0  0  0  0  0  0
   21.8156   -6.7595  -14.8298 O   0  0  0  0  0  0  0  0  0  0  0  0
   22.1798   -6.7863  -17.0573 O   0  0  0  0  0  0  0  0  0  0  0  0
  2  1  1  1
  3  2  1  0
  4  3  1  0
  5  6  2  0
  5  2  1  0
  8  7  1  6
  8  9  1  0
  9  5  1  0
 10  8  1  0
 11 10  2  0
 13 12  1  1
 13 14  1  0
 15 13  1  0
 16 15  1  6
 16 17  1  0
 17 10  1  0
 18 16  1  0
 19 18  1  0
 20 18  2  0
M  END
$$$$
