CAL.pdb
     RDKit          3D

 20 19  0  0  1  0  0  0  0  0999 V2000
   18.3033  -12.9060  -17.6362 N   0  0  0  0  0  0  0  0  0  0  0  0
   17.7141  -11.6206  -17.2803 C   0  0  1  0  0  0  0  0  0  0  0  0
   17.1099  -11.8042  -15.8829 C   0  0  0  0  0  0  0  0  0  0  0  0
   15.5442  -12.6718  -15.9524 S   0  0  0  0  0  0  0  0  0  0  0  0
   18.8045  -10.6126  -17.2444 C   0  0  0  0  0  0  0  0  0  0  0  0
   19.9615  -10.8918  -16.7866 O   0  0  0  0  0  0  0  0  0  0  0  0
   19.2678   -7.0567  -18.5314 C   0  0  0  0  0  0  0  0  0  0  0  0
   19.6893   -8.3143  -17.7665 C   0  0  2  0  0  0  0  0  0  0  0  0
   18.6327   -9.2819  -17.7135 N   0  0  0  0  0  0  0  0  0  0  0  0
   20.0945   -7.9480  -16.3678 C   0  0  0  0  0  0  0  0  0  0  0  0
   19.2263   -7.8640  -15.4466 O   0  0  0  0  0  0  0  0  0  0  0  0
   24.5092   -8.2904  -15.3241 C   0  0  0  0  0  0  0  0  0  0  0  0
   23.3356   -9.1346  -14.8542 C   0  0  1  0  0  0  0  0  0  0  0  0
   23.8635  -10.3875  -14.1432 C   0  0  0  0  0  0  0  0  0  0  0  0
   22.4861   -8.3215  -13.9345 C   0  0  0  0  0  0  0  0  0  0  0  0
   21.7855   -7.2264  -14.6581 C   0  0  2  0  0  0  0  0  0  0  0  0
   21.4331   -7.6870  -16.0277 N   0  0  0  0  0  0  0  0  0  0  0  0
   22.5692   -5.9875  -14.7587 C   0  0  0  0  0  0  0  0  0  0  0  0
   22.9916   -5.3051  -13.6123 O   0  0  0  0  0  0  0  0  0  0  0  0
   22.8813   -5.5070  -15.8579 O   0  0  0  0  0  0  0  0  0  0  0  0
  2  1  1  1
  3  2  1  0
  4  3  1  0
  5  6  2  0
  5  2  1  0
  8  7  1  1
  8  9  1  0
  9  5  1  0
 10  8  1  0
 11 10  2  0
 13 12  1  1
 13 14  1  0
 15 13  1  0
 16 15  1  6
 16 17  1  0
 17 10  1  0
 18 16  1  0
 19 18  1  0
 20 18  2  0
M  END
$$$$
