CAL.pdb
     RDKit          3D

 20 19  0  0  1  0  0  0  0  0999 V2000
   20.6742  -16.3804  -17.1715 N   0  0  0  0  0  0  0  0  0  0  0  0
   20.0825  -15.3932  -16.2763 C   0  0  1  0  0  0  0  0  0  0  0  0
   20.5522  -15.7661  -14.8650 C   0  0  0  0  0  0  0  0  0  0  0  0
   19.6972  -17.2147  -14.2489 S   0  0  0  0  0  0  0  0  0  0  0  0
   20.6061  -14.0571  -16.6598 C   0  0  0  0  0  0  0  0  0  0  0  0
   21.8372  -13.8730  -16.9366 O   0  0  0  0  0  0  0  0  0  0  0  0
   19.0841  -10.8144  -17.8254 C   0  0  0  0  0  0  0  0  0  0  0  0
   20.2299  -11.6327  -17.2241 C   0  0  2  0  0  0  0  0  0  0  0  0
   19.7774  -12.9052  -16.7432 N   0  0  0  0  0  0  0  0  0  0  0  0
   20.8598  -10.8724  -16.0928 C   0  0  0  0  0  0  0  0  0  0  0  0
   20.3815  -10.9482  -14.9203 O   0  0  0  0  0  0  0  0  0  0  0  0
   26.1466  -10.4772  -15.6593 C   0  0  0  0  0  0  0  0  0  0  0  0
   24.6620  -10.6055  -15.3585 C   0  0  1  0  0  0  0  0  0  0  0  0
   24.4758  -11.3382  -14.0234 C   0  0  0  0  0  0  0  0  0  0  0  0
   24.0549   -9.2427  -15.3044 C   0  0  0  0  0  0  0  0  0  0  0  0
   22.5771   -9.3057  -15.1440 C   0  0  2  0  0  0  0  0  0  0  0  0
   21.9889  -10.0576  -16.2847 N   0  0  0  0  0  0  0  0  0  0  0  0
   21.9342   -7.9872  -15.0600 C   0  0  0  0  0  0  0  0  0  0  0  0
   21.1043   -7.5217  -16.0862 O   0  0  0  0  0  0  0  0  0  0  0  0
   22.1045   -7.2455  -14.0815 O   0  0  0  0  0  0  0  0  0  0  0  0
  2  1  1  6
  3  2  1  0
  4  3  1  0
  5  6  2  0
  5  2  1  0
  8  7  1  1
  8  9  1  0
  9  5  1  0
 10  8  1  0
 11 10  2  0
 13 12  1  1
 13 14  1  0
 15 13  1  0
 16 15  1  6
 16 17  1  0
 17 10  1  0
 18 16  1  0
 19 18  1  0
 20 18  2  0
M  END
$$$$
