CAL.pdb
     RDKit          3D

 20 19  0  0  1  0  0  0  0  0999 V2000
   19.5969  -16.0613  -18.5954 N   0  0  0  0  0  0  0  0  0  0  0  0
   19.1379  -15.2102  -17.5042 C   0  0  1  0  0  0  0  0  0  0  0  0
   19.7005  -15.8291  -16.2190 C   0  0  0  0  0  0  0  0  0  0  0  0
   18.6505  -17.1462  -15.6092 S   0  0  0  0  0  0  0  0  0  0  0  0
   19.7028  -13.8526  -17.7151 C   0  0  0  0  0  0  0  0  0  0  0  0
   20.9236  -13.6767  -18.0387 O   0  0  0  0  0  0  0  0  0  0  0  0
   18.3258  -10.3168  -17.9243 C   0  0  0  0  0  0  0  0  0  0  0  0
   19.4465  -11.3489  -17.7726 C   0  0  2  0  0  0  0  0  0  0  0  0
   18.9273  -12.6700  -17.5717 N   0  0  0  0  0  0  0  0  0  0  0  0
   20.3240  -10.9809  -16.6109 C   0  0  0  0  0  0  0  0  0  0  0  0
   20.0519  -11.3925  -15.4422 O   0  0  0  0  0  0  0  0  0  0  0  0
   24.1686  -10.7000  -13.3722 C   0  0  0  0  0  0  0  0  0  0  0  0
   24.5656   -9.9602  -14.6396 C   0  0  1  0  0  0  0  0  0  0  0  0
   26.0275  -10.2801  -14.9777 C   0  0  0  0  0  0  0  0  0  0  0  0
   23.6610  -10.3763  -15.7519 C   0  0  0  0  0  0  0  0  0  0  0  0
   22.2956   -9.8074  -15.5915 C   0  0  2  0  0  0  0  0  0  0  0  0
   21.4660  -10.1770  -16.7694 N   0  0  0  0  0  0  0  0  0  0  0  0
   22.2778   -8.3464  -15.4355 C   0  0  0  0  0  0  0  0  0  0  0  0
   22.3048   -7.7552  -14.1674 O   0  0  0  0  0  0  0  0  0  0  0  0
   22.2384   -7.5914  -16.4178 O   0  0  0  0  0  0  0  0  0  0  0  0
  2  1  1  6
  3  2  1  0
  4  3  1  0
  5  6  2  0
  5  2  1  0
  8  7  1  1
  8  9  1  0
  9  5  1  0
 10  8  1  0
 11 10  2  0
 13 12  1  1
 13 14  1  0
 15 13  1  0
 16 15  1  6
 16 17  1  0
 17 10  1  0
 18 16  1  0
 19 18  1  0
 20 18  2  0
M  END
$$$$
