CAL.pdb
     RDKit          3D

 20 19  0  0  1  0  0  0  0  0999 V2000
   26.0094  -20.6252   -9.1716 N   0  0  0  0  0  0  0  0  0  0  0  0
   25.2480  -20.8791  -10.3888 C   0  0  1  0  0  0  0  0  0  0  0  0
   23.9564  -20.0628  -10.2583 C   0  0  0  0  0  0  0  0  0  0  0  0
   22.8354  -20.7922   -9.0665 S   0  0  0  0  0  0  0  0  0  0  0  0
   26.0522  -20.3946  -11.5400 C   0  0  0  0  0  0  0  0  0  0  0  0
   26.7314  -19.3171  -11.4779 O   0  0  0  0  0  0  0  0  0  0  0  0
   27.2803  -21.7606  -14.8320 C   0  0  0  0  0  0  0  0  0  0  0  0
   26.8283  -20.6130  -13.9248 C   0  0  2  0  0  0  0  0  0  0  0  0
   26.1178  -21.0934  -12.7760 N   0  0  0  0  0  0  0  0  0  0  0  0
   25.9457  -19.6729  -14.6942 C   0  0  0  0  0  0  0  0  0  0  0  0
   24.6833  -19.7885  -14.6448 O   0  0  0  0  0  0  0  0  0  0  0  0
   26.9486  -14.3178  -15.6416 C   0  0  0  0  0  0  0  0  0  0  0  0
   26.2281  -15.6216  -15.3382 C   0  0  1  0  0  0  0  0  0  0  0  0
   24.7928  -15.3164  -14.8903 C   0  0  0  0  0  0  0  0  0  0  0  0
   26.2310  -16.4775  -16.5614 C   0  0  0  0  0  0  0  0  0  0  0  0
   25.5769  -17.7908  -16.3144 C   0  0  2  0  0  0  0  0  0  0  0  0
   26.4752  -18.6415  -15.4888 N   0  0  0  0  0  0  0  0  0  0  0  0
   25.2274  -18.5181  -17.5424 C   0  0  0  0  0  0  0  0  0  0  0  0
   23.9490  -18.4169  -18.1026 O   0  0  0  0  0  0  0  0  0  0  0  0
   26.0497  -19.2429  -18.1212 O   0  0  0  0  0  0  0  0  0  0  0  0
  2  1  1  1
  3  2  1  0
  4  3  1  0
  5  6  2  0
  5  2  1  0
  8  7  1  6
  8  9  1  0
  9  5  1  0
 10  8  1  0
 11 10  2  0
 13 12  1  6
 13 14  1  0
 15 13  1  0
 16 15  1  6
 16 17  1  0
 17 10  1  0
 18 16  1  0
 19 18  1  0
 20 18  2  0
M  END
$$$$
