CAL.pdb
     RDKit          3D

 20 19  0  0  1  0  0  0  0  0999 V2000
   15.7013  -11.2114  -17.1232 N   0  0  0  0  0  0  0  0  0  0  0  0
   16.7420  -10.7579  -16.2082 C   0  0  1  0  0  0  0  0  0  0  0  0
   18.0423  -11.4146  -16.6871 C   0  0  0  0  0  0  0  0  0  0  0  0
   18.3078  -13.0002  -15.8969 S   0  0  0  0  0  0  0  0  0  0  0  0
   16.8368   -9.2797  -16.3209 C   0  0  0  0  0  0  0  0  0  0  0  0
   16.8184   -8.6904  -17.4516 O   0  0  0  0  0  0  0  0  0  0  0  0
   15.9965   -6.3071  -14.4143 C   0  0  0  0  0  0  0  0  0  0  0  0
   17.0596   -7.0041  -15.2677 C   0  0  2  0  0  0  0  0  0  0  0  0
   16.9531   -8.4314  -15.1863 N   0  0  0  0  0  0  0  0  0  0  0  0
   18.4294   -6.5843  -14.8179 C   0  0  0  0  0  0  0  0  0  0  0  0
   18.7558   -5.3585  -14.8046 O   0  0  0  0  0  0  0  0  0  0  0  0
   22.6162   -8.9632  -15.3754 C   0  0  0  0  0  0  0  0  0  0  0  0
   21.6188   -9.3487  -14.2949 C   0  0  1  0  0  0  0  0  0  0  0  0
   22.1181  -10.6036  -13.5670 C   0  0  0  0  0  0  0  0  0  0  0  0
   21.4654   -8.2092  -13.3426 C   0  0  0  0  0  0  0  0  0  0  0  0
   20.7402   -7.0682  -13.9636 C   0  0  2  0  0  0  0  0  0  0  0  0
   19.3916   -7.5195  -14.3993 N   0  0  0  0  0  0  0  0  0  0  0  0
   21.4395   -6.4776  -15.1130 C   0  0  0  0  0  0  0  0  0  0  0  0
   21.0045   -6.7133  -16.4220 O   0  0  0  0  0  0  0  0  0  0  0  0
   22.4343   -5.7535  -14.9626 O   0  0  0  0  0  0  0  0  0  0  0  0
  2  1  1  6
  3  2  1  0
  4  3  1  0
  5  6  2  0
  5  2  1  0
  8  7  1  1
  8  9  1  0
  9  5  1  0
 10  8  1  0
 11 10  2  0
 13 12  1  6
 13 14  1  0
 15 13  1  0
 16 15  1  6
 16 17  1  0
 17 10  1  0
 18 16  1  0
 19 18  1  0
 20 18  2  0
M  END
$$$$
