APK.pdb
     RDKit          3D

 22 22  0  0  1  0  0  0  0  0999 V2000
   27.9720  -18.9149  -14.7437 C   0  0  0  0  0  0  0  0  0  0  0  0
   28.1449  -20.3693  -14.3457 C   0  0  2  0  0  0  0  0  0  0  0  0
   28.7385  -21.0287  -15.5001 N   0  0  0  0  0  0  0  0  0  0  0  0
   26.8430  -21.0026  -14.0184 C   0  0  0  0  0  0  0  0  0  0  0  0
   26.3573  -21.8068  -14.8611 O   0  0  0  0  0  0  0  0  0  0  0  0
   26.1295  -20.7605  -12.8374 N   0  0  0  0  0  0  0  0  0  0  0  0
   26.4806  -19.8439  -11.7945 C   0  0  0  0  0  0  0  0  0  0  0  0
   26.1841  -20.7112  -10.5624 C   0  0  0  0  0  0  0  0  0  0  0  0
   25.0814  -21.6280  -10.9831 C   0  0  0  0  0  0  0  0  0  0  0  0
   24.9014  -21.3904  -12.4583 C   0  0  1  0  0  0  0  0  0  0  0  0
   23.6974  -20.5736  -12.7713 C   0  0  0  0  0  0  0  0  0  0  0  0
   23.7628  -19.3482  -12.4922 O   0  0  0  0  0  0  0  0  0  0  0  0
   22.5327  -21.0754  -13.3401 N   0  0  0  0  0  0  0  0  0  0  0  0
   21.4054  -20.1650  -13.8147 C   0  0  1  0  0  0  0  0  0  0  0  0
   21.2417  -20.4220  -15.2517 C   0  0  0  0  0  0  0  0  0  0  0  0
   22.3216  -20.2092  -16.1935 C   0  0  0  0  0  0  0  0  0  0  0  0
   22.1955  -20.3975  -17.6466 C   0  0  0  0  0  0  0  0  0  0  0  0
   23.4380  -20.1996  -18.4491 C   0  0  0  0  0  0  0  0  0  0  0  0
   23.1206  -20.3539  -19.8559 N   0  0  0  0  0  0  0  0  0  0  0  0
   20.2736  -20.4708  -12.9296 C   0  0  0  0  0  0  0  0  0  0  0  0
   19.2082  -19.5317  -12.7867 O   0  0  0  0  0  0  0  0  0  0  0  0
   20.1411  -21.4974  -12.2683 O   0  0  0  0  0  0  0  0  0  0  0  0
  2  3  1  0
  2  1  1  6
  4  2  1  0
  5  4  2  0
  6  7  1  0
  6  4  1  0
  8  7  1  0
  9 10  1  0
  9  8  1  0
 10  6  1  0
 10 11  1  1
 11 13  1  0
 12 11  2  0
 13 14  1  0
 14 20  1  0
 14 15  1  6
 16 15  1  0
 17 16  1  0
 18 17  1  0
 19 18  1  0
 20 21  1  0
 22 20  2  0
M  END
$$$$
