APK.pdb
     RDKit          3D

 22 22  0  0  1  0  0  0  0  0999 V2000
   23.8135  -12.3000  -19.4937 C   0  0  0  0  0  0  0  0  0  0  0  0
   24.3128  -12.9607  -18.2217 C   0  0  2  0  0  0  0  0  0  0  0  0
   23.5230  -14.1743  -18.0687 N   0  0  0  0  0  0  0  0  0  0  0  0
   24.1206  -12.0826  -17.0405 C   0  0  0  0  0  0  0  0  0  0  0  0
   23.1159  -12.3012  -16.3087 O   0  0  0  0  0  0  0  0  0  0  0  0
   24.9837  -11.0347  -16.6952 N   0  0  0  0  0  0  0  0  0  0  0  0
   26.1678  -10.6322  -17.3929 C   0  0  0  0  0  0  0  0  0  0  0  0
   27.1192  -10.4165  -16.2070 C   0  0  0  0  0  0  0  0  0  0  0  0
   26.2422  -10.0041  -15.0693 C   0  0  0  0  0  0  0  0  0  0  0  0
   24.8320  -10.1624  -15.5706 C   0  0  1  0  0  0  0  0  0  0  0  0
   24.1890   -8.8644  -15.9124 C   0  0  0  0  0  0  0  0  0  0  0  0
   24.5061   -8.3555  -17.0187 O   0  0  0  0  0  0  0  0  0  0  0  0
   23.2806   -8.1983  -15.0981 N   0  0  0  0  0  0  0  0  0  0  0  0
   22.4696   -7.0066  -15.5950 C   0  0  1  0  0  0  0  0  0  0  0  0
   21.1646   -7.5372  -16.0112 C   0  0  0  0  0  0  0  0  0  0  0  0
   20.1051   -6.6718  -16.4878 C   0  0  0  0  0  0  0  0  0  0  0  0
   18.8034   -7.1548  -16.9726 C   0  0  0  0  0  0  0  0  0  0  0  0
   17.8886   -6.1252  -17.5474 C   0  0  0  0  0  0  0  0  0  0  0  0
   16.7229   -6.7866  -18.1018 N   0  0  0  0  0  0  0  0  0  0  0  0
   22.4966   -6.0419  -14.4874 C   0  0  0  0  0  0  0  0  0  0  0  0
   22.7220   -6.4966  -13.1533 O   0  0  0  0  0  0  0  0  0  0  0  0
   22.3380   -4.8285  -14.5931 O   0  0  0  0  0  0  0  0  0  0  0  0
  2  3  1  0
  2  1  1  6
  4  2  1  0
  5  4  2  0
  6  7  1  0
  6  4  1  0
  8  7  1  0
  9 10  1  0
  9  8  1  0
 10  6  1  0
 10 11  1  6
 11 13  1  0
 12 11  2  0
 13 14  1  0
 14 20  1  0
 14 15  1  1
 16 15  1  0
 17 16  1  0
 18 17  1  0
 19 18  1  0
 20 21  1  0
 22 20  2  0
M  END
$$$$
