APK.pdb
     RDKit          3D

 22 22  0  0  1  0  0  0  0  0999 V2000
   37.8439   -9.0224   -6.6599 C   0  0  0  0  0  0  0  0  0  0  0  0
   39.1121   -9.3765   -7.4148 C   0  0  2  0  0  0  0  0  0  0  0  0
   40.1279   -9.6075   -6.3976 N   0  0  0  0  0  0  0  0  0  0  0  0
   39.5385   -8.2726   -8.3108 C   0  0  0  0  0  0  0  0  0  0  0  0
   40.5116   -7.5610   -7.9371 O   0  0  0  0  0  0  0  0  0  0  0  0
   38.9277   -7.9790   -9.5367 N   0  0  0  0  0  0  0  0  0  0  0  0
   37.8642   -8.7060  -10.1622 C   0  0  0  0  0  0  0  0  0  0  0  0
   38.3729   -8.7349  -11.6108 C   0  0  0  0  0  0  0  0  0  0  0  0
   39.1795   -7.4867  -11.7692 C   0  0  0  0  0  0  0  0  0  0  0  0
   39.2577   -6.8810  -10.3936 C   0  0  1  0  0  0  0  0  0  0  0  0
   38.3570   -5.7083  -10.2245 C   0  0  0  0  0  0  0  0  0  0  0  0
   37.1514   -5.9597   -9.9660 O   0  0  0  0  0  0  0  0  0  0  0  0
   38.7622   -4.3833  -10.3339 N   0  0  0  0  0  0  0  0  0  0  0  0
   37.8636   -3.2243   -9.9167 C   0  0  1  0  0  0  0  0  0  0  0  0
   38.7157   -2.2840   -9.1767 C   0  0  0  0  0  0  0  0  0  0  0  0
   38.1958   -1.0438   -8.6380 C   0  0  0  0  0  0  0  0  0  0  0  0
   38.9947   -0.0864   -7.8583 C   0  0  0  0  0  0  0  0  0  0  0  0
   38.2592    1.0834   -7.2944 C   0  0  0  0  0  0  0  0  0  0  0  0
   39.1666    1.8582   -6.4696 N   0  0  0  0  0  0  0  0  0  0  0  0
   37.2467   -2.7551  -11.1647 C   0  0  0  0  0  0  0  0  0  0  0  0
   36.0446   -1.9868  -11.1192 O   0  0  0  0  0  0  0  0  0  0  0  0
   37.6762   -2.9643  -12.2963 O   0  0  0  0  0  0  0  0  0  0  0  0
  2  3  1  0
  2  1  1  1
  4  2  1  0
  5  4  2  0
  6  7  1  0
  6  4  1  0
  8  7  1  0
  9 10  1  0
  9  8  1  0
 10  6  1  0
 10 11  1  6
 11 13  1  0
 12 11  2  0
 13 14  1  0
 14 20  1  0
 14 15  1  6
 16 15  1  0
 17 16  1  0
 18 17  1  0
 19 18  1  0
 20 21  1  0
 22 20  2  0
M  END
$$$$
