APK.pdb
     RDKit          3D

 22 22  0  0  1  0  0  0  0  0999 V2000
   15.7949   -9.3438  -12.0275 C   0  0  0  0  0  0  0  0  0  0  0  0
   14.5855   -9.1974  -11.1221 C   0  0  2  0  0  0  0  0  0  0  0  0
   13.4657   -9.7621  -11.8615 N   0  0  0  0  0  0  0  0  0  0  0  0
   14.3125   -7.7733  -10.8046 C   0  0  0  0  0  0  0  0  0  0  0  0
   13.5015   -7.1552  -11.5483 O   0  0  0  0  0  0  0  0  0  0  0  0
   14.8985   -7.0832   -9.7358 N   0  0  0  0  0  0  0  0  0  0  0  0
   15.7828   -7.6226   -8.7469 C   0  0  0  0  0  0  0  0  0  0  0  0
   15.1997   -6.9756   -7.4821 C   0  0  0  0  0  0  0  0  0  0  0  0
   14.6172   -5.6769   -7.9377 C   0  0  0  0  0  0  0  0  0  0  0  0
   14.7206   -5.6943   -9.4391 C   0  0  1  0  0  0  0  0  0  0  0  0
   15.8207   -4.8346   -9.9544 C   0  0  0  0  0  0  0  0  0  0  0  0
   16.8751   -5.4240  -10.3068 O   0  0  0  0  0  0  0  0  0  0  0  0
   15.7512   -3.4508  -10.0653 N   0  0  0  0  0  0  0  0  0  0  0  0
   16.0337   -2.7281  -11.3779 C   0  0  1  0  0  0  0  0  0  0  0  0
   15.2085   -3.3860  -12.3997 C   0  0  0  0  0  0  0  0  0  0  0  0
   15.0640   -2.8388  -13.7332 C   0  0  0  0  0  0  0  0  0  0  0  0
   14.3188   -3.4972  -14.8167 C   0  0  0  0  0  0  0  0  0  0  0  0
   14.2037   -2.7378  -16.0962 C   0  0  0  0  0  0  0  0  0  0  0  0
   13.5285   -3.5657  -17.0772 N   0  0  0  0  0  0  0  0  0  0  0  0
   15.7729   -1.3107  -11.0935 C   0  0  0  0  0  0  0  0  0  0  0  0
   16.6527   -0.3091  -11.6036 O   0  0  0  0  0  0  0  0  0  0  0  0
   14.8338   -0.8760  -10.4318 O   0  0  0  0  0  0  0  0  0  0  0  0
  2  3  1  0
  2  1  1  6
  4  2  1  0
  5  4  2  0
  6  7  1  0
  6  4  1  0
  8  7  1  0
  9 10  1  0
  9  8  1  0
 10  6  1  0
 10 11  1  1
 11 13  1  0
 12 11  2  0
 13 14  1  0
 14 20  1  0
 14 15  1  6
 16 15  1  0
 17 16  1  0
 18 17  1  0
 19 18  1  0
 20 21  1  0
 22 20  2  0
M  END
$$$$
