APK.pdb
     RDKit          3D

 22 22  0  0  1  0  0  0  0  0999 V2000
   20.9105  -11.9594  -18.6569 C   0  0  0  0  0  0  0  0  0  0  0  0
   21.0434  -12.6715  -17.3231 C   0  0  2  0  0  0  0  0  0  0  0  0
   19.8927  -13.5588  -17.2307 N   0  0  0  0  0  0  0  0  0  0  0  0
   21.0319  -11.7123  -16.1904 C   0  0  0  0  0  0  0  0  0  0  0  0
   19.9189  -11.4589  -15.6520 O   0  0  0  0  0  0  0  0  0  0  0  0
   22.1763  -11.0785  -15.6896 N   0  0  0  0  0  0  0  0  0  0  0  0
   23.5178  -11.2234  -16.1696 C   0  0  0  0  0  0  0  0  0  0  0  0
   24.2704  -11.3378  -14.8359 C   0  0  0  0  0  0  0  0  0  0  0  0
   23.4632  -10.5445  -13.8598 C   0  0  0  0  0  0  0  0  0  0  0  0
   22.2101  -10.1550  -14.5966 C   0  0  1  0  0  0  0  0  0  0  0  0
   22.2097   -8.7303  -15.0268 C   0  0  0  0  0  0  0  0  0  0  0  0
   22.8695   -8.4570  -16.0629 O   0  0  0  0  0  0  0  0  0  0  0  0
   21.5385   -7.7090  -14.3646 N   0  0  0  0  0  0  0  0  0  0  0  0
   21.4496   -6.2967  -14.9325 C   0  0  1  0  0  0  0  0  0  0  0  0
   20.0193   -5.9731  -15.0180 C   0  0  0  0  0  0  0  0  0  0  0  0
   19.0987   -6.7802  -15.7924 C   0  0  0  0  0  0  0  0  0  0  0  0
   17.6625   -6.4926  -15.9243 C   0  0  0  0  0  0  0  0  0  0  0  0
   16.9004   -7.3543  -16.8750 C   0  0  0  0  0  0  0  0  0  0  0  0
   15.5032   -6.9661  -16.8474 N   0  0  0  0  0  0  0  0  0  0  0  0
   22.2864   -5.4783  -14.0448 C   0  0  0  0  0  0  0  0  0  0  0  0
   22.6707   -5.9816  -12.7656 O   0  0  0  0  0  0  0  0  0  0  0  0
   22.7099   -4.3537  -14.2990 O   0  0  0  0  0  0  0  0  0  0  0  0
  2  3  1  0
  2  1  1  6
  4  2  1  0
  5  4  2  0
  6  7  1  0
  6  4  1  0
  8  7  1  0
  9 10  1  0
  9  8  1  0
 10  6  1  0
 10 11  1  6
 11 13  1  0
 12 11  2  0
 13 14  1  0
 14 20  1  0
 14 15  1  1
 16 15  1  0
 17 16  1  0
 18 17  1  0
 19 18  1  0
 20 21  1  0
 22 20  2  0
M  END
$$$$
