APK.pdb
     RDKit          3D

 22 22  0  0  1  0  0  0  0  0999 V2000
   33.3730  -32.8054   -6.7037 C   0  0  0  0  0  0  0  0  0  0  0  0
   33.9775  -34.1973   -6.7354 C   0  0  2  0  0  0  0  0  0  0  0  0
   33.6717  -34.7327   -8.0544 N   0  0  0  0  0  0  0  0  0  0  0  0
   33.3894  -35.0702   -5.6889 C   0  0  0  0  0  0  0  0  0  0  0  0
   32.6140  -35.9918   -6.0662 O   0  0  0  0  0  0  0  0  0  0  0  0
   33.6442  -34.9304   -4.3186 N   0  0  0  0  0  0  0  0  0  0  0  0
   34.3541  -33.8620   -3.6818 C   0  0  0  0  0  0  0  0  0  0  0  0
   35.2200  -34.6624   -2.6981 C   0  0  0  0  0  0  0  0  0  0  0  0
   34.4215  -35.8838   -2.3753 C   0  0  0  0  0  0  0  0  0  0  0  0
   33.2302  -35.8399   -3.2939 C   0  0  1  0  0  0  0  0  0  0  0  0
   31.9803  -35.4218   -2.6026 C   0  0  0  0  0  0  0  0  0  0  0  0
   31.7438  -34.1863   -2.5699 O   0  0  0  0  0  0  0  0  0  0  0  0
   31.0814  -36.2976   -2.0052 N   0  0  0  0  0  0  0  0  0  0  0  0
   29.7195  -35.8381   -1.4962 C   0  0  1  0  0  0  0  0  0  0  0  0
   28.7951  -36.9586   -1.7150 C   0  0  0  0  0  0  0  0  0  0  0  0
   27.3771  -36.8432   -1.4419 C   0  0  0  0  0  0  0  0  0  0  0  0
   26.3956  -37.9009   -1.7260 C   0  0  0  0  0  0  0  0  0  0  0  0
   24.9779  -37.6001   -1.3699 C   0  0  0  0  0  0  0  0  0  0  0  0
   24.1742  -38.7873   -1.5897 N   0  0  0  0  0  0  0  0  0  0  0  0
   29.9585  -35.4058   -0.1126 C   0  0  0  0  0  0  0  0  0  0  0  0
   29.0899  -34.4492    0.4939 O   0  0  0  0  0  0  0  0  0  0  0  0
   30.8696  -35.7990    0.6112 O   0  0  0  0  0  0  0  0  0  0  0  0
  2  3  1  0
  2  1  1  6
  4  2  1  0
  5  4  2  0
  6  7  1  0
  6  4  1  0
  8  7  1  0
  9 10  1  0
  9  8  1  0
 10  6  1  0
 10 11  1  1
 11 13  1  0
 12 11  2  0
 13 14  1  0
 14 20  1  0
 14 15  1  1
 16 15  1  0
 17 16  1  0
 18 17  1  0
 19 18  1  0
 20 21  1  0
 22 20  2  0
M  END
$$$$
