APK.pdb
     RDKit          3D

 22 22  0  0  1  0  0  0  0  0999 V2000
   27.6818  -18.8974  -14.2769 C   0  0  0  0  0  0  0  0  0  0  0  0
   27.9606  -20.3086  -13.7926 C   0  0  2  0  0  0  0  0  0  0  0  0
   28.6014  -20.9913  -14.9076 N   0  0  0  0  0  0  0  0  0  0  0  0
   26.7084  -21.0144  -13.4225 C   0  0  0  0  0  0  0  0  0  0  0  0
   26.3211  -21.9493  -14.1767 O   0  0  0  0  0  0  0  0  0  0  0  0
   25.9394  -20.7046  -12.2934 N   0  0  0  0  0  0  0  0  0  0  0  0
   26.2172  -19.6956  -11.3157 C   0  0  0  0  0  0  0  0  0  0  0  0
   25.8987  -20.4718  -10.0295 C   0  0  0  0  0  0  0  0  0  0  0  0
   24.8448  -21.4582  -10.4163 C   0  0  0  0  0  0  0  0  0  0  0  0
   24.7180  -21.3458  -11.9118 C   0  0  1  0  0  0  0  0  0  0  0  0
   23.5018  -20.6003  -12.3360 C   0  0  0  0  0  0  0  0  0  0  0  0
   23.5873  -19.3448  -12.3426 O   0  0  0  0  0  0  0  0  0  0  0  0
   22.3057  -21.1977  -12.7158 N   0  0  0  0  0  0  0  0  0  0  0  0
   21.2212  -20.4335  -13.4672 C   0  0  1  0  0  0  0  0  0  0  0  0
   20.9976  -21.1593  -14.7246 C   0  0  0  0  0  0  0  0  0  0  0  0
   19.9947  -20.7382  -15.6814 C   0  0  0  0  0  0  0  0  0  0  0  0
   19.7203  -21.4357  -16.9467 C   0  0  0  0  0  0  0  0  0  0  0  0
   18.6562  -20.8446  -17.8101 C   0  0  0  0  0  0  0  0  0  0  0  0
   18.5687  -21.6078  -19.0404 N   0  0  0  0  0  0  0  0  0  0  0  0
   20.1010  -20.3377  -12.5216 C   0  0  0  0  0  0  0  0  0  0  0  0
   19.1553  -19.2756  -12.6441 O   0  0  0  0  0  0  0  0  0  0  0  0
   19.8821  -21.1114  -11.5930 O   0  0  0  0  0  0  0  0  0  0  0  0
  2  3  1  0
  2  1  1  6
  4  2  1  0
  5  4  2  0
  6  7  1  0
  6  4  1  0
  8  7  1  0
  9 10  1  0
  9  8  1  0
 10  6  1  0
 10 11  1  1
 11 13  1  0
 12 11  2  0
 13 14  1  0
 14 20  1  0
 14 15  1  6
 16 15  1  0
 17 16  1  0
 18 17  1  0
 19 18  1  0
 20 21  1  0
 22 20  2  0
M  END
$$$$
