APK.pdb
     RDKit          3D

 22 22  0  0  1  0  0  0  0  0999 V2000
   27.5851  -20.2808  -17.7191 C   0  0  0  0  0  0  0  0  0  0  0  0
   28.2293  -21.2681  -16.7630 C   0  0  2  0  0  0  0  0  0  0  0  0
   28.7556  -22.3406  -17.5952 N   0  0  0  0  0  0  0  0  0  0  0  0
   27.2420  -21.8164  -15.7997 C   0  0  0  0  0  0  0  0  0  0  0  0
   26.8056  -22.9815  -16.0116 O   0  0  0  0  0  0  0  0  0  0  0  0
   26.7719  -21.1201  -14.6788 N   0  0  0  0  0  0  0  0  0  0  0  0
   27.0131  -19.7453  -14.3585 C   0  0  0  0  0  0  0  0  0  0  0  0
   27.3133  -19.8670  -12.8574 C   0  0  0  0  0  0  0  0  0  0  0  0
   26.5248  -21.0487  -12.3933 C   0  0  0  0  0  0  0  0  0  0  0  0
   25.9499  -21.6637  -13.6408 C   0  0  1  0  0  0  0  0  0  0  0  0
   24.5020  -21.3687  -13.8184 C   0  0  0  0  0  0  0  0  0  0  0  0
   24.2135  -20.2373  -14.2878 O   0  0  0  0  0  0  0  0  0  0  0  0
   23.4751  -22.2504  -13.5022 N   0  0  0  0  0  0  0  0  0  0  0  0
   22.0149  -21.9372  -13.8097 C   0  0  1  0  0  0  0  0  0  0  0  0
   21.2845  -23.2062  -13.6916 C   0  0  0  0  0  0  0  0  0  0  0  0
   19.8396  -23.2664  -13.7765 C   0  0  0  0  0  0  0  0  0  0  0  0
   19.1020  -23.6574  -14.9872 C   0  0  0  0  0  0  0  0  0  0  0  0
   17.6130  -23.6467  -14.8865 C   0  0  0  0  0  0  0  0  0  0  0  0
   17.0501  -23.9713  -16.1832 N   0  0  0  0  0  0  0  0  0  0  0  0
   21.6580  -20.8515  -12.8867 C   0  0  0  0  0  0  0  0  0  0  0  0
   22.3388  -20.7264  -11.6383 O   0  0  0  0  0  0  0  0  0  0  0  0
   20.7949  -20.0003  -13.0849 O   0  0  0  0  0  0  0  0  0  0  0  0
  2  3  1  0
  2  1  1  6
  4  2  1  0
  5  4  2  0
  6  7  1  0
  6  4  1  0
  8  7  1  0
  9 10  1  0
  9  8  1  0
 10  6  1  0
 10 11  1  6
 11 13  1  0
 12 11  2  0
 13 14  1  0
 14 20  1  0
 14 15  1  1
 16 15  1  0
 17 16  1  0
 18 17  1  0
 19 18  1  0
 20 21  1  0
 22 20  2  0
M  END
$$$$
