APK.pdb
     RDKit          3D

 22 22  0  0  1  0  0  0  0  0999 V2000
   19.2635   -8.5307  -16.4703 C   0  0  0  0  0  0  0  0  0  0  0  0
   20.4620   -8.8468  -15.5942 C   0  0  2  0  0  0  0  0  0  0  0  0
   20.6594  -10.2857  -15.6962 N   0  0  0  0  0  0  0  0  0  0  0  0
   20.2163   -8.4712  -14.1794 C   0  0  0  0  0  0  0  0  0  0  0  0
   19.8860   -9.3909  -13.3808 O   0  0  0  0  0  0  0  0  0  0  0  0
   20.3296   -7.1655  -13.6849 N   0  0  0  0  0  0  0  0  0  0  0  0
   20.6068   -5.9817  -14.4417 C   0  0  0  0  0  0  0  0  0  0  0  0
   21.6298   -5.3046  -13.5181 C   0  0  0  0  0  0  0  0  0  0  0  0
   21.2637   -5.7436  -12.1372 C   0  0  0  0  0  0  0  0  0  0  0  0
   20.1812   -6.7737  -12.3163 C   0  0  1  0  0  0  0  0  0  0  0  0
   18.8251   -6.2513  -11.9952 C   0  0  0  0  0  0  0  0  0  0  0  0
   18.2568   -5.5767  -12.8927 O   0  0  0  0  0  0  0  0  0  0  0  0
   18.1669   -6.4609  -10.7891 N   0  0  0  0  0  0  0  0  0  0  0  0
   16.6683   -6.2269  -10.6327 C   0  0  1  0  0  0  0  0  0  0  0  0
   16.1708   -7.2950   -9.7555 C   0  0  0  0  0  0  0  0  0  0  0  0
   14.7913   -7.3417   -9.3159 C   0  0  0  0  0  0  0  0  0  0  0  0
   14.2192   -8.4347   -8.5154 C   0  0  0  0  0  0  0  0  0  0  0  0
   12.7969   -8.2711   -8.0941 C   0  0  0  0  0  0  0  0  0  0  0  0
   12.3845   -9.4503   -7.3571 N   0  0  0  0  0  0  0  0  0  0  0  0
   16.5487   -4.8406  -10.1615 C   0  0  0  0  0  0  0  0  0  0  0  0
   15.4115   -4.0600  -10.5289 O   0  0  0  0  0  0  0  0  0  0  0  0
   17.3622   -4.2547   -9.4518 O   0  0  0  0  0  0  0  0  0  0  0  0
  2  3  1  0
  2  1  1  6
  4  2  1  0
  5  4  2  0
  6  7  1  0
  6  4  1  0
  8  7  1  0
  9 10  1  0
  9  8  1  0
 10  6  1  0
 10 11  1  6
 11 13  1  0
 12 11  2  0
 13 14  1  0
 14 20  1  0
 14 15  1  1
 16 15  1  0
 17 16  1  0
 18 17  1  0
 19 18  1  0
 20 21  1  0
 22 20  2  0
M  END
$$$$
