APK.pdb
     RDKit          3D

 22 22  0  0  1  0  0  0  0  0999 V2000
   21.0301  -10.7815  -18.6636 C   0  0  0  0  0  0  0  0  0  0  0  0
   21.6385  -11.0105  -17.2921 C   0  0  2  0  0  0  0  0  0  0  0  0
   21.6048  -12.4504  -17.0786 N   0  0  0  0  0  0  0  0  0  0  0  0
   20.8601  -10.3256  -16.2300 C   0  0  0  0  0  0  0  0  0  0  0  0
   19.9059  -10.9623  -15.7037 O   0  0  0  0  0  0  0  0  0  0  0  0
   21.1225   -9.0244  -15.7826 N   0  0  0  0  0  0  0  0  0  0  0  0
   22.0726   -8.1033  -16.3301 C   0  0  0  0  0  0  0  0  0  0  0  0
   22.6911   -7.5533  -15.0367 C   0  0  0  0  0  0  0  0  0  0  0  0
   21.6025   -7.6324  -14.0157 C   0  0  0  0  0  0  0  0  0  0  0  0
   20.4752   -8.3706  -14.6861 C   0  0  1  0  0  0  0  0  0  0  0  0
   19.3638   -7.4741  -15.1057 C   0  0  0  0  0  0  0  0  0  0  0  0
   19.5195   -6.8582  -16.1920 O   0  0  0  0  0  0  0  0  0  0  0  0
   18.1921   -7.2827  -14.3829 N   0  0  0  0  0  0  0  0  0  0  0  0
   17.0248   -6.4702  -14.9324 C   0  0  1  0  0  0  0  0  0  0  0  0
   15.8203   -7.2869  -14.7327 C   0  0  0  0  0  0  0  0  0  0  0  0
   14.4948   -6.7742  -15.0136 C   0  0  0  0  0  0  0  0  0  0  0  0
   13.2581   -7.5504  -14.8384 C   0  0  0  0  0  0  0  0  0  0  0  0
   11.9876   -6.8632  -15.2138 C   0  0  0  0  0  0  0  0  0  0  0  0
   10.8710   -7.7392  -14.9142 N   0  0  0  0  0  0  0  0  0  0  0  0
   17.1014   -5.1788  -14.2363 C   0  0  0  0  0  0  0  0  0  0  0  0
   16.6311   -3.9946  -14.8799 O   0  0  0  0  0  0  0  0  0  0  0  0
   17.5486   -5.0021  -13.1061 O   0  0  0  0  0  0  0  0  0  0  0  0
  2  3  1  0
  2  1  1  6
  4  2  1  0
  5  4  2  0
  6  7  1  0
  6  4  1  0
  8  7  1  0
  9 10  1  0
  9  8  1  0
 10  6  1  0
 10 11  1  6
 11 13  1  0
 12 11  2  0
 13 14  1  0
 14 20  1  0
 14 15  1  1
 16 15  1  0
 17 16  1  0
 18 17  1  0
 19 18  1  0
 20 21  1  0
 22 20  2  0
M  END
$$$$
