APK.pdb
     RDKit          3D

 22 22  0  0  1  0  0  0  0  0999 V2000
   27.5441  -18.0785  -14.9866 C   0  0  0  0  0  0  0  0  0  0  0  0
   27.7364  -19.5741  -15.1603 C   0  0  2  0  0  0  0  0  0  0  0  0
   27.9562  -19.7831  -16.5843 N   0  0  0  0  0  0  0  0  0  0  0  0
   26.5387  -20.3317  -14.7191 C   0  0  0  0  0  0  0  0  0  0  0  0
   25.7921  -20.8153  -15.6143 O   0  0  0  0  0  0  0  0  0  0  0  0
   26.1936  -20.5387  -13.3773 N   0  0  0  0  0  0  0  0  0  0  0  0
   26.8518  -19.9948  -12.2276 C   0  0  0  0  0  0  0  0  0  0  0  0
   26.8867  -21.2363  -11.3245 C   0  0  0  0  0  0  0  0  0  0  0  0
   25.6823  -22.0344  -11.7067 C   0  0  0  0  0  0  0  0  0  0  0  0
   25.1026  -21.3376  -12.9081 C   0  0  1  0  0  0  0  0  0  0  0  0
   23.8851  -20.5443  -12.5867 C   0  0  0  0  0  0  0  0  0  0  0  0
   24.0577  -19.3185  -12.3608 O   0  0  0  0  0  0  0  0  0  0  0  0
   22.5992  -21.0683  -12.5230 N   0  0  0  0  0  0  0  0  0  0  0  0
   21.4042  -20.3613  -13.1531 C   0  0  1  0  0  0  0  0  0  0  0  0
   21.7489  -20.1413  -14.5640 C   0  0  0  0  0  0  0  0  0  0  0  0
   20.8298  -19.5030  -15.4840 C   0  0  0  0  0  0  0  0  0  0  0  0
   21.1310  -19.2423  -16.8997 C   0  0  0  0  0  0  0  0  0  0  0  0
   20.0489  -18.5939  -17.6972 C   0  0  0  0  0  0  0  0  0  0  0  0
   20.5410  -18.3341  -19.0366 N   0  0  0  0  0  0  0  0  0  0  0  0
   20.2532  -21.2238  -12.8543 C   0  0  0  0  0  0  0  0  0  0  0  0
   19.0849  -20.6676  -12.2516 O   0  0  0  0  0  0  0  0  0  0  0  0
   20.1870  -22.4296  -13.0787 O   0  0  0  0  0  0  0  0  0  0  0  0
  2  3  1  0
  2  1  1  6
  4  2  1  0
  5  4  2  0
  6  7  1  0
  6  4  1  0
  8  7  1  0
  9 10  1  0
  9  8  1  0
 10  6  1  0
 10 11  1  1
 11 13  1  0
 12 11  2  0
 13 14  1  0
 14 20  1  0
 14 15  1  6
 16 15  1  0
 17 16  1  0
 18 17  1  0
 19 18  1  0
 20 21  1  0
 22 20  2  0
M  END
$$$$
