APK.pdb
     RDKit          3D

 22 22  0  0  1  0  0  0  0  0999 V2000
   28.2639  -18.2402  -15.8282 C   0  0  0  0  0  0  0  0  0  0  0  0
   28.8928  -19.6208  -15.8743 C   0  0  2  0  0  0  0  0  0  0  0  0
   28.5194  -20.1841  -17.1639 N   0  0  0  0  0  0  0  0  0  0  0  0
   28.3856  -20.4868  -14.7806 C   0  0  0  0  0  0  0  0  0  0  0  0
   27.4901  -21.3277  -15.0703 O   0  0  0  0  0  0  0  0  0  0  0  0
   28.8407  -20.4243  -13.4573 N   0  0  0  0  0  0  0  0  0  0  0  0
   29.9083  -19.6132  -12.9538 C   0  0  0  0  0  0  0  0  0  0  0  0
   30.6165  -20.6316  -12.0485 C   0  0  0  0  0  0  0  0  0  0  0  0
   29.5408  -21.5589  -11.5833 C   0  0  0  0  0  0  0  0  0  0  0  0
   28.3096  -21.1659  -12.3544 C   0  0  1  0  0  0  0  0  0  0  0  0
   27.3359  -20.3924  -11.5367 C   0  0  0  0  0  0  0  0  0  0  0  0
   27.4090  -19.1386  -11.6147 O   0  0  0  0  0  0  0  0  0  0  0  0
   26.3739  -20.9627  -10.7113 N   0  0  0  0  0  0  0  0  0  0  0  0
   24.9661  -20.3894  -10.5918 C   0  0  1  0  0  0  0  0  0  0  0  0
   24.2602  -20.7621  -11.8249 C   0  0  0  0  0  0  0  0  0  0  0  0
   22.9062  -20.3222  -12.0925 C   0  0  0  0  0  0  0  0  0  0  0  0
   22.1459  -20.6853  -13.2979 C   0  0  0  0  0  0  0  0  0  0  0  0
   20.7496  -20.1651  -13.3804 C   0  0  0  0  0  0  0  0  0  0  0  0
   20.1750  -20.5558  -14.6536 N   0  0  0  0  0  0  0  0  0  0  0  0
   24.4502  -20.9143   -9.3204 C   0  0  0  0  0  0  0  0  0  0  0  0
   23.5784  -20.1144   -8.5219 O   0  0  0  0  0  0  0  0  0  0  0  0
   24.7017  -22.0206   -8.8498 O   0  0  0  0  0  0  0  0  0  0  0  0
  2  3  1  0
  2  1  1  1
  4  2  1  0
  5  4  2  0
  6  7  1  0
  6  4  1  0
  8  7  1  0
  9 10  1  0
  9  8  1  0
 10  6  1  0
 10 11  1  1
 11 13  1  0
 12 11  2  0
 13 14  1  0
 14 20  1  0
 14 15  1  6
 16 15  1  0
 17 16  1  0
 18 17  1  0
 19 18  1  0
 20 21  1  0
 22 20  2  0
M  END
$$$$
