APK.pdb
     RDKit          3D

 22 22  0  0  1  0  0  0  0  0999 V2000
   19.6785  -11.3095  -18.2792 C   0  0  0  0  0  0  0  0  0  0  0  0
   19.8037  -12.0161  -16.9417 C   0  0  2  0  0  0  0  0  0  0  0  0
   18.4812  -12.5504  -16.6500 N   0  0  0  0  0  0  0  0  0  0  0  0
   20.2164  -11.0787  -15.8674 C   0  0  0  0  0  0  0  0  0  0  0  0
   19.3140  -10.6259  -15.1101 O   0  0  0  0  0  0  0  0  0  0  0  0
   21.5389  -10.6722  -15.6483 N   0  0  0  0  0  0  0  0  0  0  0  0
   22.6842  -11.0138  -16.4374 C   0  0  0  0  0  0  0  0  0  0  0  0
   23.6961  -11.3224  -15.3243 C   0  0  0  0  0  0  0  0  0  0  0  0
   23.2913  -10.4579  -14.1743 C   0  0  0  0  0  0  0  0  0  0  0  0
   21.9885   -9.8262  -14.5849 C   0  0  1  0  0  0  0  0  0  0  0  0
   22.1366   -8.4008  -14.9865 C   0  0  0  0  0  0  0  0  0  0  0  0
   22.6202   -8.1871  -16.1284 O   0  0  0  0  0  0  0  0  0  0  0  0
   21.7800   -7.3185  -14.1906 N   0  0  0  0  0  0  0  0  0  0  0  0
   21.7264   -5.8954  -14.7353 C   0  0  1  0  0  0  0  0  0  0  0  0
   20.3239   -5.6392  -15.0894 C   0  0  0  0  0  0  0  0  0  0  0  0
   19.8622   -4.3214  -15.4751 C   0  0  0  0  0  0  0  0  0  0  0  0
   18.4671   -4.0057  -15.8171 C   0  0  0  0  0  0  0  0  0  0  0  0
   18.1971   -2.6093  -16.2691 C   0  0  0  0  0  0  0  0  0  0  0  0
   16.8171   -2.5130  -16.7051 N   0  0  0  0  0  0  0  0  0  0  0  0
   22.3317   -5.0650  -13.6854 C   0  0  0  0  0  0  0  0  0  0  0  0
   22.3995   -5.5506  -12.3449 O   0  0  0  0  0  0  0  0  0  0  0  0
   22.8077   -3.9442  -13.8469 O   0  0  0  0  0  0  0  0  0  0  0  0
  2  3  1  0
  2  1  1  6
  4  2  1  0
  5  4  2  0
  6  7  1  0
  6  4  1  0
  8  7  1  0
  9 10  1  0
  9  8  1  0
 10  6  1  0
 10 11  1  6
 11 13  1  0
 12 11  2  0
 13 14  1  0
 14 20  1  0
 14 15  1  1
 16 15  1  0
 17 16  1  0
 18 17  1  0
 19 18  1  0
 20 21  1  0
 22 20  2  0
M  END
$$$$
