NDR.pdb
     RDKit          3D

 28 27  0  0  1  0  0  0  0  0999 V2000
   16.1924  -14.3073   16.5332 N   0  0  0  0  0  0  0  0  0  0  0  0
   15.4923  -13.6338   17.5569 C   0  0  0  0  0  0  0  0  0  0  0  0
   15.6899  -12.4150   17.7314 O   0  0  0  0  0  0  0  0  0  0  0  0
   14.5452  -14.3634   18.4022 C   0  0  0  0  0  0  0  0  0  0  0  0
   14.4121  -15.8340   18.0314 C   0  0  2  0  0  0  0  0  0  0  0  0
   13.7375  -15.9658   16.7707 N   0  0  0  0  0  0  0  0  0  0  0  0
   13.6480  -16.4555   19.1458 C   0  0  0  0  0  0  0  0  0  0  0  0
   12.4074  -16.2847   19.1911 O   0  0  0  0  0  0  0  0  0  0  0  0
   14.2598  -17.2430   20.1734 N   0  0  0  0  0  0  0  0  0  0  0  0
   13.5056  -17.9445   21.1746 C   0  0  1  0  0  0  0  0  0  0  0  0
   14.3227  -18.9949   21.8854 C   0  0  0  0  0  0  0  0  0  0  0  0
   13.4788  -19.7936   22.7954 C   0  0  0  0  0  0  0  0  0  0  0  0
   12.2544  -19.5880   22.9774 O   0  0  0  0  0  0  0  0  0  0  0  0
   12.7641  -17.0485   22.0821 C   0  0  0  0  0  0  0  0  0  0  0  0
   13.3713  -16.2953   22.8924 O   0  0  0  0  0  0  0  0  0  0  0  0
   14.0181  -20.8553   23.5258 O   0  0  0  0  0  0  0  0  0  0  0  0
    8.2050  -13.3880   16.7627 N   0  0  0  0  0  0  0  0  0  0  0  0
    8.4804  -13.1271   18.1365 C   0  0  0  0  0  0  0  0  0  0  0  0
    8.4197  -11.9016   18.5713 N   0  0  0  0  0  0  0  0  0  0  0  0
    8.8188  -14.1394   19.0579 N   0  0  0  0  0  0  0  0  0  0  0  0
    9.1456  -13.8566   20.4212 C   0  0  0  0  0  0  0  0  0  0  0  0
    9.5920  -15.1400   21.1097 C   0  0  0  0  0  0  0  0  0  0  0  0
   10.0598  -14.8884   22.5126 C   0  0  0  0  0  0  0  0  0  0  0  0
   10.6215  -16.1605   23.0747 C   0  0  2  0  0  0  0  0  0  0  0  0
   11.3373  -16.9692   22.1131 N   0  0  0  0  0  0  0  0  0  0  0  0
    9.5635  -16.9321   23.7697 C   0  0  0  0  0  0  0  0  0  0  0  0
    8.8903  -16.3806   24.6646 O   0  0  0  0  0  0  0  0  0  0  0  0
    9.3249  -18.2456   23.4321 O   0  0  0  0  0  0  0  0  0  0  0  0
  1  2  1  0
  2  3  2  0
  4  2  1  0
  5  4  1  0
  5  6  1  6
  7  8  2  0
  7  5  1  0
  9  7  1  0
 10 14  1  0
 10  9  1  0
 10 11  1  1
 12 11  1  0
 12 13  2  0
 14 15  2  0
 16 12  1  0
 18 17  1  0
 18 19  2  0
 20 18  1  0
 21 20  1  0
 22 21  1  0
 23 22  1  0
 24 23  1  6
 25 24  1  0
 25 14  1  0
 26 24  1  0
 27 26  2  0
 28 26  1  0
M  END
$$$$
