NDR.pdb
     RDKit          3D

 28 27  0  0  1  0  0  0  0  0999 V2000
    7.7747  -12.1226   18.0066 N   0  0  0  0  0  0  0  0  0  0  0  0
    7.6670  -13.5250   17.8908 C   0  0  0  0  0  0  0  0  0  0  0  0
    7.5457  -14.0365   16.7601 O   0  0  0  0  0  0  0  0  0  0  0  0
    7.6979  -14.3658   19.0892 C   0  0  0  0  0  0  0  0  0  0  0  0
    9.0946  -14.5406   19.6695 C   0  0  2  0  0  0  0  0  0  0  0  0
   10.0092  -14.9479   18.6402 N   0  0  0  0  0  0  0  0  0  0  0  0
    8.9544  -15.5679   20.7359 C   0  0  0  0  0  0  0  0  0  0  0  0
    8.0819  -15.3999   21.6196 O   0  0  0  0  0  0  0  0  0  0  0  0
    9.7679  -16.7442   20.8042 N   0  0  0  0  0  0  0  0  0  0  0  0
    9.6395  -17.7245   21.8462 C   0  0  1  0  0  0  0  0  0  0  0  0
   10.3666  -19.0075   21.5276 C   0  0  0  0  0  0  0  0  0  0  0  0
    9.9378  -19.5470   20.2225 C   0  0  0  0  0  0  0  0  0  0  0  0
    8.7412  -19.6156   19.8512 O   0  0  0  0  0  0  0  0  0  0  0  0
    9.9308  -17.1902   23.1901 C   0  0  0  0  0  0  0  0  0  0  0  0
   11.0410  -16.6488   23.4486 O   0  0  0  0  0  0  0  0  0  0  0  0
   10.8738  -20.0252   19.3023 O   0  0  0  0  0  0  0  0  0  0  0  0
    7.0674  -10.2006   25.1684 N   0  0  0  0  0  0  0  0  0  0  0  0
    6.5747  -11.3886   25.7824 C   0  0  0  0  0  0  0  0  0  0  0  0
    5.9957  -11.3053   26.9453 N   0  0  0  0  0  0  0  0  0  0  0  0
    6.6839  -12.6627   25.1881 N   0  0  0  0  0  0  0  0  0  0  0  0
    6.8149  -13.8595   25.9600 C   0  0  0  0  0  0  0  0  0  0  0  0
    8.0145  -14.6539   25.4596 C   0  0  0  0  0  0  0  0  0  0  0  0
    8.1864  -15.9403   26.2117 C   0  0  0  0  0  0  0  0  0  0  0  0
    9.3036  -16.7236   25.5887 C   0  0  2  0  0  0  0  0  0  0  0  0
    9.0015  -17.2461   24.2747 N   0  0  0  0  0  0  0  0  0  0  0  0
    9.7718  -17.7840   26.5128 C   0  0  0  0  0  0  0  0  0  0  0  0
    9.7156  -18.9784   26.1541 O   0  0  0  0  0  0  0  0  0  0  0  0
   10.2641  -17.4556   27.7562 O   0  0  0  0  0  0  0  0  0  0  0  0
  1  2  1  0
  2  3  2  0
  4  2  1  0
  5  4  1  0
  5  6  1  6
  7  8  2  0
  7  5  1  0
  9  7  1  0
 10 14  1  0
 10  9  1  0
 10 11  1  6
 12 11  1  0
 12 13  2  0
 14 15  2  0
 16 12  1  0
 18 17  1  0
 18 19  2  0
 20 18  1  0
 21 20  1  0
 22 21  1  0
 23 22  1  0
 24 23  1  1
 25 24  1  0
 25 14  1  0
 26 24  1  0
 27 26  2  0
 28 26  1  0
M  END
$$$$
