NDR.pdb
     RDKit          3D

 28 27  0  0  1  0  0  0  0  0999 V2000
    9.6472  -18.8627   15.0048 N   0  0  0  0  0  0  0  0  0  0  0  0
    9.1477  -19.6138   16.0902 C   0  0  0  0  0  0  0  0  0  0  0  0
    8.1486  -20.3405   15.9211 O   0  0  0  0  0  0  0  0  0  0  0  0
    9.7997  -19.5367   17.3991 C   0  0  0  0  0  0  0  0  0  0  0  0
   10.5847  -18.2493   17.6088 C   0  0  2  0  0  0  0  0  0  0  0  0
   11.6133  -18.1308   16.6139 N   0  0  0  0  0  0  0  0  0  0  0  0
   11.1415  -18.3450   18.9846 C   0  0  0  0  0  0  0  0  0  0  0  0
   10.3483  -18.4889   19.9441 O   0  0  0  0  0  0  0  0  0  0  0  0
   12.5432  -18.2816   19.2701 N   0  0  0  0  0  0  0  0  0  0  0  0
   13.0708  -18.2989   20.6060 C   0  0  1  0  0  0  0  0  0  0  0  0
   14.5781  -18.2397   20.6345 C   0  0  0  0  0  0  0  0  0  0  0  0
   15.1018  -18.7409   21.9200 C   0  0  0  0  0  0  0  0  0  0  0  0
   14.3777  -19.0989   22.8803 O   0  0  0  0  0  0  0  0  0  0  0  0
   12.4173  -17.3288   21.5049 C   0  0  0  0  0  0  0  0  0  0  0  0
   12.5500  -16.0863   21.3285 O   0  0  0  0  0  0  0  0  0  0  0  0
   16.4771  -18.8461   22.1414 O   0  0  0  0  0  0  0  0  0  0  0  0
    8.2832  -13.6897   18.6847 N   0  0  0  0  0  0  0  0  0  0  0  0
    8.1611  -12.9614   19.9037 C   0  0  0  0  0  0  0  0  0  0  0  0
    8.4185  -11.6853   19.9056 N   0  0  0  0  0  0  0  0  0  0  0  0
    7.7721  -13.5591   21.1201 N   0  0  0  0  0  0  0  0  0  0  0  0
    7.9223  -14.9595   21.3682 C   0  0  0  0  0  0  0  0  0  0  0  0
    9.1610  -15.1903   22.2243 C   0  0  0  0  0  0  0  0  0  0  0  0
    9.3766  -16.6461   22.5149 C   0  0  0  0  0  0  0  0  0  0  0  0
   10.6728  -16.8093   23.2517 C   0  0  2  0  0  0  0  0  0  0  0  0
   11.6064  -17.7132   22.6174 N   0  0  0  0  0  0  0  0  0  0  0  0
   10.4227  -17.1736   24.6668 C   0  0  0  0  0  0  0  0  0  0  0  0
    9.9569  -16.3177   25.4470 O   0  0  0  0  0  0  0  0  0  0  0  0
   10.7018  -18.4445   25.1176 O   0  0  0  0  0  0  0  0  0  0  0  0
  1  2  1  0
  2  3  2  0
  4  2  1  0
  5  4  1  0
  5  6  1  6
  7  8  2  0
  7  5  1  0
  9  7  1  0
 10 14  1  0
 10  9  1  0
 10 11  1  6
 12 11  1  0
 12 13  2  0
 14 15  2  0
 16 12  1  0
 18 17  1  0
 18 19  2  0
 20 18  1  0
 21 20  1  0
 22 21  1  0
 23 22  1  0
 24 23  1  6
 25 24  1  0
 25 14  1  0
 26 24  1  0
 27 26  2  0
 28 26  1  0
M  END
$$$$
