NDR.pdb
     RDKit          3D

 28 27  0  0  1  0  0  0  0  0999 V2000
    7.8793  -18.0134   13.5656 N   0  0  0  0  0  0  0  0  0  0  0  0
    8.2271  -17.0479   14.5344 C   0  0  0  0  0  0  0  0  0  0  0  0
    7.9751  -15.8463   14.3164 O   0  0  0  0  0  0  0  0  0  0  0  0
    8.8771  -17.4583   15.7806 C   0  0  0  0  0  0  0  0  0  0  0  0
    9.9883  -16.5159   16.2221 C   0  0  2  0  0  0  0  0  0  0  0  0
   11.0218  -16.4709   15.2264 N   0  0  0  0  0  0  0  0  0  0  0  0
   10.4779  -17.0603   17.5167 C   0  0  0  0  0  0  0  0  0  0  0  0
    9.6723  -17.1518   18.4721 O   0  0  0  0  0  0  0  0  0  0  0  0
   11.8281  -17.4879   17.7277 N   0  0  0  0  0  0  0  0  0  0  0  0
   12.3089  -17.9628   18.9952 C   0  0  1  0  0  0  0  0  0  0  0  0
   13.6652  -18.6159   18.8926 C   0  0  0  0  0  0  0  0  0  0  0  0
   13.5754  -19.9114   18.1914 C   0  0  0  0  0  0  0  0  0  0  0  0
   12.7870  -20.8317   18.5169 O   0  0  0  0  0  0  0  0  0  0  0  0
   12.2087  -16.9590   20.0715 C   0  0  0  0  0  0  0  0  0  0  0  0
   12.9306  -15.9240   20.0653 O   0  0  0  0  0  0  0  0  0  0  0  0
   14.3913  -20.1892   17.0920 O   0  0  0  0  0  0  0  0  0  0  0  0
    8.4616  -13.6413   18.1205 N   0  0  0  0  0  0  0  0  0  0  0  0
    7.8820  -13.6092   19.4221 C   0  0  0  0  0  0  0  0  0  0  0  0
    7.5506  -12.4609   19.9380 N   0  0  0  0  0  0  0  0  0  0  0  0
    7.6471  -14.7701   20.1873 N   0  0  0  0  0  0  0  0  0  0  0  0
    8.6768  -15.7202   20.4739 C   0  0  0  0  0  0  0  0  0  0  0  0
    8.9733  -15.7077   21.9681 C   0  0  0  0  0  0  0  0  0  0  0  0
   10.3108  -15.0981   22.2677 C   0  0  0  0  0  0  0  0  0  0  0  0
   11.3432  -16.1853   22.3113 C   0  0  2  0  0  0  0  0  0  0  0  0
   11.3104  -17.0809   21.1766 N   0  0  0  0  0  0  0  0  0  0  0  0
   11.2709  -16.9178   23.5981 C   0  0  0  0  0  0  0  0  0  0  0  0
   10.9998  -18.1364   23.5954 O   0  0  0  0  0  0  0  0  0  0  0  0
   11.5002  -16.2608   24.7864 O   0  0  0  0  0  0  0  0  0  0  0  0
  1  2  1  0
  2  3  2  0
  4  2  1  0
  5  4  1  0
  5  6  1  6
  7  8  2  0
  7  5  1  0
  9  7  1  0
 10 14  1  0
 10  9  1  0
 10 11  1  6
 12 11  1  0
 12 13  2  0
 14 15  2  0
 16 12  1  0
 18 17  1  0
 18 19  2  0
 20 18  1  0
 21 20  1  0
 22 21  1  0
 23 22  1  0
 24 23  1  6
 25 24  1  0
 25 14  1  0
 26 24  1  0
 27 26  2  0
 28 26  1  0
M  END
$$$$
