NDR.pdb
     RDKit          3D

 28 27  0  0  1  0  0  0  0  0999 V2000
    7.1474  -13.9162   13.4332 N   0  0  0  0  0  0  0  0  0  0  0  0
    8.1500  -14.9010   13.5626 C   0  0  0  0  0  0  0  0  0  0  0  0
    8.3567  -15.6893   12.6187 O   0  0  0  0  0  0  0  0  0  0  0  0
    8.9362  -14.9917   14.7945 C   0  0  0  0  0  0  0  0  0  0  0  0
   10.1030  -15.9649   14.6971 C   0  0  2  0  0  0  0  0  0  0  0  0
    9.6194  -17.2893   14.4253 N   0  0  0  0  0  0  0  0  0  0  0  0
   10.8005  -15.8790   16.0078 C   0  0  0  0  0  0  0  0  0  0  0  0
   11.3513  -14.7989   16.3245 O   0  0  0  0  0  0  0  0  0  0  0  0
   10.8744  -16.9714   16.9306 N   0  0  0  0  0  0  0  0  0  0  0  0
   11.6250  -16.9124   18.1538 C   0  0  1  0  0  0  0  0  0  0  0  0
   11.2774  -18.0337   19.1016 C   0  0  0  0  0  0  0  0  0  0  0  0
    9.8626  -17.9559   19.5148 C   0  0  0  0  0  0  0  0  0  0  0  0
    9.3105  -16.9090   19.9315 O   0  0  0  0  0  0  0  0  0  0  0  0
   13.0743  -16.7365   17.9421 C   0  0  0  0  0  0  0  0  0  0  0  0
   13.6708  -17.3272   16.9999 O   0  0  0  0  0  0  0  0  0  0  0  0
    9.0376  -19.0819   19.4615 O   0  0  0  0  0  0  0  0  0  0  0  0
   17.7076  -10.3928   15.2715 N   0  0  0  0  0  0  0  0  0  0  0  0
   16.8836  -11.3162   14.5647 C   0  0  0  0  0  0  0  0  0  0  0  0
   16.7214  -11.1645   13.2820 N   0  0  0  0  0  0  0  0  0  0  0  0
   16.2284  -12.3965   15.1907 N   0  0  0  0  0  0  0  0  0  0  0  0
   16.4496  -12.7360   16.5623 C   0  0  0  0  0  0  0  0  0  0  0  0
   15.6122  -13.9568   16.9213 C   0  0  0  0  0  0  0  0  0  0  0  0
   15.7547  -14.3269   18.3680 C   0  0  0  0  0  0  0  0  0  0  0  0
   15.3138  -15.7485   18.5531 C   0  0  2  0  0  0  0  0  0  0  0  0
   13.8927  -15.9059   18.7689 N   0  0  0  0  0  0  0  0  0  0  0  0
   16.1120  -16.4049   19.6160 C   0  0  0  0  0  0  0  0  0  0  0  0
   16.0549  -15.9676   20.7839 O   0  0  0  0  0  0  0  0  0  0  0  0
   16.9099  -17.4871   19.3187 O   0  0  0  0  0  0  0  0  0  0  0  0
  1  2  1  0
  2  3  2  0
  4  2  1  0
  5  4  1  0
  5  6  1  1
  7  8  2  0
  7  5  1  0
  9  7  1  0
 10 14  1  0
 10  9  1  0
 10 11  1  6
 12 11  1  0
 12 13  2  0
 14 15  2  0
 16 12  1  0
 18 17  1  0
 18 19  2  0
 20 18  1  0
 21 20  1  0
 22 21  1  0
 23 22  1  0
 24 23  1  1
 25 24  1  0
 25 14  1  0
 26 24  1  0
 27 26  2  0
 28 26  1  0
M  END
$$$$
