NDR.pdb
     RDKit          3D

 28 27  0  0  1  0  0  0  0  0999 V2000
   10.1640  -22.9338   20.1097 N   0  0  0  0  0  0  0  0  0  0  0  0
    9.2306  -22.0145   19.5847 C   0  0  0  0  0  0  0  0  0  0  0  0
    9.2396  -21.7663   18.3628 O   0  0  0  0  0  0  0  0  0  0  0  0
    8.2641  -21.3620   20.4703 C   0  0  0  0  0  0  0  0  0  0  0  0
    8.8630  -20.9202   21.7984 C   0  0  2  0  0  0  0  0  0  0  0  0
    7.8231  -20.4877   22.6891 N   0  0  0  0  0  0  0  0  0  0  0  0
    9.8071  -19.8217   21.4608 C   0  0  0  0  0  0  0  0  0  0  0  0
   11.0000  -19.9207   21.8316 O   0  0  0  0  0  0  0  0  0  0  0  0
    9.4214  -18.6524   20.7299 N   0  0  0  0  0  0  0  0  0  0  0  0
   10.2546  -17.4872   20.6221 C   0  0  1  0  0  0  0  0  0  0  0  0
   10.0168  -16.7210   19.3443 C   0  0  0  0  0  0  0  0  0  0  0  0
   10.2332  -17.5814   18.1649 C   0  0  0  0  0  0  0  0  0  0  0  0
   11.1474  -18.4367   18.0793 O   0  0  0  0  0  0  0  0  0  0  0  0
   10.2431  -16.6465   21.8342 C   0  0  0  0  0  0  0  0  0  0  0  0
   10.9921  -15.6356   21.9321 O   0  0  0  0  0  0  0  0  0  0  0  0
    9.4035  -17.4845   17.0452 O   0  0  0  0  0  0  0  0  0  0  0  0
    5.1998  -11.6720   27.6763 N   0  0  0  0  0  0  0  0  0  0  0  0
    6.2669  -11.7982   26.7400 C   0  0  0  0  0  0  0  0  0  0  0  0
    7.2280  -10.9203   26.7553 N   0  0  0  0  0  0  0  0  0  0  0  0
    6.3349  -12.8362   25.7880 N   0  0  0  0  0  0  0  0  0  0  0  0
    7.5679  -13.2520   25.1946 C   0  0  0  0  0  0  0  0  0  0  0  0
    7.8508  -14.6985   25.5797 C   0  0  0  0  0  0  0  0  0  0  0  0
    7.8560  -15.6047   24.3844 C   0  0  0  0  0  0  0  0  0  0  0  0
    9.2720  -15.9837   24.0663 C   0  0  2  0  0  0  0  0  0  0  0  0
    9.4053  -16.9081   22.9623 N   0  0  0  0  0  0  0  0  0  0  0  0
    9.9647  -16.4701   25.2833 C   0  0  0  0  0  0  0  0  0  0  0  0
   10.2614  -17.6789   25.3781 O   0  0  0  0  0  0  0  0  0  0  0  0
   10.2781  -15.5970   26.3010 O   0  0  0  0  0  0  0  0  0  0  0  0
  1  2  1  0
  2  3  2  0
  4  2  1  0
  5  4  1  0
  5  6  1  1
  7  8  2  0
  7  5  1  0
  9  7  1  0
 10 14  1  0
 10  9  1  0
 10 11  1  6
 12 11  1  0
 12 13  2  0
 14 15  2  0
 16 12  1  0
 18 17  1  0
 18 19  2  0
 20 18  1  0
 21 20  1  0
 22 21  1  0
 23 22  1  0
 24 23  1  1
 25 24  1  0
 25 14  1  0
 26 24  1  0
 27 26  2  0
 28 26  1  0
M  END
$$$$
