NDR.pdb
     RDKit          3D

 28 27  0  0  1  0  0  0  0  0999 V2000
    8.1011  -12.9701   15.6115 N   0  0  0  0  0  0  0  0  0  0  0  0
    7.4429  -14.1884   15.8843 C   0  0  0  0  0  0  0  0  0  0  0  0
    6.4495  -14.5112   15.2032 O   0  0  0  0  0  0  0  0  0  0  0  0
    7.9256  -15.0602   16.9572 C   0  0  0  0  0  0  0  0  0  0  0  0
    9.0420  -14.4389   17.7851 C   0  0  2  0  0  0  0  0  0  0  0  0
   10.1718  -14.1454   16.9489 N   0  0  0  0  0  0  0  0  0  0  0  0
    9.3640  -15.4441   18.8329 C   0  0  0  0  0  0  0  0  0  0  0  0
    8.4705  -15.7657   19.6505 O   0  0  0  0  0  0  0  0  0  0  0  0
   10.6477  -16.0665   18.9551 N   0  0  0  0  0  0  0  0  0  0  0  0
   10.9731  -16.9879   20.0080 C   0  0  1  0  0  0  0  0  0  0  0  0
   12.2506  -17.7450   19.7412 C   0  0  0  0  0  0  0  0  0  0  0  0
   12.1868  -18.4475   18.4448 C   0  0  0  0  0  0  0  0  0  0  0  0
   11.3490  -19.3409   18.1719 O   0  0  0  0  0  0  0  0  0  0  0  0
   10.9048  -16.3859   21.3531 C   0  0  0  0  0  0  0  0  0  0  0  0
   11.7629  -15.5421   21.7327 O   0  0  0  0  0  0  0  0  0  0  0  0
   13.0864  -18.1436   17.4202 O   0  0  0  0  0  0  0  0  0  0  0  0
    5.0539  -12.5039   26.6832 N   0  0  0  0  0  0  0  0  0  0  0  0
    6.4078  -12.0638   26.6161 C   0  0  0  0  0  0  0  0  0  0  0  0
    6.6941  -10.8445   26.9711 N   0  0  0  0  0  0  0  0  0  0  0  0
    7.4637  -12.8904   26.1800 N   0  0  0  0  0  0  0  0  0  0  0  0
    7.2495  -14.2261   25.7159 C   0  0  0  0  0  0  0  0  0  0  0  0
    8.5815  -14.8336   25.2949 C   0  0  0  0  0  0  0  0  0  0  0  0
    8.5099  -15.4446   23.9268 C   0  0  0  0  0  0  0  0  0  0  0  0
    9.8245  -16.0958   23.6143 C   0  0  2  0  0  0  0  0  0  0  0  0
    9.8881  -16.7066   22.3052 N   0  0  0  0  0  0  0  0  0  0  0  0
   10.2009  -17.0459   24.6882 C   0  0  0  0  0  0  0  0  0  0  0  0
    9.8372  -18.2374   24.6078 O   0  0  0  0  0  0  0  0  0  0  0  0
   10.9448  -16.6189   25.7655 O   0  0  0  0  0  0  0  0  0  0  0  0
  1  2  1  0
  2  3  2  0
  4  2  1  0
  5  4  1  0
  5  6  1  6
  7  8  2  0
  7  5  1  0
  9  7  1  0
 10 14  1  0
 10  9  1  0
 10 11  1  6
 12 11  1  0
 12 13  2  0
 14 15  2  0
 16 12  1  0
 18 17  1  0
 18 19  2  0
 20 18  1  0
 21 20  1  0
 22 21  1  0
 23 22  1  0
 24 23  1  1
 25 24  1  0
 25 14  1  0
 26 24  1  0
 27 26  2  0
 28 26  1  0
M  END
$$$$
