NDR.pdb
     RDKit          3D

 28 27  0  0  1  0  0  0  0  0999 V2000
   10.6584  -18.7626   13.6363 N   0  0  0  0  0  0  0  0  0  0  0  0
   10.2645  -19.7823   14.5290 C   0  0  0  0  0  0  0  0  0  0  0  0
    9.4498  -20.6460   14.1479 O   0  0  0  0  0  0  0  0  0  0  0  0
   10.8098  -19.8209   15.8874 C   0  0  0  0  0  0  0  0  0  0  0  0
   11.6492  -18.5997   16.2370 C   0  0  2  0  0  0  0  0  0  0  0  0
   12.8179  -18.5494   15.4043 N   0  0  0  0  0  0  0  0  0  0  0  0
   11.9904  -18.7530   17.6764 C   0  0  0  0  0  0  0  0  0  0  0  0
   11.0573  -18.8371   18.5085 O   0  0  0  0  0  0  0  0  0  0  0  0
   13.3363  -18.8105   18.1620 N   0  0  0  0  0  0  0  0  0  0  0  0
   13.6631  -18.8248   19.5607 C   0  0  1  0  0  0  0  0  0  0  0  0
   15.1472  -18.9381   19.8078 C   0  0  0  0  0  0  0  0  0  0  0  0
   15.6732  -20.2143   19.2856 C   0  0  0  0  0  0  0  0  0  0  0  0
   16.3026  -20.3237   18.2056 O   0  0  0  0  0  0  0  0  0  0  0  0
   13.0107  -17.7442   20.3242 C   0  0  0  0  0  0  0  0  0  0  0  0
   13.0333  -16.5515   19.9129 O   0  0  0  0  0  0  0  0  0  0  0  0
   15.4914  -21.4064   19.9907 O   0  0  0  0  0  0  0  0  0  0  0  0
    7.1957  -11.4198   21.8192 N   0  0  0  0  0  0  0  0  0  0  0  0
    7.9995  -12.3571   21.1073 C   0  0  0  0  0  0  0  0  0  0  0  0
    8.5665  -11.9869   19.9955 N   0  0  0  0  0  0  0  0  0  0  0  0
    8.2136  -13.6784   21.5506 N   0  0  0  0  0  0  0  0  0  0  0  0
    9.0991  -14.5781   20.8784 C   0  0  0  0  0  0  0  0  0  0  0  0
    9.1915  -15.8782   21.6668 C   0  0  0  0  0  0  0  0  0  0  0  0
   10.1786  -16.8311   21.0601 C   0  0  0  0  0  0  0  0  0  0  0  0
   11.2875  -17.0738   22.0405 C   0  0  2  0  0  0  0  0  0  0  0  0
   12.3226  -17.9608   21.5582 N   0  0  0  0  0  0  0  0  0  0  0  0
   10.7392  -17.5186   23.3440 C   0  0  0  0  0  0  0  0  0  0  0  0
    9.8738  -16.8230   23.9146 O   0  0  0  0  0  0  0  0  0  0  0  0
   11.1802  -18.6884   23.9214 O   0  0  0  0  0  0  0  0  0  0  0  0
  1  2  1  0
  2  3  2  0
  4  2  1  0
  5  4  1  0
  5  6  1  6
  7  8  2  0
  7  5  1  0
  9  7  1  0
 10 14  1  0
 10  9  1  0
 10 11  1  6
 12 11  1  0
 12 13  2  0
 14 15  2  0
 16 12  1  0
 18 17  1  0
 18 19  2  0
 20 18  1  0
 21 20  1  0
 22 21  1  0
 23 22  1  0
 24 23  1  6
 25 24  1  0
 25 14  1  0
 26 24  1  0
 27 26  2  0
 28 26  1  0
M  END
$$$$
