NDR.pdb
     RDKit          3D

 28 27  0  0  1  0  0  0  0  0999 V2000
    7.7163  -14.9210   15.4533 N   0  0  0  0  0  0  0  0  0  0  0  0
    7.5967  -13.7372   16.2125 C   0  0  0  0  0  0  0  0  0  0  0  0
    7.3035  -12.6704   15.6373 O   0  0  0  0  0  0  0  0  0  0  0  0
    7.8156  -13.7673   17.6599 C   0  0  0  0  0  0  0  0  0  0  0  0
    8.2443  -15.1330   18.1785 C   0  0  2  0  0  0  0  0  0  0  0  0
    7.2773  -16.1275   17.8073 N   0  0  0  0  0  0  0  0  0  0  0  0
    8.3549  -14.9792   19.6537 C   0  0  0  0  0  0  0  0  0  0  0  0
    9.2212  -14.1985   20.1122 O   0  0  0  0  0  0  0  0  0  0  0  0
    7.5182  -15.6799   20.5806 N   0  0  0  0  0  0  0  0  0  0  0  0
    7.8111  -15.7715   21.9839 C   0  0  1  0  0  0  0  0  0  0  0  0
    6.6782  -16.3787   22.7739 C   0  0  0  0  0  0  0  0  0  0  0  0
    6.9621  -16.3364   24.2216 C   0  0  0  0  0  0  0  0  0  0  0  0
    7.9892  -15.8153   24.7196 O   0  0  0  0  0  0  0  0  0  0  0  0
    9.1277  -16.3734   22.2678 C   0  0  0  0  0  0  0  0  0  0  0  0
    9.3708  -17.5760   21.9728 O   0  0  0  0  0  0  0  0  0  0  0  0
    6.0719  -16.8933   25.1429 O   0  0  0  0  0  0  0  0  0  0  0  0
   15.1189  -13.7052   18.7893 N   0  0  0  0  0  0  0  0  0  0  0  0
   15.9551  -14.6205   19.4923 C   0  0  0  0  0  0  0  0  0  0  0  0
   17.1197  -14.9222   18.9949 N   0  0  0  0  0  0  0  0  0  0  0  0
   15.5811  -15.2220   20.7115 N   0  0  0  0  0  0  0  0  0  0  0  0
   14.4366  -16.0718   20.8273 C   0  0  0  0  0  0  0  0  0  0  0  0
   13.8885  -15.9893   22.2462 C   0  0  0  0  0  0  0  0  0  0  0  0
   12.5720  -15.2720   22.2963 C   0  0  0  0  0  0  0  0  0  0  0  0
   11.5524  -16.1685   22.9338 C   0  0  2  0  0  0  0  0  0  0  0  0
   10.2003  -15.6582   22.8853 N   0  0  0  0  0  0  0  0  0  0  0  0
   11.9626  -16.5215   24.3139 C   0  0  0  0  0  0  0  0  0  0  0  0
   13.0544  -17.0972   24.5006 O   0  0  0  0  0  0  0  0  0  0  0  0
   11.1471  -16.2179   25.3811 O   0  0  0  0  0  0  0  0  0  0  0  0
  1  2  1  0
  2  3  2  0
  4  2  1  0
  5  4  1  0
  5  6  1  1
  7  8  2  0
  7  5  1  0
  9  7  1  0
 10 14  1  0
 10  9  1  0
 10 11  1  1
 12 11  1  0
 12 13  2  0
 14 15  2  0
 16 12  1  0
 18 17  1  0
 18 19  2  0
 20 18  1  0
 21 20  1  0
 22 21  1  0
 23 22  1  0
 24 23  1  1
 25 24  1  0
 25 14  1  0
 26 24  1  0
 27 26  2  0
 28 26  1  0
M  END
$$$$
