NDR.pdb
     RDKit          3D

 28 27  0  0  1  0  0  0  0  0999 V2000
    9.4209  -13.7171   15.2728 N   0  0  0  0  0  0  0  0  0  0  0  0
    8.1320  -13.2849   15.6518 C   0  0  0  0  0  0  0  0  0  0  0  0
    7.3700  -12.8071   14.7880 O   0  0  0  0  0  0  0  0  0  0  0  0
    7.6992  -13.3986   17.0459 C   0  0  0  0  0  0  0  0  0  0  0  0
    8.7217  -14.0828   17.9428 C   0  0  2  0  0  0  0  0  0  0  0  0
    9.3458  -15.1686   17.2404 N   0  0  0  0  0  0  0  0  0  0  0  0
    7.9577  -14.5471   19.1314 C   0  0  0  0  0  0  0  0  0  0  0  0
    7.4704  -13.6891   19.9039 O   0  0  0  0  0  0  0  0  0  0  0  0
    7.7489  -15.9298   19.4389 N   0  0  0  0  0  0  0  0  0  0  0  0
    7.1350  -16.3757   20.6586 C   0  0  1  0  0  0  0  0  0  0  0  0
    6.4232  -17.6965   20.4999 C   0  0  0  0  0  0  0  0  0  0  0  0
    5.7362  -18.0792   21.7488 C   0  0  0  0  0  0  0  0  0  0  0  0
    5.7475  -17.3873   22.7955 O   0  0  0  0  0  0  0  0  0  0  0  0
    8.0397  -16.3203   21.8225 C   0  0  0  0  0  0  0  0  0  0  0  0
    9.2042  -16.8031   21.7650 O   0  0  0  0  0  0  0  0  0  0  0  0
    5.0136  -19.2718   21.8326 O   0  0  0  0  0  0  0  0  0  0  0  0
   11.4390  -14.7377   28.1731 N   0  0  0  0  0  0  0  0  0  0  0  0
   10.4337  -14.4454   29.1401 C   0  0  0  0  0  0  0  0  0  0  0  0
   10.7819  -13.8923   30.2659 N   0  0  0  0  0  0  0  0  0  0  0  0
    9.0672  -14.7280   28.9372 N   0  0  0  0  0  0  0  0  0  0  0  0
    8.3667  -14.3183   27.7597 C   0  0  0  0  0  0  0  0  0  0  0  0
    8.8126  -15.1766   26.5829 C   0  0  0  0  0  0  0  0  0  0  0  0
    8.1318  -14.7750   25.3080 C   0  0  0  0  0  0  0  0  0  0  0  0
    8.5656  -15.7013   24.2110 C   0  0  2  0  0  0  0  0  0  0  0  0
    7.6742  -15.7320   23.0728 N   0  0  0  0  0  0  0  0  0  0  0  0
    8.8240  -17.0580   24.7496 C   0  0  0  0  0  0  0  0  0  0  0  0
    7.9033  -17.9011   24.7549 O   0  0  0  0  0  0  0  0  0  0  0  0
   10.0680  -17.3864   25.2402 O   0  0  0  0  0  0  0  0  0  0  0  0
  1  2  1  0
  2  3  2  0
  4  2  1  0
  5  4  1  0
  5  6  1  6
  7  8  2  0
  7  5  1  0
  9  7  1  0
 10 14  1  0
 10  9  1  0
 10 11  1  6
 12 11  1  0
 12 13  2  0
 14 15  2  0
 16 12  1  0
 18 17  1  0
 18 19  2  0
 20 18  1  0
 21 20  1  0
 22 21  1  0
 23 22  1  0
 24 23  1  1
 25 24  1  0
 25 14  1  0
 26 24  1  0
 27 26  2  0
 28 26  1  0
M  END
$$$$
