NDR.pdb
     RDKit          3D

 28 27  0  0  1  0  0  0  0  0999 V2000
    9.1860  -14.4372   15.8002 N   0  0  0  0  0  0  0  0  0  0  0  0
    7.8419  -14.7864   16.0519 C   0  0  0  0  0  0  0  0  0  0  0  0
    7.1952  -15.3948   15.1764 O   0  0  0  0  0  0  0  0  0  0  0  0
    7.2184  -14.4354   17.3294 C   0  0  0  0  0  0  0  0  0  0  0  0
    8.1701  -13.7469   18.2980 C   0  0  2  0  0  0  0  0  0  0  0  0
    9.0879  -12.9104   17.5770 N   0  0  0  0  0  0  0  0  0  0  0  0
    8.8615  -14.8465   19.0223 C   0  0  0  0  0  0  0  0  0  0  0  0
    8.1710  -15.6559   19.6844 O   0  0  0  0  0  0  0  0  0  0  0  0
   10.2816  -15.0290   19.0011 N   0  0  0  0  0  0  0  0  0  0  0  0
   10.9619  -15.9702   19.8464 C   0  0  1  0  0  0  0  0  0  0  0  0
   12.2719  -16.4347   19.2596 C   0  0  0  0  0  0  0  0  0  0  0  0
   12.0479  -17.2687   18.0627 C   0  0  0  0  0  0  0  0  0  0  0  0
   11.1800  -18.1720   17.9901 O   0  0  0  0  0  0  0  0  0  0  0  0
   11.0587  -15.5303   21.2512 C   0  0  0  0  0  0  0  0  0  0  0  0
   11.1587  -14.3070   21.5446 O   0  0  0  0  0  0  0  0  0  0  0  0
   12.8167  -17.0893   16.9102 O   0  0  0  0  0  0  0  0  0  0  0  0
    5.0182  -13.1910   26.4265 N   0  0  0  0  0  0  0  0  0  0  0  0
    6.3382  -12.7596   26.7467 C   0  0  0  0  0  0  0  0  0  0  0  0
    6.4966  -11.6550   27.4172 N   0  0  0  0  0  0  0  0  0  0  0  0
    7.4931  -13.4756   26.3700 N   0  0  0  0  0  0  0  0  0  0  0  0
    7.6000  -14.1512   25.1140 C   0  0  0  0  0  0  0  0  0  0  0  0
    8.9281  -14.8949   25.0526 C   0  0  0  0  0  0  0  0  0  0  0  0
    9.2289  -15.3889   23.6686 C   0  0  0  0  0  0  0  0  0  0  0  0
   10.5724  -16.0557   23.6703 C   0  0  2  0  0  0  0  0  0  0  0  0
   11.0490  -16.4340   22.3586 N   0  0  0  0  0  0  0  0  0  0  0  0
   10.5832  -17.1982   24.6148 C   0  0  0  0  0  0  0  0  0  0  0  0
   10.2797  -18.3370   24.2030 O   0  0  0  0  0  0  0  0  0  0  0  0
   10.9243  -17.0061   25.9350 O   0  0  0  0  0  0  0  0  0  0  0  0
  1  2  1  0
  2  3  2  0
  4  2  1  0
  5  4  1  0
  5  6  1  6
  7  8  2  0
  7  5  1  0
  9  7  1  0
 10 14  1  0
 10  9  1  0
 10 11  1  6
 12 11  1  0
 12 13  2  0
 14 15  2  0
 16 12  1  0
 18 17  1  0
 18 19  2  0
 20 18  1  0
 21 20  1  0
 22 21  1  0
 23 22  1  0
 24 23  1  6
 25 24  1  0
 25 14  1  0
 26 24  1  0
 27 26  2  0
 28 26  1  0
M  END
$$$$
