WIK.pdb
     RDKit          3D

 32 33  0  0  1  0  0  0  0  0999 V2000
   24.9326  -20.4370  -13.9042 N   0  0  0  0  0  0  0  0  0  0  0  0
   23.7533  -20.2788  -13.0989 C   0  0  1  0  0  0  0  0  0  0  0  0
   22.4852  -20.6407  -13.8241 C   0  0  0  0  0  0  0  0  0  0  0  0
   22.2376  -19.7364  -14.9588 C   0  0  0  0  0  0  0  0  0  0  0  0
   22.8807  -19.8010  -16.1922 C   0  0  0  0  0  0  0  0  0  0  0  0
   22.4039  -18.8534  -17.0010 N   0  0  0  0  0  0  0  0  0  0  0  0
   21.4570  -18.1586  -16.3315 C   0  0  0  0  0  0  0  0  0  0  0  0
   20.6545  -17.0859  -16.6694 C   0  0  0  0  0  0  0  0  0  0  0  0
   19.7762  -16.5857  -15.7480 C   0  0  0  0  0  0  0  0  0  0  0  0
   19.6538  -17.1077  -14.4851 C   0  0  0  0  0  0  0  0  0  0  0  0
   20.4570  -18.1811  -14.1484 C   0  0  0  0  0  0  0  0  0  0  0  0
   21.3469  -18.7053  -15.0513 C   0  0  0  0  0  0  0  0  0  0  0  0
   23.9263  -21.0920  -11.8647 C   0  0  0  0  0  0  0  0  0  0  0  0
   23.9953  -22.3413  -11.8692 O   0  0  0  0  0  0  0  0  0  0  0  0
   26.2685  -20.1963   -6.2912 C   0  0  0  0  0  0  0  0  0  0  0  0
   25.2801  -20.9285   -7.1898 C   0  0  0  0  0  0  0  0  0  0  0  0
   25.1570  -20.2775   -8.5290 C   0  0  2  0  0  0  0  0  0  0  0  0
   24.6167  -18.8593   -8.4089 C   0  0  0  0  0  0  0  0  0  0  0  0
   24.1683  -21.0430   -9.3675 C   0  0  2  0  0  0  0  0  0  0  0  0
   24.0114  -20.3554  -10.6323 N   0  0  0  0  0  0  0  0  0  0  0  0
   22.8106  -21.0988   -8.7411 C   0  0  0  0  0  0  0  0  0  0  0  0
   22.0723  -20.0716   -8.6602 O   0  0  0  0  0  0  0  0  0  0  0  0
   22.2928  -22.3119   -8.2098 N   0  0  0  0  0  0  0  0  0  0  0  0
   20.9480  -22.3061   -7.6154 C   0  0  1  0  0  0  0  0  0  0  0  0
   20.1121  -23.3487   -8.3316 C   0  0  0  0  0  0  0  0  0  0  0  0
   18.8465  -22.8179   -8.9114 C   0  0  0  0  0  0  0  0  0  0  0  0
   18.1579  -23.9887   -9.6100 C   0  0  0  0  0  0  0  0  0  0  0  0
   16.8684  -23.5397  -10.2621 C   0  0  0  0  0  0  0  0  0  0  0  0
   16.2931  -24.6577  -10.9727 N   0  0  0  0  0  0  0  0  0  0  0  0
   21.0565  -22.5303   -6.1663 C   0  0  0  0  0  0  0  0  0  0  0  0
   22.1845  -22.8054   -5.6687 O   0  0  0  0  0  0  0  0  0  0  0  0
   19.9990  -22.4627   -5.2806 O   0  0  0  0  0  0  0  0  0  0  0  0
  2  1  1  6
  2  3  1  0
  2 13  1  0
  3  4  1  0
  4  5  2  0
  5  6  1  0
  7  6  1  0
  8  7  2  0
  9  8  1  0
 10 11  1  0
 10  9  2  0
 11 12  2  0
 12  4  1  0
 12  7  1  0
 13 14  2  0
 13 20  1  0
 16 15  1  0
 17 19  1  0
 17 16  1  0
 17 18  1  1
 19 21  1  0
 19 20  1  6
 21 22  2  0
 23 21  1  0
 23 24  1  0
 24 25  1  6
 24 30  1  0
 26 27  1  0
 26 25  1  0
 27 28  1  0
 29 28  1  0
 30 32  1  0
 31 30  2  0
M  END
$$$$
