WIK.pdb
     RDKit          3D

 32 33  0  0  1  0  0  0  0  0999 V2000
   25.5096  -21.0966  -10.0669 N   0  0  0  0  0  0  0  0  0  0  0  0
   24.8318  -20.9542   -8.8081 C   0  0  1  0  0  0  0  0  0  0  0  0
   25.4132  -19.8720   -7.9387 C   0  0  0  0  0  0  0  0  0  0  0  0
   26.8459  -20.0965   -7.6864 C   0  0  0  0  0  0  0  0  0  0  0  0
   27.8037  -20.3495   -8.6651 C   0  0  0  0  0  0  0  0  0  0  0  0
   29.0048  -20.4795   -8.0995 N   0  0  0  0  0  0  0  0  0  0  0  0
   28.8667  -20.3190   -6.7644 C   0  0  0  0  0  0  0  0  0  0  0  0
   29.7583  -20.3570   -5.7096 C   0  0  0  0  0  0  0  0  0  0  0  0
   29.3023  -20.1609   -4.4352 C   0  0  0  0  0  0  0  0  0  0  0  0
   27.9809  -19.9248   -4.1519 C   0  0  0  0  0  0  0  0  0  0  0  0
   27.0898  -19.8866   -5.2080 C   0  0  0  0  0  0  0  0  0  0  0  0
   27.5172  -20.0789   -6.4973 C   0  0  0  0  0  0  0  0  0  0  0  0
   23.3898  -20.7137   -9.0863 C   0  0  0  0  0  0  0  0  0  0  0  0
   22.9522  -19.6456   -9.5692 O   0  0  0  0  0  0  0  0  0  0  0  0
   20.7692  -23.5554  -12.1724 C   0  0  0  0  0  0  0  0  0  0  0  0
   21.1378  -23.2419  -10.7280 C   0  0  0  0  0  0  0  0  0  0  0  0
   20.6752  -21.8817  -10.3179 C   0  0  2  0  0  0  0  0  0  0  0  0
   21.3481  -20.7944  -11.1440 C   0  0  0  0  0  0  0  0  0  0  0  0
   21.0637  -21.6331   -8.8847 C   0  0  2  0  0  0  0  0  0  0  0  0
   22.4977  -21.7950   -8.7644 N   0  0  0  0  0  0  0  0  0  0  0  0
   20.4429  -22.6186   -7.9455 C   0  0  0  0  0  0  0  0  0  0  0  0
   21.1478  -23.4079   -7.2475 O   0  0  0  0  0  0  0  0  0  0  0  0
   19.0315  -22.7089   -7.7981 N   0  0  0  0  0  0  0  0  0  0  0  0
   18.4789  -23.7303   -6.8964 C   0  0  1  0  0  0  0  0  0  0  0  0
   17.1979  -23.1850   -6.2960 C   0  0  0  0  0  0  0  0  0  0  0  0
   16.5042  -24.1348   -5.3814 C   0  0  0  0  0  0  0  0  0  0  0  0
   15.2494  -23.4237   -4.8785 C   0  0  0  0  0  0  0  0  0  0  0  0
   14.4267  -24.3441   -4.0035 C   0  0  0  0  0  0  0  0  0  0  0  0
   13.2784  -23.6172   -3.5148 N   0  0  0  0  0  0  0  0  0  0  0  0
   18.2947  -24.9858   -7.6393 C   0  0  0  0  0  0  0  0  0  0  0  0
   18.1129  -24.9407   -8.8886 O   0  0  0  0  0  0  0  0  0  0  0  0
   18.3047  -26.2436   -7.0692 O   0  0  0  0  0  0  0  0  0  0  0  0
  2  1  1  6
  2  3  1  0
  2 13  1  0
  3  4  1  0
  4  5  2  0
  5  6  1  0
  7  6  1  0
  8  7  2  0
  9  8  1  0
 10 11  1  0
 10  9  2  0
 11 12  2  0
 12  4  1  0
 12  7  1  0
 13 14  2  0
 13 20  1  0
 16 15  1  0
 17 19  1  0
 17 16  1  0
 17 18  1  6
 19 21  1  0
 19 20  1  6
 21 22  2  0
 23 21  1  0
 23 24  1  0
 24 25  1  6
 24 30  1  0
 26 27  1  0
 26 25  1  0
 27 28  1  0
 29 28  1  0
 30 32  1  0
 31 30  2  0
M  END
$$$$
