WIK.pdb
     RDKit          3D

 32 33  0  0  1  0  0  0  0  0999 V2000
   28.6603  -20.1930  -15.3637 N   0  0  0  0  0  0  0  0  0  0  0  0
   27.2503  -19.9188  -15.3336 C   0  0  1  0  0  0  0  0  0  0  0  0
   26.6520  -19.7297  -16.7015 C   0  0  0  0  0  0  0  0  0  0  0  0
   27.1991  -18.5366  -17.3677 C   0  0  0  0  0  0  0  0  0  0  0  0
   28.1828  -18.5473  -18.3533 C   0  0  0  0  0  0  0  0  0  0  0  0
   28.4292  -17.3009  -18.7598 N   0  0  0  0  0  0  0  0  0  0  0  0
   27.6305  -16.4603  -18.0649 C   0  0  0  0  0  0  0  0  0  0  0  0
   27.4703  -15.0880  -18.0686 C   0  0  0  0  0  0  0  0  0  0  0  0
   26.5641  -14.5138  -17.2203 C   0  0  0  0  0  0  0  0  0  0  0  0
   25.7957  -15.2485  -16.3532 C   0  0  0  0  0  0  0  0  0  0  0  0
   25.9565  -16.6213  -16.3507 C   0  0  0  0  0  0  0  0  0  0  0  0
   26.8570  -17.2264  -17.1904 C   0  0  0  0  0  0  0  0  0  0  0  0
   26.5820  -21.0242  -14.5946 C   0  0  0  0  0  0  0  0  0  0  0  0
   26.6511  -22.2238  -14.9432 O   0  0  0  0  0  0  0  0  0  0  0  0
   25.5729  -19.9163   -9.2621 C   0  0  0  0  0  0  0  0  0  0  0  0
   25.1667  -20.1249  -10.7154 C   0  0  0  0  0  0  0  0  0  0  0  0
   25.5377  -21.4860  -11.2075 C   0  0  2  0  0  0  0  0  0  0  0  0
   27.0449  -21.6972  -11.1714 C   0  0  0  0  0  0  0  0  0  0  0  0
   25.1196  -21.6278  -12.6469 C   0  0  2  0  0  0  0  0  0  0  0  0
   25.8312  -20.6390  -13.4299 N   0  0  0  0  0  0  0  0  0  0  0  0
   23.6610  -21.3610  -12.8468 C   0  0  0  0  0  0  0  0  0  0  0  0
   23.2315  -20.2097  -13.1583 O   0  0  0  0  0  0  0  0  0  0  0  0
   22.6948  -22.3932  -12.6950 N   0  0  0  0  0  0  0  0  0  0  0  0
   21.2709  -22.0548  -12.8355 C   0  0  1  0  0  0  0  0  0  0  0  0
   20.4893  -23.3484  -12.9569 C   0  0  0  0  0  0  0  0  0  0  0  0
   19.0325  -23.1561  -13.2029 C   0  0  0  0  0  0  0  0  0  0  0  0
   18.4487  -24.5384  -13.4887 C   0  0  0  0  0  0  0  0  0  0  0  0
   16.9577  -24.4502  -13.7309 C   0  0  0  0  0  0  0  0  0  0  0  0
   16.6566  -25.0624  -15.0039 N   0  0  0  0  0  0  0  0  0  0  0  0
   20.8557  -21.2190  -11.6993 C   0  0  0  0  0  0  0  0  0  0  0  0
   21.4457  -21.3508  -10.5902 O   0  0  0  0  0  0  0  0  0  0  0  0
   19.8476  -20.2762  -11.7459 O   0  0  0  0  0  0  0  0  0  0  0  0
  2  1  1  6
  2  3  1  0
  2 13  1  0
  3  4  1  0
  4  5  2  0
  5  6  1  0
  7  6  1  0
  8  7  2  0
  9  8  1  0
 10 11  1  0
 10  9  2  0
 11 12  2  0
 12  4  1  0
 12  7  1  0
 13 14  2  0
 13 20  1  0
 16 15  1  0
 17 19  1  0
 17 16  1  0
 17 18  1  6
 19 21  1  0
 19 20  1  6
 21 22  2  0
 23 21  1  0
 23 24  1  0
 24 25  1  1
 24 30  1  0
 26 27  1  0
 26 25  1  0
 27 28  1  0
 29 28  1  0
 30 32  1  0
 31 30  2  0
M  END
$$$$
