WIK.pdb
     RDKit          3D

 32 33  0  0  1  0  0  0  0  0999 V2000
   25.3423  -19.5379  -15.2123 N   0  0  0  0  0  0  0  0  0  0  0  0
   24.0593  -19.7848  -14.6149 C   0  0  1  0  0  0  0  0  0  0  0  0
   22.9806  -20.0779  -15.6227 C   0  0  0  0  0  0  0  0  0  0  0  0
   22.6934  -18.9021  -16.4604 C   0  0  0  0  0  0  0  0  0  0  0  0
   23.3757  -18.5600  -17.6252 C   0  0  0  0  0  0  0  0  0  0  0  0
   22.8470  -17.4538  -18.1506 N   0  0  0  0  0  0  0  0  0  0  0  0
   21.8271  -17.0517  -17.3597 C   0  0  0  0  0  0  0  0  0  0  0  0
   20.9497  -15.9859  -17.4158 C   0  0  0  0  0  0  0  0  0  0  0  0
   20.0067  -15.8380  -16.4363 C   0  0  0  0  0  0  0  0  0  0  0  0
   19.8903  -16.7120  -15.3852 C   0  0  0  0  0  0  0  0  0  0  0  0
   20.7683  -17.7782  -15.3304 C   0  0  0  0  0  0  0  0  0  0  0  0
   21.7244  -17.9536  -16.2984 C   0  0  0  0  0  0  0  0  0  0  0  0
   24.2120  -20.8992  -13.6406 C   0  0  0  0  0  0  0  0  0  0  0  0
   24.5651  -22.0541  -13.9676 O   0  0  0  0  0  0  0  0  0  0  0  0
   25.4378  -19.6236   -8.4616 C   0  0  0  0  0  0  0  0  0  0  0  0
   24.5108  -19.9636   -9.6217 C   0  0  0  0  0  0  0  0  0  0  0  0
   24.7667  -21.3354  -10.1555 C   0  0  2  0  0  0  0  0  0  0  0  0
   26.1638  -21.4477  -10.7498 C   0  0  0  0  0  0  0  0  0  0  0  0
   23.8010  -21.6244  -11.2737 C   0  0  2  0  0  0  0  0  0  0  0  0
   23.9255  -20.5789  -12.2679 N   0  0  0  0  0  0  0  0  0  0  0  0
   22.3766  -21.6103  -10.8161 C   0  0  0  0  0  0  0  0  0  0  0  0
   21.6737  -20.5563  -10.8604 O   0  0  0  0  0  0  0  0  0  0  0  0
   21.7523  -22.7840  -10.3115 N   0  0  0  0  0  0  0  0  0  0  0  0
   20.3561  -22.7028   -9.8578 C   0  0  1  0  0  0  0  0  0  0  0  0
   19.5228  -23.6189  -10.7326 C   0  0  0  0  0  0  0  0  0  0  0  0
   18.1071  -23.7583  -10.2895 C   0  0  0  0  0  0  0  0  0  0  0  0
   17.4610  -24.7982  -11.2028 C   0  0  0  0  0  0  0  0  0  0  0  0
   16.0039  -24.9938  -10.8446 C   0  0  0  0  0  0  0  0  0  0  0  0
   15.9194  -25.8860   -9.7121 N   0  0  0  0  0  0  0  0  0  0  0  0
   20.2903  -23.0329   -8.4266 C   0  0  0  0  0  0  0  0  0  0  0  0
   21.2618  -23.6347   -7.8884 O   0  0  0  0  0  0  0  0  0  0  0  0
   19.2260  -22.7310   -7.5998 O   0  0  0  0  0  0  0  0  0  0  0  0
  2  1  1  6
  2  3  1  0
  2 13  1  0
  3  4  1  0
  4  5  2  0
  5  6  1  0
  7  6  1  0
  8  7  2  0
  9  8  1  0
 10 11  1  0
 10  9  2  0
 11 12  2  0
 12  4  1  0
 12  7  1  0
 13 14  2  0
 13 20  1  0
 16 15  1  0
 17 19  1  0
 17 16  1  0
 17 18  1  6
 19 21  1  0
 19 20  1  6
 21 22  2  0
 23 21  1  0
 23 24  1  0
 24 25  1  6
 24 30  1  0
 26 27  1  0
 26 25  1  0
 27 28  1  0
 29 28  1  0
 30 32  1  0
 31 30  2  0
M  END
$$$$
