WIK.pdb
     RDKit          3D

 32 33  0  0  1  0  0  0  0  0999 V2000
   26.1575  -18.6193   -8.5002 N   0  0  0  0  0  0  0  0  0  0  0  0
   26.5219  -19.9534   -8.8897 C   0  0  1  0  0  0  0  0  0  0  0  0
   26.2550  -20.9787   -7.8208 C   0  0  0  0  0  0  0  0  0  0  0  0
   26.8424  -20.5776   -6.5320 C   0  0  0  0  0  0  0  0  0  0  0  0
   26.1221  -20.1484   -5.4202 C   0  0  0  0  0  0  0  0  0  0  0  0
   26.9575  -19.8880   -4.4133 N   0  0  0  0  0  0  0  0  0  0  0  0
   28.2191  -20.1342   -4.8317 C   0  0  0  0  0  0  0  0  0  0  0  0
   29.4550  -20.0316   -4.2226 C   0  0  0  0  0  0  0  0  0  0  0  0
   30.5819  -20.3525   -4.9280 C   0  0  0  0  0  0  0  0  0  0  0  0
   30.5410  -20.7777   -6.2316 C   0  0  0  0  0  0  0  0  0  0  0  0
   29.3040  -20.8805   -6.8399 C   0  0  0  0  0  0  0  0  0  0  0  0
   28.1557  -20.5664   -6.1581 C   0  0  0  0  0  0  0  0  0  0  0  0
   25.7995  -20.2788  -10.1493 C   0  0  0  0  0  0  0  0  0  0  0  0
   24.5984  -19.9894  -10.3469 O   0  0  0  0  0  0  0  0  0  0  0  0
   29.7626  -20.5978  -12.2650 C   0  0  0  0  0  0  0  0  0  0  0  0
   28.5891  -20.0236  -13.0485 C   0  0  0  0  0  0  0  0  0  0  0  0
   27.5526  -21.0599  -13.3384 C   0  0  2  0  0  0  0  0  0  0  0  0
   27.1630  -21.0584  -14.8101 C   0  0  0  0  0  0  0  0  0  0  0  0
   26.3008  -20.7449  -12.5635 C   0  0  2  0  0  0  0  0  0  0  0  0
   26.5666  -20.9613  -11.1565 N   0  0  0  0  0  0  0  0  0  0  0  0
   25.1627  -21.6460  -12.9261 C   0  0  0  0  0  0  0  0  0  0  0  0
   25.2866  -22.9076  -12.9257 O   0  0  0  0  0  0  0  0  0  0  0  0
   23.8917  -21.1203  -13.2868 N   0  0  0  0  0  0  0  0  0  0  0  0
   22.8246  -22.0544  -13.6745 C   0  0  1  0  0  0  0  0  0  0  0  0
   21.4923  -21.3647  -13.4548 C   0  0  0  0  0  0  0  0  0  0  0  0
   20.3145  -22.1691  -13.8856 C   0  0  0  0  0  0  0  0  0  0  0  0
   19.0904  -21.2663  -13.7447 C   0  0  0  0  0  0  0  0  0  0  0  0
   17.8258  -22.0209  -14.0926 C   0  0  0  0  0  0  0  0  0  0  0  0
   16.6918  -21.1542  -13.8721 N   0  0  0  0  0  0  0  0  0  0  0  0
   23.0414  -22.4910  -15.0617 C   0  0  0  0  0  0  0  0  0  0  0  0
   23.5762  -21.6927  -15.8817 O   0  0  0  0  0  0  0  0  0  0  0  0
   22.7001  -23.7349  -15.5552 O   0  0  0  0  0  0  0  0  0  0  0  0
  2  1  1  1
  2  3  1  0
  2 13  1  0
  3  4  1  0
  4  5  2  0
  5  6  1  0
  7  6  1  0
  8  7  2  0
  9  8  1  0
 10 11  1  0
 10  9  2  0
 11 12  2  0
 12  4  1  0
 12  7  1  0
 13 14  2  0
 13 20  1  0
 16 15  1  0
 17 19  1  0
 17 16  1  0
 17 18  1  6
 19 21  1  0
 19 20  1  1
 21 22  2  0
 23 21  1  0
 23 24  1  0
 24 25  1  6
 24 30  1  0
 26 27  1  0
 26 25  1  0
 27 28  1  0
 29 28  1  0
 30 32  1  0
 31 30  2  0
M  END
$$$$
