WIK.pdb
     RDKit          3D

 32 33  0  0  1  0  0  0  0  0999 V2000
   22.8691  -21.5157   -9.7075 N   0  0  0  0  0  0  0  0  0  0  0  0
   22.5713  -21.7579   -8.3230 C   0  0  1  0  0  0  0  0  0  0  0  0
   23.0842  -20.6795   -7.4070 C   0  0  0  0  0  0  0  0  0  0  0  0
   24.5330  -20.4780   -7.5719 C   0  0  0  0  0  0  0  0  0  0  0  0
   25.1861  -20.3041   -8.7894 C   0  0  0  0  0  0  0  0  0  0  0  0
   26.4910  -20.1223   -8.5806 N   0  0  0  0  0  0  0  0  0  0  0  0
   26.7206  -20.1721   -7.2493 C   0  0  0  0  0  0  0  0  0  0  0  0
   27.8634  -20.0573   -6.4813 C   0  0  0  0  0  0  0  0  0  0  0  0
   27.7737  -20.1647   -5.1208 C   0  0  0  0  0  0  0  0  0  0  0  0
   26.5838  -20.3846   -4.4742 C   0  0  0  0  0  0  0  0  0  0  0  0
   25.4412  -20.4988   -5.2435 C   0  0  0  0  0  0  0  0  0  0  0  0
   25.4991  -20.3949   -6.6103 C   0  0  0  0  0  0  0  0  0  0  0  0
   21.0989  -21.9292   -8.1920 C   0  0  0  0  0  0  0  0  0  0  0  0
   20.2732  -21.0456   -8.5128 O   0  0  0  0  0  0  0  0  0  0  0  0
   16.8591  -24.0665   -9.5863 C   0  0  0  0  0  0  0  0  0  0  0  0
   17.6622  -25.0818   -8.7834 C   0  0  0  0  0  0  0  0  0  0  0  0
   19.1042  -24.7021   -8.6888 C   0  0  2  0  0  0  0  0  0  0  0  0
   19.9465  -25.8515   -8.1532 C   0  0  0  0  0  0  0  0  0  0  0  0
   19.2587  -23.5665   -7.7126 C   0  0  2  0  0  0  0  0  0  0  0  0
   20.6567  -23.1918   -7.6637 N   0  0  0  0  0  0  0  0  0  0  0  0
   18.8720  -23.9540   -6.3200 C   0  0  0  0  0  0  0  0  0  0  0  0
   19.7234  -24.3968   -5.4917 O   0  0  0  0  0  0  0  0  0  0  0  0
   17.5284  -23.8398   -5.8688 N   0  0  0  0  0  0  0  0  0  0  0  0
   17.2203  -24.1809   -4.4722 C   0  0  1  0  0  0  0  0  0  0  0  0
   15.9218  -23.4949   -4.0954 C   0  0  0  0  0  0  0  0  0  0  0  0
   15.5045  -23.7198   -2.6829 C   0  0  0  0  0  0  0  0  0  0  0  0
   14.3024  -22.8120   -2.4298 C   0  0  0  0  0  0  0  0  0  0  0  0
   13.9032  -22.8466   -0.9707 C   0  0  0  0  0  0  0  0  0  0  0  0
   12.5789  -23.4129   -0.8645 N   0  0  0  0  0  0  0  0  0  0  0  0
   17.1787  -25.6435   -4.3271 C   0  0  0  0  0  0  0  0  0  0  0  0
   16.6784  -26.3400   -5.2546 O   0  0  0  0  0  0  0  0  0  0  0  0
   17.6546  -26.3372   -3.2318 O   0  0  0  0  0  0  0  0  0  0  0  0
  2  1  1  6
  2  3  1  0
  2 13  1  0
  3  4  1  0
  4  5  2  0
  5  6  1  0
  7  6  1  0
  8  7  2  0
  9  8  1  0
 10 11  1  0
 10  9  2  0
 11 12  2  0
 12  4  1  0
 12  7  1  0
 13 14  2  0
 13 20  1  0
 16 15  1  0
 17 19  1  0
 17 16  1  0
 17 18  1  1
 19 21  1  0
 19 20  1  1
 21 22  2  0
 23 21  1  0
 23 24  1  0
 24 25  1  6
 24 30  1  0
 26 27  1  0
 26 25  1  0
 27 28  1  0
 29 28  1  0
 30 32  1  0
 31 30  2  0
M  END
$$$$
