WIK.pdb
     RDKit          3D

 32 33  0  0  1  0  0  0  0  0999 V2000
   27.8738  -22.1340  -13.3746 N   0  0  0  0  0  0  0  0  0  0  0  0
   26.8178  -21.5013  -12.6337 C   0  0  1  0  0  0  0  0  0  0  0  0
   27.2540  -20.2420  -11.9344 C   0  0  0  0  0  0  0  0  0  0  0  0
   28.1854  -20.5336  -10.8326 C   0  0  0  0  0  0  0  0  0  0  0  0
   29.5660  -20.6633  -10.9612 C   0  0  0  0  0  0  0  0  0  0  0  0
   30.1109  -20.9018   -9.7672 N   0  0  0  0  0  0  0  0  0  0  0  0
   29.1219  -20.9342   -8.8462 C   0  0  0  0  0  0  0  0  0  0  0  0
   29.1070  -21.1458   -7.4809 C   0  0  0  0  0  0  0  0  0  0  0  0
   27.9155  -21.1269   -6.8098 C   0  0  0  0  0  0  0  0  0  0  0  0
   26.7169  -20.9044   -7.4390 C   0  0  0  0  0  0  0  0  0  0  0  0
   26.7331  -20.6924   -8.8049 C   0  0  0  0  0  0  0  0  0  0  0  0
   27.9125  -20.7047   -9.5055 C   0  0  0  0  0  0  0  0  0  0  0  0
   25.6901  -21.2423  -13.5695 C   0  0  0  0  0  0  0  0  0  0  0  0
   25.8286  -20.6579  -14.6671 O   0  0  0  0  0  0  0  0  0  0  0  0
   24.3577  -25.1160  -14.4592 C   0  0  0  0  0  0  0  0  0  0  0  0
   23.7210  -23.9024  -15.1244 C   0  0  0  0  0  0  0  0  0  0  0  0
   22.8149  -23.1672  -14.1913 C   0  0  2  0  0  0  0  0  0  0  0  0
   21.3918  -23.1110  -14.7293 C   0  0  0  0  0  0  0  0  0  0  0  0
   23.2808  -21.7414  -14.0624 C   0  0  2  0  0  0  0  0  0  0  0  0
   24.3977  -21.7062  -13.1413 N   0  0  0  0  0  0  0  0  0  0  0  0
   22.2276  -20.8460  -13.4901 C   0  0  0  0  0  0  0  0  0  0  0  0
   21.8081  -20.9866  -12.3021 O   0  0  0  0  0  0  0  0  0  0  0  0
   21.6534  -19.7971  -14.2595 N   0  0  0  0  0  0  0  0  0  0  0  0
   20.5996  -18.9706  -13.6528 C   0  0  1  0  0  0  0  0  0  0  0  0
   20.3243  -17.8031  -14.5802 C   0  0  0  0  0  0  0  0  0  0  0  0
   19.1706  -16.9570  -14.1644 C   0  0  0  0  0  0  0  0  0  0  0  0
   18.9467  -15.9393  -15.2813 C   0  0  0  0  0  0  0  0  0  0  0  0
   17.7506  -15.0642  -14.9763 C   0  0  0  0  0  0  0  0  0  0  0  0
   17.5460  -14.1556  -16.0801 N   0  0  0  0  0  0  0  0  0  0  0  0
   19.4186  -19.8057  -13.3888 C   0  0  0  0  0  0  0  0  0  0  0  0
   19.1079  -20.7106  -14.2136 O   0  0  0  0  0  0  0  0  0  0  0  0
   18.5996  -19.6797  -12.2840 O   0  0  0  0  0  0  0  0  0  0  0  0
  2  1  1  6
  2  3  1  0
  2 13  1  0
  3  4  1  0
  4  5  2  0
  5  6  1  0
  7  6  1  0
  8  7  2  0
  9  8  1  0
 10 11  1  0
 10  9  2  0
 11 12  2  0
 12  4  1  0
 12  7  1  0
 13 14  2  0
 13 20  1  0
 16 15  1  0
 17 19  1  0
 17 16  1  0
 17 18  1  6
 19 21  1  0
 19 20  1  1
 21 22  2  0
 23 21  1  0
 23 24  1  0
 24 25  1  6
 24 30  1  0
 26 27  1  0
 26 25  1  0
 27 28  1  0
 29 28  1  0
 30 32  1  0
 31 30  2  0
M  END
$$$$
