WIK.pdb
     RDKit          3D

 32 33  0  0  1  0  0  0  0  0999 V2000
   27.9368  -22.2082  -10.3275 N   0  0  0  0  0  0  0  0  0  0  0  0
   27.1348  -21.0434  -10.0739 C   0  0  1  0  0  0  0  0  0  0  0  0
   27.9211  -19.8919   -9.5075 C   0  0  0  0  0  0  0  0  0  0  0  0
   28.6220  -20.2756   -8.2713 C   0  0  0  0  0  0  0  0  0  0  0  0
   29.7796  -21.0474   -8.2110 C   0  0  0  0  0  0  0  0  0  0  0  0
   30.1649  -21.1860   -6.9415 N   0  0  0  0  0  0  0  0  0  0  0  0
   29.2877  -20.5231   -6.1550 C   0  0  0  0  0  0  0  0  0  0  0  0
   29.1932  -20.3395   -4.7889 C   0  0  0  0  0  0  0  0  0  0  0  0
   28.1578  -19.6062   -4.2782 C   0  0  0  0  0  0  0  0  0  0  0  0
   27.1946  -19.0363   -5.0717 C   0  0  0  0  0  0  0  0  0  0  0  0
   27.2905  -19.2203   -6.4383 C   0  0  0  0  0  0  0  0  0  0  0  0
   28.3179  -19.9502   -6.9803 C   0  0  0  0  0  0  0  0  0  0  0  0
   26.4553  -20.6671  -11.3433 C   0  0  0  0  0  0  0  0  0  0  0  0
   26.9763  -19.9288  -12.2087 O   0  0  0  0  0  0  0  0  0  0  0  0
   24.3039  -22.3080  -15.8795 C   0  0  0  0  0  0  0  0  0  0  0  0
   23.4275  -22.3251  -14.6336 C   0  0  0  0  0  0  0  0  0  0  0  0
   24.2385  -22.4365  -13.3837 C   0  0  2  0  0  0  0  0  0  0  0  0
   23.5101  -23.2465  -12.3202 C   0  0  0  0  0  0  0  0  0  0  0  0
   24.4539  -21.0639  -12.8041 C   0  0  2  0  0  0  0  0  0  0  0  0
   25.1350  -21.2050  -11.5339 N   0  0  0  0  0  0  0  0  0  0  0  0
   23.1670  -20.3549  -12.5214 C   0  0  0  0  0  0  0  0  0  0  0  0
   22.4887  -20.5974  -11.4783 O   0  0  0  0  0  0  0  0  0  0  0  0
   22.6520  -19.3766  -13.4156 N   0  0  0  0  0  0  0  0  0  0  0  0
   21.3309  -18.7928  -13.1402 C   0  0  1  0  0  0  0  0  0  0  0  0
   21.0349  -17.7684  -14.2181 C   0  0  0  0  0  0  0  0  0  0  0  0
   19.7521  -17.0360  -14.0230 C   0  0  0  0  0  0  0  0  0  0  0  0
   19.6227  -16.0580  -15.1891 C   0  0  0  0  0  0  0  0  0  0  0  0
   18.3857  -15.2004  -15.0338 C   0  0  0  0  0  0  0  0  0  0  0  0
   18.3078  -14.2901  -16.1523 N   0  0  0  0  0  0  0  0  0  0  0  0
   20.3320  -19.8686  -13.0582 C   0  0  0  0  0  0  0  0  0  0  0  0
   20.3109  -20.7586  -13.9543 O   0  0  0  0  0  0  0  0  0  0  0  0
   19.3901  -19.9900  -12.0555 O   0  0  0  0  0  0  0  0  0  0  0  0
  2  1  1  6
  2  3  1  0
  2 13  1  0
  3  4  1  0
  4  5  2  0
  5  6  1  0
  7  6  1  0
  8  7  2  0
  9  8  1  0
 10 11  1  0
 10  9  2  0
 11 12  2  0
 12  4  1  0
 12  7  1  0
 13 14  2  0
 13 20  1  0
 16 15  1  0
 17 19  1  0
 17 16  1  0
 17 18  1  1
 19 21  1  0
 19 20  1  1
 21 22  2  0
 23 21  1  0
 23 24  1  0
 24 25  1  6
 24 30  1  0
 26 27  1  0
 26 25  1  0
 27 28  1  0
 29 28  1  0
 30 32  1  0
 31 30  2  0
M  END
$$$$
