WIK.pdb
     RDKit          3D

 32 33  0  0  1  0  0  0  0  0999 V2000
   26.0320  -20.5343  -13.9466 N   0  0  0  0  0  0  0  0  0  0  0  0
   24.8391  -20.2988  -13.1812 C   0  0  1  0  0  0  0  0  0  0  0  0
   23.5752  -20.4989  -13.9734 C   0  0  0  0  0  0  0  0  0  0  0  0
   23.4808  -19.5406  -15.0867 C   0  0  0  0  0  0  0  0  0  0  0  0
   24.4297  -19.3835  -16.0937 C   0  0  0  0  0  0  0  0  0  0  0  0
   24.0236  -18.4504  -16.9560 N   0  0  0  0  0  0  0  0  0  0  0  0
   22.8242  -17.9824  -16.5440 C   0  0  0  0  0  0  0  0  0  0  0  0
   21.9618  -17.0233  -17.0395 C   0  0  0  0  0  0  0  0  0  0  0  0
   20.7952  -16.7597  -16.3761 C   0  0  0  0  0  0  0  0  0  0  0  0
   20.4367  -17.4134  -15.2244 C   0  0  0  0  0  0  0  0  0  0  0  0
   21.3000  -18.3730  -14.7299 C   0  0  0  0  0  0  0  0  0  0  0  0
   22.4771  -18.6600  -15.3734 C   0  0  0  0  0  0  0  0  0  0  0  0
   24.8779  -21.1827  -11.9846 C   0  0  0  0  0  0  0  0  0  0  0  0
   24.9233  -22.4311  -12.0539 O   0  0  0  0  0  0  0  0  0  0  0  0
   26.4128  -18.7142   -7.1609 C   0  0  0  0  0  0  0  0  0  0  0  0
   25.5374  -19.2799   -8.2718 C   0  0  0  0  0  0  0  0  0  0  0  0
   25.8243  -20.7240   -8.5262 C   0  0  2  0  0  0  0  0  0  0  0  0
   27.1796  -20.9111   -9.1940 C   0  0  0  0  0  0  0  0  0  0  0  0
   24.7976  -21.2770   -9.4784 C   0  0  2  0  0  0  0  0  0  0  0  0
   24.8588  -20.5173  -10.7097 N   0  0  0  0  0  0  0  0  0  0  0  0
   23.4018  -21.1351   -8.9586 C   0  0  0  0  0  0  0  0  0  0  0  0
   22.6275  -20.2204   -9.3719 O   0  0  0  0  0  0  0  0  0  0  0  0
   22.8864  -22.0249   -7.9765 N   0  0  0  0  0  0  0  0  0  0  0  0
   21.4633  -21.9346   -7.6179 C   0  0  1  0  0  0  0  0  0  0  0  0
   20.9850  -23.3218   -7.2361 C   0  0  0  0  0  0  0  0  0  0  0  0
   19.5337  -23.3938   -6.9072 C   0  0  0  0  0  0  0  0  0  0  0  0
   19.2338  -24.8504   -6.5585 C   0  0  0  0  0  0  0  0  0  0  0  0
   17.7615  -25.0380   -6.2634 C   0  0  0  0  0  0  0  0  0  0  0  0
   17.5213  -26.4303   -5.9640 N   0  0  0  0  0  0  0  0  0  0  0  0
   21.2934  -20.9373   -6.5510 C   0  0  0  0  0  0  0  0  0  0  0  0
   20.1872  -20.3379   -6.4392 O   0  0  0  0  0  0  0  0  0  0  0  0
   22.2691  -20.5930   -5.6362 O   0  0  0  0  0  0  0  0  0  0  0  0
  2  1  1  6
  2  3  1  0
  2 13  1  0
  3  4  1  0
  4  5  2  0
  5  6  1  0
  7  6  1  0
  8  7  2  0
  9  8  1  0
 10 11  1  0
 10  9  2  0
 11 12  2  0
 12  4  1  0
 12  7  1  0
 13 14  2  0
 13 20  1  0
 16 15  1  0
 17 19  1  0
 17 16  1  0
 17 18  1  6
 19 21  1  0
 19 20  1  6
 21 22  2  0
 23 21  1  0
 23 24  1  0
 24 25  1  1
 24 30  1  0
 26 27  1  0
 26 25  1  0
 27 28  1  0
 29 28  1  0
 30 32  1  0
 31 30  2  0
M  END
$$$$
