WIK.pdb
     RDKit          3D

 32 33  0  0  1  0  0  0  0  0999 V2000
   24.8124  -20.1235  -13.2262 N   0  0  0  0  0  0  0  0  0  0  0  0
   23.7046  -20.1187  -12.3114 C   0  0  1  0  0  0  0  0  0  0  0  0
   22.4138  -20.5725  -12.9383 C   0  0  0  0  0  0  0  0  0  0  0  0
   21.9804  -19.6530  -14.0029 C   0  0  0  0  0  0  0  0  0  0  0  0
   22.4825  -19.6346  -15.3017 C   0  0  0  0  0  0  0  0  0  0  0  0
   21.8559  -18.6979  -16.0154 N   0  0  0  0  0  0  0  0  0  0  0  0
   20.9474  -18.0917  -15.2188 C   0  0  0  0  0  0  0  0  0  0  0  0
   20.0431  -17.0674  -15.4239 C   0  0  0  0  0  0  0  0  0  0  0  0
   19.2440  -16.6582  -14.3921 C   0  0  0  0  0  0  0  0  0  0  0  0
   19.3001  -17.2262  -13.1446 C   0  0  0  0  0  0  0  0  0  0  0  0
   20.2049  -18.2511  -12.9406 C   0  0  0  0  0  0  0  0  0  0  0  0
   21.0193  -18.6840  -13.9562 C   0  0  0  0  0  0  0  0  0  0  0  0
   24.0693  -20.9641  -11.1423 C   0  0  0  0  0  0  0  0  0  0  0  0
   24.4079  -22.1645  -11.2415 O   0  0  0  0  0  0  0  0  0  0  0  0
   26.7888  -19.2605   -6.9272 C   0  0  0  0  0  0  0  0  0  0  0  0
   26.0677  -20.1915   -7.8936 C   0  0  0  0  0  0  0  0  0  0  0  0
   24.6246  -20.3509   -7.5410 C   0  0  2  0  0  0  0  0  0  0  0  0
   24.4510  -21.1769   -6.2741 C   0  0  0  0  0  0  0  0  0  0  0  0
   23.9216  -21.1009   -8.6410 C   0  0  2  0  0  0  0  0  0  0  0  0
   24.0116  -20.3202   -9.8574 N   0  0  0  0  0  0  0  0  0  0  0  0
   22.4637  -21.2895   -8.3623 C   0  0  0  0  0  0  0  0  0  0  0  0
   21.6717  -20.3044   -8.2655 O   0  0  0  0  0  0  0  0  0  0  0  0
   21.9066  -22.5870   -8.1946 N   0  0  0  0  0  0  0  0  0  0  0  0
   20.4758  -22.7065   -7.8779 C   0  0  1  0  0  0  0  0  0  0  0  0
   19.9006  -23.8318   -8.7156 C   0  0  0  0  0  0  0  0  0  0  0  0
   18.4971  -24.1907   -8.3675 C   0  0  0  0  0  0  0  0  0  0  0  0
   18.0932  -25.3354   -9.2948 C   0  0  0  0  0  0  0  0  0  0  0  0
   16.6616  -25.7528   -9.0379 C   0  0  0  0  0  0  0  0  0  0  0  0
   16.3030  -26.7874   -9.9796 N   0  0  0  0  0  0  0  0  0  0  0  0
   20.3137  -22.9061   -6.4302 C   0  0  0  0  0  0  0  0  0  0  0  0
   21.3129  -23.2565   -5.7415 O   0  0  0  0  0  0  0  0  0  0  0  0
   19.1278  -22.7373   -5.7429 O   0  0  0  0  0  0  0  0  0  0  0  0
  2  1  1  6
  2  3  1  0
  2 13  1  0
  3  4  1  0
  4  5  2  0
  5  6  1  0
  7  6  1  0
  8  7  2  0
  9  8  1  0
 10 11  1  0
 10  9  2  0
 11 12  2  0
 12  4  1  0
 12  7  1  0
 13 14  2  0
 13 20  1  0
 16 15  1  0
 17 19  1  0
 17 16  1  0
 17 18  1  1
 19 21  1  0
 19 20  1  6
 21 22  2  0
 23 21  1  0
 23 24  1  0
 24 25  1  6
 24 30  1  0
 26 27  1  0
 26 25  1  0
 27 28  1  0
 29 28  1  0
 30 32  1  0
 31 30  2  0
M  END
$$$$
