WIK.pdb
     RDKit          3D

 32 33  0  0  1  0  0  0  0  0999 V2000
   27.7961  -19.0488   -9.2006 N   0  0  0  0  0  0  0  0  0  0  0  0
   26.8975  -20.1678   -9.2664 C   0  0  1  0  0  0  0  0  0  0  0  0
   26.2323  -20.4743   -7.9515 C   0  0  0  0  0  0  0  0  0  0  0  0
   27.0112  -19.9473   -6.8191 C   0  0  0  0  0  0  0  0  0  0  0  0
   26.7426  -18.7598   -6.1432 C   0  0  0  0  0  0  0  0  0  0  0  0
   27.6235  -18.5925   -5.1556 N   0  0  0  0  0  0  0  0  0  0  0  0
   28.4734  -19.6436   -5.1600 C   0  0  0  0  0  0  0  0  0  0  0  0
   29.5631  -19.9826   -4.3811 C   0  0  0  0  0  0  0  0  0  0  0  0
   30.2451  -21.1385   -4.6441 C   0  0  0  0  0  0  0  0  0  0  0  0
   29.8920  -21.9893   -5.6608 C   0  0  0  0  0  0  0  0  0  0  0  0
   28.8014  -21.6493   -6.4391 C   0  0  0  0  0  0  0  0  0  0  0  0
   28.0969  -20.4969   -6.1993 C   0  0  0  0  0  0  0  0  0  0  0  0
   25.8962  -19.8922  -10.3323 C   0  0  0  0  0  0  0  0  0  0  0  0
   25.2099  -18.8470  -10.3764 O   0  0  0  0  0  0  0  0  0  0  0  0
   27.2596  -22.4777  -14.9551 C   0  0  0  0  0  0  0  0  0  0  0  0
   26.3303  -22.2528  -13.7693 C   0  0  0  0  0  0  0  0  0  0  0  0
   25.8043  -20.8549  -13.7312 C   0  0  2  0  0  0  0  0  0  0  0  0
   26.9329  -19.8406  -13.6083 C   0  0  0  0  0  0  0  0  0  0  0  0
   24.9371  -20.6805  -12.5130 C   0  0  2  0  0  0  0  0  0  0  0  0
   25.7489  -20.9116  -11.3362 N   0  0  0  0  0  0  0  0  0  0  0  0
   23.8187  -21.6731  -12.4612 C   0  0  0  0  0  0  0  0  0  0  0  0
   23.9631  -22.8108  -11.9211 O   0  0  0  0  0  0  0  0  0  0  0  0
   22.5441  -21.3778  -13.0181 N   0  0  0  0  0  0  0  0  0  0  0  0
   21.4694  -22.3731  -12.8909 C   0  0  1  0  0  0  0  0  0  0  0  0
   20.1659  -21.6322  -12.6652 C   0  0  0  0  0  0  0  0  0  0  0  0
   18.9835  -22.5227  -12.4955 C   0  0  0  0  0  0  0  0  0  0  0  0
   17.7834  -21.6148  -12.2333 C   0  0  0  0  0  0  0  0  0  0  0  0
   16.5314  -22.4342  -12.0082 C   0  0  0  0  0  0  0  0  0  0  0  0
   16.2398  -22.4585  -10.5939 N   0  0  0  0  0  0  0  0  0  0  0  0
   21.4603  -23.2334  -14.0832 C   0  0  0  0  0  0  0  0  0  0  0  0
   21.0768  -24.4321  -13.9743 O   0  0  0  0  0  0  0  0  0  0  0  0
   21.8461  -22.8285  -15.3459 O   0  0  0  0  0  0  0  0  0  0  0  0
  2  1  1  1
  2  3  1  0
  2 13  1  0
  3  4  1  0
  4  5  2  0
  5  6  1  0
  7  6  1  0
  8  7  2  0
  9  8  1  0
 10 11  1  0
 10  9  2  0
 11 12  2  0
 12  4  1  0
 12  7  1  0
 13 14  2  0
 13 20  1  0
 16 15  1  0
 17 19  1  0
 17 16  1  0
 17 18  1  1
 19 21  1  0
 19 20  1  1
 21 22  2  0
 23 21  1  0
 23 24  1  0
 24 25  1  6
 24 30  1  0
 26 27  1  0
 26 25  1  0
 27 28  1  0
 29 28  1  0
 30 32  1  0
 31 30  2  0
M  END
$$$$
