WIK.pdb
     RDKit          3D

 32 33  0  0  1  0  0  0  0  0999 V2000
   24.2176  -21.0291  -14.3153 N   0  0  0  0  0  0  0  0  0  0  0  0
   23.3399  -20.3898  -13.3745 C   0  0  1  0  0  0  0  0  0  0  0  0
   21.9393  -20.2103  -13.8952 C   0  0  0  0  0  0  0  0  0  0  0  0
   21.9253  -19.4295  -15.1429 C   0  0  0  0  0  0  0  0  0  0  0  0
   21.5991  -19.9310  -16.4004 C   0  0  0  0  0  0  0  0  0  0  0  0
   21.6611  -18.9542  -17.3067 N   0  0  0  0  0  0  0  0  0  0  0  0
   22.0224  -17.8127  -16.6791 C   0  0  0  0  0  0  0  0  0  0  0  0
   22.2423  -16.5210  -17.1171 C   0  0  0  0  0  0  0  0  0  0  0  0
   22.6179  -15.5603  -16.2190 C   0  0  0  0  0  0  0  0  0  0  0  0
   22.7891  -15.8243  -14.8837 C   0  0  0  0  0  0  0  0  0  0  0  0
   22.5684  -17.1170  -14.4465 C   0  0  0  0  0  0  0  0  0  0  0  0
   22.1901  -18.1020  -15.3232 C   0  0  0  0  0  0  0  0  0  0  0  0
   23.3559  -21.1847  -12.1165 C   0  0  0  0  0  0  0  0  0  0  0  0
   23.2085  -22.4268  -12.0869 O   0  0  0  0  0  0  0  0  0  0  0  0
   25.8635  -21.5329   -7.0811 C   0  0  0  0  0  0  0  0  0  0  0  0
   24.4950  -20.9170   -7.3425 C   0  0  0  0  0  0  0  0  0  0  0  0
   24.4287  -20.2545   -8.6800 C   0  0  2  0  0  0  0  0  0  0  0  0
   23.7133  -18.9131   -8.5999 C   0  0  0  0  0  0  0  0  0  0  0  0
   23.6272  -21.1119   -9.6230 C   0  0  2  0  0  0  0  0  0  0  0  0
   23.5525  -20.4384  -10.9028 N   0  0  0  0  0  0  0  0  0  0  0  0
   22.2176  -21.3059   -9.1602 C   0  0  0  0  0  0  0  0  0  0  0  0
   21.4079  -20.3349   -9.0679 O   0  0  0  0  0  0  0  0  0  0  0  0
   21.7286  -22.5928   -8.8045 N   0  0  0  0  0  0  0  0  0  0  0  0
   20.3556  -22.7105   -8.2919 C   0  0  1  0  0  0  0  0  0  0  0  0
   19.8258  -24.0786   -8.6746 C   0  0  0  0  0  0  0  0  0  0  0  0
   18.4631  -24.3706   -8.1476 C   0  0  0  0  0  0  0  0  0  0  0  0
   18.0693  -25.7451   -8.6848 C   0  0  0  0  0  0  0  0  0  0  0  0
   16.7214  -26.1663   -8.1412 C   0  0  0  0  0  0  0  0  0  0  0  0
   16.3417  -27.4161   -8.7573 N   0  0  0  0  0  0  0  0  0  0  0  0
   20.3550  -22.4616   -6.8428 C   0  0  0  0  0  0  0  0  0  0  0  0
   21.4170  -22.6502   -6.1855 O   0  0  0  0  0  0  0  0  0  0  0  0
   19.2603  -22.0267   -6.1219 O   0  0  0  0  0  0  0  0  0  0  0  0
  2  1  1  6
  2  3  1  0
  2 13  1  0
  3  4  1  0
  4  5  2  0
  5  6  1  0
  7  6  1  0
  8  7  2  0
  9  8  1  0
 10 11  1  0
 10  9  2  0
 11 12  2  0
 12  4  1  0
 12  7  1  0
 13 14  2  0
 13 20  1  0
 16 15  1  0
 17 19  1  0
 17 16  1  0
 17 18  1  1
 19 21  1  0
 19 20  1  6
 21 22  2  0
 23 21  1  0
 23 24  1  0
 24 25  1  1
 24 30  1  0
 26 27  1  0
 26 25  1  0
 27 28  1  0
 29 28  1  0
 30 32  1  0
 31 30  2  0
M  END
$$$$
