WIK.pdb
     RDKit          3D

 32 33  0  0  1  0  0  0  0  0999 V2000
   28.2706  -20.2990  -16.4599 N   0  0  0  0  0  0  0  0  0  0  0  0
   27.3303  -19.6084  -15.6214 C   0  0  1  0  0  0  0  0  0  0  0  0
   26.3318  -18.7907  -16.3957 C   0  0  0  0  0  0  0  0  0  0  0  0
   26.9519  -17.5839  -16.9663 C   0  0  0  0  0  0  0  0  0  0  0  0
   27.2425  -17.3912  -18.3145 C   0  0  0  0  0  0  0  0  0  0  0  0
   27.7756  -16.1816  -18.4938 N   0  0  0  0  0  0  0  0  0  0  0  0
   27.8466  -15.5649  -17.2929 C   0  0  0  0  0  0  0  0  0  0  0  0
   28.3095  -14.3267  -16.8911 C   0  0  0  0  0  0  0  0  0  0  0  0
   28.2555  -13.9848  -15.5680 C   0  0  0  0  0  0  0  0  0  0  0  0
   27.7558  -14.8272  -14.6073 C   0  0  0  0  0  0  0  0  0  0  0  0
   27.2926  -16.0655  -15.0106 C   0  0  0  0  0  0  0  0  0  0  0  0
   27.3329  -16.4368  -16.3307 C   0  0  0  0  0  0  0  0  0  0  0  0
   26.6568  -20.6160  -14.7579 C   0  0  0  0  0  0  0  0  0  0  0  0
   26.3158  -21.7497  -15.1629 O   0  0  0  0  0  0  0  0  0  0  0  0
   28.3686  -21.2651   -9.7343 C   0  0  0  0  0  0  0  0  0  0  0  0
   27.7351  -21.3609  -11.1163 C   0  0  0  0  0  0  0  0  0  0  0  0
   26.3104  -20.9109  -11.1083 C   0  0  2  0  0  0  0  0  0  0  0  0
   25.4690  -21.7498  -10.1566 C   0  0  0  0  0  0  0  0  0  0  0  0
   25.7198  -21.0980  -12.4805 C   0  0  2  0  0  0  0  0  0  0  0  0
   26.4078  -20.2150  -13.3993 N   0  0  0  0  0  0  0  0  0  0  0  0
   24.2717  -20.7255  -12.5346 C   0  0  0  0  0  0  0  0  0  0  0  0
   23.8667  -19.5761  -12.1853 O   0  0  0  0  0  0  0  0  0  0  0  0
   23.2885  -21.6500  -12.9822 N   0  0  0  0  0  0  0  0  0  0  0  0
   21.8839  -21.2186  -13.0335 C   0  0  1  0  0  0  0  0  0  0  0  0
   21.1005  -22.2573  -13.8123 C   0  0  0  0  0  0  0  0  0  0  0  0
   19.6395  -21.9775  -13.8969 C   0  0  0  0  0  0  0  0  0  0  0  0
   19.0382  -23.0505  -14.8025 C   0  0  0  0  0  0  0  0  0  0  0  0
   17.5489  -22.8392  -14.9669 C   0  0  0  0  0  0  0  0  0  0  0  0
   16.9002  -23.0995  -13.7030 N   0  0  0  0  0  0  0  0  0  0  0  0
   21.3892  -21.0105  -11.6647 C   0  0  0  0  0  0  0  0  0  0  0  0
   20.4667  -20.1711  -11.4645 O   0  0  0  0  0  0  0  0  0  0  0  0
   21.8619  -21.6749  -10.5500 O   0  0  0  0  0  0  0  0  0  0  0  0
  2  1  1  6
  2  3  1  0
  2 13  1  0
  3  4  1  0
  4  5  2  0
  5  6  1  0
  7  6  1  0
  8  7  2  0
  9  8  1  0
 10 11  1  0
 10  9  2  0
 11 12  2  0
 12  4  1  0
 12  7  1  0
 13 14  2  0
 13 20  1  0
 16 15  1  0
 17 19  1  0
 17 16  1  0
 17 18  1  1
 19 21  1  0
 19 20  1  6
 21 22  2  0
 23 21  1  0
 23 24  1  0
 24 25  1  1
 24 30  1  0
 26 27  1  0
 26 25  1  0
 27 28  1  0
 29 28  1  0
 30 32  1  0
 31 30  2  0
M  END
$$$$
