WIK.pdb
     RDKit          3D

 32 33  0  0  1  0  0  0  0  0999 V2000
   27.7574  -21.8637  -10.5606 N   0  0  0  0  0  0  0  0  0  0  0  0
   26.7268  -20.9834  -10.0840 C   0  0  1  0  0  0  0  0  0  0  0  0
   27.2580  -19.8231   -9.2862 C   0  0  0  0  0  0  0  0  0  0  0  0
   28.2885  -20.2557   -8.3284 C   0  0  0  0  0  0  0  0  0  0  0  0
   29.4226  -20.9973   -8.6495 C   0  0  0  0  0  0  0  0  0  0  0  0
   30.1579  -21.1960   -7.5544 N   0  0  0  0  0  0  0  0  0  0  0  0
   29.5369  -20.6027   -6.5106 C   0  0  0  0  0  0  0  0  0  0  0  0
   29.8370  -20.4985   -5.1659 C   0  0  0  0  0  0  0  0  0  0  0  0
   28.9844  -19.8238   -4.3362 C   0  0  0  0  0  0  0  0  0  0  0  0
   27.8279  -19.2374   -4.7842 C   0  0  0  0  0  0  0  0  0  0  0  0
   27.5289  -19.3419   -6.1297 C   0  0  0  0  0  0  0  0  0  0  0  0
   28.3648  -20.0116   -6.9869 C   0  0  0  0  0  0  0  0  0  0  0  0
   25.9368  -20.5216  -11.2575 C   0  0  0  0  0  0  0  0  0  0  0  0
   26.1573  -19.4435  -11.8529 O   0  0  0  0  0  0  0  0  0  0  0  0
   25.7087  -24.2427  -14.5061 C   0  0  0  0  0  0  0  0  0  0  0  0
   25.4466  -22.7507  -14.3452 C   0  0  0  0  0  0  0  0  0  0  0  0
   24.1321  -22.4839  -13.6871 C   0  0  2  0  0  0  0  0  0  0  0  0
   23.0162  -22.3442  -14.7132 C   0  0  0  0  0  0  0  0  0  0  0  0
   24.2004  -21.1744  -12.9474 C   0  0  2  0  0  0  0  0  0  0  0  0
   24.8780  -21.3954  -11.6868 N   0  0  0  0  0  0  0  0  0  0  0  0
   22.8450  -20.6353  -12.6143 C   0  0  0  0  0  0  0  0  0  0  0  0
   22.2068  -21.0254  -11.5908 O   0  0  0  0  0  0  0  0  0  0  0  0
   22.2168  -19.6597  -13.4361 N   0  0  0  0  0  0  0  0  0  0  0  0
   20.8454  -19.2398  -13.1125 C   0  0  1  0  0  0  0  0  0  0  0  0
   20.5337  -17.9913  -13.9143 C   0  0  0  0  0  0  0  0  0  0  0  0
   19.1352  -17.5024  -13.7565 C   0  0  0  0  0  0  0  0  0  0  0  0
   19.0142  -16.2358  -14.6015 C   0  0  0  0  0  0  0  0  0  0  0  0
   17.6199  -15.6565  -14.5014 C   0  0  0  0  0  0  0  0  0  0  0  0
   17.5233  -14.5214  -15.3891 N   0  0  0  0  0  0  0  0  0  0  0  0
   19.9220  -20.3541  -13.3726 C   0  0  0  0  0  0  0  0  0  0  0  0
   20.1462  -21.1243  -14.3484 O   0  0  0  0  0  0  0  0  0  0  0  0
   18.8003  -20.6360  -12.6179 O   0  0  0  0  0  0  0  0  0  0  0  0
  2  1  1  6
  2  3  1  0
  2 13  1  0
  3  4  1  0
  4  5  2  0
  5  6  1  0
  7  6  1  0
  8  7  2  0
  9  8  1  0
 10 11  1  0
 10  9  2  0
 11 12  2  0
 12  4  1  0
 12  7  1  0
 13 14  2  0
 13 20  1  0
 16 15  1  0
 17 19  1  0
 17 16  1  0
 17 18  1  6
 19 21  1  0
 19 20  1  1
 21 22  2  0
 23 21  1  0
 23 24  1  0
 24 25  1  6
 24 30  1  0
 26 27  1  0
 26 25  1  0
 27 28  1  0
 29 28  1  0
 30 32  1  0
 31 30  2  0
M  END
$$$$
