AHR.pdb
     RDKit          3D

 27 27  0  0  1  0  0  0  0  0999 V2000
   18.7319  -13.1145  -18.7284 C   0  0  0  0  0  0  0  0  0  0  0  0
   19.9297  -12.6571  -17.9237 C   0  0  2  0  0  0  0  0  0  0  0  0
   20.3837  -13.6849  -17.0094 N   0  0  0  0  0  0  0  0  0  0  0  0
   19.6277  -11.4360  -17.1470 C   0  0  0  0  0  0  0  0  0  0  0  0
   18.5749  -11.2973  -16.4720 O   0  0  0  0  0  0  0  0  0  0  0  0
   20.5536  -10.3666  -17.1528 N   0  0  0  0  0  0  0  0  0  0  0  0
   20.3869   -9.1719  -16.3506 C   0  0  1  0  0  0  0  0  0  0  0  0
   21.7614   -8.6045  -16.1040 C   0  0  0  0  0  0  0  0  0  0  0  0
   21.7998   -7.3806  -15.3213 C   0  0  0  0  0  0  0  0  0  0  0  0
   20.7297   -6.7069  -14.7985 C   0  0  0  0  0  0  0  0  0  0  0  0
   21.1972   -5.6358  -14.1464 N   0  0  0  0  0  0  0  0  0  0  0  0
   22.5280   -5.6369  -14.2569 C   0  0  0  0  0  0  0  0  0  0  0  0
   22.8979   -6.6982  -14.9717 N   0  0  0  0  0  0  0  0  0  0  0  0
   19.4326   -8.2736  -16.9832 C   0  0  0  0  0  0  0  0  0  0  0  0
   19.4970   -8.0993  -18.2390 O   0  0  0  0  0  0  0  0  0  0  0  0
   11.3755   -4.9184  -14.7202 N   0  0  0  0  0  0  0  0  0  0  0  0
   11.8459   -4.1115  -15.7895 C   0  0  0  0  0  0  0  0  0  0  0  0
   11.1285   -3.1514  -16.2400 N   0  0  0  0  0  0  0  0  0  0  0  0
   13.1146   -4.3301  -16.3985 N   0  0  0  0  0  0  0  0  0  0  0  0
   13.9449   -5.4100  -15.9047 C   0  0  0  0  0  0  0  0  0  0  0  0
   15.2361   -5.5077  -16.6808 C   0  0  0  0  0  0  0  0  0  0  0  0
   16.1812   -6.5380  -16.1583 C   0  0  0  0  0  0  0  0  0  0  0  0
   17.4977   -6.6184  -16.9025 C   0  0  2  0  0  0  0  0  0  0  0  0
   18.4089   -7.5562  -16.3169 N   0  0  0  0  0  0  0  0  0  0  0  0
   18.0460   -5.2392  -16.9288 C   0  0  0  0  0  0  0  0  0  0  0  0
   18.6789   -4.8357  -15.9294 O   0  0  0  0  0  0  0  0  0  0  0  0
   17.8838   -4.3927  -18.0081 O   0  0  0  0  0  0  0  0  0  0  0  0
  2  3  1  0
  2  1  1  1
  4  2  1  0
  5  4  2  0
  6  4  1  0
  7  6  1  0
  7  8  1  6
  8  9  1  0
  9 13  1  0
 10  9  2  0
 10 11  1  0
 11 12  1  0
 13 12  2  0
 14  7  1  0
 14 15  2  0
 16 17  1  0
 17 18  2  0
 19 17  1  0
 19 20  1  0
 20 21  1  0
 22 21  1  0
 23 22  1  1
 23 24  1  0
 24 14  1  0
 25 27  1  0
 25 23  1  0
 26 25  2  0
M  END
$$$$
