AHR.pdb
     RDKit          3D

 27 27  0  0  1  0  0  0  0  0999 V2000
   26.9364  -12.7634  -24.2297 C   0  0  0  0  0  0  0  0  0  0  0  0
   27.4237  -13.2196  -22.8710 C   0  0  2  0  0  0  0  0  0  0  0  0
   28.3855  -14.2971  -22.9819 N   0  0  0  0  0  0  0  0  0  0  0  0
   26.3052  -13.6728  -22.0171 C   0  0  0  0  0  0  0  0  0  0  0  0
   25.4736  -14.5431  -22.3837 O   0  0  0  0  0  0  0  0  0  0  0  0
   26.1491  -13.1128  -20.7276 N   0  0  0  0  0  0  0  0  0  0  0  0
   25.1322  -13.5503  -19.7932 C   0  0  1  0  0  0  0  0  0  0  0  0
   25.8313  -13.9006  -18.5046 C   0  0  0  0  0  0  0  0  0  0  0  0
   26.4860  -15.1979  -18.4827 C   0  0  0  0  0  0  0  0  0  0  0  0
   25.8867  -16.4168  -18.3171 C   0  0  0  0  0  0  0  0  0  0  0  0
   26.8414  -17.3535  -18.3619 N   0  0  0  0  0  0  0  0  0  0  0  0
   28.0113  -16.7381  -18.5510 C   0  0  0  0  0  0  0  0  0  0  0  0
   27.7981  -15.4254  -18.6249 N   0  0  0  0  0  0  0  0  0  0  0  0
   24.0803  -12.5496  -19.6938 C   0  0  0  0  0  0  0  0  0  0  0  0
   24.3978  -11.3559  -19.4009 O   0  0  0  0  0  0  0  0  0  0  0  0
   15.6551  -13.7843  -17.7457 N   0  0  0  0  0  0  0  0  0  0  0  0
   16.1678  -13.8125  -19.0694 C   0  0  0  0  0  0  0  0  0  0  0  0
   15.6094  -14.5381  -19.9645 N   0  0  0  0  0  0  0  0  0  0  0  0
   17.3065  -13.0485  -19.4542 N   0  0  0  0  0  0  0  0  0  0  0  0
   17.9735  -12.2433  -18.4511 C   0  0  0  0  0  0  0  0  0  0  0  0
   19.2103  -11.5834  -19.0115 C   0  0  0  0  0  0  0  0  0  0  0  0
   20.3784  -12.5022  -19.1489 C   0  0  0  0  0  0  0  0  0  0  0  0
   21.6309  -11.8493  -19.6954 C   0  0  2  0  0  0  0  0  0  0  0  0
   22.6983  -12.7828  -19.8998 N   0  0  0  0  0  0  0  0  0  0  0  0
   21.9943  -10.7772  -18.7353 C   0  0  0  0  0  0  0  0  0  0  0  0
   21.8148   -9.5893  -19.0800 O   0  0  0  0  0  0  0  0  0  0  0  0
   22.5192  -11.0421  -17.4854 O   0  0  0  0  0  0  0  0  0  0  0  0
  2  3  1  0
  2  1  1  6
  4  2  1  0
  5  4  2  0
  6  4  1  0
  7  6  1  0
  7  8  1  1
  8  9  1  0
  9 13  1  0
 10  9  2  0
 10 11  1  0
 11 12  1  0
 13 12  2  0
 14  7  1  0
 14 15  2  0
 16 17  1  0
 17 18  2  0
 19 17  1  0
 19 20  1  0
 20 21  1  0
 22 21  1  0
 23 22  1  1
 23 24  1  0
 24 14  1  0
 25 27  1  0
 25 23  1  0
 26 25  2  0
M  END
$$$$
