AHR.pdb
     RDKit          3D

 27 27  0  0  1  0  0  0  0  0999 V2000
   12.6723   -9.4146   -9.4504 C   0  0  0  0  0  0  0  0  0  0  0  0
   13.6672   -9.5257  -10.5859 C   0  0  2  0  0  0  0  0  0  0  0  0
   14.1228  -10.8889  -10.7660 N   0  0  0  0  0  0  0  0  0  0  0  0
   14.8453   -8.6611  -10.3620 C   0  0  0  0  0  0  0  0  0  0  0  0
   15.6646   -8.8500   -9.4259 O   0  0  0  0  0  0  0  0  0  0  0  0
   15.0757   -7.5685  -11.2303 N   0  0  0  0  0  0  0  0  0  0  0  0
   16.1269   -6.5953  -11.0150 C   0  0  1  0  0  0  0  0  0  0  0  0
   16.9575   -6.5499  -12.2719 C   0  0  0  0  0  0  0  0  0  0  0  0
   17.8283   -7.6935  -12.4859 C   0  0  0  0  0  0  0  0  0  0  0  0
   18.0425   -8.7344  -11.6240 C   0  0  0  0  0  0  0  0  0  0  0  0
   18.9087   -9.5749  -12.2020 N   0  0  0  0  0  0  0  0  0  0  0  0
   19.2306   -9.0742  -13.3974 C   0  0  0  0  0  0  0  0  0  0  0  0
   18.5742   -7.9286  -13.5730 N   0  0  0  0  0  0  0  0  0  0  0  0
   15.5549   -5.3280  -10.5851 C   0  0  0  0  0  0  0  0  0  0  0  0
   14.6456   -4.7961  -11.2935 O   0  0  0  0  0  0  0  0  0  0  0  0
   16.4504   -0.1903   -3.1614 N   0  0  0  0  0  0  0  0  0  0  0  0
   15.5112    0.4639   -4.0013 C   0  0  0  0  0  0  0  0  0  0  0  0
   14.9548    1.5538   -3.6244 N   0  0  0  0  0  0  0  0  0  0  0  0
   15.1520   -0.0537   -5.2785 N   0  0  0  0  0  0  0  0  0  0  0  0
   15.7217   -1.3173   -5.7008 C   0  0  0  0  0  0  0  0  0  0  0  0
   15.2775   -1.6794   -7.0974 C   0  0  0  0  0  0  0  0  0  0  0  0
   15.8094   -2.9866   -7.5831 C   0  0  0  0  0  0  0  0  0  0  0  0
   15.4212   -3.3341   -9.0052 C   0  0  2  0  0  0  0  0  0  0  0  0
   15.9220   -4.6107   -9.4201 N   0  0  0  0  0  0  0  0  0  0  0  0
   15.9237   -2.2265   -9.8563 C   0  0  0  0  0  0  0  0  0  0  0  0
   15.1366   -1.3000  -10.1462 O   0  0  0  0  0  0  0  0  0  0  0  0
   17.2184   -2.1829  -10.3355 O   0  0  0  0  0  0  0  0  0  0  0  0
  2  3  1  0
  2  1  1  1
  4  2  1  0
  5  4  2  0
  6  4  1  0
  7  6  1  0
  7  8  1  6
  8  9  1  0
  9 13  1  0
 10  9  2  0
 10 11  1  0
 11 12  1  0
 13 12  2  0
 14  7  1  0
 14 15  2  0
 16 17  1  0
 17 18  2  0
 19 17  1  0
 19 20  1  0
 20 21  1  0
 22 21  1  0
 23 22  1  1
 23 24  1  0
 24 14  1  0
 25 27  1  0
 25 23  1  0
 26 25  2  0
M  END
$$$$
