AHR.pdb
     RDKit          3D

 27 27  0  0  1  0  0  0  0  0999 V2000
   23.7938  -22.0640  -20.0559 C   0  0  0  0  0  0  0  0  0  0  0  0
   24.3175  -20.7459  -19.5268 C   0  0  2  0  0  0  0  0  0  0  0  0
   25.7200  -20.5633  -19.8403 N   0  0  0  0  0  0  0  0  0  0  0  0
   24.1450  -20.6417  -18.0622 C   0  0  0  0  0  0  0  0  0  0  0  0
   24.6351  -21.4730  -17.2547 O   0  0  0  0  0  0  0  0  0  0  0  0
   23.3982  -19.5652  -17.5291 N   0  0  0  0  0  0  0  0  0  0  0  0
   23.2785  -19.3130  -16.1076 C   0  0  1  0  0  0  0  0  0  0  0  0
   23.7005  -17.8856  -15.8704 C   0  0  0  0  0  0  0  0  0  0  0  0
   25.1335  -17.6455  -15.9004 C   0  0  0  0  0  0  0  0  0  0  0  0
   26.1168  -18.5737  -16.1099 C   0  0  0  0  0  0  0  0  0  0  0  0
   27.2954  -17.9415  -16.0625 N   0  0  0  0  0  0  0  0  0  0  0  0
   27.0580  -16.6483  -15.8290 C   0  0  0  0  0  0  0  0  0  0  0  0
   25.7425  -16.4650  -15.7298 N   0  0  0  0  0  0  0  0  0  0  0  0
   21.9437  -19.6659  -15.6476 C   0  0  0  0  0  0  0  0  0  0  0  0
   20.9468  -19.3603  -16.3718 O   0  0  0  0  0  0  0  0  0  0  0  0
   18.8620  -24.6463   -8.7171 N   0  0  0  0  0  0  0  0  0  0  0  0
   17.7954  -24.5006   -9.6427 C   0  0  0  0  0  0  0  0  0  0  0  0
   16.6992  -25.1401   -9.4731 N   0  0  0  0  0  0  0  0  0  0  0  0
   17.8953  -23.6515  -10.7818 N   0  0  0  0  0  0  0  0  0  0  0  0
   19.1726  -23.0354  -11.0785 C   0  0  0  0  0  0  0  0  0  0  0  0
   19.1044  -22.2141  -12.3434 C   0  0  0  0  0  0  0  0  0  0  0  0
   20.3937  -21.5581  -12.7108 C   0  0  0  0  0  0  0  0  0  0  0  0
   20.3408  -20.7350  -13.9810 C   0  0  2  0  0  0  0  0  0  0  0  0
   21.6391  -20.3377  -14.4382 N   0  0  0  0  0  0  0  0  0  0  0  0
   19.4651  -19.5728  -13.6878 C   0  0  0  0  0  0  0  0  0  0  0  0
   19.9366  -18.6332  -13.0118 O   0  0  0  0  0  0  0  0  0  0  0  0
   18.1594  -19.4925  -14.1311 O   0  0  0  0  0  0  0  0  0  0  0  0
  2  3  1  0
  2  1  1  1
  4  2  1  0
  5  4  2  0
  6  4  1  0
  7  6  1  0
  7  8  1  6
  8  9  1  0
  9 13  1  0
 10  9  2  0
 10 11  1  0
 11 12  1  0
 13 12  2  0
 14  7  1  0
 14 15  2  0
 16 17  1  0
 17 18  2  0
 19 17  1  0
 19 20  1  0
 20 21  1  0
 22 21  1  0
 23 22  1  1
 23 24  1  0
 24 14  1  0
 25 27  1  0
 25 23  1  0
 26 25  2  0
M  END
$$$$
