AHR.pdb
     RDKit          3D

 27 27  0  0  1  0  0  0  0  0999 V2000
   28.4610  -17.2775  -19.5536 C   0  0  0  0  0  0  0  0  0  0  0  0
   28.2279  -16.1413  -18.5808 C   0  0  2  0  0  0  0  0  0  0  0  0
   26.8206  -15.9748  -18.2805 N   0  0  0  0  0  0  0  0  0  0  0  0
   28.7523  -14.8620  -19.1044 C   0  0  0  0  0  0  0  0  0  0  0  0
   29.9610  -14.6918  -19.4097 O   0  0  0  0  0  0  0  0  0  0  0  0
   27.8684  -13.7710  -19.2755 N   0  0  0  0  0  0  0  0  0  0  0  0
   28.3038  -12.4625  -19.7189 C   0  0  1  0  0  0  0  0  0  0  0  0
   27.1215  -11.7975  -20.3760 C   0  0  0  0  0  0  0  0  0  0  0  0
   27.3622  -10.4574  -20.8840 C   0  0  0  0  0  0  0  0  0  0  0  0
   28.5523   -9.7821  -20.8861 C   0  0  0  0  0  0  0  0  0  0  0  0
   28.3438   -8.5838  -21.4443 N   0  0  0  0  0  0  0  0  0  0  0  0
   27.0546   -8.5085  -21.7845 C   0  0  0  0  0  0  0  0  0  0  0  0
   26.4544   -9.6479  -21.4445 N   0  0  0  0  0  0  0  0  0  0  0  0
   28.9083  -11.7351  -18.6128 C   0  0  0  0  0  0  0  0  0  0  0  0
   28.3151  -11.7257  -17.4905 O   0  0  0  0  0  0  0  0  0  0  0  0
   36.9688  -10.7037  -15.1948 N   0  0  0  0  0  0  0  0  0  0  0  0
   36.2471   -9.5881  -14.6945 C   0  0  0  0  0  0  0  0  0  0  0  0
   36.7791   -8.8078  -13.8299 N   0  0  0  0  0  0  0  0  0  0  0  0
   34.9220   -9.2922  -15.1244 N   0  0  0  0  0  0  0  0  0  0  0  0
   34.3185  -10.1299  -16.1410 C   0  0  0  0  0  0  0  0  0  0  0  0
   32.8868   -9.7290  -16.4028 C   0  0  0  0  0  0  0  0  0  0  0  0
   32.1986  -10.5707  -17.4253 C   0  0  0  0  0  0  0  0  0  0  0  0
   30.7271  -10.2621  -17.6068 C   0  0  2  0  0  0  0  0  0  0  0  0
   30.1289  -11.0182  -18.6665 N   0  0  0  0  0  0  0  0  0  0  0  0
   30.6338   -8.7983  -17.8350 C   0  0  0  0  0  0  0  0  0  0  0  0
   30.7078   -8.0397  -16.8444 O   0  0  0  0  0  0  0  0  0  0  0  0
   30.4697   -8.2485  -19.0915 O   0  0  0  0  0  0  0  0  0  0  0  0
  2  3  1  0
  2  1  1  6
  4  2  1  0
  5  4  2  0
  6  4  1  0
  7  6  1  0
  7  8  1  1
  8  9  1  0
  9 13  1  0
 10  9  2  0
 10 11  1  0
 11 12  1  0
 13 12  2  0
 14  7  1  0
 14 15  2  0
 16 17  1  0
 17 18  2  0
 19 17  1  0
 19 20  1  0
 20 21  1  0
 22 21  1  0
 23 22  1  6
 23 24  1  0
 24 14  1  0
 25 27  1  0
 25 23  1  0
 26 25  2  0
M  END
$$$$
