AHR.pdb
     RDKit          3D

 27 27  0  0  1  0  0  0  0  0999 V2000
   16.7594  -12.7309  -19.0625 C   0  0  0  0  0  0  0  0  0  0  0  0
   17.4294  -12.4412  -17.7363 C   0  0  2  0  0  0  0  0  0  0  0  0
   16.5546  -12.7354  -16.6198 N   0  0  0  0  0  0  0  0  0  0  0  0
   17.8564  -11.0291  -17.6408 C   0  0  0  0  0  0  0  0  0  0  0  0
   18.6620  -10.5015  -18.4507 O   0  0  0  0  0  0  0  0  0  0  0  0
   17.3453  -10.2216  -16.5979 N   0  0  0  0  0  0  0  0  0  0  0  0
   17.7906   -8.8641  -16.3581 C   0  0  1  0  0  0  0  0  0  0  0  0
   16.6488   -8.1288  -15.7042 C   0  0  0  0  0  0  0  0  0  0  0  0
   16.9015   -6.7311  -15.3967 C   0  0  0  0  0  0  0  0  0  0  0  0
   17.4842   -5.8029  -16.2160 C   0  0  0  0  0  0  0  0  0  0  0  0
   17.5268   -4.6402  -15.5548 N   0  0  0  0  0  0  0  0  0  0  0  0
   16.9841   -4.8333  -14.3500 C   0  0  0  0  0  0  0  0  0  0  0  0
   16.6024   -6.1056  -14.2508 N   0  0  0  0  0  0  0  0  0  0  0  0
   19.0460   -8.8720  -15.6220 C   0  0  0  0  0  0  0  0  0  0  0  0
   19.3594   -9.9083  -14.9590 O   0  0  0  0  0  0  0  0  0  0  0  0
   26.4485  -11.6706  -17.1510 N   0  0  0  0  0  0  0  0  0  0  0  0
   26.7294  -10.8928  -15.9970 C   0  0  0  0  0  0  0  0  0  0  0  0
   27.8344  -11.0437  -15.3679 N   0  0  0  0  0  0  0  0  0  0  0  0
   25.8108   -9.9268  -15.4959 N   0  0  0  0  0  0  0  0  0  0  0  0
   24.4592   -9.9177  -16.0181 C   0  0  0  0  0  0  0  0  0  0  0  0
   23.6186   -8.8596  -15.3452 C   0  0  0  0  0  0  0  0  0  0  0  0
   22.2022   -8.8214  -15.8140 C   0  0  0  0  0  0  0  0  0  0  0  0
   21.3135   -7.8602  -15.0525 C   0  0  2  0  0  0  0  0  0  0  0  0
   19.9798   -7.8079  -15.5730 N   0  0  0  0  0  0  0  0  0  0  0  0
   21.9907   -6.5401  -15.1007 C   0  0  0  0  0  0  0  0  0  0  0  0
   21.7540   -5.7895  -16.0716 O   0  0  0  0  0  0  0  0  0  0  0  0
   22.8655   -6.1146  -14.1201 O   0  0  0  0  0  0  0  0  0  0  0  0
  2  3  1  0
  2  1  1  6
  4  2  1  0
  5  4  2  0
  6  4  1  0
  7  6  1  0
  7  8  1  1
  8  9  1  0
  9 13  1  0
 10  9  2  0
 10 11  1  0
 11 12  1  0
 13 12  2  0
 14  7  1  0
 14 15  2  0
 16 17  1  0
 17 18  2  0
 19 17  1  0
 19 20  1  0
 20 21  1  0
 22 21  1  0
 23 22  1  6
 23 24  1  0
 24 14  1  0
 25 27  1  0
 25 23  1  0
 26 25  2  0
M  END
$$$$
