AHR.pdb
     RDKit          3D

 27 27  0  0  1  0  0  0  0  0999 V2000
   25.4320  -22.3366  -11.6022 C   0  0  0  0  0  0  0  0  0  0  0  0
   26.2992  -21.1488  -11.2436 C   0  0  2  0  0  0  0  0  0  0  0  0
   26.1889  -20.8110   -9.8392 N   0  0  0  0  0  0  0  0  0  0  0  0
   25.9455  -19.9570  -12.0437 C   0  0  0  0  0  0  0  0  0  0  0  0
   25.1479  -19.0725  -11.6379 O   0  0  0  0  0  0  0  0  0  0  0  0
   26.5210  -19.7890  -13.3249 N   0  0  0  0  0  0  0  0  0  0  0  0
   26.2684  -18.6324  -14.1598 C   0  0  1  0  0  0  0  0  0  0  0  0
   27.5829  -18.2348  -14.7811 C   0  0  0  0  0  0  0  0  0  0  0  0
   27.5207  -17.1229  -15.7148 C   0  0  0  0  0  0  0  0  0  0  0  0
   27.0436  -15.8655  -15.4628 C   0  0  0  0  0  0  0  0  0  0  0  0
   27.1677  -15.1465  -16.5846 N   0  0  0  0  0  0  0  0  0  0  0  0
   27.7094  -15.9329  -17.5181 C   0  0  0  0  0  0  0  0  0  0  0  0
   27.9255  -17.1370  -16.9913 N   0  0  0  0  0  0  0  0  0  0  0  0
   25.1852  -18.9139  -15.0900 C   0  0  0  0  0  0  0  0  0  0  0  0
   25.1348  -20.0559  -15.6421 O   0  0  0  0  0  0  0  0  0  0  0  0
   18.4010  -13.8452  -18.1229 N   0  0  0  0  0  0  0  0  0  0  0  0
   19.0444  -14.5441  -19.1780 C   0  0  0  0  0  0  0  0  0  0  0  0
   18.8319  -14.2146  -20.3969 N   0  0  0  0  0  0  0  0  0  0  0  0
   19.9396  -15.6242  -18.9322 N   0  0  0  0  0  0  0  0  0  0  0  0
   20.0857  -16.1096  -17.5749 C   0  0  0  0  0  0  0  0  0  0  0  0
   21.0560  -17.2642  -17.5071 C   0  0  0  0  0  0  0  0  0  0  0  0
   22.2007  -17.0406  -16.5759 C   0  0  0  0  0  0  0  0  0  0  0  0
   23.1498  -18.2143  -16.4529 C   0  0  2  0  0  0  0  0  0  0  0  0
   24.1515  -18.0141  -15.4484 N   0  0  0  0  0  0  0  0  0  0  0  0
   23.7355  -18.4191  -17.8015 C   0  0  0  0  0  0  0  0  0  0  0  0
   24.6464  -17.6484  -18.1735 O   0  0  0  0  0  0  0  0  0  0  0  0
   23.3141  -19.4217  -18.6530 O   0  0  0  0  0  0  0  0  0  0  0  0
  2  3  1  0
  2  1  1  6
  4  2  1  0
  5  4  2  0
  6  4  1  0
  7  6  1  0
  7  8  1  6
  8  9  1  0
  9 13  1  0
 10  9  2  0
 10 11  1  0
 11 12  1  0
 13 12  2  0
 14  7  1  0
 14 15  2  0
 16 17  1  0
 17 18  2  0
 19 17  1  0
 19 20  1  0
 20 21  1  0
 22 21  1  0
 23 22  1  6
 23 24  1  0
 24 14  1  0
 25 27  1  0
 25 23  1  0
 26 25  2  0
M  END
$$$$
