AHR.pdb
     RDKit          3D

 27 27  0  0  1  0  0  0  0  0999 V2000
   22.6414  -16.1468  -22.9618 C   0  0  0  0  0  0  0  0  0  0  0  0
   23.2361  -16.8843  -21.7811 C   0  0  2  0  0  0  0  0  0  0  0  0
   23.9245  -18.0897  -22.1953 N   0  0  0  0  0  0  0  0  0  0  0  0
   22.2002  -17.2500  -20.7916 C   0  0  0  0  0  0  0  0  0  0  0  0
   21.3849  -18.1914  -20.9708 O   0  0  0  0  0  0  0  0  0  0  0  0
   22.1086  -16.5184  -19.5845 N   0  0  0  0  0  0  0  0  0  0  0  0
   21.0979  -16.7751  -18.5790 C   0  0  1  0  0  0  0  0  0  0  0  0
   21.8090  -16.9183  -17.2577 C   0  0  0  0  0  0  0  0  0  0  0  0
   22.4725  -18.1930  -17.0412 C   0  0  0  0  0  0  0  0  0  0  0  0
   22.4677  -19.2736  -17.8807 C   0  0  0  0  0  0  0  0  0  0  0  0
   23.1986  -20.2393  -17.3116 N   0  0  0  0  0  0  0  0  0  0  0  0
   23.6514  -19.7767  -16.1435 C   0  0  0  0  0  0  0  0  0  0  0  0
   23.2109  -18.5309  -15.9762 N   0  0  0  0  0  0  0  0  0  0  0  0
   20.0638  -15.7527  -18.6366 C   0  0  0  0  0  0  0  0  0  0  0  0
   20.4123  -14.5334  -18.6942 O   0  0  0  0  0  0  0  0  0  0  0  0
   11.0324  -15.9725  -19.4203 N   0  0  0  0  0  0  0  0  0  0  0  0
   11.4283  -14.6213  -19.6022 C   0  0  0  0  0  0  0  0  0  0  0  0
   10.5488  -13.7064  -19.7724 N   0  0  0  0  0  0  0  0  0  0  0  0
   12.7976  -14.2297  -19.6036 N   0  0  0  0  0  0  0  0  0  0  0  0
   13.8097  -15.2429  -19.3834 C   0  0  0  0  0  0  0  0  0  0  0  0
   15.1849  -14.6296  -19.2754 C   0  0  0  0  0  0  0  0  0  0  0  0
   16.2744  -15.6217  -19.0382 C   0  0  0  0  0  0  0  0  0  0  0  0
   17.6295  -15.0103  -18.7487 C   0  0  2  0  0  0  0  0  0  0  0  0
   18.6675  -15.9914  -18.6367 N   0  0  0  0  0  0  0  0  0  0  0  0
   17.4696  -14.2130  -17.5068 C   0  0  0  0  0  0  0  0  0  0  0  0
   17.6041  -14.7953  -16.4091 O   0  0  0  0  0  0  0  0  0  0  0  0
   17.1802  -12.8624  -17.5200 O   0  0  0  0  0  0  0  0  0  0  0  0
  2  3  1  0
  2  1  1  6
  4  2  1  0
  5  4  2  0
  6  4  1  0
  7  6  1  0
  7  8  1  1
  8  9  1  0
  9 13  1  0
 10  9  2  0
 10 11  1  0
 11 12  1  0
 13 12  2  0
 14  7  1  0
 14 15  2  0
 16 17  1  0
 17 18  2  0
 19 17  1  0
 19 20  1  0
 20 21  1  0
 22 21  1  0
 23 22  1  1
 23 24  1  0
 24 14  1  0
 25 27  1  0
 25 23  1  0
 26 25  2  0
M  END
$$$$
