AHR.pdb
     RDKit          3D

 27 27  0  0  1  0  0  0  0  0999 V2000
   26.6896  -22.2887  -15.4899 C   0  0  0  0  0  0  0  0  0  0  0  0
   25.4398  -21.9349  -16.2673 C   0  0  2  0  0  0  0  0  0  0  0  0
   25.7205  -20.9919  -17.3305 N   0  0  0  0  0  0  0  0  0  0  0  0
   24.3992  -21.3586  -15.3893 C   0  0  0  0  0  0  0  0  0  0  0  0
   24.6674  -20.7110  -14.3444 O   0  0  0  0  0  0  0  0  0  0  0  0
   23.0365  -21.5344  -15.7252 N   0  0  0  0  0  0  0  0  0  0  0  0
   21.9547  -20.9042  -14.9966 C   0  0  1  0  0  0  0  0  0  0  0  0
   21.4602  -19.7550  -15.8372 C   0  0  0  0  0  0  0  0  0  0  0  0
   22.3449  -18.6039  -15.9027 C   0  0  0  0  0  0  0  0  0  0  0  0
   23.1162  -18.2213  -16.9662 C   0  0  0  0  0  0  0  0  0  0  0  0
   23.7764  -17.1110  -16.6165 N   0  0  0  0  0  0  0  0  0  0  0  0
   23.4282  -16.8039  -15.3644 C   0  0  0  0  0  0  0  0  0  0  0  0
   22.5566  -17.7112  -14.9272 N   0  0  0  0  0  0  0  0  0  0  0  0
   20.9565  -21.8962  -14.6260 C   0  0  0  0  0  0  0  0  0  0  0  0
   20.4885  -22.6586  -15.5268 O   0  0  0  0  0  0  0  0  0  0  0  0
   18.8850  -25.4324   -7.0728 N   0  0  0  0  0  0  0  0  0  0  0  0
   17.8171  -24.5392   -7.3515 C   0  0  0  0  0  0  0  0  0  0  0  0
   16.9797  -24.2255   -6.4352 N   0  0  0  0  0  0  0  0  0  0  0  0
   17.6327  -23.9624   -8.6405 N   0  0  0  0  0  0  0  0  0  0  0  0
   18.3008  -24.5685   -9.7744 C   0  0  0  0  0  0  0  0  0  0  0  0
   17.9523  -23.8580  -11.0600 C   0  0  0  0  0  0  0  0  0  0  0  0
   18.9815  -22.8740  -11.5073 C   0  0  0  0  0  0  0  0  0  0  0  0
   19.4685  -23.0751  -12.9272 C   0  0  2  0  0  0  0  0  0  0  0  0
   20.4428  -22.1018  -13.3219 N   0  0  0  0  0  0  0  0  0  0  0  0
   18.2605  -23.0469  -13.7895 C   0  0  0  0  0  0  0  0  0  0  0  0
   17.8684  -24.1216  -14.2930 O   0  0  0  0  0  0  0  0  0  0  0  0
   17.5599  -21.8862  -14.0536 O   0  0  0  0  0  0  0  0  0  0  0  0
  2  3  1  0
  2  1  1  1
  4  2  1  0
  5  4  2  0
  6  4  1  0
  7  6  1  0
  7  8  1  6
  8  9  1  0
  9 13  1  0
 10  9  2  0
 10 11  1  0
 11 12  1  0
 13 12  2  0
 14  7  1  0
 14 15  2  0
 16 17  1  0
 17 18  2  0
 19 17  1  0
 19 20  1  0
 20 21  1  0
 22 21  1  0
 23 22  1  1
 23 24  1  0
 24 14  1  0
 25 27  1  0
 25 23  1  0
 26 25  2  0
M  END
$$$$
