AHR.pdb
     RDKit          3D

 27 27  0  0  1  0  0  0  0  0999 V2000
   13.8479  -12.4594  -16.4296 C   0  0  0  0  0  0  0  0  0  0  0  0
   15.1476  -13.0529  -16.9298 C   0  0  2  0  0  0  0  0  0  0  0  0
   15.1292  -14.5005  -16.8778 N   0  0  0  0  0  0  0  0  0  0  0  0
   16.3031  -12.5682  -16.1453 C   0  0  0  0  0  0  0  0  0  0  0  0
   16.4132  -12.7505  -14.9052 O   0  0  0  0  0  0  0  0  0  0  0  0
   17.3398  -11.8662  -16.8037 N   0  0  0  0  0  0  0  0  0  0  0  0
   18.4798  -11.3044  -16.1087 C   0  0  1  0  0  0  0  0  0  0  0  0
   19.6752  -11.4595  -17.0137 C   0  0  0  0  0  0  0  0  0  0  0  0
   20.2215  -12.8033  -17.1008 C   0  0  0  0  0  0  0  0  0  0  0  0
   19.7760  -13.9148  -16.4386 C   0  0  0  0  0  0  0  0  0  0  0  0
   20.5494  -14.9456  -16.7995 N   0  0  0  0  0  0  0  0  0  0  0  0
   21.4580  -14.4927  -17.6669 C   0  0  0  0  0  0  0  0  0  0  0  0
   21.2609  -13.1886  -17.8524 N   0  0  0  0  0  0  0  0  0  0  0  0
   18.1826   -9.9472  -15.6755 C   0  0  0  0  0  0  0  0  0  0  0  0
   17.5248   -9.1880  -16.4518 O   0  0  0  0  0  0  0  0  0  0  0  0
   15.1188   -6.3453   -8.2723 N   0  0  0  0  0  0  0  0  0  0  0  0
   15.1302   -5.3254   -9.2599 C   0  0  0  0  0  0  0  0  0  0  0  0
   14.4543   -4.2514   -9.0891 N   0  0  0  0  0  0  0  0  0  0  0  0
   15.8806   -5.4491  -10.4640 N   0  0  0  0  0  0  0  0  0  0  0  0
   16.4788   -6.7302  -10.7808 C   0  0  0  0  0  0  0  0  0  0  0  0
   17.0809   -6.7268  -12.1651 C   0  0  0  0  0  0  0  0  0  0  0  0
   17.5788   -8.0605  -12.6132 C   0  0  0  0  0  0  0  0  0  0  0  0
   18.2532   -8.0568  -13.9693 C   0  0  2  0  0  0  0  0  0  0  0  0
   18.5639   -9.3748  -14.4371 N   0  0  0  0  0  0  0  0  0  0  0  0
   19.4623   -7.2070  -13.8305 C   0  0  0  0  0  0  0  0  0  0  0  0
   20.5750   -7.7708  -13.7514 O   0  0  0  0  0  0  0  0  0  0  0  0
   19.4032   -5.8278  -13.7860 O   0  0  0  0  0  0  0  0  0  0  0  0
  2  3  1  0
  2  1  1  1
  4  2  1  0
  5  4  2  0
  6  4  1  0
  7  6  1  0
  7  8  1  6
  8  9  1  0
  9 13  1  0
 10  9  2  0
 10 11  1  0
 11 12  1  0
 13 12  2  0
 14  7  1  0
 14 15  2  0
 16 17  1  0
 17 18  2  0
 19 17  1  0
 19 20  1  0
 20 21  1  0
 22 21  1  0
 23 22  1  1
 23 24  1  0
 24 14  1  0
 25 27  1  0
 25 23  1  0
 26 25  2  0
M  END
$$$$
