AHR.pdb
     RDKit          3D

 27 27  0  0  1  0  0  0  0  0999 V2000
   24.5930  -19.9133  -20.9906 C   0  0  0  0  0  0  0  0  0  0  0  0
   25.9889  -19.7147  -20.4397 C   0  0  2  0  0  0  0  0  0  0  0  0
   26.3263  -20.7276  -19.4605 N   0  0  0  0  0  0  0  0  0  0  0  0
   26.1411  -18.3845  -19.8129 C   0  0  0  0  0  0  0  0  0  0  0  0
   25.7673  -18.1351  -18.6376 O   0  0  0  0  0  0  0  0  0  0  0  0
   26.7314  -17.3345  -20.5544 N   0  0  0  0  0  0  0  0  0  0  0  0
   26.8976  -15.9936  -20.0320 C   0  0  1  0  0  0  0  0  0  0  0  0
   28.3587  -15.6443  -20.1556 C   0  0  0  0  0  0  0  0  0  0  0  0
   29.2348  -16.2719  -19.1807 C   0  0  0  0  0  0  0  0  0  0  0  0
   28.8588  -17.0557  -18.1241 C   0  0  0  0  0  0  0  0  0  0  0  0
   29.9679  -17.4342  -17.4779 N   0  0  0  0  0  0  0  0  0  0  0  0
   31.0147  -16.9012  -18.1132 C   0  0  0  0  0  0  0  0  0  0  0  0
   30.5714  -16.1930  -19.1505 N   0  0  0  0  0  0  0  0  0  0  0  0
   25.9691  -15.0834  -20.6856 C   0  0  0  0  0  0  0  0  0  0  0  0
   25.8253  -15.1568  -21.9447 O   0  0  0  0  0  0  0  0  0  0  0  0
   19.3258   -9.6590  -17.8462 N   0  0  0  0  0  0  0  0  0  0  0  0
   19.3578   -9.5568  -19.2619 C   0  0  0  0  0  0  0  0  0  0  0  0
   18.5112   -8.8188  -19.8770 N   0  0  0  0  0  0  0  0  0  0  0  0
   20.3161  -10.2584  -20.0478 N   0  0  0  0  0  0  0  0  0  0  0  0
   21.2437  -11.1489  -19.3799 C   0  0  0  0  0  0  0  0  0  0  0  0
   22.2843  -11.6758  -20.3383 C   0  0  0  0  0  0  0  0  0  0  0  0
   23.3087  -12.5530  -19.6990 C   0  0  0  0  0  0  0  0  0  0  0  0
   24.3207  -13.1412  -20.6599 C   0  0  2  0  0  0  0  0  0  0  0  0
   25.1864  -14.0973  -20.0362 N   0  0  0  0  0  0  0  0  0  0  0  0
   25.0670  -11.9930  -21.2329 C   0  0  0  0  0  0  0  0  0  0  0  0
   26.0940  -11.6000  -20.6389 O   0  0  0  0  0  0  0  0  0  0  0  0
   24.6712  -11.3486  -22.3887 O   0  0  0  0  0  0  0  0  0  0  0  0
  2  3  1  0
  2  1  1  1
  4  2  1  0
  5  4  2  0
  6  4  1  0
  7  6  1  0
  7  8  1  6
  8  9  1  0
  9 13  1  0
 10  9  2  0
 10 11  1  0
 11 12  1  0
 13 12  2  0
 14  7  1  0
 14 15  2  0
 16 17  1  0
 17 18  2  0
 19 17  1  0
 19 20  1  0
 20 21  1  0
 22 21  1  0
 23 22  1  1
 23 24  1  0
 24 14  1  0
 25 27  1  0
 25 23  1  0
 26 25  2  0
M  END
$$$$
