RGC.pdb
     RDKit          3D

 22 21  0  0  1  0  0  0  0  0999 V2000
    8.3824  -13.0602   17.5160 N   0  0  0  0  0  0  0  0  0  0  0  0
    8.1217  -13.2786   18.8979 C   0  0  0  0  0  0  0  0  0  0  0  0
    8.7952  -12.6966   19.8097 N   0  0  0  0  0  0  0  0  0  0  0  0
    7.0653  -14.1809   19.2181 N   0  0  0  0  0  0  0  0  0  0  0  0
    6.6982  -14.4638   20.5677 C   0  0  0  0  0  0  0  0  0  0  0  0
    7.8043  -15.3457   21.1788 C   0  0  0  0  0  0  0  0  0  0  0  0
    7.2269  -16.7250   21.3164 C   0  0  0  0  0  0  0  0  0  0  0  0
    6.7720  -17.0009   22.7107 C   0  0  2  0  0  0  0  0  0  0  0  0
    6.4677  -15.7092   23.3349 N   0  0  0  0  0  0  0  0  0  0  0  0
    7.7241  -17.7652   23.5395 C   0  0  0  0  0  0  0  0  0  0  0  0
    7.8357  -18.9980   23.3655 O   0  0  0  0  0  0  0  0  0  0  0  0
    8.7577  -12.8554   20.8202 N   0  0  0  0  0  0  0  0  0  0  0  0
    8.5230  -17.1153   24.5394 C   0  0  0  0  0  0  0  0  0  0  0  0
    9.7119  -17.7399   25.0804 C   0  0  0  0  0  0  0  0  0  0  0  0
   10.3438  -16.8161   26.0573 O   0  0  0  0  0  0  0  0  0  0  0  0
   11.5880  -16.9273   26.3373 N   0  0  0  0  0  0  0  0  0  0  0  0
    9.6359  -15.7906   26.7185 C   0  0  1  0  0  0  0  0  0  0  0  0
   10.2409  -14.9081   27.6715 C   0  0  0  0  0  0  0  0  0  0  0  0
    9.4633  -13.6218   27.8515 S   0  0  0  0  0  0  0  0  0  0  0  0
    8.8057  -13.1732   26.2226 C   0  0  0  0  0  0  0  0  0  0  0  0
   10.4164  -15.5060   28.9974 O   0  0  0  0  0  0  0  0  0  0  0  0
    9.9497  -16.6462   29.2404 O   0  0  0  0  0  0  0  0  0  0  0  0
  1  2  1  0
  2  3  2  0
  4  5  1  0
  4  2  1  0
  6  7  1  0
  6  5  1  0
  7  8  1  0
  8 10  1  0
  8  9  1  1
 10 12  1  0
 11 10  2  0
 12 13  1  0
 13 14  1  0
 14 15  2  0
 14 16  1  0
 16 17  1  0
 17 20  1  0
 17 18  1  1
 18 19  1  0
 20 21  2  0
 20 22  1  0
M  END
$$$$
