RGC.pdb
     RDKit          3D

 22 21  0  0  1  0  0  0  0  0999 V2000
    8.3380  -14.6455   16.1911 N   0  0  0  0  0  0  0  0  0  0  0  0
    7.6390  -13.6909   16.9818 C   0  0  0  0  0  0  0  0  0  0  0  0
    7.0096  -12.7146   16.4577 N   0  0  0  0  0  0  0  0  0  0  0  0
    7.6722  -13.8784   18.3947 N   0  0  0  0  0  0  0  0  0  0  0  0
    8.2356  -15.0478   18.9874 C   0  0  0  0  0  0  0  0  0  0  0  0
    7.2085  -15.6046   19.9924 C   0  0  0  0  0  0  0  0  0  0  0  0
    7.7831  -16.8838   20.5293 C   0  0  0  0  0  0  0  0  0  0  0  0
    8.8087  -16.6333   21.5840 C   0  0  2  0  0  0  0  0  0  0  0  0
    9.9706  -17.4719   21.2718 N   0  0  0  0  0  0  0  0  0  0  0  0
    8.3544  -16.8719   22.9674 C   0  0  0  0  0  0  0  0  0  0  0  0
    8.8786  -17.7897   23.6349 O   0  0  0  0  0  0  0  0  0  0  0  0
    6.4843  -11.9753   16.9321 N   0  0  0  0  0  0  0  0  0  0  0  0
    7.3226  -16.0670   23.5573 C   0  0  0  0  0  0  0  0  0  0  0  0
    6.9177  -16.2480   24.9355 C   0  0  0  0  0  0  0  0  0  0  0  0
    7.8439  -15.4916   25.8169 O   0  0  0  0  0  0  0  0  0  0  0  0
    7.8161  -14.2118   25.8336 N   0  0  0  0  0  0  0  0  0  0  0  0
    8.7840  -16.1149   26.6641 C   0  0  1  0  0  0  0  0  0  0  0  0
    9.7389  -15.3873   27.4463 C   0  0  0  0  0  0  0  0  0  0  0  0
    9.0868  -14.4823   28.4698 S   0  0  0  0  0  0  0  0  0  0  0  0
   10.4204  -13.5603   29.2811 C   0  0  0  0  0  0  0  0  0  0  0  0
   10.6903  -16.2441   28.1584 O   0  0  0  0  0  0  0  0  0  0  0  0
   11.8611  -15.8433   28.3713 O   0  0  0  0  0  0  0  0  0  0  0  0
  1  2  1  0
  2  3  2  0
  4  5  1  0
  4  2  1  0
  6  7  1  0
  6  5  1  0
  7  8  1  0
  8 10  1  0
  8  9  1  6
 10 12  1  0
 11 10  2  0
 12 13  1  0
 13 14  1  0
 14 15  2  0
 14 16  1  0
 16 17  1  0
 17 20  1  0
 17 18  1  6
 18 19  1  0
 20 21  2  0
 20 22  1  0
M  END
$$$$
