RGC.pdb
     RDKit          3D

 22 21  0  0  1  0  0  0  0  0999 V2000
    9.3672  -13.7578   13.3419 N   0  0  0  0  0  0  0  0  0  0  0  0
    7.9576  -13.5627   13.3494 C   0  0  0  0  0  0  0  0  0  0  0  0
    7.4343  -12.4268   13.1050 N   0  0  0  0  0  0  0  0  0  0  0  0
    7.1523  -14.7024   13.6415 N   0  0  0  0  0  0  0  0  0  0  0  0
    7.1196  -15.2896   14.9417 C   0  0  0  0  0  0  0  0  0  0  0  0
    8.3888  -14.8393   15.6908 C   0  0  0  0  0  0  0  0  0  0  0  0
    8.2443  -15.3180   17.1067 C   0  0  0  0  0  0  0  0  0  0  0  0
    8.9571  -16.6095   17.3326 C   0  0  2  0  0  0  0  0  0  0  0  0
    7.9510  -17.6760   17.2977 N   0  0  0  0  0  0  0  0  0  0  0  0
    9.7435  -16.6800   18.5792 C   0  0  0  0  0  0  0  0  0  0  0  0
    9.1962  -17.0867   19.6269 O   0  0  0  0  0  0  0  0  0  0  0  0
    6.4416  -12.1774   13.1012 N   0  0  0  0  0  0  0  0  0  0  0  0
   11.1248  -16.2905   18.6064 C   0  0  0  0  0  0  0  0  0  0  0  0
   11.8971  -16.3290   19.8305 C   0  0  0  0  0  0  0  0  0  0  0  0
   11.1382  -15.6388   20.9051 O   0  0  0  0  0  0  0  0  0  0  0  0
   11.0557  -14.3614   20.9169 N   0  0  0  0  0  0  0  0  0  0  0  0
   10.4818  -16.3248   21.9483 C   0  0  1  0  0  0  0  0  0  0  0  0
    9.7948  -15.6587   23.0149 C   0  0  0  0  0  0  0  0  0  0  0  0
    8.5970  -14.8680   22.5338 S   0  0  0  0  0  0  0  0  0  0  0  0
    7.9258  -14.0006   23.9774 C   0  0  0  0  0  0  0  0  0  0  0  0
    9.3308  -16.5629   24.0703 O   0  0  0  0  0  0  0  0  0  0  0  0
    9.3009  -17.8020   23.8692 O   0  0  0  0  0  0  0  0  0  0  0  0
  1  2  1  0
  2  3  2  0
  4  5  1  0
  4  2  1  0
  6  7  1  0
  6  5  1  0
  7  8  1  0
  8 10  1  0
  8  9  1  1
 10 12  1  0
 11 10  2  0
 12 13  1  0
 13 14  1  0
 14 15  2  0
 14 16  1  0
 16 17  1  0
 17 20  1  0
 17 18  1  1
 18 19  1  0
 20 21  2  0
 20 22  1  0
M  END
$$$$
