RGC.pdb
     RDKit          3D

 22 21  0  0  1  0  0  0  0  0999 V2000
    8.3543  -12.1131   17.6614 N   0  0  0  0  0  0  0  0  0  0  0  0
    7.8826  -13.4453   17.4939 C   0  0  0  0  0  0  0  0  0  0  0  0
    8.1081  -14.1101   16.4304 N   0  0  0  0  0  0  0  0  0  0  0  0
    7.1446  -14.0070   18.5767 N   0  0  0  0  0  0  0  0  0  0  0  0
    7.7336  -14.2256   19.8579 C   0  0  0  0  0  0  0  0  0  0  0  0
    8.4805  -15.5725   19.8062 C   0  0  0  0  0  0  0  0  0  0  0  0
    8.1359  -16.3036   21.0717 C   0  0  0  0  0  0  0  0  0  0  0  0
    9.3421  -16.5592   21.9124 C   0  0  2  0  0  0  0  0  0  0  0  0
    9.9025  -17.8477   21.4924 N   0  0  0  0  0  0  0  0  0  0  0  0
    9.1033  -16.5481   23.3685 C   0  0  0  0  0  0  0  0  0  0  0  0
    8.6516  -15.5147   23.9075 O   0  0  0  0  0  0  0  0  0  0  0  0
    7.7948  -15.0569   16.2002 N   0  0  0  0  0  0  0  0  0  0  0  0
    9.3803  -17.7040   24.1732 C   0  0  0  0  0  0  0  0  0  0  0  0
    9.0790  -17.7292   25.5891 C   0  0  0  0  0  0  0  0  0  0  0  0
   10.1388  -16.9918   26.3241 O   0  0  0  0  0  0  0  0  0  0  0  0
   11.3015  -16.8501   25.8074 N   0  0  0  0  0  0  0  0  0  0  0  0
    9.9386  -16.4197   27.5978 C   0  0  1  0  0  0  0  0  0  0  0  0
   10.9751  -15.7558   28.3314 C   0  0  0  0  0  0  0  0  0  0  0  0
   10.7266  -14.2696   28.4775 S   0  0  0  0  0  0  0  0  0  0  0  0
    8.9308  -14.0456   28.5866 C   0  0  0  0  0  0  0  0  0  0  0  0
   11.1863  -16.3013   29.6746 O   0  0  0  0  0  0  0  0  0  0  0  0
   10.4405  -17.2140   30.1077 O   0  0  0  0  0  0  0  0  0  0  0  0
  1  2  1  0
  2  3  2  0
  4  5  1  0
  4  2  1  0
  6  7  1  0
  6  5  1  0
  7  8  1  0
  8 10  1  0
  8  9  1  6
 10 12  1  0
 11 10  2  0
 12 13  1  0
 13 14  1  0
 14 15  2  0
 14 16  1  0
 16 17  1  0
 17 20  1  0
 17 18  1  1
 18 19  1  0
 20 21  2  0
 20 22  1  0
M  END
$$$$
