RGC.pdb
     RDKit          3D

 22 21  0  0  1  0  0  0  0  0999 V2000
    7.8155  -13.0940   15.7734 N   0  0  0  0  0  0  0  0  0  0  0  0
    8.8360  -13.8940   16.3597 C   0  0  0  0  0  0  0  0  0  0  0  0
    9.1993  -15.0028   15.8474 N   0  0  0  0  0  0  0  0  0  0  0  0
    9.4391  -13.3951   17.5513 N   0  0  0  0  0  0  0  0  0  0  0  0
    8.7424  -13.3711   18.7964 C   0  0  0  0  0  0  0  0  0  0  0  0
    7.5853  -14.3847   18.7050 C   0  0  0  0  0  0  0  0  0  0  0  0
    7.1390  -14.6551   20.1131 C   0  0  0  0  0  0  0  0  0  0  0  0
    7.8490  -15.8260   20.7063 C   0  0  2  0  0  0  0  0  0  0  0  0
    7.6434  -16.9645   19.8050 N   0  0  0  0  0  0  0  0  0  0  0  0
    7.4413  -16.1737   22.0812 C   0  0  0  0  0  0  0  0  0  0  0  0
    6.4789  -16.9518   22.2568 O   0  0  0  0  0  0  0  0  0  0  0  0
    9.9320  -15.6385   16.1740 N   0  0  0  0  0  0  0  0  0  0  0  0
    8.1326  -15.6338   23.2175 C   0  0  0  0  0  0  0  0  0  0  0  0
    7.7390  -15.9673   24.5703 C   0  0  0  0  0  0  0  0  0  0  0  0
    8.8384  -15.6011   25.5000 O   0  0  0  0  0  0  0  0  0  0  0  0
   10.0439  -15.5292   25.0753 N   0  0  0  0  0  0  0  0  0  0  0  0
    8.6312  -15.3191   26.8665 C   0  0  1  0  0  0  0  0  0  0  0  0
    9.6154  -14.6891   27.6957 C   0  0  0  0  0  0  0  0  0  0  0  0
    9.0848  -13.4577   28.3984 S   0  0  0  0  0  0  0  0  0  0  0  0
    8.0227  -12.5922   27.2112 C   0  0  0  0  0  0  0  0  0  0  0  0
   10.1746  -15.5746   28.7202 O   0  0  0  0  0  0  0  0  0  0  0  0
    9.6520  -16.6956   28.9366 O   0  0  0  0  0  0  0  0  0  0  0  0
  1  2  1  0
  2  3  2  0
  4  5  1  0
  4  2  1  0
  6  7  1  0
  6  5  1  0
  7  8  1  0
  8 10  1  0
  8  9  1  6
 10 12  1  0
 11 10  2  0
 12 13  1  0
 13 14  1  0
 14 15  2  0
 14 16  1  0
 16 17  1  0
 17 20  1  0
 17 18  1  1
 18 19  1  0
 20 21  2  0
 20 22  1  0
M  END
$$$$
