RGC.pdb
     RDKit          3D

 22 21  0  0  1  0  0  0  0  0999 V2000
    7.8238  -13.2932   16.8259 N   0  0  0  0  0  0  0  0  0  0  0  0
    8.3998  -13.4455   18.1182 C   0  0  0  0  0  0  0  0  0  0  0  0
    8.8488  -12.4509   18.7762 N   0  0  0  0  0  0  0  0  0  0  0  0
    8.4497  -14.7682   18.6481 N   0  0  0  0  0  0  0  0  0  0  0  0
    8.4932  -15.9178   17.8038 C   0  0  0  0  0  0  0  0  0  0  0  0
    8.5272  -17.1635   18.7104 C   0  0  0  0  0  0  0  0  0  0  0  0
    7.8462  -16.7800   19.9926 C   0  0  0  0  0  0  0  0  0  0  0  0
    8.7448  -16.9498   21.1719 C   0  0  2  0  0  0  0  0  0  0  0  0
    9.0021  -18.3858   21.3223 N   0  0  0  0  0  0  0  0  0  0  0  0
    8.2348  -16.3800   22.4340 C   0  0  0  0  0  0  0  0  0  0  0  0
    8.0282  -15.1497   22.5115 O   0  0  0  0  0  0  0  0  0  0  0  0
    9.3752  -12.4612   19.6539 N   0  0  0  0  0  0  0  0  0  0  0  0
    7.9718  -17.2159   23.5709 C   0  0  0  0  0  0  0  0  0  0  0  0
    7.4093  -16.6770   24.7913 C   0  0  0  0  0  0  0  0  0  0  0  0
    8.4664  -15.9369   25.5275 O   0  0  0  0  0  0  0  0  0  0  0  0
    9.7002  -16.1190   25.2390 N   0  0  0  0  0  0  0  0  0  0  0  0
    8.1873  -15.0162   26.5592 C   0  0  1  0  0  0  0  0  0  0  0  0
    9.2018  -14.2606   27.2322 C   0  0  0  0  0  0  0  0  0  0  0  0
    8.6369  -13.1006   28.0240 S   0  0  0  0  0  0  0  0  0  0  0  0
    7.5435  -12.1841   26.9054 C   0  0  0  0  0  0  0  0  0  0  0  0
   10.0212  -15.0604   28.1462 O   0  0  0  0  0  0  0  0  0  0  0  0
    9.7092  -16.2515   28.3924 O   0  0  0  0  0  0  0  0  0  0  0  0
  1  2  1  0
  2  3  2  0
  4  5  1  0
  4  2  1  0
  6  7  1  0
  6  5  1  0
  7  8  1  0
  8 10  1  0
  8  9  1  1
 10 12  1  0
 11 10  2  0
 12 13  1  0
 13 14  1  0
 14 15  2  0
 14 16  1  0
 16 17  1  0
 17 20  1  0
 17 18  1  1
 18 19  1  0
 20 21  2  0
 20 22  1  0
M  END
$$$$
