RGC.pdb
     RDKit          3D

 22 21  0  0  1  0  0  0  0  0999 V2000
    5.6704  -21.7353   17.6116 N   0  0  0  0  0  0  0  0  0  0  0  0
    4.7386  -22.4314   18.4315 C   0  0  0  0  0  0  0  0  0  0  0  0
    3.7661  -23.0889   17.9358 N   0  0  0  0  0  0  0  0  0  0  0  0
    4.9448  -22.3621   19.8406 N   0  0  0  0  0  0  0  0  0  0  0  0
    4.9694  -21.1180   20.5390 C   0  0  0  0  0  0  0  0  0  0  0  0
    6.4375  -20.6571   20.6226 C   0  0  0  0  0  0  0  0  0  0  0  0
    6.4181  -19.2591   21.1703 C   0  0  0  0  0  0  0  0  0  0  0  0
    7.2234  -19.1407   22.4212 C   0  0  2  0  0  0  0  0  0  0  0  0
    7.4624  -20.4998   22.9175 N   0  0  0  0  0  0  0  0  0  0  0  0
    6.6208  -18.3027   23.4758 C   0  0  0  0  0  0  0  0  0  0  0  0
    5.5359  -18.6506   23.9899 O   0  0  0  0  0  0  0  0  0  0  0  0
    3.0727  -23.6576   18.4291 N   0  0  0  0  0  0  0  0  0  0  0  0
    7.2612  -17.0972   23.9199 C   0  0  0  0  0  0  0  0  0  0  0  0
    6.6370  -16.2233   24.8910 C   0  0  0  0  0  0  0  0  0  0  0  0
    7.4981  -15.0299   25.0942 O   0  0  0  0  0  0  0  0  0  0  0  0
    8.6787  -14.9958   24.6004 N   0  0  0  0  0  0  0  0  0  0  0  0
    7.0837  -13.8947   25.8218 C   0  0  1  0  0  0  0  0  0  0  0  0
    7.9967  -13.0110   26.4842 C   0  0  0  0  0  0  0  0  0  0  0  0
    7.2927  -11.9088   27.2466 S   0  0  0  0  0  0  0  0  0  0  0  0
    5.9321  -11.3305   26.1972 C   0  0  0  0  0  0  0  0  0  0  0  0
    8.8962  -13.6894   27.4207 O   0  0  0  0  0  0  0  0  0  0  0  0
    8.6913  -14.8880   27.7338 O   0  0  0  0  0  0  0  0  0  0  0  0
  1  2  1  0
  2  3  2  0
  4  5  1  0
  4  2  1  0
  6  7  1  0
  6  5  1  0
  7  8  1  0
  8 10  1  0
  8  9  1  1
 10 12  1  0
 11 10  2  0
 12 13  1  0
 13 14  1  0
 14 15  2  0
 14 16  1  0
 16 17  1  0
 17 20  1  0
 17 18  1  1
 18 19  1  0
 20 21  2  0
 20 22  1  0
M  END
$$$$
