RGC.pdb
     RDKit          3D

 22 21  0  0  1  0  0  0  0  0999 V2000
    7.2655  -16.7398   14.5119 N   0  0  0  0  0  0  0  0  0  0  0  0
    8.6725  -16.8854   14.6674 C   0  0  0  0  0  0  0  0  0  0  0  0
    9.3974  -17.4195   13.7657 N   0  0  0  0  0  0  0  0  0  0  0  0
    9.2385  -16.4015   15.8832 N   0  0  0  0  0  0  0  0  0  0  0  0
    8.4324  -15.8493   16.9232 C   0  0  0  0  0  0  0  0  0  0  0  0
    8.9817  -14.4462   17.2463 C   0  0  0  0  0  0  0  0  0  0  0  0
    9.3441  -14.4520   18.7035 C   0  0  0  0  0  0  0  0  0  0  0  0
    8.1609  -14.1821   19.5719 C   0  0  2  0  0  0  0  0  0  0  0  0
    7.7320  -12.8042   19.3104 N   0  0  0  0  0  0  0  0  0  0  0  0
    8.3844  -14.3898   21.0156 C   0  0  0  0  0  0  0  0  0  0  0  0
    9.3628  -13.8432   21.5692 O   0  0  0  0  0  0  0  0  0  0  0  0
   10.4095  -17.5715   13.7780 N   0  0  0  0  0  0  0  0  0  0  0  0
    7.4963  -15.2075   21.7923 C   0  0  0  0  0  0  0  0  0  0  0  0
    7.8728  -15.7009   23.1004 C   0  0  0  0  0  0  0  0  0  0  0  0
    8.1388  -14.5463   23.9966 O   0  0  0  0  0  0  0  0  0  0  0  0
    9.0595  -13.7051   23.7074 N   0  0  0  0  0  0  0  0  0  0  0  0
    7.4178  -14.3109   25.1859 C   0  0  1  0  0  0  0  0  0  0  0  0
    7.8326  -13.3673   26.1813 C   0  0  0  0  0  0  0  0  0  0  0  0
    6.7889  -12.3038   26.4482 S   0  0  0  0  0  0  0  0  0  0  0  0
    5.2346  -13.1692   26.7977 C   0  0  0  0  0  0  0  0  0  0  0  0
    8.1749  -13.9812   27.4667 O   0  0  0  0  0  0  0  0  0  0  0  0
    7.9388  -15.1984   27.6656 O   0  0  0  0  0  0  0  0  0  0  0  0
  1  2  1  0
  2  3  2  0
  4  5  1  0
  4  2  1  0
  6  7  1  0
  6  5  1  0
  7  8  1  0
  8 10  1  0
  8  9  1  1
 10 12  1  0
 11 10  2  0
 12 13  1  0
 13 14  1  0
 14 15  2  0
 14 16  1  0
 16 17  1  0
 17 20  1  0
 17 18  1  1
 18 19  1  0
 20 21  2  0
 20 22  1  0
M  END
$$$$
