RGC.pdb
     RDKit          3D

 22 21  0  0  1  0  0  0  0  0999 V2000
    8.8509  -13.1189   17.6629 N   0  0  0  0  0  0  0  0  0  0  0  0
    9.2875  -13.2599   19.0099 C   0  0  0  0  0  0  0  0  0  0  0  0
   10.4968  -13.0473   19.3509 N   0  0  0  0  0  0  0  0  0  0  0  0
    8.3050  -13.6492   19.9669 N   0  0  0  0  0  0  0  0  0  0  0  0
    7.5612  -14.8597   19.8345 C   0  0  0  0  0  0  0  0  0  0  0  0
    6.6454  -14.9837   21.0676 C   0  0  0  0  0  0  0  0  0  0  0  0
    5.8556  -16.2485   20.8906 C   0  0  0  0  0  0  0  0  0  0  0  0
    6.5933  -17.4409   21.4015 C   0  0  2  0  0  0  0  0  0  0  0  0
    5.7745  -18.6212   21.1060 N   0  0  0  0  0  0  0  0  0  0  0  0
    6.9384  -17.3957   22.8355 C   0  0  0  0  0  0  0  0  0  0  0  0
    6.0317  -17.2251   23.6788 O   0  0  0  0  0  0  0  0  0  0  0  0
   10.9048  -13.0917   20.2886 N   0  0  0  0  0  0  0  0  0  0  0  0
    8.2965  -17.5456   23.2754 C   0  0  0  0  0  0  0  0  0  0  0  0
    8.6516  -17.4557   24.6761 C   0  0  0  0  0  0  0  0  0  0  0  0
    8.6519  -16.0278   25.0861 O   0  0  0  0  0  0  0  0  0  0  0  0
    9.5994  -15.2512   24.7149 N   0  0  0  0  0  0  0  0  0  0  0  0
    7.6411  -15.4548   25.8860 C   0  0  1  0  0  0  0  0  0  0  0  0
    7.6935  -14.1074   26.3708 C   0  0  0  0  0  0  0  0  0  0  0  0
    6.3324  -13.5763   26.7670 S   0  0  0  0  0  0  0  0  0  0  0  0
    6.5775  -11.8700   27.3286 C   0  0  0  0  0  0  0  0  0  0  0  0
    8.5868  -13.9302   27.5185 O   0  0  0  0  0  0  0  0  0  0  0  0
    8.9828  -14.9292   28.1680 O   0  0  0  0  0  0  0  0  0  0  0  0
  1  2  1  0
  2  3  2  0
  4  5  1  0
  4  2  1  0
  6  7  1  0
  6  5  1  0
  7  8  1  0
  8 10  1  0
  8  9  1  1
 10 12  1  0
 11 10  2  0
 12 13  1  0
 13 14  1  0
 14 15  2  0
 14 16  1  0
 16 17  1  0
 17 20  1  0
 17 18  1  1
 18 19  1  0
 20 21  2  0
 20 22  1  0
M  END
$$$$
