RGC.pdb
     RDKit          3D

 22 21  0  0  1  0  0  0  0  0999 V2000
    8.0144  -16.3297   14.6549 N   0  0  0  0  0  0  0  0  0  0  0  0
    9.0631  -16.9066   15.4246 C   0  0  0  0  0  0  0  0  0  0  0  0
    9.3216  -18.1537   15.3817 N   0  0  0  0  0  0  0  0  0  0  0  0
    9.8180  -16.0211   16.2485 N   0  0  0  0  0  0  0  0  0  0  0  0
    9.4439  -15.7425   17.5971 C   0  0  0  0  0  0  0  0  0  0  0  0
    8.5972  -14.4549   17.5916 C   0  0  0  0  0  0  0  0  0  0  0  0
    7.4444  -14.6951   18.5233 C   0  0  0  0  0  0  0  0  0  0  0  0
    7.4595  -13.7535   19.6810 C   0  0  2  0  0  0  0  0  0  0  0  0
    7.4020  -12.3924   19.1382 N   0  0  0  0  0  0  0  0  0  0  0  0
    8.6116  -13.9000   20.5912 C   0  0  0  0  0  0  0  0  0  0  0  0
    9.4514  -12.9775   20.6701 O   0  0  0  0  0  0  0  0  0  0  0  0
   10.0899  -18.6545   15.8360 N   0  0  0  0  0  0  0  0  0  0  0  0
    8.7814  -15.0828   21.3866 C   0  0  0  0  0  0  0  0  0  0  0  0
    9.9423  -15.2648   22.2323 C   0  0  0  0  0  0  0  0  0  0  0  0
    9.5294  -15.1497   23.6548 O   0  0  0  0  0  0  0  0  0  0  0  0
   10.3622  -15.4133   24.5906 N   0  0  0  0  0  0  0  0  0  0  0  0
    8.2346  -14.7563   24.0526 C   0  0  1  0  0  0  0  0  0  0  0  0
    7.7816  -14.8076   25.4111 C   0  0  0  0  0  0  0  0  0  0  0  0
    6.5206  -14.0009   25.6367 S   0  0  0  0  0  0  0  0  0  0  0  0
    6.8586  -12.3211   25.0445 C   0  0  0  0  0  0  0  0  0  0  0  0
    7.5276  -16.1669   25.8949 O   0  0  0  0  0  0  0  0  0  0  0  0
    7.5486  -17.1341   25.0944 O   0  0  0  0  0  0  0  0  0  0  0  0
  1  2  1  0
  2  3  2  0
  4  5  1  0
  4  2  1  0
  6  7  1  0
  6  5  1  0
  7  8  1  0
  8 10  1  0
  8  9  1  6
 10 12  1  0
 11 10  2  0
 12 13  1  0
 13 14  1  0
 14 15  2  0
 14 16  1  0
 16 17  1  0
 17 20  1  0
 17 18  1  1
 18 19  1  0
 20 21  2  0
 20 22  1  0
M  END
$$$$
