PHR.pdb
     RDKit          3D

 29 30  0  0  1  0  0  0  0  0999 V2000
   11.1629  -18.9204   18.0408 N   0  0  0  0  0  0  0  0  0  0  0  0
   11.0051  -19.5691   16.7749 C   0  0  0  0  0  0  0  0  0  0  0  0
   11.6202  -18.6490   15.7238 C   0  0  0  0  0  0  0  0  0  0  0  0
   11.6079  -17.3045   16.4415 C   0  0  0  0  0  0  0  0  0  0  0  0
   11.9296  -17.7287   17.8588 C   0  0  1  0  0  0  0  0  0  0  0  0
   11.6298  -16.6750   18.8317 C   0  0  0  0  0  0  0  0  0  0  0  0
   12.2506  -15.5851   18.7677 O   0  0  0  0  0  0  0  0  0  0  0  0
   10.6538  -16.8494   19.8501 N   0  0  0  0  0  0  0  0  0  0  0  0
   10.2562  -15.7841   20.7436 C   0  0  1  0  0  0  0  0  0  0  0  0
    8.8323  -15.3726   20.6375 C   0  0  0  0  0  0  0  0  0  0  0  0
    8.4711  -14.5754   19.4608 C   0  0  0  0  0  0  0  0  0  0  0  0
    9.2354  -14.1088   18.4161 C   0  0  0  0  0  0  0  0  0  0  0  0
    8.4104  -13.4088   17.5864 N   0  0  0  0  0  0  0  0  0  0  0  0
    7.1774  -13.4295   18.0817 C   0  0  0  0  0  0  0  0  0  0  0  0
    7.2147  -14.1348   19.2146 N   0  0  0  0  0  0  0  0  0  0  0  0
   10.4356  -16.3125   22.1455 C   0  0  0  0  0  0  0  0  0  0  0  0
   10.2811  -17.5345   22.3390 O   0  0  0  0  0  0  0  0  0  0  0  0
    7.0738  -11.8166   28.0113 N   0  0  0  0  0  0  0  0  0  0  0  0
    6.4205  -12.5957   26.9950 C   0  0  0  0  0  0  0  0  0  0  0  0
    5.7404  -11.9880   26.0886 N   0  0  0  0  0  0  0  0  0  0  0  0
    6.5159  -14.0032   26.9808 N   0  0  0  0  0  0  0  0  0  0  0  0
    7.8033  -14.6735   26.6780 C   0  0  0  0  0  0  0  0  0  0  0  0
    7.7444  -15.3167   25.3433 C   0  0  0  0  0  0  0  0  0  0  0  0
    8.8230  -15.0553   24.3869 C   0  0  0  0  0  0  0  0  0  0  0  0
   10.1553  -15.6439   24.5371 C   0  0  2  0  0  0  0  0  0  0  0  0
   10.7634  -15.4274   23.1614 N   0  0  0  0  0  0  0  0  0  0  0  0
   10.3843  -17.0335   24.8029 C   0  0  0  0  0  0  0  0  0  0  0  0
   10.5842  -17.4154   26.0161 O   0  0  0  0  0  0  0  0  0  0  0  0
   10.4033  -18.0363   23.8674 O   0  0  0  0  0  0  0  0  0  0  0  0
  1  2  1  0
  3  2  1  0
  4  3  1  0
  5  4  1  0
  5  1  1  0
  5  6  1  1
  7  6  2  0
  8  6  1  0
  9  8  1  0
 10 11  1  0
  9 10  1  6
 11 15  1  0
 12 11  2  0
 12 13  1  0
 13 14  1  0
 15 14  2  0
 16  9  1  0
 16 17  2  0
 19 20  2  0
 19 18  1  0
 21 19  1  0
 22 21  1  0
 23 22  1  0
 24 23  1  0
 25 24  1  6
 25 26  1  0
 26 16  1  0
 27 25  1  0
 28 27  2  0
 29 27  1  0
M  END
$$$$
