PHR.pdb
     RDKit          3D

 29 30  0  0  1  0  0  0  0  0999 V2000
    9.2042  -13.5365   18.7963 N   0  0  0  0  0  0  0  0  0  0  0  0
    8.6030  -12.7348   17.7746 C   0  0  0  0  0  0  0  0  0  0  0  0
    7.1470  -12.5182   18.1782 C   0  0  0  0  0  0  0  0  0  0  0  0
    6.9186  -13.6703   19.1495 C   0  0  0  0  0  0  0  0  0  0  0  0
    8.2593  -13.7297   19.8503 C   0  0  1  0  0  0  0  0  0  0  0  0
    8.4410  -14.9820   20.5888 C   0  0  0  0  0  0  0  0  0  0  0  0
    7.5508  -15.3563   21.3919 O   0  0  0  0  0  0  0  0  0  0  0  0
    9.5987  -15.7896   20.4235 N   0  0  0  0  0  0  0  0  0  0  0  0
    9.7446  -17.0857   21.0483 C   0  0  1  0  0  0  0  0  0  0  0  0
   10.8752  -17.9053   20.5402 C   0  0  0  0  0  0  0  0  0  0  0  0
   10.7174  -18.4698   19.1960 C   0  0  0  0  0  0  0  0  0  0  0  0
    9.6510  -18.4495   18.3267 C   0  0  0  0  0  0  0  0  0  0  0  0
   10.0231  -19.1321   17.2067 N   0  0  0  0  0  0  0  0  0  0  0  0
   11.2698  -19.5667   17.3574 C   0  0  0  0  0  0  0  0  0  0  0  0
   11.6889  -19.1662   18.5600 N   0  0  0  0  0  0  0  0  0  0  0  0
   10.0369  -16.8274   22.5058 C   0  0  0  0  0  0  0  0  0  0  0  0
   10.7048  -15.8173   22.8030 O   0  0  0  0  0  0  0  0  0  0  0  0
    7.4692  -22.0606   27.4729 N   0  0  0  0  0  0  0  0  0  0  0  0
    7.4761  -21.2358   28.6503 C   0  0  0  0  0  0  0  0  0  0  0  0
    7.6027  -21.7970   29.8003 N   0  0  0  0  0  0  0  0  0  0  0  0
    7.3471  -19.8338   28.5597 N   0  0  0  0  0  0  0  0  0  0  0  0
    7.1657  -19.1719   27.2454 C   0  0  0  0  0  0  0  0  0  0  0  0
    8.4510  -18.5982   26.7791 C   0  0  0  0  0  0  0  0  0  0  0  0
    8.4770  -17.8668   25.5099 C   0  0  0  0  0  0  0  0  0  0  0  0
    9.7231  -17.3666   24.9258 C   0  0  2  0  0  0  0  0  0  0  0  0
    9.5563  -17.7155   23.4562 N   0  0  0  0  0  0  0  0  0  0  0  0
   11.0188  -17.8801   25.2594 C   0  0  0  0  0  0  0  0  0  0  0  0
   11.5958  -17.4747   26.3367 O   0  0  0  0  0  0  0  0  0  0  0  0
   11.7295  -18.7988   24.5300 O   0  0  0  0  0  0  0  0  0  0  0  0
  1  2  1  0
  3  2  1  0
  4  3  1  0
  5  4  1  0
  5  1  1  0
  5  6  1  6
  7  6  2  0
  8  6  1  0
  9  8  1  0
 10 11  1  0
  9 10  1  6
 11 15  1  0
 12 11  2  0
 12 13  1  0
 13 14  1  0
 15 14  2  0
 16  9  1  0
 16 17  2  0
 19 20  2  0
 19 18  1  0
 21 19  1  0
 22 21  1  0
 23 22  1  0
 24 23  1  0
 25 24  1  1
 25 26  1  0
 26 16  1  0
 27 25  1  0
 28 27  2  0
 29 27  1  0
M  END
$$$$
