PHR.pdb
     RDKit          3D

 29 30  0  0  1  0  0  0  0  0999 V2000
    9.3140  -18.7297   18.6163 N   0  0  0  0  0  0  0  0  0  0  0  0
    8.9032  -19.3019   17.3706 C   0  0  0  0  0  0  0  0  0  0  0  0
    9.7445  -18.6442   16.2800 C   0  0  0  0  0  0  0  0  0  0  0  0
   10.2015  -17.3638   16.9690 C   0  0  0  0  0  0  0  0  0  0  0  0
   10.4213  -17.8574   18.3833 C   0  0  1  0  0  0  0  0  0  0  0  0
   10.5215  -16.7551   19.3432 C   0  0  0  0  0  0  0  0  0  0  0  0
   11.5175  -15.9912   19.2997 O   0  0  0  0  0  0  0  0  0  0  0  0
    9.5218  -16.5228   20.3264 N   0  0  0  0  0  0  0  0  0  0  0  0
    9.6157  -15.4594   21.3019 C   0  0  1  0  0  0  0  0  0  0  0  0
    8.4201  -14.5816   21.3927 C   0  0  0  0  0  0  0  0  0  0  0  0
    7.9606  -13.9757   20.1388 C   0  0  0  0  0  0  0  0  0  0  0  0
    7.9962  -12.6725   19.6986 C   0  0  0  0  0  0  0  0  0  0  0  0
    7.4287  -12.6437   18.4592 N   0  0  0  0  0  0  0  0  0  0  0  0
    7.0494  -13.8732   18.1269 C   0  0  0  0  0  0  0  0  0  0  0  0
    7.3711  -14.6778   19.1424 N   0  0  0  0  0  0  0  0  0  0  0  0
    9.7489  -16.1255   22.6492 C   0  0  0  0  0  0  0  0  0  0  0  0
    8.7089  -16.4937   23.2300 O   0  0  0  0  0  0  0  0  0  0  0  0
   12.6051  -22.7669   21.1724 N   0  0  0  0  0  0  0  0  0  0  0  0
   12.5281  -21.4440   20.6149 C   0  0  0  0  0  0  0  0  0  0  0  0
   13.0467  -21.2269   19.4585 N   0  0  0  0  0  0  0  0  0  0  0  0
   11.8974  -20.3934   21.3140 N   0  0  0  0  0  0  0  0  0  0  0  0
   11.5192  -20.5497   22.7391 C   0  0  0  0  0  0  0  0  0  0  0  0
   10.8783  -19.3092   23.2380 C   0  0  0  0  0  0  0  0  0  0  0  0
   11.6808  -18.3684   24.0238 C   0  0  0  0  0  0  0  0  0  0  0  0
   11.1454  -17.0862   24.4856 C   0  0  2  0  0  0  0  0  0  0  0  0
   11.0134  -16.3033   23.1898 N   0  0  0  0  0  0  0  0  0  0  0  0
   11.8550  -16.1970   25.3573 C   0  0  0  0  0  0  0  0  0  0  0  0
   11.9503  -16.4882   26.6079 O   0  0  0  0  0  0  0  0  0  0  0  0
   12.4738  -15.0315   24.9832 O   0  0  0  0  0  0  0  0  0  0  0  0
  1  2  1  0
  3  2  1  0
  4  3  1  0
  5  4  1  0
  5  1  1  0
  5  6  1  1
  7  6  2  0
  8  6  1  0
  9  8  1  0
 10 11  1  0
  9 10  1  1
 11 15  1  0
 12 11  2  0
 12 13  1  0
 13 14  1  0
 15 14  2  0
 16  9  1  0
 16 17  2  0
 19 20  2  0
 19 18  1  0
 21 19  1  0
 22 21  1  0
 23 22  1  0
 24 23  1  0
 25 24  1  6
 25 26  1  0
 26 16  1  0
 27 25  1  0
 28 27  2  0
 29 27  1  0
M  END
$$$$
