PHR.pdb
     RDKit          3D

 29 30  0  0  1  0  0  0  0  0999 V2000
   10.3836  -19.3716   18.0789 N   0  0  0  0  0  0  0  0  0  0  0  0
    9.6191  -20.0541   17.0800 C   0  0  0  0  0  0  0  0  0  0  0  0
    9.1868  -19.0063   16.0577 C   0  0  0  0  0  0  0  0  0  0  0  0
    9.3132  -17.7171   16.8609 C   0  0  0  0  0  0  0  0  0  0  0  0
   10.5493  -18.0083   17.6851 C   0  0  1  0  0  0  0  0  0  0  0  0
   10.6951  -17.0790   18.8084 C   0  0  0  0  0  0  0  0  0  0  0  0
   11.5883  -16.1971   18.7642 O   0  0  0  0  0  0  0  0  0  0  0  0
    9.8530  -17.1452   19.9515 N   0  0  0  0  0  0  0  0  0  0  0  0
    9.9596  -16.2187   21.0567 C   0  0  1  0  0  0  0  0  0  0  0  0
    8.6819  -15.5819   21.4691 C   0  0  0  0  0  0  0  0  0  0  0  0
    8.0853  -14.6419   20.5146 C   0  0  0  0  0  0  0  0  0  0  0  0
    8.5441  -14.1662   19.3078 C   0  0  0  0  0  0  0  0  0  0  0  0
    7.6053  -13.3038   18.8244 N   0  0  0  0  0  0  0  0  0  0  0  0
    6.5954  -13.2343   19.6853 C   0  0  0  0  0  0  0  0  0  0  0  0
    6.8861  -14.0434   20.7067 N   0  0  0  0  0  0  0  0  0  0  0  0
   10.4291  -17.0221   22.2444 C   0  0  0  0  0  0  0  0  0  0  0  0
   10.1398  -18.2342   22.2877 O   0  0  0  0  0  0  0  0  0  0  0  0
   18.6131  -15.0518   23.7400 N   0  0  0  0  0  0  0  0  0  0  0  0
   18.4598  -16.4582   23.9951 C   0  0  0  0  0  0  0  0  0  0  0  0
   19.5133  -17.1803   24.1435 N   0  0  0  0  0  0  0  0  0  0  0  0
   17.1815  -17.0484   24.0837 N   0  0  0  0  0  0  0  0  0  0  0  0
   15.9688  -16.2962   23.6813 C   0  0  0  0  0  0  0  0  0  0  0  0
   14.7494  -17.0515   24.0569 C   0  0  0  0  0  0  0  0  0  0  0  0
   13.4421  -16.5196   23.6639 C   0  0  0  0  0  0  0  0  0  0  0  0
   12.1909  -17.1981   24.0081 C   0  0  2  0  0  0  0  0  0  0  0  0
   11.1601  -16.3892   23.2384 N   0  0  0  0  0  0  0  0  0  0  0  0
   11.6608  -17.2599   25.3382 C   0  0  0  0  0  0  0  0  0  0  0  0
   10.7063  -16.4623   25.6706 O   0  0  0  0  0  0  0  0  0  0  0  0
   12.0722  -18.1175   26.3263 O   0  0  0  0  0  0  0  0  0  0  0  0
  1  2  1  0
  3  2  1  0
  4  3  1  0
  5  4  1  0
  5  1  1  0
  5  6  1  1
  7  6  2  0
  8  6  1  0
  9  8  1  0
 10 11  1  0
  9 10  1  1
 11 15  1  0
 12 11  2  0
 12 13  1  0
 13 14  1  0
 15 14  2  0
 16  9  1  0
 16 17  2  0
 19 20  2  0
 19 18  1  0
 21 19  1  0
 22 21  1  0
 23 22  1  0
 24 23  1  0
 25 24  1  1
 25 26  1  0
 26 16  1  0
 27 25  1  0
 28 27  2  0
 29 27  1  0
M  END
$$$$
