PHR.pdb
     RDKit          3D

 29 30  0  0  1  0  0  0  0  0999 V2000
    9.1779  -14.2064   17.6596 N   0  0  0  0  0  0  0  0  0  0  0  0
    8.4460  -13.5078   16.6474 C   0  0  0  0  0  0  0  0  0  0  0  0
    7.2764  -12.8154   17.3420 C   0  0  0  0  0  0  0  0  0  0  0  0
    7.1561  -13.6234   18.6288 C   0  0  0  0  0  0  0  0  0  0  0  0
    8.6127  -13.9000   18.9354 C   0  0  1  0  0  0  0  0  0  0  0  0
    8.7749  -14.9652   19.9283 C   0  0  0  0  0  0  0  0  0  0  0  0
    8.1579  -14.8872   21.0194 O   0  0  0  0  0  0  0  0  0  0  0  0
    9.6128  -16.0890   19.6934 N   0  0  0  0  0  0  0  0  0  0  0  0
    9.7581  -17.1692   20.6438 C   0  0  1  0  0  0  0  0  0  0  0  0
   10.3627  -18.4114   20.0967 C   0  0  0  0  0  0  0  0  0  0  0  0
    9.5387  -19.1767   19.1555 C   0  0  0  0  0  0  0  0  0  0  0  0
    9.4260  -19.1030   17.7861 C   0  0  0  0  0  0  0  0  0  0  0  0
    8.5092  -20.0354   17.4003 N   0  0  0  0  0  0  0  0  0  0  0  0
    8.0593  -20.6729   18.4760 C   0  0  0  0  0  0  0  0  0  0  0  0
    8.6819  -20.1534   19.5366 N   0  0  0  0  0  0  0  0  0  0  0  0
   10.7059  -16.6766   21.7094 C   0  0  0  0  0  0  0  0  0  0  0  0
   11.6107  -15.8869   21.3742 O   0  0  0  0  0  0  0  0  0  0  0  0
   10.2994  -16.4888   29.7535 N   0  0  0  0  0  0  0  0  0  0  0  0
   10.1583  -15.0636   29.6297 C   0  0  0  0  0  0  0  0  0  0  0  0
   10.5349  -14.3157   30.6055 N   0  0  0  0  0  0  0  0  0  0  0  0
    9.6176  -14.4827   28.4633 N   0  0  0  0  0  0  0  0  0  0  0  0
    9.2302  -15.3243   27.3058 C   0  0  0  0  0  0  0  0  0  0  0  0
   10.3726  -15.4674   26.3714 C   0  0  0  0  0  0  0  0  0  0  0  0
   10.1715  -16.2019   25.1198 C   0  0  0  0  0  0  0  0  0  0  0  0
   11.2392  -16.3595   24.1303 C   0  0  2  0  0  0  0  0  0  0  0  0
   10.5389  -17.1162   23.0139 N   0  0  0  0  0  0  0  0  0  0  0  0
   12.4343  -17.1150   24.3649 C   0  0  0  0  0  0  0  0  0  0  0  0
   12.4702  -18.3550   24.0201 O   0  0  0  0  0  0  0  0  0  0  0  0
   13.5884  -16.6350   24.9295 O   0  0  0  0  0  0  0  0  0  0  0  0
  1  2  1  0
  3  2  1  0
  4  3  1  0
  5  4  1  0
  5  1  1  0
  5  6  1  1
  7  6  2  0
  8  6  1  0
  9  8  1  0
 10 11  1  0
  9 10  1  6
 11 15  1  0
 12 11  2  0
 12 13  1  0
 13 14  1  0
 15 14  2  0
 16  9  1  0
 16 17  2  0
 19 20  2  0
 19 18  1  0
 21 19  1  0
 22 21  1  0
 23 22  1  0
 24 23  1  0
 25 24  1  1
 25 26  1  0
 26 16  1  0
 27 25  1  0
 28 27  2  0
 29 27  1  0
M  END
$$$$
