PHR.pdb
     RDKit          3D

 29 30  0  0  1  0  0  0  0  0999 V2000
    7.5434  -19.2072   19.7461 N   0  0  0  0  0  0  0  0  0  0  0  0
    6.3315  -19.7246   19.1880 C   0  0  0  0  0  0  0  0  0  0  0  0
    6.2914  -19.2850   17.7268 C   0  0  0  0  0  0  0  0  0  0  0  0
    7.2516  -18.1013   17.7315 C   0  0  0  0  0  0  0  0  0  0  0  0
    8.3025  -18.5835   18.7088 C   0  0  1  0  0  0  0  0  0  0  0  0
    9.1633  -17.4937   19.1757 C   0  0  0  0  0  0  0  0  0  0  0  0
   10.0028  -16.9930   18.3871 O   0  0  0  0  0  0  0  0  0  0  0  0
    9.0769  -16.9836   20.4995 N   0  0  0  0  0  0  0  0  0  0  0  0
    9.9134  -15.9058   20.9790 C   0  0  1  0  0  0  0  0  0  0  0  0
    9.1812  -14.6929   21.4273 C   0  0  0  0  0  0  0  0  0  0  0  0
    8.4789  -13.9348   20.3869 C   0  0  0  0  0  0  0  0  0  0  0  0
    8.4338  -14.1018   19.0218 C   0  0  0  0  0  0  0  0  0  0  0  0
    7.6390  -13.1167   18.5152 N   0  0  0  0  0  0  0  0  0  0  0  0
    7.1990  -12.3576   19.5133 C   0  0  0  0  0  0  0  0  0  0  0  0
    7.7070  -12.8526   20.6443 N   0  0  0  0  0  0  0  0  0  0  0  0
   10.6345  -16.4327   22.1951 C   0  0  0  0  0  0  0  0  0  0  0  0
    9.9696  -17.0400   23.0574 O   0  0  0  0  0  0  0  0  0  0  0  0
   12.7170  -22.1019   24.3312 N   0  0  0  0  0  0  0  0  0  0  0  0
   12.3242  -21.9690   22.9547 C   0  0  0  0  0  0  0  0  0  0  0  0
   11.2225  -22.5085   22.5691 N   0  0  0  0  0  0  0  0  0  0  0  0
   13.1241  -21.2616   22.0329 N   0  0  0  0  0  0  0  0  0  0  0  0
   14.2909  -20.4700   22.4915 C   0  0  0  0  0  0  0  0  0  0  0  0
   13.8394  -19.3199   23.3113 C   0  0  0  0  0  0  0  0  0  0  0  0
   13.2297  -18.1706   22.6377 C   0  0  0  0  0  0  0  0  0  0  0  0
   12.7651  -16.9937   23.3747 C   0  0  2  0  0  0  0  0  0  0  0  0
   12.0006  -16.2244   22.3102 N   0  0  0  0  0  0  0  0  0  0  0  0
   13.6439  -16.0160   23.9454 C   0  0  0  0  0  0  0  0  0  0  0  0
   14.1313  -16.2201   25.1196 O   0  0  0  0  0  0  0  0  0  0  0  0
   14.0423  -14.8487   23.3456 O   0  0  0  0  0  0  0  0  0  0  0  0
  1  2  1  0
  3  2  1  0
  4  3  1  0
  5  4  1  0
  5  1  1  0
  5  6  1  1
  7  6  2  0
  8  6  1  0
  9  8  1  0
 10 11  1  0
  9 10  1  1
 11 15  1  0
 12 11  2  0
 12 13  1  0
 13 14  1  0
 15 14  2  0
 16  9  1  0
 16 17  2  0
 19 20  2  0
 19 18  1  0
 21 19  1  0
 22 21  1  0
 23 22  1  0
 24 23  1  0
 25 24  1  6
 25 26  1  0
 26 16  1  0
 27 25  1  0
 28 27  2  0
 29 27  1  0
M  END
$$$$
