PHR.pdb
     RDKit          3D

 29 30  0  0  1  0  0  0  0  0999 V2000
    7.7077  -19.2843   18.9490 N   0  0  0  0  0  0  0  0  0  0  0  0
    6.8128  -19.7001   17.9126 C   0  0  0  0  0  0  0  0  0  0  0  0
    7.3932  -19.1948   16.5944 C   0  0  0  0  0  0  0  0  0  0  0  0
    8.3118  -18.0745   17.0680 C   0  0  0  0  0  0  0  0  0  0  0  0
    8.8493  -18.6639   18.3548 C   0  0  1  0  0  0  0  0  0  0  0  0
    9.4839  -17.6514   19.2026 C   0  0  0  0  0  0  0  0  0  0  0  0
   10.5669  -17.1329   18.8344 O   0  0  0  0  0  0  0  0  0  0  0  0
    8.9090  -17.2364   20.4344 N   0  0  0  0  0  0  0  0  0  0  0  0
    9.5119  -16.2297   21.2796 C   0  0  1  0  0  0  0  0  0  0  0  0
    8.6039  -15.1278   21.6912 C   0  0  0  0  0  0  0  0  0  0  0  0
    8.1628  -14.2171   20.6298 C   0  0  0  0  0  0  0  0  0  0  0  0
    8.5028  -14.1490   19.2983 C   0  0  0  0  0  0  0  0  0  0  0  0
    7.8123  -13.1078   18.7524 N   0  0  0  0  0  0  0  0  0  0  0  0
    7.0671  -12.5397   19.6947 C   0  0  0  0  0  0  0  0  0  0  0  0
    7.2794  -13.2105   20.8292 N   0  0  0  0  0  0  0  0  0  0  0  0
    9.9236  -16.9297   22.5513 C   0  0  0  0  0  0  0  0  0  0  0  0
    9.1711  -17.8126   23.0082 O   0  0  0  0  0  0  0  0  0  0  0  0
   14.2881  -21.7266   21.6065 N   0  0  0  0  0  0  0  0  0  0  0  0
   15.4851  -21.5651   22.3861 C   0  0  0  0  0  0  0  0  0  0  0  0
   16.1477  -22.6121   22.7297 N   0  0  0  0  0  0  0  0  0  0  0  0
   15.9359  -20.2859   22.7742 N   0  0  0  0  0  0  0  0  0  0  0  0
   15.1610  -19.0705   22.4266 C   0  0  0  0  0  0  0  0  0  0  0  0
   13.9610  -18.9635   23.2911 C   0  0  0  0  0  0  0  0  0  0  0  0
   13.0919  -17.7927   23.1484 C   0  0  0  0  0  0  0  0  0  0  0  0
   11.8765  -17.6242   23.9474 C   0  0  2  0  0  0  0  0  0  0  0  0
   11.1150  -16.5691   23.1625 N   0  0  0  0  0  0  0  0  0  0  0  0
   11.8723  -17.1269   25.2916 C   0  0  0  0  0  0  0  0  0  0  0  0
   11.7700  -15.8590   25.4909 O   0  0  0  0  0  0  0  0  0  0  0  0
   11.9589  -17.8889   26.4287 O   0  0  0  0  0  0  0  0  0  0  0  0
  1  2  1  0
  3  2  1  0
  4  3  1  0
  5  4  1  0
  5  1  1  0
  5  6  1  1
  7  6  2  0
  8  6  1  0
  9  8  1  0
 10 11  1  0
  9 10  1  1
 11 15  1  0
 12 11  2  0
 12 13  1  0
 13 14  1  0
 15 14  2  0
 16  9  1  0
 16 17  2  0
 19 20  2  0
 19 18  1  0
 21 19  1  0
 22 21  1  0
 23 22  1  0
 24 23  1  0
 25 24  1  6
 25 26  1  0
 26 16  1  0
 27 25  1  0
 28 27  2  0
 29 27  1  0
M  END
$$$$
