PHR.pdb
     RDKit          3D

 29 30  0  0  1  0  0  0  0  0999 V2000
    9.2123  -17.3006   15.4984 N   0  0  0  0  0  0  0  0  0  0  0  0
    8.2248  -17.5719   14.4987 C   0  0  0  0  0  0  0  0  0  0  0  0
    7.9714  -16.2622   13.7568 C   0  0  0  0  0  0  0  0  0  0  0  0
    8.4705  -15.2326   14.7637 C   0  0  0  0  0  0  0  0  0  0  0  0
    9.6659  -15.9541   15.3488 C   0  0  1  0  0  0  0  0  0  0  0  0
   10.1247  -15.3396   16.5972 C   0  0  0  0  0  0  0  0  0  0  0  0
   10.6014  -14.1780   16.5712 O   0  0  0  0  0  0  0  0  0  0  0  0
   10.0462  -16.0208   17.8422 N   0  0  0  0  0  0  0  0  0  0  0  0
   10.5142  -15.4418   19.0819 C   0  0  1  0  0  0  0  0  0  0  0  0
    9.5106  -15.4043   20.1771 C   0  0  0  0  0  0  0  0  0  0  0  0
    8.4025  -14.4580   20.0124 C   0  0  0  0  0  0  0  0  0  0  0  0
    7.0556  -14.6675   19.8238 C   0  0  0  0  0  0  0  0  0  0  0  0
    6.4620  -13.4446   19.7200 N   0  0  0  0  0  0  0  0  0  0  0  0
    7.3898  -12.5004   19.8370 C   0  0  0  0  0  0  0  0  0  0  0  0
    8.5624  -13.1135   20.0137 N   0  0  0  0  0  0  0  0  0  0  0  0
   11.6344  -16.3265   19.5711 C   0  0  0  0  0  0  0  0  0  0  0  0
   11.5043  -17.5610   19.4542 O   0  0  0  0  0  0  0  0  0  0  0  0
   18.6707  -14.0024   22.0421 N   0  0  0  0  0  0  0  0  0  0  0  0
   19.3445  -15.2511   21.8110 C   0  0  0  0  0  0  0  0  0  0  0  0
   20.4982  -15.4418   22.3457 N   0  0  0  0  0  0  0  0  0  0  0  0
   18.7612  -16.2580   21.0134 N   0  0  0  0  0  0  0  0  0  0  0  0
   17.5076  -16.0018   20.2643 C   0  0  0  0  0  0  0  0  0  0  0  0
   16.3322  -16.2352   21.1376 C   0  0  0  0  0  0  0  0  0  0  0  0
   15.0170  -15.7729   20.6874 C   0  0  0  0  0  0  0  0  0  0  0  0
   13.8390  -16.6424   20.7049 C   0  0  2  0  0  0  0  0  0  0  0  0
   12.7603  -15.7400   20.1291 N   0  0  0  0  0  0  0  0  0  0  0  0
   13.2528  -17.1614   21.9053 C   0  0  0  0  0  0  0  0  0  0  0  0
   12.3566  -16.4678   22.5164 O   0  0  0  0  0  0  0  0  0  0  0  0
   13.5503  -18.3677   22.4863 O   0  0  0  0  0  0  0  0  0  0  0  0
  1  2  1  0
  3  2  1  0
  4  3  1  0
  5  4  1  0
  5  1  1  0
  5  6  1  1
  7  6  2  0
  8  6  1  0
  9  8  1  0
 10 11  1  0
  9 10  1  1
 11 15  1  0
 12 11  2  0
 12 13  1  0
 13 14  1  0
 15 14  2  0
 16  9  1  0
 16 17  2  0
 19 20  2  0
 19 18  1  0
 21 19  1  0
 22 21  1  0
 23 22  1  0
 24 23  1  0
 25 24  1  1
 25 26  1  0
 26 16  1  0
 27 25  1  0
 28 27  2  0
 29 27  1  0
M  END
$$$$
