PHR.pdb
     RDKit          3D

 29 30  0  0  1  0  0  0  0  0999 V2000
    3.9200  -20.4522   21.0829 N   0  0  0  0  0  0  0  0  0  0  0  0
    2.8236  -21.1720   20.5104 C   0  0  0  0  0  0  0  0  0  0  0  0
    1.5818  -20.3012   20.6817 C   0  0  0  0  0  0  0  0  0  0  0  0
    2.0042  -19.3768   21.8176 C   0  0  0  0  0  0  0  0  0  0  0  0
    3.4655  -19.1594   21.4871 C   0  0  1  0  0  0  0  0  0  0  0  0
    4.2086  -18.5949   22.6166 C   0  0  0  0  0  0  0  0  0  0  0  0
    3.9296  -17.4383   23.0191 O   0  0  0  0  0  0  0  0  0  0  0  0
    5.2401  -19.3191   23.2736 N   0  0  0  0  0  0  0  0  0  0  0  0
    6.0815  -18.7320   24.2928 C   0  0  1  0  0  0  0  0  0  0  0  0
    6.7505  -19.7058   25.1940 C   0  0  0  0  0  0  0  0  0  0  0  0
    7.6167  -19.1415   26.2341 C   0  0  0  0  0  0  0  0  0  0  0  0
    7.3152  -18.4396   27.3786 C   0  0  0  0  0  0  0  0  0  0  0  0
    8.4930  -18.1370   27.9951 N   0  0  0  0  0  0  0  0  0  0  0  0
    9.4977  -18.6244   27.2748 C   0  0  0  0  0  0  0  0  0  0  0  0
    8.9675  -19.2314   26.2106 N   0  0  0  0  0  0  0  0  0  0  0  0
    7.1872  -18.0049   23.5679 C   0  0  0  0  0  0  0  0  0  0  0  0
    7.6139  -18.4927   22.5028 O   0  0  0  0  0  0  0  0  0  0  0  0
    9.2486  -14.3700   18.4438 N   0  0  0  0  0  0  0  0  0  0  0  0
    8.5926  -13.1673   18.8794 C   0  0  0  0  0  0  0  0  0  0  0  0
    9.0239  -12.0348   18.4494 N   0  0  0  0  0  0  0  0  0  0  0  0
    7.4938  -13.2146   19.7628 N   0  0  0  0  0  0  0  0  0  0  0  0
    7.6760  -12.9720   21.2142 C   0  0  0  0  0  0  0  0  0  0  0  0
    8.5502  -14.0153   21.8022 C   0  0  0  0  0  0  0  0  0  0  0  0
    7.9814  -14.9378   22.7880 C   0  0  0  0  0  0  0  0  0  0  0  0
    8.7439  -16.0645   23.3295 C   0  0  2  0  0  0  0  0  0  0  0  0
    7.6859  -16.8290   24.1077 N   0  0  0  0  0  0  0  0  0  0  0  0
    9.8226  -15.9185   24.2618 C   0  0  0  0  0  0  0  0  0  0  0  0
   11.0339  -15.9245   23.8254 O   0  0  0  0  0  0  0  0  0  0  0  0
    9.6941  -15.7574   25.6178 O   0  0  0  0  0  0  0  0  0  0  0  0
  1  2  1  0
  3  2  1  0
  4  3  1  0
  5  4  1  0
  5  1  1  0
  5  6  1  1
  7  6  2  0
  8  6  1  0
  9  8  1  0
 10 11  1  0
  9 10  1  1
 11 15  1  0
 12 11  2  0
 12 13  1  0
 13 14  1  0
 15 14  2  0
 16  9  1  0
 16 17  2  0
 19 20  2  0
 19 18  1  0
 21 19  1  0
 22 21  1  0
 23 22  1  0
 24 23  1  0
 25 24  1  1
 25 26  1  0
 26 16  1  0
 27 25  1  0
 28 27  2  0
 29 27  1  0
M  END
$$$$
