PHR.pdb
     RDKit          3D

 29 30  0  0  1  0  0  0  0  0999 V2000
    8.1478  -14.4281   18.2473 N   0  0  0  0  0  0  0  0  0  0  0  0
    7.6220  -13.1202   18.0005 C   0  0  0  0  0  0  0  0  0  0  0  0
    8.0142  -12.2509   19.1923 C   0  0  0  0  0  0  0  0  0  0  0  0
    8.2878  -13.2986   20.2650 C   0  0  0  0  0  0  0  0  0  0  0  0
    8.9296  -14.3957   19.4426 C   0  0  1  0  0  0  0  0  0  0  0  0
    8.9698  -15.6721   20.1609 C   0  0  0  0  0  0  0  0  0  0  0  0
    8.5189  -16.7042   19.6053 O   0  0  0  0  0  0  0  0  0  0  0  0
    9.5057  -15.7784   21.4730 N   0  0  0  0  0  0  0  0  0  0  0  0
    9.6999  -17.0474   22.1387 C   0  0  1  0  0  0  0  0  0  0  0  0
   10.7076  -17.9400   21.5095 C   0  0  0  0  0  0  0  0  0  0  0  0
   10.8820  -19.2600   22.1242 C   0  0  0  0  0  0  0  0  0  0  0  0
   10.3019  -19.8219   23.2382 C   0  0  0  0  0  0  0  0  0  0  0  0
   10.8191  -21.0753   23.3806 N   0  0  0  0  0  0  0  0  0  0  0  0
   11.6889  -21.2998   22.4013 C   0  0  0  0  0  0  0  0  0  0  0  0
   11.7265  -20.2022   21.6423 N   0  0  0  0  0  0  0  0  0  0  0  0
   10.2241  -16.7312   23.5177 C   0  0  0  0  0  0  0  0  0  0  0  0
   11.2640  -16.0497   23.6110 O   0  0  0  0  0  0  0  0  0  0  0  0
    4.7356  -12.7535   26.4333 N   0  0  0  0  0  0  0  0  0  0  0  0
    5.9929  -12.0646   26.3265 C   0  0  0  0  0  0  0  0  0  0  0  0
    5.9909  -10.7837   26.2142 N   0  0  0  0  0  0  0  0  0  0  0  0
    7.2147  -12.7697   26.3433 N   0  0  0  0  0  0  0  0  0  0  0  0
    7.2359  -14.2519   26.3161 C   0  0  0  0  0  0  0  0  0  0  0  0
    8.6131  -14.7489   26.5511 C   0  0  0  0  0  0  0  0  0  0  0  0
    8.8416  -16.1952   26.5995 C   0  0  0  0  0  0  0  0  0  0  0  0
   10.0288  -16.8153   26.0078 C   0  0  2  0  0  0  0  0  0  0  0  0
    9.5362  -17.2059   24.6242 N   0  0  0  0  0  0  0  0  0  0  0  0
   10.6339  -18.0128   26.5115 C   0  0  0  0  0  0  0  0  0  0  0  0
   10.1510  -19.1543   26.1625 O   0  0  0  0  0  0  0  0  0  0  0  0
   11.7188  -18.0722   27.3485 O   0  0  0  0  0  0  0  0  0  0  0  0
  1  2  1  0
  3  2  1  0
  4  3  1  0
  5  4  1  0
  5  1  1  0
  5  6  1  1
  7  6  2  0
  8  6  1  0
  9  8  1  0
 10 11  1  0
  9 10  1  6
 11 15  1  0
 12 11  2  0
 12 13  1  0
 13 14  1  0
 15 14  2  0
 16  9  1  0
 16 17  2  0
 19 20  2  0
 19 18  1  0
 21 19  1  0
 22 21  1  0
 23 22  1  0
 24 23  1  0
 25 24  1  1
 25 26  1  0
 26 16  1  0
 27 25  1  0
 28 27  2  0
 29 27  1  0
M  END
$$$$
