PHR.pdb
     RDKit          3D

 29 30  0  0  1  0  0  0  0  0999 V2000
    7.9121  -15.4249   19.3081 N   0  0  0  0  0  0  0  0  0  0  0  0
    7.5357  -15.0817   17.9708 C   0  0  0  0  0  0  0  0  0  0  0  0
    8.4014  -13.8952   17.5555 C   0  0  0  0  0  0  0  0  0  0  0  0
    8.8348  -13.3383   18.9064 C   0  0  0  0  0  0  0  0  0  0  0  0
    9.0209  -14.6138   19.7004 C   0  0  1  0  0  0  0  0  0  0  0  0
    9.0917  -14.3612   21.1419 C   0  0  0  0  0  0  0  0  0  0  0  0
   10.1009  -13.7828   21.6154 O   0  0  0  0  0  0  0  0  0  0  0  0
    8.0486  -14.7524   22.0245 N   0  0  0  0  0  0  0  0  0  0  0  0
    8.1021  -14.5202   23.4509 C   0  0  1  0  0  0  0  0  0  0  0  0
    6.9348  -13.7935   24.0142 C   0  0  0  0  0  0  0  0  0  0  0  0
    7.0814  -13.2879   25.3829 C   0  0  0  0  0  0  0  0  0  0  0  0
    8.1303  -13.3712   26.2696 C   0  0  0  0  0  0  0  0  0  0  0  0
    7.7476  -12.7410   27.4164 N   0  0  0  0  0  0  0  0  0  0  0  0
    6.5110  -12.2781   27.2654 C   0  0  0  0  0  0  0  0  0  0  0  0
    6.1089  -12.6091   26.0362 N   0  0  0  0  0  0  0  0  0  0  0  0
    8.1044  -15.8796   24.1056 C   0  0  0  0  0  0  0  0  0  0  0  0
    7.0710  -16.5728   24.0280 O   0  0  0  0  0  0  0  0  0  0  0  0
   14.4062  -19.6521   21.4487 N   0  0  0  0  0  0  0  0  0  0  0  0
   14.3515  -18.2422   21.7244 C   0  0  0  0  0  0  0  0  0  0  0  0
   15.2485  -17.4750   21.2144 N   0  0  0  0  0  0  0  0  0  0  0  0
   13.3366  -17.6970   22.5386 N   0  0  0  0  0  0  0  0  0  0  0  0
   12.3008  -18.5674   23.1452 C   0  0  0  0  0  0  0  0  0  0  0  0
   11.3747  -17.7596   23.9749 C   0  0  0  0  0  0  0  0  0  0  0  0
   10.2066  -18.4151   24.5685 C   0  0  0  0  0  0  0  0  0  0  0  0
    9.2452  -17.6877   25.3997 C   0  0  2  0  0  0  0  0  0  0  0  0
    9.2467  -16.3067   24.7656 N   0  0  0  0  0  0  0  0  0  0  0  0
    9.4388  -17.4286   26.7959 C   0  0  0  0  0  0  0  0  0  0  0  0
    9.6596  -16.2213   27.1850 O   0  0  0  0  0  0  0  0  0  0  0  0
    9.4021  -18.3646   27.7977 O   0  0  0  0  0  0  0  0  0  0  0  0
  1  2  1  0
  3  2  1  0
  4  3  1  0
  5  4  1  0
  5  1  1  0
  5  6  1  1
  7  6  2  0
  8  6  1  0
  9  8  1  0
 10 11  1  0
  9 10  1  1
 11 15  1  0
 12 11  2  0
 12 13  1  0
 13 14  1  0
 15 14  2  0
 16  9  1  0
 16 17  2  0
 19 20  2  0
 19 18  1  0
 21 19  1  0
 22 21  1  0
 23 22  1  0
 24 23  1  0
 25 24  1  6
 25 26  1  0
 26 16  1  0
 27 25  1  0
 28 27  2  0
 29 27  1  0
M  END
$$$$
