PHR.pdb
     RDKit          3D

 29 30  0  0  1  0  0  0  0  0999 V2000
    8.2470  -15.0907   18.5732 N   0  0  0  0  0  0  0  0  0  0  0  0
    8.0926  -14.3372   17.3664 C   0  0  0  0  0  0  0  0  0  0  0  0
    7.5337  -12.9731   17.7620 C   0  0  0  0  0  0  0  0  0  0  0  0
    6.9268  -13.2697   19.1283 C   0  0  0  0  0  0  0  0  0  0  0  0
    7.9346  -14.2519   19.6868 C   0  0  1  0  0  0  0  0  0  0  0  0
    7.4134  -14.9766   20.8486 C   0  0  0  0  0  0  0  0  0  0  0  0
    7.0914  -14.3350   21.8791 O   0  0  0  0  0  0  0  0  0  0  0  0
    7.2606  -16.3896   20.8452 N   0  0  0  0  0  0  0  0  0  0  0  0
    6.7260  -17.1218   21.9719 C   0  0  1  0  0  0  0  0  0  0  0  0
    6.2571  -18.4975   21.6629 C   0  0  0  0  0  0  0  0  0  0  0  0
    5.0009  -18.6042   20.9137 C   0  0  0  0  0  0  0  0  0  0  0  0
    4.0592  -17.6550   20.5885 C   0  0  0  0  0  0  0  0  0  0  0  0
    3.0726  -18.2815   19.8864 N   0  0  0  0  0  0  0  0  0  0  0  0
    3.3735  -19.5707   19.7709 C   0  0  0  0  0  0  0  0  0  0  0  0
    4.5391  -19.7651   20.3920 N   0  0  0  0  0  0  0  0  0  0  0  0
    7.8582  -17.2771   22.9570 C   0  0  0  0  0  0  0  0  0  0  0  0
    9.0116  -17.4325   22.5096 O   0  0  0  0  0  0  0  0  0  0  0  0
   11.0306  -13.1363   30.1147 N   0  0  0  0  0  0  0  0  0  0  0  0
   10.3621  -14.3864   29.8760 C   0  0  0  0  0  0  0  0  0  0  0  0
   10.9370  -15.4771   30.2411 N   0  0  0  0  0  0  0  0  0  0  0  0
    9.0971  -14.4298   29.2530 N   0  0  0  0  0  0  0  0  0  0  0  0
    8.9626  -14.2131   27.7924 C   0  0  0  0  0  0  0  0  0  0  0  0
    9.3572  -15.4371   27.0544 C   0  0  0  0  0  0  0  0  0  0  0  0
    8.3930  -16.0477   26.1358 C   0  0  0  0  0  0  0  0  0  0  0  0
    8.7394  -17.1947   25.2942 C   0  0  2  0  0  0  0  0  0  0  0  0
    7.5785  -17.2418   24.3147 N   0  0  0  0  0  0  0  0  0  0  0  0
    8.8353  -18.5384   25.7834 C   0  0  0  0  0  0  0  0  0  0  0  0
    7.8402  -19.3386   25.6179 O   0  0  0  0  0  0  0  0  0  0  0  0
    9.9191  -19.0834   26.4233 O   0  0  0  0  0  0  0  0  0  0  0  0
  1  2  1  0
  3  2  1  0
  4  3  1  0
  5  4  1  0
  5  1  1  0
  5  6  1  1
  7  6  2  0
  8  6  1  0
  9  8  1  0
 10 11  1  0
  9 10  1  6
 11 15  1  0
 12 11  2  0
 12 13  1  0
 13 14  1  0
 15 14  2  0
 16  9  1  0
 16 17  2  0
 19 20  2  0
 19 18  1  0
 21 19  1  0
 22 21  1  0
 23 22  1  0
 24 23  1  0
 25 24  1  1
 25 26  1  0
 26 16  1  0
 27 25  1  0
 28 27  2  0
 29 27  1  0
M  END
$$$$
