PHR.pdb
     RDKit          3D

 29 30  0  0  1  0  0  0  0  0999 V2000
    8.5741  -15.0206   18.3329 N   0  0  0  0  0  0  0  0  0  0  0  0
    8.5025  -14.2673   17.1183 C   0  0  0  0  0  0  0  0  0  0  0  0
    7.8892  -12.9144   17.4694 C   0  0  0  0  0  0  0  0  0  0  0  0
    7.1810  -13.2252   18.7828 C   0  0  0  0  0  0  0  0  0  0  0  0
    8.1589  -14.1903   19.4188 C   0  0  1  0  0  0  0  0  0  0  0  0
    7.5602  -14.9270   20.5349 C   0  0  0  0  0  0  0  0  0  0  0  0
    7.0787  -14.2895   21.5040 O   0  0  0  0  0  0  0  0  0  0  0  0
    7.5074  -16.3472   20.5544 N   0  0  0  0  0  0  0  0  0  0  0  0
    6.8394  -17.0912   21.5991 C   0  0  1  0  0  0  0  0  0  0  0  0
    6.2813  -18.4027   21.1790 C   0  0  0  0  0  0  0  0  0  0  0  0
    4.9767  -18.3708   20.5100 C   0  0  0  0  0  0  0  0  0  0  0  0
    4.6372  -18.5128   19.1842 C   0  0  0  0  0  0  0  0  0  0  0  0
    3.2823  -18.3913   19.0935 N   0  0  0  0  0  0  0  0  0  0  0  0
    2.7831  -18.1812   20.3071 C   0  0  0  0  0  0  0  0  0  0  0  0
    3.8077  -18.1689   21.1628 N   0  0  0  0  0  0  0  0  0  0  0  0
    7.8856  -17.3967   22.6425 C   0  0  0  0  0  0  0  0  0  0  0  0
    9.0287  -17.7112   22.2566 O   0  0  0  0  0  0  0  0  0  0  0  0
   10.3646  -13.7514   30.8024 N   0  0  0  0  0  0  0  0  0  0  0  0
   10.6256  -14.7199   29.7726 C   0  0  0  0  0  0  0  0  0  0  0  0
   10.9691  -15.9111   30.1139 N   0  0  0  0  0  0  0  0  0  0  0  0
   10.5105  -14.3823   28.4077 N   0  0  0  0  0  0  0  0  0  0  0  0
    9.2867  -14.7217   27.6426 C   0  0  0  0  0  0  0  0  0  0  0  0
    9.5187  -15.9298   26.8147 C   0  0  0  0  0  0  0  0  0  0  0  0
    8.4673  -16.3636   25.8911 C   0  0  0  0  0  0  0  0  0  0  0  0
    8.6269  -17.5336   25.0253 C   0  0  2  0  0  0  0  0  0  0  0  0
    7.5417  -17.3176   23.9836 N   0  0  0  0  0  0  0  0  0  0  0  0
    8.4213  -18.8817   25.4660 C   0  0  0  0  0  0  0  0  0  0  0  0
    7.2478  -19.4022   25.3661 O   0  0  0  0  0  0  0  0  0  0  0  0
    9.3807  -19.7083   25.9926 O   0  0  0  0  0  0  0  0  0  0  0  0
  1  2  1  0
  3  2  1  0
  4  3  1  0
  5  4  1  0
  5  1  1  0
  5  6  1  1
  7  6  2  0
  8  6  1  0
  9  8  1  0
 10 11  1  0
  9 10  1  6
 11 15  1  0
 12 11  2  0
 12 13  1  0
 13 14  1  0
 15 14  2  0
 16  9  1  0
 16 17  2  0
 19 20  2  0
 19 18  1  0
 21 19  1  0
 22 21  1  0
 23 22  1  0
 24 23  1  0
 25 24  1  1
 25 26  1  0
 26 16  1  0
 27 25  1  0
 28 27  2  0
 29 27  1  0
M  END
$$$$
