RQV.pdb
     RDKit          3D

 28 27  0  0  1  0  0  0  0  0999 V2000
    8.8902  -14.3059   15.2146 N   0  0  0  0  0  0  0  0  0  0  0  0
    8.2214  -13.8670   16.3865 C   0  0  0  0  0  0  0  0  0  0  0  0
    8.6679  -12.8796   17.0590 N   0  0  0  0  0  0  0  0  0  0  0  0
    7.0325  -14.5435   16.8145 N   0  0  0  0  0  0  0  0  0  0  0  0
    7.0787  -15.8088   17.4687 C   0  0  0  0  0  0  0  0  0  0  0  0
    7.9387  -16.0316   18.6242 C   0  0  0  0  0  0  0  0  0  0  0  0
    7.4990  -15.9421   20.0195 C   0  0  0  0  0  0  0  0  0  0  0  0
    6.9686  -17.1660   20.6247 C   0  0  2  0  0  0  0  0  0  0  0  0
    5.8149  -17.6669   19.9925 N   0  0  0  0  0  0  0  0  0  0  0  0
    6.6956  -17.0171   22.0991 C   0  0  0  0  0  0  0  0  0  0  0  0
    5.5503  -16.6371   22.4565 O   0  0  0  0  0  0  0  0  0  0  0  0
    8.1489  -12.5547   17.8999 N   0  0  0  0  0  0  0  0  0  0  0  0
    8.7415  -20.2618   26.9941 C   0  0  0  0  0  0  0  0  0  0  0  0
    7.9624  -19.2330   27.5544 O   0  0  0  0  0  0  0  0  0  0  0  0
    7.6648  -19.2826   28.7681 C   0  0  0  0  0  0  0  0  0  0  0  0
    7.5032  -18.1167   26.7334 C   0  0  0  0  0  0  0  0  0  0  0  0
    7.8691  -18.3492   25.2785 C   0  0  2  0  0  0  0  0  0  0  0  0
    7.4046  -17.1342   24.5096 N   0  0  0  0  0  0  0  0  0  0  0  0
    7.6421  -17.2764   23.1015 C   0  0  0  0  0  0  0  0  0  0  0  0
    8.0394  -15.9486   25.1028 O   0  0  0  0  0  0  0  0  0  0  0  0
    9.2516  -15.6385   24.9740 C   0  0  0  0  0  0  0  0  0  0  0  0
    7.2132  -11.7791   27.6760 C   0  0  2  0  0  0  0  0  0  0  0  0
    6.6795  -13.0138   27.0164 C   0  0  0  0  0  0  0  0  0  0  0  0
    5.7402  -12.5791   25.9118 C   0  0  1  0  0  0  0  0  0  0  0  0
    7.8239  -13.8593   26.4518 N   0  0  0  0  0  0  0  0  0  0  0  0
    7.2295  -15.0777   25.8845 C   0  0  0  0  0  0  0  0  0  0  0  0
    8.7444  -14.1762   27.5527 O   0  0  0  0  0  0  0  0  0  0  0  0
    8.6385  -15.2638   28.1508 O   0  0  0  0  0  0  0  0  0  0  0  0
  2  1  1  0
  3  2  2  0
  4  2  1  0
  5  4  1  0
  6  5  1  0
  7  6  1  0
  8  7  1  0
  8  9  1  6
 10  8  1  0
 10 18  1  0
 11 10  2  0
 13 12  1  0
 14 13  2  0
 15 13  1  0
 16 15  1  0
 17 16  1  6
 17 18  1  0
 19 17  1  0
 20 19  2  0
 22 21  1  1
 22 23  1  0
 22 24  1  0
 24 26  1  0
 24 25  1  1
 25 19  1  0
 26 28  1  0
 27 26  2  0
M  END
$$$$
