RQV.pdb
     RDKit          3D

 28 27  0  0  1  0  0  0  0  0999 V2000
    8.0423  -15.7547   16.4463 N   0  0  0  0  0  0  0  0  0  0  0  0
    8.3306  -14.3767   16.2697 C   0  0  0  0  0  0  0  0  0  0  0  0
    7.9439  -13.7603   15.2222 N   0  0  0  0  0  0  0  0  0  0  0  0
    9.0639  -13.6749   17.2816 N   0  0  0  0  0  0  0  0  0  0  0  0
    8.5024  -13.3917   18.5606 C   0  0  0  0  0  0  0  0  0  0  0  0
    7.1808  -13.8820   18.9315 C   0  0  0  0  0  0  0  0  0  0  0  0
    6.9150  -15.1988   19.5174 C   0  0  0  0  0  0  0  0  0  0  0  0
    7.9494  -15.7525   20.3944 C   0  0  2  0  0  0  0  0  0  0  0  0
    8.3738  -17.0463   20.0375 N   0  0  0  0  0  0  0  0  0  0  0  0
    7.5458  -15.7508   21.8462 C   0  0  0  0  0  0  0  0  0  0  0  0
    7.1077  -14.6794   22.3404 O   0  0  0  0  0  0  0  0  0  0  0  0
    8.2058  -12.7626   15.0877 N   0  0  0  0  0  0  0  0  0  0  0  0
    7.9816  -20.4624   26.1826 C   0  0  0  0  0  0  0  0  0  0  0  0
    7.3200  -19.4068   26.8364 O   0  0  0  0  0  0  0  0  0  0  0  0
    6.9475  -19.5583   28.0207 C   0  0  0  0  0  0  0  0  0  0  0  0
    7.0679  -18.1458   26.1456 C   0  0  0  0  0  0  0  0  0  0  0  0
    7.5401  -18.2322   24.7054 C   0  0  2  0  0  0  0  0  0  0  0  0
    7.2678  -16.8872   24.0729 N   0  0  0  0  0  0  0  0  0  0  0  0
    7.6283  -16.8729   22.6840 C   0  0  0  0  0  0  0  0  0  0  0  0
    7.9481  -15.8599   24.8743 O   0  0  0  0  0  0  0  0  0  0  0  0
    9.1949  -15.7120   24.9500 C   0  0  0  0  0  0  0  0  0  0  0  0
    7.2648  -11.7587   27.5873 C   0  0  2  0  0  0  0  0  0  0  0  0
    6.6854  -12.9000   26.8086 C   0  0  0  0  0  0  0  0  0  0  0  0
    5.9626  -12.3228   25.6102 C   0  0  1  0  0  0  0  0  0  0  0  0
    7.7893  -13.8621   26.3626 N   0  0  0  0  0  0  0  0  0  0  0  0
    7.1440  -14.9579   25.6261 C   0  0  0  0  0  0  0  0  0  0  0  0
    8.4767  -14.3573   27.5635 O   0  0  0  0  0  0  0  0  0  0  0  0
    8.1612  -15.4632   28.0422 O   0  0  0  0  0  0  0  0  0  0  0  0
  2  1  1  0
  3  2  2  0
  4  2  1  0
  5  4  1  0
  6  5  1  0
  7  6  1  0
  8  7  1  0
  8  9  1  6
 10  8  1  0
 10 18  1  0
 11 10  2  0
 13 12  1  0
 14 13  2  0
 15 13  1  0
 16 15  1  0
 17 16  1  6
 17 18  1  0
 19 17  1  0
 20 19  2  0
 22 21  1  1
 22 23  1  0
 22 24  1  0
 24 26  1  0
 24 25  1  1
 25 19  1  0
 26 28  1  0
 27 26  2  0
M  END
$$$$
