RQV.pdb
     RDKit          3D

 28 27  0  0  1  0  0  0  0  0999 V2000
    8.8770  -13.7307   17.2739 N   0  0  0  0  0  0  0  0  0  0  0  0
    8.8389  -13.0007   18.4901 C   0  0  0  0  0  0  0  0  0  0  0  0
    9.8558  -12.3392   18.8838 N   0  0  0  0  0  0  0  0  0  0  0  0
    7.6433  -13.0102   19.2804 N   0  0  0  0  0  0  0  0  0  0  0  0
    7.2133  -14.1727   19.9840 C   0  0  0  0  0  0  0  0  0  0  0  0
    7.1332  -15.4696   19.3238 C   0  0  0  0  0  0  0  0  0  0  0  0
    6.5826  -16.6828   19.9347 C   0  0  0  0  0  0  0  0  0  0  0  0
    7.3925  -17.3260   20.9719 C   0  0  2  0  0  0  0  0  0  0  0  0
    7.4424  -18.7294   20.8748 N   0  0  0  0  0  0  0  0  0  0  0  0
    6.9655  -16.9448   22.3658 C   0  0  0  0  0  0  0  0  0  0  0  0
    5.8548  -16.3714   22.5116 O   0  0  0  0  0  0  0  0  0  0  0  0
    9.8115  -11.8158   19.7816 N   0  0  0  0  0  0  0  0  0  0  0  0
    7.4494  -20.2620   27.2782 C   0  0  0  0  0  0  0  0  0  0  0  0
    6.7564  -20.3119   26.0548 O   0  0  0  0  0  0  0  0  0  0  0  0
    6.2093  -21.3807   25.7047 C   0  0  0  0  0  0  0  0  0  0  0  0
    6.6732  -19.1325   25.1987 C   0  0  0  0  0  0  0  0  0  0  0  0
    7.4661  -17.9877   25.8029 C   0  0  2  0  0  0  0  0  0  0  0  0
    7.3506  -16.8219   24.8484 N   0  0  0  0  0  0  0  0  0  0  0  0
    7.7318  -17.1901   23.5149 C   0  0  0  0  0  0  0  0  0  0  0  0
    8.1255  -15.7015   25.4004 O   0  0  0  0  0  0  0  0  0  0  0  0
    9.3742  -15.5766   25.3154 C   0  0  0  0  0  0  0  0  0  0  0  0
    6.8815  -11.8768   25.5523 C   0  0  2  0  0  0  0  0  0  0  0  0
    7.2490  -12.4058   26.9049 C   0  0  0  0  0  0  0  0  0  0  0  0
    5.9681  -12.7842   27.6174 C   0  0  2  0  0  0  0  0  0  0  0  0
    8.1741  -13.6184   26.7750 N   0  0  0  0  0  0  0  0  0  0  0  0
    7.4187  -14.6736   26.0855 C   0  0  0  0  0  0  0  0  0  0  0  0
    8.5683  -14.0394   28.1267 O   0  0  0  0  0  0  0  0  0  0  0  0
    8.0572  -15.0587   28.6282 O   0  0  0  0  0  0  0  0  0  0  0  0
  2  1  1  0
  3  2  2  0
  4  2  1  0
  5  4  1  0
  6  5  1  0
  7  6  1  0
  8  7  1  0
  8  9  1  1
 10  8  1  0
 10 18  1  0
 11 10  2  0
 13 12  1  0
 14 13  2  0
 15 13  1  0
 16 15  1  0
 17 16  1  6
 17 18  1  0
 19 17  1  0
 20 19  2  0
 22 21  1  1
 22 23  1  0
 22 24  1  0
 24 26  1  0
 24 25  1  1
 25 19  1  0
 26 28  1  0
 27 26  2  0
M  END
$$$$
