RQV.pdb
     RDKit          3D

 28 27  0  0  1  0  0  0  0  0999 V2000
    8.6683  -15.1502   15.4203 N   0  0  0  0  0  0  0  0  0  0  0  0
    7.9459  -13.9724   15.0974 C   0  0  0  0  0  0  0  0  0  0  0  0
    8.1814  -13.3413   14.0143 N   0  0  0  0  0  0  0  0  0  0  0  0
    6.9425  -13.4912   16.0007 N   0  0  0  0  0  0  0  0  0  0  0  0
    6.4753  -14.2746   17.0958 C   0  0  0  0  0  0  0  0  0  0  0  0
    7.4031  -14.8761   18.0454 C   0  0  0  0  0  0  0  0  0  0  0  0
    7.6206  -14.3986   19.4140 C   0  0  0  0  0  0  0  0  0  0  0  0
    8.5579  -15.1639   20.2394 C   0  0  2  0  0  0  0  0  0  0  0  0
    8.7740  -16.4813   19.7931 N   0  0  0  0  0  0  0  0  0  0  0  0
    8.1632  -15.1960   21.6933 C   0  0  0  0  0  0  0  0  0  0  0  0
    7.8796  -14.1070   22.2568 O   0  0  0  0  0  0  0  0  0  0  0  0
    7.6404  -12.4807   13.7938 N   0  0  0  0  0  0  0  0  0  0  0  0
    7.8780  -20.1892   25.7117 C   0  0  0  0  0  0  0  0  0  0  0  0
    7.2684  -19.1204   26.3939 O   0  0  0  0  0  0  0  0  0  0  0  0
    6.7846  -19.3164   27.5304 C   0  0  0  0  0  0  0  0  0  0  0  0
    7.1979  -17.7945   25.7872 C   0  0  0  0  0  0  0  0  0  0  0  0
    7.8151  -17.8178   24.4005 C   0  0  2  0  0  0  0  0  0  0  0  0
    7.6570  -16.4290   23.8264 N   0  0  0  0  0  0  0  0  0  0  0  0
    8.0920  -16.3684   22.4603 C   0  0  0  0  0  0  0  0  0  0  0  0
    8.3525  -15.4863   24.7142 O   0  0  0  0  0  0  0  0  0  0  0  0
    9.6004  -15.4135   24.8540 C   0  0  0  0  0  0  0  0  0  0  0  0
    6.4660  -11.9292   25.6065 C   0  0  2  0  0  0  0  0  0  0  0  0
    7.1490  -12.5808   26.7699 C   0  0  0  0  0  0  0  0  0  0  0  0
    6.0958  -13.3128   27.5740 C   0  0  2  0  0  0  0  0  0  0  0  0
    8.2299  -13.5501   26.2850 N   0  0  0  0  0  0  0  0  0  0  0  0
    7.5631  -14.5819   25.4786 C   0  0  0  0  0  0  0  0  0  0  0  0
    8.8834  -14.1334   27.4650 O   0  0  0  0  0  0  0  0  0  0  0  0
    8.5717  -15.2804   27.8381 O   0  0  0  0  0  0  0  0  0  0  0  0
  2  1  1  0
  3  2  2  0
  4  2  1  0
  5  4  1  0
  6  5  1  0
  7  6  1  0
  8  7  1  0
  8  9  1  6
 10  8  1  0
 10 18  1  0
 11 10  2  0
 13 12  1  0
 14 13  2  0
 15 13  1  0
 16 15  1  0
 17 16  1  6
 17 18  1  0
 19 17  1  0
 20 19  2  0
 22 21  1  1
 22 23  1  0
 22 24  1  0
 24 26  1  0
 24 25  1  1
 25 19  1  0
 26 28  1  0
 27 26  2  0
M  END
$$$$
