RQV.pdb
     RDKit          3D

 28 27  0  0  1  0  0  0  0  0999 V2000
    9.6253  -14.4248   18.0994 N   0  0  0  0  0  0  0  0  0  0  0  0
    8.9742  -13.4023   17.3620 C   0  0  0  0  0  0  0  0  0  0  0  0
    9.6476  -12.4781   16.7972 N   0  0  0  0  0  0  0  0  0  0  0  0
    7.5450  -13.4128   17.2538 N   0  0  0  0  0  0  0  0  0  0  0  0
    6.7256  -14.1508   18.1566 C   0  0  0  0  0  0  0  0  0  0  0  0
    7.2302  -14.5852   19.4531 C   0  0  0  0  0  0  0  0  0  0  0  0
    6.4447  -15.3189   20.4495 C   0  0  0  0  0  0  0  0  0  0  0  0
    6.9680  -16.6187   20.8765 C   0  0  2  0  0  0  0  0  0  0  0  0
    6.3652  -17.7191   20.2384 N   0  0  0  0  0  0  0  0  0  0  0  0
    6.8952  -16.8155   22.3687 C   0  0  0  0  0  0  0  0  0  0  0  0
    5.7675  -16.7468   22.9232 O   0  0  0  0  0  0  0  0  0  0  0  0
    9.1508  -11.7153   16.2940 N   0  0  0  0  0  0  0  0  0  0  0  0
    6.0460  -20.2354   25.0965 C   0  0  0  0  0  0  0  0  0  0  0  0
    7.3365  -19.9603   25.5846 O   0  0  0  0  0  0  0  0  0  0  0  0
    7.5847  -20.1454   26.7964 C   0  0  0  0  0  0  0  0  0  0  0  0
    8.3793  -19.4641   24.6916 C   0  0  0  0  0  0  0  0  0  0  0  0
    8.9035  -18.1285   25.1873 C   0  0  2  0  0  0  0  0  0  0  0  0
    7.9981  -17.0622   24.6158 N   0  0  0  0  0  0  0  0  0  0  0  0
    8.0100  -17.0712   23.1809 C   0  0  0  0  0  0  0  0  0  0  0  0
    8.3834  -15.7721   25.2054 O   0  0  0  0  0  0  0  0  0  0  0  0
    9.4147  -15.1192   24.9016 C   0  0  0  0  0  0  0  0  0  0  0  0
    6.9102  -11.9470   27.9463 C   0  0  2  0  0  0  0  0  0  0  0  0
    6.6097  -13.2273   27.2287 C   0  0  0  0  0  0  0  0  0  0  0  0
    5.7847  -12.8894   26.0053 C   0  0  1  0  0  0  0  0  0  0  0  0
    7.9059  -13.9363   26.8280 N   0  0  0  0  0  0  0  0  0  0  0  0
    7.5316  -15.2096   26.1970 C   0  0  0  0  0  0  0  0  0  0  0  0
    8.7015  -14.1559   28.0440 O   0  0  0  0  0  0  0  0  0  0  0  0
    9.2141  -13.1829   28.6290 O   0  0  0  0  0  0  0  0  0  0  0  0
  2  1  1  0
  3  2  2  0
  4  2  1  0
  5  4  1  0
  6  5  1  0
  7  6  1  0
  8  7  1  0
  8  9  1  6
 10  8  1  0
 10 18  1  0
 11 10  2  0
 13 12  1  0
 14 13  2  0
 15 13  1  0
 16 15  1  0
 17 16  1  6
 17 18  1  0
 19 17  1  0
 20 19  2  0
 22 21  1  1
 22 23  1  0
 22 24  1  0
 24 26  1  0
 24 25  1  1
 25 19  1  0
 26 28  1  0
 27 26  2  0
M  END
$$$$
