RQV.pdb
     RDKit          3D

 28 27  0  0  1  0  0  0  0  0999 V2000
    8.7039  -15.6074   16.5851 N   0  0  0  0  0  0  0  0  0  0  0  0
    8.6015  -14.3273   15.9815 C   0  0  0  0  0  0  0  0  0  0  0  0
    8.5265  -14.2101   14.7137 N   0  0  0  0  0  0  0  0  0  0  0  0
    8.5826  -13.1575   16.8093 N   0  0  0  0  0  0  0  0  0  0  0  0
    8.5165  -13.2401   18.2306 C   0  0  0  0  0  0  0  0  0  0  0  0
    7.2713  -13.5718   18.9116 C   0  0  0  0  0  0  0  0  0  0  0  0
    7.1847  -14.1342   20.2623 C   0  0  0  0  0  0  0  0  0  0  0  0
    7.8949  -15.3930   20.5004 C   0  0  2  0  0  0  0  0  0  0  0  0
    7.3708  -16.4916   19.7934 N   0  0  0  0  0  0  0  0  0  0  0  0
    7.9823  -15.7461   21.9627 C   0  0  0  0  0  0  0  0  0  0  0  0
    6.9095  -15.9053   22.6012 O   0  0  0  0  0  0  0  0  0  0  0  0
    8.4789  -13.2623   14.2877 N   0  0  0  0  0  0  0  0  0  0  0  0
   11.3258  -20.1135   22.6732 C   0  0  0  0  0  0  0  0  0  0  0  0
   11.2500  -19.3302   23.8394 O   0  0  0  0  0  0  0  0  0  0  0  0
   12.2007  -19.3487   24.6518 C   0  0  0  0  0  0  0  0  0  0  0  0
   10.0771  -18.5025   24.1044 C   0  0  0  0  0  0  0  0  0  0  0  0
   10.4951  -17.0659   24.3612 C   0  0  2  0  0  0  0  0  0  0  0  0
    9.2944  -16.1990   24.0603 N   0  0  0  0  0  0  0  0  0  0  0  0
    9.1892  -15.9088   22.6589 C   0  0  0  0  0  0  0  0  0  0  0  0
    9.3704  -15.0029   24.9111 O   0  0  0  0  0  0  0  0  0  0  0  0
   10.2526  -14.1105   24.8244 C   0  0  0  0  0  0  0  0  0  0  0  0
    6.9844  -11.9785   27.9171 C   0  0  2  0  0  0  0  0  0  0  0  0
    7.0156  -13.1208   26.9483 C   0  0  0  0  0  0  0  0  0  0  0  0
    6.4932  -12.6157   25.6203 C   0  0  1  0  0  0  0  0  0  0  0  0
    8.4402  -13.6607   26.7991 N   0  0  0  0  0  0  0  0  0  0  0  0
    8.3743  -14.8312   25.9130 C   0  0  0  0  0  0  0  0  0  0  0  0
    8.9320  -14.0281   28.1343 O   0  0  0  0  0  0  0  0  0  0  0  0
    8.8939  -15.2187   28.4990 O   0  0  0  0  0  0  0  0  0  0  0  0
  2  1  1  0
  3  2  2  0
  4  2  1  0
  5  4  1  0
  6  5  1  0
  7  6  1  0
  8  7  1  0
  8  9  1  6
 10  8  1  0
 10 18  1  0
 11 10  2  0
 13 12  1  0
 14 13  2  0
 15 13  1  0
 16 15  1  0
 17 16  1  6
 17 18  1  0
 19 17  1  0
 20 19  2  0
 22 21  1  1
 22 23  1  0
 22 24  1  0
 24 26  1  0
 24 25  1  1
 25 19  1  0
 26 28  1  0
 27 26  2  0
M  END
$$$$
