RQV.pdb
     RDKit          3D

 28 27  0  0  1  0  0  0  0  0999 V2000
    9.4398  -13.3033   14.4256 N   0  0  0  0  0  0  0  0  0  0  0  0
    8.3166  -14.1686   14.3685 C   0  0  0  0  0  0  0  0  0  0  0  0
    7.9036  -14.6255   13.2517 N   0  0  0  0  0  0  0  0  0  0  0  0
    7.6430  -14.5296   15.5810 N   0  0  0  0  0  0  0  0  0  0  0  0
    8.1411  -14.1521   16.8618 C   0  0  0  0  0  0  0  0  0  0  0  0
    7.4205  -14.4899   18.0829 C   0  0  0  0  0  0  0  0  0  0  0  0
    7.7481  -13.9712   19.4140 C   0  0  0  0  0  0  0  0  0  0  0  0
    8.6689  -14.7701   20.2261 C   0  0  2  0  0  0  0  0  0  0  0  0
    9.0448  -15.9914   19.6355 N   0  0  0  0  0  0  0  0  0  0  0  0
    8.1434  -15.0361   21.6130 C   0  0  0  0  0  0  0  0  0  0  0  0
    7.5621  -14.0985   22.2187 O   0  0  0  0  0  0  0  0  0  0  0  0
    7.1094  -15.2970   13.2339 N   0  0  0  0  0  0  0  0  0  0  0  0
    6.6368  -20.1587   24.3608 C   0  0  0  0  0  0  0  0  0  0  0  0
    6.7517  -19.3245   25.4879 O   0  0  0  0  0  0  0  0  0  0  0  0
    6.1452  -19.6287   26.5385 C   0  0  0  0  0  0  0  0  0  0  0  0
    7.5683  -18.1156   25.4382 C   0  0  0  0  0  0  0  0  0  0  0  0
    8.1540  -17.9340   24.0494 C   0  0  2  0  0  0  0  0  0  0  0  0
    7.8312  -16.5221   23.6182 N   0  0  0  0  0  0  0  0  0  0  0  0
    8.2621  -16.2681   22.2732 C   0  0  0  0  0  0  0  0  0  0  0  0
    8.4030  -15.6001   24.6099 O   0  0  0  0  0  0  0  0  0  0  0  0
    9.6327  -15.4083   24.7921 C   0  0  0  0  0  0  0  0  0  0  0  0
    7.4325  -11.7763   27.5685 C   0  0  2  0  0  0  0  0  0  0  0  0
    6.9633  -12.8143   26.5954 C   0  0  0  0  0  0  0  0  0  0  0  0
    6.6348  -12.1138   25.2943 C   0  0  1  0  0  0  0  0  0  0  0  0
    8.0438  -13.8769   26.3798 N   0  0  0  0  0  0  0  0  0  0  0  0
    7.5055  -14.8627   25.4322 C   0  0  0  0  0  0  0  0  0  0  0  0
    8.3442  -14.4936   27.6795 O   0  0  0  0  0  0  0  0  0  0  0  0
    7.7216  -15.5116   28.0372 O   0  0  0  0  0  0  0  0  0  0  0  0
  2  1  1  0
  3  2  2  0
  4  2  1  0
  5  4  1  0
  6  5  1  0
  7  6  1  0
  8  7  1  0
  8  9  1  6
 10  8  1  0
 10 18  1  0
 11 10  2  0
 13 12  1  0
 14 13  2  0
 15 13  1  0
 16 15  1  0
 17 16  1  6
 17 18  1  0
 19 17  1  0
 20 19  2  0
 22 21  1  1
 22 23  1  0
 22 24  1  0
 24 26  1  0
 24 25  1  1
 25 19  1  0
 26 28  1  0
 27 26  2  0
M  END
$$$$
