RQV.pdb
     RDKit          3D

 28 27  0  0  1  0  0  0  0  0999 V2000
    8.3313  -12.5230   17.8824 N   0  0  0  0  0  0  0  0  0  0  0  0
    8.4636  -13.7828   17.2430 C   0  0  0  0  0  0  0  0  0  0  0  0
    8.5851  -13.8594   15.9757 N   0  0  0  0  0  0  0  0  0  0  0  0
    8.4601  -14.9781   18.0338 N   0  0  0  0  0  0  0  0  0  0  0  0
    8.0831  -14.9722   19.4083 C   0  0  0  0  0  0  0  0  0  0  0  0
    6.7113  -15.2470   19.8171 C   0  0  0  0  0  0  0  0  0  0  0  0
    6.1815  -16.5812   20.1125 C   0  0  0  0  0  0  0  0  0  0  0  0
    6.9468  -17.4023   21.0537 C   0  0  2  0  0  0  0  0  0  0  0  0
    6.6972  -18.7835   20.9466 N   0  0  0  0  0  0  0  0  0  0  0  0
    6.7561  -16.9782   22.4869 C   0  0  0  0  0  0  0  0  0  0  0  0
    5.8075  -16.1955   22.7543 O   0  0  0  0  0  0  0  0  0  0  0  0
    8.7209  -14.7886   15.5284 N   0  0  0  0  0  0  0  0  0  0  0  0
    8.4926  -20.3966   27.0695 C   0  0  0  0  0  0  0  0  0  0  0  0
    7.1348  -20.0321   27.0162 O   0  0  0  0  0  0  0  0  0  0  0  0
    6.2773  -20.7913   27.5187 C   0  0  0  0  0  0  0  0  0  0  0  0
    6.7246  -18.7826   26.3826 C   0  0  0  0  0  0  0  0  0  0  0  0
    7.9395  -18.0287   25.8725 C   0  0  2  0  0  0  0  0  0  0  0  0
    7.4329  -16.9802   24.9094 N   0  0  0  0  0  0  0  0  0  0  0  0
    7.5730  -17.4029   23.5453 C   0  0  0  0  0  0  0  0  0  0  0  0
    8.1153  -15.7142   25.2127 O   0  0  0  0  0  0  0  0  0  0  0  0
    9.3042  -15.4434   24.9042 C   0  0  0  0  0  0  0  0  0  0  0  0
    5.8939  -12.5581   27.1044 C   0  0  2  0  0  0  0  0  0  0  0  0
    7.0747  -12.3325   26.2103 C   0  0  0  0  0  0  0  0  0  0  0  0
    7.7169  -11.0224   26.6138 C   0  0  1  0  0  0  0  0  0  0  0  0
    8.0732  -13.4858   26.3368 N   0  0  0  0  0  0  0  0  0  0  0  0
    7.3839  -14.7108   25.9082 C   0  0  0  0  0  0  0  0  0  0  0  0
    8.4948  -13.5734   27.7419 O   0  0  0  0  0  0  0  0  0  0  0  0
    8.0007  -14.4467   28.4802 O   0  0  0  0  0  0  0  0  0  0  0  0
  2  1  1  0
  3  2  2  0
  4  2  1  0
  5  4  1  0
  6  5  1  0
  7  6  1  0
  8  7  1  0
  8  9  1  1
 10  8  1  0
 10 18  1  0
 11 10  2  0
 13 12  1  0
 14 13  2  0
 15 13  1  0
 16 15  1  0
 17 16  1  1
 17 18  1  0
 19 17  1  0
 20 19  2  0
 22 21  1  6
 22 23  1  0
 22 24  1  0
 24 26  1  0
 24 25  1  6
 25 19  1  0
 26 28  1  0
 27 26  2  0
M  END
$$$$
