RQV.pdb
     RDKit          3D

 28 27  0  0  1  0  0  0  0  0999 V2000
    8.2588  -12.1348   13.8084 N   0  0  0  0  0  0  0  0  0  0  0  0
    8.3659  -13.2564   14.6709 C   0  0  0  0  0  0  0  0  0  0  0  0
    8.5390  -14.4276   14.1964 N   0  0  0  0  0  0  0  0  0  0  0  0
    8.2780  -13.0660   16.0887 N   0  0  0  0  0  0  0  0  0  0  0  0
    8.4638  -14.1399   17.0070 C   0  0  0  0  0  0  0  0  0  0  0  0
    7.4791  -14.4285   18.0422 C   0  0  0  0  0  0  0  0  0  0  0  0
    7.7505  -14.3969   19.4821 C   0  0  0  0  0  0  0  0  0  0  0  0
    8.5972  -15.4652   20.0183 C   0  0  2  0  0  0  0  0  0  0  0  0
    8.5538  -16.6605   19.2761 N   0  0  0  0  0  0  0  0  0  0  0  0
    8.3027  -15.7732   21.4636 C   0  0  0  0  0  0  0  0  0  0  0  0
    7.0997  -15.8942   21.8128 O   0  0  0  0  0  0  0  0  0  0  0  0
    8.6586  -14.5534   13.1708 N   0  0  0  0  0  0  0  0  0  0  0  0
   11.2936  -19.5970   24.9324 C   0  0  0  0  0  0  0  0  0  0  0  0
   10.3426  -19.7209   23.9031 O   0  0  0  0  0  0  0  0  0  0  0  0
   10.1745  -20.8329   23.3560 C   0  0  0  0  0  0  0  0  0  0  0  0
    9.5571  -18.5679   23.4736 C   0  0  0  0  0  0  0  0  0  0  0  0
    9.8840  -17.3600   24.3330 C   0  0  2  0  0  0  0  0  0  0  0  0
    9.0302  -16.2193   23.8298 N   0  0  0  0  0  0  0  0  0  0  0  0
    9.2896  -15.9340   22.4475 C   0  0  0  0  0  0  0  0  0  0  0  0
    9.2329  -15.0692   24.7224 O   0  0  0  0  0  0  0  0  0  0  0  0
   10.2889  -14.3898   24.7955 C   0  0  0  0  0  0  0  0  0  0  0  0
    7.2597  -11.9379   25.1991 C   0  0  2  0  0  0  0  0  0  0  0  0
    7.2294  -12.6611   26.5108 C   0  0  0  0  0  0  0  0  0  0  0  0
    5.8975  -13.3729   26.6161 C   0  0  2  0  0  0  0  0  0  0  0  0
    8.3853  -13.6605   26.6008 N   0  0  0  0  0  0  0  0  0  0  0  0
    8.1583  -14.6863   25.5733 C   0  0  0  0  0  0  0  0  0  0  0  0
    8.3807  -14.2446   27.9493 O   0  0  0  0  0  0  0  0  0  0  0  0
    7.9544  -15.4029   28.1177 O   0  0  0  0  0  0  0  0  0  0  0  0
  2  1  1  0
  3  2  2  0
  4  2  1  0
  5  4  1  0
  6  5  1  0
  7  6  1  0
  8  7  1  0
  8  9  1  6
 10  8  1  0
 10 18  1  0
 11 10  2  0
 13 12  1  0
 14 13  2  0
 15 13  1  0
 16 15  1  0
 17 16  1  6
 17 18  1  0
 19 17  1  0
 20 19  2  0
 22 21  1  1
 22 23  1  0
 22 24  1  0
 24 26  1  0
 24 25  1  1
 25 19  1  0
 26 28  1  0
 27 26  2  0
M  END
$$$$
