RQV.pdb
     RDKit          3D

 28 27  0  0  1  0  0  0  0  0999 V2000
    8.1395  -15.5705   15.9036 N   0  0  0  0  0  0  0  0  0  0  0  0
    8.3460  -14.1840   15.6841 C   0  0  0  0  0  0  0  0  0  0  0  0
    8.4130  -13.7158   14.4996 N   0  0  0  0  0  0  0  0  0  0  0  0
    8.4801  -13.3050   16.8082 N   0  0  0  0  0  0  0  0  0  0  0  0
    8.2470  -13.7466   18.1431 C   0  0  0  0  0  0  0  0  0  0  0  0
    6.8941  -13.9350   18.6517 C   0  0  0  0  0  0  0  0  0  0  0  0
    6.5680  -14.5282   19.9517 C   0  0  0  0  0  0  0  0  0  0  0  0
    7.6342  -15.2754   20.6229 C   0  0  2  0  0  0  0  0  0  0  0  0
    7.8411  -16.5693   20.1088 N   0  0  0  0  0  0  0  0  0  0  0  0
    7.4344  -15.3651   22.1138 C   0  0  0  0  0  0  0  0  0  0  0  0
    7.0858  -14.3251   22.7308 O   0  0  0  0  0  0  0  0  0  0  0  0
    8.6408  -12.7109   14.3570 N   0  0  0  0  0  0  0  0  0  0  0  0
    7.9883  -20.4651   25.9670 C   0  0  0  0  0  0  0  0  0  0  0  0
    7.4898  -19.4288   26.7774 O   0  0  0  0  0  0  0  0  0  0  0  0
    7.1836  -19.6741   27.9650 C   0  0  0  0  0  0  0  0  0  0  0  0
    7.3292  -18.0794   26.2442 C   0  0  0  0  0  0  0  0  0  0  0  0
    7.6954  -18.0496   24.7713 C   0  0  2  0  0  0  0  0  0  0  0  0
    7.3990  -16.6540   24.2735 N   0  0  0  0  0  0  0  0  0  0  0  0
    7.6136  -16.5399   22.8592 C   0  0  0  0  0  0  0  0  0  0  0  0
    8.1890  -15.7069   25.0730 O   0  0  0  0  0  0  0  0  0  0  0  0
    9.4456  -15.6569   25.0988 C   0  0  0  0  0  0  0  0  0  0  0  0
    7.1633  -11.9044   25.5085 C   0  0  2  0  0  0  0  0  0  0  0  0
    7.3858  -12.5526   26.8407 C   0  0  0  0  0  0  0  0  0  0  0  0
    6.0305  -12.9030   27.4169 C   0  0  2  0  0  0  0  0  0  0  0  0
    8.2504  -13.8069   26.6909 N   0  0  0  0  0  0  0  0  0  0  0  0
    7.4886  -14.7700   25.8837 C   0  0  0  0  0  0  0  0  0  0  0  0
    8.5261  -14.3351   28.0343 O   0  0  0  0  0  0  0  0  0  0  0  0
    7.9553  -15.3742   28.4169 O   0  0  0  0  0  0  0  0  0  0  0  0
  2  1  1  0
  3  2  2  0
  4  2  1  0
  5  4  1  0
  6  5  1  0
  7  6  1  0
  8  7  1  0
  8  9  1  6
 10  8  1  0
 10 18  1  0
 11 10  2  0
 13 12  1  0
 14 13  2  0
 15 13  1  0
 16 15  1  0
 17 16  1  6
 17 18  1  0
 19 17  1  0
 20 19  2  0
 22 21  1  1
 22 23  1  0
 22 24  1  0
 24 26  1  0
 24 25  1  1
 25 19  1  0
 26 28  1  0
 27 26  2  0
M  END
$$$$
