RQV.pdb
     RDKit          3D

 28 27  0  0  1  0  0  0  0  0999 V2000
   10.0384  -13.7219   19.5605 N   0  0  0  0  0  0  0  0  0  0  0  0
    8.8999  -13.3941   18.7796 C   0  0  0  0  0  0  0  0  0  0  0  0
    9.0111  -13.1734   17.5284 N   0  0  0  0  0  0  0  0  0  0  0  0
    7.6145  -13.3113   19.4081 N   0  0  0  0  0  0  0  0  0  0  0  0
    7.0000  -14.4421   20.0205 C   0  0  0  0  0  0  0  0  0  0  0  0
    7.2097  -15.7888   19.5039 C   0  0  0  0  0  0  0  0  0  0  0  0
    7.6916  -16.9209   20.3003 C   0  0  0  0  0  0  0  0  0  0  0  0
    6.6844  -17.6824   21.0428 C   0  0  2  0  0  0  0  0  0  0  0  0
    5.3892  -17.6079   20.4967 N   0  0  0  0  0  0  0  0  0  0  0  0
    6.6256  -17.3057   22.5006 C   0  0  0  0  0  0  0  0  0  0  0  0
    5.5756  -16.7627   22.9326 O   0  0  0  0  0  0  0  0  0  0  0  0
    8.1920  -12.8173   16.9952 N   0  0  0  0  0  0  0  0  0  0  0  0
    9.5758  -20.0146   27.3316 C   0  0  0  0  0  0  0  0  0  0  0  0
    8.8091  -18.9890   27.9143 O   0  0  0  0  0  0  0  0  0  0  0  0
    8.7269  -18.9189   29.1603 C   0  0  0  0  0  0  0  0  0  0  0  0
    8.1143  -18.0138   27.0792 C   0  0  0  0  0  0  0  0  0  0  0  0
    8.3681  -18.3041   25.6109 C   0  0  2  0  0  0  0  0  0  0  0  0
    7.5980  -17.2720   24.8201 N   0  0  0  0  0  0  0  0  0  0  0  0
    7.6720  -17.5232   23.4092 C   0  0  0  0  0  0  0  0  0  0  0  0
    8.0823  -15.9411   25.2133 O   0  0  0  0  0  0  0  0  0  0  0  0
    9.1519  -15.4149   24.8121 C   0  0  0  0  0  0  0  0  0  0  0  0
    6.9423  -11.7884   27.6851 C   0  0  2  0  0  0  0  0  0  0  0  0
    6.5448  -13.1430   27.1836 C   0  0  0  0  0  0  0  0  0  0  0  0
    5.4034  -12.9581   26.2066 C   0  0  1  0  0  0  0  0  0  0  0  0
    7.7302  -13.8348   26.5057 N   0  0  0  0  0  0  0  0  0  0  0  0
    7.2877  -15.1810   26.1167 C   0  0  0  0  0  0  0  0  0  0  0  0
    8.8374  -13.8939   27.4702 O   0  0  0  0  0  0  0  0  0  0  0  0
    9.0551  -14.9497   28.0945 O   0  0  0  0  0  0  0  0  0  0  0  0
  2  1  1  0
  3  2  2  0
  4  2  1  0
  5  4  1  0
  6  5  1  0
  7  6  1  0
  8  7  1  0
  8  9  1  6
 10  8  1  0
 10 18  1  0
 11 10  2  0
 13 12  1  0
 14 13  2  0
 15 13  1  0
 16 15  1  0
 17 16  1  1
 17 18  1  0
 19 17  1  0
 20 19  2  0
 22 21  1  1
 22 23  1  0
 22 24  1  0
 24 26  1  0
 24 25  1  1
 25 19  1  0
 26 28  1  0
 27 26  2  0
M  END
$$$$
