RQV.pdb
     RDKit          3D

 28 27  0  0  1  0  0  0  0  0999 V2000
   14.1078  -18.9526   23.6708 N   0  0  0  0  0  0  0  0  0  0  0  0
   12.9320  -19.5188   24.2279 C   0  0  0  0  0  0  0  0  0  0  0  0
   12.5928  -19.2615   25.4302 N   0  0  0  0  0  0  0  0  0  0  0  0
   12.1208  -20.3879   23.4273 N   0  0  0  0  0  0  0  0  0  0  0  0
   11.8094  -20.0898   22.0689 C   0  0  0  0  0  0  0  0  0  0  0  0
   10.9920  -18.9357   21.7163 C   0  0  0  0  0  0  0  0  0  0  0  0
   11.3451  -17.9456   20.6950 C   0  0  0  0  0  0  0  0  0  0  0  0
   10.4321  -16.8119   20.5306 C   0  0  2  0  0  0  0  0  0  0  0  0
   10.7873  -15.9339   19.4893 N   0  0  0  0  0  0  0  0  0  0  0  0
   10.2498  -16.0207   21.7999 C   0  0  0  0  0  0  0  0  0  0  0  0
   11.1397  -15.1883   22.1149 O   0  0  0  0  0  0  0  0  0  0  0  0
   11.7298  -19.6893   25.8228 N   0  0  0  0  0  0  0  0  0  0  0  0
    5.4334  -13.2387   26.5164 C   0  0  0  0  0  0  0  0  0  0  0  0
    5.9412  -14.3785   25.8666 O   0  0  0  0  0  0  0  0  0  0  0  0
    5.1924  -15.3636   25.6848 C   0  0  0  0  0  0  0  0  0  0  0  0
    7.3261  -14.4174   25.4069 C   0  0  0  0  0  0  0  0  0  0  0  0
    7.4686  -15.3900   24.2501 C   0  0  2  0  0  0  0  0  0  0  0  0
    8.9206  -15.3652   23.8323 N   0  0  0  0  0  0  0  0  0  0  0  0
    9.1460  -16.1546   22.6553 C   0  0  0  0  0  0  0  0  0  0  0  0
    9.7346  -15.7727   24.9863 O   0  0  0  0  0  0  0  0  0  0  0  0
   10.3320  -16.8742   25.0951 C   0  0  0  0  0  0  0  0  0  0  0  0
   11.1022  -14.5991   29.6039 C   0  0  2  0  0  0  0  0  0  0  0  0
   10.3099  -14.2792   28.3733 C   0  0  0  0  0  0  0  0  0  0  0  0
   10.6113  -12.8465   27.9884 C   0  0  1  0  0  0  0  0  0  0  0  0
   10.6767  -15.2338   27.2342 N   0  0  0  0  0  0  0  0  0  0  0  0
    9.8635  -14.8583   26.0692 C   0  0  0  0  0  0  0  0  0  0  0  0
   10.3805  -16.6046   27.6734 O   0  0  0  0  0  0  0  0  0  0  0  0
    9.2134  -17.0347   27.6057 O   0  0  0  0  0  0  0  0  0  0  0  0
  2  1  1  0
  3  2  2  0
  4  2  1  0
  5  4  1  0
  6  5  1  0
  7  6  1  0
  8  7  1  0
  8  9  1  6
 10  8  1  0
 10 18  1  0
 11 10  2  0
 13 12  1  0
 14 13  2  0
 15 13  1  0
 16 15  1  0
 17 16  1  6
 17 18  1  0
 19 17  1  0
 20 19  2  0
 22 21  1  1
 22 23  1  0
 22 24  1  0
 24 26  1  0
 24 25  1  1
 25 19  1  0
 26 28  1  0
 27 26  2  0
M  END
$$$$
