RQV.pdb
     RDKit          3D

 28 27  0  0  1  0  0  0  0  0999 V2000
    8.6528  -14.9917   16.9070 N   0  0  0  0  0  0  0  0  0  0  0  0
    8.5905  -14.0585   17.9741 C   0  0  0  0  0  0  0  0  0  0  0  0
    8.3340  -12.8296   17.7494 N   0  0  0  0  0  0  0  0  0  0  0  0
    8.8190  -14.5067   19.3162 N   0  0  0  0  0  0  0  0  0  0  0  0
    7.9825  -15.4774   19.9400 C   0  0  0  0  0  0  0  0  0  0  0  0
    6.5379  -15.2970   20.0109 C   0  0  0  0  0  0  0  0  0  0  0  0
    5.6371  -16.1045   20.8384 C   0  0  0  0  0  0  0  0  0  0  0  0
    6.1999  -17.3167   21.4379 C   0  0  2  0  0  0  0  0  0  0  0  0
    5.6030  -18.5103   20.9900 N   0  0  0  0  0  0  0  0  0  0  0  0
    6.1732  -17.2892   22.9443 C   0  0  0  0  0  0  0  0  0  0  0  0
    5.0562  -17.2046   23.5179 O   0  0  0  0  0  0  0  0  0  0  0  0
    8.3970  -12.1415   18.5270 N   0  0  0  0  0  0  0  0  0  0  0  0
    9.0760  -20.2613   27.2571 C   0  0  0  0  0  0  0  0  0  0  0  0
    7.7179  -20.3320   26.8969 O   0  0  0  0  0  0  0  0  0  0  0  0
    7.0492  -21.3365   27.2256 C   0  0  0  0  0  0  0  0  0  0  0  0
    7.0898  -19.2480   26.1476 C   0  0  0  0  0  0  0  0  0  0  0  0
    8.0766  -18.1136   25.9382 C   0  0  2  0  0  0  0  0  0  0  0  0
    7.3554  -17.0443   25.1509 N   0  0  0  0  0  0  0  0  0  0  0  0
    7.3200  -17.3521   23.7497 C   0  0  0  0  0  0  0  0  0  0  0  0
    7.9805  -15.7503   25.4598 O   0  0  0  0  0  0  0  0  0  0  0  0
    8.9885  -15.2778   24.8743 C   0  0  0  0  0  0  0  0  0  0  0  0
    7.4501  -11.4501   27.8143 C   0  0  2  0  0  0  0  0  0  0  0  0
    6.8919  -12.7480   27.3158 C   0  0  0  0  0  0  0  0  0  0  0  0
    5.9377  -12.4365   26.1826 C   0  0  1  0  0  0  0  0  0  0  0  0
    8.0171  -13.6691   26.8375 N   0  0  0  0  0  0  0  0  0  0  0  0
    7.4094  -14.9636   26.4991 C   0  0  0  0  0  0  0  0  0  0  0  0
    8.9915  -13.8051   27.9292 O   0  0  0  0  0  0  0  0  0  0  0  0
    8.9533  -14.8074   28.6680 O   0  0  0  0  0  0  0  0  0  0  0  0
  2  1  1  0
  3  2  2  0
  4  2  1  0
  5  4  1  0
  6  5  1  0
  7  6  1  0
  8  7  1  0
  8  9  1  6
 10  8  1  0
 10 18  1  0
 11 10  2  0
 13 12  1  0
 14 13  2  0
 15 13  1  0
 16 15  1  0
 17 16  1  1
 17 18  1  0
 19 17  1  0
 20 19  2  0
 22 21  1  1
 22 23  1  0
 22 24  1  0
 24 26  1  0
 24 25  1  1
 25 19  1  0
 26 28  1  0
 27 26  2  0
M  END
$$$$
