RQV.pdb
     RDKit          3D

 28 27  0  0  1  0  0  0  0  0999 V2000
    8.6021  -13.0025   17.8291 N   0  0  0  0  0  0  0  0  0  0  0  0
    8.3253  -12.8644   19.2139 C   0  0  0  0  0  0  0  0  0  0  0  0
    8.8673  -11.9327   19.8957 N   0  0  0  0  0  0  0  0  0  0  0  0
    7.4270  -13.7837   19.8480 N   0  0  0  0  0  0  0  0  0  0  0  0
    7.2736  -15.1249   19.3911 C   0  0  0  0  0  0  0  0  0  0  0  0
    6.9992  -16.2136   20.3206 C   0  0  0  0  0  0  0  0  0  0  0  0
    5.6859  -16.8359   20.5104 C   0  0  0  0  0  0  0  0  0  0  0  0
    5.6111  -17.9418   21.4680 C   0  0  2  0  0  0  0  0  0  0  0  0
    4.4268  -18.6978   21.3821 N   0  0  0  0  0  0  0  0  0  0  0  0
    5.8058  -17.4937   22.8934 C   0  0  0  0  0  0  0  0  0  0  0  0
    4.8267  -16.9797   23.4942 O   0  0  0  0  0  0  0  0  0  0  0  0
    8.6659  -11.8577   20.9135 N   0  0  0  0  0  0  0  0  0  0  0  0
    9.4714  -20.0820   27.2156 C   0  0  0  0  0  0  0  0  0  0  0  0
    8.7424  -19.0949   27.9040 O   0  0  0  0  0  0  0  0  0  0  0  0
    8.7984  -19.0523   29.1527 C   0  0  0  0  0  0  0  0  0  0  0  0
    7.9276  -18.1280   27.1746 C   0  0  0  0  0  0  0  0  0  0  0  0
    7.8900  -18.4801   25.6984 C   0  0  2  0  0  0  0  0  0  0  0  0
    7.1804  -17.3467   24.9948 N   0  0  0  0  0  0  0  0  0  0  0  0
    7.0148  -17.6141   23.5947 C   0  0  0  0  0  0  0  0  0  0  0  0
    7.9108  -16.1036   25.2803 O   0  0  0  0  0  0  0  0  0  0  0  0
    8.9951  -15.7636   24.7410 C   0  0  0  0  0  0  0  0  0  0  0  0
    6.2474  -12.5487   25.8474 C   0  0  2  0  0  0  0  0  0  0  0  0
    7.0938  -12.9368   27.0210 C   0  0  0  0  0  0  0  0  0  0  0  0
    6.1727  -13.4555   28.1045 C   0  0  2  0  0  0  0  0  0  0  0  0
    8.1124  -14.0065   26.6193 N   0  0  0  0  0  0  0  0  0  0  0  0
    7.3578  -15.2088   26.2389 C   0  0  0  0  0  0  0  0  0  0  0  0
    8.9833  -14.2652   27.7744 O   0  0  0  0  0  0  0  0  0  0  0  0
    8.8113  -15.2922   28.4581 O   0  0  0  0  0  0  0  0  0  0  0  0
  2  1  1  0
  3  2  2  0
  4  2  1  0
  5  4  1  0
  6  5  1  0
  7  6  1  0
  8  7  1  0
  8  9  1  1
 10  8  1  0
 10 18  1  0
 11 10  2  0
 13 12  1  0
 14 13  2  0
 15 13  1  0
 16 15  1  0
 17 16  1  1
 17 18  1  0
 19 17  1  0
 20 19  2  0
 22 21  1  1
 22 23  1  0
 22 24  1  0
 24 26  1  0
 24 25  1  1
 25 19  1  0
 26 28  1  0
 27 26  2  0
M  END
$$$$
