RQV.pdb
     RDKit          3D

 28 27  0  0  1  0  0  0  0  0999 V2000
   10.1093  -14.0238   16.1085 N   0  0  0  0  0  0  0  0  0  0  0  0
    8.8442  -13.8821   16.7352 C   0  0  0  0  0  0  0  0  0  0  0  0
    7.7802  -14.2684   16.1474 N   0  0  0  0  0  0  0  0  0  0  0  0
    8.7666  -13.2981   18.0418 N   0  0  0  0  0  0  0  0  0  0  0  0
    7.5757  -13.3526   18.8228 C   0  0  0  0  0  0  0  0  0  0  0  0
    7.0478  -14.6212   19.3092 C   0  0  0  0  0  0  0  0  0  0  0  0
    7.3473  -15.1996   20.6222 C   0  0  0  0  0  0  0  0  0  0  0  0
    6.7307  -16.4920   20.9308 C   0  0  2  0  0  0  0  0  0  0  0  0
    5.5306  -16.7368   20.2371 N   0  0  0  0  0  0  0  0  0  0  0  0
    6.4945  -16.6884   22.4060 C   0  0  0  0  0  0  0  0  0  0  0  0
    5.3833  -16.3387   22.8821 O   0  0  0  0  0  0  0  0  0  0  0  0
    6.8910  -14.3296   16.6836 N   0  0  0  0  0  0  0  0  0  0  0  0
    8.9172  -20.5812   26.7315 C   0  0  0  0  0  0  0  0  0  0  0  0
    8.2492  -19.5917   27.4759 O   0  0  0  0  0  0  0  0  0  0  0  0
    8.1496  -19.7217   28.7158 C   0  0  0  0  0  0  0  0  0  0  0  0
    7.6762  -18.4235   26.8142 C   0  0  0  0  0  0  0  0  0  0  0  0
    7.9014  -18.5056   25.3152 C   0  0  2  0  0  0  0  0  0  0  0  0
    7.3226  -17.2454   24.7148 N   0  0  0  0  0  0  0  0  0  0  0  0
    7.4396  -17.2387   23.2846 C   0  0  0  0  0  0  0  0  0  0  0  0
    7.9601  -16.0938   25.3689 O   0  0  0  0  0  0  0  0  0  0  0  0
    9.1688  -15.7697   25.2419 C   0  0  0  0  0  0  0  0  0  0  0  0
    7.1902  -12.0975   28.2107 C   0  0  2  0  0  0  0  0  0  0  0  0
    6.6395  -13.2875   27.4860 C   0  0  0  0  0  0  0  0  0  0  0  0
    5.7365  -12.7798   26.3821 C   0  0  1  0  0  0  0  0  0  0  0  0
    7.7737  -14.1380   26.9087 N   0  0  0  0  0  0  0  0  0  0  0  0
    7.1572  -15.2759   26.2126 C   0  0  0  0  0  0  0  0  0  0  0  0
    8.6202  -14.5878   28.0227 O   0  0  0  0  0  0  0  0  0  0  0  0
    8.3995  -15.6908   28.5580 O   0  0  0  0  0  0  0  0  0  0  0  0
  2  1  1  0
  3  2  2  0
  4  2  1  0
  5  4  1  0
  6  5  1  0
  7  6  1  0
  8  7  1  0
  8  9  1  6
 10  8  1  0
 10 18  1  0
 11 10  2  0
 13 12  1  0
 14 13  2  0
 15 13  1  0
 16 15  1  0
 17 16  1  6
 17 18  1  0
 19 17  1  0
 20 19  2  0
 22 21  1  1
 22 23  1  0
 22 24  1  0
 24 26  1  0
 24 25  1  1
 25 19  1  0
 26 28  1  0
 27 26  2  0
M  END
$$$$
