RQV.pdb
     RDKit          3D

 28 27  0  0  1  0  0  0  0  0999 V2000
    7.5453  -13.7283   14.4510 N   0  0  0  0  0  0  0  0  0  0  0  0
    7.9957  -13.8112   15.7940 C   0  0  0  0  0  0  0  0  0  0  0  0
    8.0250  -12.7739   16.5354 N   0  0  0  0  0  0  0  0  0  0  0  0
    8.4210  -15.0757   16.3177 N   0  0  0  0  0  0  0  0  0  0  0  0
    8.0447  -15.5182   17.6192 C   0  0  0  0  0  0  0  0  0  0  0  0
    7.1956  -14.7031   18.4788 C   0  0  0  0  0  0  0  0  0  0  0  0
    6.8144  -15.0559   19.8493 C   0  0  0  0  0  0  0  0  0  0  0  0
    7.7824  -15.8357   20.6242 C   0  0  2  0  0  0  0  0  0  0  0  0
    7.9496  -17.1581   20.1717 N   0  0  0  0  0  0  0  0  0  0  0  0
    7.4690  -15.8565   22.0979 C   0  0  0  0  0  0  0  0  0  0  0  0
    7.1496  -14.7733   22.6533 O   0  0  0  0  0  0  0  0  0  0  0  0
    8.2986  -12.8648   17.5348 N   0  0  0  0  0  0  0  0  0  0  0  0
    7.6925  -20.7728   26.2130 C   0  0  0  0  0  0  0  0  0  0  0  0
    7.2786  -19.6639   26.9735 O   0  0  0  0  0  0  0  0  0  0  0  0
    7.0464  -19.8111   28.1936 C   0  0  0  0  0  0  0  0  0  0  0  0
    7.1199  -18.3530   26.3513 C   0  0  0  0  0  0  0  0  0  0  0  0
    7.4941  -18.4203   24.8816 C   0  0  2  0  0  0  0  0  0  0  0  0
    7.2347  -17.0501   24.2995 N   0  0  0  0  0  0  0  0  0  0  0  0
    7.5113  -17.0122   22.8919 C   0  0  0  0  0  0  0  0  0  0  0  0
    7.9998  -16.0693   25.0824 O   0  0  0  0  0  0  0  0  0  0  0  0
    9.2539  -15.9720   25.0897 C   0  0  0  0  0  0  0  0  0  0  0  0
    7.6355  -11.8649   27.6688 C   0  0  2  0  0  0  0  0  0  0  0  0
    6.9914  -12.9650   26.8817 C   0  0  0  0  0  0  0  0  0  0  0  0
    6.4648  -12.3662   25.5949 C   0  0  1  0  0  0  0  0  0  0  0  0
    8.0007  -14.0776   26.5871 N   0  0  0  0  0  0  0  0  0  0  0  0
    7.2763  -15.1547   25.8982 C   0  0  0  0  0  0  0  0  0  0  0  0
    8.5569  -14.5405   27.8662 O   0  0  0  0  0  0  0  0  0  0  0  0
    8.1381  -15.5983   28.3735 O   0  0  0  0  0  0  0  0  0  0  0  0
  2  1  1  0
  3  2  2  0
  4  2  1  0
  5  4  1  0
  6  5  1  0
  7  6  1  0
  8  7  1  0
  8  9  1  6
 10  8  1  0
 10 18  1  0
 11 10  2  0
 13 12  1  0
 14 13  2  0
 15 13  1  0
 16 15  1  0
 17 16  1  6
 17 18  1  0
 19 17  1  0
 20 19  2  0
 22 21  1  1
 22 23  1  0
 22 24  1  0
 24 26  1  0
 24 25  1  1
 25 19  1  0
 26 28  1  0
 27 26  2  0
M  END
$$$$
