TRA.pdb
     RDKit          3D

 24 23  0  0  1  0  0  0  0  0999 V2000
   17.4641  -31.9495   -4.9367 C   0  0  0  0  0  0  0  0  0  0  0  0
   16.7634  -32.5844   -6.1210 C   0  0  1  0  0  0  0  0  0  0  0  0
   15.6811  -31.8289   -6.5192 O   0  0  0  0  0  0  0  0  0  0  0  0
   17.7116  -32.9562   -7.2215 C   0  0  2  0  0  0  0  0  0  0  0  0
   16.9444  -33.5585   -8.2895 N   0  0  0  0  0  0  0  0  0  0  0  0
   18.8404  -33.7960   -6.7533 C   0  0  0  0  0  0  0  0  0  0  0  0
   18.6363  -35.0212   -6.6661 O   0  0  0  0  0  0  0  0  0  0  0  0
   26.8409  -32.2148   -9.0347 N   0  0  0  0  0  0  0  0  0  0  0  0
   26.0279  -33.1258   -9.7978 C   0  0  0  0  0  0  0  0  0  0  0  0
   26.4167  -33.5662  -10.9367 N   0  0  0  0  0  0  0  0  0  0  0  0
   24.7632  -33.5516   -9.2840 N   0  0  0  0  0  0  0  0  0  0  0  0
   24.3611  -33.2277   -7.9284 C   0  0  0  0  0  0  0  0  0  0  0  0
   22.9946  -33.8559   -7.6213 C   0  0  0  0  0  0  0  0  0  0  0  0
   22.5761  -33.5177   -6.2058 C   0  0  0  0  0  0  0  0  0  0  0  0
   21.2319  -34.0775   -5.9577 C   0  0  2  0  0  0  0  0  0  0  0  0
   20.1108  -33.3233   -6.4035 N   0  0  0  0  0  0  0  0  0  0  0  0
   21.0648  -34.3419   -4.5085 C   0  0  0  0  0  0  0  0  0  0  0  0
   20.8461  -33.3274   -3.7709 O   0  0  0  0  0  0  0  0  0  0  0  0
   25.7955  -34.1673  -11.4952 C   0  0  0  0  0  0  0  0  0  0  0  0
   20.0874  -37.0316   -2.2158 C   0  0  1  0  0  0  0  0  0  0  0  0
   20.8817  -35.7586   -2.5016 N   0  0  0  0  0  0  0  0  0  0  0  0
   21.1358  -35.6317   -3.9273 C   0  0  0  0  0  0  0  0  0  0  0  0
   22.1973  -35.8600   -1.8070 O   0  0  0  0  0  0  0  0  0  0  0  0
   23.2783  -35.9478   -2.4820 O   0  0  0  0  0  0  0  0  0  0  0  0
  2  1  1  1
  2  3  1  0
  4  2  1  0
  4  6  1  0
  4  5  1  6
  6  7  2  0
  8  9  1  0
  9 11  1  0
 10  9  2  0
 11 12  1  0
 12 13  1  0
 13 14  1  0
 15 14  1  1
 16  6  1  0
 16 15  1  0
 17 21  1  0
 17 15  1  0
 18 17  2  0
 20 21  1  0
 20 19  1  6
 22 20  1  0
 22 24  1  0
 23 22  2  0
M  END
$$$$
