TRA.pdb
     RDKit          3D

 24 23  0  0  1  0  0  0  0  0999 V2000
   27.8454  -10.4399  -15.5469 C   0  0  0  0  0  0  0  0  0  0  0  0
   28.2871  -11.3399  -16.6834 C   0  0  1  0  0  0  0  0  0  0  0  0
   29.6495  -11.5487  -16.6487 O   0  0  0  0  0  0  0  0  0  0  0  0
   27.4609  -12.5869  -16.7870 C   0  0  2  0  0  0  0  0  0  0  0  0
   28.0670  -13.4447  -17.7815 N   0  0  0  0  0  0  0  0  0  0  0  0
   26.0254  -12.3106  -17.0353 C   0  0  0  0  0  0  0  0  0  0  0  0
   25.6997  -12.0105  -18.1989 O   0  0  0  0  0  0  0  0  0  0  0  0
   17.8834  -15.0084  -14.6463 N   0  0  0  0  0  0  0  0  0  0  0  0
   17.7216  -13.7344  -15.2974 C   0  0  0  0  0  0  0  0  0  0  0  0
   16.5580  -13.2742  -15.5735 N   0  0  0  0  0  0  0  0  0  0  0  0
   18.8738  -12.9626  -15.6460 N   0  0  0  0  0  0  0  0  0  0  0  0
   20.2114  -13.4537  -15.3739 C   0  0  0  0  0  0  0  0  0  0  0  0
   21.2540  -12.4839  -15.9473 C   0  0  0  0  0  0  0  0  0  0  0  0
   22.6499  -12.9914  -15.6522 C   0  0  0  0  0  0  0  0  0  0  0  0
   23.6325  -12.0550  -16.2350 C   0  0  2  0  0  0  0  0  0  0  0  0
   25.0124  -12.3602  -16.0702 N   0  0  0  0  0  0  0  0  0  0  0  0
   23.3936  -10.6918  -15.7037 C   0  0  0  0  0  0  0  0  0  0  0  0
   23.8527  -10.4503  -14.5408 O   0  0  0  0  0  0  0  0  0  0  0  0
   16.4638  -12.3804  -16.0748 C   0  0  0  0  0  0  0  0  0  0  0  0
   21.9779   -7.3609  -16.7164 C   0  0  1  0  0  0  0  0  0  0  0  0
   22.4096   -8.4334  -15.7183 N   0  0  0  0  0  0  0  0  0  0  0  0
   22.6994   -9.6789  -16.4099 C   0  0  0  0  0  0  0  0  0  0  0  0
   21.2795   -8.6817  -14.7776 O   0  0  0  0  0  0  0  0  0  0  0  0
   20.4755   -9.6541  -14.9774 O   0  0  0  0  0  0  0  0  0  0  0  0
  2  1  1  1
  2  3  1  0
  4  2  1  0
  4  6  1  0
  4  5  1  6
  6  7  2  0
  8  9  1  0
  9 11  1  0
 10  9  2  0
 11 12  1  0
 12 13  1  0
 13 14  1  0
 15 14  1  1
 16  6  1  0
 16 15  1  0
 17 21  1  0
 17 15  1  0
 18 17  2  0
 20 21  1  0
 20 19  1  6
 22 20  1  0
 22 24  1  0
 23 22  2  0
M  END
$$$$
