TRA.pdb
     RDKit          3D

 24 23  0  0  1  0  0  0  0  0999 V2000
   20.5001  -20.9596  -17.8718 C   0  0  0  0  0  0  0  0  0  0  0  0
   19.4643  -20.0178  -17.2916 C   0  0  1  0  0  0  0  0  0  0  0  0
   18.2010  -20.5647  -17.3661 O   0  0  0  0  0  0  0  0  0  0  0  0
   19.8483  -19.5005  -15.9376 C   0  0  2  0  0  0  0  0  0  0  0  0
   18.7573  -18.6907  -15.4413 N   0  0  0  0  0  0  0  0  0  0  0  0
   21.1564  -18.8023  -15.9348 C   0  0  0  0  0  0  0  0  0  0  0  0
   21.1981  -17.6761  -16.4642 O   0  0  0  0  0  0  0  0  0  0  0  0
   26.6721  -20.3502  -10.9995 N   0  0  0  0  0  0  0  0  0  0  0  0
   26.9429  -21.0380  -12.2351 C   0  0  0  0  0  0  0  0  0  0  0  0
   27.1143  -22.3076  -12.2631 N   0  0  0  0  0  0  0  0  0  0  0  0
   27.0241  -20.2996  -13.4570 N   0  0  0  0  0  0  0  0  0  0  0  0
   26.9063  -18.8539  -13.4646 C   0  0  0  0  0  0  0  0  0  0  0  0
   25.8964  -18.4146  -14.5339 C   0  0  0  0  0  0  0  0  0  0  0  0
   24.5950  -19.1685  -14.3571 C   0  0  0  0  0  0  0  0  0  0  0  0
   23.6247  -18.6904  -15.3630 C   0  0  2  0  0  0  0  0  0  0  0  0
   22.3421  -19.3060  -15.3868 N   0  0  0  0  0  0  0  0  0  0  0  0
   24.2176  -18.8043  -16.7170 C   0  0  0  0  0  0  0  0  0  0  0  0
   24.2929  -19.9786  -17.2036 O   0  0  0  0  0  0  0  0  0  0  0  0
   27.3103  -22.7808  -13.1557 C   0  0  0  0  0  0  0  0  0  0  0  0
   25.4082  -16.6535  -19.5603 C   0  0  1  0  0  0  0  0  0  0  0  0
   25.2738  -17.9564  -18.7747 N   0  0  0  0  0  0  0  0  0  0  0  0
   24.6890  -17.7001  -17.4686 C   0  0  0  0  0  0  0  0  0  0  0  0
   26.6378  -18.5214  -18.5651 O   0  0  0  0  0  0  0  0  0  0  0  0
   27.1997  -18.4432  -17.4205 O   0  0  0  0  0  0  0  0  0  0  0  0
  2  1  1  1
  2  3  1  0
  4  2  1  0
  4  6  1  0
  4  5  1  6
  6  7  2  0
  8  9  1  0
  9 11  1  0
 10  9  2  0
 11 12  1  0
 12 13  1  0
 13 14  1  0
 15 14  1  1
 16  6  1  0
 16 15  1  0
 17 21  1  0
 17 15  1  0
 18 17  2  0
 20 21  1  0
 20 19  1  6
 22 20  1  0
 22 24  1  0
 23 22  2  0
M  END
$$$$
