TRA.pdb
     RDKit          3D

 24 23  0  0  1  0  0  0  0  0999 V2000
   16.1659   -5.5558   -9.0249 C   0  0  0  0  0  0  0  0  0  0  0  0
   15.2426   -6.5120   -8.2972 C   0  0  1  0  0  0  0  0  0  0  0  0
   14.3017   -5.8262   -7.5588 O   0  0  0  0  0  0  0  0  0  0  0  0
   14.6855   -7.5741   -9.1972 C   0  0  2  0  0  0  0  0  0  0  0  0
   13.9967   -8.5434   -8.3736 N   0  0  0  0  0  0  0  0  0  0  0  0
   15.7084   -8.1714  -10.0891 C   0  0  0  0  0  0  0  0  0  0  0  0
   16.5296   -8.9487   -9.5679 O   0  0  0  0  0  0  0  0  0  0  0  0
   18.1165  -12.3179  -16.0574 N   0  0  0  0  0  0  0  0  0  0  0  0
   16.6891  -12.1549  -16.1518 C   0  0  0  0  0  0  0  0  0  0  0  0
   15.9162  -13.1638  -16.3154 N   0  0  0  0  0  0  0  0  0  0  0  0
   16.1151  -10.8482  -16.0628 N   0  0  0  0  0  0  0  0  0  0  0  0
   16.9548   -9.6679  -15.9845 C   0  0  0  0  0  0  0  0  0  0  0  0
   17.3973   -9.4331  -14.5335 C   0  0  0  0  0  0  0  0  0  0  0  0
   16.2792   -8.7763  -13.7515 C   0  0  0  0  0  0  0  0  0  0  0  0
   16.7493   -8.5095  -12.3769 C   0  0  2  0  0  0  0  0  0  0  0  0
   15.8235   -7.9321  -11.4637 N   0  0  0  0  0  0  0  0  0  0  0  0
   17.9530   -7.6454  -12.4236 C   0  0  0  0  0  0  0  0  0  0  0  0
   17.7475   -6.3988  -12.5817 O   0  0  0  0  0  0  0  0  0  0  0  0
   14.8951  -13.0352  -16.3146 C   0  0  0  0  0  0  0  0  0  0  0  0
   21.6790   -7.8686  -11.9071 C   0  0  1  0  0  0  0  0  0  0  0  0
   20.3589   -7.1618  -12.2080 N   0  0  0  0  0  0  0  0  0  0  0  0
   19.2787   -8.1300  -12.3044 C   0  0  0  0  0  0  0  0  0  0  0  0
   20.4825   -6.4776  -13.5272 O   0  0  0  0  0  0  0  0  0  0  0  0
   20.0997   -7.0632  -14.5961 O   0  0  0  0  0  0  0  0  0  0  0  0
  2  1  1  6
  2  3  1  0
  4  2  1  0
  4  6  1  0
  4  5  1  1
  6  7  2  0
  8  9  1  0
  9 11  1  0
 10  9  2  0
 11 12  1  0
 12 13  1  0
 13 14  1  0
 15 14  1  6
 16  6  1  0
 16 15  1  0
 17 21  1  0
 17 15  1  0
 18 17  2  0
 20 21  1  0
 20 19  1  1
 22 20  1  0
 22 24  1  0
 23 22  2  0
M  END
$$$$
