TRA.pdb
     RDKit          3D

 24 23  0  0  1  0  0  0  0  0999 V2000
   16.8093   -3.0708  -17.8839 C   0  0  0  0  0  0  0  0  0  0  0  0
   15.4626   -3.4537  -17.3039 C   0  0  1  0  0  0  0  0  0  0  0  0
   14.4339   -3.0234  -18.1146 O   0  0  0  0  0  0  0  0  0  0  0  0
   15.3930   -4.8991  -16.9110 C   0  0  2  0  0  0  0  0  0  0  0  0
   14.0853   -5.1471  -16.3447 N   0  0  0  0  0  0  0  0  0  0  0  0
   16.5111   -5.3134  -16.0295 C   0  0  0  0  0  0  0  0  0  0  0  0
   16.4515   -4.9621  -14.8365 O   0  0  0  0  0  0  0  0  0  0  0  0
   19.3229  -13.1909  -15.9904 N   0  0  0  0  0  0  0  0  0  0  0  0
   17.9821  -12.7569  -15.6949 C   0  0  0  0  0  0  0  0  0  0  0  0
   17.0288  -13.6011  -15.5516 N   0  0  0  0  0  0  0  0  0  0  0  0
   17.7002  -11.3618  -15.5577 N   0  0  0  0  0  0  0  0  0  0  0  0
   18.6856  -10.3618  -15.9226 C   0  0  0  0  0  0  0  0  0  0  0  0
   18.1589   -8.9590  -15.5897 C   0  0  0  0  0  0  0  0  0  0  0  0
   19.1991   -7.9177  -15.9462 C   0  0  0  0  0  0  0  0  0  0  0  0
   18.6692   -6.5792  -15.6153 C   0  0  2  0  0  0  0  0  0  0  0  0
   17.6226   -6.0644  -16.4301 N   0  0  0  0  0  0  0  0  0  0  0  0
   19.7777   -5.5949  -15.6093 C   0  0  0  0  0  0  0  0  0  0  0  0
   20.2360   -5.2535  -16.7471 O   0  0  0  0  0  0  0  0  0  0  0  0
   16.0810  -13.2727  -15.3211 C   0  0  0  0  0  0  0  0  0  0  0  0
   20.9356   -2.7440  -13.8228 C   0  0  1  0  0  0  0  0  0  0  0  0
   21.3512   -4.0089  -14.5712 N   0  0  0  0  0  0  0  0  0  0  0  0
   20.3317   -5.0359  -14.4316 C   0  0  0  0  0  0  0  0  0  0  0  0
   22.6100   -4.5241  -13.9600 O   0  0  0  0  0  0  0  0  0  0  0  0
   22.5915   -5.5744  -13.2330 O   0  0  0  0  0  0  0  0  0  0  0  0
  2  1  1  6
  2  3  1  0
  4  2  1  0
  4  6  1  0
  4  5  1  1
  6  7  2  0
  8  9  1  0
  9 11  1  0
 10  9  2  0
 11 12  1  0
 12 13  1  0
 13 14  1  0
 15 14  1  6
 16  6  1  0
 16 15  1  0
 17 21  1  0
 17 15  1  0
 18 17  2  0
 20 21  1  0
 20 19  1  6
 22 20  1  0
 22 24  1  0
 23 22  2  0
M  END
$$$$
