TRA.pdb
     RDKit          3D

 24 23  0  0  1  0  0  0  0  0999 V2000
   19.6866  -36.0839   -8.8352 C   0  0  0  0  0  0  0  0  0  0  0  0
   20.0859  -36.6321  -10.1905 C   0  0  1  0  0  0  0  0  0  0  0  0
   19.1400  -37.5156  -10.6654 O   0  0  0  0  0  0  0  0  0  0  0  0
   20.4825  -35.5548  -11.1551 C   0  0  2  0  0  0  0  0  0  0  0  0
   20.8680  -36.1860  -12.3981 N   0  0  0  0  0  0  0  0  0  0  0  0
   21.5129  -34.6395  -10.6082 C   0  0  0  0  0  0  0  0  0  0  0  0
   22.7037  -34.9590  -10.7821 O   0  0  0  0  0  0  0  0  0  0  0  0
   21.7310  -26.8087  -11.5673 N   0  0  0  0  0  0  0  0  0  0  0  0
   20.6963  -27.5810  -12.2045 C   0  0  0  0  0  0  0  0  0  0  0  0
   20.2642  -27.2749  -13.3714 N   0  0  0  0  0  0  0  0  0  0  0  0
   20.1350  -28.7106  -11.5308 N   0  0  0  0  0  0  0  0  0  0  0  0
   20.6968  -29.1900  -10.2823 C   0  0  0  0  0  0  0  0  0  0  0  0
   21.3289  -30.5737  -10.4875 C   0  0  0  0  0  0  0  0  0  0  0  0
   21.7664  -31.1453   -9.1552 C   0  0  0  0  0  0  0  0  0  0  0  0
   22.1964  -32.5446   -9.3529 C   0  0  2  0  0  0  0  0  0  0  0  0
   21.2546  -33.4506   -9.9156 N   0  0  0  0  0  0  0  0  0  0  0  0
   22.6649  -33.1060   -8.0633 C   0  0  0  0  0  0  0  0  0  0  0  0
   21.7612  -33.4954   -7.2553 O   0  0  0  0  0  0  0  0  0  0  0  0
   19.5287  -27.8433  -13.8131 C   0  0  0  0  0  0  0  0  0  0  0  0
   25.8577  -34.0282   -6.2883 C   0  0  1  0  0  0  0  0  0  0  0  0
   24.3511  -33.8095   -6.4109 N   0  0  0  0  0  0  0  0  0  0  0  0
   24.0295  -33.2242   -7.7022 C   0  0  0  0  0  0  0  0  0  0  0  0
   23.9283  -32.8483   -5.3520 O   0  0  0  0  0  0  0  0  0  0  0  0
   23.4935  -31.6896   -5.6688 O   0  0  0  0  0  0  0  0  0  0  0  0
  2  1  1  1
  2  3  1  0
  4  2  1  0
  4  6  1  0
  4  5  1  6
  6  7  2  0
  8  9  1  0
  9 11  1  0
 10  9  2  0
 11 12  1  0
 12 13  1  0
 13 14  1  0
 15 14  1  1
 16  6  1  0
 16 15  1  0
 17 21  1  0
 17 15  1  0
 18 17  2  0
 20 21  1  0
 20 19  1  6
 22 20  1  0
 22 24  1  0
 23 22  2  0
M  END
$$$$
