TRA.pdb
     RDKit          3D

 24 23  0  0  1  0  0  0  0  0999 V2000
   23.8932  -19.1629   -9.2934 C   0  0  0  0  0  0  0  0  0  0  0  0
   24.0376  -20.6329   -9.6320 C   0  0  1  0  0  0  0  0  0  0  0  0
   22.8390  -21.1623  -10.0608 O   0  0  0  0  0  0  0  0  0  0  0  0
   25.2052  -20.9061  -10.5323 C   0  0  2  0  0  0  0  0  0  0  0  0
   26.3819  -20.3177   -9.9311 N   0  0  0  0  0  0  0  0  0  0  0  0
   24.9714  -20.4719  -11.9306 C   0  0  0  0  0  0  0  0  0  0  0  0
   25.1929  -19.2758  -12.1965 O   0  0  0  0  0  0  0  0  0  0  0  0
   28.9897  -23.7924  -16.5005 N   0  0  0  0  0  0  0  0  0  0  0  0
   28.1028  -23.3677  -17.5522 C   0  0  0  0  0  0  0  0  0  0  0  0
   28.1370  -23.9161  -18.7099 N   0  0  0  0  0  0  0  0  0  0  0  0
   27.1645  -22.3162  -17.3099 N   0  0  0  0  0  0  0  0  0  0  0  0
   27.1873  -21.5671  -16.0679 C   0  0  0  0  0  0  0  0  0  0  0  0
   26.2418  -22.2143  -15.0465 C   0  0  0  0  0  0  0  0  0  0  0  0
   24.8066  -21.8559  -15.3705 C   0  0  0  0  0  0  0  0  0  0  0  0
   24.2949  -20.9416  -14.3293 C   0  0  2  0  0  0  0  0  0  0  0  0
   24.5239  -21.2957  -12.9703 N   0  0  0  0  0  0  0  0  0  0  0  0
   22.8378  -20.7431  -14.5164 C   0  0  0  0  0  0  0  0  0  0  0  0
   22.0742  -21.5716  -13.9234 O   0  0  0  0  0  0  0  0  0  0  0  0
   27.5559  -23.5434  -19.4732 C   0  0  0  0  0  0  0  0  0  0  0  0
   20.4126  -18.3335  -16.0960 C   0  0  1  0  0  0  0  0  0  0  0  0
   20.8280  -19.6330  -15.4092 N   0  0  0  0  0  0  0  0  0  0  0  0
   22.2759  -19.7060  -15.3007 C   0  0  0  0  0  0  0  0  0  0  0  0
   20.3715  -20.7760  -16.2511 O   0  0  0  0  0  0  0  0  0  0  0  0
   21.2080  -21.4256  -16.9655 O   0  0  0  0  0  0  0  0  0  0  0  0
  2  1  1  6
  2  3  1  0
  4  2  1  0
  4  6  1  0
  4  5  1  1
  6  7  2  0
  8  9  1  0
  9 11  1  0
 10  9  2  0
 11 12  1  0
 12 13  1  0
 13 14  1  0
 15 14  1  6
 16  6  1  0
 16 15  1  0
 17 21  1  0
 17 15  1  0
 18 17  2  0
 20 21  1  0
 20 19  1  1
 22 20  1  0
 22 24  1  0
 23 22  2  0
M  END
$$$$
