TRA.pdb
     RDKit          3D

 24 23  0  0  1  0  0  0  0  0999 V2000
   23.7756   -6.2960  -20.3833 C   0  0  0  0  0  0  0  0  0  0  0  0
   22.8847   -7.2257  -21.1825 C   0  0  1  0  0  0  0  0  0  0  0  0
   23.4974   -7.6113  -22.3557 O   0  0  0  0  0  0  0  0  0  0  0  0
   22.3377   -8.3519  -20.3574 C   0  0  2  0  0  0  0  0  0  0  0  0
   21.5932   -9.2291  -21.2341 N   0  0  0  0  0  0  0  0  0  0  0  0
   21.5610   -7.8850  -19.1838 C   0  0  0  0  0  0  0  0  0  0  0  0
   20.8218   -6.8972  -19.3508 O   0  0  0  0  0  0  0  0  0  0  0  0
   17.5954  -13.5088  -14.6513 N   0  0  0  0  0  0  0  0  0  0  0  0
   17.0342  -12.9295  -15.8440 C   0  0  0  0  0  0  0  0  0  0  0  0
   16.0396  -13.4744  -16.4407 N   0  0  0  0  0  0  0  0  0  0  0  0
   17.5899  -11.7256  -16.3793 N   0  0  0  0  0  0  0  0  0  0  0  0
   18.6955  -11.0564  -15.7202 C   0  0  0  0  0  0  0  0  0  0  0  0
   19.1642   -9.8620  -16.5627 C   0  0  0  0  0  0  0  0  0  0  0  0
   20.3423   -9.1867  -15.8923 C   0  0  0  0  0  0  0  0  0  0  0  0
   20.8304   -8.0992  -16.7647 C   0  0  2  0  0  0  0  0  0  0  0  0
   21.5926   -8.4638  -17.9095 N   0  0  0  0  0  0  0  0  0  0  0  0
   21.6289   -7.1413  -15.9631 C   0  0  0  0  0  0  0  0  0  0  0  0
   22.8190   -7.4953  -15.6812 O   0  0  0  0  0  0  0  0  0  0  0  0
   15.6282  -13.0251  -17.2702 C   0  0  0  0  0  0  0  0  0  0  0  0
   21.5304   -3.6270  -14.6661 C   0  0  1  0  0  0  0  0  0  0  0  0
   22.0061   -5.0784  -14.6705 N   0  0  0  0  0  0  0  0  0  0  0  0
   21.1417   -5.8903  -15.5114 C   0  0  0  0  0  0  0  0  0  0  0  0
   21.9199   -5.6052  -13.2781 O   0  0  0  0  0  0  0  0  0  0  0  0
   22.6956   -5.1545  -12.3686 O   0  0  0  0  0  0  0  0  0  0  0  0
  2  1  1  1
  2  3  1  0
  4  2  1  0
  4  6  1  0
  4  5  1  6
  6  7  2  0
  8  9  1  0
  9 11  1  0
 10  9  2  0
 11 12  1  0
 12 13  1  0
 13 14  1  0
 15 14  1  1
 16  6  1  0
 16 15  1  0
 17 21  1  0
 17 15  1  0
 18 17  2  0
 20 21  1  0
 20 19  1  6
 22 20  1  0
 22 24  1  0
 23 22  2  0
M  END
$$$$
