TRA.pdb
     RDKit          3D

 24 23  0  0  1  0  0  0  0  0999 V2000
   25.6292  -17.4145  -17.0555 C   0  0  0  0  0  0  0  0  0  0  0  0
   26.5636  -18.3617  -17.7809 C   0  0  1  0  0  0  0  0  0  0  0  0
   27.2684  -17.7039  -18.7664 O   0  0  0  0  0  0  0  0  0  0  0  0
   27.4031  -19.1760  -16.8425 C   0  0  2  0  0  0  0  0  0  0  0  0
   28.2846  -20.0052  -17.6346 N   0  0  0  0  0  0  0  0  0  0  0  0
   26.5972  -19.9366  -15.8573 C   0  0  0  0  0  0  0  0  0  0  0  0
   26.0163  -20.9581  -16.2690 O   0  0  0  0  0  0  0  0  0  0  0  0
   22.2572  -19.6860   -9.6979 N   0  0  0  0  0  0  0  0  0  0  0  0
   22.7535  -20.7884   -8.9160 C   0  0  0  0  0  0  0  0  0  0  0  0
   21.9746  -21.4666   -8.1574 N   0  0  0  0  0  0  0  0  0  0  0  0
   24.1382  -21.1395   -8.9803 N   0  0  0  0  0  0  0  0  0  0  0  0
   25.0653  -20.3737   -9.7916 C   0  0  0  0  0  0  0  0  0  0  0  0
   24.8305  -20.6701  -11.2793 C   0  0  0  0  0  0  0  0  0  0  0  0
   25.8165  -19.8907  -12.1240 C   0  0  0  0  0  0  0  0  0  0  0  0
   25.5891  -20.2155  -13.5469 C   0  0  2  0  0  0  0  0  0  0  0  0
   26.4383  -19.5992  -14.5079 N   0  0  0  0  0  0  0  0  0  0  0  0
   24.1841  -19.9088  -13.9069 C   0  0  0  0  0  0  0  0  0  0  0  0
   23.8372  -18.6857  -13.8365 O   0  0  0  0  0  0  0  0  0  0  0  0
   22.3535  -22.2323   -7.5837 C   0  0  0  0  0  0  0  0  0  0  0  0
   21.4172  -21.1459  -15.9226 C   0  0  1  0  0  0  0  0  0  0  0  0
   21.8986  -20.4443  -14.6542 N   0  0  0  0  0  0  0  0  0  0  0  0
   23.2412  -20.8850  -14.3123 C   0  0  0  0  0  0  0  0  0  0  0  0
   20.9906  -20.8240  -13.5339 O   0  0  0  0  0  0  0  0  0  0  0  0
   21.3802  -21.6475  -12.6384 O   0  0  0  0  0  0  0  0  0  0  0  0
  2  1  1  1
  2  3  1  0
  4  2  1  0
  4  6  1  0
  4  5  1  6
  6  7  2  0
  8  9  1  0
  9 11  1  0
 10  9  2  0
 11 12  1  0
 12 13  1  0
 13 14  1  0
 15 14  1  1
 16  6  1  0
 16 15  1  0
 17 21  1  0
 17 15  1  0
 18 17  2  0
 20 21  1  0
 20 19  1  6
 22 20  1  0
 22 24  1  0
 23 22  2  0
M  END
$$$$
