TRA.pdb
     RDKit          3D

 24 23  0  0  1  0  0  0  0  0999 V2000
   21.1209   -6.1900  -12.7317 C   0  0  0  0  0  0  0  0  0  0  0  0
   20.9081   -7.5292  -13.4082 C   0  0  1  0  0  0  0  0  0  0  0  0
   22.0831   -8.2484  -13.4630 O   0  0  0  0  0  0  0  0  0  0  0  0
   19.7359   -8.2788  -12.8492 C   0  0  2  0  0  0  0  0  0  0  0  0
   19.6860   -9.5748  -13.4896 N   0  0  0  0  0  0  0  0  0  0  0  0
   18.4657   -7.5196  -12.9434 C   0  0  0  0  0  0  0  0  0  0  0  0
   17.8749   -7.5384  -14.0392 O   0  0  0  0  0  0  0  0  0  0  0  0
   13.2810   -6.6655   -6.5336 N   0  0  0  0  0  0  0  0  0  0  0  0
   13.6004   -7.6515   -7.5330 C   0  0  0  0  0  0  0  0  0  0  0  0
   12.9789   -8.7711   -7.5818 N   0  0  0  0  0  0  0  0  0  0  0  0
   14.6277   -7.3857   -8.4915 N   0  0  0  0  0  0  0  0  0  0  0  0
   15.4985   -6.2339   -8.3522 C   0  0  0  0  0  0  0  0  0  0  0  0
   16.4854   -6.1762   -9.5265 C   0  0  0  0  0  0  0  0  0  0  0  0
   15.7287   -6.1643  -10.8382 C   0  0  0  0  0  0  0  0  0  0  0  0
   16.6933   -6.0048  -11.9455 C   0  0  2  0  0  0  0  0  0  0  0  0
   17.8809   -6.7872  -11.9033 N   0  0  0  0  0  0  0  0  0  0  0  0
   17.0824   -4.5791  -12.0624 C   0  0  0  0  0  0  0  0  0  0  0  0
   18.0205   -4.1852  -11.2969 O   0  0  0  0  0  0  0  0  0  0  0  0
   13.1954   -9.4477   -8.3264 C   0  0  0  0  0  0  0  0  0  0  0  0
   16.5964   -1.6841  -14.3899 C   0  0  1  0  0  0  0  0  0  0  0  0
   17.0605   -2.3410  -13.0915 N   0  0  0  0  0  0  0  0  0  0  0  0
   16.4760   -3.6655  -12.9590 C   0  0  0  0  0  0  0  0  0  0  0  0
   16.5829   -1.5110  -11.9484 O   0  0  0  0  0  0  0  0  0  0  0  0
   15.5603   -1.8709  -11.2725 O   0  0  0  0  0  0  0  0  0  0  0  0
  2  1  1  1
  2  3  1  0
  4  2  1  0
  4  6  1  0
  4  5  1  6
  6  7  2  0
  8  9  1  0
  9 11  1  0
 10  9  2  0
 11 12  1  0
 12 13  1  0
 13 14  1  0
 15 14  1  1
 16  6  1  0
 16 15  1  0
 17 21  1  0
 17 15  1  0
 18 17  2  0
 20 21  1  0
 20 19  1  6
 22 20  1  0
 22 24  1  0
 23 22  2  0
M  END
$$$$
