TRA.pdb
     RDKit          3D

 24 23  0  0  1  0  0  0  0  0999 V2000
   25.2273  -21.1407   -8.8804 C   0  0  0  0  0  0  0  0  0  0  0  0
   24.7776  -20.7941  -10.2854 C   0  0  1  0  0  0  0  0  0  0  0  0
   24.4114  -19.4680  -10.3751 O   0  0  0  0  0  0  0  0  0  0  0  0
   25.7489  -21.2518  -11.3321 C   0  0  2  0  0  0  0  0  0  0  0  0
   27.0261  -20.6292  -11.0611 N   0  0  0  0  0  0  0  0  0  0  0  0
   25.2591  -21.0274  -12.7135 C   0  0  0  0  0  0  0  0  0  0  0  0
   25.8007  -20.1149  -13.3649 O   0  0  0  0  0  0  0  0  0  0  0  0
   24.8427  -27.1901  -15.4558 N   0  0  0  0  0  0  0  0  0  0  0  0
   23.5568  -26.5639  -15.6214 C   0  0  0  0  0  0  0  0  0  0  0  0
   22.4913  -27.1057  -15.1597 N   0  0  0  0  0  0  0  0  0  0  0  0
   23.4574  -25.3157  -16.3120 N   0  0  0  0  0  0  0  0  0  0  0  0
   24.6456  -24.6098  -16.7526 C   0  0  0  0  0  0  0  0  0  0  0  0
   24.8462  -23.3422  -15.9104 C   0  0  0  0  0  0  0  0  0  0  0  0
   23.5044  -22.7970  -15.4682 C   0  0  0  0  0  0  0  0  0  0  0  0
   23.7253  -21.5839  -14.6550 C   0  0  2  0  0  0  0  0  0  0  0  0
   24.2413  -21.7562  -13.3403 N   0  0  0  0  0  0  0  0  0  0  0  0
   22.4616  -20.8147  -14.5589 C   0  0  0  0  0  0  0  0  0  0  0  0
   21.6810  -21.1282  -13.6031 O   0  0  0  0  0  0  0  0  0  0  0  0
   22.5349  -28.0374  -14.7246 C   0  0  0  0  0  0  0  0  0  0  0  0
   20.7703  -17.8293  -16.1059 C   0  0  1  0  0  0  0  0  0  0  0  0
   20.8580  -19.0602  -15.2059 N   0  0  0  0  0  0  0  0  0  0  0  0
   22.0962  -19.7801  -15.4547 C   0  0  0  0  0  0  0  0  0  0  0  0
   19.7229  -19.9679  -15.5396 O   0  0  0  0  0  0  0  0  0  0  0  0
   19.8963  -20.9520  -16.3354 O   0  0  0  0  0  0  0  0  0  0  0  0
  2  1  1  1
  2  3  1  0
  4  2  1  0
  4  6  1  0
  4  5  1  6
  6  7  2  0
  8  9  1  0
  9 11  1  0
 10  9  2  0
 11 12  1  0
 12 13  1  0
 13 14  1  0
 15 14  1  1
 16  6  1  0
 16 15  1  0
 17 21  1  0
 17 15  1  0
 18 17  2  0
 20 21  1  0
 20 19  1  1
 22 20  1  0
 22 24  1  0
 23 22  2  0
M  END
$$$$
