TRA.pdb
     RDKit          3D

 24 23  0  0  1  0  0  0  0  0999 V2000
   23.3734   -9.5582  -15.2106 C   0  0  0  0  0  0  0  0  0  0  0  0
   22.5332  -10.7649  -15.5775 C   0  0  1  0  0  0  0  0  0  0  0  0
   23.2726  -11.9257  -15.4977 O   0  0  0  0  0  0  0  0  0  0  0  0
   21.2238  -10.8002  -14.8477 C   0  0  2  0  0  0  0  0  0  0  0  0
   20.5238  -12.0033  -15.2411 N   0  0  0  0  0  0  0  0  0  0  0  0
   20.4274   -9.5626  -15.0283 C   0  0  0  0  0  0  0  0  0  0  0  0
   19.6021   -9.5516  -15.9606 O   0  0  0  0  0  0  0  0  0  0  0  0
   15.9125   -6.8956   -9.1611 N   0  0  0  0  0  0  0  0  0  0  0  0
   16.1680   -8.0425   -9.9933 C   0  0  0  0  0  0  0  0  0  0  0  0
   15.4275   -9.0864   -9.9287 N   0  0  0  0  0  0  0  0  0  0  0  0
   17.2650   -8.0255  -10.9104 N   0  0  0  0  0  0  0  0  0  0  0  0
   18.2468   -6.9582  -10.8798 C   0  0  0  0  0  0  0  0  0  0  0  0
   19.3170   -7.1976  -11.9539 C   0  0  0  0  0  0  0  0  0  0  0  0
   18.7299   -6.9644  -13.3302 C   0  0  0  0  0  0  0  0  0  0  0  0
   19.7758   -7.2091  -14.3442 C   0  0  2  0  0  0  0  0  0  0  0  0
   20.5289   -8.4116  -14.2379 N   0  0  0  0  0  0  0  0  0  0  0  0
   20.7239   -6.0696  -14.3632 C   0  0  0  0  0  0  0  0  0  0  0  0
   21.7118   -6.1435  -13.5633 O   0  0  0  0  0  0  0  0  0  0  0  0
   15.5748   -9.8632  -10.5874 C   0  0  0  0  0  0  0  0  0  0  0  0
   21.4233   -2.9305  -16.3225 C   0  0  1  0  0  0  0  0  0  0  0  0
   21.6404   -3.9407  -15.1976 N   0  0  0  0  0  0  0  0  0  0  0  0
   20.5836   -4.9389  -15.2048 C   0  0  0  0  0  0  0  0  0  0  0  0
   21.5790   -3.2150  -13.8963 O   0  0  0  0  0  0  0  0  0  0  0  0
   20.5110   -3.2358  -13.1957 O   0  0  0  0  0  0  0  0  0  0  0  0
  2  1  1  1
  2  3  1  0
  4  2  1  0
  4  6  1  0
  4  5  1  6
  6  7  2  0
  8  9  1  0
  9 11  1  0
 10  9  2  0
 11 12  1  0
 12 13  1  0
 13 14  1  0
 15 14  1  1
 16  6  1  0
 16 15  1  0
 17 21  1  0
 17 15  1  0
 18 17  2  0
 20 21  1  0
 20 19  1  6
 22 20  1  0
 22 24  1  0
 23 22  2  0
M  END
$$$$
