SYS.pdb
     RDKit          3D

 25 25  0  0  1  0  0  0  0  0999 V2000
    6.8900  -16.6840   20.5026 O   0  0  0  0  0  0  0  0  0  0  0  0
    6.0713  -15.5913   20.7858 C   0  0  0  0  0  0  0  0  0  0  0  0
    6.9691  -14.3759   20.8441 C   0  0  2  0  0  0  0  0  0  0  0  0
    7.6227  -14.0892   19.5969 N   0  0  0  0  0  0  0  0  0  0  0  0
    8.0022  -14.5491   21.9366 C   0  0  0  0  0  0  0  0  0  0  0  0
    9.1870  -14.8373   21.6499 O   0  0  0  0  0  0  0  0  0  0  0  0
   10.9972  -15.0906   30.3666 O   0  0  0  0  0  0  0  0  0  0  0  0
   10.2183  -14.8772   29.2132 C   0  0  0  0  0  0  0  0  0  0  0  0
    9.4738  -15.9033   28.6714 C   0  0  0  0  0  0  0  0  0  0  0  0
    8.7072  -15.6882   27.5340 C   0  0  0  0  0  0  0  0  0  0  0  0
    8.6551  -14.4652   26.9062 C   0  0  0  0  0  0  0  0  0  0  0  0
    7.8419  -14.2714   25.6922 C   0  0  0  0  0  0  0  0  0  0  0  0
    8.5032  -14.6897   24.4164 C   0  0  2  0  0  0  0  0  0  0  0  0
    7.6445  -14.3879   23.2986 N   0  0  0  0  0  0  0  0  0  0  0  0
    8.9483  -16.1045   24.4451 C   0  0  0  0  0  0  0  0  0  0  0  0
    8.1552  -17.0701   24.3591 O   0  0  0  0  0  0  0  0  0  0  0  0
    9.3997  -13.4426   27.4491 C   0  0  0  0  0  0  0  0  0  0  0  0
   10.1734  -13.6525   28.5940 C   0  0  0  0  0  0  0  0  0  0  0  0
   12.4393  -17.4108   23.0240 O   0  0  0  0  0  0  0  0  0  0  0  0
   11.3890  -18.2854   23.3190 C   0  0  0  0  0  0  0  0  0  0  0  0
   10.7433  -17.8383   24.6103 C   0  0  2  0  0  0  0  0  0  0  0  0
   10.3318  -16.4634   24.5759 N   0  0  0  0  0  0  0  0  0  0  0  0
   11.7019  -18.1086   25.7219 C   0  0  0  0  0  0  0  0  0  0  0  0
   12.0369  -17.1269   26.4336 O   0  0  0  0  0  0  0  0  0  0  0  0
   12.2168  -19.3668   25.9846 O   0  0  0  0  0  0  0  0  0  0  0  0
  1  2  1  0
  2  3  1  0
  3  4  1  6
  5  6  2  0
  5  3  1  0
  7  8  1  0
  8  9  2  0
  8 18  1  0
  9 10  1  0
 10 11  2  0
 11 12  1  0
 13 12  1  1
 13 15  1  0
 13 14  1  0
 14  5  1  0
 15 16  2  0
 17 11  1  0
 18 17  2  0
 20 19  1  0
 21 20  1  6
 22 15  1  0
 22 21  1  0
 23 25  1  0
 23 21  1  0
 24 23  2  0
M  END
$$$$
