SYS.pdb
     RDKit          3D

 25 25  0  0  1  0  0  0  0  0999 V2000
    7.9492  -18.7591   20.3797 O   0  0  0  0  0  0  0  0  0  0  0  0
    8.7308  -18.2878   19.3254 C   0  0  0  0  0  0  0  0  0  0  0  0
    8.5641  -16.7851   19.2955 C   0  0  2  0  0  0  0  0  0  0  0  0
    9.3225  -16.1477   18.2547 N   0  0  0  0  0  0  0  0  0  0  0  0
    8.9408  -16.1971   20.6384 C   0  0  0  0  0  0  0  0  0  0  0  0
   10.1448  -16.0496   20.9515 O   0  0  0  0  0  0  0  0  0  0  0  0
    7.5256  -12.5088   28.6791 O   0  0  0  0  0  0  0  0  0  0  0  0
    7.3862  -13.0257   27.3769 C   0  0  0  0  0  0  0  0  0  0  0  0
    6.9954  -14.3331   27.1806 C   0  0  0  0  0  0  0  0  0  0  0  0
    6.8591  -14.8383   25.8946 C   0  0  0  0  0  0  0  0  0  0  0  0
    7.1028  -14.0734   24.7774 C   0  0  0  0  0  0  0  0  0  0  0  0
    6.9620  -14.6423   23.4249 C   0  0  0  0  0  0  0  0  0  0  0  0
    8.1910  -15.3078   22.8894 C   0  0  2  0  0  0  0  0  0  0  0  0
    7.9381  -15.8051   21.5602 N   0  0  0  0  0  0  0  0  0  0  0  0
    8.7218  -16.3439   23.8088 C   0  0  0  0  0  0  0  0  0  0  0  0
    8.2007  -17.4760   23.9333 O   0  0  0  0  0  0  0  0  0  0  0  0
    7.4932  -12.7685   24.9763 C   0  0  0  0  0  0  0  0  0  0  0  0
    7.6321  -12.2537   26.2682 C   0  0  0  0  0  0  0  0  0  0  0  0
   12.6196  -16.4472   24.8969 O   0  0  0  0  0  0  0  0  0  0  0  0
   11.8103  -17.5842   24.9820 C   0  0  0  0  0  0  0  0  0  0  0  0
   10.4343  -17.1581   25.4397 C   0  0  2  0  0  0  0  0  0  0  0  0
    9.8793  -16.1140   24.6258 N   0  0  0  0  0  0  0  0  0  0  0  0
   10.5299  -16.7591   26.8748 C   0  0  0  0  0  0  0  0  0  0  0  0
   10.1006  -15.6154   27.1754 O   0  0  0  0  0  0  0  0  0  0  0  0
   11.0596  -17.5832   27.8531 O   0  0  0  0  0  0  0  0  0  0  0  0
  1  2  1  0
  2  3  1  0
  3  4  1  6
  5  6  2  0
  5  3  1  0
  7  8  1  0
  8  9  2  0
  8 18  1  0
  9 10  1  0
 10 11  2  0
 11 12  1  0
 13 12  1  1
 13 15  1  0
 13 14  1  0
 14  5  1  0
 15 16  2  0
 17 11  1  0
 18 17  2  0
 20 19  1  0
 21 20  1  6
 22 15  1  0
 22 21  1  0
 23 25  1  0
 23 21  1  0
 24 23  2  0
M  END
$$$$
