SYS.pdb
     RDKit          3D

 25 25  0  0  1  0  0  0  0  0999 V2000
    8.7270  -18.6703   19.3311 O   0  0  0  0  0  0  0  0  0  0  0  0
    7.8130  -17.6181   19.3753 C   0  0  0  0  0  0  0  0  0  0  0  0
    8.6005  -16.3456   19.1584 C   0  0  2  0  0  0  0  0  0  0  0  0
    9.7729  -16.5313   18.3485 N   0  0  0  0  0  0  0  0  0  0  0  0
    8.9885  -15.7448   20.4924 C   0  0  0  0  0  0  0  0  0  0  0  0
   10.1446  -15.9038   20.9479 O   0  0  0  0  0  0  0  0  0  0  0  0
    7.2675  -12.1307   28.5197 O   0  0  0  0  0  0  0  0  0  0  0  0
    7.2135  -12.5430   27.1745 C   0  0  0  0  0  0  0  0  0  0  0  0
    6.3470  -13.5410   26.7823 C   0  0  0  0  0  0  0  0  0  0  0  0
    6.2972  -13.9441   25.4546 C   0  0  0  0  0  0  0  0  0  0  0  0
    7.0943  -13.3781   24.4868 C   0  0  0  0  0  0  0  0  0  0  0  0
    7.0278  -13.8367   23.0876 C   0  0  0  0  0  0  0  0  0  0  0  0
    8.1754  -14.6914   22.6486 C   0  0  2  0  0  0  0  0  0  0  0  0
    8.0505  -14.9946   21.2449 N   0  0  0  0  0  0  0  0  0  0  0  0
    8.3395  -15.8993   23.4941 C   0  0  0  0  0  0  0  0  0  0  0  0
    7.5706  -16.8859   23.4294 O   0  0  0  0  0  0  0  0  0  0  0  0
    7.9588  -12.3821   24.8813 C   0  0  0  0  0  0  0  0  0  0  0  0
    8.0137  -11.9715   26.2161 C   0  0  0  0  0  0  0  0  0  0  0  0
   11.7231  -17.4945   24.2660 O   0  0  0  0  0  0  0  0  0  0  0  0
   10.5454  -18.1837   24.5710 C   0  0  0  0  0  0  0  0  0  0  0  0
    9.5807  -17.2176   25.2194 C   0  0  2  0  0  0  0  0  0  0  0  0
    9.4010  -16.0172   24.4529 N   0  0  0  0  0  0  0  0  0  0  0  0
   10.0726  -16.9328   26.5995 C   0  0  0  0  0  0  0  0  0  0  0  0
   10.3130  -17.9266   27.3325 O   0  0  0  0  0  0  0  0  0  0  0  0
   10.2660  -15.6493   27.0814 O   0  0  0  0  0  0  0  0  0  0  0  0
  1  2  1  0
  2  3  1  0
  3  4  1  6
  5  6  2  0
  5  3  1  0
  7  8  1  0
  8  9  2  0
  8 18  1  0
  9 10  1  0
 10 11  2  0
 11 12  1  0
 13 12  1  1
 13 15  1  0
 13 14  1  0
 14  5  1  0
 15 16  2  0
 17 11  1  0
 18 17  2  0
 20 19  1  0
 21 20  1  6
 22 15  1  0
 22 21  1  0
 23 25  1  0
 23 21  1  0
 24 23  2  0
M  END
$$$$
