SYS.pdb
     RDKit          3D

 25 25  0  0  1  0  0  0  0  0999 V2000
    7.0771  -16.2136   20.3525 O   0  0  0  0  0  0  0  0  0  0  0  0
    6.2059  -15.1514   20.5921 C   0  0  0  0  0  0  0  0  0  0  0  0
    7.0628  -13.9286   20.8308 C   0  0  2  0  0  0  0  0  0  0  0  0
    7.7315  -13.4609   19.6481 N   0  0  0  0  0  0  0  0  0  0  0  0
    8.0789  -14.2141   21.9157 C   0  0  0  0  0  0  0  0  0  0  0  0
    9.2717  -14.4571   21.6200 O   0  0  0  0  0  0  0  0  0  0  0  0
   11.0150  -15.4024   30.2999 O   0  0  0  0  0  0  0  0  0  0  0  0
   10.2504  -15.0920   29.1590 C   0  0  0  0  0  0  0  0  0  0  0  0
    9.4319  -16.0414   28.5851 C   0  0  0  0  0  0  0  0  0  0  0  0
    8.6796  -15.7306   27.4604 C   0  0  0  0  0  0  0  0  0  0  0  0
    8.7146  -14.4853   26.8768 C   0  0  0  0  0  0  0  0  0  0  0  0
    7.9141  -14.1896   25.6750 C   0  0  0  0  0  0  0  0  0  0  0  0
    8.5601  -14.5659   24.3784 C   0  0  2  0  0  0  0  0  0  0  0  0
    7.6963  -14.2106   23.2804 N   0  0  0  0  0  0  0  0  0  0  0  0
    8.9878  -15.9860   24.3484 C   0  0  0  0  0  0  0  0  0  0  0  0
    8.1783  -16.9406   24.3024 O   0  0  0  0  0  0  0  0  0  0  0  0
    9.5329  -13.5394   27.4517 C   0  0  0  0  0  0  0  0  0  0  0  0
   10.2926  -13.8458   28.5841 C   0  0  0  0  0  0  0  0  0  0  0  0
   12.4631  -17.1639   22.8288 O   0  0  0  0  0  0  0  0  0  0  0  0
   11.4956  -18.1358   23.1014 C   0  0  0  0  0  0  0  0  0  0  0  0
   10.7673  -17.7434   24.3663 C   0  0  2  0  0  0  0  0  0  0  0  0
   10.3724  -16.3632   24.3717 N   0  0  0  0  0  0  0  0  0  0  0  0
   11.6450  -18.0796   25.5258 C   0  0  0  0  0  0  0  0  0  0  0  0
   12.0229  -19.2756   25.6232 O   0  0  0  0  0  0  0  0  0  0  0  0
   12.0427  -17.1450   26.4667 O   0  0  0  0  0  0  0  0  0  0  0  0
  1  2  1  0
  2  3  1  0
  3  4  1  6
  5  6  2  0
  5  3  1  0
  7  8  1  0
  8  9  2  0
  8 18  1  0
  9 10  1  0
 10 11  2  0
 11 12  1  0
 13 12  1  1
 13 15  1  0
 13 14  1  0
 14  5  1  0
 15 16  2  0
 17 11  1  0
 18 17  2  0
 20 19  1  0
 21 20  1  6
 22 15  1  0
 22 21  1  0
 23 25  1  0
 23 21  1  0
 24 23  2  0
M  END
$$$$
