SYS.pdb
     RDKit          3D

 25 25  0  0  1  0  0  0  0  0999 V2000
    7.6770  -15.4023   19.2228 O   0  0  0  0  0  0  0  0  0  0  0  0
    6.5967  -14.6556   19.6915 C   0  0  0  0  0  0  0  0  0  0  0  0
    7.1632  -13.3674   20.2451 C   0  0  2  0  0  0  0  0  0  0  0  0
    7.8438  -12.5735   19.2596 N   0  0  0  0  0  0  0  0  0  0  0  0
    8.0981  -13.6675   21.3970 C   0  0  0  0  0  0  0  0  0  0  0  0
    9.3353  -13.7295   21.2106 O   0  0  0  0  0  0  0  0  0  0  0  0
   10.4598  -14.9904   29.9413 O   0  0  0  0  0  0  0  0  0  0  0  0
    9.7576  -14.7524   28.7443 C   0  0  0  0  0  0  0  0  0  0  0  0
    9.7622  -13.5005   28.1669 C   0  0  0  0  0  0  0  0  0  0  0  0
    9.0685  -13.2706   26.9864 C   0  0  0  0  0  0  0  0  0  0  0  0
    8.3577  -14.2615   26.3496 C   0  0  0  0  0  0  0  0  0  0  0  0
    7.6203  -13.9832   25.1041 C   0  0  0  0  0  0  0  0  0  0  0  0
    8.3830  -14.2548   23.8453 C   0  0  2  0  0  0  0  0  0  0  0  0
    7.5881  -13.8825   22.7018 N   0  0  0  0  0  0  0  0  0  0  0  0
    8.8874  -15.6483   23.7766 C   0  0  0  0  0  0  0  0  0  0  0  0
    8.1324  -16.6414   23.6643 O   0  0  0  0  0  0  0  0  0  0  0  0
    8.3546  -15.5104   26.9285 C   0  0  0  0  0  0  0  0  0  0  0  0
    9.0510  -15.7485   28.1167 C   0  0  0  0  0  0  0  0  0  0  0  0
   12.6807  -16.4063   22.7710 O   0  0  0  0  0  0  0  0  0  0  0  0
   11.8405  -17.5240   22.7682 C   0  0  0  0  0  0  0  0  0  0  0  0
   10.7567  -17.3096   23.7996 C   0  0  2  0  0  0  0  0  0  0  0  0
   10.2886  -15.9531   23.8363 N   0  0  0  0  0  0  0  0  0  0  0  0
   11.2854  -17.7560   25.1221 C   0  0  0  0  0  0  0  0  0  0  0  0
   11.7387  -18.9278   25.1857 O   0  0  0  0  0  0  0  0  0  0  0  0
   11.2916  -16.9452   26.2444 O   0  0  0  0  0  0  0  0  0  0  0  0
  1  2  1  0
  2  3  1  0
  3  4  1  6
  5  6  2  0
  5  3  1  0
  7  8  1  0
  8  9  2  0
  8 18  1  0
  9 10  1  0
 10 11  2  0
 11 12  1  0
 13 12  1  1
 13 15  1  0
 13 14  1  0
 14  5  1  0
 15 16  2  0
 17 11  1  0
 18 17  2  0
 20 19  1  0
 21 20  1  6
 22 15  1  0
 22 21  1  0
 23 25  1  0
 23 21  1  0
 24 23  2  0
M  END
$$$$
