SYS.pdb
     RDKit          3D

 25 25  0  0  1  0  0  0  0  0999 V2000
   11.3734  -20.2206   19.8007 O   0  0  0  0  0  0  0  0  0  0  0  0
   10.0691  -19.7904   19.5593 C   0  0  0  0  0  0  0  0  0  0  0  0
   10.1723  -18.4842   18.8044 C   0  0  2  0  0  0  0  0  0  0  0  0
   10.8936  -18.5962   17.5667 N   0  0  0  0  0  0  0  0  0  0  0  0
   10.8167  -17.4313   19.6802 C   0  0  0  0  0  0  0  0  0  0  0  0
   11.9517  -16.9810   19.4006 O   0  0  0  0  0  0  0  0  0  0  0  0
    6.7634  -12.2515   18.2022 O   0  0  0  0  0  0  0  0  0  0  0  0
    7.4521  -12.9555   19.2084 C   0  0  0  0  0  0  0  0  0  0  0  0
    8.7834  -12.6980   19.4571 C   0  0  0  0  0  0  0  0  0  0  0  0
    9.4584  -13.3946   20.4505 C   0  0  0  0  0  0  0  0  0  0  0  0
    8.8428  -14.3559   21.2185 C   0  0  0  0  0  0  0  0  0  0  0  0
    9.5897  -15.0879   22.2572 C   0  0  0  0  0  0  0  0  0  0  0  0
   10.6870  -15.9668   21.7439 C   0  0  2  0  0  0  0  0  0  0  0  0
   10.1462  -16.9400   20.8282 N   0  0  0  0  0  0  0  0  0  0  0  0
   11.4858  -16.5743   22.8364 C   0  0  0  0  0  0  0  0  0  0  0  0
   10.9843  -17.3032   23.7230 O   0  0  0  0  0  0  0  0  0  0  0  0
    7.5136  -14.6112   20.9678 C   0  0  0  0  0  0  0  0  0  0  0  0
    6.8284  -13.9133   19.9693 C   0  0  0  0  0  0  0  0  0  0  0  0
   15.1657  -17.7008   22.1912 O   0  0  0  0  0  0  0  0  0  0  0  0
   14.4861  -18.2011   23.3060 C   0  0  0  0  0  0  0  0  0  0  0  0
   13.6831  -17.0775   23.9199 C   0  0  2  0  0  0  0  0  0  0  0  0
   12.9008  -16.3632   22.9511 N   0  0  0  0  0  0  0  0  0  0  0  0
   14.6283  -16.1808   24.6481 C   0  0  0  0  0  0  0  0  0  0  0  0
   14.6673  -14.9785   24.2798 O   0  0  0  0  0  0  0  0  0  0  0  0
   15.4371  -16.6184   25.6831 O   0  0  0  0  0  0  0  0  0  0  0  0
  1  2  1  0
  2  3  1  0
  3  4  1  6
  5  6  2  0
  5  3  1  0
  7  8  1  0
  8  9  2  0
  8 18  1  0
  9 10  1  0
 10 11  2  0
 11 12  1  0
 13 12  1  1
 13 15  1  0
 13 14  1  0
 14  5  1  0
 15 16  2  0
 17 11  1  0
 18 17  2  0
 20 19  1  0
 21 20  1  6
 22 15  1  0
 22 21  1  0
 23 25  1  0
 23 21  1  0
 24 23  2  0
M  END
$$$$
