SYS.pdb
     RDKit          3D

 25 25  0  0  1  0  0  0  0  0999 V2000
    8.6097  -19.7754   21.2612 O   0  0  0  0  0  0  0  0  0  0  0  0
    9.8239  -19.2043   21.6410 C   0  0  0  0  0  0  0  0  0  0  0  0
    9.9231  -17.8742   20.9285 C   0  0  2  0  0  0  0  0  0  0  0  0
   11.0668  -17.7740   20.0644 N   0  0  0  0  0  0  0  0  0  0  0  0
    9.9434  -16.7475   21.9390 C   0  0  0  0  0  0  0  0  0  0  0  0
   11.0098  -16.4304   22.5147 O   0  0  0  0  0  0  0  0  0  0  0  0
    6.1109  -10.9402   27.6237 O   0  0  0  0  0  0  0  0  0  0  0  0
    6.3928  -11.8204   26.5615 C   0  0  0  0  0  0  0  0  0  0  0  0
    7.2528  -11.4457   25.5512 C   0  0  0  0  0  0  0  0  0  0  0  0
    7.5279  -12.3171   24.5058 C   0  0  0  0  0  0  0  0  0  0  0  0
    6.9665  -13.5708   24.4301 C   0  0  0  0  0  0  0  0  0  0  0  0
    7.2680  -14.4684   23.3006 C   0  0  0  0  0  0  0  0  0  0  0  0
    8.6012  -15.1450   23.3710 C   0  0  2  0  0  0  0  0  0  0  0  0
    8.7575  -16.0355   22.2483 N   0  0  0  0  0  0  0  0  0  0  0  0
    8.8334  -15.8073   24.6779 C   0  0  0  0  0  0  0  0  0  0  0  0
    9.0740  -15.1722   25.7303 O   0  0  0  0  0  0  0  0  0  0  0  0
    6.1079  -13.9421   25.4401 C   0  0  0  0  0  0  0  0  0  0  0  0
    5.8269  -13.0697   26.4953 C   0  0  0  0  0  0  0  0  0  0  0  0
    7.3319  -19.2067   27.5200 O   0  0  0  0  0  0  0  0  0  0  0  0
    7.3810  -18.6516   26.2376 C   0  0  0  0  0  0  0  0  0  0  0  0
    8.6547  -17.8474   26.1136 C   0  0  2  0  0  0  0  0  0  0  0  0
    8.7984  -17.2347   24.8233 N   0  0  0  0  0  0  0  0  0  0  0  0
    9.8005  -18.7474   26.4374 C   0  0  0  0  0  0  0  0  0  0  0  0
    9.8035  -19.2733   27.5802 O   0  0  0  0  0  0  0  0  0  0  0  0
   10.8269  -19.0120   25.5465 O   0  0  0  0  0  0  0  0  0  0  0  0
  1  2  1  0
  2  3  1  0
  3  4  1  1
  5  6  2  0
  5  3  1  0
  7  8  1  0
  8  9  2  0
  8 18  1  0
  9 10  1  0
 10 11  2  0
 11 12  1  0
 13 12  1  1
 13 15  1  0
 13 14  1  0
 14  5  1  0
 15 16  2  0
 17 11  1  0
 18 17  2  0
 20 19  1  0
 21 20  1  6
 22 15  1  0
 22 21  1  0
 23 25  1  0
 23 21  1  0
 24 23  2  0
M  END
$$$$
