SYS.pdb
     RDKit          3D

 25 25  0  0  1  0  0  0  0  0999 V2000
    7.5965  -15.2062   18.5351 O   0  0  0  0  0  0  0  0  0  0  0  0
    7.0650  -15.1714   19.8239 C   0  0  0  0  0  0  0  0  0  0  0  0
    7.2935  -13.7734   20.3532 C   0  0  2  0  0  0  0  0  0  0  0  0
    7.8286  -12.8718   19.3705 N   0  0  0  0  0  0  0  0  0  0  0  0
    8.2084  -13.8207   21.5581 C   0  0  0  0  0  0  0  0  0  0  0  0
    9.4457  -13.6803   21.4214 O   0  0  0  0  0  0  0  0  0  0  0  0
   10.4755  -14.8732   30.1558 O   0  0  0  0  0  0  0  0  0  0  0  0
    9.7777  -14.7104   28.9438 C   0  0  0  0  0  0  0  0  0  0  0  0
    9.6874  -13.4699   28.3490 C   0  0  0  0  0  0  0  0  0  0  0  0
    8.9984  -13.3142   27.1537 C   0  0  0  0  0  0  0  0  0  0  0  0
    8.3853  -14.3695   26.5188 C   0  0  0  0  0  0  0  0  0  0  0  0
    7.6499  -14.1700   25.2570 C   0  0  0  0  0  0  0  0  0  0  0  0
    8.4573  -14.3861   24.0154 C   0  0  2  0  0  0  0  0  0  0  0  0
    7.6792  -14.0242   22.8571 N   0  0  0  0  0  0  0  0  0  0  0  0
    9.0201  -15.7563   23.9355 C   0  0  0  0  0  0  0  0  0  0  0  0
    8.3237  -16.7650   23.6784 O   0  0  0  0  0  0  0  0  0  0  0  0
    8.4768  -15.6068   27.1150 C   0  0  0  0  0  0  0  0  0  0  0  0
    9.1690  -15.7704   28.3181 C   0  0  0  0  0  0  0  0  0  0  0  0
   12.5889  -16.5510   22.5378 O   0  0  0  0  0  0  0  0  0  0  0  0
   11.6587  -17.5781   22.7238 C   0  0  0  0  0  0  0  0  0  0  0  0
   10.9476  -17.3468   24.0372 C   0  0  2  0  0  0  0  0  0  0  0  0
   10.4146  -16.0188   24.1512 N   0  0  0  0  0  0  0  0  0  0  0  0
   11.9026  -17.6639   25.1396 C   0  0  0  0  0  0  0  0  0  0  0  0
   12.1443  -16.7439   25.9629 O   0  0  0  0  0  0  0  0  0  0  0  0
   12.5105  -18.9000   25.2785 O   0  0  0  0  0  0  0  0  0  0  0  0
  1  2  1  0
  2  3  1  0
  3  4  1  6
  5  6  2  0
  5  3  1  0
  7  8  1  0
  8  9  2  0
  8 18  1  0
  9 10  1  0
 10 11  2  0
 11 12  1  0
 13 12  1  1
 13 15  1  0
 13 14  1  0
 14  5  1  0
 15 16  2  0
 17 11  1  0
 18 17  2  0
 20 19  1  0
 21 20  1  6
 22 15  1  0
 22 21  1  0
 23 25  1  0
 23 21  1  0
 24 23  2  0
M  END
$$$$
