SYS.pdb
     RDKit          3D

 25 25  0  0  1  0  0  0  0  0999 V2000
    8.5092  -17.7718   20.0965 O   0  0  0  0  0  0  0  0  0  0  0  0
    7.3512  -17.0227   20.3027 C   0  0  0  0  0  0  0  0  0  0  0  0
    7.7727  -15.5714   20.3528 C   0  0  2  0  0  0  0  0  0  0  0  0
    8.4209  -15.1238   19.1510 N   0  0  0  0  0  0  0  0  0  0  0  0
    8.6794  -15.3378   21.5421 C   0  0  0  0  0  0  0  0  0  0  0  0
    9.9132  -15.1931   21.3808 O   0  0  0  0  0  0  0  0  0  0  0  0
   10.7761  -14.5036   30.2163 O   0  0  0  0  0  0  0  0  0  0  0  0
   10.1056  -14.5727   28.9801 C   0  0  0  0  0  0  0  0  0  0  0  0
    9.5274  -15.7523   28.5622 C   0  0  0  0  0  0  0  0  0  0  0  0
    8.8671  -15.8156   27.3424 C   0  0  0  0  0  0  0  0  0  0  0  0
    8.7607  -14.7258   26.5096 C   0  0  0  0  0  0  0  0  0  0  0  0
    8.0645  -14.8278   25.2144 C   0  0  0  0  0  0  0  0  0  0  0  0
    8.9333  -15.2195   24.0604 C   0  0  2  0  0  0  0  0  0  0  0  0
    8.1463  -15.2794   22.8541 N   0  0  0  0  0  0  0  0  0  0  0  0
    9.6969  -16.4642   24.3214 C   0  0  0  0  0  0  0  0  0  0  0  0
    9.1772  -17.6032   24.2825 O   0  0  0  0  0  0  0  0  0  0  0  0
    9.3393  -13.5494   26.9293 C   0  0  0  0  0  0  0  0  0  0  0  0
   10.0053  -13.4789   28.1560 C   0  0  0  0  0  0  0  0  0  0  0  0
   13.1479  -17.2534   22.9898 O   0  0  0  0  0  0  0  0  0  0  0  0
   13.2190  -17.6347   24.3332 C   0  0  0  0  0  0  0  0  0  0  0  0
   11.8172  -17.6589   24.8978 C   0  0  2  0  0  0  0  0  0  0  0  0
   11.0961  -16.4446   24.6403 N   0  0  0  0  0  0  0  0  0  0  0  0
   11.9142  -17.9543   26.3576 C   0  0  0  0  0  0  0  0  0  0  0  0
   11.3582  -17.1404   27.1393 O   0  0  0  0  0  0  0  0  0  0  0  0
   12.5761  -19.0614   26.8608 O   0  0  0  0  0  0  0  0  0  0  0  0
  1  2  1  0
  2  3  1  0
  3  4  1  6
  5  6  2  0
  5  3  1  0
  7  8  1  0
  8  9  2  0
  8 18  1  0
  9 10  1  0
 10 11  2  0
 11 12  1  0
 13 12  1  1
 13 15  1  0
 13 14  1  0
 14  5  1  0
 15 16  2  0
 17 11  1  0
 18 17  2  0
 20 19  1  0
 21 20  1  1
 22 15  1  0
 22 21  1  0
 23 25  1  0
 23 21  1  0
 24 23  2  0
M  END
$$$$
