SYS.pdb
     RDKit          3D

 25 25  0  0  1  0  0  0  0  0999 V2000
    7.8647  -15.4031   19.1623 O   0  0  0  0  0  0  0  0  0  0  0  0
    6.7154  -14.6941   19.5100 C   0  0  0  0  0  0  0  0  0  0  0  0
    7.1728  -13.3578   20.0499 C   0  0  2  0  0  0  0  0  0  0  0  0
    7.8724  -12.5602   19.0808 N   0  0  0  0  0  0  0  0  0  0  0  0
    8.0449  -13.5648   21.2696 C   0  0  0  0  0  0  0  0  0  0  0  0
    9.2929  -13.5121   21.1738 O   0  0  0  0  0  0  0  0  0  0  0  0
   10.0888  -14.6181   29.9049 O   0  0  0  0  0  0  0  0  0  0  0  0
    9.4228  -14.4462   28.6763 C   0  0  0  0  0  0  0  0  0  0  0  0
    9.3681  -13.2058   28.0771 C   0  0  0  0  0  0  0  0  0  0  0  0
    8.7103  -13.0411   26.8656 C   0  0  0  0  0  0  0  0  0  0  0  0
    8.0942  -14.0872   26.2184 C   0  0  0  0  0  0  0  0  0  0  0  0
    7.3924  -13.8781   24.9392 C   0  0  0  0  0  0  0  0  0  0  0  0
    8.1974  -14.1971   23.7185 C   0  0  2  0  0  0  0  0  0  0  0  0
    7.4632  -13.8211   22.5363 N   0  0  0  0  0  0  0  0  0  0  0  0
    8.6588  -15.6068   23.6951 C   0  0  0  0  0  0  0  0  0  0  0  0
    7.8901  -16.5718   23.4789 O   0  0  0  0  0  0  0  0  0  0  0  0
    8.1501  -15.3245   26.8192 C   0  0  0  0  0  0  0  0  0  0  0  0
    8.8107  -15.4970   28.0386 C   0  0  0  0  0  0  0  0  0  0  0  0
   12.3943  -16.6918   22.6830 O   0  0  0  0  0  0  0  0  0  0  0  0
   11.3524  -17.6241   22.6955 C   0  0  0  0  0  0  0  0  0  0  0  0
   10.4621  -17.3299   23.8809 C   0  0  2  0  0  0  0  0  0  0  0  0
   10.0309  -15.9613   23.9224 N   0  0  0  0  0  0  0  0  0  0  0  0
   11.1983  -17.7233   25.1182 C   0  0  0  0  0  0  0  0  0  0  0  0
   11.5900  -18.9166   25.1901 O   0  0  0  0  0  0  0  0  0  0  0  0
   11.4546  -16.8427   26.1554 O   0  0  0  0  0  0  0  0  0  0  0  0
  1  2  1  0
  2  3  1  0
  3  4  1  6
  5  6  2  0
  5  3  1  0
  7  8  1  0
  8  9  2  0
  8 18  1  0
  9 10  1  0
 10 11  2  0
 11 12  1  0
 13 12  1  1
 13 15  1  0
 13 14  1  0
 14  5  1  0
 15 16  2  0
 17 11  1  0
 18 17  2  0
 20 19  1  0
 21 20  1  6
 22 15  1  0
 22 21  1  0
 23 25  1  0
 23 21  1  0
 24 23  2  0
M  END
$$$$
