SYS.pdb
     RDKit          3D

 25 25  0  0  1  0  0  0  0  0999 V2000
    7.7302  -15.5224   19.3803 O   0  0  0  0  0  0  0  0  0  0  0  0
    6.6323  -14.8810   19.9526 C   0  0  0  0  0  0  0  0  0  0  0  0
    7.1162  -13.5315   20.4335 C   0  0  2  0  0  0  0  0  0  0  0  0
    7.7095  -12.7350   19.3951 N   0  0  0  0  0  0  0  0  0  0  0  0
    8.1012  -13.7108   21.5686 C   0  0  0  0  0  0  0  0  0  0  0  0
    9.3327  -13.6091   21.3624 O   0  0  0  0  0  0  0  0  0  0  0  0
   10.8021  -15.3392   29.9470 O   0  0  0  0  0  0  0  0  0  0  0  0
   10.0480  -15.0448   28.7949 C   0  0  0  0  0  0  0  0  0  0  0  0
    9.3407  -16.0363   28.1488 C   0  0  0  0  0  0  0  0  0  0  0  0
    8.5984  -15.7412   27.0132 C   0  0  0  0  0  0  0  0  0  0  0  0
    8.5347  -14.4707   26.4893 C   0  0  0  0  0  0  0  0  0  0  0  0
    7.7482  -14.1913   25.2744 C   0  0  0  0  0  0  0  0  0  0  0  0
    8.4962  -14.3518   23.9880 C   0  0  2  0  0  0  0  0  0  0  0  0
    7.6454  -13.9960   22.8800 N   0  0  0  0  0  0  0  0  0  0  0  0
    9.1034  -15.6981   23.8486 C   0  0  0  0  0  0  0  0  0  0  0  0
    8.4563  -16.7016   23.4703 O   0  0  0  0  0  0  0  0  0  0  0  0
    9.2422  -13.4829   27.1363 C   0  0  0  0  0  0  0  0  0  0  0  0
    9.9913  -13.7732   28.2799 C   0  0  0  0  0  0  0  0  0  0  0  0
   12.4702  -18.5273   22.5018 O   0  0  0  0  0  0  0  0  0  0  0  0
   11.9735  -17.2324   22.6790 C   0  0  0  0  0  0  0  0  0  0  0  0
   11.0837  -17.2249   23.9006 C   0  0  2  0  0  0  0  0  0  0  0  0
   10.4869  -15.9419   24.1424 N   0  0  0  0  0  0  0  0  0  0  0  0
   11.8940  -17.6941   25.0630 C   0  0  0  0  0  0  0  0  0  0  0  0
   12.0376  -16.8869   26.0171 O   0  0  0  0  0  0  0  0  0  0  0  0
   12.4734  -18.9502   25.1205 O   0  0  0  0  0  0  0  0  0  0  0  0
  1  2  1  0
  2  3  1  0
  3  4  1  6
  5  6  2  0
  5  3  1  0
  7  8  1  0
  8  9  2  0
  8 18  1  0
  9 10  1  0
 10 11  2  0
 11 12  1  0
 13 12  1  1
 13 15  1  0
 13 14  1  0
 14  5  1  0
 15 16  2  0
 17 11  1  0
 18 17  2  0
 20 19  1  0
 21 20  1  6
 22 15  1  0
 22 21  1  0
 23 25  1  0
 23 21  1  0
 24 23  2  0
M  END
$$$$
