KNF.pdb
     RDKit          3D

 29 29  0  0  1  0  0  0  0  0999 V2000
    8.0187  -18.0431   19.1820 N   0  0  0  0  0  0  0  0  0  0  0  0
    7.7345  -16.9427   20.1252 C   0  0  1  0  0  0  0  0  0  0  0  0
    6.4659  -17.2098   20.8603 C   0  0  0  0  0  0  0  0  0  0  0  0
    6.4068  -18.5732   21.4419 C   0  0  0  0  0  0  0  0  0  0  0  0
    5.1058  -18.7827   22.2194 C   0  0  0  0  0  0  0  0  0  0  0  0
    5.1544  -20.1528   22.9048 C   0  0  0  0  0  0  0  0  0  0  0  0
    3.8978  -20.4276   23.5573 N   0  0  0  0  0  0  0  0  0  0  0  0
    8.8783  -16.8769   21.0517 C   0  0  0  0  0  0  0  0  0  0  0  0
    9.5193  -17.9432   21.3259 O   0  0  0  0  0  0  0  0  0  0  0  0
   11.7794  -13.8212   19.7697 N   0  0  0  0  0  0  0  0  0  0  0  0
   12.0982  -14.7957   20.7793 C   0  0  0  0  0  0  0  0  0  0  0  0
   12.8860  -15.6983   20.4728 O   0  0  0  0  0  0  0  0  0  0  0  0
   11.4655  -14.6474   22.0991 C   0  0  0  0  0  0  0  0  0  0  0  0
   10.5037  -15.7020   22.5048 C   0  0  2  0  0  0  0  0  0  0  0  0
    9.3045  -15.6846   21.6580 N   0  0  0  0  0  0  0  0  0  0  0  0
   10.0700  -15.4729   23.9261 C   0  0  0  0  0  0  0  0  0  0  0  0
    9.6239  -14.3800   24.3190 O   0  0  0  0  0  0  0  0  0  0  0  0
   10.1540  -16.5182   24.9093 N   0  0  0  0  0  0  0  0  0  0  0  0
    9.6721  -16.2755   26.2788 C   0  0  1  0  0  0  0  0  0  0  0  0
    8.1928  -16.0756   26.1659 C   0  0  0  0  0  0  0  0  0  0  0  0
    7.7431  -14.6879   26.0883 C   0  0  0  0  0  0  0  0  0  0  0  0
    7.9861  -13.8419   27.1438 C   0  0  0  0  0  0  0  0  0  0  0  0
    7.6058  -12.5039   27.1537 C   0  0  0  0  0  0  0  0  0  0  0  0
    6.9597  -12.0068   26.0633 C   0  0  0  0  0  0  0  0  0  0  0  0
    6.6997  -12.8215   24.9920 C   0  0  0  0  0  0  0  0  0  0  0  0
    7.0851  -14.1446   25.0020 C   0  0  0  0  0  0  0  0  0  0  0  0
    9.9453  -17.4858   27.0698 C   0  0  0  0  0  0  0  0  0  0  0  0
   10.3427  -18.5282   26.5232 O   0  0  0  0  0  0  0  0  0  0  0  0
    9.7602  -17.4655   28.4341 O   0  0  0  0  0  0  0  0  0  0  0  0
  2  1  1  6
  2  3  1  0
  4  3  1  0
  5  4  1  0
  6  5  1  0
  7  6  1  0
  8  9  2  0
  8  2  1  0
 11 10  1  0
 11 13  1  0
 12 11  2  0
 14 13  1  6
 14 15  1  0
 15  8  1  0
 16 14  1  0
 16 18  1  0
 17 16  2  0
 19 20  1  6
 19 18  1  0
 19 27  1  0
 21 26  2  0
 21 20  1  0
 22 21  1  0
 23 24  1  0
 23 22  2  0
 24 25  2  0
 25 26  1  0
 27 28  2  0
 27 29  1  0
M  END
$$$$
