KNF.pdb
     RDKit          3D

 29 29  0  0  1  0  0  0  0  0999 V2000
   11.7928  -20.3331   20.8502 N   0  0  0  0  0  0  0  0  0  0  0  0
   12.1220  -19.0527   20.1918 C   0  0  1  0  0  0  0  0  0  0  0  0
   12.3459  -19.2664   18.7340 C   0  0  0  0  0  0  0  0  0  0  0  0
   12.9742  -20.5748   18.4277 C   0  0  0  0  0  0  0  0  0  0  0  0
   13.1977  -20.7379   16.9229 C   0  0  0  0  0  0  0  0  0  0  0  0
   13.9883  -22.0279   16.6773 C   0  0  0  0  0  0  0  0  0  0  0  0
   14.1559  -22.2467   15.2616 N   0  0  0  0  0  0  0  0  0  0  0  0
   10.9781  -18.1537   20.4245 C   0  0  0  0  0  0  0  0  0  0  0  0
   10.9629  -17.0086   19.8664 O   0  0  0  0  0  0  0  0  0  0  0  0
    7.1693  -20.4180   19.9232 N   0  0  0  0  0  0  0  0  0  0  0  0
    7.1543  -18.9795   19.9573 C   0  0  0  0  0  0  0  0  0  0  0  0
    6.8864  -18.3864   18.9059 O   0  0  0  0  0  0  0  0  0  0  0  0
    7.4580  -18.3211   21.2374 C   0  0  0  0  0  0  0  0  0  0  0  0
    8.7425  -17.5833   21.3247 C   0  0  2  0  0  0  0  0  0  0  0  0
    9.8890  -18.4965   21.2413 N   0  0  0  0  0  0  0  0  0  0  0  0
    8.8226  -16.8590   22.6399 C   0  0  0  0  0  0  0  0  0  0  0  0
    9.5626  -17.2377   23.5656 O   0  0  0  0  0  0  0  0  0  0  0  0
    8.0363  -15.6824   22.8925 N   0  0  0  0  0  0  0  0  0  0  0  0
    8.0581  -15.0598   24.2262 C   0  0  1  0  0  0  0  0  0  0  0  0
    7.3263  -13.7613   24.0869 C   0  0  0  0  0  0  0  0  0  0  0  0
    7.2029  -12.9672   25.3068 C   0  0  0  0  0  0  0  0  0  0  0  0
    5.9862  -12.4163   25.6308 C   0  0  0  0  0  0  0  0  0  0  0  0
    5.7721  -11.6569   26.7763 C   0  0  0  0  0  0  0  0  0  0  0  0
    6.8205  -11.4480   27.6195 C   0  0  0  0  0  0  0  0  0  0  0  0
    8.0490  -11.9816   27.3284 C   0  0  0  0  0  0  0  0  0  0  0  0
    8.2403  -12.7314   26.1880 C   0  0  0  0  0  0  0  0  0  0  0  0
    7.3211  -15.9429   25.1438 C   0  0  0  0  0  0  0  0  0  0  0  0
    6.2565  -16.4795   24.7944 O   0  0  0  0  0  0  0  0  0  0  0  0
    7.8162  -16.1809   26.4065 O   0  0  0  0  0  0  0  0  0  0  0  0
  2  1  1  1
  2  3  1  0
  4  3  1  0
  5  4  1  0
  6  5  1  0
  7  6  1  0
  8  9  2  0
  8  2  1  0
 11 10  1  0
 11 13  1  0
 12 11  2  0
 14 13  1  1
 14 15  1  0
 15  8  1  0
 16 14  1  0
 16 18  1  0
 17 16  2  0
 19 20  1  6
 19 18  1  0
 19 27  1  0
 21 26  2  0
 21 20  1  0
 22 21  1  0
 23 24  1  0
 23 22  2  0
 24 25  2  0
 25 26  1  0
 27 28  2  0
 27 29  1  0
M  END
$$$$
