KNF.pdb
     RDKit          3D

 29 29  0  0  1  0  0  0  0  0999 V2000
   10.4897  -19.1675   21.2179 N   0  0  0  0  0  0  0  0  0  0  0  0
   10.7294  -17.9068   20.4868 C   0  0  1  0  0  0  0  0  0  0  0  0
   10.5254  -18.1130   19.0249 C   0  0  0  0  0  0  0  0  0  0  0  0
   10.6855  -19.5279   18.6093 C   0  0  0  0  0  0  0  0  0  0  0  0
   10.3798  -19.7008   17.1201 C   0  0  0  0  0  0  0  0  0  0  0  0
   10.7042  -21.1424   16.7127 C   0  0  0  0  0  0  0  0  0  0  0  0
   10.3102  -21.3735   15.3447 N   0  0  0  0  0  0  0  0  0  0  0  0
    9.7715  -16.9225   21.0203 C   0  0  0  0  0  0  0  0  0  0  0  0
    9.7728  -15.7369   20.5540 O   0  0  0  0  0  0  0  0  0  0  0  0
    5.4159  -17.7941   24.7075 N   0  0  0  0  0  0  0  0  0  0  0  0
    6.4904  -17.8635   23.7529 C   0  0  0  0  0  0  0  0  0  0  0  0
    7.3149  -18.7753   23.8868 O   0  0  0  0  0  0  0  0  0  0  0  0
    6.5294  -16.8472   22.6899 C   0  0  0  0  0  0  0  0  0  0  0  0
    7.8446  -16.2202   22.4086 C   0  0  2  0  0  0  0  0  0  0  0  0
    8.8451  -17.2259   22.0304 N   0  0  0  0  0  0  0  0  0  0  0  0
    8.3420  -15.5122   23.6383 C   0  0  0  0  0  0  0  0  0  0  0  0
    7.9731  -14.3633   23.9412 O   0  0  0  0  0  0  0  0  0  0  0  0
    9.2801  -16.1370   24.5306 N   0  0  0  0  0  0  0  0  0  0  0  0
    9.6656  -15.4593   25.7791 C   0  0  1  0  0  0  0  0  0  0  0  0
    8.4165  -15.3635   26.5986 C   0  0  0  0  0  0  0  0  0  0  0  0
    7.6542  -14.1259   26.4531 C   0  0  0  0  0  0  0  0  0  0  0  0
    6.2849  -14.1869   26.3528 C   0  0  0  0  0  0  0  0  0  0  0  0
    5.4774  -13.0617   26.2236 C   0  0  0  0  0  0  0  0  0  0  0  0
    6.0729  -11.8378   26.1946 C   0  0  0  0  0  0  0  0  0  0  0  0
    7.4366  -11.7383   26.2916 C   0  0  0  0  0  0  0  0  0  0  0  0
    8.2189  -12.8656   26.4191 C   0  0  0  0  0  0  0  0  0  0  0  0
   10.6418  -16.3166   26.4699 C   0  0  0  0  0  0  0  0  0  0  0  0
   10.9251  -17.4431   26.0292 O   0  0  0  0  0  0  0  0  0  0  0  0
   11.2520  -15.8667   27.6194 O   0  0  0  0  0  0  0  0  0  0  0  0
  2  1  1  1
  2  3  1  0
  4  3  1  0
  5  4  1  0
  6  5  1  0
  7  6  1  0
  8  9  2  0
  8  2  1  0
 11 10  1  0
 11 13  1  0
 12 11  2  0
 14 13  1  1
 14 15  1  0
 15  8  1  0
 16 14  1  0
 16 18  1  0
 17 16  2  0
 19 20  1  1
 19 18  1  0
 19 27  1  0
 21 26  2  0
 21 20  1  0
 22 21  1  0
 23 24  1  0
 23 22  2  0
 24 25  2  0
 25 26  1  0
 27 28  2  0
 27 29  1  0
M  END
$$$$
