KNF.pdb
     RDKit          3D

 29 29  0  0  1  0  0  0  0  0999 V2000
    9.5898  -13.1534   19.2836 N   0  0  0  0  0  0  0  0  0  0  0  0
    8.2483  -13.3225   19.8779 C   0  0  1  0  0  0  0  0  0  0  0  0
    7.2206  -13.4361   18.8045 C   0  0  0  0  0  0  0  0  0  0  0  0
    7.5746  -14.4318   17.7635 C   0  0  0  0  0  0  0  0  0  0  0  0
    8.0007  -13.7420   16.4660 C   0  0  0  0  0  0  0  0  0  0  0  0
    8.2158  -14.8086   15.3863 C   0  0  0  0  0  0  0  0  0  0  0  0
    8.7866  -14.2117   14.2040 N   0  0  0  0  0  0  0  0  0  0  0  0
    8.3003  -14.5498   20.6916 C   0  0  0  0  0  0  0  0  0  0  0  0
    7.2114  -15.1002   21.0579 O   0  0  0  0  0  0  0  0  0  0  0  0
    9.6884  -19.6539   21.8255 N   0  0  0  0  0  0  0  0  0  0  0  0
   10.5824  -18.6033   22.2350 C   0  0  0  0  0  0  0  0  0  0  0  0
   11.3466  -18.8394   23.1780 O   0  0  0  0  0  0  0  0  0  0  0  0
   10.5220  -17.3282   21.5037 C   0  0  0  0  0  0  0  0  0  0  0  0
    9.4555  -16.3761   21.9013 C   0  0  2  0  0  0  0  0  0  0  0  0
    9.5034  -15.1527   21.0911 N   0  0  0  0  0  0  0  0  0  0  0  0
    9.6367  -15.9848   23.3417 C   0  0  0  0  0  0  0  0  0  0  0  0
   10.5214  -15.1916   23.7108 O   0  0  0  0  0  0  0  0  0  0  0  0
    8.7872  -16.5173   24.3718 N   0  0  0  0  0  0  0  0  0  0  0  0
    9.0101  -16.1338   25.7754 C   0  0  1  0  0  0  0  0  0  0  0  0
    7.6780  -15.6958   26.2995 C   0  0  0  0  0  0  0  0  0  0  0  0
    7.4187  -14.2588   26.2549 C   0  0  0  0  0  0  0  0  0  0  0  0
    8.1360  -13.4199   27.0736 C   0  0  0  0  0  0  0  0  0  0  0  0
    7.9657  -12.0395   27.0908 C   0  0  0  0  0  0  0  0  0  0  0  0
    7.0417  -11.4911   26.2548 C   0  0  0  0  0  0  0  0  0  0  0  0
    6.3071  -12.2970   25.4243 C   0  0  0  0  0  0  0  0  0  0  0  0
    6.4911  -13.6628   25.4225 C   0  0  0  0  0  0  0  0  0  0  0  0
    9.4531  -17.3343   26.5017 C   0  0  0  0  0  0  0  0  0  0  0  0
    9.2696  -18.4688   26.0298 O   0  0  0  0  0  0  0  0  0  0  0  0
   10.0809  -17.2018   27.7201 O   0  0  0  0  0  0  0  0  0  0  0  0
  2  1  1  6
  2  3  1  0
  4  3  1  0
  5  4  1  0
  6  5  1  0
  7  6  1  0
  8  9  2  0
  8  2  1  0
 11 10  1  0
 11 13  1  0
 12 11  2  0
 14 13  1  6
 14 15  1  0
 15  8  1  0
 16 14  1  0
 16 18  1  0
 17 16  2  0
 19 20  1  1
 19 18  1  0
 19 27  1  0
 21 26  2  0
 21 20  1  0
 22 21  1  0
 23 24  1  0
 23 22  2  0
 24 25  2  0
 25 26  1  0
 27 28  2  0
 27 29  1  0
M  END
$$$$
