KNF.pdb
     RDKit          3D

 29 29  0  0  1  0  0  0  0  0999 V2000
    6.2389  -18.1068   21.2567 N   0  0  0  0  0  0  0  0  0  0  0  0
    7.4430  -18.5779   20.5430 C   0  0  1  0  0  0  0  0  0  0  0  0
    7.0929  -18.9756   19.1500 C   0  0  0  0  0  0  0  0  0  0  0  0
    5.9152  -19.8747   19.0806 C   0  0  0  0  0  0  0  0  0  0  0  0
    5.5816  -20.2318   17.6307 C   0  0  0  0  0  0  0  0  0  0  0  0
    4.3123  -21.0909   17.6123 C   0  0  0  0  0  0  0  0  0  0  0  0
    3.8973  -21.3365   16.2531 N   0  0  0  0  0  0  0  0  0  0  0  0
    8.4001  -17.4576   20.5478 C   0  0  0  0  0  0  0  0  0  0  0  0
    9.5221  -17.5951   19.9604 O   0  0  0  0  0  0  0  0  0  0  0  0
    7.4511  -12.5279   19.0644 N   0  0  0  0  0  0  0  0  0  0  0  0
    8.2844  -13.6534   19.3953 C   0  0  0  0  0  0  0  0  0  0  0  0
    8.6700  -14.3712   18.4652 O   0  0  0  0  0  0  0  0  0  0  0  0
    8.6160  -13.8673   20.8125 C   0  0  0  0  0  0  0  0  0  0  0  0
    9.1763  -15.1918   21.1783 C   0  0  2  0  0  0  0  0  0  0  0  0
    8.1378  -16.2296   21.1755 N   0  0  0  0  0  0  0  0  0  0  0  0
    9.7641  -15.1292   22.5608 C   0  0  0  0  0  0  0  0  0  0  0  0
   10.8258  -14.5293   22.8073 O   0  0  0  0  0  0  0  0  0  0  0  0
    9.1198  -15.7696   23.6750 N   0  0  0  0  0  0  0  0  0  0  0  0
    9.7667  -15.7630   24.9972 C   0  0  1  0  0  0  0  0  0  0  0  0
    9.7357  -14.3411   25.4642 C   0  0  0  0  0  0  0  0  0  0  0  0
    8.4244  -13.8284   25.8537 C   0  0  0  0  0  0  0  0  0  0  0  0
    7.3096  -14.2366   25.1614 C   0  0  0  0  0  0  0  0  0  0  0  0
    6.0214  -13.8109   25.4681 C   0  0  0  0  0  0  0  0  0  0  0  0
    5.8558  -12.9459   26.5063 C   0  0  0  0  0  0  0  0  0  0  0  0
    6.9450  -12.5168   27.2193 C   0  0  0  0  0  0  0  0  0  0  0  0
    8.2133  -12.9505   26.8993 C   0  0  0  0  0  0  0  0  0  0  0  0
    8.9514  -16.5935   25.8977 C   0  0  0  0  0  0  0  0  0  0  0  0
    7.9323  -17.1710   25.4839 O   0  0  0  0  0  0  0  0  0  0  0  0
    9.3213  -16.7356   27.2164 O   0  0  0  0  0  0  0  0  0  0  0  0
  2  1  1  1
  2  3  1  0
  4  3  1  0
  5  4  1  0
  6  5  1  0
  7  6  1  0
  8  9  2  0
  8  2  1  0
 11 10  1  0
 11 13  1  0
 12 11  2  0
 14 13  1  1
 14 15  1  0
 15  8  1  0
 16 14  1  0
 16 18  1  0
 17 16  2  0
 19 20  1  1
 19 18  1  0
 19 27  1  0
 21 26  2  0
 21 20  1  0
 22 21  1  0
 23 24  1  0
 23 22  2  0
 24 25  2  0
 25 26  1  0
 27 28  2  0
 27 29  1  0
M  END
$$$$
