KNF.pdb
     RDKit          3D

 29 29  0  0  1  0  0  0  0  0999 V2000
    7.0181  -18.2169   20.8490 N   0  0  0  0  0  0  0  0  0  0  0  0
    8.3924  -18.2879   20.3128 C   0  0  1  0  0  0  0  0  0  0  0  0
    8.3598  -18.3997   18.8270 C   0  0  0  0  0  0  0  0  0  0  0  0
    7.1405  -19.0763   18.3212 C   0  0  0  0  0  0  0  0  0  0  0  0
    7.1608  -19.1759   16.7946 C   0  0  0  0  0  0  0  0  0  0  0  0
    5.8458  -19.8061   16.3225 C   0  0  0  0  0  0  0  0  0  0  0  0
    5.8643  -19.9825   14.8911 N   0  0  0  0  0  0  0  0  0  0  0  0
    9.0730  -17.0512   20.7348 C   0  0  0  0  0  0  0  0  0  0  0  0
   10.3006  -16.8841   20.4381 O   0  0  0  0  0  0  0  0  0  0  0  0
    6.8900  -12.9662   19.7040 N   0  0  0  0  0  0  0  0  0  0  0  0
    8.2256  -13.3299   20.0974 C   0  0  0  0  0  0  0  0  0  0  0  0
    9.0842  -13.3949   19.2099 O   0  0  0  0  0  0  0  0  0  0  0  0
    8.4714  -13.5969   21.5230 C   0  0  0  0  0  0  0  0  0  0  0  0
    9.1990  -14.8466   21.8562 C   0  0  2  0  0  0  0  0  0  0  0  0
    8.4316  -16.0331   21.4579 N   0  0  0  0  0  0  0  0  0  0  0  0
    9.4271  -14.9198   23.3406 C   0  0  0  0  0  0  0  0  0  0  0  0
   10.0572  -14.0455   23.9622 O   0  0  0  0  0  0  0  0  0  0  0  0
    8.9235  -16.0182   24.1193 N   0  0  0  0  0  0  0  0  0  0  0  0
    9.1951  -16.0760   25.5649 C   0  0  1  0  0  0  0  0  0  0  0  0
    7.8692  -15.9121   26.2402 C   0  0  0  0  0  0  0  0  0  0  0  0
    7.4085  -14.5363   26.4108 C   0  0  0  0  0  0  0  0  0  0  0  0
    8.1628  -13.6617   27.1557 C   0  0  0  0  0  0  0  0  0  0  0  0
    7.8094  -12.3322   27.3620 C   0  0  0  0  0  0  0  0  0  0  0  0
    6.6583  -11.8736   26.7980 C   0  0  0  0  0  0  0  0  0  0  0  0
    5.8803  -12.7176   26.0488 C   0  0  0  0  0  0  0  0  0  0  0  0
    6.2482  -14.0317   25.8564 C   0  0  0  0  0  0  0  0  0  0  0  0
    9.7375  -17.4105   25.8647 C   0  0  0  0  0  0  0  0  0  0  0  0
    9.8732  -18.2595   24.9680 O   0  0  0  0  0  0  0  0  0  0  0  0
   10.1015  -17.7249   27.1549 O   0  0  0  0  0  0  0  0  0  0  0  0
  2  1  1  6
  2  3  1  0
  4  3  1  0
  5  4  1  0
  6  5  1  0
  7  6  1  0
  8  9  2  0
  8  2  1  0
 11 10  1  0
 11 13  1  0
 12 11  2  0
 14 13  1  1
 14 15  1  0
 15  8  1  0
 16 14  1  0
 16 18  1  0
 17 16  2  0
 19 20  1  1
 19 18  1  0
 19 27  1  0
 21 26  2  0
 21 20  1  0
 22 21  1  0
 23 24  1  0
 23 22  2  0
 24 25  2  0
 25 26  1  0
 27 28  2  0
 27 29  1  0
M  END
$$$$
