KNF.pdb
     RDKit          3D

 29 29  0  0  1  0  0  0  0  0999 V2000
    6.1746  -17.8851   20.9572 N   0  0  0  0  0  0  0  0  0  0  0  0
    7.4532  -18.3104   20.3525 C   0  0  1  0  0  0  0  0  0  0  0  0
    7.2879  -18.5071   18.8845 C   0  0  0  0  0  0  0  0  0  0  0  0
    6.0334  -19.2149   18.5301 C   0  0  0  0  0  0  0  0  0  0  0  0
    5.9330  -19.4313   17.0188 C   0  0  0  0  0  0  0  0  0  0  0  0
    4.5557  -20.0201   16.6939 C   0  0  0  0  0  0  0  0  0  0  0  0
    4.4515  -20.2923   15.2814 N   0  0  0  0  0  0  0  0  0  0  0  0
    8.4283  -17.2428   20.6361 C   0  0  0  0  0  0  0  0  0  0  0  0
    9.6358  -17.3858   20.2562 O   0  0  0  0  0  0  0  0  0  0  0  0
    7.1247  -12.8344   19.3049 N   0  0  0  0  0  0  0  0  0  0  0  0
    8.3443  -13.5107   19.6596 C   0  0  0  0  0  0  0  0  0  0  0  0
    9.0727  -13.8954   18.7374 O   0  0  0  0  0  0  0  0  0  0  0  0
    8.6351  -13.6943   21.0900 C   0  0  0  0  0  0  0  0  0  0  0  0
    9.1220  -15.0317   21.5098 C   0  0  2  0  0  0  0  0  0  0  0  0
    8.0927  -16.0600   21.3136 N   0  0  0  0  0  0  0  0  0  0  0  0
    9.4780  -15.0060   22.9703 C   0  0  0  0  0  0  0  0  0  0  0  0
   10.3081  -14.2072   23.4403 O   0  0  0  0  0  0  0  0  0  0  0  0
    8.8700  -15.9160   23.9024 N   0  0  0  0  0  0  0  0  0  0  0  0
    9.2096  -15.8347   25.3324 C   0  0  1  0  0  0  0  0  0  0  0  0
    7.9076  -15.6955   26.0579 C   0  0  0  0  0  0  0  0  0  0  0  0
    7.4286  -14.3285   26.2472 C   0  0  0  0  0  0  0  0  0  0  0  0
    6.1953  -13.9736   25.7554 C   0  0  0  0  0  0  0  0  0  0  0  0
    5.6532  -12.7006   25.8985 C   0  0  0  0  0  0  0  0  0  0  0  0
    6.3806  -11.7580   26.5587 C   0  0  0  0  0  0  0  0  0  0  0  0
    7.6151  -12.0758   27.0625 C   0  0  0  0  0  0  0  0  0  0  0  0
    8.1344  -13.3432   26.9101 C   0  0  0  0  0  0  0  0  0  0  0  0
    9.8505  -17.1036   25.7124 C   0  0  0  0  0  0  0  0  0  0  0  0
   10.2380  -17.2984   26.8765 O   0  0  0  0  0  0  0  0  0  0  0  0
   10.0229  -18.0906   24.7678 O   0  0  0  0  0  0  0  0  0  0  0  0
  2  1  1  6
  2  3  1  0
  4  3  1  0
  5  4  1  0
  6  5  1  0
  7  6  1  0
  8  9  2  0
  8  2  1  0
 11 10  1  0
 11 13  1  0
 12 11  2  0
 14 13  1  1
 14 15  1  0
 15  8  1  0
 16 14  1  0
 16 18  1  0
 17 16  2  0
 19 20  1  1
 19 18  1  0
 19 27  1  0
 21 26  2  0
 21 20  1  0
 22 21  1  0
 23 24  1  0
 23 22  2  0
 24 25  2  0
 25 26  1  0
 27 28  2  0
 27 29  1  0
M  END
$$$$
