KNF.pdb
     RDKit          3D

 29 29  0  0  1  0  0  0  0  0999 V2000
    8.0415  -15.8460   21.1720 N   0  0  0  0  0  0  0  0  0  0  0  0
    8.7710  -16.7841   20.2951 C   0  0  1  0  0  0  0  0  0  0  0  0
    9.2833  -16.0704   19.0912 C   0  0  0  0  0  0  0  0  0  0  0  0
    8.2544  -15.2293   18.4322 C   0  0  0  0  0  0  0  0  0  0  0  0
    8.5596  -13.7416   18.6183 C   0  0  0  0  0  0  0  0  0  0  0  0
    7.4977  -12.9223   17.8764 C   0  0  0  0  0  0  0  0  0  0  0  0
    7.5113  -13.2463   16.4711 N   0  0  0  0  0  0  0  0  0  0  0  0
    9.8798  -17.3325   21.0958 C   0  0  0  0  0  0  0  0  0  0  0  0
   10.5918  -18.2716   20.6119 O   0  0  0  0  0  0  0  0  0  0  0  0
   14.4371  -17.8945   22.7630 N   0  0  0  0  0  0  0  0  0  0  0  0
   13.9770  -16.5734   22.4259 C   0  0  0  0  0  0  0  0  0  0  0  0
   14.7980  -15.6507   22.4851 O   0  0  0  0  0  0  0  0  0  0  0  0
   12.5670  -16.4175   22.0363 C   0  0  0  0  0  0  0  0  0  0  0  0
   11.5551  -17.0732   22.9013 C   0  0  2  0  0  0  0  0  0  0  0  0
   10.1970  -16.8691   22.3824 N   0  0  0  0  0  0  0  0  0  0  0  0
   11.6148  -16.4875   24.2848 C   0  0  0  0  0  0  0  0  0  0  0  0
   12.4312  -15.6030   24.5996 O   0  0  0  0  0  0  0  0  0  0  0  0
   10.7220  -16.9295   25.3211 N   0  0  0  0  0  0  0  0  0  0  0  0
    9.9527  -15.9417   26.0952 C   0  0  1  0  0  0  0  0  0  0  0  0
    9.0410  -15.2702   25.1160 C   0  0  0  0  0  0  0  0  0  0  0  0
    8.1020  -14.3043   25.6810 C   0  0  0  0  0  0  0  0  0  0  0  0
    8.5858  -13.2320   26.3915 C   0  0  0  0  0  0  0  0  0  0  0  0
    7.7687  -12.2573   26.9547 C   0  0  0  0  0  0  0  0  0  0  0  0
    6.4215  -12.3709   26.7948 C   0  0  0  0  0  0  0  0  0  0  0  0
    5.9029  -13.4276   26.0925 C   0  0  0  0  0  0  0  0  0  0  0  0
    6.7298  -14.3829   25.5421 C   0  0  0  0  0  0  0  0  0  0  0  0
    9.1523  -16.6766   27.0874 C   0  0  0  0  0  0  0  0  0  0  0  0
    9.1276  -16.3195   28.2770 O   0  0  0  0  0  0  0  0  0  0  0  0
    8.4190  -17.7739   26.6949 O   0  0  0  0  0  0  0  0  0  0  0  0
  2  1  1  1
  2  3  1  0
  4  3  1  0
  5  4  1  0
  6  5  1  0
  7  6  1  0
  8  9  2  0
  8  2  1  0
 11 10  1  0
 11 13  1  0
 12 11  2  0
 14 13  1  6
 14 15  1  0
 15  8  1  0
 16 14  1  0
 16 18  1  0
 17 16  2  0
 19 20  1  6
 19 18  1  0
 19 27  1  0
 21 26  2  0
 21 20  1  0
 22 21  1  0
 23 24  1  0
 23 22  2  0
 24 25  2  0
 25 26  1  0
 27 28  2  0
 27 29  1  0
M  END
$$$$
