KNF.pdb
     RDKit          3D

 29 29  0  0  1  0  0  0  0  0999 V2000
    9.3352  -15.3427   18.7887 N   0  0  0  0  0  0  0  0  0  0  0  0
    8.8103  -14.2191   19.5907 C   0  0  1  0  0  0  0  0  0  0  0  0
    7.7391  -13.5064   18.8385 C   0  0  0  0  0  0  0  0  0  0  0  0
    7.3096  -14.2269   17.6152 C   0  0  0  0  0  0  0  0  0  0  0  0
    8.1923  -13.8570   16.4215 C   0  0  0  0  0  0  0  0  0  0  0  0
    7.6922  -14.6107   15.1841 C   0  0  0  0  0  0  0  0  0  0  0  0
    8.4835  -14.2558   14.0317 N   0  0  0  0  0  0  0  0  0  0  0  0
    8.2826  -14.8021   20.8367 C   0  0  0  0  0  0  0  0  0  0  0  0
    7.6472  -14.0574   21.6520 O   0  0  0  0  0  0  0  0  0  0  0  0
    5.6926  -17.6018   23.8258 N   0  0  0  0  0  0  0  0  0  0  0  0
    6.5044  -18.5686   23.1353 C   0  0  0  0  0  0  0  0  0  0  0  0
    6.1208  -19.7441   23.1408 O   0  0  0  0  0  0  0  0  0  0  0  0
    7.7283  -18.0891   22.4747 C   0  0  0  0  0  0  0  0  0  0  0  0
    7.9662  -16.6244   22.4838 C   0  0  2  0  0  0  0  0  0  0  0  0
    8.4463  -16.1538   21.1786 N   0  0  0  0  0  0  0  0  0  0  0  0
    9.0116  -16.2871   23.5105 C   0  0  0  0  0  0  0  0  0  0  0  0
   10.1289  -15.8357   23.2009 O   0  0  0  0  0  0  0  0  0  0  0  0
    8.7663  -16.4751   24.9144 N   0  0  0  0  0  0  0  0  0  0  0  0
    9.7275  -15.9569   25.9013 C   0  0  1  0  0  0  0  0  0  0  0  0
    9.6414  -14.4648   25.8164 C   0  0  0  0  0  0  0  0  0  0  0  0
    8.3894  -13.8729   26.2814 C   0  0  0  0  0  0  0  0  0  0  0  0
    7.3428  -13.7349   25.4014 C   0  0  0  0  0  0  0  0  0  0  0  0
    6.1116  -13.1943   25.7574 C   0  0  0  0  0  0  0  0  0  0  0  0
    5.9337  -12.7806   27.0422 C   0  0  0  0  0  0  0  0  0  0  0  0
    6.9556  -12.9023   27.9475 C   0  0  0  0  0  0  0  0  0  0  0  0
    8.1681  -13.4407   27.5747 C   0  0  0  0  0  0  0  0  0  0  0  0
    9.2837  -16.3995   27.2326 C   0  0  0  0  0  0  0  0  0  0  0  0
    9.9210  -16.0889   28.2528 O   0  0  0  0  0  0  0  0  0  0  0  0
    8.1468  -17.1670   27.3525 O   0  0  0  0  0  0  0  0  0  0  0  0
  2  1  1  6
  2  3  1  0
  4  3  1  0
  5  4  1  0
  6  5  1  0
  7  6  1  0
  8  9  2  0
  8  2  1  0
 11 10  1  0
 11 13  1  0
 12 11  2  0
 14 13  1  6
 14 15  1  0
 15  8  1  0
 16 14  1  0
 16 18  1  0
 17 16  2  0
 19 20  1  1
 19 18  1  0
 19 27  1  0
 21 26  2  0
 21 20  1  0
 22 21  1  0
 23 24  1  0
 23 22  2  0
 24 25  2  0
 25 26  1  0
 27 28  2  0
 27 29  1  0
M  END
$$$$
