KNF.pdb
     RDKit          3D

 29 29  0  0  1  0  0  0  0  0999 V2000
    9.6264  -15.0536   19.5201 N   0  0  0  0  0  0  0  0  0  0  0  0
    8.9024  -14.0209   20.2886 C   0  0  1  0  0  0  0  0  0  0  0  0
    7.8834  -13.3579   19.4265 C   0  0  0  0  0  0  0  0  0  0  0  0
    7.2865  -14.2730   18.4231 C   0  0  0  0  0  0  0  0  0  0  0  0
    7.4141  -13.6981   17.0109 C   0  0  0  0  0  0  0  0  0  0  0  0
    8.6002  -14.3690   16.3092 C   0  0  0  0  0  0  0  0  0  0  0  0
    8.6988  -13.9062   14.9467 N   0  0  0  0  0  0  0  0  0  0  0  0
    8.2656  -14.7107   21.4242 C   0  0  0  0  0  0  0  0  0  0  0  0
    7.5594  -14.0383   22.2441 O   0  0  0  0  0  0  0  0  0  0  0  0
    5.8352  -19.1896   24.1961 N   0  0  0  0  0  0  0  0  0  0  0  0
    7.2118  -18.8252   23.9885 C   0  0  0  0  0  0  0  0  0  0  0  0
    8.0271  -19.1567   24.8571 O   0  0  0  0  0  0  0  0  0  0  0  0
    7.5477  -18.0870   22.7612 C   0  0  0  0  0  0  0  0  0  0  0  0
    7.9026  -16.6544   22.9154 C   0  0  2  0  0  0  0  0  0  0  0  0
    8.3987  -16.0890   21.6546 N   0  0  0  0  0  0  0  0  0  0  0  0
    8.9873  -16.5091   23.9463 C   0  0  0  0  0  0  0  0  0  0  0  0
   10.1908  -16.4294   23.6411 O   0  0  0  0  0  0  0  0  0  0  0  0
    8.6805  -16.4573   25.3498 N   0  0  0  0  0  0  0  0  0  0  0  0
    9.7066  -16.0144   26.3077 C   0  0  1  0  0  0  0  0  0  0  0  0
    9.9238  -14.5585   26.0351 C   0  0  0  0  0  0  0  0  0  0  0  0
    8.7591  -13.6965   26.2206 C   0  0  0  0  0  0  0  0  0  0  0  0
    8.6685  -12.9225   27.3527 C   0  0  0  0  0  0  0  0  0  0  0  0
    7.6040  -12.0644   27.6082 C   0  0  0  0  0  0  0  0  0  0  0  0
    6.6006  -11.9870   26.6912 C   0  0  0  0  0  0  0  0  0  0  0  0
    6.6569  -12.7448   25.5504 C   0  0  0  0  0  0  0  0  0  0  0  0
    7.7207  -13.5890   25.3160 C   0  0  0  0  0  0  0  0  0  0  0  0
    9.1567  -16.1838   27.6619 C   0  0  0  0  0  0  0  0  0  0  0  0
    7.9837  -16.5560   27.8315 O   0  0  0  0  0  0  0  0  0  0  0  0
    9.9508  -15.9287   28.7576 O   0  0  0  0  0  0  0  0  0  0  0  0
  2  1  1  6
  2  3  1  0
  4  3  1  0
  5  4  1  0
  6  5  1  0
  7  6  1  0
  8  9  2  0
  8  2  1  0
 11 10  1  0
 11 13  1  0
 12 11  2  0
 14 13  1  6
 14 15  1  0
 15  8  1  0
 16 14  1  0
 16 18  1  0
 17 16  2  0
 19 20  1  6
 19 18  1  0
 19 27  1  0
 21 26  2  0
 21 20  1  0
 22 21  1  0
 23 24  1  0
 23 22  2  0
 24 25  2  0
 25 26  1  0
 27 28  2  0
 27 29  1  0
M  END
$$$$
