KNF.pdb
     RDKit          3D

 29 29  0  0  1  0  0  0  0  0999 V2000
    4.7260  -18.3248   22.9282 N   0  0  0  0  0  0  0  0  0  0  0  0
    5.4782  -18.9049   21.7973 C   0  0  1  0  0  0  0  0  0  0  0  0
    4.5396  -19.3432   20.7258 C   0  0  0  0  0  0  0  0  0  0  0  0
    3.1154  -19.2673   21.1335 C   0  0  0  0  0  0  0  0  0  0  0  0
    2.1935  -19.6992   19.9913 C   0  0  0  0  0  0  0  0  0  0  0  0
    0.7377  -19.5432   20.4449 C   0  0  0  0  0  0  0  0  0  0  0  0
   -0.1577  -19.8300   19.3511 N   0  0  0  0  0  0  0  0  0  0  0  0
    6.3827  -17.8495   21.3083 C   0  0  0  0  0  0  0  0  0  0  0  0
    7.1607  -18.1002   20.3311 O   0  0  0  0  0  0  0  0  0  0  0  0
    7.4928  -12.0147   20.4914 N   0  0  0  0  0  0  0  0  0  0  0  0
    7.7425  -13.4078   20.2308 C   0  0  0  0  0  0  0  0  0  0  0  0
    8.7065  -13.6896   19.5095 O   0  0  0  0  0  0  0  0  0  0  0  0
    6.8351  -14.3923   20.8402 C   0  0  0  0  0  0  0  0  0  0  0  0
    7.4542  -15.6186   21.4013 C   0  0  2  0  0  0  0  0  0  0  0  0
    6.4341  -16.5644   21.8708 N   0  0  0  0  0  0  0  0  0  0  0  0
    8.3239  -15.2566   22.5732 C   0  0  0  0  0  0  0  0  0  0  0  0
    9.2657  -14.4490   22.4801 O   0  0  0  0  0  0  0  0  0  0  0  0
    8.1064  -15.8360   23.8707 N   0  0  0  0  0  0  0  0  0  0  0  0
    8.9540  -15.4320   25.0042 C   0  0  1  0  0  0  0  0  0  0  0  0
    8.0149  -15.0557   26.1076 C   0  0  0  0  0  0  0  0  0  0  0  0
    7.7723  -13.6249   26.2753 C   0  0  0  0  0  0  0  0  0  0  0  0
    8.7845  -12.8211   26.7424 C   0  0  0  0  0  0  0  0  0  0  0  0
    8.6487  -11.4485   26.9223 C   0  0  0  0  0  0  0  0  0  0  0  0
    7.4530  -10.8715   26.6210 C   0  0  0  0  0  0  0  0  0  0  0  0
    6.4204  -11.6421   26.1531 C   0  0  0  0  0  0  0  0  0  0  0  0
    6.5754  -13.0007   25.9819 C   0  0  0  0  0  0  0  0  0  0  0  0
    9.7450  -16.6043   25.4109 C   0  0  0  0  0  0  0  0  0  0  0  0
    9.5918  -17.7022   24.8502 O   0  0  0  0  0  0  0  0  0  0  0  0
   10.6689  -16.4855   26.4250 O   0  0  0  0  0  0  0  0  0  0  0  0
  2  1  1  1
  2  3  1  0
  4  3  1  0
  5  4  1  0
  6  5  1  0
  7  6  1  0
  8  9  2  0
  8  2  1  0
 11 10  1  0
 11 13  1  0
 12 11  2  0
 14 13  1  1
 14 15  1  0
 15  8  1  0
 16 14  1  0
 16 18  1  0
 17 16  2  0
 19 20  1  1
 19 18  1  0
 19 27  1  0
 21 26  2  0
 21 20  1  0
 22 21  1  0
 23 24  1  0
 23 22  2  0
 24 25  2  0
 25 26  1  0
 27 28  2  0
 27 29  1  0
M  END
$$$$
