KNF.pdb
     RDKit          3D

 29 29  0  0  1  0  0  0  0  0999 V2000
    9.1921  -15.8188   20.8641 N   0  0  0  0  0  0  0  0  0  0  0  0
    8.0843  -15.0132   21.4163 C   0  0  1  0  0  0  0  0  0  0  0  0
    7.0473  -14.7797   20.3717 C   0  0  0  0  0  0  0  0  0  0  0  0
    7.6228  -14.4694   19.0402 C   0  0  0  0  0  0  0  0  0  0  0  0
    8.3889  -13.1453   19.0681 C   0  0  0  0  0  0  0  0  0  0  0  0
    8.9758  -12.8841   17.6764 C   0  0  0  0  0  0  0  0  0  0  0  0
    7.9507  -13.0184   16.6709 N   0  0  0  0  0  0  0  0  0  0  0  0
    7.5315  -15.7778   22.5480 C   0  0  0  0  0  0  0  0  0  0  0  0
    6.3744  -15.4833   22.9921 O   0  0  0  0  0  0  0  0  0  0  0  0
    6.4241  -19.1161   26.3025 N   0  0  0  0  0  0  0  0  0  0  0  0
    7.2820  -19.7806   25.3575 C   0  0  0  0  0  0  0  0  0  0  0  0
    7.4566  -20.9963   25.5017 O   0  0  0  0  0  0  0  0  0  0  0  0
    7.8871  -18.9673   24.2913 C   0  0  0  0  0  0  0  0  0  0  0  0
    7.6047  -17.5108   24.3159 C   0  0  2  0  0  0  0  0  0  0  0  0
    8.2227  -16.8281   23.1725 N   0  0  0  0  0  0  0  0  0  0  0  0
    8.1653  -16.9069   25.5736 C   0  0  0  0  0  0  0  0  0  0  0  0
    7.8423  -17.3069   26.7066 O   0  0  0  0  0  0  0  0  0  0  0  0
    9.1102  -15.8247   25.5246 N   0  0  0  0  0  0  0  0  0  0  0  0
    9.7318  -15.3387   26.7672 C   0  0  1  0  0  0  0  0  0  0  0  0
    8.6023  -14.9270   27.6594 C   0  0  0  0  0  0  0  0  0  0  0  0
    7.7944  -13.8059   27.1856 C   0  0  0  0  0  0  0  0  0  0  0  0
    7.7367  -12.6546   27.9338 C   0  0  0  0  0  0  0  0  0  0  0  0
    7.0041  -11.5340   27.5564 C   0  0  0  0  0  0  0  0  0  0  0  0
    6.3085  -11.5795   26.3869 C   0  0  0  0  0  0  0  0  0  0  0  0
    6.3422  -12.7116   25.6148 C   0  0  0  0  0  0  0  0  0  0  0  0
    7.0744  -13.8113   26.0066 C   0  0  0  0  0  0  0  0  0  0  0  0
   10.4532  -16.4670   27.3770 C   0  0  0  0  0  0  0  0  0  0  0  0
   11.0486  -16.3327   28.4590 O   0  0  0  0  0  0  0  0  0  0  0  0
   10.4691  -17.6892   26.7431 O   0  0  0  0  0  0  0  0  0  0  0  0
  2  1  1  6
  2  3  1  0
  4  3  1  0
  5  4  1  0
  6  5  1  0
  7  6  1  0
  8  9  2  0
  8  2  1  0
 11 10  1  0
 11 13  1  0
 12 11  2  0
 14 13  1  6
 14 15  1  0
 15  8  1  0
 16 14  1  0
 16 18  1  0
 17 16  2  0
 19 20  1  1
 19 18  1  0
 19 27  1  0
 21 26  2  0
 21 20  1  0
 22 21  1  0
 23 24  1  0
 23 22  2  0
 24 25  2  0
 25 26  1  0
 27 28  2  0
 27 29  1  0
M  END
$$$$
