KNF.pdb
     RDKit          3D

 29 29  0  0  1  0  0  0  0  0999 V2000
    5.7845  -17.4549   21.6903 N   0  0  0  0  0  0  0  0  0  0  0  0
    6.8369  -18.1461   20.9183 C   0  0  1  0  0  0  0  0  0  0  0  0
    6.3405  -18.4756   19.5522 C   0  0  0  0  0  0  0  0  0  0  0  0
    6.3773  -19.9284   19.2548 C   0  0  0  0  0  0  0  0  0  0  0  0
    6.8598  -20.1843   17.8255 C   0  0  0  0  0  0  0  0  0  0  0  0
    6.8030  -21.6904   17.5465 C   0  0  0  0  0  0  0  0  0  0  0  0
    5.4399  -22.1032   17.3192 N   0  0  0  0  0  0  0  0  0  0  0  0
    7.9856  -17.2256   20.8552 C   0  0  0  0  0  0  0  0  0  0  0  0
    9.0546  -17.6031   20.2741 O   0  0  0  0  0  0  0  0  0  0  0  0
    7.3692  -12.5148   19.3583 N   0  0  0  0  0  0  0  0  0  0  0  0
    8.3911  -13.5045   19.5745 C   0  0  0  0  0  0  0  0  0  0  0  0
    8.8119  -14.1159   18.5854 O   0  0  0  0  0  0  0  0  0  0  0  0
    8.8597  -13.7160   20.9528 C   0  0  0  0  0  0  0  0  0  0  0  0
    9.1770  -15.1109   21.3474 C   0  0  2  0  0  0  0  0  0  0  0  0
    7.9646  -15.9364   21.4105 N   0  0  0  0  0  0  0  0  0  0  0  0
    9.8144  -15.1199   22.7091 C   0  0  0  0  0  0  0  0  0  0  0  0
   10.8726  -14.5131   22.9540 O   0  0  0  0  0  0  0  0  0  0  0  0
    9.2246  -15.8410   23.8040 N   0  0  0  0  0  0  0  0  0  0  0  0
    9.8972  -15.8628   25.1131 C   0  0  1  0  0  0  0  0  0  0  0  0
    9.7490  -14.4835   25.6757 C   0  0  0  0  0  0  0  0  0  0  0  0
    8.3775  -14.0294   25.8923 C   0  0  0  0  0  0  0  0  0  0  0  0
    7.8434  -13.0790   25.0556 C   0  0  0  0  0  0  0  0  0  0  0  0
    6.5446  -12.5962   25.1783 C   0  0  0  0  0  0  0  0  0  0  0  0
    5.7627  -13.0893   26.1777 C   0  0  0  0  0  0  0  0  0  0  0  0
    6.2620  -14.0380   27.0318 C   0  0  0  0  0  0  0  0  0  0  0  0
    7.5517  -14.5033   26.8932 C   0  0  0  0  0  0  0  0  0  0  0  0
    9.1800  -16.8217   25.9682 C   0  0  0  0  0  0  0  0  0  0  0  0
    9.4621  -16.9368   27.1726 O   0  0  0  0  0  0  0  0  0  0  0  0
    8.1816  -17.6021   25.4295 O   0  0  0  0  0  0  0  0  0  0  0  0
  2  1  1  1
  2  3  1  0
  4  3  1  0
  5  4  1  0
  6  5  1  0
  7  6  1  0
  8  9  2  0
  8  2  1  0
 11 10  1  0
 11 13  1  0
 12 11  2  0
 14 13  1  1
 14 15  1  0
 15  8  1  0
 16 14  1  0
 16 18  1  0
 17 16  2  0
 19 20  1  1
 19 18  1  0
 19 27  1  0
 21 26  2  0
 21 20  1  0
 22 21  1  0
 23 24  1  0
 23 22  2  0
 24 25  2  0
 25 26  1  0
 27 28  2  0
 27 29  1  0
M  END
$$$$
