KNF.pdb
     RDKit          3D

 29 29  0  0  1  0  0  0  0  0999 V2000
    8.5745  -17.0456   20.4054 N   0  0  0  0  0  0  0  0  0  0  0  0
    9.4679  -16.0718   21.0648 C   0  0  1  0  0  0  0  0  0  0  0  0
    8.7531  -14.7820   21.2809 C   0  0  0  0  0  0  0  0  0  0  0  0
    8.3789  -14.1052   20.0151 C   0  0  0  0  0  0  0  0  0  0  0  0
    7.4912  -12.8885   20.2844 C   0  0  0  0  0  0  0  0  0  0  0  0
    7.2215  -12.1697   18.9578 C   0  0  0  0  0  0  0  0  0  0  0  0
    6.4858  -13.0315   18.0655 N   0  0  0  0  0  0  0  0  0  0  0  0
    9.8721  -16.6733   22.3477 C   0  0  0  0  0  0  0  0  0  0  0  0
    9.1153  -17.5399   22.8947 O   0  0  0  0  0  0  0  0  0  0  0  0
   14.5275  -16.1607   22.7530 N   0  0  0  0  0  0  0  0  0  0  0  0
   13.6136  -17.2608   22.9118 C   0  0  0  0  0  0  0  0  0  0  0  0
   13.4754  -18.0308   21.9542 O   0  0  0  0  0  0  0  0  0  0  0  0
   12.9123  -17.3889   24.1987 C   0  0  0  0  0  0  0  0  0  0  0  0
   11.4579  -17.0948   24.2028 C   0  0  2  0  0  0  0  0  0  0  0  0
   11.0636  -16.3363   23.0092 N   0  0  0  0  0  0  0  0  0  0  0  0
   11.1110  -16.2698   25.4109 C   0  0  0  0  0  0  0  0  0  0  0  0
   11.7586  -15.2585   25.7360 O   0  0  0  0  0  0  0  0  0  0  0  0
   10.0027  -16.6170   26.2582 N   0  0  0  0  0  0  0  0  0  0  0  0
    9.8115  -15.9152   27.5378 C   0  0  1  0  0  0  0  0  0  0  0  0
    8.3422  -15.6501   27.6470 C   0  0  0  0  0  0  0  0  0  0  0  0
    7.8242  -14.5816   26.7961 C   0  0  0  0  0  0  0  0  0  0  0  0
    8.2972  -13.3017   26.9603 C   0  0  0  0  0  0  0  0  0  0  0  0
    7.8714  -12.2250   26.1893 C   0  0  0  0  0  0  0  0  0  0  0  0
    6.9387  -12.4497   25.2232 C   0  0  0  0  0  0  0  0  0  0  0  0
    6.4439  -13.7135   25.0311 C   0  0  0  0  0  0  0  0  0  0  0  0
    6.8790  -14.7669   25.8058 C   0  0  0  0  0  0  0  0  0  0  0  0
   10.2273  -16.8278   28.6146 C   0  0  0  0  0  0  0  0  0  0  0  0
   10.4921  -18.0176   28.3748 O   0  0  0  0  0  0  0  0  0  0  0  0
   10.3265  -16.3593   29.9056 O   0  0  0  0  0  0  0  0  0  0  0  0
  2  1  1  1
  2  3  1  0
  4  3  1  0
  5  4  1  0
  6  5  1  0
  7  6  1  0
  8  9  2  0
  8  2  1  0
 11 10  1  0
 11 13  1  0
 12 11  2  0
 14 13  1  6
 14 15  1  0
 15  8  1  0
 16 14  1  0
 16 18  1  0
 17 16  2  0
 19 20  1  1
 19 18  1  0
 19 27  1  0
 21 26  2  0
 21 20  1  0
 22 21  1  0
 23 24  1  0
 23 22  2  0
 24 25  2  0
 25 26  1  0
 27 28  2  0
 27 29  1  0
M  END
$$$$
