KNF.pdb
     RDKit          3D

 29 29  0  0  1  0  0  0  0  0999 V2000
    6.7342  -16.7290   21.1773 N   0  0  0  0  0  0  0  0  0  0  0  0
    7.5908  -17.4754   20.2337 C   0  0  1  0  0  0  0  0  0  0  0  0
    7.5642  -16.8276   18.8917 C   0  0  0  0  0  0  0  0  0  0  0  0
    7.9025  -15.3840   18.9361 C   0  0  0  0  0  0  0  0  0  0  0  0
    7.7181  -14.7343   17.5632 C   0  0  0  0  0  0  0  0  0  0  0  0
    8.0326  -13.2385   17.6776 C   0  0  0  0  0  0  0  0  0  0  0  0
    7.9475  -12.6116   16.3814 N   0  0  0  0  0  0  0  0  0  0  0  0
    8.9511  -17.4622   20.7998 C   0  0  0  0  0  0  0  0  0  0  0  0
    9.8449  -18.2132   20.2897 O   0  0  0  0  0  0  0  0  0  0  0  0
   13.5082  -14.1305   21.7095 N   0  0  0  0  0  0  0  0  0  0  0  0
   12.9022  -15.4357   21.7156 C   0  0  0  0  0  0  0  0  0  0  0  0
   13.6470  -16.4101   21.8735 O   0  0  0  0  0  0  0  0  0  0  0  0
   11.4445  -15.5153   21.5342 C   0  0  0  0  0  0  0  0  0  0  0  0
   10.7328  -16.5835   22.2787 C   0  0  2  0  0  0  0  0  0  0  0  0
    9.3195  -16.6553   21.8879 N   0  0  0  0  0  0  0  0  0  0  0  0
   10.7911  -16.2983   23.7539 C   0  0  0  0  0  0  0  0  0  0  0  0
   11.8490  -15.9911   24.3322 O   0  0  0  0  0  0  0  0  0  0  0  0
    9.6132  -16.3707   24.5747 N   0  0  0  0  0  0  0  0  0  0  0  0
    9.7084  -16.0957   26.0176 C   0  0  1  0  0  0  0  0  0  0  0  0
    8.3196  -15.7626   26.4663 C   0  0  0  0  0  0  0  0  0  0  0  0
    7.8281  -14.4410   26.0844 C   0  0  0  0  0  0  0  0  0  0  0  0
    7.1343  -14.2955   24.9070 C   0  0  0  0  0  0  0  0  0  0  0  0
    6.6194  -13.0799   24.4689 C   0  0  0  0  0  0  0  0  0  0  0  0
    6.8125  -11.9780   25.2448 C   0  0  0  0  0  0  0  0  0  0  0  0
    7.5003  -12.0852   26.4256 C   0  0  0  0  0  0  0  0  0  0  0  0
    8.0025  -13.2991   26.8420 C   0  0  0  0  0  0  0  0  0  0  0  0
   10.1554  -17.3315   26.6796 C   0  0  0  0  0  0  0  0  0  0  0  0
   10.3865  -17.3531   27.9000 O   0  0  0  0  0  0  0  0  0  0  0  0
   10.3191  -18.4811   25.9395 O   0  0  0  0  0  0  0  0  0  0  0  0
  2  1  1  1
  2  3  1  0
  4  3  1  0
  5  4  1  0
  6  5  1  0
  7  6  1  0
  8  9  2  0
  8  2  1  0
 11 10  1  0
 11 13  1  0
 12 11  2  0
 14 13  1  6
 14 15  1  0
 15  8  1  0
 16 14  1  0
 16 18  1  0
 17 16  2  0
 19 20  1  1
 19 18  1  0
 19 27  1  0
 21 26  2  0
 21 20  1  0
 22 21  1  0
 23 24  1  0
 23 22  2  0
 24 25  2  0
 25 26  1  0
 27 28  2  0
 27 29  1  0
M  END
$$$$
