KNF.pdb
     RDKit          3D

 29 29  0  0  1  0  0  0  0  0999 V2000
   10.4363  -16.5636   19.0858 N   0  0  0  0  0  0  0  0  0  0  0  0
    9.6745  -15.8720   20.1453 C   0  0  1  0  0  0  0  0  0  0  0  0
    8.5310  -15.1229   19.5514 C   0  0  0  0  0  0  0  0  0  0  0  0
    8.7666  -14.7232   18.1425 C   0  0  0  0  0  0  0  0  0  0  0  0
    7.6500  -13.8072   17.6374 C   0  0  0  0  0  0  0  0  0  0  0  0
    8.0079  -13.3218   16.2283 C   0  0  0  0  0  0  0  0  0  0  0  0
    6.9012  -12.5947   15.6565 N   0  0  0  0  0  0  0  0  0  0  0  0
    9.1990  -16.9152   21.0708 C   0  0  0  0  0  0  0  0  0  0  0  0
    8.8245  -18.0392   20.6024 O   0  0  0  0  0  0  0  0  0  0  0  0
   12.9529  -17.7744   22.2598 N   0  0  0  0  0  0  0  0  0  0  0  0
   12.4982  -16.4294   22.0250 C   0  0  0  0  0  0  0  0  0  0  0  0
   13.0621  -15.7837   21.1339 O   0  0  0  0  0  0  0  0  0  0  0  0
   11.3984  -15.9222   22.8601 C   0  0  0  0  0  0  0  0  0  0  0  0
   10.3549  -16.8981   23.2611 C   0  0  2  0  0  0  0  0  0  0  0  0
    9.1348  -16.7333   22.4613 N   0  0  0  0  0  0  0  0  0  0  0  0
    9.9933  -16.6886   24.7054 C   0  0  0  0  0  0  0  0  0  0  0  0
   10.8411  -16.7153   25.6156 O   0  0  0  0  0  0  0  0  0  0  0  0
    8.6341  -16.4473   25.1066 N   0  0  0  0  0  0  0  0  0  0  0  0
    8.2508  -16.5958   26.5200 C   0  0  1  0  0  0  0  0  0  0  0  0
    7.0309  -15.7485   26.7074 C   0  0  0  0  0  0  0  0  0  0  0  0
    7.2247  -14.3101   26.5421 C   0  0  0  0  0  0  0  0  0  0  0  0
    6.7362  -13.6903   25.4169 C   0  0  0  0  0  0  0  0  0  0  0  0
    6.8632  -12.3255   25.1804 C   0  0  0  0  0  0  0  0  0  0  0  0
    7.5040  -11.5645   26.1099 C   0  0  0  0  0  0  0  0  0  0  0  0
    8.0047  -12.1485   27.2444 C   0  0  0  0  0  0  0  0  0  0  0  0
    7.8683  -13.5028   27.4599 C   0  0  0  0  0  0  0  0  0  0  0  0
    7.9064  -18.0088   26.7436 C   0  0  0  0  0  0  0  0  0  0  0  0
    7.6535  -18.7620   25.7886 O   0  0  0  0  0  0  0  0  0  0  0  0
    7.8646  -18.5060   28.0270 O   0  0  0  0  0  0  0  0  0  0  0  0
  2  1  1  6
  2  3  1  0
  4  3  1  0
  5  4  1  0
  6  5  1  0
  7  6  1  0
  8  9  2  0
  8  2  1  0
 11 10  1  0
 11 13  1  0
 12 11  2  0
 14 13  1  6
 14 15  1  0
 15  8  1  0
 16 14  1  0
 16 18  1  0
 17 16  2  0
 19 20  1  6
 19 18  1  0
 19 27  1  0
 21 26  2  0
 21 20  1  0
 22 21  1  0
 23 24  1  0
 23 22  2  0
 24 25  2  0
 25 26  1  0
 27 28  2  0
 27 29  1  0
M  END
$$$$
