INY.pdb
     RDKit          3D

 29 29  0  0  1  0  0  0  0  0999 V2000
   18.4383  -12.3525  -20.4024 C   0  0  0  0  0  0  0  0  0  0  0  0
   19.4436  -11.9708  -19.3698 C   0  0  0  0  0  0  0  0  0  0  0  0
   18.9876  -10.8185  -18.4823 C   0  0  2  0  0  0  0  0  0  0  0  0
   18.9744   -9.5888  -19.4016 C   0  0  0  0  0  0  0  0  0  0  0  0
   20.0611  -10.5816  -17.4725 C   0  0  2  0  0  0  0  0  0  0  0  0
   20.4521  -11.7342  -16.7200 N   0  0  0  0  0  0  0  0  0  0  0  0
   19.6778   -9.5188  -16.4929 C   0  0  0  0  0  0  0  0  0  0  0  0
   19.3530   -8.3588  -16.8402 O   0  0  0  0  0  0  0  0  0  0  0  0
   18.9094   -6.6264  -12.4212 N   0  0  0  0  0  0  0  0  0  0  0  0
   18.6626   -7.9247  -11.9715 C   0  0  0  0  0  0  0  0  0  0  0  0
   18.1467   -8.0316  -10.8093 O   0  0  0  0  0  0  0  0  0  0  0  0
   18.9735   -9.1527  -12.7827 C   0  0  0  0  0  0  0  0  0  0  0  0
   19.3587   -8.7491  -14.1502 C   0  0  2  0  0  0  0  0  0  0  0  0
   19.6538   -9.7465  -15.0931 N   0  0  0  0  0  0  0  0  0  0  0  0
   20.5126   -7.8188  -14.0545 C   0  0  0  0  0  0  0  0  0  0  0  0
   21.6320   -8.2829  -13.7408 O   0  0  0  0  0  0  0  0  0  0  0  0
   19.0989   -2.7463  -19.1547 O   0  0  0  0  0  0  0  0  0  0  0  0
   19.8723   -3.4760  -18.2647 C   0  0  0  0  0  0  0  0  0  0  0  0
   19.7140   -4.8302  -18.1148 C   0  0  0  0  0  0  0  0  0  0  0  0
   20.5103   -5.5012  -17.2160 C   0  0  0  0  0  0  0  0  0  0  0  0
   21.4448   -4.8015  -16.4897 C   0  0  0  0  0  0  0  0  0  0  0  0
   22.2848   -5.5586  -15.5284 C   0  0  0  0  0  0  0  0  0  0  0  0
   21.5721   -5.5606  -14.1967 C   0  0  2  0  0  0  0  0  0  0  0  0
   20.4193   -6.4232  -14.3000 N   0  0  0  0  0  0  0  0  0  0  0  0
   21.1515   -4.1691  -13.8152 C   0  0  0  0  0  0  0  0  0  0  0  0
   22.0920   -3.1941  -13.5413 O   0  0  0  0  0  0  0  0  0  0  0  0
   21.6200   -3.4409  -16.6250 C   0  0  0  0  0  0  0  0  0  0  0  0
   20.8160   -2.7882  -17.5271 C   0  0  0  0  0  0  0  0  0  0  0  0
   19.9456   -3.8453  -13.7327 O   0  0  0  0  0  0  0  0  0  0  0  0
  2  1  1  0
  3  2  1  0
  3  4  1  6
  5  3  1  0
  5  6  1  1
  7  8  2  0
  7  5  1  0
  9 10  1  0
 10 11  2  0
 10 12  1  0
 13 12  1  1
 13 14  1  0
 14  7  1  0
 15 24  1  0
 15 13  1  0
 16 15  2  0
 17 18  1  0
 18 28  2  0
 19 20  2  0
 19 18  1  0
 20 21  1  0
 21 22  1  0
 21 27  2  0
 23 22  1  6
 23 25  1  0
 23 24  1  0
 25 26  1  0
 28 27  1  0
 29 25  2  0
M  END
$$$$
