INY.pdb
     RDKit          3D

 29 29  0  0  1  0  0  0  0  0999 V2000
   28.9929  -15.3759  -19.9481 C   0  0  0  0  0  0  0  0  0  0  0  0
   28.5401  -16.4091  -18.9734 C   0  0  0  0  0  0  0  0  0  0  0  0
   27.1448  -16.1443  -18.4197 C   0  0  2  0  0  0  0  0  0  0  0  0
   27.2872  -14.8713  -17.5731 C   0  0  0  0  0  0  0  0  0  0  0  0
   26.8243  -17.2511  -17.4708 C   0  0  2  0  0  0  0  0  0  0  0  0
   27.2648  -18.5493  -17.8808 N   0  0  0  0  0  0  0  0  0  0  0  0
   25.3565  -17.3434  -17.2002 C   0  0  0  0  0  0  0  0  0  0  0  0
   24.7247  -16.4644  -16.5678 O   0  0  0  0  0  0  0  0  0  0  0  0
   19.9325  -18.2696  -17.8776 N   0  0  0  0  0  0  0  0  0  0  0  0
   20.9143  -19.2570  -17.7779 C   0  0  0  0  0  0  0  0  0  0  0  0
   20.5856  -20.3195  -17.1526 O   0  0  0  0  0  0  0  0  0  0  0  0
   22.2930  -19.1126  -18.3621 C   0  0  0  0  0  0  0  0  0  0  0  0
   23.2083  -18.5889  -17.3280 C   0  0  2  0  0  0  0  0  0  0  0  0
   24.5684  -18.4371  -17.6412 N   0  0  0  0  0  0  0  0  0  0  0  0
   23.0838  -19.4428  -16.1191 C   0  0  0  0  0  0  0  0  0  0  0  0
   23.8313  -20.4410  -16.0110 O   0  0  0  0  0  0  0  0  0  0  0  0
   23.2796  -21.6383   -7.9338 O   0  0  0  0  0  0  0  0  0  0  0  0
   23.1883  -20.9702   -9.1454 C   0  0  0  0  0  0  0  0  0  0  0  0
   22.0950  -20.2069   -9.4668 C   0  0  0  0  0  0  0  0  0  0  0  0
   22.0605  -19.5670  -10.6840 C   0  0  0  0  0  0  0  0  0  0  0  0
   23.1198  -19.7065  -11.5493 C   0  0  0  0  0  0  0  0  0  0  0  0
   23.0466  -19.0029  -12.8542 C   0  0  0  0  0  0  0  0  0  0  0  0
   22.2543  -19.8722  -13.8019 C   0  0  2  0  0  0  0  0  0  0  0  0
   22.1593  -19.1910  -15.0709 N   0  0  0  0  0  0  0  0  0  0  0  0
   20.8829  -20.1474  -13.2522 C   0  0  0  0  0  0  0  0  0  0  0  0
   20.6139  -21.3198  -12.5715 O   0  0  0  0  0  0  0  0  0  0  0  0
   24.2276  -20.4686  -11.2460 C   0  0  0  0  0  0  0  0  0  0  0  0
   24.2442  -21.0997  -10.0263 C   0  0  0  0  0  0  0  0  0  0  0  0
   19.9431  -19.3326  -13.3893 O   0  0  0  0  0  0  0  0  0  0  0  0
  2  1  1  0
  3  2  1  0
  3  4  1  1
  5  3  1  0
  5  6  1  6
  7  8  2  0
  7  5  1  0
  9 10  1  0
 10 11  2  0
 10 12  1  0
 13 12  1  6
 13 14  1  0
 14  7  1  0
 15 24  1  0
 15 13  1  0
 16 15  2  0
 17 18  1  0
 18 28  2  0
 19 20  2  0
 19 18  1  0
 20 21  1  0
 21 22  1  0
 21 27  2  0
 23 22  1  1
 23 25  1  0
 23 24  1  0
 25 26  1  0
 28 27  1  0
 29 25  2  0
M  END
$$$$
