INY.pdb
     RDKit          3D

 29 29  0  0  1  0  0  0  0  0999 V2000
   28.4057  -18.9733  -18.4464 C   0  0  0  0  0  0  0  0  0  0  0  0
   28.4358  -19.6307  -17.1086 C   0  0  0  0  0  0  0  0  0  0  0  0
   27.0483  -19.9366  -16.5565 C   0  0  2  0  0  0  0  0  0  0  0  0
   26.4456  -18.5670  -16.2123 C   0  0  0  0  0  0  0  0  0  0  0  0
   27.2323  -20.6565  -15.2619 C   0  0  2  0  0  0  0  0  0  0  0  0
   28.0196  -21.8490  -15.3366 N   0  0  0  0  0  0  0  0  0  0  0  0
   25.9232  -21.0250  -14.6401 C   0  0  0  0  0  0  0  0  0  0  0  0
   25.0834  -21.7619  -15.2089 O   0  0  0  0  0  0  0  0  0  0  0  0
   26.1300  -22.4131  -11.3506 N   0  0  0  0  0  0  0  0  0  0  0  0
   25.2293  -21.6216  -10.6357 C   0  0  0  0  0  0  0  0  0  0  0  0
   25.3399  -21.6471   -9.3648 O   0  0  0  0  0  0  0  0  0  0  0  0
   24.1744  -20.7732  -11.2916 C   0  0  0  0  0  0  0  0  0  0  0  0
   24.3037  -20.8823  -12.7588 C   0  0  2  0  0  0  0  0  0  0  0  0
   25.5343  -20.5656  -13.3558 N   0  0  0  0  0  0  0  0  0  0  0  0
   23.2378  -20.0579  -13.3837 C   0  0  0  0  0  0  0  0  0  0  0  0
   23.2169  -18.8283  -13.1502 O   0  0  0  0  0  0  0  0  0  0  0  0
   17.3706  -16.2812  -18.2411 O   0  0  0  0  0  0  0  0  0  0  0  0
   18.3971  -17.0659  -17.7380 C   0  0  0  0  0  0  0  0  0  0  0  0
   19.5496  -16.5128  -17.2409 C   0  0  0  0  0  0  0  0  0  0  0  0
   20.5339  -17.3418  -16.7549 C   0  0  0  0  0  0  0  0  0  0  0  0
   20.3412  -18.7029  -16.7783 C   0  0  0  0  0  0  0  0  0  0  0  0
   21.4257  -19.5660  -16.2471 C   0  0  0  0  0  0  0  0  0  0  0  0
   21.1806  -19.7554  -14.7687 C   0  0  2  0  0  0  0  0  0  0  0  0
   22.2335  -20.5872  -14.2368 N   0  0  0  0  0  0  0  0  0  0  0  0
   19.8401  -20.3907  -14.5279 C   0  0  0  0  0  0  0  0  0  0  0  0
   18.7233  -19.6163  -14.2763 O   0  0  0  0  0  0  0  0  0  0  0  0
   19.1909  -19.2791  -17.2734 C   0  0  0  0  0  0  0  0  0  0  0  0
   18.2196  -18.4355  -17.7540 C   0  0  0  0  0  0  0  0  0  0  0  0
   19.6874  -21.6326  -14.5463 O   0  0  0  0  0  0  0  0  0  0  0  0
  2  1  1  0
  3  2  1  0
  3  4  1  1
  5  3  1  0
  5  6  1  6
  7  8  2  0
  7  5  1  0
  9 10  1  0
 10 11  2  0
 10 12  1  0
 13 12  1  1
 13 14  1  0
 14  7  1  0
 15 24  1  0
 15 13  1  0
 16 15  2  0
 17 18  1  0
 18 28  2  0
 19 20  2  0
 19 18  1  0
 20 21  1  0
 21 22  1  0
 21 27  2  0
 23 22  1  6
 23 25  1  0
 23 24  1  0
 25 26  1  0
 28 27  1  0
 29 25  2  0
M  END
$$$$
