INY.pdb
     RDKit          3D

 29 29  0  0  1  0  0  0  0  0999 V2000
   15.3989  -12.6866  -17.0927 C   0  0  0  0  0  0  0  0  0  0  0  0
   16.6566  -11.8863  -17.0737 C   0  0  0  0  0  0  0  0  0  0  0  0
   16.9996  -11.3363  -15.6940 C   0  0  2  0  0  0  0  0  0  0  0  0
   15.9185  -10.2853  -15.4041 C   0  0  0  0  0  0  0  0  0  0  0  0
   18.2894  -10.5950  -15.8176 C   0  0  2  0  0  0  0  0  0  0  0  0
   19.4136  -11.3922  -16.2027 N   0  0  0  0  0  0  0  0  0  0  0  0
   18.6529   -9.8966  -14.5464 C   0  0  0  0  0  0  0  0  0  0  0  0
   19.0798  -10.5027  -13.5353 O   0  0  0  0  0  0  0  0  0  0  0  0
   21.4412   -8.1699  -13.8833 N   0  0  0  0  0  0  0  0  0  0  0  0
   20.9960   -6.8853  -13.5665 C   0  0  0  0  0  0  0  0  0  0  0  0
   21.8736   -5.9595  -13.5974 O   0  0  0  0  0  0  0  0  0  0  0  0
   19.5701   -6.5714  -13.2044 C   0  0  0  0  0  0  0  0  0  0  0  0
   18.7862   -7.8229  -13.1808 C   0  0  2  0  0  0  0  0  0  0  0  0
   18.5406   -8.4913  -14.3908 N   0  0  0  0  0  0  0  0  0  0  0  0
   17.4902   -7.5491  -12.5090 C   0  0  0  0  0  0  0  0  0  0  0  0
   16.5349   -7.1269  -13.1990 O   0  0  0  0  0  0  0  0  0  0  0  0
   10.9555   -6.8285   -6.9445 O   0  0  0  0  0  0  0  0  0  0  0  0
   12.1877   -7.1371   -7.5006 C   0  0  0  0  0  0  0  0  0  0  0  0
   12.3540   -8.2168   -8.3299 C   0  0  0  0  0  0  0  0  0  0  0  0
   13.6005   -8.4734   -8.8520 C   0  0  0  0  0  0  0  0  0  0  0  0
   14.6494   -7.6442   -8.5316 C   0  0  0  0  0  0  0  0  0  0  0  0
   15.9800   -7.9532   -9.1123 C   0  0  0  0  0  0  0  0  0  0  0  0
   16.0369   -7.3328  -10.4883 C   0  0  2  0  0  0  0  0  0  0  0  0
   17.2698   -7.7397  -11.1191 N   0  0  0  0  0  0  0  0  0  0  0  0
   15.9640   -5.8343  -10.4006 C   0  0  0  0  0  0  0  0  0  0  0  0
   14.7738   -5.1680  -10.6235 O   0  0  0  0  0  0  0  0  0  0  0  0
   14.5038   -6.5543   -7.7004 C   0  0  0  0  0  0  0  0  0  0  0  0
   13.2521   -6.3139   -7.1889 C   0  0  0  0  0  0  0  0  0  0  0  0
   16.9689   -5.1414  -10.1249 O   0  0  0  0  0  0  0  0  0  0  0  0
  2  1  1  0
  3  2  1  0
  3  4  1  6
  5  3  1  0
  5  6  1  1
  7  8  2  0
  7  5  1  0
  9 10  1  0
 10 11  2  0
 10 12  1  0
 13 12  1  6
 13 14  1  0
 14  7  1  0
 15 24  1  0
 15 13  1  0
 16 15  2  0
 17 18  1  0
 18 28  2  0
 19 20  2  0
 19 18  1  0
 20 21  1  0
 21 22  1  0
 21 27  2  0
 23 22  1  1
 23 25  1  0
 23 24  1  0
 25 26  1  0
 28 27  1  0
 29 25  2  0
M  END
$$$$
