INY.pdb
     RDKit          3D

 29 29  0  0  1  0  0  0  0  0999 V2000
   28.7185  -21.3919   -9.5457 C   0  0  0  0  0  0  0  0  0  0  0  0
   27.3994  -21.8077  -10.1023 C   0  0  0  0  0  0  0  0  0  0  0  0
   26.7729  -20.7591  -11.0141 C   0  0  2  0  0  0  0  0  0  0  0  0
   26.4055  -19.5925  -10.0860 C   0  0  0  0  0  0  0  0  0  0  0  0
   25.4855  -21.3202  -11.5202 C   0  0  2  0  0  0  0  0  0  0  0  0
   25.5631  -22.6555  -12.0286 N   0  0  0  0  0  0  0  0  0  0  0  0
   24.8925  -20.4675  -12.5959 C   0  0  0  0  0  0  0  0  0  0  0  0
   24.3913  -19.3403  -12.3718 O   0  0  0  0  0  0  0  0  0  0  0  0
   27.1207  -21.2515  -16.8377 N   0  0  0  0  0  0  0  0  0  0  0  0
   26.2333  -20.2026  -16.5907 C   0  0  0  0  0  0  0  0  0  0  0  0
   26.7406  -19.0328  -16.5428 O   0  0  0  0  0  0  0  0  0  0  0  0
   24.7561  -20.4012  -16.3877 C   0  0  0  0  0  0  0  0  0  0  0  0
   24.4033  -20.0486  -14.9975 C   0  0  2  0  0  0  0  0  0  0  0  0
   24.8534  -20.8734  -13.9544 N   0  0  0  0  0  0  0  0  0  0  0  0
   22.9261  -19.9213  -14.9091 C   0  0  0  0  0  0  0  0  0  0  0  0
   22.2564  -20.9273  -14.5828 O   0  0  0  0  0  0  0  0  0  0  0  0
   14.8341  -17.5995  -13.6302 O   0  0  0  0  0  0  0  0  0  0  0  0
   16.2188  -17.6256  -13.6997 C   0  0  0  0  0  0  0  0  0  0  0  0
   16.9441  -16.5137  -14.0445 C   0  0  0  0  0  0  0  0  0  0  0  0
   18.3160  -16.5998  -14.0969 C   0  0  0  0  0  0  0  0  0  0  0  0
   18.9281  -17.7953  -13.8035 C   0  0  0  0  0  0  0  0  0  0  0  0
   20.4098  -17.8510  -13.8721 C   0  0  0  0  0  0  0  0  0  0  0  0
   20.7840  -18.6494  -15.0984 C   0  0  2  0  0  0  0  0  0  0  0  0
   22.2239  -18.7159  -15.1749 N   0  0  0  0  0  0  0  0  0  0  0  0
   20.2231  -18.0141  -16.3395 C   0  0  0  0  0  0  0  0  0  0  0  0
   18.9906  -18.3945  -16.8359 O   0  0  0  0  0  0  0  0  0  0  0  0
   18.2182  -18.9243  -13.4549 C   0  0  0  0  0  0  0  0  0  0  0  0
   16.8496  -18.8191  -13.4078 C   0  0  0  0  0  0  0  0  0  0  0  0
   20.8457  -17.1256  -16.9631 O   0  0  0  0  0  0  0  0  0  0  0  0
  2  1  1  0
  3  2  1  0
  3  4  1  1
  5  3  1  0
  5  6  1  6
  7  8  2  0
  7  5  1  0
  9 10  1  0
 10 11  2  0
 10 12  1  0
 13 12  1  6
 13 14  1  0
 14  7  1  0
 15 24  1  0
 15 13  1  0
 16 15  2  0
 17 18  1  0
 18 28  2  0
 19 20  2  0
 19 18  1  0
 20 21  1  0
 21 22  1  0
 21 27  2  0
 23 22  1  1
 23 25  1  0
 23 24  1  0
 25 26  1  0
 28 27  1  0
 29 25  2  0
M  END
$$$$
