INY.pdb
     RDKit          3D

 29 29  0  0  1  0  0  0  0  0999 V2000
   24.4961  -23.0143  -22.0857 C   0  0  0  0  0  0  0  0  0  0  0  0
   25.0655  -21.8762  -21.3092 C   0  0  0  0  0  0  0  0  0  0  0  0
   24.0897  -21.2913  -20.2947 C   0  0  2  0  0  0  0  0  0  0  0  0
   22.9541  -20.6900  -21.1351 C   0  0  0  0  0  0  0  0  0  0  0  0
   24.7749  -20.1459  -19.6261 C   0  0  2  0  0  0  0  0  0  0  0  0
   25.9583  -20.4874  -18.8978 N   0  0  0  0  0  0  0  0  0  0  0  0
   23.8635  -19.4268  -18.6836 C   0  0  0  0  0  0  0  0  0  0  0  0
   23.7051  -19.7770  -17.4902 O   0  0  0  0  0  0  0  0  0  0  0  0
   24.3780  -15.9195  -17.8350 N   0  0  0  0  0  0  0  0  0  0  0  0
   23.1661  -15.3756  -18.2644 C   0  0  0  0  0  0  0  0  0  0  0  0
   23.1547  -14.1172  -18.4752 O   0  0  0  0  0  0  0  0  0  0  0  0
   21.9227  -16.1949  -18.4777 C   0  0  0  0  0  0  0  0  0  0  0  0
   22.2246  -17.6165  -18.2151 C   0  0  2  0  0  0  0  0  0  0  0  0
   23.1083  -18.2910  -19.0726 N   0  0  0  0  0  0  0  0  0  0  0  0
   20.9418  -18.3633  -18.1594 C   0  0  0  0  0  0  0  0  0  0  0  0
   20.6752  -19.1659  -19.0822 O   0  0  0  0  0  0  0  0  0  0  0  0
   14.2702  -23.2608  -16.9629 O   0  0  0  0  0  0  0  0  0  0  0  0
   15.4626  -22.5540  -17.0009 C   0  0  0  0  0  0  0  0  0  0  0  0
   15.9763  -22.0702  -18.1771 C   0  0  0  0  0  0  0  0  0  0  0  0
   17.1636  -21.3760  -18.1529 C   0  0  0  0  0  0  0  0  0  0  0  0
   17.8075  -21.1831  -16.9535 C   0  0  0  0  0  0  0  0  0  0  0  0
   19.0870  -20.4310  -16.9664 C   0  0  0  0  0  0  0  0  0  0  0  0
   18.7569  -18.9638  -17.1071 C   0  0  2  0  0  0  0  0  0  0  0  0
   19.9932  -18.2187  -17.1126 N   0  0  0  0  0  0  0  0  0  0  0  0
   17.8752  -18.5055  -15.9796 C   0  0  0  0  0  0  0  0  0  0  0  0
   16.5001  -18.6155  -16.0651 O   0  0  0  0  0  0  0  0  0  0  0  0
   17.3086  -21.6609  -15.7606 C   0  0  0  0  0  0  0  0  0  0  0  0
   16.1222  -22.3513  -15.8045 C   0  0  0  0  0  0  0  0  0  0  0  0
   18.3494  -18.0124  -14.9319 O   0  0  0  0  0  0  0  0  0  0  0  0
  2  1  1  0
  3  2  1  0
  3  4  1  6
  5  3  1  0
  5  6  1  1
  7  8  2  0
  7  5  1  0
  9 10  1  0
 10 11  2  0
 10 12  1  0
 13 12  1  6
 13 14  1  0
 14  7  1  0
 15 24  1  0
 15 13  1  0
 16 15  2  0
 17 18  1  0
 18 28  2  0
 19 20  2  0
 19 18  1  0
 20 21  1  0
 21 22  1  0
 21 27  2  0
 23 22  1  1
 23 25  1  0
 23 24  1  0
 25 26  1  0
 28 27  1  0
 29 25  2  0
M  END
$$$$
