INY.pdb
     RDKit          3D

 29 29  0  0  1  0  0  0  0  0999 V2000
   29.1656  -19.9565  -16.9604 C   0  0  0  0  0  0  0  0  0  0  0  0
   28.3610  -18.7021  -17.0022 C   0  0  0  0  0  0  0  0  0  0  0  0
   27.5642  -18.4548  -15.7265 C   0  0  2  0  0  0  0  0  0  0  0  0
   28.5995  -18.5065  -14.5939 C   0  0  0  0  0  0  0  0  0  0  0  0
   26.6617  -19.6275  -15.5302 C   0  0  2  0  0  0  0  0  0  0  0  0
   25.7439  -19.8734  -16.6000 N   0  0  0  0  0  0  0  0  0  0  0  0
   25.8598  -19.5073  -14.2738 C   0  0  0  0  0  0  0  0  0  0  0  0
   25.3720  -18.4218  -13.8794 O   0  0  0  0  0  0  0  0  0  0  0  0
   22.0631  -21.6965  -14.0821 N   0  0  0  0  0  0  0  0  0  0  0  0
   22.5659  -20.9236  -13.0340 C   0  0  0  0  0  0  0  0  0  0  0  0
   22.0552  -19.7629  -12.8925 O   0  0  0  0  0  0  0  0  0  0  0  0
   23.6482  -21.3982  -12.1033 C   0  0  0  0  0  0  0  0  0  0  0  0
   24.8348  -20.5317  -12.2533 C   0  0  2  0  0  0  0  0  0  0  0  0
   25.5916  -20.6174  -13.4327 N   0  0  0  0  0  0  0  0  0  0  0  0
   25.7285  -20.7588  -11.0888 C   0  0  0  0  0  0  0  0  0  0  0  0
   26.4255  -21.7982  -11.0621 O   0  0  0  0  0  0  0  0  0  0  0  0
   29.6518  -20.4559   -3.4106 O   0  0  0  0  0  0  0  0  0  0  0  0
   29.0380  -20.0842   -4.5972 C   0  0  0  0  0  0  0  0  0  0  0  0
   29.7655  -19.7492   -5.7106 C   0  0  0  0  0  0  0  0  0  0  0  0
   29.1013  -19.3883   -6.8599 C   0  0  0  0  0  0  0  0  0  0  0  0
   27.7266  -19.3712   -6.8670 C   0  0  0  0  0  0  0  0  0  0  0  0
   27.0445  -18.9751   -8.1243 C   0  0  0  0  0  0  0  0  0  0  0  0
   26.5192  -20.2312   -8.7783 C   0  0  2  0  0  0  0  0  0  0  0  0
   25.8391  -19.8589   -9.9958 N   0  0  0  0  0  0  0  0  0  0  0  0
   25.5812  -20.9594   -7.8570 C   0  0  0  0  0  0  0  0  0  0  0  0
   26.0449  -21.9473   -7.0090 O   0  0  0  0  0  0  0  0  0  0  0  0
   26.9767  -19.7041   -5.7593 C   0  0  0  0  0  0  0  0  0  0  0  0
   27.6573  -20.0619   -4.6213 C   0  0  0  0  0  0  0  0  0  0  0  0
   24.3575  -20.7001   -7.8242 O   0  0  0  0  0  0  0  0  0  0  0  0
  2  1  1  0
  3  2  1  0
  3  4  1  1
  5  3  1  0
  5  6  1  6
  7  8  2  0
  7  5  1  0
  9 10  1  0
 10 11  2  0
 10 12  1  0
 13 12  1  6
 13 14  1  0
 14  7  1  0
 15 24  1  0
 15 13  1  0
 16 15  2  0
 17 18  1  0
 18 28  2  0
 19 20  2  0
 19 18  1  0
 20 21  1  0
 21 22  1  0
 21 27  2  0
 23 22  1  1
 23 25  1  0
 23 24  1  0
 25 26  1  0
 28 27  1  0
 29 25  2  0
M  END
$$$$
