INY.pdb
     RDKit          3D

 29 29  0  0  1  0  0  0  0  0999 V2000
   28.6664  -17.4297  -16.7470 C   0  0  0  0  0  0  0  0  0  0  0  0
   27.4116  -18.2268  -16.6352 C   0  0  0  0  0  0  0  0  0  0  0  0
   27.3929  -19.1542  -15.4256 C   0  0  2  0  0  0  0  0  0  0  0  0
   28.8598  -19.5503  -15.2046 C   0  0  0  0  0  0  0  0  0  0  0  0
   26.6736  -20.3985  -15.8288 C   0  0  2  0  0  0  0  0  0  0  0  0
   25.4111  -20.1898  -16.4692 N   0  0  0  0  0  0  0  0  0  0  0  0
   26.4378  -21.3061  -14.6640 C   0  0  0  0  0  0  0  0  0  0  0  0
   27.3526  -21.9726  -14.1248 O   0  0  0  0  0  0  0  0  0  0  0  0
   25.4909  -21.6877   -9.7340 N   0  0  0  0  0  0  0  0  0  0  0  0
   25.4051  -20.5070  -10.4739 C   0  0  0  0  0  0  0  0  0  0  0  0
   24.9867  -19.4770   -9.8477 O   0  0  0  0  0  0  0  0  0  0  0  0
   25.7762  -20.4154  -11.9288 C   0  0  0  0  0  0  0  0  0  0  0  0
   24.8959  -21.3047  -12.7134 C   0  0  2  0  0  0  0  0  0  0  0  0
   25.1562  -21.4802  -14.0818 N   0  0  0  0  0  0  0  0  0  0  0  0
   23.4947  -20.8418  -12.5441 C   0  0  0  0  0  0  0  0  0  0  0  0
   22.8326  -21.2773  -11.5752 O   0  0  0  0  0  0  0  0  0  0  0  0
   16.1071  -16.4175  -12.9289 O   0  0  0  0  0  0  0  0  0  0  0  0
   17.3555  -16.9206  -13.2622 C   0  0  0  0  0  0  0  0  0  0  0  0
   17.5238  -17.8019  -14.2996 C   0  0  0  0  0  0  0  0  0  0  0  0
   18.7867  -18.2674  -14.5836 C   0  0  0  0  0  0  0  0  0  0  0  0
   19.8495  -17.8401  -13.8232 C   0  0  0  0  0  0  0  0  0  0  0  0
   21.1970  -18.3649  -14.1578 C   0  0  0  0  0  0  0  0  0  0  0  0
   21.4908  -19.5109  -13.2187 C   0  0  2  0  0  0  0  0  0  0  0  0
   22.8576  -19.9272  -13.4240 N   0  0  0  0  0  0  0  0  0  0  0  0
   20.5518  -20.6577  -13.4674 C   0  0  0  0  0  0  0  0  0  0  0  0
   19.5166  -20.9290  -12.5928 O   0  0  0  0  0  0  0  0  0  0  0  0
   19.7023  -16.9552  -12.7766 C   0  0  0  0  0  0  0  0  0  0  0  0
   18.4341  -16.5014  -12.5082 C   0  0  0  0  0  0  0  0  0  0  0  0
   20.6718  -21.4019  -14.4662 O   0  0  0  0  0  0  0  0  0  0  0  0
  2  1  1  0
  3  2  1  0
  3  4  1  6
  5  3  1  0
  5  6  1  1
  7  8  2  0
  7  5  1  0
  9 10  1  0
 10 11  2  0
 10 12  1  0
 13 12  1  6
 13 14  1  0
 14  7  1  0
 15 24  1  0
 15 13  1  0
 16 15  2  0
 17 18  1  0
 18 28  2  0
 19 20  2  0
 19 18  1  0
 20 21  1  0
 21 22  1  0
 21 27  2  0
 23 22  1  6
 23 25  1  0
 23 24  1  0
 25 26  1  0
 28 27  1  0
 29 25  2  0
M  END
$$$$
