INY.pdb
     RDKit          3D

 29 29  0  0  1  0  0  0  0  0999 V2000
   23.4026  -34.0608   -8.3292 C   0  0  0  0  0  0  0  0  0  0  0  0
   24.5976  -33.4354   -7.6941 C   0  0  0  0  0  0  0  0  0  0  0  0
   25.1912  -34.2760   -6.5695 C   0  0  2  0  0  0  0  0  0  0  0  0
   24.1279  -34.2675   -5.4619 C   0  0  0  0  0  0  0  0  0  0  0  0
   26.3694  -33.5336   -6.0321 C   0  0  2  0  0  0  0  0  0  0  0  0
   27.4398  -33.3383   -6.9615 N   0  0  0  0  0  0  0  0  0  0  0  0
   26.9442  -34.2027   -4.8247 C   0  0  0  0  0  0  0  0  0  0  0  0
   26.2339  -34.7299   -3.9362 O   0  0  0  0  0  0  0  0  0  0  0  0
   31.5278  -36.8929   -2.1841 N   0  0  0  0  0  0  0  0  0  0  0  0
   30.7533  -36.3705   -3.2214 C   0  0  0  0  0  0  0  0  0  0  0  0
   30.3698  -37.1991   -4.1128 O   0  0  0  0  0  0  0  0  0  0  0  0
   30.3719  -34.9185   -3.3168 C   0  0  0  0  0  0  0  0  0  0  0  0
   28.9027  -34.8058   -3.4164 C   0  0  2  0  0  0  0  0  0  0  0  0
   28.3412  -34.2901   -4.5953 N   0  0  0  0  0  0  0  0  0  0  0  0
   28.4165  -34.0086   -2.2613 C   0  0  0  0  0  0  0  0  0  0  0  0
   28.5135  -32.7615   -2.3107 O   0  0  0  0  0  0  0  0  0  0  0  0
   24.8402  -30.7143    4.7497 O   0  0  0  0  0  0  0  0  0  0  0  0
   25.1352  -31.3999    3.5811 C   0  0  0  0  0  0  0  0  0  0  0  0
   24.7628  -32.7073    3.3991 C   0  0  0  0  0  0  0  0  0  0  0  0
   25.0832  -33.3359    2.2182 C   0  0  0  0  0  0  0  0  0  0  0  0
   25.7681  -32.6415    1.2491 C   0  0  0  0  0  0  0  0  0  0  0  0
   26.0980  -33.3527   -0.0112 C   0  0  0  0  0  0  0  0  0  0  0  0
   27.5434  -33.7842    0.0687 C   0  0  2  0  0  0  0  0  0  0  0  0
   27.8439  -34.5827   -1.0955 N   0  0  0  0  0  0  0  0  0  0  0  0
   27.7955  -34.5727    1.3230 C   0  0  0  0  0  0  0  0  0  0  0  0
   28.2130  -35.8888    1.2614 O   0  0  0  0  0  0  0  0  0  0  0  0
   26.1517  -31.3275    1.4118 C   0  0  0  0  0  0  0  0  0  0  0  0
   25.8228  -30.7168    2.5972 C   0  0  0  0  0  0  0  0  0  0  0  0
   27.6382  -34.0712    2.4586 O   0  0  0  0  0  0  0  0  0  0  0  0
  2  1  1  0
  3  2  1  0
  3  4  1  1
  5  3  1  0
  5  6  1  6
  7  8  2  0
  7  5  1  0
  9 10  1  0
 10 11  2  0
 10 12  1  0
 13 12  1  6
 13 14  1  0
 14  7  1  0
 15 24  1  0
 15 13  1  0
 16 15  2  0
 17 18  1  0
 18 28  2  0
 19 20  2  0
 19 18  1  0
 20 21  1  0
 21 22  1  0
 21 27  2  0
 23 22  1  6
 23 25  1  0
 23 24  1  0
 25 26  1  0
 28 27  1  0
 29 25  2  0
M  END
$$$$
