INY.pdb
     RDKit          3D

 29 29  0  0  1  0  0  0  0  0999 V2000
   29.0154  -19.3069  -19.1626 C   0  0  0  0  0  0  0  0  0  0  0  0
   28.2724  -18.6742  -18.0356 C   0  0  0  0  0  0  0  0  0  0  0  0
   27.6842  -19.6858  -17.0587 C   0  0  2  0  0  0  0  0  0  0  0  0
   26.5876  -20.4126  -17.8502 C   0  0  0  0  0  0  0  0  0  0  0  0
   26.9918  -18.9163  -15.9831 C   0  0  2  0  0  0  0  0  0  0  0  0
   27.8216  -18.0018  -15.2602 N   0  0  0  0  0  0  0  0  0  0  0  0
   26.3462  -19.8196  -14.9814 C   0  0  0  0  0  0  0  0  0  0  0  0
   25.5691  -20.7488  -15.3047 O   0  0  0  0  0  0  0  0  0  0  0  0
   25.4643  -21.3923   -9.1264 N   0  0  0  0  0  0  0  0  0  0  0  0
   25.7735  -21.6141  -10.4695 C   0  0  0  0  0  0  0  0  0  0  0  0
   25.3308  -22.6965  -10.9799 O   0  0  0  0  0  0  0  0  0  0  0  0
   26.5802  -20.6542  -11.3007 C   0  0  0  0  0  0  0  0  0  0  0  0
   25.9433  -20.5010  -12.6243 C   0  0  2  0  0  0  0  0  0  0  0  0
   26.5668  -19.6904  -13.5863 N   0  0  0  0  0  0  0  0  0  0  0  0
   24.5516  -20.0240  -12.4200 C   0  0  0  0  0  0  0  0  0  0  0  0
   24.3634  -19.0130  -11.7063 O   0  0  0  0  0  0  0  0  0  0  0  0
   21.7610  -20.3988  -19.0564 O   0  0  0  0  0  0  0  0  0  0  0  0
   21.7890  -20.0139  -17.7245 C   0  0  0  0  0  0  0  0  0  0  0  0
   20.6411  -19.9053  -16.9816 C   0  0  0  0  0  0  0  0  0  0  0  0
   20.7310  -19.5189  -15.6645 C   0  0  0  0  0  0  0  0  0  0  0  0
   21.9662  -19.2507  -15.1233 C   0  0  0  0  0  0  0  0  0  0  0  0
   22.0240  -18.8349  -13.6996 C   0  0  0  0  0  0  0  0  0  0  0  0
   22.0925  -20.0866  -12.8571 C   0  0  2  0  0  0  0  0  0  0  0  0
   23.4136  -20.6526  -12.9914 N   0  0  0  0  0  0  0  0  0  0  0  0
   21.0516  -21.0795  -13.2921 C   0  0  0  0  0  0  0  0  0  0  0  0
   19.7048  -20.8016  -13.1533 O   0  0  0  0  0  0  0  0  0  0  0  0
   23.1316  -19.3537  -15.8522 C   0  0  0  0  0  0  0  0  0  0  0  0
   23.0220  -19.7409  -17.1653 C   0  0  0  0  0  0  0  0  0  0  0  0
   21.3632  -22.1837  -13.7915 O   0  0  0  0  0  0  0  0  0  0  0  0
  2  1  1  0
  3  2  1  0
  3  4  1  6
  5  3  1  0
  5  6  1  1
  7  8  2  0
  7  5  1  0
  9 10  1  0
 10 11  2  0
 10 12  1  0
 13 12  1  1
 13 14  1  0
 14  7  1  0
 15 24  1  0
 15 13  1  0
 16 15  2  0
 17 18  1  0
 18 28  2  0
 19 20  2  0
 19 18  1  0
 20 21  1  0
 21 22  1  0
 21 27  2  0
 23 22  1  6
 23 25  1  0
 23 24  1  0
 25 26  1  0
 28 27  1  0
 29 25  2  0
M  END
$$$$
