INY.pdb
     RDKit          3D

 29 29  0  0  1  0  0  0  0  0999 V2000
   19.9389  -15.7747  -17.6843 C   0  0  0  0  0  0  0  0  0  0  0  0
   20.7449  -14.6310  -18.1987 C   0  0  0  0  0  0  0  0  0  0  0  0
   20.9307  -13.5166  -17.1753 C   0  0  2  0  0  0  0  0  0  0  0  0
   19.5397  -12.8864  -17.0157 C   0  0  0  0  0  0  0  0  0  0  0  0
   21.7985  -12.4761  -17.8018 C   0  0  2  0  0  0  0  0  0  0  0  0
   23.0595  -12.9481  -18.2863 N   0  0  0  0  0  0  0  0  0  0  0  0
   22.0766  -11.3458  -16.8631 C   0  0  0  0  0  0  0  0  0  0  0  0
   21.3017  -11.0308  -15.9291 O   0  0  0  0  0  0  0  0  0  0  0  0
   25.2390  -11.2496  -14.9699 N   0  0  0  0  0  0  0  0  0  0  0  0
   25.7247   -9.9923  -15.3331 C   0  0  0  0  0  0  0  0  0  0  0  0
   26.9495   -9.7596  -15.0613 O   0  0  0  0  0  0  0  0  0  0  0  0
   24.8821   -8.9450  -16.0084 C   0  0  0  0  0  0  0  0  0  0  0  0
   23.4960   -9.4397  -16.1321 C   0  0  2  0  0  0  0  0  0  0  0  0
   23.2423  -10.5438  -16.9613 N   0  0  0  0  0  0  0  0  0  0  0  0
   22.6331   -8.3081  -16.5576 C   0  0  0  0  0  0  0  0  0  0  0  0
   22.8271   -7.7970  -17.6837 O   0  0  0  0  0  0  0  0  0  0  0  0
   16.4705   -2.6456  -18.1508 O   0  0  0  0  0  0  0  0  0  0  0  0
   17.2000   -3.7585  -17.7608 C   0  0  0  0  0  0  0  0  0  0  0  0
   16.9367   -4.4176  -16.5871 C   0  0  0  0  0  0  0  0  0  0  0  0
   17.6941   -5.5161  -16.2525 C   0  0  0  0  0  0  0  0  0  0  0  0
   18.6956   -5.9279  -17.0997 C   0  0  0  0  0  0  0  0  0  0  0  0
   19.4930   -7.1159  -16.7049 C   0  0  0  0  0  0  0  0  0  0  0  0
   20.8242   -6.6251  -16.1867 C   0  0  2  0  0  0  0  0  0  0  0  0
   21.5930   -7.7682  -15.7556 N   0  0  0  0  0  0  0  0  0  0  0  0
   20.6312   -5.6647  -15.0471 C   0  0  0  0  0  0  0  0  0  0  0  0
   20.9354   -6.0329  -13.7502 O   0  0  0  0  0  0  0  0  0  0  0  0
   18.9765   -5.2799  -18.2834 C   0  0  0  0  0  0  0  0  0  0  0  0
   18.2099   -4.1855  -18.6006 C   0  0  0  0  0  0  0  0  0  0  0  0
   20.1921   -4.5071  -15.2290 O   0  0  0  0  0  0  0  0  0  0  0  0
  2  1  1  0
  3  2  1  0
  3  4  1  6
  5  3  1  0
  5  6  1  1
  7  8  2  0
  7  5  1  0
  9 10  1  0
 10 11  2  0
 10 12  1  0
 13 12  1  6
 13 14  1  0
 14  7  1  0
 15 24  1  0
 15 13  1  0
 16 15  2  0
 17 18  1  0
 18 28  2  0
 19 20  2  0
 19 18  1  0
 20 21  1  0
 21 22  1  0
 21 27  2  0
 23 22  1  1
 23 25  1  0
 23 24  1  0
 25 26  1  0
 28 27  1  0
 29 25  2  0
M  END
$$$$
