INY.pdb
     RDKit          3D

 29 29  0  0  1  0  0  0  0  0999 V2000
   21.4187  -22.1030  -20.1243 C   0  0  0  0  0  0  0  0  0  0  0  0
   22.5203  -22.4438  -19.1794 C   0  0  0  0  0  0  0  0  0  0  0  0
   22.6425  -21.4637  -18.0182 C   0  0  2  0  0  0  0  0  0  0  0  0
   23.6612  -20.4152  -18.4875 C   0  0  0  0  0  0  0  0  0  0  0  0
   23.2786  -22.1948  -16.8828 C   0  0  2  0  0  0  0  0  0  0  0  0
   22.5611  -23.3439  -16.4221 N   0  0  0  0  0  0  0  0  0  0  0  0
   23.4988  -21.3040  -15.7022 C   0  0  0  0  0  0  0  0  0  0  0  0
   23.8947  -20.1191  -15.8084 O   0  0  0  0  0  0  0  0  0  0  0  0
   19.9897  -20.6486  -13.5940 N   0  0  0  0  0  0  0  0  0  0  0  0
   21.1693  -19.9950  -13.2334 C   0  0  0  0  0  0  0  0  0  0  0  0
   21.3018  -18.7968  -13.6516 O   0  0  0  0  0  0  0  0  0  0  0  0
   22.2462  -20.6344  -12.4001 C   0  0  0  0  0  0  0  0  0  0  0  0
   23.4241  -20.9041  -13.2492 C   0  0  2  0  0  0  0  0  0  0  0  0
   23.2751  -21.7364  -14.3700 N   0  0  0  0  0  0  0  0  0  0  0  0
   24.5066  -21.4443  -12.3874 C   0  0  0  0  0  0  0  0  0  0  0  0
   24.4606  -22.6495  -12.0524 O   0  0  0  0  0  0  0  0  0  0  0  0
   28.8201  -20.0648   -5.0261 O   0  0  0  0  0  0  0  0  0  0  0  0
   28.3352  -19.9170   -6.3168 C   0  0  0  0  0  0  0  0  0  0  0  0
   27.3794  -18.9826   -6.6248 C   0  0  0  0  0  0  0  0  0  0  0  0
   26.9365  -18.8820   -7.9233 C   0  0  0  0  0  0  0  0  0  0  0  0
   27.4601  -19.7181   -8.8809 C   0  0  0  0  0  0  0  0  0  0  0  0
   26.9568  -19.5818  -10.2706 C   0  0  0  0  0  0  0  0  0  0  0  0
   26.0629  -20.7657  -10.5545 C   0  0  2  0  0  0  0  0  0  0  0  0
   25.5987  -20.6675  -11.9178 N   0  0  0  0  0  0  0  0  0  0  0  0
   24.8975  -20.7930   -9.6059 C   0  0  0  0  0  0  0  0  0  0  0  0
   23.8389  -19.9175   -9.7577 O   0  0  0  0  0  0  0  0  0  0  0  0
   28.4208  -20.6636   -8.5926 C   0  0  0  0  0  0  0  0  0  0  0  0
   28.8507  -20.7492   -7.2910 C   0  0  0  0  0  0  0  0  0  0  0  0
   24.8434  -21.6022   -8.6529 O   0  0  0  0  0  0  0  0  0  0  0  0
  2  1  1  0
  3  2  1  0
  3  4  1  6
  5  3  1  0
  5  6  1  1
  7  8  2  0
  7  5  1  0
  9 10  1  0
 10 11  2  0
 10 12  1  0
 13 12  1  1
 13 14  1  0
 14  7  1  0
 15 24  1  0
 15 13  1  0
 16 15  2  0
 17 18  1  0
 18 28  2  0
 19 20  2  0
 19 18  1  0
 20 21  1  0
 21 22  1  0
 21 27  2  0
 23 22  1  1
 23 25  1  0
 23 24  1  0
 25 26  1  0
 28 27  1  0
 29 25  2  0
M  END
$$$$
