INY.pdb
     RDKit          3D

 29 29  0  0  1  0  0  0  0  0999 V2000
  -22.2079  -87.0670  -20.7761 C   0  0  0  0  0  0  0  0  0  0  0  0
  -21.9942  -86.9590  -19.3046 C   0  0  0  0  0  0  0  0  0  0  0  0
  -20.9582  -87.9426  -18.7727 C   0  0  2  0  0  0  0  0  0  0  0  0
  -20.3027  -88.5458  -20.0234 C   0  0  0  0  0  0  0  0  0  0  0  0
  -21.6993  -89.0529  -18.1048 C   0  0  2  0  0  0  0  0  0  0  0  0
  -22.9308  -89.4246  -18.7316 N   0  0  0  0  0  0  0  0  0  0  0  0
  -22.0044  -88.7364  -16.6755 C   0  0  0  0  0  0  0  0  0  0  0  0
  -22.0558  -87.5640  -16.2344 O   0  0  0  0  0  0  0  0  0  0  0  0
  -20.8484  -88.6113  -11.9515 N   0  0  0  0  0  0  0  0  0  0  0  0
  -21.5921  -87.7566  -12.7671 C   0  0  0  0  0  0  0  0  0  0  0  0
  -21.3708  -86.5077  -12.6273 O   0  0  0  0  0  0  0  0  0  0  0  0
  -22.6061  -88.2432  -13.7659 C   0  0  0  0  0  0  0  0  0  0  0  0
  -22.1583  -89.5345  -14.3256 C   0  0  2  0  0  0  0  0  0  0  0  0
  -22.2588  -89.7440  -15.7103 N   0  0  0  0  0  0  0  0  0  0  0  0
  -22.8789  -90.6243  -13.6190 C   0  0  0  0  0  0  0  0  0  0  0  0
  -24.0147  -90.3859  -13.1501 O   0  0  0  0  0  0  0  0  0  0  0  0
  -25.1373  -95.5299  -16.9751 O   0  0  0  0  0  0  0  0  0  0  0  0
  -24.3853  -95.1696  -15.8673 C   0  0  0  0  0  0  0  0  0  0  0  0
  -23.0504  -94.8714  -15.9685 C   0  0  0  0  0  0  0  0  0  0  0  0
  -22.3556  -94.5204  -14.8343 C   0  0  0  0  0  0  0  0  0  0  0  0
  -23.0129  -94.4765  -13.6275 C   0  0  0  0  0  0  0  0  0  0  0  0
  -22.2305  -94.0953  -12.4252 C   0  0  0  0  0  0  0  0  0  0  0  0
  -22.4526  -92.6216  -12.1799 C   0  0  2  0  0  0  0  0  0  0  0  0
  -22.3505  -91.9306  -13.4430 N   0  0  0  0  0  0  0  0  0  0  0  0
  -21.4407  -92.0849  -11.2069 C   0  0  0  0  0  0  0  0  0  0  0  0
  -21.0440  -92.8307  -10.1130 O   0  0  0  0  0  0  0  0  0  0  0  0
  -24.3535  -94.7725  -13.5039 C   0  0  0  0  0  0  0  0  0  0  0  0
  -25.0305  -95.1207  -14.6471 C   0  0  0  0  0  0  0  0  0  0  0  0
  -20.9250  -90.9538  -11.3503 O   0  0  0  0  0  0  0  0  0  0  0  0
  2  1  1  0
  3  2  1  0
  3  4  1  6
  5  3  1  0
  5  6  1  6
  7  8  2  0
  7  5  1  0
  9 10  1  0
 10 11  2  0
 10 12  1  0
 13 12  1  6
 13 14  1  0
 14  7  1  0
 15 24  1  0
 15 13  1  0
 16 15  2  0
 17 18  1  0
 18 28  2  0
 19 20  2  0
 19 18  1  0
 20 21  1  0
 21 22  1  0
 21 27  2  0
 23 22  1  6
 23 25  1  0
 23 24  1  0
 25 26  1  0
 28 27  1  0
 29 25  2  0
M  END
$$$$
