YTI.pdb
     RDKit          3D

 28 28  0  0  1  0  0  0  0  0999 V2000
   32.3060  -16.6113  -19.7747 O   0  0  0  0  0  0  0  0  0  0  0  0
   31.2609  -16.6423  -18.8368 C   0  0  0  0  0  0  0  0  0  0  0  0
   30.2000  -15.7714  -18.8893 C   0  0  0  0  0  0  0  0  0  0  0  0
   29.1567  -15.7705  -17.9883 C   0  0  0  0  0  0  0  0  0  0  0  0
   29.1979  -16.7105  -16.9768 C   0  0  0  0  0  0  0  0  0  0  0  0
   28.1530  -16.8104  -15.9516 C   0  0  0  0  0  0  0  0  0  0  0  0
   27.1514  -17.9164  -16.1858 C   0  0  2  0  0  0  0  0  0  0  0  0
   26.4089  -17.5081  -17.3894 N   0  0  0  0  0  0  0  0  0  0  0  0
   26.2581  -18.0035  -15.0183 C   0  0  0  0  0  0  0  0  0  0  0  0
   25.2676  -17.2241  -14.8786 O   0  0  0  0  0  0  0  0  0  0  0  0
   30.2623  -17.6133  -16.8919 C   0  0  0  0  0  0  0  0  0  0  0  0
   31.2799  -17.5760  -17.8133 C   0  0  0  0  0  0  0  0  0  0  0  0
   23.6134  -18.5686  -14.5169 C   0  0  0  0  0  0  0  0  0  0  0  0
   24.1841  -19.5531  -13.5256 C   0  0  1  0  0  0  0  0  0  0  0  0
   24.5043  -20.6967  -14.3110 O   0  0  0  0  0  0  0  0  0  0  0  0
   25.4576  -19.0489  -12.8512 C   0  0  2  0  0  0  0  0  0  0  0  0
   26.4254  -18.9486  -13.9696 N   0  0  0  0  0  0  0  0  0  0  0  0
   25.9196  -20.0412  -11.8786 C   0  0  0  0  0  0  0  0  0  0  0  0
   26.5280  -21.0646  -12.2795 O   0  0  0  0  0  0  0  0  0  0  0  0
   27.4524  -18.1029   -7.3047 C   0  0  0  0  0  0  0  0  0  0  0  0
   27.4968  -19.0645   -8.4468 C   0  0  0  0  0  0  0  0  0  0  0  0
   26.5106  -20.1988   -8.2536 C   0  0  2  0  0  0  0  0  0  0  0  0
   26.9317  -21.1768   -7.2061 C   0  0  0  0  0  0  0  0  0  0  0  0
   26.2560  -20.9023   -9.5995 C   0  0  2  0  0  0  0  0  0  0  0  0
   25.7023  -19.8762  -10.4985 N   0  0  0  0  0  0  0  0  0  0  0  0
   25.2098  -21.9011   -9.3366 C   0  0  0  0  0  0  0  0  0  0  0  0
   25.5292  -23.2357   -9.2461 O   0  0  0  0  0  0  0  0  0  0  0  0
   24.0117  -21.5490   -9.1918 O   0  0  0  0  0  0  0  0  0  0  0  0
  2  1  1  0
  3  2  2  0
  4  3  1  0
  5 11  1  0
  5  4  2  0
  6  5  1  0
  7  6  1  0
  7  8  1  6
  9  7  1  0
  9 10  2  0
 11 12  2  0
 12  2  1  0
 14 13  1  6
 15 14  1  0
 16 14  1  0
 16 17  1  6
 17  9  1  0
 18 16  1  0
 19 18  2  0
 21 20  1  0
 22 23  1  1
 22 21  1  0
 24 22  1  0
 24 25  1  6
 25 18  1  0
 26 27  1  0
 26 24  1  0
 28 26  2  0
M  END
$$$$
