YTI.pdb
     RDKit          3D

 28 28  0  0  1  0  0  0  0  0999 V2000
   21.0295  -19.4570  -21.0500 O   0  0  0  0  0  0  0  0  0  0  0  0
   21.4417  -18.1771  -20.6442 C   0  0  0  0  0  0  0  0  0  0  0  0
   22.7160  -17.9219  -20.1993 C   0  0  0  0  0  0  0  0  0  0  0  0
   23.1576  -16.6809  -19.7930 C   0  0  0  0  0  0  0  0  0  0  0  0
   22.2486  -15.6419  -19.8432 C   0  0  0  0  0  0  0  0  0  0  0  0
   22.5911  -14.2754  -19.4331 C   0  0  0  0  0  0  0  0  0  0  0  0
   22.7491  -13.3009  -20.5763 C   0  0  2  0  0  0  0  0  0  0  0  0
   23.9247  -13.7781  -21.3227 N   0  0  0  0  0  0  0  0  0  0  0  0
   22.9839  -11.9557  -20.0250 C   0  0  0  0  0  0  0  0  0  0  0  0
   24.1451  -11.5628  -19.7004 O   0  0  0  0  0  0  0  0  0  0  0  0
   20.9427  -15.8644  -20.2907 C   0  0  0  0  0  0  0  0  0  0  0  0
   20.5481  -17.1191  -20.6857 C   0  0  0  0  0  0  0  0  0  0  0  0
   22.2509   -8.7045  -21.5923 C   0  0  0  0  0  0  0  0  0  0  0  0
   21.5748   -8.7083  -20.2430 C   0  0  1  0  0  0  0  0  0  0  0  0
   20.2554   -9.1704  -20.5126 O   0  0  0  0  0  0  0  0  0  0  0  0
   22.2346   -9.6609  -19.2488 C   0  0  2  0  0  0  0  0  0  0  0  0
   21.9512  -11.0019  -19.8136 N   0  0  0  0  0  0  0  0  0  0  0  0
   21.5903   -9.5234  -17.9412 C   0  0  0  0  0  0  0  0  0  0  0  0
   20.5173  -10.1353  -17.7122 O   0  0  0  0  0  0  0  0  0  0  0  0
   23.6496  -11.0979  -13.8112 C   0  0  0  0  0  0  0  0  0  0  0  0
   22.6680  -10.5831  -14.8124 C   0  0  0  0  0  0  0  0  0  0  0  0
   22.3333   -9.1266  -14.5608 C   0  0  2  0  0  0  0  0  0  0  0  0
   21.7576   -8.8776  -13.2053 C   0  0  0  0  0  0  0  0  0  0  0  0
   21.3943   -8.6096  -15.6662 C   0  0  2  0  0  0  0  0  0  0  0  0
   22.1462   -8.7226  -16.9270 N   0  0  0  0  0  0  0  0  0  0  0  0
   21.1850   -7.1833  -15.3779 C   0  0  0  0  0  0  0  0  0  0  0  0
   22.1019   -6.2473  -15.7959 O   0  0  0  0  0  0  0  0  0  0  0  0
   20.1674   -6.8013  -14.7463 O   0  0  0  0  0  0  0  0  0  0  0  0
  2  1  1  0
  3  2  2  0
  4  3  1  0
  5 11  1  0
  5  4  2  0
  6  5  1  0
  7  6  1  0
  7  8  1  6
  9  7  1  0
  9 10  2  0
 11 12  2  0
 12  2  1  0
 14 13  1  6
 15 14  1  0
 16 14  1  0
 16 17  1  6
 17  9  1  0
 18 16  1  0
 19 18  2  0
 21 20  1  0
 22 23  1  1
 22 21  1  0
 24 22  1  0
 24 25  1  6
 25 18  1  0
 26 27  1  0
 26 24  1  0
 28 26  2  0
M  END
$$$$
