YTI.pdb
     RDKit          3D

 28 28  0  0  1  0  0  0  0  0999 V2000
   16.9586  -14.9753  -20.3242 O   0  0  0  0  0  0  0  0  0  0  0  0
   17.8317  -14.0086  -19.7989 C   0  0  0  0  0  0  0  0  0  0  0  0
   18.0198  -12.7859  -20.3959 C   0  0  0  0  0  0  0  0  0  0  0  0
   18.8669  -11.8125  -19.9112 C   0  0  0  0  0  0  0  0  0  0  0  0
   19.5613  -12.1024  -18.7527 C   0  0  0  0  0  0  0  0  0  0  0  0
   20.4979  -11.1549  -18.1379 C   0  0  0  0  0  0  0  0  0  0  0  0
   21.7619  -10.9218  -18.9312 C   0  0  2  0  0  0  0  0  0  0  0  0
   22.4564  -12.2196  -18.9293 N   0  0  0  0  0  0  0  0  0  0  0  0
   22.5659   -9.8916  -18.2522 C   0  0  0  0  0  0  0  0  0  0  0  0
   23.8298   -9.9699  -18.1867 O   0  0  0  0  0  0  0  0  0  0  0  0
   19.3949  -13.3368  -18.1174 C   0  0  0  0  0  0  0  0  0  0  0  0
   18.5390  -14.2761  -18.6379 C   0  0  0  0  0  0  0  0  0  0  0  0
   24.3910   -8.0024  -19.0268 C   0  0  0  0  0  0  0  0  0  0  0  0
   23.5209   -7.0425  -18.2526 C   0  0  1  0  0  0  0  0  0  0  0  0
   22.5066   -6.6639  -19.1772 O   0  0  0  0  0  0  0  0  0  0  0  0
   22.8603   -7.6862  -17.0359 C   0  0  2  0  0  0  0  0  0  0  0  0
   22.0063   -8.7450  -17.6251 N   0  0  0  0  0  0  0  0  0  0  0  0
   22.0267   -6.6950  -16.3528 C   0  0  0  0  0  0  0  0  0  0  0  0
   20.9339   -6.3463  -16.8649 O   0  0  0  0  0  0  0  0  0  0  0  0
   20.2876   -8.7330  -12.4636 C   0  0  0  0  0  0  0  0  0  0  0  0
   20.4898   -7.7666  -13.5844 C   0  0  0  0  0  0  0  0  0  0  0  0
   21.1669   -6.4981  -13.1060 C   0  0  2  0  0  0  0  0  0  0  0  0
   20.4463   -5.8314  -11.9803 C   0  0  0  0  0  0  0  0  0  0  0  0
   21.3607   -5.5329  -14.2900 C   0  0  2  0  0  0  0  0  0  0  0  0
   22.4176   -6.1222  -15.1287 N   0  0  0  0  0  0  0  0  0  0  0  0
   21.8738   -4.2843  -13.7077 C   0  0  0  0  0  0  0  0  0  0  0  0
   21.0180   -3.2458  -13.4242 O   0  0  0  0  0  0  0  0  0  0  0  0
   23.0994   -4.1497  -13.4622 O   0  0  0  0  0  0  0  0  0  0  0  0
  2  1  1  0
  3  2  2  0
  4  3  1  0
  5 11  1  0
  5  4  2  0
  6  5  1  0
  7  6  1  0
  7  8  1  1
  9  7  1  0
  9 10  2  0
 11 12  2  0
 12  2  1  0
 14 13  1  6
 15 14  1  0
 16 14  1  0
 16 17  1  6
 17  9  1  0
 18 16  1  0
 19 18  2  0
 21 20  1  0
 22 23  1  1
 22 21  1  0
 24 22  1  0
 24 25  1  6
 25 18  1  0
 26 27  1  0
 26 24  1  0
 28 26  2  0
M  END
$$$$
