YTI.pdb
     RDKit          3D

 28 28  0  0  1  0  0  0  0  0999 V2000
   30.5338  -21.8862  -18.6038 O   0  0  0  0  0  0  0  0  0  0  0  0
   29.8918  -21.3143  -17.4931 C   0  0  0  0  0  0  0  0  0  0  0  0
   29.4698  -20.0072  -17.4804 C   0  0  0  0  0  0  0  0  0  0  0  0
   28.8370  -19.4108  -16.4108 C   0  0  0  0  0  0  0  0  0  0  0  0
   28.6228  -20.1912  -15.2912 C   0  0  0  0  0  0  0  0  0  0  0  0
   27.9660  -19.6746  -14.0852 C   0  0  0  0  0  0  0  0  0  0  0  0
   26.6351  -20.3176  -13.7743 C   0  0  2  0  0  0  0  0  0  0  0  0
   25.7276  -19.8431  -14.8317 N   0  0  0  0  0  0  0  0  0  0  0  0
   26.1852  -19.8614  -12.4483 C   0  0  0  0  0  0  0  0  0  0  0  0
   25.7096  -18.6995  -12.2703 O   0  0  0  0  0  0  0  0  0  0  0  0
   29.0388  -21.5259  -15.2682 C   0  0  0  0  0  0  0  0  0  0  0  0
   29.6656  -22.0771  -16.3587 C   0  0  0  0  0  0  0  0  0  0  0  0
   23.6538  -20.3882   -8.5798 C   0  0  0  0  0  0  0  0  0  0  0  0
   24.3340  -20.7135   -9.8872 C   0  0  1  0  0  0  0  0  0  0  0  0
   23.5391  -20.0572  -10.8694 O   0  0  0  0  0  0  0  0  0  0  0  0
   25.7592  -20.1722   -9.9680 C   0  0  2  0  0  0  0  0  0  0  0  0
   26.2441  -20.6671  -11.2785 N   0  0  0  0  0  0  0  0  0  0  0  0
   26.5618  -20.7499   -8.8881 C   0  0  0  0  0  0  0  0  0  0  0  0
   27.2583  -21.7710   -9.1124 O   0  0  0  0  0  0  0  0  0  0  0  0
   29.1849  -17.7866   -5.2545 C   0  0  0  0  0  0  0  0  0  0  0  0
   28.0644  -18.6221   -5.7815 C   0  0  0  0  0  0  0  0  0  0  0  0
   28.5561  -19.9788   -6.2442 C   0  0  2  0  0  0  0  0  0  0  0  0
   29.4970  -19.9038   -7.4018 C   0  0  0  0  0  0  0  0  0  0  0  0
   27.3543  -20.8869   -6.5638 C   0  0  2  0  0  0  0  0  0  0  0  0
   26.5767  -20.1862   -7.5993 N   0  0  0  0  0  0  0  0  0  0  0  0
   26.5508  -20.9340   -5.3337 C   0  0  0  0  0  0  0  0  0  0  0  0
   26.9764  -21.6700   -4.2526 O   0  0  0  0  0  0  0  0  0  0  0  0
   25.4660  -20.3037   -5.2540 O   0  0  0  0  0  0  0  0  0  0  0  0
  2  1  1  0
  3  2  2  0
  4  3  1  0
  5 11  1  0
  5  4  2  0
  6  5  1  0
  7  6  1  0
  7  8  1  6
  9  7  1  0
  9 10  2  0
 11 12  2  0
 12  2  1  0
 14 13  1  1
 15 14  1  0
 16 14  1  0
 16 17  1  6
 17  9  1  0
 18 16  1  0
 19 18  2  0
 21 20  1  0
 22 23  1  6
 22 21  1  0
 24 22  1  0
 24 25  1  6
 25 18  1  0
 26 27  1  0
 26 24  1  0
 28 26  2  0
M  END
$$$$
