YTI.pdb
     RDKit          3D

 28 28  0  0  1  0  0  0  0  0999 V2000
   19.0607  -18.1190  -15.7275 O   0  0  0  0  0  0  0  0  0  0  0  0
   19.9440  -18.8437  -14.9106 C   0  0  0  0  0  0  0  0  0  0  0  0
   20.2649  -20.1562  -15.1579 C   0  0  0  0  0  0  0  0  0  0  0  0
   21.1264  -20.8999  -14.3802 C   0  0  0  0  0  0  0  0  0  0  0  0
   21.6922  -20.2697  -13.2888 C   0  0  0  0  0  0  0  0  0  0  0  0
   22.6197  -20.9517  -12.3791 C   0  0  0  0  0  0  0  0  0  0  0  0
   24.0797  -20.6870  -12.6613 C   0  0  2  0  0  0  0  0  0  0  0  0
   24.3307  -21.3028  -13.9745 N   0  0  0  0  0  0  0  0  0  0  0  0
   24.8903  -21.3296  -11.6131 C   0  0  0  0  0  0  0  0  0  0  0  0
   25.2328  -22.5481  -11.6899 O   0  0  0  0  0  0  0  0  0  0  0  0
   21.3888  -18.9344  -13.0062 C   0  0  0  0  0  0  0  0  0  0  0  0
   20.5242  -18.2333  -13.8104 C   0  0  0  0  0  0  0  0  0  0  0  0
   27.4505  -21.5427  -12.1069 C   0  0  0  0  0  0  0  0  0  0  0  0
   27.6788  -20.7705  -10.8304 C   0  0  1  0  0  0  0  0  0  0  0  0
   27.5980  -19.4054  -11.2264 O   0  0  0  0  0  0  0  0  0  0  0  0
   26.6107  -21.0386   -9.7730 C   0  0  2  0  0  0  0  0  0  0  0  0
   25.3491  -20.6537  -10.4496 N   0  0  0  0  0  0  0  0  0  0  0  0
   26.8416  -20.1712   -8.6162 C   0  0  0  0  0  0  0  0  0  0  0  0
   26.2180  -19.0847   -8.5225 O   0  0  0  0  0  0  0  0  0  0  0  0
   27.0672  -21.0874   -3.7909 C   0  0  0  0  0  0  0  0  0  0  0  0
   28.0798  -21.5208   -4.7998 C   0  0  0  0  0  0  0  0  0  0  0  0
   28.7759  -20.3320   -5.4310 C   0  0  2  0  0  0  0  0  0  0  0  0
   29.3098  -19.3594   -4.4310 C   0  0  0  0  0  0  0  0  0  0  0  0
   27.8256  -19.6399   -6.4256 C   0  0  2  0  0  0  0  0  0  0  0  0
   27.7460  -20.5261   -7.5987 N   0  0  0  0  0  0  0  0  0  0  0  0
   28.5030  -18.3987   -6.8278 C   0  0  0  0  0  0  0  0  0  0  0  0
   28.1757  -17.2031   -6.2320 O   0  0  0  0  0  0  0  0  0  0  0  0
   29.3883  -18.4138   -7.7202 O   0  0  0  0  0  0  0  0  0  0  0  0
  2  1  1  0
  3  2  2  0
  4  3  1  0
  5 11  1  0
  5  4  2  0
  6  5  1  0
  7  6  1  0
  7  8  1  6
  9  7  1  0
  9 10  2  0
 11 12  2  0
 12  2  1  0
 14 13  1  6
 15 14  1  0
 16 14  1  0
 16 17  1  6
 17  9  1  0
 18 16  1  0
 19 18  2  0
 21 20  1  0
 22 23  1  1
 22 21  1  0
 24 22  1  0
 24 25  1  6
 25 18  1  0
 26 27  1  0
 26 24  1  0
 28 26  2  0
M  END
$$$$
