YTI.pdb
     RDKit          3D

 28 28  0  0  1  0  0  0  0  0999 V2000
   20.4811  -25.7592  -20.9935 O   0  0  0  0  0  0  0  0  0  0  0  0
   20.6855  -26.0204  -19.6287 C   0  0  0  0  0  0  0  0  0  0  0  0
   19.7449  -26.6523  -18.8522 C   0  0  0  0  0  0  0  0  0  0  0  0
   19.9087  -26.9259  -17.5111 C   0  0  0  0  0  0  0  0  0  0  0  0
   21.0984  -26.5329  -16.9293 C   0  0  0  0  0  0  0  0  0  0  0  0
   21.3936  -26.7598  -15.5101 C   0  0  0  0  0  0  0  0  0  0  0  0
   20.5544  -25.9406  -14.5584 C   0  0  2  0  0  0  0  0  0  0  0  0
   20.9949  -24.5510  -14.7630 N   0  0  0  0  0  0  0  0  0  0  0  0
   20.8283  -26.3840  -13.1810 C   0  0  0  0  0  0  0  0  0  0  0  0
   21.1229  -25.5604  -12.2629 O   0  0  0  0  0  0  0  0  0  0  0  0
   22.0789  -25.8873  -17.6888 C   0  0  0  0  0  0  0  0  0  0  0  0
   21.8707  -25.6360  -19.0227 C   0  0  0  0  0  0  0  0  0  0  0  0
   19.5599  -26.0034  -10.8402 C   0  0  0  0  0  0  0  0  0  0  0  0
   19.5748  -27.5102  -10.7550 C   0  0  1  0  0  0  0  0  0  0  0  0
   18.4621  -27.9176  -11.5443 O   0  0  0  0  0  0  0  0  0  0  0  0
   20.8431  -28.1272  -11.3396 C   0  0  2  0  0  0  0  0  0  0  0  0
   20.7868  -27.7444  -12.7706 N   0  0  0  0  0  0  0  0  0  0  0  0
   20.7807  -29.5844  -11.2097 C   0  0  0  0  0  0  0  0  0  0  0  0
   20.3089  -30.2703  -12.1505 O   0  0  0  0  0  0  0  0  0  0  0  0
   24.7236  -31.7955   -8.4307 C   0  0  0  0  0  0  0  0  0  0  0  0
   23.6758  -31.5277   -9.4610 C   0  0  0  0  0  0  0  0  0  0  0  0
   22.3461  -32.1405   -9.0702 C   0  0  2  0  0  0  0  0  0  0  0  0
   22.3974  -33.6270   -8.9330 C   0  0  0  0  0  0  0  0  0  0  0  0
   21.2603  -31.7130  -10.0749 C   0  0  2  0  0  0  0  0  0  0  0  0
   21.2411  -30.2410  -10.0539 N   0  0  0  0  0  0  0  0  0  0  0  0
   19.9890  -32.2007   -9.5207 C   0  0  0  0  0  0  0  0  0  0  0  0
   19.4377  -33.3761   -9.9747 O   0  0  0  0  0  0  0  0  0  0  0  0
   19.3900  -31.5509   -8.6267 O   0  0  0  0  0  0  0  0  0  0  0  0
  2  1  1  0
  3  2  2  0
  4  3  1  0
  5 11  1  0
  5  4  2  0
  6  5  1  0
  7  6  1  0
  7  8  1  1
  9  7  1  0
  9 10  2  0
 11 12  2  0
 12  2  1  0
 14 13  1  6
 15 14  1  0
 16 14  1  0
 16 17  1  6
 17  9  1  0
 18 16  1  0
 19 18  2  0
 21 20  1  0
 22 23  1  6
 22 21  1  0
 24 22  1  0
 24 25  1  1
 25 18  1  0
 26 27  1  0
 26 24  1  0
 28 26  2  0
M  END
$$$$
