YTI.pdb
     RDKit          3D

 28 28  0  0  1  0  0  0  0  0999 V2000
   22.3837  -21.1616   -7.8852 O   0  0  0  0  0  0  0  0  0  0  0  0
   23.2679  -20.9782   -8.9609 C   0  0  0  0  0  0  0  0  0  0  0  0
   24.6284  -21.1095   -8.8248 C   0  0  0  0  0  0  0  0  0  0  0  0
   25.5274  -20.9375   -9.8555 C   0  0  0  0  0  0  0  0  0  0  0  0
   25.0098  -20.6133  -11.0946 C   0  0  0  0  0  0  0  0  0  0  0  0
   25.8595  -20.3978  -12.2712 C   0  0  0  0  0  0  0  0  0  0  0  0
   25.4287  -21.1606  -13.5015 C   0  0  2  0  0  0  0  0  0  0  0  0
   25.5831  -22.5797  -13.1423 N   0  0  0  0  0  0  0  0  0  0  0  0
   26.3162  -20.7992  -14.6197 C   0  0  0  0  0  0  0  0  0  0  0  0
   27.3305  -21.4996  -14.9174 O   0  0  0  0  0  0  0  0  0  0  0  0
   23.6299  -20.4716  -11.2706 C   0  0  0  0  0  0  0  0  0  0  0  0
   22.7726  -20.6528  -10.2133 C   0  0  0  0  0  0  0  0  0  0  0  0
   26.7083  -21.9477  -17.1059 C   0  0  0  0  0  0  0  0  0  0  0  0
   26.3781  -20.5646  -17.6115 C   0  0  1  0  0  0  0  0  0  0  0  0
   24.9549  -20.5265  -17.6259 O   0  0  0  0  0  0  0  0  0  0  0  0
   26.8892  -19.4570  -16.6934 C   0  0  2  0  0  0  0  0  0  0  0  0
   26.1168  -19.6585  -15.4443 N   0  0  0  0  0  0  0  0  0  0  0  0
   26.5655  -18.1532  -17.2758 C   0  0  0  0  0  0  0  0  0  0  0  0
   25.5482  -17.5326  -16.8780 O   0  0  0  0  0  0  0  0  0  0  0  0
   30.8878  -15.4805  -18.3545 C   0  0  0  0  0  0  0  0  0  0  0  0
   29.5044  -15.8243  -17.9083 C   0  0  0  0  0  0  0  0  0  0  0  0
   28.4901  -15.5701  -19.0051 C   0  0  2  0  0  0  0  0  0  0  0  0
   28.3673  -14.1281  -19.3747 C   0  0  0  0  0  0  0  0  0  0  0  0
   27.1257  -16.1569  -18.5988 C   0  0  2  0  0  0  0  0  0  0  0  0
   27.3703  -17.5716  -18.2723 N   0  0  0  0  0  0  0  0  0  0  0  0
   26.2898  -16.0981  -19.8066 C   0  0  0  0  0  0  0  0  0  0  0  0
   25.2551  -15.1962  -19.8933 O   0  0  0  0  0  0  0  0  0  0  0  0
   26.5090  -16.8703  -20.7742 O   0  0  0  0  0  0  0  0  0  0  0  0
  2  1  1  0
  3  2  2  0
  4  3  1  0
  5 11  1  0
  5  4  2  0
  6  5  1  0
  7  6  1  0
  7  8  1  1
  9  7  1  0
  9 10  2  0
 11 12  2  0
 12  2  1  0
 14 13  1  1
 15 14  1  0
 16 14  1  0
 16 17  1  1
 17  9  1  0
 18 16  1  0
 19 18  2  0
 21 20  1  0
 22 23  1  1
 22 21  1  0
 24 22  1  0
 24 25  1  6
 25 18  1  0
 26 27  1  0
 26 24  1  0
 28 26  2  0
M  END
$$$$
