YTI.pdb
     RDKit          3D

 28 28  0  0  1  0  0  0  0  0999 V2000
   18.7833  -18.5745  -15.0391 O   0  0  0  0  0  0  0  0  0  0  0  0
   19.7807  -19.2139  -14.2847 C   0  0  0  0  0  0  0  0  0  0  0  0
   19.7201  -20.5490  -13.9676 C   0  0  0  0  0  0  0  0  0  0  0  0
   20.6781  -21.2115  -13.2302 C   0  0  0  0  0  0  0  0  0  0  0  0
   21.7584  -20.4706  -12.7916 C   0  0  0  0  0  0  0  0  0  0  0  0
   22.8422  -21.0551  -11.9937 C   0  0  0  0  0  0  0  0  0  0  0  0
   24.2180  -20.8951  -12.5961 C   0  0  2  0  0  0  0  0  0  0  0  0
   24.2087  -21.7471  -13.7964 N   0  0  0  0  0  0  0  0  0  0  0  0
   25.2199  -21.3636  -11.6238 C   0  0  0  0  0  0  0  0  0  0  0  0
   25.3600  -22.5945  -11.3532 O   0  0  0  0  0  0  0  0  0  0  0  0
   21.8537  -19.1091  -13.0955 C   0  0  0  0  0  0  0  0  0  0  0  0
   20.8739  -18.4920  -13.8338 C   0  0  0  0  0  0  0  0  0  0  0  0
   28.6595  -21.6877  -11.7342 C   0  0  0  0  0  0  0  0  0  0  0  0
   28.4143  -20.7840  -10.5505 C   0  0  1  0  0  0  0  0  0  0  0  0
   28.4529  -19.4702  -11.0978 O   0  0  0  0  0  0  0  0  0  0  0  0
   27.0490  -21.0063   -9.9043 C   0  0  2  0  0  0  0  0  0  0  0  0
   26.0977  -20.4949  -10.9196 N   0  0  0  0  0  0  0  0  0  0  0  0
   26.9525  -20.2061   -8.6818 C   0  0  0  0  0  0  0  0  0  0  0  0
   26.0598  -19.3275   -8.5857 O   0  0  0  0  0  0  0  0  0  0  0  0
   28.7110  -22.1588   -3.8318 C   0  0  0  0  0  0  0  0  0  0  0  0
   27.8790  -21.4732   -4.8656 C   0  0  0  0  0  0  0  0  0  0  0  0
   28.5073  -20.1656   -5.3036 C   0  0  2  0  0  0  0  0  0  0  0  0
   28.7165  -19.2041   -4.1799 C   0  0  0  0  0  0  0  0  0  0  0  0
   27.6639  -19.5328   -6.4258 C   0  0  2  0  0  0  0  0  0  0  0  0
   27.8359  -20.3988   -7.6040 N   0  0  0  0  0  0  0  0  0  0  0  0
   28.2892  -18.2331   -6.7110 C   0  0  0  0  0  0  0  0  0  0  0  0
   27.7636  -17.0774   -6.1822 O   0  0  0  0  0  0  0  0  0  0  0  0
   29.3102  -18.1612   -7.4409 O   0  0  0  0  0  0  0  0  0  0  0  0
  2  1  1  0
  3  2  2  0
  4  3  1  0
  5 11  1  0
  5  4  2  0
  6  5  1  0
  7  6  1  0
  7  8  1  6
  9  7  1  0
  9 10  2  0
 11 12  2  0
 12  2  1  0
 14 13  1  6
 15 14  1  0
 16 14  1  0
 16 17  1  6
 17  9  1  0
 18 16  1  0
 19 18  2  0
 21 20  1  0
 22 23  1  1
 22 21  1  0
 24 22  1  0
 24 25  1  6
 25 18  1  0
 26 27  1  0
 26 24  1  0
 28 26  2  0
M  END
$$$$
