YTI.pdb
     RDKit          3D

 28 28  0  0  1  0  0  0  0  0999 V2000
   21.4207  -21.5708  -15.1488 O   0  0  0  0  0  0  0  0  0  0  0  0
   21.4798  -20.2637  -15.6596 C   0  0  0  0  0  0  0  0  0  0  0  0
   21.5850  -20.0040  -17.0043 C   0  0  0  0  0  0  0  0  0  0  0  0
   21.6455  -18.7367  -17.5432 C   0  0  0  0  0  0  0  0  0  0  0  0
   21.5961  -17.6747  -16.6612 C   0  0  0  0  0  0  0  0  0  0  0  0
   21.6578  -16.2779  -17.1062 C   0  0  0  0  0  0  0  0  0  0  0  0
   20.3289  -15.6972  -17.5282 C   0  0  2  0  0  0  0  0  0  0  0  0
   19.9225  -16.4903  -18.6998 N   0  0  0  0  0  0  0  0  0  0  0  0
   20.5217  -14.2825  -17.8892 C   0  0  0  0  0  0  0  0  0  0  0  0
   20.5255  -13.8986  -19.0978 O   0  0  0  0  0  0  0  0  0  0  0  0
   21.4890  -17.9010  -15.2855 C   0  0  0  0  0  0  0  0  0  0  0  0
   21.4318  -19.1823  -14.7948 C   0  0  0  0  0  0  0  0  0  0  0  0
   19.2417  -12.2497  -19.2376 C   0  0  0  0  0  0  0  0  0  0  0  0
   19.5131  -11.4911  -17.9614 C   0  0  1  0  0  0  0  0  0  0  0  0
   18.4850  -11.9180  -17.0738 O   0  0  0  0  0  0  0  0  0  0  0  0
   20.8671  -11.8305  -17.3432 C   0  0  2  0  0  0  0  0  0  0  0  0
   20.7160  -13.2474  -16.9344 N   0  0  0  0  0  0  0  0  0  0  0  0
   21.0884  -10.9914  -16.1638 C   0  0  0  0  0  0  0  0  0  0  0  0
   20.4904  -11.2596  -15.0920 O   0  0  0  0  0  0  0  0  0  0  0  0
   25.9396  -10.6342  -15.1009 C   0  0  0  0  0  0  0  0  0  0  0  0
   24.4469  -10.6447  -15.0488 C   0  0  0  0  0  0  0  0  0  0  0  0
   23.8883   -9.2431  -14.9074 C   0  0  2  0  0  0  0  0  0  0  0  0
   24.4024   -8.5199  -13.7059 C   0  0  0  0  0  0  0  0  0  0  0  0
   22.3493   -9.2933  -14.9085 C   0  0  2  0  0  0  0  0  0  0  0  0
   21.9609   -9.8884  -16.1980 N   0  0  0  0  0  0  0  0  0  0  0  0
   21.9039   -7.8924  -14.8920 C   0  0  0  0  0  0  0  0  0  0  0  0
   21.6042   -7.2717  -13.7018 O   0  0  0  0  0  0  0  0  0  0  0  0
   21.7908   -7.2448  -15.9636 O   0  0  0  0  0  0  0  0  0  0  0  0
  2  1  1  0
  3  2  2  0
  4  3  1  0
  5 11  1  0
  5  4  2  0
  6  5  1  0
  7  6  1  0
  7  8  1  6
  9  7  1  0
  9 10  2  0
 11 12  2  0
 12  2  1  0
 14 13  1  6
 15 14  1  0
 16 14  1  0
 16 17  1  1
 17  9  1  0
 18 16  1  0
 19 18  2  0
 21 20  1  0
 22 23  1  1
 22 21  1  0
 24 22  1  0
 24 25  1  6
 25 18  1  0
 26 27  1  0
 26 24  1  0
 28 26  2  0
M  END
$$$$
