YTI.pdb
     RDKit          3D

 28 28  0  0  1  0  0  0  0  0999 V2000
   16.5168  -24.6026    0.8442 O   0  0  0  0  0  0  0  0  0  0  0  0
   16.4832  -23.3592    1.4965 C   0  0  0  0  0  0  0  0  0  0  0  0
   16.8556  -23.2078    2.8099 C   0  0  0  0  0  0  0  0  0  0  0  0
   16.8364  -22.0055    3.4839 C   0  0  0  0  0  0  0  0  0  0  0  0
   16.4133  -20.8954    2.7789 C   0  0  0  0  0  0  0  0  0  0  0  0
   16.3410  -19.5599    3.3822 C   0  0  0  0  0  0  0  0  0  0  0  0
   15.2298  -19.3890    4.3907 C   0  0  2  0  0  0  0  0  0  0  0  0
   13.9891  -19.4294    3.5997 N   0  0  0  0  0  0  0  0  0  0  0  0
   15.3890  -18.0854    5.0570 C   0  0  0  0  0  0  0  0  0  0  0  0
   14.6608  -17.0914    4.7573 O   0  0  0  0  0  0  0  0  0  0  0  0
   16.0267  -21.0117    1.4403 C   0  0  0  0  0  0  0  0  0  0  0  0
   16.0628  -22.2314    0.8102 C   0  0  0  0  0  0  0  0  0  0  0  0
   16.5275  -15.9347    9.3006 C   0  0  0  0  0  0  0  0  0  0  0  0
   16.4143  -17.0637    8.3055 C   0  0  1  0  0  0  0  0  0  0  0  0
   15.1846  -17.7009    8.6356 O   0  0  0  0  0  0  0  0  0  0  0  0
   16.3426  -16.5784    6.8597 C   0  0  2  0  0  0  0  0  0  0  0  0
   16.3523  -17.8341    6.0718 N   0  0  0  0  0  0  0  0  0  0  0  0
   17.5352  -15.7866    6.5518 C   0  0  0  0  0  0  0  0  0  0  0  0
   18.6254  -16.3699    6.3296 O   0  0  0  0  0  0  0  0  0  0  0  0
   17.7922  -12.6471    2.6847 C   0  0  0  0  0  0  0  0  0  0  0  0
   18.1127  -13.5342    3.8428 C   0  0  0  0  0  0  0  0  0  0  0  0
   18.5030  -12.7285    5.0656 C   0  0  2  0  0  0  0  0  0  0  0  0
   19.6713  -11.8276    4.8322 C   0  0  0  0  0  0  0  0  0  0  0  0
   18.7605  -13.6751    6.2525 C   0  0  2  0  0  0  0  0  0  0  0  0
   17.4916  -14.3816    6.4943 N   0  0  0  0  0  0  0  0  0  0  0  0
   19.0332  -12.8050    7.4056 C   0  0  0  0  0  0  0  0  0  0  0  0
   20.3272  -12.4895    7.7483 O   0  0  0  0  0  0  0  0  0  0  0  0
   18.0890  -12.3391    8.0925 O   0  0  0  0  0  0  0  0  0  0  0  0
  2  1  1  0
  3  2  2  0
  4  3  1  0
  5 11  1  0
  5  4  2  0
  6  5  1  0
  7  6  1  0
  7  8  1  6
  9  7  1  0
  9 10  2  0
 11 12  2  0
 12  2  1  0
 14 13  1  1
 15 14  1  0
 16 14  1  0
 16 17  1  6
 17  9  1  0
 18 16  1  0
 19 18  2  0
 21 20  1  0
 22 23  1  6
 22 21  1  0
 24 22  1  0
 24 25  1  1
 25 18  1  0
 26 27  1  0
 26 24  1  0
 28 26  2  0
M  END
$$$$
