YTI.pdb
     RDKit          3D

 28 28  0  0  1  0  0  0  0  0999 V2000
   21.8433  -27.3088  -17.8999 O   0  0  0  0  0  0  0  0  0  0  0  0
   22.6722  -26.4881  -17.1176 C   0  0  0  0  0  0  0  0  0  0  0  0
   22.4395  -25.1434  -16.9618 C   0  0  0  0  0  0  0  0  0  0  0  0
   23.2293  -24.3061  -16.2033 C   0  0  0  0  0  0  0  0  0  0  0  0
   24.3177  -24.8721  -15.5681 C   0  0  0  0  0  0  0  0  0  0  0  0
   25.2392  -24.0893  -14.7370 C   0  0  0  0  0  0  0  0  0  0  0  0
   25.9508  -22.9770  -15.4703 C   0  0  2  0  0  0  0  0  0  0  0  0
   26.9173  -23.6576  -16.3474 N   0  0  0  0  0  0  0  0  0  0  0  0
   26.6395  -22.1241  -14.4870 C   0  0  0  0  0  0  0  0  0  0  0  0
   27.6013  -21.3677  -14.8200 O   0  0  0  0  0  0  0  0  0  0  0  0
   24.5856  -26.2377  -15.7039 C   0  0  0  0  0  0  0  0  0  0  0  0
   23.7697  -27.0328  -16.4707 C   0  0  0  0  0  0  0  0  0  0  0  0
   26.5770  -19.4959  -14.2446 C   0  0  0  0  0  0  0  0  0  0  0  0
   26.1712  -19.7345  -12.8106 C   0  0  1  0  0  0  0  0  0  0  0  0
   24.7583  -19.8997  -12.8683 O   0  0  0  0  0  0  0  0  0  0  0  0
   26.7892  -20.9992  -12.2193 C   0  0  2  0  0  0  0  0  0  0  0  0
   26.2929  -22.0760  -13.1091 N   0  0  0  0  0  0  0  0  0  0  0  0
   26.2814  -21.2004  -10.8608 C   0  0  0  0  0  0  0  0  0  0  0  0
   25.3435  -22.0127  -10.6642 O   0  0  0  0  0  0  0  0  0  0  0  0
   29.3614  -19.2430   -6.7819 C   0  0  0  0  0  0  0  0  0  0  0  0
   28.5535  -20.2507   -7.5322 C   0  0  0  0  0  0  0  0  0  0  0  0
   27.0703  -19.9564   -7.4318 C   0  0  2  0  0  0  0  0  0  0  0  0
   26.5300  -20.1057   -6.0474 C   0  0  0  0  0  0  0  0  0  0  0  0
   26.2957  -20.8388   -8.4280 C   0  0  2  0  0  0  0  0  0  0  0  0
   26.8217  -20.5068   -9.7625 N   0  0  0  0  0  0  0  0  0  0  0  0
   24.8977  -20.3898   -8.3563 C   0  0  0  0  0  0  0  0  0  0  0  0
   23.9851  -21.0762   -7.5899 O   0  0  0  0  0  0  0  0  0  0  0  0
   24.5187  -19.3746   -8.9938 O   0  0  0  0  0  0  0  0  0  0  0  0
  2  1  1  0
  3  2  2  0
  4  3  1  0
  5 11  1  0
  5  4  2  0
  6  5  1  0
  7  6  1  0
  7  8  1  6
  9  7  1  0
  9 10  2  0
 11 12  2  0
 12  2  1  0
 14 13  1  6
 15 14  1  0
 16 14  1  0
 16 17  1  6
 17  9  1  0
 18 16  1  0
 19 18  2  0
 21 20  1  0
 22 23  1  1
 22 21  1  0
 24 22  1  0
 24 25  1  6
 25 18  1  0
 26 27  1  0
 26 24  1  0
 28 26  2  0
M  END
$$$$
