YTI.pdb
     RDKit          3D

 28 28  0  0  1  0  0  0  0  0999 V2000
   26.1665  -11.9037  -21.9512 O   0  0  0  0  0  0  0  0  0  0  0  0
   25.2205  -10.9187  -21.6231 C   0  0  0  0  0  0  0  0  0  0  0  0
   25.2232  -10.2713  -20.4117 C   0  0  0  0  0  0  0  0  0  0  0  0
   24.3126   -9.3005  -20.0533 C   0  0  0  0  0  0  0  0  0  0  0  0
   23.3448   -8.9716  -20.9825 C   0  0  0  0  0  0  0  0  0  0  0  0
   22.3147   -7.9597  -20.7221 C   0  0  0  0  0  0  0  0  0  0  0  0
   21.4036   -8.2799  -19.5608 C   0  0  2  0  0  0  0  0  0  0  0  0
   20.6841   -9.4982  -19.9669 N   0  0  0  0  0  0  0  0  0  0  0  0
   20.4714   -7.1569  -19.3644 C   0  0  0  0  0  0  0  0  0  0  0  0
   19.5934   -6.8616  -20.2303 O   0  0  0  0  0  0  0  0  0  0  0  0
   23.3112   -9.6097  -22.2262 C   0  0  0  0  0  0  0  0  0  0  0  0
   24.2402  -10.5716  -22.5387 C   0  0  0  0  0  0  0  0  0  0  0  0
   17.7370   -6.8022  -17.2619 C   0  0  0  0  0  0  0  0  0  0  0  0
   18.6289   -5.6377  -16.9063 C   0  0  1  0  0  0  0  0  0  0  0  0
   19.4508   -6.1333  -15.8546 O   0  0  0  0  0  0  0  0  0  0  0  0
   19.5237   -5.1981  -18.0625 C   0  0  2  0  0  0  0  0  0  0  0  0
   20.4755   -6.3247  -18.2118 N   0  0  0  0  0  0  0  0  0  0  0  0
   20.2454   -3.9814  -17.6848 C   0  0  0  0  0  0  0  0  0  0  0  0
   21.3486   -4.0749  -17.0911 O   0  0  0  0  0  0  0  0  0  0  0  0
   19.8525    0.3273  -20.8314 C   0  0  0  0  0  0  0  0  0  0  0  0
   20.3679   -0.7301  -19.9108 C   0  0  0  0  0  0  0  0  0  0  0  0
   20.1100   -0.3747  -18.4604 C   0  0  2  0  0  0  0  0  0  0  0  0
   20.7622    0.9013  -18.0391 C   0  0  0  0  0  0  0  0  0  0  0  0
   20.5390   -1.5430  -17.5537 C   0  0  2  0  0  0  0  0  0  0  0  0
   19.7351   -2.7027  -17.9740 N   0  0  0  0  0  0  0  0  0  0  0  0
   20.1298   -1.1642  -16.1935 C   0  0  0  0  0  0  0  0  0  0  0  0
   18.9457   -1.6271  -15.6690 O   0  0  0  0  0  0  0  0  0  0  0  0
   20.8553   -0.4132  -15.4934 O   0  0  0  0  0  0  0  0  0  0  0  0
  2  1  1  0
  3  2  2  0
  4  3  1  0
  5 11  1  0
  5  4  2  0
  6  5  1  0
  7  6  1  0
  7  8  1  6
  9  7  1  0
  9 10  2  0
 11 12  2  0
 12  2  1  0
 14 13  1  6
 15 14  1  0
 16 14  1  0
 16 17  1  1
 17  9  1  0
 18 16  1  0
 19 18  2  0
 21 20  1  0
 22 23  1  1
 22 21  1  0
 24 22  1  0
 24 25  1  6
 25 18  1  0
 26 27  1  0
 26 24  1  0
 28 26  2  0
M  END
$$$$
