YTI.pdb
     RDKit          3D

 28 28  0  0  1  0  0  0  0  0999 V2000
   18.4545  -19.0280  -14.6610 O   0  0  0  0  0  0  0  0  0  0  0  0
   19.5570  -19.6035  -14.0083 C   0  0  0  0  0  0  0  0  0  0  0  0
   19.7874  -20.9576  -14.0095 C   0  0  0  0  0  0  0  0  0  0  0  0
   20.8568  -21.5592  -13.3813 C   0  0  0  0  0  0  0  0  0  0  0  0
   21.7407  -20.7334  -12.7142 C   0  0  0  0  0  0  0  0  0  0  0  0
   22.9148  -21.2489  -12.0010 C   0  0  0  0  0  0  0  0  0  0  0  0
   24.2383  -20.8858  -12.6316 C   0  0  2  0  0  0  0  0  0  0  0  0
   24.2331  -21.5592  -13.9405 N   0  0  0  0  0  0  0  0  0  0  0  0
   25.3262  -21.3954  -11.7798 C   0  0  0  0  0  0  0  0  0  0  0  0
   25.6511  -22.6212  -11.7774 O   0  0  0  0  0  0  0  0  0  0  0  0
   21.5382  -19.3501  -12.6918 C   0  0  0  0  0  0  0  0  0  0  0  0
   20.4575  -18.7958  -13.3327 C   0  0  0  0  0  0  0  0  0  0  0  0
   28.7126  -21.0352  -12.0880 C   0  0  0  0  0  0  0  0  0  0  0  0
   28.4431  -20.5299  -10.6917 C   0  0  1  0  0  0  0  0  0  0  0  0
   28.2482  -19.1292  -10.8566 O   0  0  0  0  0  0  0  0  0  0  0  0
   27.1833  -21.1311  -10.0735 C   0  0  2  0  0  0  0  0  0  0  0  0
   26.0897  -20.5748  -10.9054 N   0  0  0  0  0  0  0  0  0  0  0  0
   27.0473  -20.6638   -8.6925 C   0  0  0  0  0  0  0  0  0  0  0  0
   25.9570  -20.1706   -8.3102 O   0  0  0  0  0  0  0  0  0  0  0  0
   31.0091  -22.0422   -5.1680 C   0  0  0  0  0  0  0  0  0  0  0  0
   29.5909  -21.8623   -5.6010 C   0  0  0  0  0  0  0  0  0  0  0  0
   29.2142  -20.3959   -5.6666 C   0  0  2  0  0  0  0  0  0  0  0  0
   29.1599  -19.7385   -4.3265 C   0  0  0  0  0  0  0  0  0  0  0  0
   27.8802  -20.2341   -6.4186 C   0  0  2  0  0  0  0  0  0  0  0  0
   28.1104  -20.7563   -7.7758 N   0  0  0  0  0  0  0  0  0  0  0  0
   27.6479  -18.7855   -6.5129 C   0  0  0  0  0  0  0  0  0  0  0  0
   26.7248  -18.1745   -5.6968 O   0  0  0  0  0  0  0  0  0  0  0  0
   28.2885  -18.0877   -7.3395 O   0  0  0  0  0  0  0  0  0  0  0  0
  2  1  1  0
  3  2  2  0
  4  3  1  0
  5 11  1  0
  5  4  2  0
  6  5  1  0
  7  6  1  0
  7  8  1  6
  9  7  1  0
  9 10  2  0
 11 12  2  0
 12  2  1  0
 14 13  1  6
 15 14  1  0
 16 14  1  0
 16 17  1  6
 17  9  1  0
 18 16  1  0
 19 18  2  0
 21 20  1  0
 22 23  1  1
 22 21  1  0
 24 22  1  0
 24 25  1  6
 25 18  1  0
 26 27  1  0
 26 24  1  0
 28 26  2  0
M  END
$$$$
