QKE.pdb
     RDKit          3D

 28 27  0  0  1  0  0  0  0  0999 V2000
   28.3043  -22.5135  -15.5607 N   0  0  0  0  0  0  0  0  0  0  0  0
   28.8841  -21.6789  -16.5380 C   0  0  0  0  0  0  0  0  0  0  0  0
   29.7600  -22.1100  -17.3128 O   0  0  0  0  0  0  0  0  0  0  0  0
   28.4531  -20.2663  -16.6542 C   0  0  0  0  0  0  0  0  0  0  0  0
   27.3706  -19.9612  -15.6406 C   0  0  0  0  0  0  0  0  0  0  0  0
   26.0194  -20.0788  -16.3016 C   0  0  2  0  0  0  0  0  0  0  0  0
   26.1541  -19.4781  -17.6157 N   0  0  0  0  0  0  0  0  0  0  0  0
   24.9478  -19.4224  -15.5204 C   0  0  0  0  0  0  0  0  0  0  0  0
   24.9161  -19.6388  -14.2840 O   0  0  0  0  0  0  0  0  0  0  0  0
   23.9868  -18.5784  -16.1289 N   0  0  0  0  0  0  0  0  0  0  0  0
   22.9102  -17.9230  -15.3488 C   0  0  1  0  0  0  0  0  0  0  0  0
   22.6818  -16.5404  -15.9221 C   0  0  0  0  0  0  0  0  0  0  0  0
   21.5421  -16.4182  -16.8687 C   0  0  0  0  0  0  0  0  0  0  0  0
   21.4027  -15.0075  -17.4187 C   0  0  0  0  0  0  0  0  0  0  0  0
   20.2182  -14.8654  -18.3362 C   0  0  0  0  0  0  0  0  0  0  0  0
   19.9926  -13.5004  -18.7509 N   0  0  0  0  0  0  0  0  0  0  0  0
   21.7325  -18.8030  -15.3900 C   0  0  0  0  0  0  0  0  0  0  0  0
   21.4826  -19.4590  -16.4644 O   0  0  0  0  0  0  0  0  0  0  0  0
   20.8124  -19.0220  -14.3455 N   0  0  0  0  0  0  0  0  0  0  0  0
   19.7004  -19.9707  -14.4265 C   0  0  1  0  0  0  0  0  0  0  0  0
   19.3941  -20.5802  -13.0981 C   0  0  0  0  0  0  0  0  0  0  0  0
   18.3506  -21.6417  -13.1003 C   0  0  0  0  0  0  0  0  0  0  0  0
   18.1726  -22.3510  -11.8161 C   0  0  0  0  0  0  0  0  0  0  0  0
   18.8152  -22.1147  -10.7691 O   0  0  0  0  0  0  0  0  0  0  0  0
   18.4840  -19.3352  -14.9464 C   0  0  0  0  0  0  0  0  0  0  0  0
   18.2988  -18.1081  -14.7598 O   0  0  0  0  0  0  0  0  0  0  0  0
   17.2165  -23.3565  -11.7748 O   0  0  0  0  0  0  0  0  0  0  0  0
   17.5163  -20.0367  -15.6441 O   0  0  0  0  0  0  0  0  0  0  0  0
  1  2  1  0
  2  4  1  0
  2  3  2  0
  4  5  1  0
  5  6  1  0
  6  8  1  0
  6  7  1  6
  8  9  2  0
 10  8  1  0
 10 11  1  0
 11 12  1  6
 13 12  1  0
 14 15  1  0
 14 13  1  0
 16 15  1  0
 17 11  1  0
 17 18  2  0
 19 17  1  0
 20 25  1  0
 20 19  1  0
 20 21  1  1
 22 21  1  0
 23 22  1  0
 23 24  2  0
 25 28  1  0
 26 25  2  0
 27 23  1  0
M  END
$$$$
