QKE.pdb
     RDKit          3D

 28 27  0  0  1  0  0  0  0  0999 V2000
   17.1499  -15.2606  -19.5156 N   0  0  0  0  0  0  0  0  0  0  0  0
   17.8139  -14.5495  -18.4952 C   0  0  0  0  0  0  0  0  0  0  0  0
   17.1789  -13.8490  -17.6830 O   0  0  0  0  0  0  0  0  0  0  0  0
   19.2886  -14.6291  -18.3774 C   0  0  0  0  0  0  0  0  0  0  0  0
   19.7769  -13.7272  -17.2637 C   0  0  0  0  0  0  0  0  0  0  0  0
   21.2853  -13.7422  -17.2335 C   0  0  2  0  0  0  0  0  0  0  0  0
   21.6685  -14.9878  -16.5952 N   0  0  0  0  0  0  0  0  0  0  0  0
   21.8490  -12.5775  -16.5157 C   0  0  0  0  0  0  0  0  0  0  0  0
   21.2986  -12.2380  -15.4394 O   0  0  0  0  0  0  0  0  0  0  0  0
   22.9670  -11.8622  -17.0100 N   0  0  0  0  0  0  0  0  0  0  0  0
   23.4725  -10.6372  -16.3459 C   0  0  1  0  0  0  0  0  0  0  0  0
   24.9558  -10.5216  -16.6268 C   0  0  0  0  0  0  0  0  0  0  0  0
   25.8143  -11.5447  -15.9740 C   0  0  0  0  0  0  0  0  0  0  0  0
   27.2906  -11.3230  -16.2631 C   0  0  0  0  0  0  0  0  0  0  0  0
   28.1665  -12.3370  -15.5779 C   0  0  0  0  0  0  0  0  0  0  0  0
   29.5748  -12.0630  -15.7444 N   0  0  0  0  0  0  0  0  0  0  0  0
   22.6693   -9.5047  -16.8311 C   0  0  0  0  0  0  0  0  0  0  0  0
   22.3771   -9.4379  -18.0790 O   0  0  0  0  0  0  0  0  0  0  0  0
   22.1594   -8.4448  -16.0552 N   0  0  0  0  0  0  0  0  0  0  0  0
   21.4857   -7.2741  -16.6197 C   0  0  1  0  0  0  0  0  0  0  0  0
   20.6078   -6.6023  -15.6157 C   0  0  0  0  0  0  0  0  0  0  0  0
   19.8038   -5.4578  -16.1248 C   0  0  0  0  0  0  0  0  0  0  0  0
   18.9411   -4.7998  -15.1214 C   0  0  0  0  0  0  0  0  0  0  0  0
   19.3408   -4.0125  -14.2350 O   0  0  0  0  0  0  0  0  0  0  0  0
   22.4474   -6.2939  -17.1373 C   0  0  0  0  0  0  0  0  0  0  0  0
   22.0839   -5.4751  -18.0163 O   0  0  0  0  0  0  0  0  0  0  0  0
   17.5827   -5.0809  -15.1716 O   0  0  0  0  0  0  0  0  0  0  0  0
   23.7570   -6.2287  -16.6946 O   0  0  0  0  0  0  0  0  0  0  0  0
  1  2  1  0
  2  4  1  0
  2  3  2  0
  4  5  1  0
  5  6  1  0
  6  8  1  0
  6  7  1  1
  8  9  2  0
 10  8  1  0
 10 11  1  0
 11 12  1  6
 13 12  1  0
 14 15  1  0
 14 13  1  0
 16 15  1  0
 17 11  1  0
 17 18  2  0
 19 17  1  0
 20 25  1  0
 20 19  1  0
 20 21  1  1
 22 21  1  0
 23 22  1  0
 23 24  2  0
 25 28  1  0
 26 25  2  0
 27 23  1  0
M  END
$$$$
