QKE.pdb
     RDKit          3D

 28 27  0  0  1  0  0  0  0  0999 V2000
   15.2084   -5.3823  -22.7619 N   0  0  0  0  0  0  0  0  0  0  0  0
   16.5485   -5.3935  -23.1997 C   0  0  0  0  0  0  0  0  0  0  0  0
   16.8483   -5.0470  -24.3589 O   0  0  0  0  0  0  0  0  0  0  0  0
   17.6247   -5.8220  -22.2761 C   0  0  0  0  0  0  0  0  0  0  0  0
   17.0750   -6.0078  -20.8777 C   0  0  0  0  0  0  0  0  0  0  0  0
   16.7440   -7.4636  -20.6600 C   0  0  2  0  0  0  0  0  0  0  0  0
   15.3144   -7.5934  -20.8723 N   0  0  0  0  0  0  0  0  0  0  0  0
   17.1301   -7.9368  -19.3122 C   0  0  0  0  0  0  0  0  0  0  0  0
   16.6799   -7.3048  -18.3251 O   0  0  0  0  0  0  0  0  0  0  0  0
   17.9741   -9.0588  -19.1255 N   0  0  0  0  0  0  0  0  0  0  0  0
   18.2876   -9.5907  -17.7779 C   0  0  1  0  0  0  0  0  0  0  0  0
   18.3706  -11.0997  -17.8697 C   0  0  0  0  0  0  0  0  0  0  0  0
   18.7436  -11.7997  -16.6124 C   0  0  0  0  0  0  0  0  0  0  0  0
   18.9237  -13.2951  -16.8208 C   0  0  0  0  0  0  0  0  0  0  0  0
   19.3112  -14.0071  -15.5528 C   0  0  0  0  0  0  0  0  0  0  0  0
   19.7069  -15.3775  -15.7796 N   0  0  0  0  0  0  0  0  0  0  0  0
   19.5232   -8.9382  -17.3187 C   0  0  0  0  0  0  0  0  0  0  0  0
   20.5258   -8.8713  -18.1171 O   0  0  0  0  0  0  0  0  0  0  0  0
   19.7425   -8.3513  -16.0566 N   0  0  0  0  0  0  0  0  0  0  0  0
   20.9887   -7.6848  -15.6748 C   0  0  1  0  0  0  0  0  0  0  0  0
   20.7328   -6.4083  -14.9434 C   0  0  0  0  0  0  0  0  0  0  0  0
   21.9432   -5.6374  -14.5478 C   0  0  0  0  0  0  0  0  0  0  0  0
   21.6761   -4.3556  -13.8626 C   0  0  0  0  0  0  0  0  0  0  0  0
   22.5531   -3.5709  -13.4381 O   0  0  0  0  0  0  0  0  0  0  0  0
   21.8296   -8.5485  -14.8378 C   0  0  0  0  0  0  0  0  0  0  0  0
   21.2949   -9.2742  -13.9646 O   0  0  0  0  0  0  0  0  0  0  0  0
   20.3469   -4.0001  -13.6790 O   0  0  0  0  0  0  0  0  0  0  0  0
   23.2064   -8.6013  -14.9681 O   0  0  0  0  0  0  0  0  0  0  0  0
  1  2  1  0
  2  4  1  0
  2  3  2  0
  4  5  1  0
  5  6  1  0
  6  8  1  0
  6  7  1  1
  8  9  2  0
 10  8  1  0
 10 11  1  0
 11 12  1  6
 13 12  1  0
 14 15  1  0
 14 13  1  0
 16 15  1  0
 17 11  1  0
 17 18  2  0
 19 17  1  0
 20 25  1  0
 20 19  1  0
 20 21  1  1
 22 21  1  0
 23 22  1  0
 23 24  2  0
 25 28  1  0
 26 25  2  0
 27 23  1  0
M  END
$$$$
