QKE.pdb
     RDKit          3D

 28 27  0  0  1  0  0  0  0  0999 V2000
   21.6271  -24.8673  -15.5655 N   0  0  0  0  0  0  0  0  0  0  0  0
   21.5445  -24.6185  -14.1802 C   0  0  0  0  0  0  0  0  0  0  0  0
   21.0223  -25.4469  -13.4091 O   0  0  0  0  0  0  0  0  0  0  0  0
   22.0835  -23.3565  -13.6220 C   0  0  0  0  0  0  0  0  0  0  0  0
   22.6038  -22.4695  -14.7332 C   0  0  0  0  0  0  0  0  0  0  0  0
   24.0586  -22.7820  -14.9826 C   0  0  2  0  0  0  0  0  0  0  0  0
   24.7106  -22.7519  -13.6866 N   0  0  0  0  0  0  0  0  0  0  0  0
   24.6898  -21.8284  -15.9216 C   0  0  0  0  0  0  0  0  0  0  0  0
   25.1940  -20.7856  -15.4370 O   0  0  0  0  0  0  0  0  0  0  0  0
   24.7327  -22.0683  -17.3168 N   0  0  0  0  0  0  0  0  0  0  0  0
   25.4504  -21.1653  -18.2477 C   0  0  1  0  0  0  0  0  0  0  0  0
   25.9600  -21.9891  -19.4112 C   0  0  0  0  0  0  0  0  0  0  0  0
   26.9353  -23.0559  -19.0639 C   0  0  0  0  0  0  0  0  0  0  0  0
   28.1588  -22.5035  -18.3497 C   0  0  0  0  0  0  0  0  0  0  0  0
   29.1869  -23.5664  -18.0704 C   0  0  0  0  0  0  0  0  0  0  0  0
   30.3474  -23.0542  -17.3797 N   0  0  0  0  0  0  0  0  0  0  0  0
   24.5240  -20.0864  -18.6231 C   0  0  0  0  0  0  0  0  0  0  0  0
   23.3398  -20.3901  -19.0134 O   0  0  0  0  0  0  0  0  0  0  0  0
   24.7937  -18.7035  -18.5998 N   0  0  0  0  0  0  0  0  0  0  0  0
   23.8110  -17.6770  -18.9513 C   0  0  1  0  0  0  0  0  0  0  0  0
   23.1778  -17.0778  -17.7389 C   0  0  0  0  0  0  0  0  0  0  0  0
   21.9183  -17.7261  -17.2814 C   0  0  0  0  0  0  0  0  0  0  0  0
   21.2953  -17.1171  -16.0877 C   0  0  0  0  0  0  0  0  0  0  0  0
   21.0552  -17.7174  -15.0167 O   0  0  0  0  0  0  0  0  0  0  0  0
   24.4129  -16.6027  -19.7496 C   0  0  0  0  0  0  0  0  0  0  0  0
   25.3989  -15.9727  -19.2960 O   0  0  0  0  0  0  0  0  0  0  0  0
   20.9524  -15.7743  -16.1672 O   0  0  0  0  0  0  0  0  0  0  0  0
   23.9368  -16.2461  -20.9993 O   0  0  0  0  0  0  0  0  0  0  0  0
  1  2  1  0
  2  4  1  0
  2  3  2  0
  4  5  1  0
  5  6  1  0
  6  8  1  0
  6  7  1  1
  8  9  2  0
 10  8  1  0
 10 11  1  0
 11 12  1  6
 13 12  1  0
 14 15  1  0
 14 13  1  0
 16 15  1  0
 17 11  1  0
 17 18  2  0
 19 17  1  0
 20 25  1  0
 20 19  1  0
 20 21  1  1
 22 21  1  0
 23 22  1  0
 23 24  2  0
 25 28  1  0
 26 25  2  0
 27 23  1  0
M  END
$$$$
