QKE.pdb
     RDKit          3D

 28 27  0  0  1  0  0  0  0  0999 V2000
   29.5372  -19.4583  -19.6071 N   0  0  0  0  0  0  0  0  0  0  0  0
   28.1396  -19.6151  -19.5081 C   0  0  0  0  0  0  0  0  0  0  0  0
   27.3695  -18.6581  -19.7196 O   0  0  0  0  0  0  0  0  0  0  0  0
   27.5669  -20.9331  -19.1479 C   0  0  0  0  0  0  0  0  0  0  0  0
   26.4856  -20.7686  -18.1010 C   0  0  0  0  0  0  0  0  0  0  0  0
   27.1190  -20.7119  -16.7328 C   0  0  2  0  0  0  0  0  0  0  0  0
   28.2702  -21.5941  -16.7790 N   0  0  0  0  0  0  0  0  0  0  0  0
   26.1826  -21.1097  -15.6584 C   0  0  0  0  0  0  0  0  0  0  0  0
   25.1850  -21.7988  -15.9846 O   0  0  0  0  0  0  0  0  0  0  0  0
   26.3898  -20.7362  -14.3080 N   0  0  0  0  0  0  0  0  0  0  0  0
   25.4494  -21.1279  -13.2311 C   0  0  1  0  0  0  0  0  0  0  0  0
   26.0524  -20.7231  -11.9027 C   0  0  0  0  0  0  0  0  0  0  0  0
   25.2267  -21.0257  -10.7041 C   0  0  0  0  0  0  0  0  0  0  0  0
   25.9591  -20.7109   -9.4092 C   0  0  0  0  0  0  0  0  0  0  0  0
   25.1515  -21.0735   -8.1922 C   0  0  0  0  0  0  0  0  0  0  0  0
   25.8710  -20.8570   -6.9587 N   0  0  0  0  0  0  0  0  0  0  0  0
   24.1503  -20.5051  -13.5270 C   0  0  0  0  0  0  0  0  0  0  0  0
   24.1176  -19.2732  -13.8853 O   0  0  0  0  0  0  0  0  0  0  0  0
   22.8880  -21.1281  -13.4645 N   0  0  0  0  0  0  0  0  0  0  0  0
   21.6264  -20.4398  -13.7431 C   0  0  1  0  0  0  0  0  0  0  0  0
   21.1125  -20.7562  -15.1091 C   0  0  0  0  0  0  0  0  0  0  0  0
   21.3059  -19.6937  -16.1335 C   0  0  0  0  0  0  0  0  0  0  0  0
   20.7494  -19.9983  -17.4682 C   0  0  0  0  0  0  0  0  0  0  0  0
   19.6638  -20.5836  -17.6780 O   0  0  0  0  0  0  0  0  0  0  0  0
   20.5938  -20.7835  -12.7587 C   0  0  0  0  0  0  0  0  0  0  0  0
   20.7558  -21.7810  -12.0145 O   0  0  0  0  0  0  0  0  0  0  0  0
   21.4937  -19.6014  -18.5707 O   0  0  0  0  0  0  0  0  0  0  0  0
   19.4312  -20.0475  -12.6098 O   0  0  0  0  0  0  0  0  0  0  0  0
  1  2  1  0
  2  4  1  0
  2  3  2  0
  4  5  1  0
  5  6  1  0
  6  8  1  0
  6  7  1  6
  8  9  2  0
 10  8  1  0
 10 11  1  0
 11 12  1  1
 13 12  1  0
 14 15  1  0
 14 13  1  0
 16 15  1  0
 17 11  1  0
 17 18  2  0
 19 17  1  0
 20 25  1  0
 20 19  1  0
 20 21  1  6
 22 21  1  0
 23 22  1  0
 23 24  2  0
 25 28  1  0
 26 25  2  0
 27 23  1  0
M  END
$$$$
