QKE.pdb
     RDKit          3D

 28 27  0  0  1  0  0  0  0  0999 V2000
   21.4038   -7.7514  -14.0503 N   0  0  0  0  0  0  0  0  0  0  0  0
   21.7692   -9.0726  -13.7209 C   0  0  0  0  0  0  0  0  0  0  0  0
   22.9485   -9.4600  -13.8346 O   0  0  0  0  0  0  0  0  0  0  0  0
   20.7439  -10.0233  -13.2313 C   0  0  0  0  0  0  0  0  0  0  0  0
   19.4330   -9.3053  -12.9900 C   0  0  0  0  0  0  0  0  0  0  0  0
   18.4106  -10.2897  -12.4782 C   0  0  2  0  0  0  0  0  0  0  0  0
   18.1465  -11.2086  -13.5698 N   0  0  0  0  0  0  0  0  0  0  0  0
   17.1676   -9.6294  -12.0217 C   0  0  0  0  0  0  0  0  0  0  0  0
   16.4618   -9.0591  -12.8895 O   0  0  0  0  0  0  0  0  0  0  0  0
   16.7742   -9.6321  -10.6611 N   0  0  0  0  0  0  0  0  0  0  0  0
   15.5472   -8.9422  -10.1964 C   0  0  1  0  0  0  0  0  0  0  0  0
   14.9277   -9.7680   -9.0889 C   0  0  0  0  0  0  0  0  0  0  0  0
   13.7486   -9.1604   -8.4179 C   0  0  0  0  0  0  0  0  0  0  0  0
   12.4739   -9.9488   -8.6743 C   0  0  0  0  0  0  0  0  0  0  0  0
   11.2651   -9.2992   -8.0564 C   0  0  0  0  0  0  0  0  0  0  0  0
   10.0706  -10.1003   -8.1890 N   0  0  0  0  0  0  0  0  0  0  0  0
   15.9271   -7.5776   -9.8009 C   0  0  0  0  0  0  0  0  0  0  0  0
   16.9222   -7.4136   -9.0071 O   0  0  0  0  0  0  0  0  0  0  0  0
   15.3047   -6.3817  -10.2106 N   0  0  0  0  0  0  0  0  0  0  0  0
   15.6757   -5.0578   -9.7080 C   0  0  1  0  0  0  0  0  0  0  0  0
   15.7864   -4.0573  -10.8110 C   0  0  0  0  0  0  0  0  0  0  0  0
   16.0556   -2.6561  -10.3868 C   0  0  0  0  0  0  0  0  0  0  0  0
   16.2208   -1.6861  -11.4893 C   0  0  0  0  0  0  0  0  0  0  0  0
   15.3388   -0.8932  -11.8876 O   0  0  0  0  0  0  0  0  0  0  0  0
   14.7106   -4.5650   -8.7183 C   0  0  0  0  0  0  0  0  0  0  0  0
   13.5546   -5.0524   -8.6853 O   0  0  0  0  0  0  0  0  0  0  0  0
   17.4526   -1.6570  -12.1284 O   0  0  0  0  0  0  0  0  0  0  0  0
   15.0203   -3.5722   -7.8051 O   0  0  0  0  0  0  0  0  0  0  0  0
  1  2  1  0
  2  4  1  0
  2  3  2  0
  4  5  1  0
  5  6  1  0
  6  8  1  0
  6  7  1  6
  8  9  2  0
 10  8  1  0
 10 11  1  0
 11 12  1  1
 13 12  1  0
 14 15  1  0
 14 13  1  0
 16 15  1  0
 17 11  1  0
 17 18  2  0
 19 17  1  0
 20 25  1  0
 20 19  1  0
 20 21  1  6
 22 21  1  0
 23 22  1  0
 23 24  2  0
 25 28  1  0
 26 25  2  0
 27 23  1  0
M  END
$$$$
