QKE.pdb
     RDKit          3D

 28 27  0  0  1  0  0  0  0  0999 V2000
   16.3669  -19.3741  -16.7925 N   0  0  0  0  0  0  0  0  0  0  0  0
   16.0754  -20.4335  -15.9091 C   0  0  0  0  0  0  0  0  0  0  0  0
   14.9512  -20.5385  -15.3813 O   0  0  0  0  0  0  0  0  0  0  0  0
   17.1139  -21.4427  -15.5965 C   0  0  0  0  0  0  0  0  0  0  0  0
   18.3985  -21.1207  -16.3301 C   0  0  0  0  0  0  0  0  0  0  0  0
   19.0011  -22.3958  -16.8663 C   0  0  2  0  0  0  0  0  0  0  0  0
   18.1626  -23.4776  -16.3845 N   0  0  0  0  0  0  0  0  0  0  0  0
   20.4071  -22.5793  -16.4432 C   0  0  0  0  0  0  0  0  0  0  0  0
   20.6146  -23.2189  -15.3828 O   0  0  0  0  0  0  0  0  0  0  0  0
   21.4894  -22.0600  -17.1948 N   0  0  0  0  0  0  0  0  0  0  0  0
   22.8970  -22.2179  -16.7579 C   0  0  1  0  0  0  0  0  0  0  0  0
   23.7977  -21.9140  -17.9363 C   0  0  0  0  0  0  0  0  0  0  0  0
   25.2537  -21.8772  -17.6387 C   0  0  0  0  0  0  0  0  0  0  0  0
   25.8724  -23.2662  -17.6312 C   0  0  0  0  0  0  0  0  0  0  0  0
   27.3658  -23.2265  -17.4492 C   0  0  0  0  0  0  0  0  0  0  0  0
   27.9716  -24.5362  -17.5108 N   0  0  0  0  0  0  0  0  0  0  0  0
   23.1013  -21.3445  -15.5923 C   0  0  0  0  0  0  0  0  0  0  0  0
   22.6772  -20.1341  -15.6391 O   0  0  0  0  0  0  0  0  0  0  0  0
   23.7294  -21.6959  -14.3809 N   0  0  0  0  0  0  0  0  0  0  0  0
   24.1397  -20.7245  -13.3655 C   0  0  1  0  0  0  0  0  0  0  0  0
   24.7523  -21.3901  -12.1774 C   0  0  0  0  0  0  0  0  0  0  0  0
   25.1754  -20.4825  -11.0760 C   0  0  0  0  0  0  0  0  0  0  0  0
   25.7888  -21.1521   -9.9101 C   0  0  0  0  0  0  0  0  0  0  0  0
   26.0608  -22.3713   -9.8421 O   0  0  0  0  0  0  0  0  0  0  0  0
   25.0942  -19.7489  -13.9048 C   0  0  0  0  0  0  0  0  0  0  0  0
   25.9594  -20.1226  -14.7334 O   0  0  0  0  0  0  0  0  0  0  0  0
   26.0840  -20.3614   -8.8081 O   0  0  0  0  0  0  0  0  0  0  0  0
   25.0847  -18.4147  -13.5368 O   0  0  0  0  0  0  0  0  0  0  0  0
  1  2  1  0
  2  4  1  0
  2  3  2  0
  4  5  1  0
  5  6  1  0
  6  8  1  0
  6  7  1  1
  8  9  2  0
 10  8  1  0
 10 11  1  0
 11 12  1  6
 13 12  1  0
 14 15  1  0
 14 13  1  0
 16 15  1  0
 17 11  1  0
 17 18  2  0
 19 17  1  0
 20 25  1  0
 20 19  1  0
 20 21  1  1
 22 21  1  0
 23 22  1  0
 23 24  2  0
 25 28  1  0
 26 25  2  0
 27 23  1  0
M  END
$$$$
