QKE.pdb
     RDKit          3D

 28 27  0  0  1  0  0  0  0  0999 V2000
   24.7618  -40.7094  -15.4688 N   0  0  0  0  0  0  0  0  0  0  0  0
   23.9260  -39.6562  -15.8930 C   0  0  0  0  0  0  0  0  0  0  0  0
   23.0093  -39.8547  -16.7139 O   0  0  0  0  0  0  0  0  0  0  0  0
   24.1316  -38.2888  -15.3612 C   0  0  0  0  0  0  0  0  0  0  0  0
   25.3747  -38.2413  -14.4981 C   0  0  0  0  0  0  0  0  0  0  0  0
   25.0025  -37.7800  -13.1106 C   0  0  2  0  0  0  0  0  0  0  0  0
   23.5581  -37.6413  -13.1003 N   0  0  0  0  0  0  0  0  0  0  0  0
   25.6649  -36.5100  -12.7394 C   0  0  0  0  0  0  0  0  0  0  0  0
   26.9195  -36.4781  -12.7766 O   0  0  0  0  0  0  0  0  0  0  0  0
   24.9261  -35.3644  -12.3549 N   0  0  0  0  0  0  0  0  0  0  0  0
   25.5797  -34.0612  -12.0869 C   0  0  1  0  0  0  0  0  0  0  0  0
   25.0621  -33.0540  -13.0918 C   0  0  0  0  0  0  0  0  0  0  0  0
   25.7442  -33.0564  -14.4127 C   0  0  0  0  0  0  0  0  0  0  0  0
   27.1990  -32.6267  -14.3072 C   0  0  0  0  0  0  0  0  0  0  0  0
   27.8639  -32.5220  -15.6532 C   0  0  0  0  0  0  0  0  0  0  0  0
   29.2541  -32.1414  -15.5621 N   0  0  0  0  0  0  0  0  0  0  0  0
   25.3171  -33.7125  -10.6824 C   0  0  0  0  0  0  0  0  0  0  0  0
   24.1029  -33.6643  -10.2694 O   0  0  0  0  0  0  0  0  0  0  0  0
   26.2804  -33.4175   -9.6973 N   0  0  0  0  0  0  0  0  0  0  0  0
   25.9501  -33.0821   -8.3112 C   0  0  1  0  0  0  0  0  0  0  0  0
   27.1639  -33.0630   -7.4414 C   0  0  0  0  0  0  0  0  0  0  0  0
   26.9182  -32.8040   -5.9963 C   0  0  0  0  0  0  0  0  0  0  0  0
   27.7213  -33.6238   -5.0652 C   0  0  0  0  0  0  0  0  0  0  0  0
   28.8632  -34.0747   -5.3059 O   0  0  0  0  0  0  0  0  0  0  0  0
   25.2794  -31.7804   -8.2147 C   0  0  0  0  0  0  0  0  0  0  0  0
   25.4455  -30.9299   -9.1224 O   0  0  0  0  0  0  0  0  0  0  0  0
   27.1596  -33.9123   -3.8290 O   0  0  0  0  0  0  0  0  0  0  0  0
   24.4589  -31.4413   -7.1529 O   0  0  0  0  0  0  0  0  0  0  0  0
  1  2  1  0
  2  4  1  0
  2  3  2  0
  4  5  1  0
  5  6  1  0
  6  8  1  0
  6  7  1  6
  8  9  2  0
 10  8  1  0
 10 11  1  0
 11 12  1  6
 13 12  1  0
 14 15  1  0
 14 13  1  0
 16 15  1  0
 17 11  1  0
 17 18  2  0
 19 17  1  0
 20 25  1  0
 20 19  1  0
 20 21  1  1
 22 21  1  0
 23 22  1  0
 23 24  2  0
 25 28  1  0
 26 25  2  0
 27 23  1  0
M  END
$$$$
