QKE.pdb
     RDKit          3D

 28 27  0  0  1  0  0  0  0  0999 V2000
   27.9832  -18.3237   -6.2558 N   0  0  0  0  0  0  0  0  0  0  0  0
   28.1729  -19.7094   -6.0775 C   0  0  0  0  0  0  0  0  0  0  0  0
   28.6917  -20.1578   -5.0367 O   0  0  0  0  0  0  0  0  0  0  0  0
   27.7527  -20.6558   -7.1371 C   0  0  0  0  0  0  0  0  0  0  0  0
   27.2031  -19.9011   -8.3290 C   0  0  0  0  0  0  0  0  0  0  0  0
   26.8439  -20.8808   -9.4187 C   0  0  2  0  0  0  0  0  0  0  0  0
   28.0922  -21.4719   -9.8639 N   0  0  0  0  0  0  0  0  0  0  0  0
   26.1246  -20.2400  -10.5418 C   0  0  0  0  0  0  0  0  0  0  0  0
   25.3972  -19.2517  -10.2758 O   0  0  0  0  0  0  0  0  0  0  0  0
   26.2418  -20.7109  -11.8724 N   0  0  0  0  0  0  0  0  0  0  0  0
   25.6688  -19.9703  -13.0215 C   0  0  1  0  0  0  0  0  0  0  0  0
   26.7562  -19.7866  -14.0588 C   0  0  0  0  0  0  0  0  0  0  0  0
   26.3503  -19.0645  -15.2933 C   0  0  0  0  0  0  0  0  0  0  0  0
   27.4971  -18.9319  -16.2830 C   0  0  0  0  0  0  0  0  0  0  0  0
   27.1039  -18.1617  -17.5147 C   0  0  0  0  0  0  0  0  0  0  0  0
   28.2183  -17.9157  -18.3999 N   0  0  0  0  0  0  0  0  0  0  0  0
   24.4954  -20.7209  -13.4936 C   0  0  0  0  0  0  0  0  0  0  0  0
   24.5492  -22.0027  -13.5295 O   0  0  0  0  0  0  0  0  0  0  0  0
   23.2692  -20.1763  -13.9243 N   0  0  0  0  0  0  0  0  0  0  0  0
   22.0998  -20.9833  -14.2771 C   0  0  1  0  0  0  0  0  0  0  0  0
   20.8685  -20.5101  -13.5771 C   0  0  0  0  0  0  0  0  0  0  0  0
   19.6261  -21.2768  -13.8677 C   0  0  0  0  0  0  0  0  0  0  0  0
   18.3993  -20.7494  -13.2346 C   0  0  0  0  0  0  0  0  0  0  0  0
   18.3037  -19.6389  -12.6665 O   0  0  0  0  0  0  0  0  0  0  0  0
   21.8535  -20.9752  -15.7237 C   0  0  0  0  0  0  0  0  0  0  0  0
   22.1853  -19.9730  -16.4023 O   0  0  0  0  0  0  0  0  0  0  0  0
   17.2684  -21.5532  -13.2772 O   0  0  0  0  0  0  0  0  0  0  0  0
   21.2632  -22.0378  -16.3855 O   0  0  0  0  0  0  0  0  0  0  0  0
  1  2  1  0
  2  4  1  0
  2  3  2  0
  4  5  1  0
  5  6  1  0
  6  8  1  0
  6  7  1  6
  8  9  2  0
 10  8  1  0
 10 11  1  0
 11 12  1  6
 13 12  1  0
 14 15  1  0
 14 13  1  0
 16 15  1  0
 17 11  1  0
 17 18  2  0
 19 17  1  0
 20 25  1  0
 20 19  1  0
 20 21  1  1
 22 21  1  0
 23 22  1  0
 23 24  2  0
 25 28  1  0
 26 25  2  0
 27 23  1  0
M  END
$$$$
