QKE.pdb
     RDKit          3D

 28 27  0  0  1  0  0  0  0  0999 V2000
   17.7328  -15.1107  -14.6668 N   0  0  0  0  0  0  0  0  0  0  0  0
   16.9308  -14.5752  -15.6952 C   0  0  0  0  0  0  0  0  0  0  0  0
   15.9024  -15.1647  -16.0805 O   0  0  0  0  0  0  0  0  0  0  0  0
   17.3070  -13.2928  -16.3346 C   0  0  0  0  0  0  0  0  0  0  0  0
   18.5126  -12.6933  -15.6423 C   0  0  0  0  0  0  0  0  0  0  0  0
   19.3237  -11.9070  -16.6425 C   0  0  2  0  0  0  0  0  0  0  0  0
   19.5585  -12.7949  -17.7659 N   0  0  0  0  0  0  0  0  0  0  0  0
   20.5980  -11.4132  -16.0751 C   0  0  0  0  0  0  0  0  0  0  0  0
   20.5524  -10.8425  -14.9577 O   0  0  0  0  0  0  0  0  0  0  0  0
   21.8311  -11.5710  -16.7538 N   0  0  0  0  0  0  0  0  0  0  0  0
   23.0863  -10.9603  -16.2552 C   0  0  1  0  0  0  0  0  0  0  0  0
   24.2526  -11.6615  -16.9187 C   0  0  0  0  0  0  0  0  0  0  0  0
   25.6018  -11.1869  -16.5133 C   0  0  0  0  0  0  0  0  0  0  0  0
   26.7130  -12.0076  -17.1490 C   0  0  0  0  0  0  0  0  0  0  0  0
   28.0812  -11.5302  -16.7428 C   0  0  0  0  0  0  0  0  0  0  0  0
   29.1442  -12.2678  -17.3846 N   0  0  0  0  0  0  0  0  0  0  0  0
   23.0130   -9.5152  -16.5185 C   0  0  0  0  0  0  0  0  0  0  0  0
   22.7758   -9.1112  -17.7134 O   0  0  0  0  0  0  0  0  0  0  0  0
   23.1749   -8.4815  -15.5748 N   0  0  0  0  0  0  0  0  0  0  0  0
   23.0546   -7.0587  -15.8978 C   0  0  1  0  0  0  0  0  0  0  0  0
   22.6592   -6.2513  -14.7054 C   0  0  0  0  0  0  0  0  0  0  0  0
   22.3691   -4.8148  -14.9662 C   0  0  0  0  0  0  0  0  0  0  0  0
   21.9126   -4.0423  -13.7919 C   0  0  0  0  0  0  0  0  0  0  0  0
   21.4456   -2.8824  -13.8317 O   0  0  0  0  0  0  0  0  0  0  0  0
   24.3072   -6.5191  -16.4394 C   0  0  0  0  0  0  0  0  0  0  0  0
   24.2680   -5.5810  -17.2721 O   0  0  0  0  0  0  0  0  0  0  0  0
   22.0120   -4.6571  -12.5514 O   0  0  0  0  0  0  0  0  0  0  0  0
   25.5496   -7.0037  -16.0690 O   0  0  0  0  0  0  0  0  0  0  0  0
  1  2  1  0
  2  4  1  0
  2  3  2  0
  4  5  1  0
  5  6  1  0
  6  8  1  0
  6  7  1  6
  8  9  2  0
 10  8  1  0
 10 11  1  0
 11 12  1  6
 13 12  1  0
 14 15  1  0
 14 13  1  0
 16 15  1  0
 17 11  1  0
 17 18  2  0
 19 17  1  0
 20 25  1  0
 20 19  1  0
 20 21  1  1
 22 21  1  0
 23 22  1  0
 23 24  2  0
 25 28  1  0
 26 25  2  0
 27 23  1  0
M  END
$$$$
