QKE.pdb
     RDKit          3D

 28 27  0  0  1  0  0  0  0  0999 V2000
   14.7812  -14.4671  -14.7544 N   0  0  0  0  0  0  0  0  0  0  0  0
   14.3344  -13.5065  -15.6847 C   0  0  0  0  0  0  0  0  0  0  0  0
   13.3062  -13.6987  -16.3624 O   0  0  0  0  0  0  0  0  0  0  0  0
   15.0911  -12.2460  -15.8673 C   0  0  0  0  0  0  0  0  0  0  0  0
   16.2577  -12.1882  -14.9039 C   0  0  0  0  0  0  0  0  0  0  0  0
   17.5465  -12.3643  -15.6683 C   0  0  2  0  0  0  0  0  0  0  0  0
   18.0145  -13.7064  -15.3756 N   0  0  0  0  0  0  0  0  0  0  0  0
   18.5629  -11.3520  -15.3056 C   0  0  0  0  0  0  0  0  0  0  0  0
   18.8591  -11.2374  -14.0909 O   0  0  0  0  0  0  0  0  0  0  0  0
   19.1880  -10.5358  -16.2798 N   0  0  0  0  0  0  0  0  0  0  0  0
   20.2364   -9.5501  -15.9237 C   0  0  1  0  0  0  0  0  0  0  0  0
   20.9949   -9.1869  -17.1827 C   0  0  0  0  0  0  0  0  0  0  0  0
   22.0465   -8.1487  -17.0215 C   0  0  0  0  0  0  0  0  0  0  0  0
   22.8555   -7.9499  -18.2936 C   0  0  0  0  0  0  0  0  0  0  0  0
   23.9729   -6.9583  -18.1122 C   0  0  0  0  0  0  0  0  0  0  0  0
   24.8422   -6.8786  -19.2628 N   0  0  0  0  0  0  0  0  0  0  0  0
   19.5739   -8.4162  -15.2616 C   0  0  0  0  0  0  0  0  0  0  0  0
   18.4983   -7.9382  -15.7731 O   0  0  0  0  0  0  0  0  0  0  0  0
   19.9963   -7.7701  -14.0827 N   0  0  0  0  0  0  0  0  0  0  0  0
   19.3521   -6.5755  -13.5341 C   0  0  1  0  0  0  0  0  0  0  0  0
   18.8426   -6.8070  -12.1497 C   0  0  0  0  0  0  0  0  0  0  0  0
   18.1843   -5.6402  -11.5008 C   0  0  0  0  0  0  0  0  0  0  0  0
   17.6487   -5.8932  -10.1469 C   0  0  0  0  0  0  0  0  0  0  0  0
   17.0597   -5.0479   -9.4371 O   0  0  0  0  0  0  0  0  0  0  0  0
   20.2669   -5.4281  -13.5151 C   0  0  0  0  0  0  0  0  0  0  0  0
   19.8012   -4.2672  -13.4134 O   0  0  0  0  0  0  0  0  0  0  0  0
   17.8150   -7.1699   -9.6280 O   0  0  0  0  0  0  0  0  0  0  0  0
   21.6408   -5.5683  -13.6052 O   0  0  0  0  0  0  0  0  0  0  0  0
  1  2  1  0
  2  4  1  0
  2  3  2  0
  4  5  1  0
  5  6  1  0
  6  8  1  0
  6  7  1  1
  8  9  2  0
 10  8  1  0
 10 11  1  0
 11 12  1  6
 13 12  1  0
 14 15  1  0
 14 13  1  0
 16 15  1  0
 17 11  1  0
 17 18  2  0
 19 17  1  0
 20 25  1  0
 20 19  1  0
 20 21  1  1
 22 21  1  0
 23 22  1  0
 23 24  2  0
 25 28  1  0
 26 25  2  0
 27 23  1  0
M  END
$$$$
