QKE.pdb
     RDKit          3D

 28 27  0  0  1  0  0  0  0  0999 V2000
   14.1580  -18.0979  -15.9558 N   0  0  0  0  0  0  0  0  0  0  0  0
   14.5061  -19.2741  -16.6510 C   0  0  0  0  0  0  0  0  0  0  0  0
   13.6869  -20.2029  -16.7918 O   0  0  0  0  0  0  0  0  0  0  0  0
   15.8633  -19.4186  -17.2270 C   0  0  0  0  0  0  0  0  0  0  0  0
   16.6643  -18.1520  -17.0109 C   0  0  0  0  0  0  0  0  0  0  0  0
   18.0716  -18.3586  -17.5141 C   0  0  2  0  0  0  0  0  0  0  0  0
   18.6807  -19.3374  -16.6328 N   0  0  0  0  0  0  0  0  0  0  0  0
   18.8535  -17.1027  -17.5408 C   0  0  0  0  0  0  0  0  0  0  0  0
   18.9154  -16.4357  -16.4788 O   0  0  0  0  0  0  0  0  0  0  0  0
   19.5137  -16.6561  -18.7115 N   0  0  0  0  0  0  0  0  0  0  0  0
   20.3222  -15.4138  -18.7325 C   0  0  1  0  0  0  0  0  0  0  0  0
   21.3958  -15.5629  -19.7896 C   0  0  0  0  0  0  0  0  0  0  0  0
   22.7140  -16.0469  -19.3019 C   0  0  0  0  0  0  0  0  0  0  0  0
   23.7262  -16.1854  -20.4282 C   0  0  0  0  0  0  0  0  0  0  0  0
   25.0142  -16.8120  -19.9663 C   0  0  0  0  0  0  0  0  0  0  0  0
   25.9972  -16.9111  -21.0199 N   0  0  0  0  0  0  0  0  0  0  0  0
   19.4017  -14.2879  -18.9518 C   0  0  0  0  0  0  0  0  0  0  0  0
   18.4377  -14.4255  -19.7878 O   0  0  0  0  0  0  0  0  0  0  0  0
   19.4539  -13.0275  -18.3240 N   0  0  0  0  0  0  0  0  0  0  0  0
   18.4621  -11.9717  -18.5354 C   0  0  1  0  0  0  0  0  0  0  0  0
   17.9975  -11.3814  -17.2448 C   0  0  0  0  0  0  0  0  0  0  0  0
   17.0816  -10.2139  -17.3618 C   0  0  0  0  0  0  0  0  0  0  0  0
   16.7178   -9.5695  -16.0826 C   0  0  0  0  0  0  0  0  0  0  0  0
   17.1225   -9.9302  -14.9551 O   0  0  0  0  0  0  0  0  0  0  0  0
   18.9891  -10.8965  -19.3839 C   0  0  0  0  0  0  0  0  0  0  0  0
   20.2229  -10.6674  -19.3974 O   0  0  0  0  0  0  0  0  0  0  0  0
   15.8601   -8.4797  -16.1434 O   0  0  0  0  0  0  0  0  0  0  0  0
   18.1766  -10.1111  -20.1828 O   0  0  0  0  0  0  0  0  0  0  0  0
  1  2  1  0
  2  4  1  0
  2  3  2  0
  4  5  1  0
  5  6  1  0
  6  8  1  0
  6  7  1  1
  8  9  2  0
 10  8  1  0
 10 11  1  0
 11 12  1  6
 13 12  1  0
 14 15  1  0
 14 13  1  0
 16 15  1  0
 17 11  1  0
 17 18  2  0
 19 17  1  0
 20 25  1  0
 20 19  1  0
 20 21  1  1
 22 21  1  0
 23 22  1  0
 23 24  2  0
 25 28  1  0
 26 25  2  0
 27 23  1  0
M  END
$$$$
