QKE.pdb
     RDKit          3D

 28 27  0  0  1  0  0  0  0  0999 V2000
   23.6333  -23.3438  -15.4798 N   0  0  0  0  0  0  0  0  0  0  0  0
   24.8562  -23.5196  -14.8005 C   0  0  0  0  0  0  0  0  0  0  0  0
   25.6272  -24.4529  -15.0973 O   0  0  0  0  0  0  0  0  0  0  0  0
   25.2405  -22.5865  -13.7158 C   0  0  0  0  0  0  0  0  0  0  0  0
   24.1435  -21.5692  -13.4835 C   0  0  0  0  0  0  0  0  0  0  0  0
   24.0664  -20.6380  -14.6681 C   0  0  2  0  0  0  0  0  0  0  0  0
   25.3536  -19.9730  -14.7491 N   0  0  0  0  0  0  0  0  0  0  0  0
   22.9643  -19.6580  -14.5472 C   0  0  0  0  0  0  0  0  0  0  0  0
   22.5471  -19.3943  -13.3927 O   0  0  0  0  0  0  0  0  0  0  0  0
   22.3912  -19.0316  -15.6809 N   0  0  0  0  0  0  0  0  0  0  0  0
   21.2733  -18.0653  -15.5637 C   0  0  1  0  0  0  0  0  0  0  0  0
   21.3176  -17.1393  -16.7607 C   0  0  0  0  0  0  0  0  0  0  0  0
   22.4514  -16.1781  -16.7870 C   0  0  0  0  0  0  0  0  0  0  0  0
   22.5350  -15.4263  -18.1061 C   0  0  0  0  0  0  0  0  0  0  0  0
   23.7360  -14.5220  -18.1743 C   0  0  0  0  0  0  0  0  0  0  0  0
   23.9069  -13.9165  -19.4744 N   0  0  0  0  0  0  0  0  0  0  0  0
   20.0288  -18.8386  -15.4360 C   0  0  0  0  0  0  0  0  0  0  0  0
   19.8871  -19.9095  -16.1290 O   0  0  0  0  0  0  0  0  0  0  0  0
   18.9320  -18.5315  -14.6063 N   0  0  0  0  0  0  0  0  0  0  0  0
   17.6697  -19.2726  -14.6190 C   0  0  1  0  0  0  0  0  0  0  0  0
   17.5790  -20.2323  -13.4785 C   0  0  0  0  0  0  0  0  0  0  0  0
   17.5263  -21.6729  -13.8498 C   0  0  0  0  0  0  0  0  0  0  0  0
   17.2541  -22.6007  -12.7323 C   0  0  0  0  0  0  0  0  0  0  0  0
   17.0162  -22.2561  -11.5534 O   0  0  0  0  0  0  0  0  0  0  0  0
   16.5126  -18.3712  -14.5709 C   0  0  0  0  0  0  0  0  0  0  0  0
   16.6940  -17.1395  -14.4129 O   0  0  0  0  0  0  0  0  0  0  0  0
   17.2643  -23.9587  -13.0193 O   0  0  0  0  0  0  0  0  0  0  0  0
   15.2101  -18.8227  -14.6938 O   0  0  0  0  0  0  0  0  0  0  0  0
  1  2  1  0
  2  4  1  0
  2  3  2  0
  4  5  1  0
  5  6  1  0
  6  8  1  0
  6  7  1  1
  8  9  2  0
 10  8  1  0
 10 11  1  0
 11 12  1  6
 13 12  1  0
 14 15  1  0
 14 13  1  0
 16 15  1  0
 17 11  1  0
 17 18  2  0
 19 17  1  0
 20 25  1  0
 20 19  1  0
 20 21  1  1
 22 21  1  0
 23 22  1  0
 23 24  2  0
 25 28  1  0
 26 25  2  0
 27 23  1  0
M  END
$$$$
