QKE.pdb
     RDKit          3D

 28 27  0  0  1  0  0  0  0  0999 V2000
   25.6116  -16.6546  -14.1993 N   0  0  0  0  0  0  0  0  0  0  0  0
   26.7437  -16.2005  -14.9064 C   0  0  0  0  0  0  0  0  0  0  0  0
   27.8903  -16.5731  -14.5900 O   0  0  0  0  0  0  0  0  0  0  0  0
   26.5794  -15.2662  -16.0443 C   0  0  0  0  0  0  0  0  0  0  0  0
   25.1303  -14.8483  -16.1770 C   0  0  0  0  0  0  0  0  0  0  0  0
   24.2990  -16.0447  -16.5697 C   0  0  2  0  0  0  0  0  0  0  0  0
   24.9181  -16.5994  -17.7590 N   0  0  0  0  0  0  0  0  0  0  0  0
   22.8830  -15.6937  -16.8175 C   0  0  0  0  0  0  0  0  0  0  0  0
   22.6324  -14.9568  -17.8027 O   0  0  0  0  0  0  0  0  0  0  0  0
   21.8381  -16.1634  -15.9847 N   0  0  0  0  0  0  0  0  0  0  0  0
   20.4201  -15.8041  -16.2248 C   0  0  1  0  0  0  0  0  0  0  0  0
   19.5464  -16.8518  -15.5681 C   0  0  0  0  0  0  0  0  0  0  0  0
   18.0809  -16.6452  -15.7085 C   0  0  0  0  0  0  0  0  0  0  0  0
   17.2793  -17.6989  -14.9605 C   0  0  0  0  0  0  0  0  0  0  0  0
   15.8023  -17.5910  -15.2279 C   0  0  0  0  0  0  0  0  0  0  0  0
   15.0089  -18.3715  -14.3074 N   0  0  0  0  0  0  0  0  0  0  0  0
   20.2166  -14.4371  -15.7219 C   0  0  0  0  0  0  0  0  0  0  0  0
   20.7359  -14.1037  -14.5966 O   0  0  0  0  0  0  0  0  0  0  0  0
   19.4930  -13.4087  -16.3577 N   0  0  0  0  0  0  0  0  0  0  0  0
   19.3594  -12.0544  -15.8182 C   0  0  1  0  0  0  0  0  0  0  0  0
   19.5245  -11.0165  -16.8791 C   0  0  0  0  0  0  0  0  0  0  0  0
   19.2721   -9.6126  -16.4534 C   0  0  0  0  0  0  0  0  0  0  0  0
   19.3897   -8.6003  -17.5235 C   0  0  0  0  0  0  0  0  0  0  0  0
   19.7212   -8.8392  -18.7060 O   0  0  0  0  0  0  0  0  0  0  0  0
   18.0606  -11.8585  -15.1638 C   0  0  0  0  0  0  0  0  0  0  0  0
   17.0665  -12.5192  -15.5513 O   0  0  0  0  0  0  0  0  0  0  0  0
   19.1091   -7.2839  -17.1841 O   0  0  0  0  0  0  0  0  0  0  0  0
   17.8775  -10.9652  -14.1226 O   0  0  0  0  0  0  0  0  0  0  0  0
  1  2  1  0
  2  4  1  0
  2  3  2  0
  4  5  1  0
  5  6  1  0
  6  8  1  0
  6  7  1  6
  8  9  2  0
 10  8  1  0
 10 11  1  0
 11 12  1  1
 13 12  1  0
 14 15  1  0
 14 13  1  0
 16 15  1  0
 17 11  1  0
 17 18  2  0
 19 17  1  0
 20 25  1  0
 20 19  1  0
 20 21  1  6
 22 21  1  0
 23 22  1  0
 23 24  2  0
 25 28  1  0
 26 25  2  0
 27 23  1  0
M  END
$$$$
