CID.pdb
     RDKit          3D

 23 22  0  0  1  0  0  0  0  0999 V2000
   24.2372  -13.4097  -18.2520 N   0  0  0  0  0  0  0  0  0  0  0  0
   24.2885  -12.4589  -17.1531 C   0  0  1  0  0  0  0  0  0  0  0  0
   25.5806  -11.6876  -17.1371 C   0  0  0  0  0  0  0  0  0  0  0  0
   26.8710  -12.8197  -16.5017 S   0  0  0  0  0  0  0  0  0  0  0  0
   23.0980  -11.5905  -17.2423 C   0  0  0  0  0  0  0  0  0  0  0  0
   22.6884  -11.1326  -18.3458 O   0  0  0  0  0  0  0  0  0  0  0  0
   17.5949  -11.2180  -16.2148 C   0  0  0  0  0  0  0  0  0  0  0  0
   18.7142  -10.3363  -15.6278 C   0  0  0  0  0  0  0  0  0  0  0  0
   19.9783  -11.1151  -15.7994 C   0  0  2  0  0  0  0  0  0  0  0  0
   20.2100  -11.8582  -14.4830 C   0  0  0  0  0  0  0  0  0  0  0  0
   21.1809  -10.3071  -16.2137 C   0  0  2  0  0  0  0  0  0  0  0  0
   22.3376  -11.2150  -16.0917 N   0  0  0  0  0  0  0  0  0  0  0  0
   21.4309   -9.1043  -15.4118 C   0  0  0  0  0  0  0  0  0  0  0  0
   22.3290   -9.1147  -14.5332 O   0  0  0  0  0  0  0  0  0  0  0  0
   20.7130   -7.8932  -15.5651 N   0  0  0  0  0  0  0  0  0  0  0  0
   21.0436   -6.6962  -14.8017 C   0  0  1  0  0  0  0  0  0  0  0  0
   22.1852   -5.9904  -15.5095 C   0  0  0  0  0  0  0  0  0  0  0  0
   22.4967   -4.7429  -14.8094 C   0  0  0  0  0  0  0  0  0  0  0  0
   22.2562   -4.5131  -13.5822 O   0  0  0  0  0  0  0  0  0  0  0  0
   19.8462   -5.8332  -14.7304 C   0  0  0  0  0  0  0  0  0  0  0  0
   18.8052   -5.8860  -15.6457 O   0  0  0  0  0  0  0  0  0  0  0  0
   23.1113   -3.7141  -15.5510 O   0  0  0  0  0  0  0  0  0  0  0  0
   19.7180   -4.9885  -13.8089 O   0  0  0  0  0  0  0  0  0  0  0  0
  2  1  1  6
  3  2  1  0
  4  3  1  0
  5  6  2  0
  5  2  1  0
  8  7  1  0
  8  9  1  0
  9 11  1  0
  9 10  1  1
 11 12  1  1
 11 13  1  0
 12  5  1  0
 13 15  1  0
 14 13  2  0
 15 16  1  0
 16 20  1  0
 17 18  1  0
 16 17  1  6
 18 22  1  0
 19 18  2  0
 20 23  2  0
 20 21  1  0
M  END
$$$$
