CID.pdb
     RDKit          3D

 23 22  0  0  1  0  0  0  0  0999 V2000
   20.8886  -14.2390  -16.1451 N   0  0  0  0  0  0  0  0  0  0  0  0
   21.1606  -13.0383  -16.9187 C   0  0  1  0  0  0  0  0  0  0  0  0
   19.9002  -12.4256  -17.4674 C   0  0  0  0  0  0  0  0  0  0  0  0
   19.0927  -13.7011  -18.5027 S   0  0  0  0  0  0  0  0  0  0  0  0
   21.9318  -12.1100  -16.0685 C   0  0  0  0  0  0  0  0  0  0  0  0
   21.5806  -11.8421  -14.8853 O   0  0  0  0  0  0  0  0  0  0  0  0
   27.2084  -12.2570  -15.6715 C   0  0  0  0  0  0  0  0  0  0  0  0
   25.7073  -12.1409  -15.3427 C   0  0  0  0  0  0  0  0  0  0  0  0
   25.2891  -10.7880  -15.8210 C   0  0  2  0  0  0  0  0  0  0  0  0
   26.1648   -9.7777  -15.0785 C   0  0  0  0  0  0  0  0  0  0  0  0
   23.8212  -10.4797  -15.6771 C   0  0  2  0  0  0  0  0  0  0  0  0
   23.1186  -11.4592  -16.5281 N   0  0  0  0  0  0  0  0  0  0  0  0
   23.4254   -9.1258  -16.0803 C   0  0  0  0  0  0  0  0  0  0  0  0
   23.5297   -8.7764  -17.2826 O   0  0  0  0  0  0  0  0  0  0  0  0
   22.9140   -8.1559  -15.1840 N   0  0  0  0  0  0  0  0  0  0  0  0
   22.4279   -6.8601  -15.6416 C   0  0  1  0  0  0  0  0  0  0  0  0
   21.2788   -7.1041  -16.6022 C   0  0  0  0  0  0  0  0  0  0  0  0
   20.7058   -5.8213  -17.0136 C   0  0  0  0  0  0  0  0  0  0  0  0
   19.6035   -5.3449  -16.5958 O   0  0  0  0  0  0  0  0  0  0  0  0
   21.9847   -6.0783  -14.4685 C   0  0  0  0  0  0  0  0  0  0  0  0
   21.7610   -4.7096  -14.4971 O   0  0  0  0  0  0  0  0  0  0  0  0
   21.4303   -5.0516  -17.9457 O   0  0  0  0  0  0  0  0  0  0  0  0
   21.7867   -6.6389  -13.3614 O   0  0  0  0  0  0  0  0  0  0  0  0
  2  1  1  1
  3  2  1  0
  4  3  1  0
  5  6  2  0
  5  2  1  0
  8  7  1  0
  8  9  1  0
  9 11  1  0
  9 10  1  1
 11 12  1  6
 11 13  1  0
 12  5  1  0
 13 15  1  0
 14 13  2  0
 15 16  1  0
 16 20  1  0
 17 18  1  0
 16 17  1  6
 18 22  1  0
 19 18  2  0
 20 23  2  0
 20 21  1  0
M  END
$$$$
