CID.pdb
     RDKit          3D

 23 22  0  0  1  0  0  0  0  0999 V2000
   25.0672  -10.6196  -21.2850 N   0  0  0  0  0  0  0  0  0  0  0  0
   25.1559   -9.3397  -20.6007 C   0  0  1  0  0  0  0  0  0  0  0  0
   24.6158   -8.2143  -21.4413 C   0  0  0  0  0  0  0  0  0  0  0  0
   25.7813   -7.9799  -22.8332 S   0  0  0  0  0  0  0  0  0  0  0  0
   24.4726   -9.4679  -19.2984 C   0  0  0  0  0  0  0  0  0  0  0  0
   23.4108  -10.1388  -19.1661 O   0  0  0  0  0  0  0  0  0  0  0  0
   27.0905  -11.1090  -15.2570 C   0  0  0  0  0  0  0  0  0  0  0  0
   25.9556  -10.8604  -16.2695 C   0  0  0  0  0  0  0  0  0  0  0  0
   25.3326   -9.5613  -15.8720 C   0  0  2  0  0  0  0  0  0  0  0  0
   24.7854   -9.7595  -14.4577 C   0  0  0  0  0  0  0  0  0  0  0  0
   24.2839   -9.0344  -16.8170 C   0  0  2  0  0  0  0  0  0  0  0  0
   24.9668   -8.8440  -18.1110 N   0  0  0  0  0  0  0  0  0  0  0  0
   23.6607   -7.7686  -16.4149 C   0  0  0  0  0  0  0  0  0  0  0  0
   24.3485   -6.7178  -16.3775 O   0  0  0  0  0  0  0  0  0  0  0  0
   22.2959   -7.6417  -16.0590 N   0  0  0  0  0  0  0  0  0  0  0  0
   21.6885   -6.3480  -15.7718 C   0  0  1  0  0  0  0  0  0  0  0  0
   21.9000   -5.4536  -16.9792 C   0  0  0  0  0  0  0  0  0  0  0  0
   21.3084   -4.1393  -16.7225 C   0  0  0  0  0  0  0  0  0  0  0  0
   21.2562   -3.5698  -15.5869 O   0  0  0  0  0  0  0  0  0  0  0  0
   20.2494   -6.5487  -15.5030 C   0  0  0  0  0  0  0  0  0  0  0  0
   19.4789   -5.6743  -14.7506 O   0  0  0  0  0  0  0  0  0  0  0  0
   20.7523   -3.4485  -17.8178 O   0  0  0  0  0  0  0  0  0  0  0  0
   19.6453   -7.5520  -15.9586 O   0  0  0  0  0  0  0  0  0  0  0  0
  2  1  1  6
  3  2  1  0
  4  3  1  0
  5  6  2  0
  5  2  1  0
  8  7  1  0
  8  9  1  0
  9 11  1  0
  9 10  1  1
 11 12  1  6
 11 13  1  0
 12  5  1  0
 13 15  1  0
 14 13  2  0
 15 16  1  0
 16 20  1  0
 17 18  1  0
 16 17  1  6
 18 22  1  0
 19 18  2  0
 20 23  2  0
 20 21  1  0
M  END
$$$$
