CID.pdb
     RDKit          3D

 23 22  0  0  1  0  0  0  0  0999 V2000
   28.7638  -21.5807  -15.3520 N   0  0  0  0  0  0  0  0  0  0  0  0
   27.9890  -20.4800  -14.8021 C   0  0  1  0  0  0  0  0  0  0  0  0
   27.5177  -19.5340  -15.8735 C   0  0  0  0  0  0  0  0  0  0  0  0
   28.1310  -17.8690  -15.4238 S   0  0  0  0  0  0  0  0  0  0  0  0
   26.8833  -21.0499  -14.0071 C   0  0  0  0  0  0  0  0  0  0  0  0
   26.2237  -22.0509  -14.4047 O   0  0  0  0  0  0  0  0  0  0  0  0
   26.6549  -20.3582   -8.5281 C   0  0  0  0  0  0  0  0  0  0  0  0
   26.5937  -21.1306   -9.8603 C   0  0  0  0  0  0  0  0  0  0  0  0
   25.4366  -20.5554  -10.6116 C   0  0  2  0  0  0  0  0  0  0  0  0
   24.1879  -20.8646   -9.7844 C   0  0  0  0  0  0  0  0  0  0  0  0
   25.3008  -21.0199  -12.0385 C   0  0  2  0  0  0  0  0  0  0  0  0
   26.4913  -20.5079  -12.7439 N   0  0  0  0  0  0  0  0  0  0  0  0
   24.0962  -20.5542  -12.7345 C   0  0  0  0  0  0  0  0  0  0  0  0
   23.9878  -19.3439  -13.0541 O   0  0  0  0  0  0  0  0  0  0  0  0
   23.0150  -21.3984  -13.0867 N   0  0  0  0  0  0  0  0  0  0  0  0
   21.8091  -20.8853  -13.7249 C   0  0  1  0  0  0  0  0  0  0  0  0
   21.4853  -21.7837  -14.9040 C   0  0  0  0  0  0  0  0  0  0  0  0
   20.2303  -21.3482  -15.5193 C   0  0  0  0  0  0  0  0  0  0  0  0
   20.0930  -20.3161  -16.2490 O   0  0  0  0  0  0  0  0  0  0  0  0
   20.7111  -20.8878  -12.7359 C   0  0  0  0  0  0  0  0  0  0  0  0
   19.6114  -20.0452  -12.8064 O   0  0  0  0  0  0  0  0  0  0  0  0
   19.0826  -22.1323  -15.2866 O   0  0  0  0  0  0  0  0  0  0  0  0
   20.7294  -21.6778  -11.7588 O   0  0  0  0  0  0  0  0  0  0  0  0
  2  1  1  6
  3  2  1  0
  4  3  1  0
  5  6  2  0
  5  2  1  0
  8  7  1  0
  8  9  1  0
  9 11  1  0
  9 10  1  1
 11 12  1  6
 11 13  1  0
 12  5  1  0
 13 15  1  0
 14 13  2  0
 15 16  1  0
 16 20  1  0
 17 18  1  0
 16 17  1  6
 18 22  1  0
 19 18  2  0
 20 23  2  0
 20 21  1  0
M  END
$$$$
