CID.pdb
     RDKit          3D

 23 22  0  0  1  0  0  0  0  0999 V2000
   25.7525  -12.0221  -17.8610 N   0  0  0  0  0  0  0  0  0  0  0  0
   25.3810  -11.4615  -16.5719 C   0  0  1  0  0  0  0  0  0  0  0  0
   26.4878  -10.6309  -15.9801 C   0  0  0  0  0  0  0  0  0  0  0  0
   27.8131  -11.7882  -15.4754 S   0  0  0  0  0  0  0  0  0  0  0  0
   24.1227  -10.7090  -16.7447 C   0  0  0  0  0  0  0  0  0  0  0  0
   23.8633  -10.0798  -17.8086 O   0  0  0  0  0  0  0  0  0  0  0  0
   20.3415  -13.3124  -16.0089 C   0  0  0  0  0  0  0  0  0  0  0  0
   20.5781  -11.9836  -16.7527 C   0  0  0  0  0  0  0  0  0  0  0  0
   20.7641  -10.9495  -15.6898 C   0  0  2  0  0  0  0  0  0  0  0  0
   19.3999  -10.2887  -15.4866 C   0  0  0  0  0  0  0  0  0  0  0  0
   21.8493   -9.9391  -15.9576 C   0  0  2  0  0  0  0  0  0  0  0  0
   23.1237  -10.6452  -15.7243 N   0  0  0  0  0  0  0  0  0  0  0  0
   21.8067   -8.7391  -15.1146 C   0  0  0  0  0  0  0  0  0  0  0  0
   22.0738   -8.8262  -13.8900 O   0  0  0  0  0  0  0  0  0  0  0  0
   21.4802   -7.4488  -15.5984 N   0  0  0  0  0  0  0  0  0  0  0  0
   21.4857   -6.2747  -14.7346 C   0  0  1  0  0  0  0  0  0  0  0  0
   22.5286   -5.3085  -15.2650 C   0  0  0  0  0  0  0  0  0  0  0  0
   22.5290   -4.0938  -14.4479 C   0  0  0  0  0  0  0  0  0  0  0  0
   22.5067   -4.0672  -13.1769 O   0  0  0  0  0  0  0  0  0  0  0  0
   20.1389   -5.6668  -14.7516 C   0  0  0  0  0  0  0  0  0  0  0  0
   19.6224   -4.9136  -13.7075 O   0  0  0  0  0  0  0  0  0  0  0  0
   22.5562   -2.8552  -15.1196 O   0  0  0  0  0  0  0  0  0  0  0  0
   19.3816   -5.8125  -15.7438 O   0  0  0  0  0  0  0  0  0  0  0  0
  2  1  1  6
  3  2  1  0
  4  3  1  0
  5  6  2  0
  5  2  1  0
  8  7  1  0
  8  9  1  0
  9 11  1  0
  9 10  1  6
 11 12  1  1
 11 13  1  0
 12  5  1  0
 13 15  1  0
 14 13  2  0
 15 16  1  0
 16 20  1  0
 17 18  1  0
 16 17  1  6
 18 22  1  0
 19 18  2  0
 20 23  2  0
 20 21  1  0
M  END
$$$$
