CID.pdb
     RDKit          3D

 23 22  0  0  1  0  0  0  0  0999 V2000
   20.9053  -12.2844  -18.1704 N   0  0  0  0  0  0  0  0  0  0  0  0
   20.2001  -12.0976  -16.9126 C   0  0  1  0  0  0  0  0  0  0  0  0
   19.7596  -13.4068  -16.3153 C   0  0  0  0  0  0  0  0  0  0  0  0
   18.5606  -14.1499  -17.4818 S   0  0  0  0  0  0  0  0  0  0  0  0
   21.0690  -11.3146  -16.0119 C   0  0  0  0  0  0  0  0  0  0  0  0
   20.7410  -11.0684  -14.8173 O   0  0  0  0  0  0  0  0  0  0  0  0
   26.4208  -11.7393  -15.7749 C   0  0  0  0  0  0  0  0  0  0  0  0
   24.9622  -11.5634  -15.3097 C   0  0  0  0  0  0  0  0  0  0  0  0
   24.5443  -10.2087  -15.7834 C   0  0  2  0  0  0  0  0  0  0  0  0
   25.4778   -9.2064  -15.1029 C   0  0  0  0  0  0  0  0  0  0  0  0
   23.0924   -9.8700  -15.5650 C   0  0  2  0  0  0  0  0  0  0  0  0
   22.3297  -10.7882  -16.4323 N   0  0  0  0  0  0  0  0  0  0  0  0
   22.7187   -8.4883  -15.8865 C   0  0  0  0  0  0  0  0  0  0  0  0
   22.4643   -8.1703  -17.0752 O   0  0  0  0  0  0  0  0  0  0  0  0
   22.6168   -7.4561  -14.9223 N   0  0  0  0  0  0  0  0  0  0  0  0
   22.1492   -6.1191  -15.2669 C   0  0  1  0  0  0  0  0  0  0  0  0
   20.7171   -6.2356  -15.7545 C   0  0  0  0  0  0  0  0  0  0  0  0
   20.2001   -4.9035  -16.0733 C   0  0  0  0  0  0  0  0  0  0  0  0
   20.8254   -4.0151  -16.7339 O   0  0  0  0  0  0  0  0  0  0  0  0
   22.2351   -5.2622  -14.0661 C   0  0  0  0  0  0  0  0  0  0  0  0
   22.1450   -3.8784  -14.1014 O   0  0  0  0  0  0  0  0  0  0  0  0
   18.9085   -4.5772  -15.6134 O   0  0  0  0  0  0  0  0  0  0  0  0
   22.3995   -5.7678  -12.9275 O   0  0  0  0  0  0  0  0  0  0  0  0
  2  1  1  6
  3  2  1  0
  4  3  1  0
  5  6  2  0
  5  2  1  0
  8  7  1  0
  8  9  1  0
  9 11  1  0
  9 10  1  1
 11 12  1  6
 11 13  1  0
 12  5  1  0
 13 15  1  0
 14 13  2  0
 15 16  1  0
 16 20  1  0
 17 18  1  0
 16 17  1  1
 18 22  1  0
 19 18  2  0
 20 23  2  0
 20 21  1  0
M  END
$$$$
