CID.pdb
     RDKit          3D

 23 22  0  0  1  0  0  0  0  0999 V2000
   17.5692  -13.4016  -15.9772 N   0  0  0  0  0  0  0  0  0  0  0  0
   18.0168  -12.1589  -16.5853 C   0  0  1  0  0  0  0  0  0  0  0  0
   16.8672  -11.2376  -16.8927 C   0  0  0  0  0  0  0  0  0  0  0  0
   16.0476  -11.8883  -18.3945 S   0  0  0  0  0  0  0  0  0  0  0  0
   19.0238  -11.5493  -15.6945 C   0  0  0  0  0  0  0  0  0  0  0  0
   18.8222  -11.4134  -14.4552 O   0  0  0  0  0  0  0  0  0  0  0  0
   24.8108  -11.8410  -14.8416 C   0  0  0  0  0  0  0  0  0  0  0  0
   23.6650  -10.8563  -14.5374 C   0  0  0  0  0  0  0  0  0  0  0  0
   22.5409  -11.2478  -15.4413 C   0  0  2  0  0  0  0  0  0  0  0  0
   23.0778  -11.1410  -16.8693 C   0  0  0  0  0  0  0  0  0  0  0  0
   21.2645  -10.4688  -15.2556 C   0  0  2  0  0  0  0  0  0  0  0  0
   20.2842  -11.0767  -16.1757 N   0  0  0  0  0  0  0  0  0  0  0  0
   21.3622   -9.0333  -15.5420 C   0  0  0  0  0  0  0  0  0  0  0  0
   21.5371   -8.6424  -16.7233 O   0  0  0  0  0  0  0  0  0  0  0  0
   21.2660   -8.0251  -14.5521 N   0  0  0  0  0  0  0  0  0  0  0  0
   21.3531   -6.6077  -14.8808 C   0  0  1  0  0  0  0  0  0  0  0  0
   19.9523   -6.1116  -15.1875 C   0  0  0  0  0  0  0  0  0  0  0  0
   19.9969   -4.6799  -15.4902 C   0  0  0  0  0  0  0  0  0  0  0  0
   20.8127   -4.1272  -16.2937 O   0  0  0  0  0  0  0  0  0  0  0  0
   21.9326   -5.8880  -13.7276 C   0  0  0  0  0  0  0  0  0  0  0  0
   22.2822   -4.5459  -13.7561 O   0  0  0  0  0  0  0  0  0  0  0  0
   19.0638   -3.8462  -14.8417 O   0  0  0  0  0  0  0  0  0  0  0  0
   22.1399   -6.4811  -12.6393 O   0  0  0  0  0  0  0  0  0  0  0  0
  2  1  1  1
  3  2  1  0
  4  3  1  0
  5  6  2  0
  5  2  1  0
  8  7  1  0
  8  9  1  0
  9 11  1  0
  9 10  1  6
 11 12  1  6
 11 13  1  0
 12  5  1  0
 13 15  1  0
 14 13  2  0
 15 16  1  0
 16 20  1  0
 17 18  1  0
 16 17  1  1
 18 22  1  0
 19 18  2  0
 20 23  2  0
 20 21  1  0
M  END
$$$$
