CID.pdb
     RDKit          3D

 23 22  0  0  1  0  0  0  0  0999 V2000
   28.5206  -21.7476  -15.6425 N   0  0  0  0  0  0  0  0  0  0  0  0
   27.9350  -20.5857  -14.9934 C   0  0  1  0  0  0  0  0  0  0  0  0
   27.6579  -19.4757  -15.9712 C   0  0  0  0  0  0  0  0  0  0  0  0
   27.2455  -17.9879  -14.9879 S   0  0  0  0  0  0  0  0  0  0  0  0
   26.7302  -21.0271  -14.2634 C   0  0  0  0  0  0  0  0  0  0  0  0
   25.9379  -21.8859  -14.7427 O   0  0  0  0  0  0  0  0  0  0  0  0
   26.6724  -20.5564   -8.8019 C   0  0  0  0  0  0  0  0  0  0  0  0
   26.5107  -21.2702  -10.1580 C   0  0  0  0  0  0  0  0  0  0  0  0
   25.3543  -20.6056  -10.8326 C   0  0  2  0  0  0  0  0  0  0  0  0
   24.1188  -20.9302   -9.9916 C   0  0  0  0  0  0  0  0  0  0  0  0
   25.1627  -20.9640  -12.2836 C   0  0  2  0  0  0  0  0  0  0  0  0
   26.3858  -20.5131  -12.9748 N   0  0  0  0  0  0  0  0  0  0  0  0
   23.9960  -20.3519  -12.9288 C   0  0  0  0  0  0  0  0  0  0  0  0
   23.9570  -19.1076  -13.0983 O   0  0  0  0  0  0  0  0  0  0  0  0
   22.8777  -21.0867  -13.3928 N   0  0  0  0  0  0  0  0  0  0  0  0
   21.7206  -20.4361  -13.9950 C   0  0  1  0  0  0  0  0  0  0  0  0
   21.5680  -20.9674  -15.4081 C   0  0  0  0  0  0  0  0  0  0  0  0
   20.4477  -20.2918  -16.0653 C   0  0  0  0  0  0  0  0  0  0  0  0
   19.7980  -19.3124  -15.5803 O   0  0  0  0  0  0  0  0  0  0  0  0
   20.5268  -20.7411  -13.1794 C   0  0  0  0  0  0  0  0  0  0  0  0
   19.4118  -19.9187  -13.1115 O   0  0  0  0  0  0  0  0  0  0  0  0
   20.0563  -20.7614  -17.3351 O   0  0  0  0  0  0  0  0  0  0  0  0
   20.4711  -21.7910  -12.4911 O   0  0  0  0  0  0  0  0  0  0  0  0
  2  1  1  6
  3  2  1  0
  4  3  1  0
  5  6  2  0
  5  2  1  0
  8  7  1  0
  8  9  1  0
  9 11  1  0
  9 10  1  1
 11 12  1  6
 11 13  1  0
 12  5  1  0
 13 15  1  0
 14 13  2  0
 15 16  1  0
 16 20  1  0
 17 18  1  0
 16 17  1  6
 18 22  1  0
 19 18  2  0
 20 23  2  0
 20 21  1  0
M  END
$$$$
