CID.pdb
     RDKit          3D

 23 22  0  0  1  0  0  0  0  0999 V2000
   28.9204  -20.7416  -15.3476 N   0  0  0  0  0  0  0  0  0  0  0  0
   27.9878  -19.7903  -14.7650 C   0  0  1  0  0  0  0  0  0  0  0  0
   27.4778  -18.8070  -15.7839 C   0  0  0  0  0  0  0  0  0  0  0  0
   28.8468  -17.6442  -16.1363 S   0  0  0  0  0  0  0  0  0  0  0  0
   26.9084  -20.5516  -14.1057 C   0  0  0  0  0  0  0  0  0  0  0  0
   26.5040  -21.6602  -14.5558 O   0  0  0  0  0  0  0  0  0  0  0  0
   26.3714  -20.4419   -8.7083 C   0  0  0  0  0  0  0  0  0  0  0  0
   26.4231  -21.0637  -10.1174 C   0  0  0  0  0  0  0  0  0  0  0  0
   25.2161  -20.5499  -10.8336 C   0  0  2  0  0  0  0  0  0  0  0  0
   24.0020  -21.1010  -10.0844 C   0  0  0  0  0  0  0  0  0  0  0  0
   25.1616  -20.8597  -12.3072 C   0  0  2  0  0  0  0  0  0  0  0  0
   26.2561  -20.0848  -12.9226 N   0  0  0  0  0  0  0  0  0  0  0  0
   23.8998  -20.5146  -12.9713 C   0  0  0  0  0  0  0  0  0  0  0  0
   23.4983  -19.3240  -12.9698 O   0  0  0  0  0  0  0  0  0  0  0  0
   23.0786  -21.4559  -13.6385 N   0  0  0  0  0  0  0  0  0  0  0  0
   21.8333  -21.0708  -14.2909 C   0  0  1  0  0  0  0  0  0  0  0  0
   21.5817  -22.0419  -15.4293 C   0  0  0  0  0  0  0  0  0  0  0  0
   20.3438  -21.6747  -16.1195 C   0  0  0  0  0  0  0  0  0  0  0  0
   19.6136  -20.6750  -15.8296 O   0  0  0  0  0  0  0  0  0  0  0  0
   20.7414  -21.1213  -13.2964 C   0  0  0  0  0  0  0  0  0  0  0  0
   20.6559  -22.0794  -12.2970 O   0  0  0  0  0  0  0  0  0  0  0  0
   19.9261  -22.4914  -17.1894 O   0  0  0  0  0  0  0  0  0  0  0  0
   19.8155  -20.2719  -13.3164 O   0  0  0  0  0  0  0  0  0  0  0  0
  2  1  1  6
  3  2  1  0
  4  3  1  0
  5  6  2  0
  5  2  1  0
  8  7  1  0
  8  9  1  0
  9 11  1  0
  9 10  1  1
 11 12  1  6
 11 13  1  0
 12  5  1  0
 13 15  1  0
 14 13  2  0
 15 16  1  0
 16 20  1  0
 17 18  1  0
 16 17  1  6
 18 22  1  0
 19 18  2  0
 20 23  2  0
 20 21  1  0
M  END
$$$$
