CID.pdb
     RDKit          3D

 23 22  0  0  1  0  0  0  0  0999 V2000
   28.6374  -21.3418  -15.6780 N   0  0  0  0  0  0  0  0  0  0  0  0
   27.8183  -20.3217  -15.0433 C   0  0  1  0  0  0  0  0  0  0  0  0
   27.2858  -19.3278  -16.0401 C   0  0  0  0  0  0  0  0  0  0  0  0
   28.7179  -18.3676  -16.6546 S   0  0  0  0  0  0  0  0  0  0  0  0
   26.7535  -20.9995  -14.2777 C   0  0  0  0  0  0  0  0  0  0  0  0
   26.2525  -22.0944  -14.6589 O   0  0  0  0  0  0  0  0  0  0  0  0
   26.2959  -20.4482   -8.8168 C   0  0  0  0  0  0  0  0  0  0  0  0
   26.3323  -21.1784  -10.1734 C   0  0  0  0  0  0  0  0  0  0  0  0
   25.1601  -20.6634  -10.9446 C   0  0  2  0  0  0  0  0  0  0  0  0
   23.9135  -21.0635  -10.1541 C   0  0  0  0  0  0  0  0  0  0  0  0
   25.0882  -21.1110  -12.3816 C   0  0  2  0  0  0  0  0  0  0  0  0
   26.2251  -20.4625  -13.0629 N   0  0  0  0  0  0  0  0  0  0  0  0
   23.8481  -20.7608  -13.0830 C   0  0  0  0  0  0  0  0  0  0  0  0
   23.5936  -19.5573  -13.3389 O   0  0  0  0  0  0  0  0  0  0  0  0
   22.8898  -21.7123  -13.5094 N   0  0  0  0  0  0  0  0  0  0  0  0
   21.6795  -21.3245  -14.2233 C   0  0  1  0  0  0  0  0  0  0  0  0
   21.3220  -22.4455  -15.1814 C   0  0  0  0  0  0  0  0  0  0  0  0
   20.0821  -22.1103  -15.8840 C   0  0  0  0  0  0  0  0  0  0  0  0
   20.0111  -21.4461  -16.9658 O   0  0  0  0  0  0  0  0  0  0  0  0
   20.5999  -21.0998  -13.2397 C   0  0  0  0  0  0  0  0  0  0  0  0
   20.5795  -21.6728  -11.9766 O   0  0  0  0  0  0  0  0  0  0  0  0
   18.8706  -22.5575  -15.3196 O   0  0  0  0  0  0  0  0  0  0  0  0
   19.6244  -20.3574  -13.5160 O   0  0  0  0  0  0  0  0  0  0  0  0
  2  1  1  6
  3  2  1  0
  4  3  1  0
  5  6  2  0
  5  2  1  0
  8  7  1  0
  8  9  1  0
  9 11  1  0
  9 10  1  1
 11 12  1  6
 11 13  1  0
 12  5  1  0
 13 15  1  0
 14 13  2  0
 15 16  1  0
 16 20  1  0
 17 18  1  0
 16 17  1  6
 18 22  1  0
 19 18  2  0
 20 23  2  0
 20 21  1  0
M  END
$$$$
