CID.pdb
     RDKit          3D

 23 22  0  0  1  0  0  0  0  0999 V2000
   21.8850  -17.1208  -16.6499 N   0  0  0  0  0  0  0  0  0  0  0  0
   21.2672  -15.8553  -17.0119 C   0  0  1  0  0  0  0  0  0  0  0  0
   19.7648  -15.9427  -17.0110 C   0  0  0  0  0  0  0  0  0  0  0  0
   19.3058  -17.2674  -18.1879 S   0  0  0  0  0  0  0  0  0  0  0  0
   21.7862  -14.8150  -16.1021 C   0  0  0  0  0  0  0  0  0  0  0  0
   21.5989  -14.8672  -14.8542 O   0  0  0  0  0  0  0  0  0  0  0  0
   26.7270  -12.2456  -14.7896 C   0  0  0  0  0  0  0  0  0  0  0  0
   25.2407  -11.8436  -14.7253 C   0  0  0  0  0  0  0  0  0  0  0  0
   24.5188  -12.8107  -15.6070 C   0  0  2  0  0  0  0  0  0  0  0  0
   25.1376  -12.6714  -16.9986 C   0  0  0  0  0  0  0  0  0  0  0  0
   23.0197  -12.6606  -15.6354 C   0  0  2  0  0  0  0  0  0  0  0  0
   22.5296  -13.6887  -16.5734 N   0  0  0  0  0  0  0  0  0  0  0  0
   22.5322  -11.3467  -16.0693 C   0  0  0  0  0  0  0  0  0  0  0  0
   22.1915  -11.1707  -17.2658 O   0  0  0  0  0  0  0  0  0  0  0  0
   22.4102  -10.2290  -15.2082 N   0  0  0  0  0  0  0  0  0  0  0  0
   21.7621   -8.9938  -15.6312 C   0  0  1  0  0  0  0  0  0  0  0  0
   20.3375   -9.3270  -16.0335 C   0  0  0  0  0  0  0  0  0  0  0  0
   19.6419   -8.1004  -16.4270 C   0  0  0  0  0  0  0  0  0  0  0  0
   18.7705   -7.4964  -15.7253 O   0  0  0  0  0  0  0  0  0  0  0  0
   21.7879   -8.0353  -14.5068 C   0  0  0  0  0  0  0  0  0  0  0  0
   21.6637   -6.6627  -14.6641 O   0  0  0  0  0  0  0  0  0  0  0  0
   19.9609   -7.5428  -17.6814 O   0  0  0  0  0  0  0  0  0  0  0  0
   21.9286   -8.4369  -13.3244 O   0  0  0  0  0  0  0  0  0  0  0  0
  2  1  1  1
  3  2  1  0
  4  3  1  0
  5  6  2  0
  5  2  1  0
  8  7  1  0
  8  9  1  0
  9 11  1  0
  9 10  1  6
 11 12  1  6
 11 13  1  0
 12  5  1  0
 13 15  1  0
 14 13  2  0
 15 16  1  0
 16 20  1  0
 17 18  1  0
 16 17  1  1
 18 22  1  0
 19 18  2  0
 20 23  2  0
 20 21  1  0
M  END
$$$$
