CID.pdb
     RDKit          3D

 23 22  0  0  1  0  0  0  0  0999 V2000
   17.4547  -25.1083   -8.0620 N   0  0  0  0  0  0  0  0  0  0  0  0
   18.2808  -25.3114   -6.8828 C   0  0  1  0  0  0  0  0  0  0  0  0
   19.1200  -24.1022   -6.5694 C   0  0  0  0  0  0  0  0  0  0  0  0
   20.2193  -23.8273   -8.0070 S   0  0  0  0  0  0  0  0  0  0  0  0
   17.3983  -25.7074   -5.7676 C   0  0  0  0  0  0  0  0  0  0  0  0
   16.1734  -25.4006   -5.7457 O   0  0  0  0  0  0  0  0  0  0  0  0
   16.8825  -30.6271   -5.0669 C   0  0  0  0  0  0  0  0  0  0  0  0
   16.4903  -29.1368   -5.0760 C   0  0  0  0  0  0  0  0  0  0  0  0
   17.0839  -28.5520   -3.8351 C   0  0  2  0  0  0  0  0  0  0  0  0
   16.4683  -29.3146   -2.6610 C   0  0  0  0  0  0  0  0  0  0  0  0
   16.9268  -27.0607   -3.6874 C   0  0  2  0  0  0  0  0  0  0  0  0
   17.8718  -26.4591   -4.6477 N   0  0  0  0  0  0  0  0  0  0  0  0
   17.2069  -26.5334   -2.3474 C   0  0  0  0  0  0  0  0  0  0  0  0
   18.3891  -26.5016   -1.9230 O   0  0  0  0  0  0  0  0  0  0  0  0
   16.2095  -26.0381   -1.4724 N   0  0  0  0  0  0  0  0  0  0  0  0
   16.5301  -25.5213   -0.1476 C   0  0  1  0  0  0  0  0  0  0  0  0
   15.6838  -24.2844    0.0895 C   0  0  0  0  0  0  0  0  0  0  0  0
   15.8679  -23.8237    1.4668 C   0  0  0  0  0  0  0  0  0  0  0  0
   16.7010  -24.3095    2.2954 O   0  0  0  0  0  0  0  0  0  0  0  0
   16.2364  -26.5677    0.8536 C   0  0  0  0  0  0  0  0  0  0  0  0
   16.9804  -26.7561    2.0092 O   0  0  0  0  0  0  0  0  0  0  0  0
   15.0601  -22.7583    1.9123 O   0  0  0  0  0  0  0  0  0  0  0  0
   15.2706  -27.3556    0.6940 O   0  0  0  0  0  0  0  0  0  0  0  0
  2  1  1  6
  3  2  1  0
  4  3  1  0
  5  6  2  0
  5  2  1  0
  8  7  1  0
  8  9  1  0
  9 11  1  0
  9 10  1  1
 11 12  1  6
 11 13  1  0
 12  5  1  0
 13 15  1  0
 14 13  2  0
 15 16  1  0
 16 20  1  0
 17 18  1  0
 16 17  1  1
 18 22  1  0
 19 18  2  0
 20 23  2  0
 20 21  1  0
M  END
$$$$
