CID.pdb
     RDKit          3D

 23 22  0  0  1  0  0  0  0  0999 V2000
   23.1445  -12.9825  -19.6348 N   0  0  0  0  0  0  0  0  0  0  0  0
   23.2678  -11.5493  -19.4225 C   0  0  1  0  0  0  0  0  0  0  0  0
   22.8785  -10.7643  -20.6460 C   0  0  0  0  0  0  0  0  0  0  0  0
   24.1349  -11.1171  -21.9296 S   0  0  0  0  0  0  0  0  0  0  0  0
   22.4740  -11.1926  -18.2300 C   0  0  0  0  0  0  0  0  0  0  0  0
   21.3233  -11.6722  -18.0276 O   0  0  0  0  0  0  0  0  0  0  0  0
   23.9618  -11.9096  -13.4527 C   0  0  0  0  0  0  0  0  0  0  0  0
   23.0182  -11.7548  -14.6612 C   0  0  0  0  0  0  0  0  0  0  0  0
   22.8460  -10.2832  -14.8575 C   0  0  2  0  0  0  0  0  0  0  0  0
   22.1761   -9.7536  -13.5887 C   0  0  0  0  0  0  0  0  0  0  0  0
   22.0981   -9.8831  -16.1029 C   0  0  2  0  0  0  0  0  0  0  0  0
   22.9548  -10.2866  -17.2344 N   0  0  0  0  0  0  0  0  0  0  0  0
   21.7977   -8.4518  -16.2177 C   0  0  0  0  0  0  0  0  0  0  0  0
   22.7361   -7.6167  -16.2462 O   0  0  0  0  0  0  0  0  0  0  0  0
   20.4849   -7.9279  -16.3060 N   0  0  0  0  0  0  0  0  0  0  0  0
   20.2268   -6.4947  -16.3709 C   0  0  1  0  0  0  0  0  0  0  0  0
   19.6594   -6.1832  -17.7433 C   0  0  0  0  0  0  0  0  0  0  0  0
   19.3647   -4.7522  -17.8363 C   0  0  0  0  0  0  0  0  0  0  0  0
   18.2242   -4.2259  -17.6392 O   0  0  0  0  0  0  0  0  0  0  0  0
   19.2687   -6.1364  -15.3044 C   0  0  0  0  0  0  0  0  0  0  0  0
   19.1432   -4.8575  -14.7821 O   0  0  0  0  0  0  0  0  0  0  0  0
   20.4264   -3.8875  -18.1701 O   0  0  0  0  0  0  0  0  0  0  0  0
   18.5047   -7.0032  -14.8105 O   0  0  0  0  0  0  0  0  0  0  0  0
  2  1  1  6
  3  2  1  0
  4  3  1  0
  5  6  2  0
  5  2  1  0
  8  7  1  0
  8  9  1  0
  9 11  1  0
  9 10  1  1
 11 12  1  6
 11 13  1  0
 12  5  1  0
 13 15  1  0
 14 13  2  0
 15 16  1  0
 16 20  1  0
 17 18  1  0
 16 17  1  6
 18 22  1  0
 19 18  2  0
 20 23  2  0
 20 21  1  0
M  END
$$$$
