CID.pdb
     RDKit          3D

 23 22  0  0  1  0  0  0  0  0999 V2000
   21.8210  -11.0186  -17.6352 N   0  0  0  0  0  0  0  0  0  0  0  0
   22.3156   -9.6975  -17.2826 C   0  0  1  0  0  0  0  0  0  0  0  0
   22.2989   -8.7587  -18.4587 C   0  0  0  0  0  0  0  0  0  0  0  0
   23.5656   -9.3560  -19.6374 S   0  0  0  0  0  0  0  0  0  0  0  0
   21.5264   -9.2032  -16.1372 C   0  0  0  0  0  0  0  0  0  0  0  0
   20.2873   -9.4259  -16.0360 O   0  0  0  0  0  0  0  0  0  0  0  0
   22.9655  -10.2218  -11.3827 C   0  0  0  0  0  0  0  0  0  0  0  0
   22.0448   -9.9501  -12.5883 C   0  0  0  0  0  0  0  0  0  0  0  0
   21.9510   -8.4627  -12.7019 C   0  0  2  0  0  0  0  0  0  0  0  0
   21.2420   -7.9768  -11.4369 C   0  0  0  0  0  0  0  0  0  0  0  0
   21.2872   -7.9534  -13.9551 C   0  0  2  0  0  0  0  0  0  0  0  0
   22.1113   -8.4452  -15.0758 N   0  0  0  0  0  0  0  0  0  0  0  0
   21.1718   -6.4941  -14.0513 C   0  0  0  0  0  0  0  0  0  0  0  0
   22.2089   -5.7895  -14.1345 O   0  0  0  0  0  0  0  0  0  0  0  0
   19.9367   -5.8014  -14.0619 N   0  0  0  0  0  0  0  0  0  0  0  0
   19.8518   -4.3759  -14.3544 C   0  0  1  0  0  0  0  0  0  0  0  0
   20.0645   -4.1907  -15.8453 C   0  0  0  0  0  0  0  0  0  0  0  0
   19.8904   -2.7789  -16.1915 C   0  0  0  0  0  0  0  0  0  0  0  0
   20.6914   -1.8439  -15.8743 O   0  0  0  0  0  0  0  0  0  0  0  0
   18.5206   -3.8852  -13.9412 C   0  0  0  0  0  0  0  0  0  0  0  0
   18.2634   -2.5699  -13.5832 O   0  0  0  0  0  0  0  0  0  0  0  0
   18.7463   -2.4253  -16.9347 O   0  0  0  0  0  0  0  0  0  0  0  0
   17.5356   -4.6641  -13.8948 O   0  0  0  0  0  0  0  0  0  0  0  0
  2  1  1  6
  3  2  1  0
  4  3  1  0
  5  6  2  0
  5  2  1  0
  8  7  1  0
  8  9  1  0
  9 11  1  0
  9 10  1  1
 11 12  1  6
 11 13  1  0
 12  5  1  0
 13 15  1  0
 14 13  2  0
 15 16  1  0
 16 20  1  0
 17 18  1  0
 16 17  1  6
 18 22  1  0
 19 18  2  0
 20 23  2  0
 20 21  1  0
M  END
$$$$
