YQN.pdb
     RDKit          3D

 30 30  0  0  1  0  0  0  0  0999 V2000
   28.7135  -19.6869   -3.5122 O   0  0  0  0  0  0  0  0  0  0  0  0
   28.4230  -19.7624   -4.8732 C   0  0  0  0  0  0  0  0  0  0  0  0
   27.2959  -19.1971   -5.4250 C   0  0  0  0  0  0  0  0  0  0  0  0
   27.0322  -19.2853   -6.7689 C   0  0  0  0  0  0  0  0  0  0  0  0
   27.9080  -19.9582   -7.6284 C   0  0  0  0  0  0  0  0  0  0  0  0
   27.5800  -20.0224   -9.0619 C   0  0  0  0  0  0  0  0  0  0  0  0
   26.1826  -20.5639   -9.2177 C   0  0  2  0  0  0  0  0  0  0  0  0
   26.1676  -21.9422   -8.7845 N   0  0  0  0  0  0  0  0  0  0  0  0
   25.6670  -20.4404  -10.5900 C   0  0  0  0  0  0  0  0  0  0  0  0
   25.5983  -19.2919  -11.1461 O   0  0  0  0  0  0  0  0  0  0  0  0
   29.0296  -20.5216   -7.0842 C   0  0  0  0  0  0  0  0  0  0  0  0
   29.2870  -20.4248   -5.7130 C   0  0  0  0  0  0  0  0  0  0  0  0
   25.3079  -24.9434  -14.8256 N   0  0  0  0  0  0  0  0  0  0  0  0
   24.6855  -23.8643  -15.5476 C   0  0  0  0  0  0  0  0  0  0  0  0
   24.3252  -24.0117  -16.7267 O   0  0  0  0  0  0  0  0  0  0  0  0
   24.4924  -22.5959  -14.8426 C   0  0  0  0  0  0  0  0  0  0  0  0
   24.9141  -22.7022  -13.4098 C   0  0  0  0  0  0  0  0  0  0  0  0
   24.7042  -21.3719  -12.7268 C   0  0  2  0  0  0  0  0  0  0  0  0
   25.2294  -21.5470  -11.3615 N   0  0  0  0  0  0  0  0  0  0  0  0
   23.2270  -21.0904  -12.6572 C   0  0  0  0  0  0  0  0  0  0  0  0
   22.5158  -21.5437  -11.7054 O   0  0  0  0  0  0  0  0  0  0  0  0
   18.7671  -18.5051  -13.6837 N   0  0  0  0  0  0  0  0  0  0  0  0
   19.9659  -17.7151  -13.7091 C   0  0  0  0  0  0  0  0  0  0  0  0
   19.8639  -16.4710  -13.7508 O   0  0  0  0  0  0  0  0  0  0  0  0
   21.2771  -18.3536  -13.6867 C   0  0  0  0  0  0  0  0  0  0  0  0
   21.2742  -19.8530  -13.6029 C   0  0  2  0  0  0  0  0  0  0  0  0
   22.6825  -20.3038  -13.6967 N   0  0  0  0  0  0  0  0  0  0  0  0
   20.5870  -20.5307  -14.7125 C   0  0  0  0  0  0  0  0  0  0  0  0
   21.2689  -20.8625  -15.8591 O   0  0  0  0  0  0  0  0  0  0  0  0
   19.3805  -20.8129  -14.6294 O   0  0  0  0  0  0  0  0  0  0  0  0
  2  1  1  0
  3  2  2  0
  4  3  1  0
  5 11  1  0
  5  4  2  0
  6  5  1  0
  7  6  1  0
  7  8  1  6
  9  7  1  0
  9 10  2  0
 11 12  2  0
 12  2  1  0
 13 14  1  0
 14 15  2  0
 14 16  1  0
 16 17  1  0
 18 17  1  6
 18 19  1  0
 19  9  1  0
 20 18  1  0
 21 20  2  0
 22 23  1  0
 23 24  2  0
 25 23  1  0
 26 25  1  6
 26 27  1  0
 26 28  1  0
 27 20  1  0
 28 29  1  0
 30 28  2  0
M  END
$$$$
