YQN.pdb
     RDKit          3D

 30 30  0  0  1  0  0  0  0  0999 V2000
   22.2864  -21.4438   -6.3445 O   0  0  0  0  0  0  0  0  0  0  0  0
   22.8851  -21.0765   -7.5484 C   0  0  0  0  0  0  0  0  0  0  0  0
   24.1030  -20.4382   -7.6082 C   0  0  0  0  0  0  0  0  0  0  0  0
   24.6718  -20.0867   -8.8067 C   0  0  0  0  0  0  0  0  0  0  0  0
   24.0266  -20.3684  -10.0162 C   0  0  0  0  0  0  0  0  0  0  0  0
   24.6803  -19.9722  -11.2741 C   0  0  0  0  0  0  0  0  0  0  0  0
   25.3309  -21.1849  -11.8874 C   0  0  2  0  0  0  0  0  0  0  0  0
   26.4769  -21.5518  -11.0876 N   0  0  0  0  0  0  0  0  0  0  0  0
   25.7161  -20.9828  -13.2929 C   0  0  0  0  0  0  0  0  0  0  0  0
   26.6473  -20.1591  -13.5883 O   0  0  0  0  0  0  0  0  0  0  0  0
   22.8158  -21.0028   -9.9614 C   0  0  0  0  0  0  0  0  0  0  0  0
   22.2466  -21.3557   -8.7337 C   0  0  0  0  0  0  0  0  0  0  0  0
   27.1273  -25.0665  -17.1687 N   0  0  0  0  0  0  0  0  0  0  0  0
   28.0691  -24.0244  -16.8523 C   0  0  0  0  0  0  0  0  0  0  0  0
   29.2912  -24.2171  -16.9591 O   0  0  0  0  0  0  0  0  0  0  0  0
   27.5348  -22.7367  -16.4056 C   0  0  0  0  0  0  0  0  0  0  0  0
   26.0485  -22.7962  -16.2346 C   0  0  0  0  0  0  0  0  0  0  0  0
   25.5450  -21.4523  -15.7648 C   0  0  2  0  0  0  0  0  0  0  0  0
   25.1041  -21.6648  -14.3753 N   0  0  0  0  0  0  0  0  0  0  0  0
   24.3604  -21.0575  -16.6057 C   0  0  0  0  0  0  0  0  0  0  0  0
   23.1717  -21.2728  -16.2086 O   0  0  0  0  0  0  0  0  0  0  0  0
   21.5377  -18.3055  -19.9269 N   0  0  0  0  0  0  0  0  0  0  0  0
   21.8811  -18.0074  -18.5649 C   0  0  0  0  0  0  0  0  0  0  0  0
   21.2925  -17.0680  -17.9894 O   0  0  0  0  0  0  0  0  0  0  0  0
   22.8977  -18.7868  -17.8673 C   0  0  0  0  0  0  0  0  0  0  0  0
   23.5244  -19.9007  -18.6556 C   0  0  2  0  0  0  0  0  0  0  0  0
   24.6410  -20.4417  -17.8458 N   0  0  0  0  0  0  0  0  0  0  0  0
   24.1446  -19.4856  -19.9227 C   0  0  0  0  0  0  0  0  0  0  0  0
   23.4673  -19.6233  -21.1111 O   0  0  0  0  0  0  0  0  0  0  0  0
   25.2894  -19.0046  -19.9372 O   0  0  0  0  0  0  0  0  0  0  0  0
  2  1  1  0
  3  2  2  0
  4  3  1  0
  5 11  1  0
  5  4  2  0
  6  5  1  0
  7  6  1  0
  7  8  1  1
  9  7  1  0
  9 10  2  0
 11 12  2  0
 12  2  1  0
 13 14  1  0
 14 15  2  0
 14 16  1  0
 16 17  1  0
 18 17  1  6
 18 19  1  0
 19  9  1  0
 20 18  1  0
 21 20  2  0
 22 23  1  0
 23 24  2  0
 25 23  1  0
 26 25  1  1
 26 27  1  0
 26 28  1  0
 27 20  1  0
 28 29  1  0
 30 28  2  0
M  END
$$$$
