YQN.pdb
     RDKit          3D

 30 30  0  0  1  0  0  0  0  0999 V2000
   26.4104  -17.0638  -22.5043 O   0  0  0  0  0  0  0  0  0  0  0  0
   25.6931  -17.6912  -21.4872 C   0  0  0  0  0  0  0  0  0  0  0  0
   24.5740  -17.1321  -20.9133 C   0  0  0  0  0  0  0  0  0  0  0  0
   23.8848  -17.7702  -19.9128 C   0  0  0  0  0  0  0  0  0  0  0  0
   24.3009  -19.0200  -19.4401 C   0  0  0  0  0  0  0  0  0  0  0  0
   23.5254  -19.6628  -18.3668 C   0  0  0  0  0  0  0  0  0  0  0  0
   23.9233  -19.0541  -17.0472 C   0  0  2  0  0  0  0  0  0  0  0  0
   25.2764  -19.4564  -16.7392 N   0  0  0  0  0  0  0  0  0  0  0  0
   23.0088  -19.4085  -15.9506 C   0  0  0  0  0  0  0  0  0  0  0  0
   23.2016  -20.4776  -15.2779 O   0  0  0  0  0  0  0  0  0  0  0  0
   25.4128  -19.5795  -20.0078 C   0  0  0  0  0  0  0  0  0  0  0  0
   26.1066  -18.9190  -21.0267 C   0  0  0  0  0  0  0  0  0  0  0  0
   18.3721  -15.8822  -13.6442 N   0  0  0  0  0  0  0  0  0  0  0  0
   18.4380  -16.9408  -12.6706 C   0  0  0  0  0  0  0  0  0  0  0  0
   17.7217  -16.9184  -11.6565 O   0  0  0  0  0  0  0  0  0  0  0  0
   19.3733  -18.0387  -12.9212 C   0  0  0  0  0  0  0  0  0  0  0  0
   20.1983  -17.7800  -14.1437 C   0  0  0  0  0  0  0  0  0  0  0  0
   21.0015  -19.0149  -14.4755 C   0  0  2  0  0  0  0  0  0  0  0  0
   21.8936  -18.6157  -15.5779 N   0  0  0  0  0  0  0  0  0  0  0  0
   20.0633  -20.0875  -14.9608 C   0  0  0  0  0  0  0  0  0  0  0  0
   19.6914  -20.1347  -16.1760 O   0  0  0  0  0  0  0  0  0  0  0  0
   17.5082  -24.6377  -15.0352 N   0  0  0  0  0  0  0  0  0  0  0  0
   18.8629  -24.6599  -14.5595 C   0  0  0  0  0  0  0  0  0  0  0  0
   19.4359  -25.7622  -14.4313 O   0  0  0  0  0  0  0  0  0  0  0  0
   19.5559  -23.4188  -14.2323 C   0  0  0  0  0  0  0  0  0  0  0  0
   18.7675  -22.1563  -14.4315 C   0  0  2  0  0  0  0  0  0  0  0  0
   19.6249  -21.0271  -14.0013 N   0  0  0  0  0  0  0  0  0  0  0  0
   17.5578  -22.0480  -13.6024 C   0  0  0  0  0  0  0  0  0  0  0  0
   17.6422  -22.1044  -12.2314 O   0  0  0  0  0  0  0  0  0  0  0  0
   16.4424  -21.9042  -14.1291 O   0  0  0  0  0  0  0  0  0  0  0  0
  2  1  1  0
  3  2  2  0
  4  3  1  0
  5 11  1  0
  5  4  2  0
  6  5  1  0
  7  6  1  0
  7  8  1  1
  9  7  1  0
  9 10  2  0
 11 12  2  0
 12  2  1  0
 13 14  1  0
 14 15  2  0
 14 16  1  0
 16 17  1  0
 18 17  1  6
 18 19  1  0
 19  9  1  0
 20 18  1  0
 21 20  2  0
 22 23  1  0
 23 24  2  0
 25 23  1  0
 26 25  1  1
 26 27  1  0
 26 28  1  0
 27 20  1  0
 28 29  1  0
 30 28  2  0
M  END
$$$$
