YQN.pdb
     RDKit          3D

 30 30  0  0  1  0  0  0  0  0999 V2000
   26.8760  -15.2248  -18.3059 O   0  0  0  0  0  0  0  0  0  0  0  0
   26.1530  -14.2942  -17.5617 C   0  0  0  0  0  0  0  0  0  0  0  0
   24.7796  -14.2145  -17.6041 C   0  0  0  0  0  0  0  0  0  0  0  0
   24.0905  -13.2889  -16.8613 C   0  0  0  0  0  0  0  0  0  0  0  0
   24.7674  -12.3892  -16.0301 C   0  0  0  0  0  0  0  0  0  0  0  0
   23.9812  -11.4175  -15.2528 C   0  0  0  0  0  0  0  0  0  0  0  0
   23.0490  -10.6885  -16.1854 C   0  0  2  0  0  0  0  0  0  0  0  0
   23.8337  -10.0186  -17.1968 N   0  0  0  0  0  0  0  0  0  0  0  0
   22.1675   -9.7373  -15.4908 C   0  0  0  0  0  0  0  0  0  0  0  0
   21.3737  -10.1503  -14.5786 O   0  0  0  0  0  0  0  0  0  0  0  0
   26.1327  -12.4650  -15.9849 C   0  0  0  0  0  0  0  0  0  0  0  0
   26.8234  -13.4127  -16.7468 C   0  0  0  0  0  0  0  0  0  0  0  0
   23.1487   -3.6868  -14.8621 N   0  0  0  0  0  0  0  0  0  0  0  0
   21.9663   -3.8528  -14.0575 C   0  0  0  0  0  0  0  0  0  0  0  0
   21.5335   -2.9196  -13.3620 O   0  0  0  0  0  0  0  0  0  0  0  0
   21.2966   -5.1541  -14.0922 C   0  0  0  0  0  0  0  0  0  0  0  0
   22.0255   -6.1156  -14.9790 C   0  0  0  0  0  0  0  0  0  0  0  0
   21.2758   -7.4259  -15.0187 C   0  0  2  0  0  0  0  0  0  0  0  0
   22.1414   -8.3479  -15.7743 N   0  0  0  0  0  0  0  0  0  0  0  0
   19.9883   -7.2251  -15.7724 C   0  0  0  0  0  0  0  0  0  0  0  0
   19.9668   -7.2089  -17.0438 O   0  0  0  0  0  0  0  0  0  0  0  0
   14.8219   -6.8434  -16.5852 N   0  0  0  0  0  0  0  0  0  0  0  0
   15.3415   -8.0425  -15.9902 C   0  0  0  0  0  0  0  0  0  0  0  0
   14.5831   -9.0268  -15.8634 O   0  0  0  0  0  0  0  0  0  0  0  0
   16.7282   -8.1093  -15.5427 C   0  0  0  0  0  0  0  0  0  0  0  0
   17.5219   -6.8417  -15.6781 C   0  0  2  0  0  0  0  0  0  0  0  0
   18.8196   -7.0578  -14.9966 N   0  0  0  0  0  0  0  0  0  0  0  0
   16.9343   -5.6723  -15.0074 C   0  0  0  0  0  0  0  0  0  0  0  0
   16.2473   -4.7245  -15.7283 O   0  0  0  0  0  0  0  0  0  0  0  0
   17.0504   -5.5243  -13.7799 O   0  0  0  0  0  0  0  0  0  0  0  0
  2  1  1  0
  3  2  2  0
  4  3  1  0
  5 11  1  0
  5  4  2  0
  6  5  1  0
  7  6  1  0
  7  8  1  6
  9  7  1  0
  9 10  2  0
 11 12  2  0
 12  2  1  0
 13 14  1  0
 14 15  2  0
 14 16  1  0
 16 17  1  0
 18 17  1  6
 18 19  1  0
 19  9  1  0
 20 18  1  0
 21 20  2  0
 22 23  1  0
 23 24  2  0
 25 23  1  0
 26 25  1  1
 26 27  1  0
 26 28  1  0
 27 20  1  0
 28 29  1  0
 30 28  2  0
M  END
$$$$
