YQN.pdb
     RDKit          3D

 30 30  0  0  1  0  0  0  0  0999 V2000
   28.6814  -19.7625   -3.9712 O   0  0  0  0  0  0  0  0  0  0  0  0
   28.3317  -19.7075   -5.3192 C   0  0  0  0  0  0  0  0  0  0  0  0
   27.0290  -19.8014   -5.7534 C   0  0  0  0  0  0  0  0  0  0  0  0
   26.7103  -19.7444   -7.0870 C   0  0  0  0  0  0  0  0  0  0  0  0
   27.7076  -19.5875   -8.0562 C   0  0  0  0  0  0  0  0  0  0  0  0
   27.3126  -19.5302   -9.4729 C   0  0  0  0  0  0  0  0  0  0  0  0
   26.2606  -20.5784   -9.7277 C   0  0  2  0  0  0  0  0  0  0  0  0
   26.8794  -21.8825   -9.6644 N   0  0  0  0  0  0  0  0  0  0  0  0
   25.5606  -20.3922  -11.0082 C   0  0  0  0  0  0  0  0  0  0  0  0
   24.8578  -19.3435  -11.2059 O   0  0  0  0  0  0  0  0  0  0  0  0
   29.0039  -19.4937   -7.6291 C   0  0  0  0  0  0  0  0  0  0  0  0
   29.3157  -19.5533   -6.2671 C   0  0  0  0  0  0  0  0  0  0  0  0
   27.6049  -22.7990  -16.0670 N   0  0  0  0  0  0  0  0  0  0  0  0
   27.9097  -21.4666  -15.6146 C   0  0  0  0  0  0  0  0  0  0  0  0
   28.9241  -20.8742  -16.0172 O   0  0  0  0  0  0  0  0  0  0  0  0
   26.9832  -20.8397  -14.6703 C   0  0  0  0  0  0  0  0  0  0  0  0
   25.8014  -21.7200  -14.4048 C   0  0  0  0  0  0  0  0  0  0  0  0
   24.9291  -21.0814  -13.3505 C   0  0  2  0  0  0  0  0  0  0  0  0
   25.6180  -21.3284  -12.0719 N   0  0  0  0  0  0  0  0  0  0  0  0
   23.5951  -21.7789  -13.3375 C   0  0  0  0  0  0  0  0  0  0  0  0
   23.4640  -22.9370  -12.8286 O   0  0  0  0  0  0  0  0  0  0  0  0
   18.7816  -22.4170  -12.2341 N   0  0  0  0  0  0  0  0  0  0  0  0
   19.8374  -21.8837  -11.4201 C   0  0  0  0  0  0  0  0  0  0  0  0
   19.7100  -21.9116  -10.1779 O   0  0  0  0  0  0  0  0  0  0  0  0
   21.0354  -21.3203  -12.0325 C   0  0  0  0  0  0  0  0  0  0  0  0
   21.1271  -21.4433  -13.5263 C   0  0  2  0  0  0  0  0  0  0  0  0
   22.5104  -21.0824  -13.9155 N   0  0  0  0  0  0  0  0  0  0  0  0
   20.2700  -20.5120  -14.2750 C   0  0  0  0  0  0  0  0  0  0  0  0
   19.6156  -20.9236  -15.4117 O   0  0  0  0  0  0  0  0  0  0  0  0
   20.1252  -19.3399  -13.8908 O   0  0  0  0  0  0  0  0  0  0  0  0
  2  1  1  0
  3  2  2  0
  4  3  1  0
  5 11  1  0
  5  4  2  0
  6  5  1  0
  7  6  1  0
  7  8  1  6
  9  7  1  0
  9 10  2  0
 11 12  2  0
 12  2  1  0
 13 14  1  0
 14 15  2  0
 14 16  1  0
 16 17  1  0
 18 17  1  6
 18 19  1  0
 19  9  1  0
 20 18  1  0
 21 20  2  0
 22 23  1  0
 23 24  2  0
 25 23  1  0
 26 25  1  1
 26 27  1  0
 26 28  1  0
 27 20  1  0
 28 29  1  0
 30 28  2  0
M  END
$$$$
