YQN.pdb
     RDKit          3D

 30 30  0  0  1  0  0  0  0  0999 V2000
   12.5296  -25.7937   -0.7616 O   0  0  0  0  0  0  0  0  0  0  0  0
   13.5477  -25.5137   -1.6713 C   0  0  0  0  0  0  0  0  0  0  0  0
   13.3257  -25.4075   -3.0255 C   0  0  0  0  0  0  0  0  0  0  0  0
   14.3455  -25.1308   -3.9012 C   0  0  0  0  0  0  0  0  0  0  0  0
   15.6544  -24.9462   -3.4417 C   0  0  0  0  0  0  0  0  0  0  0  0
   16.7116  -24.6495   -4.4220 C   0  0  0  0  0  0  0  0  0  0  0  0
   17.3266  -25.9458   -4.8818 C   0  0  2  0  0  0  0  0  0  0  0  0
   18.1482  -26.4737   -3.8169 N   0  0  0  0  0  0  0  0  0  0  0  0
   18.1041  -25.8059   -6.1230 C   0  0  0  0  0  0  0  0  0  0  0  0
   19.3789  -25.7341   -6.0740 O   0  0  0  0  0  0  0  0  0  0  0  0
   15.8796  -25.0508   -2.0963 C   0  0  0  0  0  0  0  0  0  0  0  0
   14.8319  -25.3333   -1.2142 C   0  0  0  0  0  0  0  0  0  0  0  0
   18.7650  -28.9004  -11.1131 N   0  0  0  0  0  0  0  0  0  0  0  0
   19.9169  -28.5803  -10.3110 C   0  0  0  0  0  0  0  0  0  0  0  0
   21.0177  -29.1080  -10.5388 O   0  0  0  0  0  0  0  0  0  0  0  0
   19.7432  -27.6136   -9.2255 C   0  0  0  0  0  0  0  0  0  0  0  0
   18.3368  -27.1024   -9.1745 C   0  0  0  0  0  0  0  0  0  0  0  0
   18.3363  -25.6933   -8.6317 C   0  0  2  0  0  0  0  0  0  0  0  0
   17.5134  -25.7456   -7.4109 N   0  0  0  0  0  0  0  0  0  0  0  0
   17.6758  -24.7872   -9.6361 C   0  0  0  0  0  0  0  0  0  0  0  0
   16.4148  -24.6224   -9.6431 O   0  0  0  0  0  0  0  0  0  0  0  0
   17.7838  -20.4416  -11.7399 N   0  0  0  0  0  0  0  0  0  0  0  0
   18.9485  -21.0874  -12.2769 C   0  0  0  0  0  0  0  0  0  0  0  0
   19.8649  -20.3797  -12.7450 O   0  0  0  0  0  0  0  0  0  0  0  0
   19.0586  -22.5419  -12.2756 C   0  0  0  0  0  0  0  0  0  0  0  0
   17.9327  -23.2834  -11.6140 C   0  0  2  0  0  0  0  0  0  0  0  0
   18.5259  -24.1381  -10.5591 N   0  0  0  0  0  0  0  0  0  0  0  0
   17.2092  -24.2156  -12.4916 C   0  0  0  0  0  0  0  0  0  0  0  0
   17.7826  -25.4056  -12.8723 O   0  0  0  0  0  0  0  0  0  0  0  0
   16.0695  -23.9408  -12.9014 O   0  0  0  0  0  0  0  0  0  0  0  0
  2  1  1  0
  3  2  2  0
  4  3  1  0
  5 11  1  0
  5  4  2  0
  6  5  1  0
  7  6  1  0
  7  8  1  1
  9  7  1  0
  9 10  2  0
 11 12  2  0
 12  2  1  0
 13 14  1  0
 14 15  2  0
 14 16  1  0
 16 17  1  0
 18 17  1  6
 18 19  1  0
 19  9  1  0
 20 18  1  0
 21 20  2  0
 22 23  1  0
 23 24  2  0
 25 23  1  0
 26 25  1  6
 26 27  1  0
 26 28  1  0
 27 20  1  0
 28 29  1  0
 30 28  2  0
M  END
$$$$
