YQN.pdb
     RDKit          3D

 30 30  0  0  1  0  0  0  0  0999 V2000
   20.8375  -16.7698  -20.6008 O   0  0  0  0  0  0  0  0  0  0  0  0
   20.6166  -15.4315  -20.2801 C   0  0  0  0  0  0  0  0  0  0  0  0
   21.6366  -14.5681  -19.9509 C   0  0  0  0  0  0  0  0  0  0  0  0
   21.3930  -13.2540  -19.6389 C   0  0  0  0  0  0  0  0  0  0  0  0
   20.0892  -12.7457  -19.6454 C   0  0  0  0  0  0  0  0  0  0  0  0
   19.8822  -11.3287  -19.3052 C   0  0  0  0  0  0  0  0  0  0  0  0
   19.8739  -11.1845  -17.8054 C   0  0  2  0  0  0  0  0  0  0  0  0
   18.7354  -11.8996  -17.2762 N   0  0  0  0  0  0  0  0  0  0  0  0
   19.8637   -9.7817  -17.3620 C   0  0  0  0  0  0  0  0  0  0  0  0
   18.7984   -9.0846  -17.4710 O   0  0  0  0  0  0  0  0  0  0  0  0
   19.0721  -13.6005  -19.9721 C   0  0  0  0  0  0  0  0  0  0  0  0
   19.3335  -14.9375  -20.2881 C   0  0  0  0  0  0  0  0  0  0  0  0
   22.1652   -7.7674  -12.3289 N   0  0  0  0  0  0  0  0  0  0  0  0
   20.8363   -8.2511  -12.5987 C   0  0  0  0  0  0  0  0  0  0  0  0
   20.0823   -8.5910  -11.6724 O   0  0  0  0  0  0  0  0  0  0  0  0
   20.4094   -8.3241  -13.9971 C   0  0  0  0  0  0  0  0  0  0  0  0
   21.4575   -7.7730  -14.9136 C   0  0  0  0  0  0  0  0  0  0  0  0
   20.9209   -7.7405  -16.3247 C   0  0  2  0  0  0  0  0  0  0  0  0
   20.9933   -9.1324  -16.8019 N   0  0  0  0  0  0  0  0  0  0  0  0
   21.8244   -6.8802  -17.1671 C   0  0  0  0  0  0  0  0  0  0  0  0
   22.8500   -7.3679  -17.7395 O   0  0  0  0  0  0  0  0  0  0  0  0
   23.5287   -3.1752  -20.2609 N   0  0  0  0  0  0  0  0  0  0  0  0
   22.8736   -4.4114  -20.5839 C   0  0  0  0  0  0  0  0  0  0  0  0
   22.8539   -4.7867  -21.7750 O   0  0  0  0  0  0  0  0  0  0  0  0
   22.2435   -5.2131  -19.5408 C   0  0  0  0  0  0  0  0  0  0  0  0
   22.2800   -4.6323  -18.1565 C   0  0  2  0  0  0  0  0  0  0  0  0
   21.4725   -5.5170  -17.2844 N   0  0  0  0  0  0  0  0  0  0  0  0
   21.6573   -3.3063  -18.0280 C   0  0  0  0  0  0  0  0  0  0  0  0
   22.4321   -2.1721  -17.9729 O   0  0  0  0  0  0  0  0  0  0  0  0
   20.4222   -3.1924  -17.9674 O   0  0  0  0  0  0  0  0  0  0  0  0
  2  1  1  0
  3  2  2  0
  4  3  1  0
  5 11  1  0
  5  4  2  0
  6  5  1  0
  7  6  1  0
  7  8  1  6
  9  7  1  0
  9 10  2  0
 11 12  2  0
 12  2  1  0
 13 14  1  0
 14 15  2  0
 14 16  1  0
 16 17  1  0
 18 17  1  1
 18 19  1  0
 19  9  1  0
 20 18  1  0
 21 20  2  0
 22 23  1  0
 23 24  2  0
 25 23  1  0
 26 25  1  6
 26 27  1  0
 26 28  1  0
 27 20  1  0
 28 29  1  0
 30 28  2  0
M  END
$$$$
