YQN.pdb
     RDKit          3D

 30 30  0  0  1  0  0  0  0  0999 V2000
   31.9939  -28.2329  -21.4341 O   0  0  0  0  0  0  0  0  0  0  0  0
   31.0094  -27.6691  -20.6245 C   0  0  0  0  0  0  0  0  0  0  0  0
   30.1762  -28.4253  -19.8318 C   0  0  0  0  0  0  0  0  0  0  0  0
   29.2141  -27.8459  -19.0430 C   0  0  0  0  0  0  0  0  0  0  0  0
   29.0479  -26.4566  -19.0191 C   0  0  0  0  0  0  0  0  0  0  0  0
   28.0027  -25.8853  -18.1545 C   0  0  0  0  0  0  0  0  0  0  0  0
   28.6551  -25.2707  -16.9434 C   0  0  2  0  0  0  0  0  0  0  0  0
   29.0741  -26.3295  -16.0539 N   0  0  0  0  0  0  0  0  0  0  0  0
   27.7843  -24.3130  -16.2442 C   0  0  0  0  0  0  0  0  0  0  0  0
   27.0739  -24.6993  -15.2548 O   0  0  0  0  0  0  0  0  0  0  0  0
   29.8740  -25.7011  -19.8055 C   0  0  0  0  0  0  0  0  0  0  0  0
   30.8506  -26.3035  -20.6050 C   0  0  0  0  0  0  0  0  0  0  0  0
   28.2864  -18.1277  -16.6849 N   0  0  0  0  0  0  0  0  0  0  0  0
   27.3694  -18.2499  -15.5817 C   0  0  0  0  0  0  0  0  0  0  0  0
   27.0269  -17.2530  -14.9253 O   0  0  0  0  0  0  0  0  0  0  0  0
   26.8574  -19.5847  -15.2669 C   0  0  0  0  0  0  0  0  0  0  0  0
   27.5048  -20.6295  -16.1221 C   0  0  0  0  0  0  0  0  0  0  0  0
   26.9389  -21.9846  -15.7705 C   0  0  2  0  0  0  0  0  0  0  0  0
   27.6798  -22.9457  -16.6058 N   0  0  0  0  0  0  0  0  0  0  0  0
   25.4830  -22.0157  -16.1520 C   0  0  0  0  0  0  0  0  0  0  0  0
   25.1241  -22.0675  -17.3710 O   0  0  0  0  0  0  0  0  0  0  0  0
   20.2583  -22.1932  -15.4550 N   0  0  0  0  0  0  0  0  0  0  0  0
   20.9352  -22.5206  -14.2317 C   0  0  0  0  0  0  0  0  0  0  0  0
   20.2558  -22.8834  -13.2485 O   0  0  0  0  0  0  0  0  0  0  0  0
   22.3882  -22.4310  -14.1396 C   0  0  0  0  0  0  0  0  0  0  0  0
   23.1011  -22.0334  -15.4000 C   0  0  2  0  0  0  0  0  0  0  0  0
   24.5495  -21.9847  -15.0921 N   0  0  0  0  0  0  0  0  0  0  0  0
   22.7753  -20.6870  -15.8936 C   0  0  0  0  0  0  0  0  0  0  0  0
   21.8980  -20.5184  -16.9385 O   0  0  0  0  0  0  0  0  0  0  0  0
   23.2883  -19.6829  -15.3734 O   0  0  0  0  0  0  0  0  0  0  0  0
  2  1  1  0
  3  2  2  0
  4  3  1  0
  5 11  1  0
  5  4  2  0
  6  5  1  0
  7  6  1  0
  7  8  1  1
  9  7  1  0
  9 10  2  0
 11 12  2  0
 12  2  1  0
 13 14  1  0
 14 15  2  0
 14 16  1  0
 16 17  1  0
 18 17  1  6
 18 19  1  0
 19  9  1  0
 20 18  1  0
 21 20  2  0
 22 23  1  0
 23 24  2  0
 25 23  1  0
 26 25  1  1
 26 27  1  0
 26 28  1  0
 27 20  1  0
 28 29  1  0
 30 28  2  0
M  END
$$$$
