YQN.pdb
     RDKit          3D

 30 30  0  0  1  0  0  0  0  0999 V2000
   38.8322   -8.6714  -12.0928 O   0  0  0  0  0  0  0  0  0  0  0  0
   37.8911   -8.5321  -13.1114 C   0  0  0  0  0  0  0  0  0  0  0  0
   38.1711   -8.8247  -14.4268 C   0  0  0  0  0  0  0  0  0  0  0  0
   37.2267   -8.6791  -15.4118 C   0  0  0  0  0  0  0  0  0  0  0  0
   35.9383   -8.2250  -15.1080 C   0  0  0  0  0  0  0  0  0  0  0  0
   34.9619   -8.0882  -16.2010 C   0  0  0  0  0  0  0  0  0  0  0  0
   34.3839   -9.4449  -16.5099 C   0  0  2  0  0  0  0  0  0  0  0  0
   35.4571  -10.3280  -16.9049 N   0  0  0  0  0  0  0  0  0  0  0  0
   33.3342   -9.4026  -17.5398 C   0  0  0  0  0  0  0  0  0  0  0  0
   33.4616  -10.0879  -18.6108 O   0  0  0  0  0  0  0  0  0  0  0  0
   35.6556   -7.9330  -13.8017 C   0  0  0  0  0  0  0  0  0  0  0  0
   36.6268   -8.0855  -12.8070 C   0  0  0  0  0  0  0  0  0  0  0  0
   29.5802  -12.4193  -18.7691 N   0  0  0  0  0  0  0  0  0  0  0  0
   29.4034  -11.7204  -17.5229 C   0  0  0  0  0  0  0  0  0  0  0  0
   28.7292  -12.2159  -16.6053 O   0  0  0  0  0  0  0  0  0  0  0  0
   30.0465  -10.4133  -17.3784 C   0  0  0  0  0  0  0  0  0  0  0  0
   30.6379   -9.9536  -18.6750 C   0  0  0  0  0  0  0  0  0  0  0  0
   31.1693   -8.5495  -18.5122 C   0  0  2  0  0  0  0  0  0  0  0  0
   32.1521   -8.6287  -17.4176 N   0  0  0  0  0  0  0  0  0  0  0  0
   30.0374   -7.6479  -18.0976 C   0  0  0  0  0  0  0  0  0  0  0  0
   29.7672   -7.4543  -16.8701 O   0  0  0  0  0  0  0  0  0  0  0  0
   27.4136   -2.6515  -20.2588 N   0  0  0  0  0  0  0  0  0  0  0  0
   27.4864   -3.7571  -19.3454 C   0  0  0  0  0  0  0  0  0  0  0  0
   26.6920   -3.7931  -18.3823 O   0  0  0  0  0  0  0  0  0  0  0  0
   28.4692   -4.8174  -19.5391 C   0  0  0  0  0  0  0  0  0  0  0  0
   28.2089   -6.0955  -18.7951 C   0  0  2  0  0  0  0  0  0  0  0  0
   29.3014   -7.0363  -19.1369 N   0  0  0  0  0  0  0  0  0  0  0  0
   26.9747   -6.7943  -19.1836 C   0  0  0  0  0  0  0  0  0  0  0  0
   25.7955   -6.5528  -18.5193 O   0  0  0  0  0  0  0  0  0  0  0  0
   26.9801   -7.6126  -20.1176 O   0  0  0  0  0  0  0  0  0  0  0  0
  2  1  1  0
  3  2  2  0
  4  3  1  0
  5 11  1  0
  5  4  2  0
  6  5  1  0
  7  6  1  0
  7  8  1  6
  9  7  1  0
  9 10  2  0
 11 12  2  0
 12  2  1  0
 13 14  1  0
 14 15  2  0
 14 16  1  0
 16 17  1  0
 18 17  1  1
 18 19  1  0
 19  9  1  0
 20 18  1  0
 21 20  2  0
 22 23  1  0
 23 24  2  0
 25 23  1  0
 26 25  1  6
 26 27  1  0
 26 28  1  0
 27 20  1  0
 28 29  1  0
 30 28  2  0
M  END
$$$$
