YQN.pdb
     RDKit          3D

 30 30  0  0  1  0  0  0  0  0999 V2000
   28.2973  -20.7817   -5.7009 O   0  0  0  0  0  0  0  0  0  0  0  0
   27.8430  -20.5577   -6.9994 C   0  0  0  0  0  0  0  0  0  0  0  0
   26.5276  -20.2735   -7.2877 C   0  0  0  0  0  0  0  0  0  0  0  0
   26.1050  -20.0567   -8.5753 C   0  0  0  0  0  0  0  0  0  0  0  0
   27.0052  -20.1181   -9.6450 C   0  0  0  0  0  0  0  0  0  0  0  0
   26.5013  -19.8758  -11.0066 C   0  0  0  0  0  0  0  0  0  0  0  0
   25.8425  -21.1328  -11.5126 C   0  0  2  0  0  0  0  0  0  0  0  0
   26.8136  -22.2026  -11.5026 N   0  0  0  0  0  0  0  0  0  0  0  0
   25.2512  -20.9744  -12.8504 C   0  0  0  0  0  0  0  0  0  0  0  0
   25.8992  -20.3649  -13.7676 O   0  0  0  0  0  0  0  0  0  0  0  0
   28.3138  -20.4002   -9.3629 C   0  0  0  0  0  0  0  0  0  0  0  0
   28.7320  -20.6193   -8.0465 C   0  0  0  0  0  0  0  0  0  0  0  0
   25.5979  -25.3975  -15.5467 N   0  0  0  0  0  0  0  0  0  0  0  0
   24.7649  -24.8042  -16.5602 C   0  0  0  0  0  0  0  0  0  0  0  0
   24.4733  -25.4310  -17.5917 O   0  0  0  0  0  0  0  0  0  0  0  0
   24.2757  -23.4440  -16.3287 C   0  0  0  0  0  0  0  0  0  0  0  0
   24.5297  -23.0089  -14.9186 C   0  0  0  0  0  0  0  0  0  0  0  0
   23.6401  -21.8337  -14.5901 C   0  0  2  0  0  0  0  0  0  0  0  0
   23.9699  -21.4712  -13.2007 N   0  0  0  0  0  0  0  0  0  0  0  0
   22.2038  -22.2790  -14.6584 C   0  0  0  0  0  0  0  0  0  0  0  0
   21.9007  -23.4765  -14.9606 O   0  0  0  0  0  0  0  0  0  0  0  0
   19.2537  -23.8226  -10.8551 N   0  0  0  0  0  0  0  0  0  0  0  0
   19.3919  -22.4674  -11.3091 C   0  0  0  0  0  0  0  0  0  0  0  0
   18.5842  -21.6101  -10.8938 O   0  0  0  0  0  0  0  0  0  0  0  0
   20.4552  -22.0997  -12.2375 C   0  0  0  0  0  0  0  0  0  0  0  0
   20.0118  -21.6936  -13.6136 C   0  0  2  0  0  0  0  0  0  0  0  0
   21.2236  -21.3030  -14.3712 N   0  0  0  0  0  0  0  0  0  0  0  0
   19.1425  -20.5081  -13.6560 C   0  0  0  0  0  0  0  0  0  0  0  0
   19.6837  -19.2459  -13.7174 O   0  0  0  0  0  0  0  0  0  0  0  0
   17.9069  -20.6306  -13.6368 O   0  0  0  0  0  0  0  0  0  0  0  0
  2  1  1  0
  3  2  2  0
  4  3  1  0
  5 11  1  0
  5  4  2  0
  6  5  1  0
  7  6  1  0
  7  8  1  6
  9  7  1  0
  9 10  2  0
 11 12  2  0
 12  2  1  0
 13 14  1  0
 14 15  2  0
 14 16  1  0
 16 17  1  0
 18 17  1  1
 18 19  1  0
 19  9  1  0
 20 18  1  0
 21 20  2  0
 22 23  1  0
 23 24  2  0
 25 23  1  0
 26 25  1  1
 26 27  1  0
 26 28  1  0
 27 20  1  0
 28 29  1  0
 30 28  2  0
M  END
$$$$
