YQN.pdb
     RDKit          3D

 30 30  0  0  1  0  0  0  0  0999 V2000
   29.1226  -20.6709   -3.7657 O   0  0  0  0  0  0  0  0  0  0  0  0
   28.5786  -20.3799   -5.0155 C   0  0  0  0  0  0  0  0  0  0  0  0
   29.2028  -19.5555   -5.9239 C   0  0  0  0  0  0  0  0  0  0  0  0
   28.6463  -19.2844   -7.1487 C   0  0  0  0  0  0  0  0  0  0  0  0
   27.4165  -19.8418   -7.5165 C   0  0  0  0  0  0  0  0  0  0  0  0
   26.8640  -19.5207   -8.8425 C   0  0  0  0  0  0  0  0  0  0  0  0
   26.9032  -20.7597   -9.6990 C   0  0  2  0  0  0  0  0  0  0  0  0
   28.2768  -21.1867   -9.8355 N   0  0  0  0  0  0  0  0  0  0  0  0
   26.2808  -20.5675  -11.0181 C   0  0  0  0  0  0  0  0  0  0  0  0
   26.9941  -20.2067  -12.0151 O   0  0  0  0  0  0  0  0  0  0  0  0
   26.7925  -20.6619   -6.6166 C   0  0  0  0  0  0  0  0  0  0  0  0
   27.3700  -20.9304   -5.3715 C   0  0  0  0  0  0  0  0  0  0  0  0
   25.7032  -23.2783  -15.2993 N   0  0  0  0  0  0  0  0  0  0  0  0
   25.1092  -23.7844  -14.0894 C   0  0  0  0  0  0  0  0  0  0  0  0
   25.0289  -25.0061  -13.8823 O   0  0  0  0  0  0  0  0  0  0  0  0
   24.6092  -22.8103  -13.1176 C   0  0  0  0  0  0  0  0  0  0  0  0
   24.9149  -21.4091  -13.5478 C   0  0  0  0  0  0  0  0  0  0  0  0
   24.2964  -20.4394  -12.5693 C   0  0  2  0  0  0  0  0  0  0  0  0
   24.8981  -20.7645  -11.2645 N   0  0  0  0  0  0  0  0  0  0  0  0
   22.8137  -20.6922  -12.5080 C   0  0  0  0  0  0  0  0  0  0  0  0
   22.3145  -21.4650  -11.6300 O   0  0  0  0  0  0  0  0  0  0  0  0
   19.2736  -18.0610  -11.6723 N   0  0  0  0  0  0  0  0  0  0  0  0
   19.4494  -17.7748  -13.0683 C   0  0  0  0  0  0  0  0  0  0  0  0
   19.0936  -16.6587  -13.5015 O   0  0  0  0  0  0  0  0  0  0  0  0
   20.0324  -18.7685  -13.9629 C   0  0  0  0  0  0  0  0  0  0  0  0
   20.5452  -20.0187  -13.3078 C   0  0  2  0  0  0  0  0  0  0  0  0
   22.0179  -20.0303  -13.4695 N   0  0  0  0  0  0  0  0  0  0  0  0
   20.0882  -21.2713  -13.9282 C   0  0  0  0  0  0  0  0  0  0  0  0
   18.9535  -21.9023  -13.4763 O   0  0  0  0  0  0  0  0  0  0  0  0
   20.7211  -21.7770  -14.8694 O   0  0  0  0  0  0  0  0  0  0  0  0
  2  1  1  0
  3  2  2  0
  4  3  1  0
  5 11  1  0
  5  4  2  0
  6  5  1  0
  7  6  1  0
  7  8  1  6
  9  7  1  0
  9 10  2  0
 11 12  2  0
 12  2  1  0
 13 14  1  0
 14 15  2  0
 14 16  1  0
 16 17  1  0
 18 17  1  6
 18 19  1  0
 19  9  1  0
 20 18  1  0
 21 20  2  0
 22 23  1  0
 23 24  2  0
 25 23  1  0
 26 25  1  6
 26 27  1  0
 26 28  1  0
 27 20  1  0
 28 29  1  0
 30 28  2  0
M  END
$$$$
