YQN.pdb
     RDKit          3D

 30 30  0  0  1  0  0  0  0  0999 V2000
   27.7348  -31.3043  -17.8074 O   0  0  0  0  0  0  0  0  0  0  0  0
   27.7323  -29.9717  -17.3992 C   0  0  0  0  0  0  0  0  0  0  0  0
   28.8480  -29.1691  -17.4751 C   0  0  0  0  0  0  0  0  0  0  0  0
   28.8199  -27.8593  -17.0665 C   0  0  0  0  0  0  0  0  0  0  0  0
   27.6466  -27.2929  -16.5555 C   0  0  0  0  0  0  0  0  0  0  0  0
   27.6690  -25.8831  -16.1330 C   0  0  0  0  0  0  0  0  0  0  0  0
   27.2702  -25.0187  -17.3009 C   0  0  2  0  0  0  0  0  0  0  0  0
   28.3090  -25.0834  -18.3030 N   0  0  0  0  0  0  0  0  0  0  0  0
   26.9973  -23.6245  -16.9185 C   0  0  0  0  0  0  0  0  0  0  0  0
   27.9659  -22.8182  -16.7076 O   0  0  0  0  0  0  0  0  0  0  0  0
   26.5352  -28.0870  -16.4783 C   0  0  0  0  0  0  0  0  0  0  0  0
   26.5768  -29.4204  -16.8979 C   0  0  0  0  0  0  0  0  0  0  0  0
   24.8219  -18.8386  -19.0202 N   0  0  0  0  0  0  0  0  0  0  0  0
   25.9441  -18.5495  -18.1658 C   0  0  0  0  0  0  0  0  0  0  0  0
   26.3846  -17.3930  -18.0632 O   0  0  0  0  0  0  0  0  0  0  0  0
   26.5404  -19.6626  -17.4253 C   0  0  0  0  0  0  0  0  0  0  0  0
   25.8829  -20.9614  -17.7760 C   0  0  0  0  0  0  0  0  0  0  0  0
   25.4613  -21.6666  -16.5090 C   0  0  2  0  0  0  0  0  0  0  0  0
   25.6888  -23.0993  -16.7657 N   0  0  0  0  0  0  0  0  0  0  0  0
   23.9910  -21.4300  -16.2888 C   0  0  0  0  0  0  0  0  0  0  0  0
   23.1186  -21.9727  -17.0382 O   0  0  0  0  0  0  0  0  0  0  0  0
   19.3714  -20.2972  -14.7204 N   0  0  0  0  0  0  0  0  0  0  0  0
   19.9616  -20.9591  -15.8497 C   0  0  0  0  0  0  0  0  0  0  0  0
   19.2100  -21.4866  -16.6964 O   0  0  0  0  0  0  0  0  0  0  0  0
   21.4109  -21.0140  -16.0047 C   0  0  0  0  0  0  0  0  0  0  0  0
   22.2095  -20.2941  -14.9564 C   0  0  2  0  0  0  0  0  0  0  0  0
   23.6398  -20.5812  -15.2155 N   0  0  0  0  0  0  0  0  0  0  0  0
   21.9762  -20.7551  -13.5795 C   0  0  0  0  0  0  0  0  0  0  0  0
   21.6211  -19.8644  -12.5945 O   0  0  0  0  0  0  0  0  0  0  0  0
   22.0967  -21.9560  -13.2871 O   0  0  0  0  0  0  0  0  0  0  0  0
  2  1  1  0
  3  2  2  0
  4  3  1  0
  5 11  1  0
  5  4  2  0
  6  5  1  0
  7  6  1  0
  7  8  1  6
  9  7  1  0
  9 10  2  0
 11 12  2  0
 12  2  1  0
 13 14  1  0
 14 15  2  0
 14 16  1  0
 16 17  1  0
 18 17  1  6
 18 19  1  0
 19  9  1  0
 20 18  1  0
 21 20  2  0
 22 23  1  0
 23 24  2  0
 25 23  1  0
 26 25  1  6
 26 27  1  0
 26 28  1  0
 27 20  1  0
 28 29  1  0
 30 28  2  0
M  END
$$$$
