YQN.pdb
     RDKit          3D

 30 30  0  0  1  0  0  0  0  0999 V2000
   17.7253  -16.7098  -19.7059 O   0  0  0  0  0  0  0  0  0  0  0  0
   18.3654  -15.6759  -19.0247 C   0  0  0  0  0  0  0  0  0  0  0  0
   18.6509  -15.7370  -17.6797 C   0  0  0  0  0  0  0  0  0  0  0  0
   19.2823  -14.7052  -17.0317 C   0  0  0  0  0  0  0  0  0  0  0  0
   19.6592  -13.5483  -17.7231 C   0  0  0  0  0  0  0  0  0  0  0  0
   20.3356  -12.4715  -16.9818 C   0  0  0  0  0  0  0  0  0  0  0  0
   21.7759  -12.4095  -17.4196 C   0  0  2  0  0  0  0  0  0  0  0  0
   22.4301  -13.6408  -17.0406 N   0  0  0  0  0  0  0  0  0  0  0  0
   22.4935  -11.2461  -16.8756 C   0  0  0  0  0  0  0  0  0  0  0  0
   23.0482  -11.3172  -15.7266 O   0  0  0  0  0  0  0  0  0  0  0  0
   19.3774  -13.4833  -19.0603 C   0  0  0  0  0  0  0  0  0  0  0  0
   18.7334  -14.5416  -19.7092 C   0  0  0  0  0  0  0  0  0  0  0  0
   25.6499   -7.2638  -20.0613 N   0  0  0  0  0  0  0  0  0  0  0  0
   25.9966   -8.5865  -19.6106 C   0  0  0  0  0  0  0  0  0  0  0  0
   26.9397   -9.2080  -20.1266 O   0  0  0  0  0  0  0  0  0  0  0  0
   25.2020   -9.1661  -18.5263 C   0  0  0  0  0  0  0  0  0  0  0  0
   24.0996   -8.2430  -18.1085 C   0  0  0  0  0  0  0  0  0  0  0  0
   23.3281   -8.8682  -16.9708 C   0  0  2  0  0  0  0  0  0  0  0  0
   22.6158  -10.0127  -17.5648 N   0  0  0  0  0  0  0  0  0  0  0  0
   22.3235   -7.8701  -16.4602 C   0  0  0  0  0  0  0  0  0  0  0  0
   21.2068   -7.7036  -17.0454 O   0  0  0  0  0  0  0  0  0  0  0  0
   21.3632   -3.4697  -14.1039 N   0  0  0  0  0  0  0  0  0  0  0  0
   20.9710   -3.9488  -15.3994 C   0  0  0  0  0  0  0  0  0  0  0  0
   20.4826   -3.1396  -16.2159 O   0  0  0  0  0  0  0  0  0  0  0  0
   21.1398   -5.3534  -15.7546 C   0  0  0  0  0  0  0  0  0  0  0  0
   21.6927   -6.2399  -14.6759 C   0  0  2  0  0  0  0  0  0  0  0  0
   22.6873   -7.1379  -15.3081 N   0  0  0  0  0  0  0  0  0  0  0  0
   20.7106   -7.1422  -14.0564 C   0  0  0  0  0  0  0  0  0  0  0  0
   19.7952   -7.8165  -14.8293 O   0  0  0  0  0  0  0  0  0  0  0  0
   20.6942   -7.3079  -12.8257 O   0  0  0  0  0  0  0  0  0  0  0  0
  2  1  1  0
  3  2  2  0
  4  3  1  0
  5 11  1  0
  5  4  2  0
  6  5  1  0
  7  6  1  0
  7  8  1  1
  9  7  1  0
  9 10  2  0
 11 12  2  0
 12  2  1  0
 13 14  1  0
 14 15  2  0
 14 16  1  0
 16 17  1  0
 18 17  1  6
 18 19  1  0
 19  9  1  0
 20 18  1  0
 21 20  2  0
 22 23  1  0
 23 24  2  0
 25 23  1  0
 26 25  1  6
 26 27  1  0
 26 28  1  0
 27 20  1  0
 28 29  1  0
 30 28  2  0
M  END
$$$$
