YQN.pdb
     RDKit          3D

 30 30  0  0  1  0  0  0  0  0999 V2000
   29.1115  -14.7988  -18.8522 O   0  0  0  0  0  0  0  0  0  0  0  0
   28.0318  -15.5308  -18.3612 C   0  0  0  0  0  0  0  0  0  0  0  0
   27.7786  -15.6694  -17.0155 C   0  0  0  0  0  0  0  0  0  0  0  0
   26.7082  -16.3957  -16.5569 C   0  0  0  0  0  0  0  0  0  0  0  0
   25.8328  -17.0237  -17.4500 C   0  0  0  0  0  0  0  0  0  0  0  0
   24.6990  -17.7891  -16.9068 C   0  0  0  0  0  0  0  0  0  0  0  0
   25.2161  -19.0812  -16.3294 C   0  0  2  0  0  0  0  0  0  0  0  0
   25.7597  -19.8840  -17.4006 N   0  0  0  0  0  0  0  0  0  0  0  0
   24.1923  -19.8284  -15.5823 C   0  0  0  0  0  0  0  0  0  0  0  0
   23.5018  -20.7286  -16.1702 O   0  0  0  0  0  0  0  0  0  0  0  0
   26.0807  -16.8885  -18.7887 C   0  0  0  0  0  0  0  0  0  0  0  0
   27.1749  -16.1457  -19.2433 C   0  0  0  0  0  0  0  0  0  0  0  0
   23.8561  -20.4433   -9.4308 N   0  0  0  0  0  0  0  0  0  0  0  0
   22.6740  -21.1653   -9.8234 C   0  0  0  0  0  0  0  0  0  0  0  0
   21.9758  -21.7503   -8.9794 O   0  0  0  0  0  0  0  0  0  0  0  0
   22.3271  -21.1814  -11.2455 C   0  0  0  0  0  0  0  0  0  0  0  0
   23.3275  -20.4174  -12.0564 C   0  0  0  0  0  0  0  0  0  0  0  0
   22.8853  -20.3907  -13.5001 C   0  0  2  0  0  0  0  0  0  0  0  0
   23.9141  -19.6100  -14.2089 N   0  0  0  0  0  0  0  0  0  0  0  0
   21.5668  -19.6698  -13.5898 C   0  0  0  0  0  0  0  0  0  0  0  0
   21.4764  -18.4296  -13.3233 O   0  0  0  0  0  0  0  0  0  0  0  0
   17.7835  -18.4522  -17.4699 N   0  0  0  0  0  0  0  0  0  0  0  0
   18.1497  -18.5670  -16.0862 C   0  0  0  0  0  0  0  0  0  0  0  0
   17.9169  -17.6067  -15.3222 O   0  0  0  0  0  0  0  0  0  0  0  0
   18.7812  -19.7817  -15.5830 C   0  0  0  0  0  0  0  0  0  0  0  0
   19.1289  -19.7823  -14.1221 C   0  0  2  0  0  0  0  0  0  0  0  0
   20.4493  -20.4398  -13.9822 N   0  0  0  0  0  0  0  0  0  0  0  0
   18.2233  -20.5712  -13.2736 C   0  0  0  0  0  0  0  0  0  0  0  0
   17.0275  -20.0438  -12.8473 O   0  0  0  0  0  0  0  0  0  0  0  0
   18.5261  -21.7256  -12.9300 O   0  0  0  0  0  0  0  0  0  0  0  0
  2  1  1  0
  3  2  2  0
  4  3  1  0
  5 11  1  0
  5  4  2  0
  6  5  1  0
  7  6  1  0
  7  8  1  6
  9  7  1  0
  9 10  2  0
 11 12  2  0
 12  2  1  0
 13 14  1  0
 14 15  2  0
 14 16  1  0
 16 17  1  0
 18 17  1  1
 18 19  1  0
 19  9  1  0
 20 18  1  0
 21 20  2  0
 22 23  1  0
 23 24  2  0
 25 23  1  0
 26 25  1  6
 26 27  1  0
 26 28  1  0
 27 20  1  0
 28 29  1  0
 30 28  2  0
M  END
$$$$
