FWF.pdb
     RDKit          3D

 37 40  0  0  1  0  0  0  0  0999 V2000
    9.6256  -16.2049   19.5060 N   0  0  0  0  0  0  0  0  0  0  0  0
   10.5570  -15.3366   20.1594 C   0  0  1  0  0  0  0  0  0  0  0  0
   10.2551  -13.8746   19.8943 C   0  0  0  0  0  0  0  0  0  0  0  0
    9.3823  -13.7258   18.6882 C   0  0  0  0  0  0  0  0  0  0  0  0
    9.9362  -13.6317   17.4369 C   0  0  0  0  0  0  0  0  0  0  0  0
    9.0843  -13.4910   16.3429 C   0  0  0  0  0  0  0  0  0  0  0  0
    7.7218  -13.4488   16.5266 C   0  0  0  0  0  0  0  0  0  0  0  0
    7.1868  -13.5450   17.7902 C   0  0  0  0  0  0  0  0  0  0  0  0
    7.9972  -13.6847   18.8936 C   0  0  0  0  0  0  0  0  0  0  0  0
   10.5198  -15.5507   21.6273 C   0  0  0  0  0  0  0  0  0  0  0  0
   11.2849  -14.8952   22.4116 O   0  0  0  0  0  0  0  0  0  0  0  0
    9.6434  -16.4799   22.2392 N   0  0  0  0  0  0  0  0  0  0  0  0
    9.3555  -16.3476   23.6724 C   0  0  1  0  0  0  0  0  0  0  0  0
    7.8588  -16.5625   23.7623 C   0  0  0  0  0  0  0  0  0  0  0  0
    7.1937  -15.8111   24.8365 C   0  0  0  0  0  0  0  0  0  0  0  0
    6.4102  -16.2842   25.8665 C   0  0  0  0  0  0  0  0  0  0  0  0
    5.9640  -15.2886   26.6394 N   0  0  0  0  0  0  0  0  0  0  0  0
    6.4512  -14.1371   26.1252 C   0  0  0  0  0  0  0  0  0  0  0  0
    6.2841  -12.8213   26.5538 C   0  0  0  0  0  0  0  0  0  0  0  0
    6.8885  -11.8039   25.8553 C   0  0  0  0  0  0  0  0  0  0  0  0
    7.6568  -12.0791   24.7363 C   0  0  0  0  0  0  0  0  0  0  0  0
    7.7985  -13.3920   24.3440 C   0  0  0  0  0  0  0  0  0  0  0  0
    7.2044  -14.4290   25.0250 C   0  0  0  0  0  0  0  0  0  0  0  0
   10.1686  -17.3161   24.3903 C   0  0  0  0  0  0  0  0  0  0  0  0
   10.5005  -18.4084   23.8392 O   0  0  0  0  0  0  0  0  0  0  0  0
   10.6205  -17.0856   25.7085 N   0  0  0  0  0  0  0  0  0  0  0  0
   11.4622  -18.0382   26.4199 C   0  0  1  0  0  0  0  0  0  0  0  0
   12.1296  -17.2292   27.5329 C   0  0  0  0  0  0  0  0  0  0  0  0
   11.3464  -16.0743   27.9687 C   0  0  0  0  0  0  0  0  0  0  0  0
   11.3409  -14.9084   27.2383 C   0  0  0  0  0  0  0  0  0  0  0  0
   10.5973  -13.7955   27.6413 C   0  0  0  0  0  0  0  0  0  0  0  0
    9.8406  -13.8562   28.8071 C   0  0  0  0  0  0  0  0  0  0  0  0
    9.8404  -15.0235   29.5469 C   0  0  0  0  0  0  0  0  0  0  0  0
   10.5881  -16.1156   29.1246 C   0  0  0  0  0  0  0  0  0  0  0  0
   10.7671  -19.2184   26.9052 C   0  0  0  0  0  0  0  0  0  0  0  0
   11.4607  -20.2965   27.4268 O   0  0  0  0  0  0  0  0  0  0  0  0
    9.5200  -19.2882   26.8621 O   0  0  0  0  0  0  0  0  0  0  0  0
  2  1  1  6
  2  3  1  0
  3  4  1  0
  4  5  2  0
  5  6  1  0
  7  6  2  0
  8  7  1  0
  9  4  1  0
  9  8  2  0
 10 11  2  0
 10  2  1  0
 12 10  1  0
 13 24  1  0
 13 12  1  0
 13 14  1  6
 15 23  1  0
 15 14  1  0
 16 15  2  0
 17 16  1  0
 17 18  1  0
 18 23  2  0
 19 18  1  0
 19 20  2  0
 20 21  1  0
 21 22  2  0
 23 22  1  0
 24 25  2  0
 26 27  1  0
 26 24  1  0
 27 28  1  1
 28 29  1  0
 29 34  1  0
 30 29  2  0
 30 31  1  0
 31 32  2  0
 32 33  1  0
 34 33  2  0
 35 36  1  0
 35 27  1  0
 37 35  2  0
M  END
$$$$
