FWF.pdb
     RDKit          3D

 37 40  0  0  1  0  0  0  0  0999 V2000
    5.8073  -16.7234   20.8846 N   0  0  0  0  0  0  0  0  0  0  0  0
    6.9451  -16.4958   21.7224 C   0  0  1  0  0  0  0  0  0  0  0  0
    7.2809  -15.0218   21.8388 C   0  0  0  0  0  0  0  0  0  0  0  0
    7.8407  -14.5044   20.5514 C   0  0  0  0  0  0  0  0  0  0  0  0
    8.9350  -15.1020   19.9796 C   0  0  0  0  0  0  0  0  0  0  0  0
    9.4238  -14.5839   18.7817 C   0  0  0  0  0  0  0  0  0  0  0  0
    8.8146  -13.4984   18.1964 C   0  0  0  0  0  0  0  0  0  0  0  0
    7.7181  -12.9140   18.7865 C   0  0  0  0  0  0  0  0  0  0  0  0
    7.2080  -13.3985   19.9692 C   0  0  0  0  0  0  0  0  0  0  0  0
    6.6915  -17.0148   23.0893 C   0  0  0  0  0  0  0  0  0  0  0  0
    5.5692  -16.8311   23.6695 O   0  0  0  0  0  0  0  0  0  0  0  0
    7.6645  -17.7377   23.8217 N   0  0  0  0  0  0  0  0  0  0  0  0
    7.6659  -17.6438   25.2865 C   0  0  1  0  0  0  0  0  0  0  0  0
    7.6656  -19.0884   25.7418 C   0  0  0  0  0  0  0  0  0  0  0  0
    8.8811  -19.8409   25.3996 C   0  0  0  0  0  0  0  0  0  0  0  0
    9.9942  -20.0855   26.1740 C   0  0  0  0  0  0  0  0  0  0  0  0
   10.9085  -20.7967   25.5062 N   0  0  0  0  0  0  0  0  0  0  0  0
   10.4064  -21.0322   24.2733 C   0  0  0  0  0  0  0  0  0  0  0  0
   10.9579  -21.7249   23.1969 C   0  0  0  0  0  0  0  0  0  0  0  0
   10.2438  -21.8313   22.0276 C   0  0  0  0  0  0  0  0  0  0  0  0
    8.9884  -21.2572   21.9160 C   0  0  0  0  0  0  0  0  0  0  0  0
    8.4771  -20.5806   23.0017 C   0  0  0  0  0  0  0  0  0  0  0  0
    9.1708  -20.4594   24.1833 C   0  0  0  0  0  0  0  0  0  0  0  0
    8.8241  -16.8630   25.6905 C   0  0  0  0  0  0  0  0  0  0  0  0
    9.7955  -16.6976   24.8930 O   0  0  0  0  0  0  0  0  0  0  0  0
    8.9154  -16.2612   26.9651 N   0  0  0  0  0  0  0  0  0  0  0  0
   10.0914  -15.5139   27.3899 C   0  0  1  0  0  0  0  0  0  0  0  0
    9.5435  -14.2636   28.0791 C   0  0  0  0  0  0  0  0  0  0  0  0
    8.3370  -13.7284   27.4503 C   0  0  0  0  0  0  0  0  0  0  0  0
    8.0755  -13.9537   26.1185 C   0  0  0  0  0  0  0  0  0  0  0  0
    6.9265  -13.4493   25.5025 C   0  0  0  0  0  0  0  0  0  0  0  0
    6.0184  -12.7000   26.2435 C   0  0  0  0  0  0  0  0  0  0  0  0
    6.2733  -12.4688   27.5820 C   0  0  0  0  0  0  0  0  0  0  0  0
    7.4227  -12.9813   28.1705 C   0  0  0  0  0  0  0  0  0  0  0  0
   11.0218  -16.2642   28.2163 C   0  0  0  0  0  0  0  0  0  0  0  0
   10.7141  -17.5342   28.6722 O   0  0  0  0  0  0  0  0  0  0  0  0
   12.1275  -15.7775   28.5369 O   0  0  0  0  0  0  0  0  0  0  0  0
  2  1  1  6
  2  3  1  0
  3  4  1  0
  4  5  2  0
  5  6  1  0
  7  6  2  0
  8  7  1  0
  9  4  1  0
  9  8  2  0
 10 11  2  0
 10  2  1  0
 12 10  1  0
 13 24  1  0
 13 12  1  0
 13 14  1  1
 15 23  1  0
 15 14  1  0
 16 15  2  0
 17 16  1  0
 17 18  1  0
 18 23  2  0
 19 18  1  0
 19 20  2  0
 20 21  1  0
 21 22  2  0
 23 22  1  0
 24 25  2  0
 26 27  1  0
 26 24  1  0
 27 28  1  1
 28 29  1  0
 29 34  1  0
 30 29  2  0
 30 31  1  0
 31 32  2  0
 32 33  1  0
 34 33  2  0
 35 36  1  0
 35 27  1  0
 37 35  2  0
M  END
$$$$
