FWF.pdb
     RDKit          3D

 37 40  0  0  1  0  0  0  0  0999 V2000
    5.5992  -18.7982   23.7619 N   0  0  0  0  0  0  0  0  0  0  0  0
    6.0995  -18.7265   22.4230 C   0  0  1  0  0  0  0  0  0  0  0  0
    5.1359  -18.0165   21.4922 C   0  0  0  0  0  0  0  0  0  0  0  0
    3.8520  -18.7766   21.3812 C   0  0  0  0  0  0  0  0  0  0  0  0
    2.8641  -18.3515   20.5299 C   0  0  0  0  0  0  0  0  0  0  0  0
    1.6837  -19.0892   20.4618 C   0  0  0  0  0  0  0  0  0  0  0  0
    1.5250  -20.2156   21.2353 C   0  0  0  0  0  0  0  0  0  0  0  0
    2.5284  -20.6248   22.0826 C   0  0  0  0  0  0  0  0  0  0  0  0
    3.7073  -19.9211   22.1759 C   0  0  0  0  0  0  0  0  0  0  0  0
    7.3881  -17.9912   22.3922 C   0  0  0  0  0  0  0  0  0  0  0  0
    8.0359  -17.8360   21.3030 O   0  0  0  0  0  0  0  0  0  0  0  0
    7.9678  -17.4223   23.5524 N   0  0  0  0  0  0  0  0  0  0  0  0
    9.2006  -16.6370   23.4187 C   0  0  1  0  0  0  0  0  0  0  0  0
    8.7860  -15.2394   23.8297 C   0  0  0  0  0  0  0  0  0  0  0  0
    7.9163  -14.5483   22.8670 C   0  0  0  0  0  0  0  0  0  0  0  0
    6.5609  -14.3115   22.9401 C   0  0  0  0  0  0  0  0  0  0  0  0
    6.1178  -13.6646   21.8571 N   0  0  0  0  0  0  0  0  0  0  0  0
    7.1834  -13.4648   21.0495 C   0  0  0  0  0  0  0  0  0  0  0  0
    7.2624  -12.8408   19.8056 C   0  0  0  0  0  0  0  0  0  0  0  0
    8.4776  -12.7593   19.1693 C   0  0  0  0  0  0  0  0  0  0  0  0
    9.6148  -13.2906   19.7547 C   0  0  0  0  0  0  0  0  0  0  0  0
    9.4964  -13.8997   20.9848 C   0  0  0  0  0  0  0  0  0  0  0  0
    8.2924  -13.9947   21.6431 C   0  0  0  0  0  0  0  0  0  0  0  0
   10.2238  -17.2531   24.2481 C   0  0  0  0  0  0  0  0  0  0  0  0
   11.0017  -18.1282   23.7623 O   0  0  0  0  0  0  0  0  0  0  0  0
   10.3966  -16.9074   25.6067 N   0  0  0  0  0  0  0  0  0  0  0  0
   11.5204  -17.3932   26.3961 C   0  0  1  0  0  0  0  0  0  0  0  0
   12.1087  -16.1489   27.0625 C   0  0  0  0  0  0  0  0  0  0  0  0
   11.1039  -15.2798   27.6727 C   0  0  0  0  0  0  0  0  0  0  0  0
   10.5165  -14.2653   26.9525 C   0  0  0  0  0  0  0  0  0  0  0  0
    9.5541  -13.4260   27.5211 C   0  0  0  0  0  0  0  0  0  0  0  0
    9.1729  -13.6111   28.8461 C   0  0  0  0  0  0  0  0  0  0  0  0
    9.7579  -14.6279   29.5769 C   0  0  0  0  0  0  0  0  0  0  0  0
   10.7121  -15.4483   28.9883 C   0  0  0  0  0  0  0  0  0  0  0  0
   11.1890  -18.4477   27.3393 C   0  0  0  0  0  0  0  0  0  0  0  0
    9.8822  -18.8671   27.5175 O   0  0  0  0  0  0  0  0  0  0  0  0
   12.0811  -19.0033   28.0158 O   0  0  0  0  0  0  0  0  0  0  0  0
  2  1  1  1
  2  3  1  0
  3  4  1  0
  4  5  2  0
  5  6  1  0
  7  6  2  0
  8  7  1  0
  9  4  1  0
  9  8  2  0
 10 11  2  0
 10  2  1  0
 12 10  1  0
 13 24  1  0
 13 12  1  0
 13 14  1  1
 15 23  1  0
 15 14  1  0
 16 15  2  0
 17 16  1  0
 17 18  1  0
 18 23  2  0
 19 18  1  0
 19 20  2  0
 20 21  1  0
 21 22  2  0
 23 22  1  0
 24 25  2  0
 26 27  1  0
 26 24  1  0
 27 28  1  1
 28 29  1  0
 29 34  1  0
 30 29  2  0
 30 31  1  0
 31 32  2  0
 32 33  1  0
 34 33  2  0
 35 36  1  0
 35 27  1  0
 37 35  2  0
M  END
$$$$
