FWF.pdb
     RDKit          3D

 37 40  0  0  1  0  0  0  0  0999 V2000
    7.5705  -16.2667   19.7153 N   0  0  0  0  0  0  0  0  0  0  0  0
    8.5172  -15.4300   20.3875 C   0  0  1  0  0  0  0  0  0  0  0  0
    8.3387  -13.9672   20.0306 C   0  0  0  0  0  0  0  0  0  0  0  0
    8.2880  -13.7882   18.5461 C   0  0  0  0  0  0  0  0  0  0  0  0
    8.4847  -14.8577   17.7101 C   0  0  0  0  0  0  0  0  0  0  0  0
    8.4317  -14.6431   16.3341 C   0  0  0  0  0  0  0  0  0  0  0  0
    8.1871  -13.3836   15.8382 C   0  0  0  0  0  0  0  0  0  0  0  0
    7.9925  -12.3246   16.6941 C   0  0  0  0  0  0  0  0  0  0  0  0
    8.0378  -12.4990   18.0583 C   0  0  0  0  0  0  0  0  0  0  0  0
    8.3693  -15.5615   21.8582 C   0  0  0  0  0  0  0  0  0  0  0  0
    7.6033  -14.7825   22.5188 O   0  0  0  0  0  0  0  0  0  0  0  0
    9.0569  -16.5474   22.6073 N   0  0  0  0  0  0  0  0  0  0  0  0
    9.2260  -16.3523   24.0522 C   0  0  1  0  0  0  0  0  0  0  0  0
    7.9627  -16.9394   24.6470 C   0  0  0  0  0  0  0  0  0  0  0  0
    7.0045  -15.9475   25.1557 C   0  0  0  0  0  0  0  0  0  0  0  0
    5.7636  -16.1525   25.7186 C   0  0  0  0  0  0  0  0  0  0  0  0
    5.1768  -14.9962   26.0447 N   0  0  0  0  0  0  0  0  0  0  0  0
    6.0296  -14.0060   25.6984 C   0  0  0  0  0  0  0  0  0  0  0  0
    5.8991  -12.6241   25.8247 C   0  0  0  0  0  0  0  0  0  0  0  0
    6.9182  -11.8093   25.3934 C   0  0  0  0  0  0  0  0  0  0  0  0
    8.0650  -12.3521   24.8381 C   0  0  0  0  0  0  0  0  0  0  0  0
    8.1569  -13.7225   24.7301 C   0  0  0  0  0  0  0  0  0  0  0  0
    7.1517  -14.5604   25.1540 C   0  0  0  0  0  0  0  0  0  0  0  0
   10.4642  -16.9989   24.4561 C   0  0  0  0  0  0  0  0  0  0  0  0
   11.0904  -17.7468   23.6464 O   0  0  0  0  0  0  0  0  0  0  0  0
   11.0170  -16.8227   25.7438 N   0  0  0  0  0  0  0  0  0  0  0  0
   12.2113  -17.5328   26.1815 C   0  0  1  0  0  0  0  0  0  0  0  0
   12.4989  -17.0035   27.5870 C   0  0  0  0  0  0  0  0  0  0  0  0
   11.7248  -15.8133   27.9353 C   0  0  0  0  0  0  0  0  0  0  0  0
   11.7790  -14.6820   27.1542 C   0  0  0  0  0  0  0  0  0  0  0  0
   11.0447  -13.5361   27.4733 C   0  0  0  0  0  0  0  0  0  0  0  0
   10.2363  -13.5273   28.6054 C   0  0  0  0  0  0  0  0  0  0  0  0
   10.1760  -14.6595   29.3957 C   0  0  0  0  0  0  0  0  0  0  0  0
   10.9156  -15.7855   29.0566 C   0  0  0  0  0  0  0  0  0  0  0  0
   12.1122  -18.9813   26.1222 C   0  0  0  0  0  0  0  0  0  0  0  0
   10.9155  -19.6074   25.8199 O   0  0  0  0  0  0  0  0  0  0  0  0
   13.1106  -19.6996   26.3445 O   0  0  0  0  0  0  0  0  0  0  0  0
  2  1  1  6
  2  3  1  0
  3  4  1  0
  4  5  2  0
  5  6  1  0
  7  6  2  0
  8  7  1  0
  9  4  1  0
  9  8  2  0
 10 11  2  0
 10  2  1  0
 12 10  1  0
 13 24  1  0
 13 12  1  0
 13 14  1  1
 15 23  1  0
 15 14  1  0
 16 15  2  0
 17 16  1  0
 17 18  1  0
 18 23  2  0
 19 18  1  0
 19 20  2  0
 20 21  1  0
 21 22  2  0
 23 22  1  0
 24 25  2  0
 26 27  1  0
 26 24  1  0
 27 28  1  1
 28 29  1  0
 29 34  1  0
 30 29  2  0
 30 31  1  0
 31 32  2  0
 32 33  1  0
 34 33  2  0
 35 36  1  0
 35 27  1  0
 37 35  2  0
M  END
$$$$
