FWF.pdb
     RDKit          3D

 37 40  0  0  1  0  0  0  0  0999 V2000
    9.2803  -16.1858   17.8759 N   0  0  0  0  0  0  0  0  0  0  0  0
    9.6734  -17.0503   18.9466 C   0  0  1  0  0  0  0  0  0  0  0  0
   11.0850  -17.5738   18.7670 C   0  0  0  0  0  0  0  0  0  0  0  0
   11.1202  -18.6531   17.7314 C   0  0  0  0  0  0  0  0  0  0  0  0
    9.9955  -18.9592   17.0083 C   0  0  0  0  0  0  0  0  0  0  0  0
   10.0742  -19.9741   16.0565 C   0  0  0  0  0  0  0  0  0  0  0  0
   11.2577  -20.6458   15.8561 C   0  0  0  0  0  0  0  0  0  0  0  0
   12.3741  -20.3230   16.5919 C   0  0  0  0  0  0  0  0  0  0  0  0
   12.3335  -19.3266   17.5403 C   0  0  0  0  0  0  0  0  0  0  0  0
    9.6170  -16.3269   20.2411 C   0  0  0  0  0  0  0  0  0  0  0  0
   10.2508  -15.2325   20.4161 O   0  0  0  0  0  0  0  0  0  0  0  0
    8.8647  -16.7985   21.3445 N   0  0  0  0  0  0  0  0  0  0  0  0
    9.0101  -16.1282   22.6421 C   0  0  1  0  0  0  0  0  0  0  0  0
    8.0855  -16.9049   23.5565 C   0  0  0  0  0  0  0  0  0  0  0  0
    7.2866  -16.0762   24.4707 C   0  0  0  0  0  0  0  0  0  0  0  0
    6.3254  -16.4676   25.3771 C   0  0  0  0  0  0  0  0  0  0  0  0
    5.8022  -15.4183   26.0197 N   0  0  0  0  0  0  0  0  0  0  0  0
    6.4163  -14.3128   25.5418 C   0  0  0  0  0  0  0  0  0  0  0  0
    6.2383  -12.9715   25.8769 C   0  0  0  0  0  0  0  0  0  0  0  0
    6.9923  -12.0134   25.2430 C   0  0  0  0  0  0  0  0  0  0  0  0
    7.9208  -12.3729   24.2802 C   0  0  0  0  0  0  0  0  0  0  0  0
    8.0679  -13.7086   23.9764 C   0  0  0  0  0  0  0  0  0  0  0  0
    7.3260  -14.6874   24.5958 C   0  0  0  0  0  0  0  0  0  0  0  0
   10.4165  -16.1523   23.0109 C   0  0  0  0  0  0  0  0  0  0  0  0
   11.2398  -15.3687   22.4497 O   0  0  0  0  0  0  0  0  0  0  0  0
   10.9186  -17.0313   23.9960 N   0  0  0  0  0  0  0  0  0  0  0  0
   11.2009  -16.5947   25.3568 C   0  0  1  0  0  0  0  0  0  0  0  0
    9.9970  -15.7431   25.7616 C   0  0  0  0  0  0  0  0  0  0  0  0
   10.1881  -15.0158   27.0153 C   0  0  0  0  0  0  0  0  0  0  0  0
   10.5375  -13.6851   27.0135 C   0  0  0  0  0  0  0  0  0  0  0  0
   10.7237  -12.9755   28.2034 C   0  0  0  0  0  0  0  0  0  0  0  0
   10.5545  -13.6194   29.4249 C   0  0  0  0  0  0  0  0  0  0  0  0
   10.2035  -14.9561   29.4358 C   0  0  0  0  0  0  0  0  0  0  0  0
   10.0244  -15.6387   28.2392 C   0  0  0  0  0  0  0  0  0  0  0  0
   11.4849  -17.6695   26.2925 C   0  0  0  0  0  0  0  0  0  0  0  0
   10.6358  -18.7552   26.4184 O   0  0  0  0  0  0  0  0  0  0  0  0
   12.5079  -17.6384   27.0099 O   0  0  0  0  0  0  0  0  0  0  0  0
  2  1  1  6
  2  3  1  0
  3  4  1  0
  4  5  2  0
  5  6  1  0
  7  6  2  0
  8  7  1  0
  9  4  1  0
  9  8  2  0
 10 11  2  0
 10  2  1  0
 12 10  1  0
 13 24  1  0
 13 12  1  0
 13 14  1  1
 15 23  1  0
 15 14  1  0
 16 15  2  0
 17 16  1  0
 17 18  1  0
 18 23  2  0
 19 18  1  0
 19 20  2  0
 20 21  1  0
 21 22  2  0
 23 22  1  0
 24 25  2  0
 26 27  1  0
 26 24  1  0
 27 28  1  1
 28 29  1  0
 29 34  1  0
 30 29  2  0
 30 31  1  0
 31 32  2  0
 32 33  1  0
 34 33  2  0
 35 36  1  0
 35 27  1  0
 37 35  2  0
M  END
$$$$
