FWF.pdb
     RDKit          3D

 37 40  0  0  1  0  0  0  0  0999 V2000
   10.0267  -19.8153   19.6407 N   0  0  0  0  0  0  0  0  0  0  0  0
   10.0375  -19.6473   21.0619 C   0  0  1  0  0  0  0  0  0  0  0  0
   11.2636  -20.2709   21.6998 C   0  0  0  0  0  0  0  0  0  0  0  0
   11.3307  -21.7343   21.3956 C   0  0  0  0  0  0  0  0  0  0  0  0
   12.3580  -22.2408   20.6409 C   0  0  0  0  0  0  0  0  0  0  0  0
   12.3777  -23.6097   20.3802 C   0  0  0  0  0  0  0  0  0  0  0  0
   11.3846  -24.4234   20.8736 C   0  0  0  0  0  0  0  0  0  0  0  0
   10.3632  -23.8951   21.6285 C   0  0  0  0  0  0  0  0  0  0  0  0
   10.3112  -22.5483   21.9060 C   0  0  0  0  0  0  0  0  0  0  0  0
   10.0259  -18.2051   21.4112 C   0  0  0  0  0  0  0  0  0  0  0  0
   10.6127  -17.3413   20.6767 O   0  0  0  0  0  0  0  0  0  0  0  0
    9.3697  -17.7060   22.5628 N   0  0  0  0  0  0  0  0  0  0  0  0
    9.3833  -16.2607   22.8180 C   0  0  1  0  0  0  0  0  0  0  0  0
    7.9304  -15.9266   23.0858 C   0  0  0  0  0  0  0  0  0  0  0  0
    7.6605  -14.5004   23.3180 C   0  0  0  0  0  0  0  0  0  0  0  0
    7.6732  -13.4592   22.4156 C   0  0  0  0  0  0  0  0  0  0  0  0
    7.3931  -12.2940   23.0085 N   0  0  0  0  0  0  0  0  0  0  0  0
    7.1904  -12.5537   24.3197 C   0  0  0  0  0  0  0  0  0  0  0  0
    6.8712  -11.6906   25.3666 C   0  0  0  0  0  0  0  0  0  0  0  0
    6.7130  -12.1988   26.6336 C   0  0  0  0  0  0  0  0  0  0  0  0
    6.8684  -13.5542   26.8718 C   0  0  0  0  0  0  0  0  0  0  0  0
    7.1839  -14.3751   25.8114 C   0  0  0  0  0  0  0  0  0  0  0  0
    7.3477  -13.8924   24.5338 C   0  0  0  0  0  0  0  0  0  0  0  0
   10.2958  -16.0026   23.9204 C   0  0  0  0  0  0  0  0  0  0  0  0
   10.6334  -14.8152   24.2084 O   0  0  0  0  0  0  0  0  0  0  0  0
   10.8340  -17.0442   24.7081 N   0  0  0  0  0  0  0  0  0  0  0  0
   11.9745  -16.8417   25.5913 C   0  0  1  0  0  0  0  0  0  0  0  0
   11.4238  -17.0300   27.0055 C   0  0  0  0  0  0  0  0  0  0  0  0
   10.4591  -16.0049   27.4005 C   0  0  0  0  0  0  0  0  0  0  0  0
    9.1215  -16.3034   27.5221 C   0  0  0  0  0  0  0  0  0  0  0  0
    8.1867  -15.3349   27.8991 C   0  0  0  0  0  0  0  0  0  0  0  0
    8.6068  -14.0347   28.1601 C   0  0  0  0  0  0  0  0  0  0  0  0
    9.9486  -13.7262   28.0403 C   0  0  0  0  0  0  0  0  0  0  0  0
   10.8576  -14.7071   27.6641 C   0  0  0  0  0  0  0  0  0  0  0  0
   13.1219  -17.6859   25.3045 C   0  0  0  0  0  0  0  0  0  0  0  0
   13.0876  -18.6225   24.2862 O   0  0  0  0  0  0  0  0  0  0  0  0
   14.1722  -17.5858   25.9747 O   0  0  0  0  0  0  0  0  0  0  0  0
  2  1  1  6
  2  3  1  0
  3  4  1  0
  4  5  2  0
  5  6  1  0
  7  6  2  0
  8  7  1  0
  9  4  1  0
  9  8  2  0
 10 11  2  0
 10  2  1  0
 12 10  1  0
 13 24  1  0
 13 12  1  0
 13 14  1  1
 15 23  1  0
 15 14  1  0
 16 15  2  0
 17 16  1  0
 17 18  1  0
 18 23  2  0
 19 18  1  0
 19 20  2  0
 20 21  1  0
 21 22  2  0
 23 22  1  0
 24 25  2  0
 26 27  1  0
 26 24  1  0
 27 28  1  1
 28 29  1  0
 29 34  1  0
 30 29  2  0
 30 31  1  0
 31 32  2  0
 32 33  1  0
 34 33  2  0
 35 36  1  0
 35 27  1  0
 37 35  2  0
M  END
$$$$
