FWF.pdb
     RDKit          3D

 37 40  0  0  1  0  0  0  0  0999 V2000
    8.0971  -18.3330   20.4153 N   0  0  0  0  0  0  0  0  0  0  0  0
    8.2360  -16.9107   20.4946 C   0  0  1  0  0  0  0  0  0  0  0  0
    7.1787  -16.1890   19.6821 C   0  0  0  0  0  0  0  0  0  0  0  0
    7.4497  -14.7179   19.6507 C   0  0  0  0  0  0  0  0  0  0  0  0
    6.4914  -13.8442   19.2037 C   0  0  0  0  0  0  0  0  0  0  0  0
    6.7893  -12.4829   19.1892 C   0  0  0  0  0  0  0  0  0  0  0  0
    8.0191  -12.0382   19.6156 C   0  0  0  0  0  0  0  0  0  0  0  0
    8.9661  -12.9313   20.0602 C   0  0  0  0  0  0  0  0  0  0  0  0
    8.7071  -14.2825   20.0886 C   0  0  0  0  0  0  0  0  0  0  0  0
    8.1161  -16.4583   21.9028 C   0  0  0  0  0  0  0  0  0  0  0  0
    7.1525  -15.7094   22.2778 O   0  0  0  0  0  0  0  0  0  0  0  0
    9.0486  -16.8271   22.9029 N   0  0  0  0  0  0  0  0  0  0  0  0
    9.5903  -15.7882   23.7871 C   0  0  1  0  0  0  0  0  0  0  0  0
    8.9545  -16.0873   25.1289 C   0  0  0  0  0  0  0  0  0  0  0  0
    7.7068  -15.3568   25.3941 C   0  0  0  0  0  0  0  0  0  0  0  0
    6.4516  -15.8573   25.6637 C   0  0  0  0  0  0  0  0  0  0  0  0
    5.5593  -14.8761   25.8331 N   0  0  0  0  0  0  0  0  0  0  0  0
    6.2195  -13.7068   25.6764 C   0  0  0  0  0  0  0  0  0  0  0  0
    5.7529  -12.3955   25.7519 C   0  0  0  0  0  0  0  0  0  0  0  0
    6.6297  -11.3564   25.5524 C   0  0  0  0  0  0  0  0  0  0  0  0
    7.9643  -11.6054   25.2788 C   0  0  0  0  0  0  0  0  0  0  0  0
    8.3875  -12.9148   25.2122 C   0  0  0  0  0  0  0  0  0  0  0  0
    7.5309  -13.9731   25.4079 C   0  0  0  0  0  0  0  0  0  0  0  0
   11.0416  -15.8733   23.7520 C   0  0  0  0  0  0  0  0  0  0  0  0
   11.7324  -14.8836   23.3644 O   0  0  0  0  0  0  0  0  0  0  0  0
   11.7343  -17.0398   24.1451 N   0  0  0  0  0  0  0  0  0  0  0  0
   12.0566  -17.3209   25.5375 C   0  0  1  0  0  0  0  0  0  0  0  0
   10.7355  -17.1693   26.2925 C   0  0  0  0  0  0  0  0  0  0  0  0
   10.7588  -16.1203   27.3105 C   0  0  0  0  0  0  0  0  0  0  0  0
   11.1019  -14.8282   26.9854 C   0  0  0  0  0  0  0  0  0  0  0  0
   11.1287  -13.8139   27.9469 C   0  0  0  0  0  0  0  0  0  0  0  0
   10.8026  -14.1057   29.2674 C   0  0  0  0  0  0  0  0  0  0  0  0
   10.4568  -15.4011   29.6028 C   0  0  0  0  0  0  0  0  0  0  0  0
   10.4379  -16.3910   28.6283 C   0  0  0  0  0  0  0  0  0  0  0  0
   12.7041  -18.6019   25.7641 C   0  0  0  0  0  0  0  0  0  0  0  0
   12.3860  -19.7121   25.0014 O   0  0  0  0  0  0  0  0  0  0  0  0
   13.5676  -18.7321   26.6583 O   0  0  0  0  0  0  0  0  0  0  0  0
  2  1  1  1
  2  3  1  0
  3  4  1  0
  4  5  2  0
  5  6  1  0
  7  6  2  0
  8  7  1  0
  9  4  1  0
  9  8  2  0
 10 11  2  0
 10  2  1  0
 12 10  1  0
 13 24  1  0
 13 12  1  0
 13 14  1  1
 15 23  1  0
 15 14  1  0
 16 15  2  0
 17 16  1  0
 17 18  1  0
 18 23  2  0
 19 18  1  0
 19 20  2  0
 20 21  1  0
 21 22  2  0
 23 22  1  0
 24 25  2  0
 26 27  1  0
 26 24  1  0
 27 28  1  1
 28 29  1  0
 29 34  1  0
 30 29  2  0
 30 31  1  0
 31 32  2  0
 32 33  1  0
 34 33  2  0
 35 36  1  0
 35 27  1  0
 37 35  2  0
M  END
$$$$
