FWF.pdb
     RDKit          3D

 37 40  0  0  1  0  0  0  0  0999 V2000
   12.0887  -16.4131   19.1479 N   0  0  0  0  0  0  0  0  0  0  0  0
   11.0471  -17.1829   19.7568 C   0  0  1  0  0  0  0  0  0  0  0  0
   11.4636  -18.6224   19.9880 C   0  0  0  0  0  0  0  0  0  0  0  0
   11.3613  -19.4117   18.7211 C   0  0  0  0  0  0  0  0  0  0  0  0
   12.2756  -20.3946   18.4390 C   0  0  0  0  0  0  0  0  0  0  0  0
   12.1428  -21.1018   17.2455 C   0  0  0  0  0  0  0  0  0  0  0  0
   11.1147  -20.8118   16.3790 C   0  0  0  0  0  0  0  0  0  0  0  0
   10.2084  -19.8222   16.6811 C   0  0  0  0  0  0  0  0  0  0  0  0
   10.3083  -19.1032   17.8502 C   0  0  0  0  0  0  0  0  0  0  0  0
   10.6745  -16.5999   21.0696 C   0  0  0  0  0  0  0  0  0  0  0  0
   11.5238  -15.9568   21.7733 O   0  0  0  0  0  0  0  0  0  0  0  0
    9.3718  -16.7173   21.6125 N   0  0  0  0  0  0  0  0  0  0  0  0
    9.1054  -16.1650   22.9461 C   0  0  1  0  0  0  0  0  0  0  0  0
    7.6138  -15.9017   22.9375 C   0  0  0  0  0  0  0  0  0  0  0  0
    7.0801  -15.3494   24.1908 C   0  0  0  0  0  0  0  0  0  0  0  0
    6.5488  -16.0161   25.2734 C   0  0  0  0  0  0  0  0  0  0  0  0
    6.1497  -15.1655   26.2246 N   0  0  0  0  0  0  0  0  0  0  0  0
    6.4146  -13.9171   25.7783 C   0  0  0  0  0  0  0  0  0  0  0  0
    6.1931  -12.6815   26.3843 C   0  0  0  0  0  0  0  0  0  0  0  0
    6.5533  -11.5327   25.7219 C   0  0  0  0  0  0  0  0  0  0  0  0
    7.1307  -11.5977   24.4647 C   0  0  0  0  0  0  0  0  0  0  0  0
    7.3335  -12.8373   23.8988 C   0  0  0  0  0  0  0  0  0  0  0  0
    6.9823  -14.0024   24.5401 C   0  0  0  0  0  0  0  0  0  0  0  0
    9.5629  -17.1271   23.9358 C   0  0  0  0  0  0  0  0  0  0  0  0
    9.8119  -18.3236   23.5993 O   0  0  0  0  0  0  0  0  0  0  0  0
    9.7511  -16.7769   25.2912 N   0  0  0  0  0  0  0  0  0  0  0  0
   10.5246  -17.6035   26.2079 C   0  0  1  0  0  0  0  0  0  0  0  0
   11.3655  -16.6191   27.0217 C   0  0  0  0  0  0  0  0  0  0  0  0
   10.5776  -15.7810   27.9240 C   0  0  0  0  0  0  0  0  0  0  0  0
   10.3561  -14.4529   27.6412 C   0  0  0  0  0  0  0  0  0  0  0  0
    9.6048  -13.6384   28.4934 C   0  0  0  0  0  0  0  0  0  0  0  0
    9.0631  -14.1720   29.6582 C   0  0  0  0  0  0  0  0  0  0  0  0
    9.2807  -15.5053   29.9500 C   0  0  0  0  0  0  0  0  0  0  0  0
   10.0310  -16.2935   29.0865 C   0  0  0  0  0  0  0  0  0  0  0  0
    9.7326  -18.5006   27.0320 C   0  0  0  0  0  0  0  0  0  0  0  0
   10.3331  -19.4176   27.8770 O   0  0  0  0  0  0  0  0  0  0  0  0
    8.4837  -18.4655   26.9966 O   0  0  0  0  0  0  0  0  0  0  0  0
  2  1  1  1
  2  3  1  0
  3  4  1  0
  4  5  2  0
  5  6  1  0
  7  6  2  0
  8  7  1  0
  9  4  1  0
  9  8  2  0
 10 11  2  0
 10  2  1  0
 12 10  1  0
 13 24  1  0
 13 12  1  0
 13 14  1  6
 15 23  1  0
 15 14  1  0
 16 15  2  0
 17 16  1  0
 17 18  1  0
 18 23  2  0
 19 18  1  0
 19 20  2  0
 20 21  1  0
 21 22  2  0
 23 22  1  0
 24 25  2  0
 26 27  1  0
 26 24  1  0
 27 28  1  1
 28 29  1  0
 29 34  1  0
 30 29  2  0
 30 31  1  0
 31 32  2  0
 32 33  1  0
 34 33  2  0
 35 36  1  0
 35 27  1  0
 37 35  2  0
M  END
$$$$
