FWF.pdb
     RDKit          3D

 37 40  0  0  1  0  0  0  0  0999 V2000
    8.4563  -17.8599   20.1690 N   0  0  0  0  0  0  0  0  0  0  0  0
    8.6687  -16.4488   20.2786 C   0  0  1  0  0  0  0  0  0  0  0  0
    7.4254  -15.6565   19.9244 C   0  0  0  0  0  0  0  0  0  0  0  0
    7.7678  -14.2226   19.6690 C   0  0  0  0  0  0  0  0  0  0  0  0
    9.0593  -13.7815   19.8067 C   0  0  0  0  0  0  0  0  0  0  0  0
    9.3310  -12.4368   19.5616 C   0  0  0  0  0  0  0  0  0  0  0  0
    8.3193  -11.5818   19.1909 C   0  0  0  0  0  0  0  0  0  0  0  0
    7.0308  -12.0447   19.0584 C   0  0  0  0  0  0  0  0  0  0  0  0
    6.7254  -13.3660   19.2923 C   0  0  0  0  0  0  0  0  0  0  0  0
    9.0568  -16.0916   21.6657 C   0  0  0  0  0  0  0  0  0  0  0  0
    9.5306  -14.9393   21.9446 O   0  0  0  0  0  0  0  0  0  0  0  0
    8.9243  -16.9936   22.7495 N   0  0  0  0  0  0  0  0  0  0  0  0
    9.2258  -16.5228   24.1066 C   0  0  1  0  0  0  0  0  0  0  0  0
    8.1052  -17.0993   24.9470 C   0  0  0  0  0  0  0  0  0  0  0  0
    7.0618  -16.1352   25.3247 C   0  0  0  0  0  0  0  0  0  0  0  0
    5.7900  -16.3770   25.7964 C   0  0  0  0  0  0  0  0  0  0  0  0
    5.1235  -15.2384   26.0134 N   0  0  0  0  0  0  0  0  0  0  0  0
    5.9536  -14.2231   25.6852 C   0  0  0  0  0  0  0  0  0  0  0  0
    5.7470  -12.8453   25.7281 C   0  0  0  0  0  0  0  0  0  0  0  0
    6.7581  -12.0004   25.3377 C   0  0  0  0  0  0  0  0  0  0  0  0
    7.9715  -12.5090   24.9053 C   0  0  0  0  0  0  0  0  0  0  0  0
    8.1375  -13.8763   24.8769 C   0  0  0  0  0  0  0  0  0  0  0  0
    7.1421  -14.7440   25.2622 C   0  0  0  0  0  0  0  0  0  0  0  0
   10.5632  -16.9732   24.4572 C   0  0  0  0  0  0  0  0  0  0  0  0
   11.2712  -17.5983   23.6116 O   0  0  0  0  0  0  0  0  0  0  0  0
   11.1250  -16.7352   25.7311 N   0  0  0  0  0  0  0  0  0  0  0  0
   12.3676  -17.3611   26.1625 C   0  0  1  0  0  0  0  0  0  0  0  0
   12.6762  -16.7402   27.5254 C   0  0  0  0  0  0  0  0  0  0  0  0
   11.7962  -15.6264   27.8753 C   0  0  0  0  0  0  0  0  0  0  0  0
   11.9129  -14.4092   27.2447 C   0  0  0  0  0  0  0  0  0  0  0  0
   11.0792  -13.3346   27.5674 C   0  0  0  0  0  0  0  0  0  0  0  0
   10.1043  -13.4875   28.5481 C   0  0  0  0  0  0  0  0  0  0  0  0
    9.9802  -14.7069   29.1866 C   0  0  0  0  0  0  0  0  0  0  0  0
   10.8213  -15.7592   28.8473 C   0  0  0  0  0  0  0  0  0  0  0  0
   12.3393  -18.8137   26.1860 C   0  0  0  0  0  0  0  0  0  0  0  0
   11.1646  -19.5127   25.9694 O   0  0  0  0  0  0  0  0  0  0  0  0
   13.3807  -19.4696   26.4043 O   0  0  0  0  0  0  0  0  0  0  0  0
  2  1  1  1
  2  3  1  0
  3  4  1  0
  4  5  2  0
  5  6  1  0
  7  6  2  0
  8  7  1  0
  9  4  1  0
  9  8  2  0
 10 11  2  0
 10  2  1  0
 12 10  1  0
 13 24  1  0
 13 12  1  0
 13 14  1  1
 15 23  1  0
 15 14  1  0
 16 15  2  0
 17 16  1  0
 17 18  1  0
 18 23  2  0
 19 18  1  0
 19 20  2  0
 20 21  1  0
 21 22  2  0
 23 22  1  0
 24 25  2  0
 26 27  1  0
 26 24  1  0
 27 28  1  1
 28 29  1  0
 29 34  1  0
 30 29  2  0
 30 31  1  0
 31 32  2  0
 32 33  1  0
 34 33  2  0
 35 36  1  0
 35 27  1  0
 37 35  2  0
M  END
$$$$
