FWF.pdb
     RDKit          3D

 37 40  0  0  1  0  0  0  0  0999 V2000
   10.8633  -17.0379   18.5774 N   0  0  0  0  0  0  0  0  0  0  0  0
   11.1533  -17.8575   19.7142 C   0  0  1  0  0  0  0  0  0  0  0  0
   12.6227  -18.2232   19.7928 C   0  0  0  0  0  0  0  0  0  0  0  0
   12.9670  -19.2511   18.7615 C   0  0  0  0  0  0  0  0  0  0  0  0
   12.4239  -20.5091   18.8260 C   0  0  0  0  0  0  0  0  0  0  0  0
   12.7758  -21.4349   17.8456 C   0  0  0  0  0  0  0  0  0  0  0  0
   13.6482  -21.0834   16.8419 C   0  0  0  0  0  0  0  0  0  0  0  0
   14.1815  -19.8163   16.7956 C   0  0  0  0  0  0  0  0  0  0  0  0
   13.8568  -18.8762   17.7467 C   0  0  0  0  0  0  0  0  0  0  0  0
   10.7926  -17.1487   20.9670 C   0  0  0  0  0  0  0  0  0  0  0  0
   11.3485  -16.0447   21.2866 O   0  0  0  0  0  0  0  0  0  0  0  0
    9.8211  -17.6454   21.8700 N   0  0  0  0  0  0  0  0  0  0  0  0
    9.5094  -16.8690   23.0760 C   0  0  1  0  0  0  0  0  0  0  0  0
    7.9970  -16.7861   23.0723 C   0  0  0  0  0  0  0  0  0  0  0  0
    7.4565  -15.4192   23.0890 C   0  0  0  0  0  0  0  0  0  0  0  0
    7.1477  -14.5977   22.0267 C   0  0  0  0  0  0  0  0  0  0  0  0
    6.6927  -13.4109   22.4416 N   0  0  0  0  0  0  0  0  0  0  0  0
    6.6954  -13.4345   23.7933 C   0  0  0  0  0  0  0  0  0  0  0  0
    6.3167  -12.4541   24.7089 C   0  0  0  0  0  0  0  0  0  0  0  0
    6.4108  -12.7170   26.0543 C   0  0  0  0  0  0  0  0  0  0  0  0
    6.8767  -13.9427   26.5002 C   0  0  0  0  0  0  0  0  0  0  0  0
    7.2414  -14.8860   25.5648 C   0  0  0  0  0  0  0  0  0  0  0  0
    7.1570  -14.6486   24.2125 C   0  0  0  0  0  0  0  0  0  0  0  0
   10.0936  -17.5517   24.2194 C   0  0  0  0  0  0  0  0  0  0  0  0
   10.0582  -18.8164   24.2975 O   0  0  0  0  0  0  0  0  0  0  0  0
   10.7190  -16.8493   25.2732 N   0  0  0  0  0  0  0  0  0  0  0  0
   11.3733  -17.5311   26.3818 C   0  0  1  0  0  0  0  0  0  0  0  0
   12.1513  -16.4404   27.1190 C   0  0  0  0  0  0  0  0  0  0  0  0
   11.2977  -15.4867   27.8255 C   0  0  0  0  0  0  0  0  0  0  0  0
   10.8303  -14.3562   27.1959 C   0  0  0  0  0  0  0  0  0  0  0  0
   10.0131  -13.4348   27.8572 C   0  0  0  0  0  0  0  0  0  0  0  0
    9.6571  -13.6554   29.1838 C   0  0  0  0  0  0  0  0  0  0  0  0
   10.1223  -14.7885   29.8239 C   0  0  0  0  0  0  0  0  0  0  0  0
   10.9332  -15.6888   29.1442 C   0  0  0  0  0  0  0  0  0  0  0  0
   10.4784  -18.2821   27.2458 C   0  0  0  0  0  0  0  0  0  0  0  0
    9.1049  -18.2153   27.0889 O   0  0  0  0  0  0  0  0  0  0  0  0
   10.9303  -19.0096   28.1561 O   0  0  0  0  0  0  0  0  0  0  0  0
  2  1  1  6
  2  3  1  0
  3  4  1  0
  4  5  2  0
  5  6  1  0
  7  6  2  0
  8  7  1  0
  9  4  1  0
  9  8  2  0
 10 11  2  0
 10  2  1  0
 12 10  1  0
 13 24  1  0
 13 12  1  0
 13 14  1  1
 15 23  1  0
 15 14  1  0
 16 15  2  0
 17 16  1  0
 17 18  1  0
 18 23  2  0
 19 18  1  0
 19 20  2  0
 20 21  1  0
 21 22  2  0
 23 22  1  0
 24 25  2  0
 26 27  1  0
 26 24  1  0
 27 28  1  1
 28 29  1  0
 29 34  1  0
 30 29  2  0
 30 31  1  0
 31 32  2  0
 32 33  1  0
 34 33  2  0
 35 36  1  0
 35 27  1  0
 37 35  2  0
M  END
$$$$
