FWF.pdb
     RDKit          3D

 37 40  0  0  1  0  0  0  0  0999 V2000
    8.3292  -18.2410   19.5702 N   0  0  0  0  0  0  0  0  0  0  0  0
    8.6883  -16.8563   19.6124 C   0  0  1  0  0  0  0  0  0  0  0  0
    7.5883  -15.9658   19.0681 C   0  0  0  0  0  0  0  0  0  0  0  0
    7.9949  -14.5272   19.1287 C   0  0  0  0  0  0  0  0  0  0  0  0
    7.4334  -13.6849   20.0542 C   0  0  0  0  0  0  0  0  0  0  0  0
    7.8403  -12.3521   20.0717 C   0  0  0  0  0  0  0  0  0  0  0  0
    8.7838  -11.9039   19.1767 C   0  0  0  0  0  0  0  0  0  0  0  0
    9.3346  -12.7654   18.2566 C   0  0  0  0  0  0  0  0  0  0  0  0
    8.9569  -14.0879   18.2101 C   0  0  0  0  0  0  0  0  0  0  0  0
    8.9647  -16.4371   21.0088 C   0  0  0  0  0  0  0  0  0  0  0  0
    9.5898  -15.3534   21.2633 O   0  0  0  0  0  0  0  0  0  0  0  0
    8.5550  -17.2017   22.1284 N   0  0  0  0  0  0  0  0  0  0  0  0
    8.7448  -16.6483   23.4745 C   0  0  1  0  0  0  0  0  0  0  0  0
    7.4950  -17.0704   24.2190 C   0  0  0  0  0  0  0  0  0  0  0  0
    6.7870  -15.9772   24.9005 C   0  0  0  0  0  0  0  0  0  0  0  0
    5.6281  -16.0278   25.6442 C   0  0  0  0  0  0  0  0  0  0  0  0
    5.2806  -14.8169   26.0922 N   0  0  0  0  0  0  0  0  0  0  0  0
    6.2130  -13.9454   25.6464 C   0  0  0  0  0  0  0  0  0  0  0  0
    6.3158  -12.5678   25.8327 C   0  0  0  0  0  0  0  0  0  0  0  0
    7.3710  -11.8895   25.2718 C   0  0  0  0  0  0  0  0  0  0  0  0
    8.3249  -12.5642   24.5281 C   0  0  0  0  0  0  0  0  0  0  0  0
    8.1889  -13.9256   24.3664 C   0  0  0  0  0  0  0  0  0  0  0  0
    7.1426  -14.6285   24.9171 C   0  0  0  0  0  0  0  0  0  0  0  0
    9.9937  -17.1685   24.0076 C   0  0  0  0  0  0  0  0  0  0  0  0
   10.4407  -18.2881   23.6160 O   0  0  0  0  0  0  0  0  0  0  0  0
   10.7531  -16.4605   24.9652 N   0  0  0  0  0  0  0  0  0  0  0  0
   11.9872  -16.9926   25.5271 C   0  0  1  0  0  0  0  0  0  0  0  0
   12.5726  -15.8511   26.3595 C   0  0  0  0  0  0  0  0  0  0  0  0
   11.6726  -15.3660   27.4045 C   0  0  0  0  0  0  0  0  0  0  0  0
   11.6451  -15.9606   28.6449 C   0  0  0  0  0  0  0  0  0  0  0  0
   10.7907  -15.5085   29.6546 C   0  0  0  0  0  0  0  0  0  0  0  0
    9.9434  -14.4324   29.4115 C   0  0  0  0  0  0  0  0  0  0  0  0
    9.9646  -13.8291   28.1682 C   0  0  0  0  0  0  0  0  0  0  0  0
   10.8231  -14.2976   27.1816 C   0  0  0  0  0  0  0  0  0  0  0  0
   11.8303  -18.2279   26.2760 C   0  0  0  0  0  0  0  0  0  0  0  0
   12.9276  -18.9770   26.6635 O   0  0  0  0  0  0  0  0  0  0  0  0
   10.6946  -18.6455   26.5889 O   0  0  0  0  0  0  0  0  0  0  0  0
  2  1  1  1
  2  3  1  0
  3  4  1  0
  4  5  2  0
  5  6  1  0
  7  6  2  0
  8  7  1  0
  9  4  1  0
  9  8  2  0
 10 11  2  0
 10  2  1  0
 12 10  1  0
 13 24  1  0
 13 12  1  0
 13 14  1  1
 15 23  1  0
 15 14  1  0
 16 15  2  0
 17 16  1  0
 17 18  1  0
 18 23  2  0
 19 18  1  0
 19 20  2  0
 20 21  1  0
 21 22  2  0
 23 22  1  0
 24 25  2  0
 26 27  1  0
 26 24  1  0
 27 28  1  1
 28 29  1  0
 29 34  1  0
 30 29  2  0
 30 31  1  0
 31 32  2  0
 32 33  1  0
 34 33  2  0
 35 36  1  0
 35 27  1  0
 37 35  2  0
M  END
$$$$
