FWF.pdb
     RDKit          3D

 37 40  0  0  1  0  0  0  0  0999 V2000
    9.0461  -18.0844   19.7731 N   0  0  0  0  0  0  0  0  0  0  0  0
    9.1050  -16.6564   19.8486 C   0  0  1  0  0  0  0  0  0  0  0  0
    7.8554  -16.0044   19.2896 C   0  0  0  0  0  0  0  0  0  0  0  0
    7.9224  -14.5175   19.4416 C   0  0  0  0  0  0  0  0  0  0  0  0
    7.2449  -13.8916   20.4568 C   0  0  0  0  0  0  0  0  0  0  0  0
    7.3337  -12.5044   20.5575 C   0  0  0  0  0  0  0  0  0  0  0  0
    8.0865  -11.7909   19.6541 C   0  0  0  0  0  0  0  0  0  0  0  0
    8.7583  -12.4382   18.6433 C   0  0  0  0  0  0  0  0  0  0  0  0
    8.6935  -13.8067   18.5129 C   0  0  0  0  0  0  0  0  0  0  0  0
    9.2547  -16.2199   21.2590 C   0  0  0  0  0  0  0  0  0  0  0  0
    9.6594  -15.0442   21.5487 O   0  0  0  0  0  0  0  0  0  0  0  0
    8.9590  -17.0683   22.3538 N   0  0  0  0  0  0  0  0  0  0  0  0
    9.0874  -16.5397   23.7171 C   0  0  1  0  0  0  0  0  0  0  0  0
    7.8315  -17.0228   24.4125 C   0  0  0  0  0  0  0  0  0  0  0  0
    6.9327  -15.9535   24.8705 C   0  0  0  0  0  0  0  0  0  0  0  0
    5.7116  -16.0598   25.5000 C   0  0  0  0  0  0  0  0  0  0  0  0
    5.1815  -14.8574   25.7464 N   0  0  0  0  0  0  0  0  0  0  0  0
    6.0528  -13.9353   25.2791 C   0  0  0  0  0  0  0  0  0  0  0  0
    5.9773  -12.5435   25.2880 C   0  0  0  0  0  0  0  0  0  0  0  0
    7.0045  -11.8101   24.7447 C   0  0  0  0  0  0  0  0  0  0  0  0
    8.1054  -12.4438   24.1929 C   0  0  0  0  0  0  0  0  0  0  0  0
    8.1436  -13.8209   24.2028 C   0  0  0  0  0  0  0  0  0  0  0  0
    7.1291  -14.5786   24.7401 C   0  0  0  0  0  0  0  0  0  0  0  0
   10.3373  -17.0276   24.2777 C   0  0  0  0  0  0  0  0  0  0  0  0
   11.1947  -17.5942   23.5355 O   0  0  0  0  0  0  0  0  0  0  0  0
   10.6484  -16.8909   25.6487 N   0  0  0  0  0  0  0  0  0  0  0  0
   11.8293  -17.5026   26.2430 C   0  0  1  0  0  0  0  0  0  0  0  0
   11.7905  -17.0980   27.7172 C   0  0  0  0  0  0  0  0  0  0  0  0
   11.2180  -15.7725   27.9467 C   0  0  0  0  0  0  0  0  0  0  0  0
   10.7628  -15.4058   29.1922 C   0  0  0  0  0  0  0  0  0  0  0  0
   10.2131  -14.1424   29.4280 C   0  0  0  0  0  0  0  0  0  0  0  0
   10.1186  -13.2253   28.3863 C   0  0  0  0  0  0  0  0  0  0  0  0
   10.5735  -13.5854   27.1319 C   0  0  0  0  0  0  0  0  0  0  0  0
   11.1157  -14.8474   26.9237 C   0  0  0  0  0  0  0  0  0  0  0  0
   11.9349  -18.9381   26.0438 C   0  0  0  0  0  0  0  0  0  0  0  0
   10.8776  -19.6721   25.5352 O   0  0  0  0  0  0  0  0  0  0  0  0
   12.9885  -19.5470   26.3292 O   0  0  0  0  0  0  0  0  0  0  0  0
  2  1  1  1
  2  3  1  0
  3  4  1  0
  4  5  2  0
  5  6  1  0
  7  6  2  0
  8  7  1  0
  9  4  1  0
  9  8  2  0
 10 11  2  0
 10  2  1  0
 12 10  1  0
 13 24  1  0
 13 12  1  0
 13 14  1  1
 15 23  1  0
 15 14  1  0
 16 15  2  0
 17 16  1  0
 17 18  1  0
 18 23  2  0
 19 18  1  0
 19 20  2  0
 20 21  1  0
 21 22  2  0
 23 22  1  0
 24 25  2  0
 26 27  1  0
 26 24  1  0
 27 28  1  1
 28 29  1  0
 29 34  1  0
 30 29  2  0
 30 31  1  0
 31 32  2  0
 32 33  1  0
 34 33  2  0
 35 36  1  0
 35 27  1  0
 37 35  2  0
M  END
$$$$
