VHS.pdb
     RDKit          3D

 24 24  0  0  1  0  0  0  0  0999 V2000
    7.4100  -12.4055   18.8757 C   0  0  0  0  0  0  0  0  0  0  0  0
    7.9356  -13.5969   19.6494 C   0  0  2  0  0  0  0  0  0  0  0  0
    8.6859  -13.0525   20.8481 C   0  0  0  0  0  0  0  0  0  0  0  0
    8.9301  -14.3622   18.8128 C   0  0  2  0  0  0  0  0  0  0  0  0
    8.2698  -14.7244   17.5786 N   0  0  0  0  0  0  0  0  0  0  0  0
    9.4527  -15.5595   19.4807 C   0  0  0  0  0  0  0  0  0  0  0  0
    8.7992  -16.6377   19.5569 O   0  0  0  0  0  0  0  0  0  0  0  0
   10.7434  -15.5167   20.0684 N   0  0  0  0  0  0  0  0  0  0  0  0
   11.3713  -16.5205   20.8452 C   0  0  1  0  0  0  0  0  0  0  0  0
   12.8350  -16.7875   20.5168 C   0  0  0  0  0  0  0  0  0  0  0  0
   12.9922  -17.4974   19.2240 C   0  0  0  0  0  0  0  0  0  0  0  0
   12.5323  -18.7897   18.9276 C   0  0  0  0  0  0  0  0  0  0  0  0
   12.8579  -19.0883   17.6648 N   0  0  0  0  0  0  0  0  0  0  0  0
   13.5063  -18.0219   17.1658 C   0  0  0  0  0  0  0  0  0  0  0  0
   13.5796  -17.0679   18.1206 N   0  0  0  0  0  0  0  0  0  0  0  0
   11.2239  -16.4203   22.2952 C   0  0  0  0  0  0  0  0  0  0  0  0
   11.6468  -15.3751   22.8786 O   0  0  0  0  0  0  0  0  0  0  0  0
    8.1400  -17.3952   24.4034 O   0  0  0  0  0  0  0  0  0  0  0  0
    9.2606  -17.9424   24.9999 C   0  0  0  0  0  0  0  0  0  0  0  0
   10.5256  -17.2208   24.5829 C   0  0  2  0  0  0  0  0  0  0  0  0
   10.6399  -17.3997   23.1360 N   0  0  0  0  0  0  0  0  0  0  0  0
   11.7020  -17.8611   25.2093 C   0  0  0  0  0  0  0  0  0  0  0  0
   12.4893  -18.5422   24.5114 O   0  0  0  0  0  0  0  0  0  0  0  0
   11.9951  -17.7503   26.5605 O   0  0  0  0  0  0  0  0  0  0  0  0
  2  1  1  6
  2  3  1  0
  4  6  1  0
  4  2  1  0
  4  5  1  6
  6  7  2  0
  8  6  1  0
  8  9  1  0
  9 10  1  1
 10 11  1  0
 11 15  1  0
 11 12  2  0
 12 13  1  0
 14 13  1  0
 15 14  2  0
 16 17  2  0
 16  9  1  0
 18 19  1  0
 20 19  1  1
 20 21  1  0
 21 16  1  0
 22 20  1  0
 22 24  1  0
 23 22  2  0
M  END
$$$$
