VHS.pdb
     RDKit          3D

 24 24  0  0  1  0  0  0  0  0999 V2000
    8.2160  -12.8716   18.9468 C   0  0  0  0  0  0  0  0  0  0  0  0
    7.7279  -13.3292   20.3058 C   0  0  2  0  0  0  0  0  0  0  0  0
    8.3755  -12.4277   21.3374 C   0  0  0  0  0  0  0  0  0  0  0  0
    8.2024  -14.7337   20.5825 C   0  0  2  0  0  0  0  0  0  0  0  0
    7.7300  -15.5711   19.5027 N   0  0  0  0  0  0  0  0  0  0  0  0
    7.7426  -15.2595   21.8728 C   0  0  0  0  0  0  0  0  0  0  0  0
    6.5346  -15.2092   22.2380 O   0  0  0  0  0  0  0  0  0  0  0  0
    8.6839  -15.8507   22.7546 N   0  0  0  0  0  0  0  0  0  0  0  0
    8.4417  -16.3832   24.0442 C   0  0  1  0  0  0  0  0  0  0  0  0
    8.2793  -17.8966   24.1115 C   0  0  0  0  0  0  0  0  0  0  0  0
    7.0969  -18.3616   23.3460 C   0  0  0  0  0  0  0  0  0  0  0  0
    6.9955  -18.4451   21.9489 C   0  0  0  0  0  0  0  0  0  0  0  0
    5.7822  -18.9082   21.6277 N   0  0  0  0  0  0  0  0  0  0  0  0
    5.1250  -19.1157   22.7817 C   0  0  0  0  0  0  0  0  0  0  0  0
    5.9332  -18.7806   23.8121 N   0  0  0  0  0  0  0  0  0  0  0  0
    9.3424  -15.9575   25.1127 C   0  0  0  0  0  0  0  0  0  0  0  0
   10.5781  -15.8299   24.8516 O   0  0  0  0  0  0  0  0  0  0  0  0
    9.9864  -13.6625   29.2901 O   0  0  0  0  0  0  0  0  0  0  0  0
    9.2044  -14.1299   28.2504 C   0  0  0  0  0  0  0  0  0  0  0  0
    9.9201  -15.1962   27.4469 C   0  0  2  0  0  0  0  0  0  0  0  0
    8.9626  -15.6650   26.4460 N   0  0  0  0  0  0  0  0  0  0  0  0
   10.2578  -16.3428   28.3174 C   0  0  0  0  0  0  0  0  0  0  0  0
    9.5506  -17.3771   28.2923 O   0  0  0  0  0  0  0  0  0  0  0  0
   11.3405  -16.3426   29.1845 O   0  0  0  0  0  0  0  0  0  0  0  0
  2  1  1  6
  2  3  1  0
  4  6  1  0
  4  2  1  0
  4  5  1  6
  6  7  2  0
  8  6  1  0
  8  9  1  0
  9 10  1  6
 10 11  1  0
 11 15  1  0
 11 12  2  0
 12 13  1  0
 14 13  1  0
 15 14  2  0
 16 17  2  0
 16  9  1  0
 18 19  1  0
 20 19  1  1
 20 21  1  0
 21 16  1  0
 22 20  1  0
 22 24  1  0
 23 22  2  0
M  END
$$$$
