VHS.pdb
     RDKit          3D

 24 24  0  0  1  0  0  0  0  0999 V2000
    7.8009  -14.4682   18.3583 C   0  0  0  0  0  0  0  0  0  0  0  0
    8.0050  -13.3670   19.3783 C   0  0  2  0  0  0  0  0  0  0  0  0
    7.9942  -12.0536   18.6227 C   0  0  0  0  0  0  0  0  0  0  0  0
    9.3631  -13.4989   20.0207 C   0  0  2  0  0  0  0  0  0  0  0  0
   10.3457  -13.4996   18.9601 N   0  0  0  0  0  0  0  0  0  0  0  0
    9.5025  -14.7051   20.8442 C   0  0  0  0  0  0  0  0  0  0  0  0
    8.7088  -14.9826   21.7868 O   0  0  0  0  0  0  0  0  0  0  0  0
   10.5681  -15.6040   20.5807 N   0  0  0  0  0  0  0  0  0  0  0  0
   10.8524  -16.8229   21.2431 C   0  0  1  0  0  0  0  0  0  0  0  0
   11.5541  -17.8814   20.4013 C   0  0  0  0  0  0  0  0  0  0  0  0
   10.6800  -18.3986   19.3202 C   0  0  0  0  0  0  0  0  0  0  0  0
    9.4094  -18.9709   19.4852 C   0  0  0  0  0  0  0  0  0  0  0  0
    8.9289  -19.3166   18.2854 N   0  0  0  0  0  0  0  0  0  0  0  0
    9.8611  -18.9771   17.3786 C   0  0  0  0  0  0  0  0  0  0  0  0
   10.9143  -18.4231   18.0196 N   0  0  0  0  0  0  0  0  0  0  0  0
   11.5233  -16.7287   22.5375 C   0  0  0  0  0  0  0  0  0  0  0  0
   12.6206  -16.0944   22.6088 O   0  0  0  0  0  0  0  0  0  0  0  0
    9.7639  -17.9485   25.9761 O   0  0  0  0  0  0  0  0  0  0  0  0
   10.8106  -17.0554   26.1093 C   0  0  0  0  0  0  0  0  0  0  0  0
   11.8248  -17.2110   24.9948 C   0  0  2  0  0  0  0  0  0  0  0  0
   11.0575  -17.2894   23.7523 N   0  0  0  0  0  0  0  0  0  0  0  0
   12.5564  -18.4863   25.1523 C   0  0  0  0  0  0  0  0  0  0  0  0
   12.3190  -19.4436   24.3790 O   0  0  0  0  0  0  0  0  0  0  0  0
   13.5166  -18.6928   26.1318 O   0  0  0  0  0  0  0  0  0  0  0  0
  2  1  1  6
  2  3  1  0
  4  6  1  0
  4  2  1  0
  4  5  1  6
  6  7  2  0
  8  6  1  0
  8  9  1  0
  9 10  1  6
 10 11  1  0
 11 15  1  0
 11 12  2  0
 12 13  1  0
 14 13  1  0
 15 14  2  0
 16 17  2  0
 16  9  1  0
 18 19  1  0
 20 19  1  1
 20 21  1  0
 21 16  1  0
 22 20  1  0
 22 24  1  0
 23 22  2  0
M  END
$$$$
