VHS.pdb
     RDKit          3D

 24 24  0  0  1  0  0  0  0  0999 V2000
   11.7385  -17.9541   14.3226 C   0  0  0  0  0  0  0  0  0  0  0  0
   12.0177  -17.3398   15.6787 C   0  0  2  0  0  0  0  0  0  0  0  0
   12.6360  -18.4234   16.5388 C   0  0  0  0  0  0  0  0  0  0  0  0
   10.7254  -16.9308   16.3401 C   0  0  2  0  0  0  0  0  0  0  0  0
   10.0354  -16.0435   15.4307 N   0  0  0  0  0  0  0  0  0  0  0  0
   10.9182  -16.2780   17.6398 C   0  0  0  0  0  0  0  0  0  0  0  0
   11.7440  -15.3384   17.8149 O   0  0  0  0  0  0  0  0  0  0  0  0
   10.1518  -16.7109   18.7525 N   0  0  0  0  0  0  0  0  0  0  0  0
   10.1724  -16.1903   20.0692 C   0  0  1  0  0  0  0  0  0  0  0  0
    8.8122  -15.8412   20.6603 C   0  0  0  0  0  0  0  0  0  0  0  0
    8.1531  -14.7377   19.9201 C   0  0  0  0  0  0  0  0  0  0  0  0
    7.3843  -14.8665   18.7532 C   0  0  0  0  0  0  0  0  0  0  0  0
    6.9554  -13.6559   18.3790 N   0  0  0  0  0  0  0  0  0  0  0  0
    7.4333  -12.7772   19.2768 C   0  0  0  0  0  0  0  0  0  0  0  0
    8.1557  -13.4465   20.2027 N   0  0  0  0  0  0  0  0  0  0  0  0
   10.9400  -16.9386   21.0618 C   0  0  0  0  0  0  0  0  0  0  0  0
   10.6951  -18.1748   21.2142 O   0  0  0  0  0  0  0  0  0  0  0  0
   14.1136  -15.2902   23.0861 O   0  0  0  0  0  0  0  0  0  0  0  0
   14.1472  -16.6418   22.7980 C   0  0  0  0  0  0  0  0  0  0  0  0
   12.7580  -17.2458   22.7829 C   0  0  2  0  0  0  0  0  0  0  0  0
   11.9574  -16.4068   21.8920 N   0  0  0  0  0  0  0  0  0  0  0  0
   12.1589  -17.1677   24.1325 C   0  0  0  0  0  0  0  0  0  0  0  0
   11.1529  -16.4467   24.3298 O   0  0  0  0  0  0  0  0  0  0  0  0
   12.6569  -17.8640   25.2239 O   0  0  0  0  0  0  0  0  0  0  0  0
  2  1  1  6
  2  3  1  0
  4  6  1  0
  4  2  1  0
  4  5  1  6
  6  7  2  0
  8  6  1  0
  8  9  1  0
  9 10  1  1
 10 11  1  0
 11 15  1  0
 11 12  2  0
 12 13  1  0
 14 13  1  0
 15 14  2  0
 16 17  2  0
 16  9  1  0
 18 19  1  0
 20 19  1  1
 20 21  1  0
 21 16  1  0
 22 20  1  0
 22 24  1  0
 23 22  2  0
M  END
$$$$
