VHS.pdb
     RDKit          3D

 24 24  0  0  1  0  0  0  0  0999 V2000
    7.2937  -12.3940   18.6292 C   0  0  0  0  0  0  0  0  0  0  0  0
    8.3500  -13.2891   19.2438 C   0  0  2  0  0  0  0  0  0  0  0  0
    9.3149  -12.3902   19.9902 C   0  0  0  0  0  0  0  0  0  0  0  0
    9.1369  -13.9836   18.1608 C   0  0  2  0  0  0  0  0  0  0  0  0
    8.2000  -14.7448   17.3650 N   0  0  0  0  0  0  0  0  0  0  0  0
   10.1931  -14.8598   18.6799 C   0  0  0  0  0  0  0  0  0  0  0  0
    9.9494  -15.9758   19.2188 O   0  0  0  0  0  0  0  0  0  0  0  0
   11.5469  -14.4475   18.5784 N   0  0  0  0  0  0  0  0  0  0  0  0
   12.6980  -15.1538   19.0041 C   0  0  1  0  0  0  0  0  0  0  0  0
   13.9977  -14.7773   18.3037 C   0  0  0  0  0  0  0  0  0  0  0  0
   14.0568  -15.3113   16.9211 C   0  0  0  0  0  0  0  0  0  0  0  0
   13.4051  -16.4609   16.4488 C   0  0  0  0  0  0  0  0  0  0  0  0
   13.6940  -16.6233   15.1527 N   0  0  0  0  0  0  0  0  0  0  0  0
   14.5054  -15.6103   14.8033 C   0  0  0  0  0  0  0  0  0  0  0  0
   14.7157  -14.8253   15.8835 N   0  0  0  0  0  0  0  0  0  0  0  0
   12.9387  -15.2150   20.4437 C   0  0  0  0  0  0  0  0  0  0  0  0
   13.2261  -14.1421   21.0583 O   0  0  0  0  0  0  0  0  0  0  0  0
   11.7179  -17.0916   24.6031 O   0  0  0  0  0  0  0  0  0  0  0  0
   11.7162  -17.0085   23.2232 C   0  0  0  0  0  0  0  0  0  0  0  0
   12.9713  -16.3399   22.7011 C   0  0  2  0  0  0  0  0  0  0  0  0
   12.8809  -16.3840   21.2422 N   0  0  0  0  0  0  0  0  0  0  0  0
   14.1624  -17.1192   23.1013 C   0  0  0  0  0  0  0  0  0  0  0  0
   14.7545  -17.8341   22.2591 O   0  0  0  0  0  0  0  0  0  0  0  0
   14.6786  -17.1065   24.3887 O   0  0  0  0  0  0  0  0  0  0  0  0
  2  1  1  6
  2  3  1  0
  4  6  1  0
  4  2  1  0
  4  5  1  1
  6  7  2  0
  8  6  1  0
  8  9  1  0
  9 10  1  6
 10 11  1  0
 11 15  1  0
 11 12  2  0
 12 13  1  0
 14 13  1  0
 15 14  2  0
 16 17  2  0
 16  9  1  0
 18 19  1  0
 20 19  1  1
 20 21  1  0
 21 16  1  0
 22 20  1  0
 22 24  1  0
 23 22  2  0
M  END
$$$$
