VHS.pdb
     RDKit          3D

 24 24  0  0  1  0  0  0  0  0999 V2000
    7.1613  -12.5289   18.9145 C   0  0  0  0  0  0  0  0  0  0  0  0
    8.2825  -13.4576   19.3325 C   0  0  2  0  0  0  0  0  0  0  0  0
    9.2803  -12.6264   20.1135 C   0  0  0  0  0  0  0  0  0  0  0  0
    9.0003  -13.9862   18.1160 C   0  0  2  0  0  0  0  0  0  0  0  0
    8.0218  -14.6662   17.2972 N   0  0  0  0  0  0  0  0  0  0  0  0
   10.1084  -14.8911   18.4417 C   0  0  0  0  0  0  0  0  0  0  0  0
    9.9361  -16.1167   18.6936 O   0  0  0  0  0  0  0  0  0  0  0  0
   11.4315  -14.3803   18.4784 N   0  0  0  0  0  0  0  0  0  0  0  0
   12.6150  -15.0749   18.8279 C   0  0  1  0  0  0  0  0  0  0  0  0
   13.8303  -14.7846   17.9560 C   0  0  0  0  0  0  0  0  0  0  0  0
   13.7681  -15.5054   16.6611 C   0  0  0  0  0  0  0  0  0  0  0  0
   13.3802  -14.9600   15.4276 C   0  0  0  0  0  0  0  0  0  0  0  0
   13.4508  -15.9115   14.4898 N   0  0  0  0  0  0  0  0  0  0  0  0
   13.8707  -17.0324   15.1012 C   0  0  0  0  0  0  0  0  0  0  0  0
   14.0583  -16.7710   16.4141 N   0  0  0  0  0  0  0  0  0  0  0  0
   13.0185  -15.0249   20.2311 C   0  0  0  0  0  0  0  0  0  0  0  0
   13.4158  -13.9186   20.7105 O   0  0  0  0  0  0  0  0  0  0  0  0
   12.3387  -16.5943   24.6618 O   0  0  0  0  0  0  0  0  0  0  0  0
   12.1173  -16.5509   23.2980 C   0  0  0  0  0  0  0  0  0  0  0  0
   13.2986  -15.9583   22.5575 C   0  0  2  0  0  0  0  0  0  0  0  0
   13.0093  -16.1176   21.1329 N   0  0  0  0  0  0  0  0  0  0  0  0
   14.5222  -16.7325   22.8569 C   0  0  0  0  0  0  0  0  0  0  0  0
   14.9121  -17.6189   22.0613 O   0  0  0  0  0  0  0  0  0  0  0  0
   15.2859  -16.5314   23.9972 O   0  0  0  0  0  0  0  0  0  0  0  0
  2  1  1  6
  2  3  1  0
  4  6  1  0
  4  2  1  0
  4  5  1  6
  6  7  2  0
  8  6  1  0
  8  9  1  0
  9 10  1  6
 10 11  1  0
 11 15  1  0
 11 12  2  0
 12 13  1  0
 14 13  1  0
 15 14  2  0
 16 17  2  0
 16  9  1  0
 18 19  1  0
 20 19  1  1
 20 21  1  0
 21 16  1  0
 22 20  1  0
 22 24  1  0
 23 22  2  0
M  END
$$$$
