VHS.pdb
     RDKit          3D

 24 24  0  0  1  0  0  0  0  0999 V2000
   52.7906    1.4181  -33.9354 C   0  0  0  0  0  0  0  0  0  0  0  0
   52.2825    0.0875  -33.4199 C   0  0  2  0  0  0  0  0  0  0  0  0
   52.6100    0.0292  -31.9415 C   0  0  0  0  0  0  0  0  0  0  0  0
   53.0247   -1.0450  -34.0843 C   0  0  2  0  0  0  0  0  0  0  0  0
   53.3941   -0.6018  -35.4100 N   0  0  0  0  0  0  0  0  0  0  0  0
   52.2450   -2.2855  -34.1613 C   0  0  0  0  0  0  0  0  0  0  0  0
   51.9941   -2.9970  -33.1483 O   0  0  0  0  0  0  0  0  0  0  0  0
   51.7474   -2.7135  -35.4191 N   0  0  0  0  0  0  0  0  0  0  0  0
   52.0973   -3.8861  -36.1316 C   0  0  1  0  0  0  0  0  0  0  0  0
   52.1949   -3.7327  -37.6443 C   0  0  0  0  0  0  0  0  0  0  0  0
   52.1125   -5.0400  -38.3403 C   0  0  0  0  0  0  0  0  0  0  0  0
   52.2895   -5.2588  -39.7151 C   0  0  0  0  0  0  0  0  0  0  0  0
   52.1418   -6.5637  -39.9705 N   0  0  0  0  0  0  0  0  0  0  0  0
   51.8783   -7.1641  -38.7972 C   0  0  0  0  0  0  0  0  0  0  0  0
   51.8638   -6.2296  -37.8206 N   0  0  0  0  0  0  0  0  0  0  0  0
   53.2660   -4.6222  -35.6558 C   0  0  0  0  0  0  0  0  0  0  0  0
   54.3668   -4.0020  -35.5331 O   0  0  0  0  0  0  0  0  0  0  0  0
   52.3382   -8.0157  -36.2880 O   0  0  0  0  0  0  0  0  0  0  0  0
   53.7149   -8.1380  -36.2584 C   0  0  0  0  0  0  0  0  0  0  0  0
   54.3768   -6.8859  -35.7208 C   0  0  2  0  0  0  0  0  0  0  0  0
   53.2925   -5.9955  -35.3083 N   0  0  0  0  0  0  0  0  0  0  0  0
   55.1283   -6.2091  -36.7994 C   0  0  0  0  0  0  0  0  0  0  0  0
   54.5139   -5.7010  -37.7665 O   0  0  0  0  0  0  0  0  0  0  0  0
   56.5110   -6.0996  -36.8059 O   0  0  0  0  0  0  0  0  0  0  0  0
  2  1  1  6
  2  3  1  0
  4  6  1  0
  4  2  1  0
  4  5  1  6
  6  7  2  0
  8  6  1  0
  8  9  1  0
  9 10  1  6
 10 11  1  0
 11 15  1  0
 11 12  2  0
 12 13  1  0
 14 13  1  0
 15 14  2  0
 16 17  2  0
 16  9  1  0
 18 19  1  0
 20 19  1  6
 20 21  1  0
 21 16  1  0
 22 20  1  0
 22 24  1  0
 23 22  2  0
M  END
$$$$
