VHS.pdb
     RDKit          3D

 24 24  0  0  1  0  0  0  0  0999 V2000
    7.6328  -12.3604   18.3953 C   0  0  0  0  0  0  0  0  0  0  0  0
    8.0217  -13.4674   19.3533 C   0  0  2  0  0  0  0  0  0  0  0  0
    8.9067  -12.8461   20.4148 C   0  0  0  0  0  0  0  0  0  0  0  0
    8.8481  -14.5069   18.6384 C   0  0  2  0  0  0  0  0  0  0  0  0
    8.0586  -15.0028   17.5333 N   0  0  0  0  0  0  0  0  0  0  0  0
    9.2642  -15.6157   19.5044 C   0  0  0  0  0  0  0  0  0  0  0  0
    8.4594  -16.4972   19.9175 O   0  0  0  0  0  0  0  0  0  0  0  0
   10.6231  -15.7124   19.9006 N   0  0  0  0  0  0  0  0  0  0  0  0
   11.2193  -16.7180   20.6997 C   0  0  1  0  0  0  0  0  0  0  0  0
   12.4512  -17.3880   20.1039 C   0  0  0  0  0  0  0  0  0  0  0  0
   12.1094  -18.2404   18.9390 C   0  0  0  0  0  0  0  0  0  0  0  0
   12.2492  -17.8901   17.5873 C   0  0  0  0  0  0  0  0  0  0  0  0
   11.8405  -18.9131   16.8283 N   0  0  0  0  0  0  0  0  0  0  0  0
   11.4505  -19.8896   17.6657 C   0  0  0  0  0  0  0  0  0  0  0  0
   11.6191  -19.4678   18.9388 N   0  0  0  0  0  0  0  0  0  0  0  0
   11.4962  -16.3751   22.0926 C   0  0  0  0  0  0  0  0  0  0  0  0
   12.3005  -15.4236   22.3362 O   0  0  0  0  0  0  0  0  0  0  0  0
    9.0644  -17.5062   25.1094 O   0  0  0  0  0  0  0  0  0  0  0  0
    9.8546  -16.3806   25.2493 C   0  0  0  0  0  0  0  0  0  0  0  0
   11.2072  -16.5607   24.5914 C   0  0  2  0  0  0  0  0  0  0  0  0
   10.9407  -17.0160   23.2275 N   0  0  0  0  0  0  0  0  0  0  0  0
   11.9660  -17.6263   25.2806 C   0  0  0  0  0  0  0  0  0  0  0  0
   12.1490  -18.7298   24.7154 O   0  0  0  0  0  0  0  0  0  0  0  0
   12.5026  -17.4740   26.5506 O   0  0  0  0  0  0  0  0  0  0  0  0
  2  1  1  6
  2  3  1  0
  4  6  1  0
  4  2  1  0
  4  5  1  6
  6  7  2  0
  8  6  1  0
  8  9  1  0
  9 10  1  6
 10 11  1  0
 11 15  1  0
 11 12  2  0
 12 13  1  0
 14 13  1  0
 15 14  2  0
 16 17  2  0
 16  9  1  0
 18 19  1  0
 20 19  1  1
 20 21  1  0
 21 16  1  0
 22 20  1  0
 22 24  1  0
 23 22  2  0
M  END
$$$$
