VHS.pdb
     RDKit          3D

 24 24  0  0  1  0  0  0  0  0999 V2000
    7.4995  -12.5035   18.5351 C   0  0  0  0  0  0  0  0  0  0  0  0
    8.0459  -13.5314   19.5043 C   0  0  2  0  0  0  0  0  0  0  0  0
    9.1025  -12.8371   20.3397 C   0  0  0  0  0  0  0  0  0  0  0  0
    8.7342  -14.6418   18.7508 C   0  0  2  0  0  0  0  0  0  0  0  0
    7.7694  -15.2052   17.8330 N   0  0  0  0  0  0  0  0  0  0  0  0
    9.2768  -15.6883   19.6243 C   0  0  0  0  0  0  0  0  0  0  0  0
    8.5459  -16.4081   20.3612 O   0  0  0  0  0  0  0  0  0  0  0  0
   10.6779  -15.9102   19.6510 N   0  0  0  0  0  0  0  0  0  0  0  0
   11.3887  -16.8428   20.4449 C   0  0  1  0  0  0  0  0  0  0  0  0
   12.8356  -17.0882   20.0353 C   0  0  0  0  0  0  0  0  0  0  0  0
   13.4176  -18.2608   20.7328 C   0  0  0  0  0  0  0  0  0  0  0  0
   12.7581  -19.0861   21.6565 C   0  0  0  0  0  0  0  0  0  0  0  0
   13.6027  -20.0376   22.0702 N   0  0  0  0  0  0  0  0  0  0  0  0
   14.7676  -19.8302   21.4326 C   0  0  0  0  0  0  0  0  0  0  0  0
   14.6401  -18.7521   20.6273 N   0  0  0  0  0  0  0  0  0  0  0  0
   11.3342  -16.6526   21.8924 C   0  0  0  0  0  0  0  0  0  0  0  0
   11.7333  -15.5489   22.3762 O   0  0  0  0  0  0  0  0  0  0  0  0
    8.5362  -16.6440   24.0416 O   0  0  0  0  0  0  0  0  0  0  0  0
    9.3835  -17.5197   24.6944 C   0  0  0  0  0  0  0  0  0  0  0  0
   10.8245  -17.3266   24.2689 C   0  0  2  0  0  0  0  0  0  0  0  0
   10.8672  -17.6031   22.8336 N   0  0  0  0  0  0  0  0  0  0  0  0
   11.6877  -18.3194   24.9438 C   0  0  0  0  0  0  0  0  0  0  0  0
   12.1718  -19.2737   24.2914 O   0  0  0  0  0  0  0  0  0  0  0  0
   12.0027  -18.2567   26.2931 O   0  0  0  0  0  0  0  0  0  0  0  0
  2  1  1  6
  2  3  1  0
  4  6  1  0
  4  2  1  0
  4  5  1  6
  6  7  2  0
  8  6  1  0
  8  9  1  0
  9 10  1  6
 10 11  1  0
 11 15  1  0
 11 12  2  0
 12 13  1  0
 14 13  1  0
 15 14  2  0
 16 17  2  0
 16  9  1  0
 18 19  1  0
 20 19  1  1
 20 21  1  0
 21 16  1  0
 22 20  1  0
 22 24  1  0
 23 22  2  0
M  END
$$$$
