VHS.pdb
     RDKit          3D

 24 24  0  0  1  0  0  0  0  0999 V2000
    7.9689  -13.4680   20.8047 C   0  0  0  0  0  0  0  0  0  0  0  0
    8.6959  -12.7364   19.6953 C   0  0  2  0  0  0  0  0  0  0  0  0
    7.6965  -11.7947   19.0545 C   0  0  0  0  0  0  0  0  0  0  0  0
    9.1343  -13.7105   18.6306 C   0  0  2  0  0  0  0  0  0  0  0  0
    7.9453  -14.3485   18.1112 N   0  0  0  0  0  0  0  0  0  0  0  0
   10.0809  -14.7194   19.1194 C   0  0  0  0  0  0  0  0  0  0  0  0
    9.7198  -15.8746   19.4805 O   0  0  0  0  0  0  0  0  0  0  0  0
   11.4603  -14.3959   19.1940 N   0  0  0  0  0  0  0  0  0  0  0  0
   12.5067  -15.1946   19.7159 C   0  0  1  0  0  0  0  0  0  0  0  0
   13.9183  -14.7427   19.3632 C   0  0  0  0  0  0  0  0  0  0  0  0
   14.2796  -15.0924   17.9676 C   0  0  0  0  0  0  0  0  0  0  0  0
   13.6677  -16.0760   17.1756 C   0  0  0  0  0  0  0  0  0  0  0  0
   14.2621  -16.1015   15.9773 N   0  0  0  0  0  0  0  0  0  0  0  0
   15.2252  -15.1642   15.9989 C   0  0  0  0  0  0  0  0  0  0  0  0
   15.2234  -14.5624   17.2092 N   0  0  0  0  0  0  0  0  0  0  0  0
   12.4525  -15.5012   21.1433 C   0  0  0  0  0  0  0  0  0  0  0  0
   12.6033  -14.5540   21.9748 O   0  0  0  0  0  0  0  0  0  0  0  0
   10.9269  -18.9454   22.6135 O   0  0  0  0  0  0  0  0  0  0  0  0
   11.0187  -17.8484   23.4496 C   0  0  0  0  0  0  0  0  0  0  0  0
   12.2489  -17.0169   23.1491 C   0  0  2  0  0  0  0  0  0  0  0  0
   12.2424  -16.7847   21.7053 N   0  0  0  0  0  0  0  0  0  0  0  0
   13.4695  -17.7850   23.4752 C   0  0  0  0  0  0  0  0  0  0  0  0
   14.2539  -18.1312   22.5611 O   0  0  0  0  0  0  0  0  0  0  0  0
   13.8084  -18.1559   24.7681 O   0  0  0  0  0  0  0  0  0  0  0  0
  2  1  1  1
  2  3  1  0
  4  6  1  0
  4  2  1  0
  4  5  1  1
  6  7  2  0
  8  6  1  0
  8  9  1  0
  9 10  1  1
 10 11  1  0
 11 15  1  0
 11 12  2  0
 12 13  1  0
 14 13  1  0
 15 14  2  0
 16 17  2  0
 16  9  1  0
 18 19  1  0
 20 19  1  6
 20 21  1  0
 21 16  1  0
 22 20  1  0
 22 24  1  0
 23 22  2  0
M  END
$$$$
