VHS.pdb
     RDKit          3D

 24 24  0  0  1  0  0  0  0  0999 V2000
    7.5688  -13.3040   20.8540 C   0  0  0  0  0  0  0  0  0  0  0  0
    8.5942  -13.2944   19.7391 C   0  0  2  0  0  0  0  0  0  0  0  0
    8.0537  -12.3950   18.6459 C   0  0  0  0  0  0  0  0  0  0  0  0
    8.7338  -14.6756   19.1496 C   0  0  2  0  0  0  0  0  0  0  0  0
    7.4506  -15.0404   18.5923 N   0  0  0  0  0  0  0  0  0  0  0  0
    9.1704  -15.6823   20.1235 C   0  0  0  0  0  0  0  0  0  0  0  0
    8.3628  -16.3054   20.8685 O   0  0  0  0  0  0  0  0  0  0  0  0
   10.5532  -15.9765   20.2426 N   0  0  0  0  0  0  0  0  0  0  0  0
   11.1714  -16.8595   21.1610 C   0  0  1  0  0  0  0  0  0  0  0  0
   12.5062  -17.4439   20.7156 C   0  0  0  0  0  0  0  0  0  0  0  0
   12.3408  -18.4329   19.6226 C   0  0  0  0  0  0  0  0  0  0  0  0
   11.2910  -19.3549   19.4919 C   0  0  0  0  0  0  0  0  0  0  0  0
   11.4821  -20.0772   18.3822 N   0  0  0  0  0  0  0  0  0  0  0  0
   12.6184  -19.6335   17.8179 C   0  0  0  0  0  0  0  0  0  0  0  0
   13.1262  -18.6390   18.5797 N   0  0  0  0  0  0  0  0  0  0  0  0
   11.2971  -16.3939   22.5401 C   0  0  0  0  0  0  0  0  0  0  0  0
   12.0759  -15.4218   22.7851 O   0  0  0  0  0  0  0  0  0  0  0  0
    8.4129  -16.8187   25.2405 O   0  0  0  0  0  0  0  0  0  0  0  0
    9.3906  -15.8531   25.3910 C   0  0  0  0  0  0  0  0  0  0  0  0
   10.7586  -16.3763   25.0042 C   0  0  2  0  0  0  0  0  0  0  0  0
   10.6174  -16.9341   23.6597 N   0  0  0  0  0  0  0  0  0  0  0  0
   11.1522  -17.4779   25.9086 C   0  0  0  0  0  0  0  0  0  0  0  0
   11.3263  -17.2534   27.1293 O   0  0  0  0  0  0  0  0  0  0  0  0
   11.3458  -18.7813   25.4754 O   0  0  0  0  0  0  0  0  0  0  0  0
  2  1  1  1
  2  3  1  0
  4  6  1  0
  4  2  1  0
  4  5  1  1
  6  7  2  0
  8  6  1  0
  8  9  1  0
  9 10  1  6
 10 11  1  0
 11 15  1  0
 11 12  2  0
 12 13  1  0
 14 13  1  0
 15 14  2  0
 16 17  2  0
 16  9  1  0
 18 19  1  0
 20 19  1  1
 20 21  1  0
 21 16  1  0
 22 20  1  0
 22 24  1  0
 23 22  2  0
M  END
$$$$
