VHS.pdb
     RDKit          3D

 24 24  0  0  1  0  0  0  0  0999 V2000
    7.1579  -13.3176   18.8976 C   0  0  0  0  0  0  0  0  0  0  0  0
    7.5631  -13.3278   20.3571 C   0  0  2  0  0  0  0  0  0  0  0  0
    8.7166  -12.3562   20.5050 C   0  0  0  0  0  0  0  0  0  0  0  0
    8.0783  -14.6914   20.7439 C   0  0  2  0  0  0  0  0  0  0  0  0
    7.0006  -15.6342   20.5440 N   0  0  0  0  0  0  0  0  0  0  0  0
    8.5637  -14.7591   22.1269 C   0  0  0  0  0  0  0  0  0  0  0  0
    9.6253  -14.1890   22.5055 O   0  0  0  0  0  0  0  0  0  0  0  0
    7.8190  -15.4917   23.0869 N   0  0  0  0  0  0  0  0  0  0  0  0
    8.1375  -15.6985   24.4511 C   0  0  1  0  0  0  0  0  0  0  0  0
    6.9703  -15.5855   25.4239 C   0  0  0  0  0  0  0  0  0  0  0  0
    6.7194  -14.1804   25.8275 C   0  0  0  0  0  0  0  0  0  0  0  0
    7.5184  -13.0718   25.5079 C   0  0  0  0  0  0  0  0  0  0  0  0
    6.9740  -11.9740   26.0448 N   0  0  0  0  0  0  0  0  0  0  0  0
    5.8608  -12.3648   26.6888 C   0  0  0  0  0  0  0  0  0  0  0  0
    5.7203  -13.7018   26.5484 N   0  0  0  0  0  0  0  0  0  0  0  0
    8.9060  -16.8983   24.7739 C   0  0  0  0  0  0  0  0  0  0  0  0
    8.5448  -18.0058   24.2694 O   0  0  0  0  0  0  0  0  0  0  0  0
   12.9072  -19.1281   25.1585 O   0  0  0  0  0  0  0  0  0  0  0  0
   12.0839  -18.0258   25.0232 C   0  0  0  0  0  0  0  0  0  0  0  0
   10.8081  -18.1781   25.8257 C   0  0  2  0  0  0  0  0  0  0  0  0
   10.0444  -16.9487   25.6158 N   0  0  0  0  0  0  0  0  0  0  0  0
   11.1258  -18.2692   27.2668 C   0  0  0  0  0  0  0  0  0  0  0  0
   10.7967  -17.3395   28.0402 O   0  0  0  0  0  0  0  0  0  0  0  0
   11.7847  -19.3519   27.8304 O   0  0  0  0  0  0  0  0  0  0  0  0
  2  1  1  6
  2  3  1  0
  4  6  1  0
  4  2  1  0
  4  5  1  1
  6  7  2  0
  8  6  1  0
  8  9  1  0
  9 10  1  1
 10 11  1  0
 11 15  1  0
 11 12  2  0
 12 13  1  0
 14 13  1  0
 15 14  2  0
 16 17  2  0
 16  9  1  0
 18 19  1  0
 20 19  1  6
 20 21  1  0
 21 16  1  0
 22 20  1  0
 22 24  1  0
 23 22  2  0
M  END
$$$$
