VHS.pdb
     RDKit          3D

 24 24  0  0  1  0  0  0  0  0999 V2000
    6.9359  -12.9945   18.4538 C   0  0  0  0  0  0  0  0  0  0  0  0
    8.1601  -13.3561   19.2691 C   0  0  2  0  0  0  0  0  0  0  0  0
    8.5850  -12.1054   20.0118 C   0  0  0  0  0  0  0  0  0  0  0  0
    9.2980  -13.7389   18.3563 C   0  0  2  0  0  0  0  0  0  0  0  0
    8.7822  -13.7575   17.0057 N   0  0  0  0  0  0  0  0  0  0  0  0
    9.9000  -15.0349   18.6890 C   0  0  0  0  0  0  0  0  0  0  0  0
    9.5932  -16.1032   18.0890 O   0  0  0  0  0  0  0  0  0  0  0  0
   10.8672  -15.1035   19.7248 N   0  0  0  0  0  0  0  0  0  0  0  0
   12.2644  -15.2898   19.5895 C   0  0  1  0  0  0  0  0  0  0  0  0
   12.9348  -14.4693   18.4945 C   0  0  0  0  0  0  0  0  0  0  0  0
   13.1039  -15.2481   17.2435 C   0  0  0  0  0  0  0  0  0  0  0  0
   12.6580  -16.5594   17.0177 C   0  0  0  0  0  0  0  0  0  0  0  0
   12.9913  -16.9242   15.7746 N   0  0  0  0  0  0  0  0  0  0  0  0
   13.6311  -15.8807   15.2193 C   0  0  0  0  0  0  0  0  0  0  0  0
   13.6914  -14.8745   16.1200 N   0  0  0  0  0  0  0  0  0  0  0  0
   13.0634  -15.1915   20.8085 C   0  0  0  0  0  0  0  0  0  0  0  0
   13.7142  -14.1232   21.0246 O   0  0  0  0  0  0  0  0  0  0  0  0
   12.1465  -17.6998   23.8040 O   0  0  0  0  0  0  0  0  0  0  0  0
   12.4742  -16.3822   24.0642 C   0  0  0  0  0  0  0  0  0  0  0  0
   13.5973  -15.8977   23.1704 C   0  0  2  0  0  0  0  0  0  0  0  0
   13.1862  -16.1969   21.7993 N   0  0  0  0  0  0  0  0  0  0  0  0
   14.8302  -16.6653   23.4476 C   0  0  0  0  0  0  0  0  0  0  0  0
   15.2998  -17.4317   22.5741 O   0  0  0  0  0  0  0  0  0  0  0  0
   15.5177  -16.5864   24.6497 O   0  0  0  0  0  0  0  0  0  0  0  0
  2  1  1  6
  2  3  1  0
  4  6  1  0
  4  2  1  0
  4  5  1  6
  6  7  2  0
  8  6  1  0
  8  9  1  0
  9 10  1  6
 10 11  1  0
 11 15  1  0
 11 12  2  0
 12 13  1  0
 14 13  1  0
 15 14  2  0
 16 17  2  0
 16  9  1  0
 18 19  1  0
 20 19  1  1
 20 21  1  0
 21 16  1  0
 22 20  1  0
 22 24  1  0
 23 22  2  0
M  END
$$$$
