ELT.pdb
     RDKit          3D

 25 24  0  0  1  0  0  0  0  0999 V2000
   26.9852  -18.8863  -16.3418 N   0  0  0  0  0  0  0  0  0  0  0  0
   26.2914  -18.5393  -15.1138 C   0  0  1  0  0  0  0  0  0  0  0  0
   25.0471  -17.7508  -15.5498 C   0  0  0  0  0  0  0  0  0  0  0  0
   24.3201  -18.5841  -16.6119 C   0  0  0  0  0  0  0  0  0  0  0  0
   23.1363  -17.8656  -17.1244 C   0  0  0  0  0  0  0  0  0  0  0  0
   22.3421  -18.4116  -17.9194 O   0  0  0  0  0  0  0  0  0  0  0  0
   25.8745  -19.8068  -14.4639 C   0  0  0  0  0  0  0  0  0  0  0  0
   25.7626  -20.8436  -15.1542 O   0  0  0  0  0  0  0  0  0  0  0  0
   22.8841  -16.5577  -16.7295 O   0  0  0  0  0  0  0  0  0  0  0  0
   27.8493  -21.4894  -11.2983 C   0  0  0  0  0  0  0  0  0  0  0  0
   26.6554  -21.5973  -10.4222 C   0  0  1  0  0  0  0  0  0  0  0  0
   26.9815  -21.0255   -9.0349 C   0  0  0  0  0  0  0  0  0  0  0  0
   25.4185  -20.9241  -10.8851 C   0  0  0  0  0  0  0  0  0  0  0  0
   25.1789  -20.9650  -12.3628 C   0  0  2  0  0  0  0  0  0  0  0  0
   25.6127  -19.8050  -13.0663 N   0  0  0  0  0  0  0  0  0  0  0  0
   23.7411  -21.2654  -12.5873 C   0  0  0  0  0  0  0  0  0  0  0  0
   23.2503  -22.3095  -12.0923 O   0  0  0  0  0  0  0  0  0  0  0  0
   19.1129  -19.8781  -13.3029 C   0  0  0  0  0  0  0  0  0  0  0  0
   20.5583  -19.7386  -12.9352 C   0  0  1  0  0  0  0  0  0  0  0  0
   20.7212  -19.8065  -11.5567 O   0  0  0  0  0  0  0  0  0  0  0  0
   21.4699  -20.7308  -13.5754 C   0  0  2  0  0  0  0  0  0  0  0  0
   22.8747  -20.4324  -13.3372 N   0  0  0  0  0  0  0  0  0  0  0  0
   21.2030  -20.9320  -15.0167 C   0  0  0  0  0  0  0  0  0  0  0  0
   19.9555  -21.3835  -15.4091 O   0  0  0  0  0  0  0  0  0  0  0  0
   22.0581  -20.7108  -15.9071 O   0  0  0  0  0  0  0  0  0  0  0  0
  2  7  1  0
  2  1  1  6
  3  2  1  0
  4  3  1  0
  5  4  1  0
  6  5  2  0
  7  8  2  0
  9  5  1  0
 11 10  1  6
 11 12  1  0
 13 11  1  0
 14 13  1  1
 15 14  1  0
 15  7  1  0
 16 22  1  0
 16 14  1  0
 17 16  2  0
 19 18  1  1
 20 19  1  0
 21 19  1  0
 21 22  1  6
 23 21  1  0
 23 24  1  0
 25 23  2  0
M  END
$$$$
