ELT.pdb
     RDKit          3D

 25 24  0  0  1  0  0  0  0  0999 V2000
   17.8732   -9.6476  -16.8035 N   0  0  0  0  0  0  0  0  0  0  0  0
   17.4651   -8.6811  -15.7990 C   0  0  1  0  0  0  0  0  0  0  0  0
   16.7513   -9.4938  -14.7081 C   0  0  0  0  0  0  0  0  0  0  0  0
   15.6098  -10.2667  -15.3794 C   0  0  0  0  0  0  0  0  0  0  0  0
   14.8419  -11.0405  -14.3836 C   0  0  0  0  0  0  0  0  0  0  0  0
   13.7006  -10.6804  -14.0244 O   0  0  0  0  0  0  0  0  0  0  0  0
   18.6975   -8.0724  -15.2395 C   0  0  0  0  0  0  0  0  0  0  0  0
   18.6065   -7.2583  -14.2945 O   0  0  0  0  0  0  0  0  0  0  0  0
   15.3806  -12.1915  -13.8222 O   0  0  0  0  0  0  0  0  0  0  0  0
   23.2990  -10.9960  -14.6183 C   0  0  0  0  0  0  0  0  0  0  0  0
   22.2275   -9.9729  -14.5187 C   0  0  1  0  0  0  0  0  0  0  0  0
   22.1354   -9.4630  -13.0733 C   0  0  0  0  0  0  0  0  0  0  0  0
   22.3543   -8.7795  -15.3888 C   0  0  0  0  0  0  0  0  0  0  0  0
   21.1817   -7.8481  -15.3772 C   0  0  2  0  0  0  0  0  0  0  0  0
   19.9539   -8.4350  -15.7979 N   0  0  0  0  0  0  0  0  0  0  0  0
   21.5420   -6.6452  -16.1716 C   0  0  0  0  0  0  0  0  0  0  0  0
   22.5393   -5.9634  -15.8300 O   0  0  0  0  0  0  0  0  0  0  0  0
   21.9556   -6.2661  -20.1563 C   0  0  0  0  0  0  0  0  0  0  0  0
   21.0115   -5.2658  -19.5629 C   0  0  1  0  0  0  0  0  0  0  0  0
   19.6937   -5.6257  -19.8180 O   0  0  0  0  0  0  0  0  0  0  0  0
   21.1721   -5.0402  -18.0971 C   0  0  2  0  0  0  0  0  0  0  0  0
   20.8186   -6.2128  -17.3102 N   0  0  0  0  0  0  0  0  0  0  0  0
   20.4687   -3.8348  -17.6059 C   0  0  0  0  0  0  0  0  0  0  0  0
   20.8660   -2.5933  -18.0695 O   0  0  0  0  0  0  0  0  0  0  0  0
   19.5222   -3.8835  -16.7845 O   0  0  0  0  0  0  0  0  0  0  0  0
  2  7  1  0
  2  1  1  6
  3  2  1  0
  4  3  1  0
  5  4  1  0
  6  5  2  0
  7  8  2  0
  9  5  1  0
 11 10  1  1
 11 12  1  0
 13 11  1  0
 14 13  1  6
 15 14  1  0
 15  7  1  0
 16 22  1  0
 16 14  1  0
 17 16  2  0
 19 18  1  1
 20 19  1  0
 21 19  1  0
 21 22  1  1
 23 21  1  0
 23 24  1  0
 25 23  2  0
M  END
$$$$
