ELT.pdb
     RDKit          3D

 25 24  0  0  1  0  0  0  0  0999 V2000
   20.4634  -20.1831  -12.4600 N   0  0  0  0  0  0  0  0  0  0  0  0
   21.4029  -21.2084  -12.8791 C   0  0  1  0  0  0  0  0  0  0  0  0
   20.8987  -21.6991  -14.2448 C   0  0  0  0  0  0  0  0  0  0  0  0
   19.5513  -22.3945  -14.0178 C   0  0  0  0  0  0  0  0  0  0  0  0
   19.5618  -23.7586  -14.5829 C   0  0  0  0  0  0  0  0  0  0  0  0
   20.5717  -24.2108  -15.1631 O   0  0  0  0  0  0  0  0  0  0  0  0
   22.7277  -20.5595  -13.0418 C   0  0  0  0  0  0  0  0  0  0  0  0
   22.7872  -19.3747  -13.4376 O   0  0  0  0  0  0  0  0  0  0  0  0
   18.4382  -24.5692  -14.4803 O   0  0  0  0  0  0  0  0  0  0  0  0
   26.6472  -21.6596   -9.3574 C   0  0  0  0  0  0  0  0  0  0  0  0
   25.7620  -21.0823  -10.4005 C   0  0  1  0  0  0  0  0  0  0  0  0
   25.6191  -19.5702  -10.1752 C   0  0  0  0  0  0  0  0  0  0  0  0
   26.1747  -21.2700  -11.8118 C   0  0  0  0  0  0  0  0  0  0  0  0
   25.2092  -20.7606  -12.8370 C   0  0  2  0  0  0  0  0  0  0  0  0
   23.8981  -21.3089  -12.7411 N   0  0  0  0  0  0  0  0  0  0  0  0
   25.8155  -20.9601  -14.1788 C   0  0  0  0  0  0  0  0  0  0  0  0
   26.0298  -22.1285  -14.5850 O   0  0  0  0  0  0  0  0  0  0  0  0
   24.4573  -20.7610  -17.3949 C   0  0  0  0  0  0  0  0  0  0  0  0
   25.6294  -19.8290  -17.4328 C   0  0  1  0  0  0  0  0  0  0  0  0
   25.2084  -18.5089  -17.3257 O   0  0  0  0  0  0  0  0  0  0  0  0
   26.6721  -20.0855  -16.3973 C   0  0  2  0  0  0  0  0  0  0  0  0
   26.1721  -19.8960  -15.0433 N   0  0  0  0  0  0  0  0  0  0  0  0
   27.9212  -19.3237  -16.6175 C   0  0  0  0  0  0  0  0  0  0  0  0
   28.2509  -18.3104  -15.7351 O   0  0  0  0  0  0  0  0  0  0  0  0
   28.7024  -19.5539  -17.5713 O   0  0  0  0  0  0  0  0  0  0  0  0
  2  7  1  0
  2  1  1  6
  3  2  1  0
  4  3  1  0
  5  4  1  0
  6  5  2  0
  7  8  2  0
  9  5  1  0
 11 10  1  1
 11 12  1  0
 13 11  1  0
 14 13  1  1
 15 14  1  0
 15  7  1  0
 16 22  1  0
 16 14  1  0
 17 16  2  0
 19 18  1  1
 20 19  1  0
 21 19  1  0
 21 22  1  1
 23 21  1  0
 23 24  1  0
 25 23  2  0
M  END
$$$$
