ELT.pdb
     RDKit          3D

 25 24  0  0  1  0  0  0  0  0999 V2000
   18.7828  -10.9558  -17.3843 N   0  0  0  0  0  0  0  0  0  0  0  0
   18.2369  -10.3866  -16.1646 C   0  0  1  0  0  0  0  0  0  0  0  0
   17.5553  -11.5525  -15.4323 C   0  0  0  0  0  0  0  0  0  0  0  0
   16.3993  -12.0397  -16.3138 C   0  0  0  0  0  0  0  0  0  0  0  0
   15.6614  -13.1358  -15.6547 C   0  0  0  0  0  0  0  0  0  0  0  0
   14.5870  -12.9226  -15.0535 O   0  0  0  0  0  0  0  0  0  0  0  0
   19.3773   -9.8896  -15.3553 C   0  0  0  0  0  0  0  0  0  0  0  0
   19.1799   -9.5199  -14.1771 O   0  0  0  0  0  0  0  0  0  0  0  0
   16.1544  -14.4342  -15.6901 O   0  0  0  0  0  0  0  0  0  0  0  0
   24.3988  -12.1026  -15.9305 C   0  0  0  0  0  0  0  0  0  0  0  0
   23.1909  -11.4066  -15.4193 C   0  0  1  0  0  0  0  0  0  0  0  0
   23.0730  -11.6259  -13.9041 C   0  0  0  0  0  0  0  0  0  0  0  0
   23.1088   -9.9447  -15.6503 C   0  0  0  0  0  0  0  0  0  0  0  0
   21.8054   -9.3075  -15.2792 C   0  0  2  0  0  0  0  0  0  0  0  0
   20.6695   -9.8480  -15.9473 N   0  0  0  0  0  0  0  0  0  0  0  0
   21.9388   -7.8405  -15.4741 C   0  0  0  0  0  0  0  0  0  0  0  0
   22.4808   -7.4099  -16.5215 O   0  0  0  0  0  0  0  0  0  0  0  0
   19.8248   -5.2981  -16.5180 C   0  0  0  0  0  0  0  0  0  0  0  0
   20.3168   -4.8253  -15.1845 C   0  0  1  0  0  0  0  0  0  0  0  0
   19.3505   -5.0283  -14.2064 O   0  0  0  0  0  0  0  0  0  0  0  0
   21.5965   -5.4427  -14.7299 C   0  0  2  0  0  0  0  0  0  0  0  0
   21.4840   -6.8811  -14.5363 N   0  0  0  0  0  0  0  0  0  0  0  0
   22.1765   -4.7864  -13.5375 C   0  0  0  0  0  0  0  0  0  0  0  0
   22.5103   -3.4456  -13.6081 O   0  0  0  0  0  0  0  0  0  0  0  0
   22.3809   -5.3900  -12.4573 O   0  0  0  0  0  0  0  0  0  0  0  0
  2  7  1  0
  2  1  1  6
  3  2  1  0
  4  3  1  0
  5  4  1  0
  6  5  2  0
  7  8  2  0
  9  5  1  0
 11 10  1  1
 11 12  1  0
 13 11  1  0
 14 13  1  6
 15 14  1  0
 15  7  1  0
 16 22  1  0
 16 14  1  0
 17 16  2  0
 19 18  1  6
 20 19  1  0
 21 19  1  0
 21 22  1  1
 23 21  1  0
 23 24  1  0
 25 23  2  0
M  END
$$$$
