ELT.pdb
     RDKit          3D

 25 24  0  0  1  0  0  0  0  0999 V2000
   20.7745  -13.3053  -16.5019 N   0  0  0  0  0  0  0  0  0  0  0  0
   21.3509  -12.1831  -17.2217 C   0  0  1  0  0  0  0  0  0  0  0  0
   20.1758  -11.5065  -17.9438 C   0  0  0  0  0  0  0  0  0  0  0  0
   19.6755  -12.4755  -19.0216 C   0  0  0  0  0  0  0  0  0  0  0  0
   18.6125  -11.8530  -19.8357 C   0  0  0  0  0  0  0  0  0  0  0  0
   17.5341  -12.4451  -20.0538 O   0  0  0  0  0  0  0  0  0  0  0  0
   21.9186  -11.2521  -16.2151 C   0  0  0  0  0  0  0  0  0  0  0  0
   21.4386  -11.2280  -15.0605 O   0  0  0  0  0  0  0  0  0  0  0  0
   18.7954  -10.5879  -20.3799 O   0  0  0  0  0  0  0  0  0  0  0  0
   27.3240  -10.1951  -16.6263 C   0  0  0  0  0  0  0  0  0  0  0  0
   25.9183  -10.4313  -16.2103 C   0  0  1  0  0  0  0  0  0  0  0  0
   25.8967  -11.2403  -14.9054 C   0  0  0  0  0  0  0  0  0  0  0  0
   25.0724   -9.2344  -15.9887 C   0  0  0  0  0  0  0  0  0  0  0  0
   23.6319   -9.5122  -15.6878 C   0  0  2  0  0  0  0  0  0  0  0  0
   22.9987  -10.4091  -16.5953 N   0  0  0  0  0  0  0  0  0  0  0  0
   22.9244   -8.2097  -15.5842 C   0  0  0  0  0  0  0  0  0  0  0  0
   23.2843   -7.3867  -14.7072 O   0  0  0  0  0  0  0  0  0  0  0  0
   22.1112   -5.4102  -18.2971 C   0  0  0  0  0  0  0  0  0  0  0  0
   20.8799   -5.9170  -17.6109 C   0  0  1  0  0  0  0  0  0  0  0  0
   20.1867   -6.7952  -18.4354 O   0  0  0  0  0  0  0  0  0  0  0  0
   21.1190   -6.5807  -16.2965 C   0  0  2  0  0  0  0  0  0  0  0  0
   21.8513   -7.8319  -16.4284 N   0  0  0  0  0  0  0  0  0  0  0  0
   19.8881   -6.7633  -15.4960 C   0  0  0  0  0  0  0  0  0  0  0  0
   19.1715   -5.6457  -15.1069 O   0  0  0  0  0  0  0  0  0  0  0  0
   19.4586   -7.8900  -15.1513 O   0  0  0  0  0  0  0  0  0  0  0  0
  2  7  1  0
  2  1  1  1
  3  2  1  0
  4  3  1  0
  5  4  1  0
  6  5  2  0
  7  8  2  0
  9  5  1  0
 11 10  1  1
 11 12  1  0
 13 11  1  0
 14 13  1  6
 15 14  1  0
 15  7  1  0
 16 22  1  0
 16 14  1  0
 17 16  2  0
 19 18  1  6
 20 19  1  0
 21 19  1  0
 21 22  1  6
 23 21  1  0
 23 24  1  0
 25 23  2  0
M  END
$$$$
