ELT.pdb
     RDKit          3D

 25 24  0  0  1  0  0  0  0  0999 V2000
   15.5873  -10.5281  -14.3653 N   0  0  0  0  0  0  0  0  0  0  0  0
   16.5480  -10.0811  -15.3588 C   0  0  1  0  0  0  0  0  0  0  0  0
   15.8651   -8.9245  -16.1044 C   0  0  0  0  0  0  0  0  0  0  0  0
   14.7750   -9.5292  -16.9970 C   0  0  0  0  0  0  0  0  0  0  0  0
   14.1379   -8.4878  -17.8276 C   0  0  0  0  0  0  0  0  0  0  0  0
   14.4806   -7.2896  -17.7384 O   0  0  0  0  0  0  0  0  0  0  0  0
   17.7368   -9.5709  -14.6314 C   0  0  0  0  0  0  0  0  0  0  0  0
   17.5998   -9.1096  -13.4771 O   0  0  0  0  0  0  0  0  0  0  0  0
   13.1361   -8.8249  -18.7291 O   0  0  0  0  0  0  0  0  0  0  0  0
   22.5932   -9.1755  -12.6643 C   0  0  0  0  0  0  0  0  0  0  0  0
   22.6120   -9.5075  -14.1114 C   0  0  1  0  0  0  0  0  0  0  0  0
   23.7095  -10.5454  -14.3873 C   0  0  0  0  0  0  0  0  0  0  0  0
   21.3584  -10.0414  -14.6953 C   0  0  0  0  0  0  0  0  0  0  0  0
   20.1905   -9.1043  -14.6763 C   0  0  2  0  0  0  0  0  0  0  0  0
   19.0050   -9.6219  -15.2725 N   0  0  0  0  0  0  0  0  0  0  0  0
   20.6222   -7.8192  -15.2848 C   0  0  0  0  0  0  0  0  0  0  0  0
   21.1202   -7.8254  -16.4372 O   0  0  0  0  0  0  0  0  0  0  0  0
   18.6156   -4.9635  -16.4199 C   0  0  0  0  0  0  0  0  0  0  0  0
   19.6323   -4.4283  -15.4588 C   0  0  1  0  0  0  0  0  0  0  0  0
   19.0522   -4.1811  -14.2203 O   0  0  0  0  0  0  0  0  0  0  0  0
   20.8312   -5.2941  -15.2627 C   0  0  2  0  0  0  0  0  0  0  0  0
   20.5040   -6.5660  -14.6348 N   0  0  0  0  0  0  0  0  0  0  0  0
   21.9378   -4.6161  -14.5523 C   0  0  0  0  0  0  0  0  0  0  0  0
   22.2987   -5.0642  -13.2941 O   0  0  0  0  0  0  0  0  0  0  0  0
   22.5704   -3.6485  -15.0387 O   0  0  0  0  0  0  0  0  0  0  0  0
  2  7  1  0
  2  1  1  1
  3  2  1  0
  4  3  1  0
  5  4  1  0
  6  5  2  0
  7  8  2  0
  9  5  1  0
 11 10  1  1
 11 12  1  0
 13 11  1  0
 14 13  1  6
 15 14  1  0
 15  7  1  0
 16 22  1  0
 16 14  1  0
 17 16  2  0
 19 18  1  6
 20 19  1  0
 21 19  1  0
 21 22  1  1
 23 21  1  0
 23 24  1  0
 25 23  2  0
M  END
$$$$
