ELT.pdb
     RDKit          3D

 25 24  0  0  1  0  0  0  0  0999 V2000
   16.2057  -10.3603  -16.9270 N   0  0  0  0  0  0  0  0  0  0  0  0
   17.2802   -9.5147  -17.4170 C   0  0  1  0  0  0  0  0  0  0  0  0
   16.5973   -8.2500  -17.9596 C   0  0  0  0  0  0  0  0  0  0  0  0
   16.0170   -8.5923  -19.3368 C   0  0  0  0  0  0  0  0  0  0  0  0
   15.3853   -7.4072  -19.9506 C   0  0  0  0  0  0  0  0  0  0  0  0
   14.2108   -7.4467  -20.3749 O   0  0  0  0  0  0  0  0  0  0  0  0
   18.1333   -9.1599  -16.2556 C   0  0  0  0  0  0  0  0  0  0  0  0
   17.5975   -8.9009  -15.1558 O   0  0  0  0  0  0  0  0  0  0  0  0
   16.0930   -6.2176  -20.0698 O   0  0  0  0  0  0  0  0  0  0  0  0
   21.9472   -9.2879  -12.6776 C   0  0  0  0  0  0  0  0  0  0  0  0
   22.4804   -9.4534  -14.0535 C   0  0  1  0  0  0  0  0  0  0  0  0
   23.5618  -10.5435  -14.0589 C   0  0  0  0  0  0  0  0  0  0  0  0
   21.5070   -9.8077  -15.1138 C   0  0  0  0  0  0  0  0  0  0  0  0
   20.4411   -8.7887  -15.3744 C   0  0  2  0  0  0  0  0  0  0  0  0
   19.5442   -9.1247  -16.4287 N   0  0  0  0  0  0  0  0  0  0  0  0
   21.1026   -7.4747  -15.5838 C   0  0  0  0  0  0  0  0  0  0  0  0
   21.9321   -7.3500  -16.5178 O   0  0  0  0  0  0  0  0  0  0  0  0
   19.5564   -4.1548  -16.4918 C   0  0  0  0  0  0  0  0  0  0  0  0
   20.3847   -3.9750  -15.2567 C   0  0  1  0  0  0  0  0  0  0  0  0
   19.5743   -3.9081  -14.1296 O   0  0  0  0  0  0  0  0  0  0  0  0
   21.4252   -5.0214  -15.0379 C   0  0  2  0  0  0  0  0  0  0  0  0
   20.8508   -6.3343  -14.7819 N   0  0  0  0  0  0  0  0  0  0  0  0
   22.4158   -4.6596  -14.0002 C   0  0  0  0  0  0  0  0  0  0  0  0
   23.2891   -3.6148  -14.2448 O   0  0  0  0  0  0  0  0  0  0  0  0
   22.5026   -5.2572  -12.9010 O   0  0  0  0  0  0  0  0  0  0  0  0
  2  7  1  0
  2  1  1  1
  3  2  1  0
  4  3  1  0
  5  4  1  0
  6  5  2  0
  7  8  2  0
  9  5  1  0
 11 10  1  1
 11 12  1  0
 13 11  1  0
 14 13  1  6
 15 14  1  0
 15  7  1  0
 16 22  1  0
 16 14  1  0
 17 16  2  0
 19 18  1  6
 20 19  1  0
 21 19  1  0
 21 22  1  1
 23 21  1  0
 23 24  1  0
 25 23  2  0
M  END
$$$$
