ELT.pdb
     RDKit          3D

 25 24  0  0  1  0  0  0  0  0999 V2000
   24.9326  -25.0145  -15.1953 N   0  0  0  0  0  0  0  0  0  0  0  0
   25.3892  -23.6511  -14.9892 C   0  0  1  0  0  0  0  0  0  0  0  0
   25.3565  -22.9894  -16.3753 C   0  0  0  0  0  0  0  0  0  0  0  0
   26.7305  -23.2018  -17.0217 C   0  0  0  0  0  0  0  0  0  0  0  0
   27.7632  -22.3979  -16.3379 C   0  0  0  0  0  0  0  0  0  0  0  0
   27.7251  -21.1492  -16.3512 O   0  0  0  0  0  0  0  0  0  0  0  0
   24.4100  -22.9833  -14.0961 C   0  0  0  0  0  0  0  0  0  0  0  0
   23.2547  -23.4507  -13.9919 O   0  0  0  0  0  0  0  0  0  0  0  0
   28.8055  -23.0218  -15.6636 O   0  0  0  0  0  0  0  0  0  0  0  0
   26.3947  -20.0651   -9.6706 C   0  0  0  0  0  0  0  0  0  0  0  0
   25.5454  -20.9257  -10.5324 C   0  0  1  0  0  0  0  0  0  0  0  0
   24.6431  -21.8037   -9.6533 C   0  0  0  0  0  0  0  0  0  0  0  0
   24.6622  -20.2399  -11.5055 C   0  0  0  0  0  0  0  0  0  0  0  0
   23.9573  -21.1361  -12.4764 C   0  0  2  0  0  0  0  0  0  0  0  0
   24.8167  -21.8238  -13.3804 N   0  0  0  0  0  0  0  0  0  0  0  0
   22.9195  -20.3329  -13.1735 C   0  0  0  0  0  0  0  0  0  0  0  0
   23.1243  -19.1104  -13.3726 O   0  0  0  0  0  0  0  0  0  0  0  0
   21.9293  -20.2156  -16.5828 C   0  0  0  0  0  0  0  0  0  0  0  0
   20.6636  -20.4781  -15.8259 C   0  0  1  0  0  0  0  0  0  0  0  0
   20.2982  -21.8147  -15.9323 O   0  0  0  0  0  0  0  0  0  0  0  0
   20.7041  -20.1053  -14.3820 C   0  0  2  0  0  0  0  0  0  0  0  0
   21.6929  -20.8700  -13.6360 N   0  0  0  0  0  0  0  0  0  0  0  0
   19.3804  -20.1562  -13.7230 C   0  0  0  0  0  0  0  0  0  0  0  0
   19.1744  -21.0714  -12.7061 O   0  0  0  0  0  0  0  0  0  0  0  0
   18.4290  -19.4040  -14.0425 O   0  0  0  0  0  0  0  0  0  0  0  0
  2  7  1  0
  2  1  1  6
  3  2  1  0
  4  3  1  0
  5  4  1  0
  6  5  2  0
  7  8  2  0
  9  5  1  0
 11 10  1  1
 11 12  1  0
 13 11  1  0
 14 13  1  6
 15 14  1  0
 15  7  1  0
 16 22  1  0
 16 14  1  0
 17 16  2  0
 19 18  1  1
 20 19  1  0
 21 19  1  0
 21 22  1  1
 23 21  1  0
 23 24  1  0
 25 23  2  0
M  END
$$$$
