ELT.pdb
     RDKit          3D

 25 24  0  0  1  0  0  0  0  0999 V2000
   27.2587  -19.7852  -16.2177 N   0  0  0  0  0  0  0  0  0  0  0  0
   26.1487  -20.7198  -16.2828 C   0  0  1  0  0  0  0  0  0  0  0  0
   26.4506  -21.7955  -15.2283 C   0  0  0  0  0  0  0  0  0  0  0  0
   27.5880  -22.6688  -15.7710 C   0  0  0  0  0  0  0  0  0  0  0  0
   27.2430  -23.2167  -17.0980 C   0  0  0  0  0  0  0  0  0  0  0  0
   26.1780  -23.8436  -17.2822 O   0  0  0  0  0  0  0  0  0  0  0  0
   24.9201  -19.9800  -15.9009 C   0  0  0  0  0  0  0  0  0  0  0  0
   24.9443  -19.2188  -14.9090 O   0  0  0  0  0  0  0  0  0  0  0  0
   28.1051  -23.0448  -18.1738 O   0  0  0  0  0  0  0  0  0  0  0  0
   22.7383  -16.5362  -18.9575 C   0  0  0  0  0  0  0  0  0  0  0  0
   23.0510  -17.4032  -17.7933 C   0  0  1  0  0  0  0  0  0  0  0  0
   23.1200  -16.5490  -16.5192 C   0  0  0  0  0  0  0  0  0  0  0  0
   22.1144  -18.5177  -17.5140 C   0  0  0  0  0  0  0  0  0  0  0  0
   22.5347  -19.4520  -16.4218 C   0  0  2  0  0  0  0  0  0  0  0  0
   23.7437  -20.1597  -16.6792 N   0  0  0  0  0  0  0  0  0  0  0  0
   21.3940  -20.3575  -16.1271 C   0  0  0  0  0  0  0  0  0  0  0  0
   21.0844  -21.2422  -16.9623 O   0  0  0  0  0  0  0  0  0  0  0  0
   18.6330  -22.6352  -12.7087 C   0  0  0  0  0  0  0  0  0  0  0  0
   19.7536  -21.7678  -13.1943 C   0  0  1  0  0  0  0  0  0  0  0  0
   20.9667  -22.4401  -13.1050 O   0  0  0  0  0  0  0  0  0  0  0  0
   19.5932  -21.2504  -14.5843 C   0  0  2  0  0  0  0  0  0  0  0  0
   20.6214  -20.2840  -14.9419 N   0  0  0  0  0  0  0  0  0  0  0  0
   18.2405  -20.7196  -14.8630 C   0  0  0  0  0  0  0  0  0  0  0  0
   17.3074  -21.5477  -15.4611 O   0  0  0  0  0  0  0  0  0  0  0  0
   17.8952  -19.5475  -14.5805 O   0  0  0  0  0  0  0  0  0  0  0  0
  2  7  1  0
  2  1  1  1
  3  2  1  0
  4  3  1  0
  5  4  1  0
  6  5  2  0
  7  8  2  0
  9  5  1  0
 11 10  1  6
 11 12  1  0
 13 11  1  0
 14 13  1  6
 15 14  1  0
 15  7  1  0
 16 22  1  0
 16 14  1  0
 17 16  2  0
 19 18  1  6
 20 19  1  0
 21 19  1  0
 21 22  1  1
 23 21  1  0
 23 24  1  0
 25 23  2  0
M  END
$$$$
