ELT.pdb
     RDKit          3D

 25 24  0  0  1  0  0  0  0  0999 V2000
   22.0829  -21.7843  -14.3909 N   0  0  0  0  0  0  0  0  0  0  0  0
   21.9813  -20.3508  -14.6022 C   0  0  1  0  0  0  0  0  0  0  0  0
   20.8095  -19.8849  -13.7247 C   0  0  0  0  0  0  0  0  0  0  0  0
   19.5468  -20.5982  -14.2224 C   0  0  0  0  0  0  0  0  0  0  0  0
   19.1860  -21.7149  -13.3263 C   0  0  0  0  0  0  0  0  0  0  0  0
   18.7485  -22.7935  -13.7804 O   0  0  0  0  0  0  0  0  0  0  0  0
   23.2420  -19.7379  -14.1147 C   0  0  0  0  0  0  0  0  0  0  0  0
   23.3652  -18.4935  -14.1268 O   0  0  0  0  0  0  0  0  0  0  0  0
   19.3260  -21.5836  -11.9503 O   0  0  0  0  0  0  0  0  0  0  0  0
   25.3770  -21.9745   -9.7652 C   0  0  0  0  0  0  0  0  0  0  0  0
   24.9776  -21.0869  -10.8865 C   0  0  1  0  0  0  0  0  0  0  0  0
   24.4984  -19.7383  -10.3301 C   0  0  0  0  0  0  0  0  0  0  0  0
   26.0092  -20.7886  -11.9084 C   0  0  0  0  0  0  0  0  0  0  0  0
   25.5137  -20.0911  -13.1374 C   0  0  2  0  0  0  0  0  0  0  0  0
   24.2797  -20.5892  -13.6453 N   0  0  0  0  0  0  0  0  0  0  0  0
   26.6006  -20.1165  -14.1503 C   0  0  0  0  0  0  0  0  0  0  0  0
   27.7070  -19.5921  -13.8727 O   0  0  0  0  0  0  0  0  0  0  0  0
   28.9600  -22.4303  -15.5721 C   0  0  0  0  0  0  0  0  0  0  0  0
   28.1632  -21.9067  -16.7274 C   0  0  1  0  0  0  0  0  0  0  0  0
   27.2228  -22.8440  -17.1379 O   0  0  0  0  0  0  0  0  0  0  0  0
   27.4703  -20.6093  -16.4786 C   0  0  2  0  0  0  0  0  0  0  0  0
   26.4642  -20.7062  -15.4311 N   0  0  0  0  0  0  0  0  0  0  0  0
   26.9101  -19.9961  -17.7030 C   0  0  0  0  0  0  0  0  0  0  0  0
   27.7658  -19.6751  -18.7418 O   0  0  0  0  0  0  0  0  0  0  0  0
   25.6884  -19.7521  -17.8471 O   0  0  0  0  0  0  0  0  0  0  0  0
  2  7  1  0
  2  1  1  1
  3  2  1  0
  4  3  1  0
  5  4  1  0
  6  5  2  0
  7  8  2  0
  9  5  1  0
 11 10  1  1
 11 12  1  0
 13 11  1  0
 14 13  1  1
 15 14  1  0
 15  7  1  0
 16 22  1  0
 16 14  1  0
 17 16  2  0
 19 18  1  1
 20 19  1  0
 21 19  1  0
 21 22  1  1
 23 21  1  0
 23 24  1  0
 25 23  2  0
M  END
$$$$
