ELT.pdb
     RDKit          3D

 25 24  0  0  1  0  0  0  0  0999 V2000
   16.8468  -25.1597   -6.3596 N   0  0  0  0  0  0  0  0  0  0  0  0
   16.5500  -25.4662   -4.9712 C   0  0  1  0  0  0  0  0  0  0  0  0
   15.0505  -25.7978   -4.9317 C   0  0  0  0  0  0  0  0  0  0  0  0
   14.7241  -26.6145   -6.1876 C   0  0  0  0  0  0  0  0  0  0  0  0
   14.1289  -27.9170   -5.8278 C   0  0  0  0  0  0  0  0  0  0  0  0
   13.1316  -27.9877   -5.0784 O   0  0  0  0  0  0  0  0  0  0  0  0
   17.3355  -26.6703   -4.6028 C   0  0  0  0  0  0  0  0  0  0  0  0
   18.0187  -27.2493   -5.4757 O   0  0  0  0  0  0  0  0  0  0  0  0
   14.6735  -29.0969   -6.3189 O   0  0  0  0  0  0  0  0  0  0  0  0
   19.9515  -26.4892    0.2821 C   0  0  0  0  0  0  0  0  0  0  0  0
   19.5296  -26.7571   -1.1161 C   0  0  1  0  0  0  0  0  0  0  0  0
   20.7682  -27.0066   -1.9887 C   0  0  0  0  0  0  0  0  0  0  0  0
   18.6120  -27.9007   -1.3343 C   0  0  0  0  0  0  0  0  0  0  0  0
   18.1827  -28.1188   -2.7523 C   0  0  2  0  0  0  0  0  0  0  0  0
   17.2878  -27.1334   -3.2592 N   0  0  0  0  0  0  0  0  0  0  0  0
   17.6368  -29.4965   -2.8606 C   0  0  0  0  0  0  0  0  0  0  0  0
   16.4400  -29.7063   -2.5448 O   0  0  0  0  0  0  0  0  0  0  0  0
   18.4959  -32.3518   -5.8026 C   0  0  0  0  0  0  0  0  0  0  0  0
   18.6137  -32.8005   -4.3783 C   0  0  1  0  0  0  0  0  0  0  0  0
   19.9480  -32.8682   -3.9955 O   0  0  0  0  0  0  0  0  0  0  0  0
   17.8732  -31.9631   -3.3905 C   0  0  2  0  0  0  0  0  0  0  0  0
   18.3953  -30.6068   -3.3065 N   0  0  0  0  0  0  0  0  0  0  0  0
   17.7741  -32.5819   -2.0503 C   0  0  0  0  0  0  0  0  0  0  0  0
   17.0643  -33.7611   -1.9090 O   0  0  0  0  0  0  0  0  0  0  0  0
   18.3067  -32.0870   -1.0284 O   0  0  0  0  0  0  0  0  0  0  0  0
  2  7  1  0
  2  1  1  6
  3  2  1  0
  4  3  1  0
  5  4  1  0
  6  5  2  0
  7  8  2  0
  9  5  1  0
 11 10  1  1
 11 12  1  0
 13 11  1  0
 14 13  1  1
 15 14  1  0
 15  7  1  0
 16 22  1  0
 16 14  1  0
 17 16  2  0
 19 18  1  6
 20 19  1  0
 21 19  1  0
 21 22  1  1
 23 21  1  0
 23 24  1  0
 25 23  2  0
M  END
$$$$
