ELT.pdb
     RDKit          3D

 25 24  0  0  1  0  0  0  0  0999 V2000
   22.9493  -24.1221  -15.0335 N   0  0  0  0  0  0  0  0  0  0  0  0
   21.6715  -23.9221  -14.3727 C   0  0  1  0  0  0  0  0  0  0  0  0
   21.4707  -25.1546  -13.4778 C   0  0  0  0  0  0  0  0  0  0  0  0
   21.2342  -26.3594  -14.3961 C   0  0  0  0  0  0  0  0  0  0  0  0
   22.5163  -26.9567  -14.8204 C   0  0  0  0  0  0  0  0  0  0  0  0
   23.4749  -27.0627  -14.0262 O   0  0  0  0  0  0  0  0  0  0  0  0
   21.7918  -22.7081  -13.5275 C   0  0  0  0  0  0  0  0  0  0  0  0
   20.8209  -22.3490  -12.8259 O   0  0  0  0  0  0  0  0  0  0  0  0
   22.6809  -27.4131  -16.1222 O   0  0  0  0  0  0  0  0  0  0  0  0
   26.6531  -21.3619  -11.0952 C   0  0  0  0  0  0  0  0  0  0  0  0
   25.1950  -21.4531  -11.3608 C   0  0  1  0  0  0  0  0  0  0  0  0
   24.4179  -21.1870  -10.0634 C   0  0  0  0  0  0  0  0  0  0  0  0
   24.6404  -20.5410  -12.3893 C   0  0  0  0  0  0  0  0  0  0  0  0
   23.2171  -20.7988  -12.7768 C   0  0  2  0  0  0  0  0  0  0  0  0
   23.0156  -21.9842  -13.5404 N   0  0  0  0  0  0  0  0  0  0  0  0
   22.6991  -19.5846  -13.4589 C   0  0  0  0  0  0  0  0  0  0  0  0
   22.5916  -18.5167  -12.8077 O   0  0  0  0  0  0  0  0  0  0  0  0
   23.7766  -17.6124  -16.6669 C   0  0  0  0  0  0  0  0  0  0  0  0
   22.3528  -18.0665  -16.7680 C   0  0  1  0  0  0  0  0  0  0  0  0
   22.2480  -19.1630  -17.6155 O   0  0  0  0  0  0  0  0  0  0  0  0
   21.7044  -18.4021  -15.4671 C   0  0  2  0  0  0  0  0  0  0  0  0
   22.3133  -19.5561  -14.8217 N   0  0  0  0  0  0  0  0  0  0  0  0
   20.2360  -18.5559  -15.5628 C   0  0  0  0  0  0  0  0  0  0  0  0
   19.4729  -17.4661  -15.9424 O   0  0  0  0  0  0  0  0  0  0  0  0
   19.6447  -19.6340  -15.3160 O   0  0  0  0  0  0  0  0  0  0  0  0
  2  7  1  0
  2  1  1  1
  3  2  1  0
  4  3  1  0
  5  4  1  0
  6  5  2  0
  7  8  2  0
  9  5  1  0
 11 10  1  1
 11 12  1  0
 13 11  1  0
 14 13  1  6
 15 14  1  0
 15  7  1  0
 16 22  1  0
 16 14  1  0
 17 16  2  0
 19 18  1  1
 20 19  1  0
 21 19  1  0
 21 22  1  6
 23 21  1  0
 23 24  1  0
 25 23  2  0
M  END
$$$$
