FFE.pdb
     RDKit          3D

 32 33  0  0  1  0  0  0  0  0999 V2000
   27.8520  -21.8782  -14.4892 N   0  0  0  0  0  0  0  0  0  0  0  0
   27.6615  -20.7459  -13.6317 C   0  0  1  0  0  0  0  0  0  0  0  0
   26.6582  -19.7592  -14.2252 C   0  0  0  0  0  0  0  0  0  0  0  0
   27.2199  -19.1700  -15.4798 C   0  0  0  0  0  0  0  0  0  0  0  0
   28.3146  -18.3312  -15.4326 C   0  0  0  0  0  0  0  0  0  0  0  0
   28.8343  -17.7837  -16.5982 C   0  0  0  0  0  0  0  0  0  0  0  0
   28.2668  -18.0690  -17.8135 C   0  0  0  0  0  0  0  0  0  0  0  0
   27.1779  -18.9038  -17.8576 C   0  0  0  0  0  0  0  0  0  0  0  0
   26.6523  -19.4540  -16.7074 C   0  0  0  0  0  0  0  0  0  0  0  0
   27.2941  -21.1061  -12.2413 C   0  0  0  0  0  0  0  0  0  0  0  0
   26.4279  -21.9654  -12.0366 O   0  0  0  0  0  0  0  0  0  0  0  0
   27.9161  -20.4848  -11.1275 N   0  0  0  0  0  0  0  0  0  0  0  0
   27.6177  -20.7011   -9.7694 C   0  0  1  0  0  0  0  0  0  0  0  0
   28.6384  -20.2340   -8.7561 C   0  0  0  0  0  0  0  0  0  0  0  0
   28.1043  -20.0801   -7.3966 C   0  0  0  0  0  0  0  0  0  0  0  0
   28.6129  -20.8858   -6.3689 C   0  0  0  0  0  0  0  0  0  0  0  0
   28.1395  -20.7840   -5.0837 C   0  0  0  0  0  0  0  0  0  0  0  0
   27.1482  -19.8895   -4.7494 C   0  0  0  0  0  0  0  0  0  0  0  0
   26.6439  -19.0901   -5.7714 C   0  0  0  0  0  0  0  0  0  0  0  0
   27.1307  -19.2018   -7.0691 C   0  0  0  0  0  0  0  0  0  0  0  0
   26.3030  -20.1502   -9.3898 C   0  0  0  0  0  0  0  0  0  0  0  0
   25.9748  -18.9890   -9.8076 O   0  0  0  0  0  0  0  0  0  0  0  0
   25.3642  -20.8149   -8.5884 N   0  0  0  0  0  0  0  0  0  0  0  0
   23.8884  -20.6332   -8.7631 C   0  0  1  0  0  0  0  0  0  0  0  0
   23.5470  -20.7949  -10.1843 C   0  0  0  0  0  0  0  0  0  0  0  0
   22.0941  -20.7359  -10.4883 C   0  0  0  0  0  0  0  0  0  0  0  0
   21.6333  -19.4904  -11.1382 C   0  0  0  0  0  0  0  0  0  0  0  0
   22.1327  -19.0847  -12.2328 O   0  0  0  0  0  0  0  0  0  0  0  0
   23.2149  -21.3793   -7.7475 C   0  0  0  0  0  0  0  0  0  0  0  0
   21.9316  -21.2959   -7.6681 O   0  0  0  0  0  0  0  0  0  0  0  0
   20.6158  -18.6747  -10.6027 O   0  0  0  0  0  0  0  0  0  0  0  0
   23.7571  -22.2323   -6.7868 O   0  0  0  0  0  0  0  0  0  0  0  0
  2  1  1  6
  3  4  1  0
  3  2  1  0
  4  5  2  0
  5  6  1  0
  7  6  2  0
  8  7  1  0
  9  8  2  0
  9  4  1  0
 10  2  1  0
 10 11  2  0
 12 10  1  0
 13 12  1  0
 13 21  1  0
 13 14  1  1
 15 14  1  0
 16 15  2  0
 17 16  1  0
 18 17  2  0
 18 19  1  0
 19 20  2  0
 20 15  1  0
 21 23  1  0
 22 21  2  0
 23 24  1  0
 24 29  1  0
 25 26  1  0
 24 25  1  6
 27 26  1  0
 27 28  2  0
 29 30  2  0
 29 32  1  0
 31 27  1  0
M  END
$$$$
