FFE.pdb
     RDKit          3D

 32 33  0  0  1  0  0  0  0  0999 V2000
   27.4833  -21.4099  -13.9568 N   0  0  0  0  0  0  0  0  0  0  0  0
   27.3877  -20.3551  -12.9913 C   0  0  1  0  0  0  0  0  0  0  0  0
   26.3694  -19.2997  -13.4172 C   0  0  0  0  0  0  0  0  0  0  0  0
   26.8633  -18.5943  -14.6401 C   0  0  0  0  0  0  0  0  0  0  0  0
   26.4570  -18.9980  -15.8955 C   0  0  0  0  0  0  0  0  0  0  0  0
   26.9174  -18.3430  -17.0302 C   0  0  0  0  0  0  0  0  0  0  0  0
   27.7828  -17.2851  -16.9192 C   0  0  0  0  0  0  0  0  0  0  0  0
   28.1853  -16.8855  -15.6690 C   0  0  0  0  0  0  0  0  0  0  0  0
   27.7354  -17.5276  -14.5344 C   0  0  0  0  0  0  0  0  0  0  0  0
   27.1160  -20.8308  -11.6136 C   0  0  0  0  0  0  0  0  0  0  0  0
   26.3022  -21.7438  -11.4271 O   0  0  0  0  0  0  0  0  0  0  0  0
   27.7713  -20.2604  -10.4917 N   0  0  0  0  0  0  0  0  0  0  0  0
   27.5870  -20.6128   -9.1419 C   0  0  1  0  0  0  0  0  0  0  0  0
   28.6123  -20.1087   -8.1513 C   0  0  0  0  0  0  0  0  0  0  0  0
   28.2068  -20.2500   -6.7467 C   0  0  0  0  0  0  0  0  0  0  0  0
   27.6269  -19.1557   -6.0909 C   0  0  0  0  0  0  0  0  0  0  0  0
   27.2392  -19.2373   -4.7759 C   0  0  0  0  0  0  0  0  0  0  0  0
   27.4025  -20.3931   -4.0466 C   0  0  0  0  0  0  0  0  0  0  0  0
   27.9788  -21.4792   -4.6994 C   0  0  0  0  0  0  0  0  0  0  0  0
   28.3677  -21.3853   -6.0311 C   0  0  0  0  0  0  0  0  0  0  0  0
   26.2462  -20.2494   -8.6456 C   0  0  0  0  0  0  0  0  0  0  0  0
   25.8493  -19.0415   -8.7637 O   0  0  0  0  0  0  0  0  0  0  0  0
   25.3531  -21.1448   -8.0407 N   0  0  0  0  0  0  0  0  0  0  0  0
   23.9034  -20.8246   -7.8479 C   0  0  1  0  0  0  0  0  0  0  0  0
   23.2349  -20.8058   -9.1577 C   0  0  0  0  0  0  0  0  0  0  0  0
   21.7624  -20.6166   -9.1047 C   0  0  0  0  0  0  0  0  0  0  0  0
   21.0746  -20.6329  -10.4134 C   0  0  0  0  0  0  0  0  0  0  0  0
   20.6596  -19.5659  -10.9625 O   0  0  0  0  0  0  0  0  0  0  0  0
   23.4022  -21.6163   -6.7691 C   0  0  0  0  0  0  0  0  0  0  0  0
   24.0570  -22.6694   -6.4195 O   0  0  0  0  0  0  0  0  0  0  0  0
   20.8365  -21.8159  -11.1423 O   0  0  0  0  0  0  0  0  0  0  0  0
   22.2625  -21.4112   -5.9923 O   0  0  0  0  0  0  0  0  0  0  0  0
  2  1  1  6
  3  4  1  0
  3  2  1  0
  4  5  2  0
  5  6  1  0
  7  6  2  0
  8  7  1  0
  9  8  2  0
  9  4  1  0
 10  2  1  0
 10 11  2  0
 12 10  1  0
 13 12  1  0
 13 21  1  0
 13 14  1  1
 15 14  1  0
 16 15  2  0
 17 16  1  0
 18 17  2  0
 18 19  1  0
 19 20  2  0
 20 15  1  0
 21 23  1  0
 22 21  2  0
 23 24  1  0
 24 29  1  0
 25 26  1  0
 24 25  1  6
 27 26  1  0
 27 28  2  0
 29 30  2  0
 29 32  1  0
 31 27  1  0
M  END
$$$$
