FFE.pdb
     RDKit          3D

 32 33  0  0  1  0  0  0  0  0999 V2000
   18.3384  -12.0414  -16.2154 N   0  0  0  0  0  0  0  0  0  0  0  0
   19.1165  -11.0328  -16.8720 C   0  0  1  0  0  0  0  0  0  0  0  0
   18.5815  -10.7390  -18.2720 C   0  0  0  0  0  0  0  0  0  0  0  0
   18.5433  -12.0049  -19.0676 C   0  0  0  0  0  0  0  0  0  0  0  0
   19.7015  -12.5368  -19.5966 C   0  0  0  0  0  0  0  0  0  0  0  0
   19.6643  -13.7115  -20.3363 C   0  0  0  0  0  0  0  0  0  0  0  0
   18.4755  -14.3600  -20.5518 C   0  0  0  0  0  0  0  0  0  0  0  0
   17.3248  -13.8287  -20.0245 C   0  0  0  0  0  0  0  0  0  0  0  0
   17.3482  -12.6628  -19.2881 C   0  0  0  0  0  0  0  0  0  0  0  0
   19.2607   -9.7846  -16.0852 C   0  0  0  0  0  0  0  0  0  0  0  0
   18.2932   -9.3380  -15.4566 O   0  0  0  0  0  0  0  0  0  0  0  0
   20.4920   -9.0812  -16.0335 N   0  0  0  0  0  0  0  0  0  0  0  0
   20.7200   -7.8290  -15.4333 C   0  0  1  0  0  0  0  0  0  0  0  0
   22.1348   -7.5207  -14.9972 C   0  0  0  0  0  0  0  0  0  0  0  0
   22.3361   -6.1340  -14.5569 C   0  0  0  0  0  0  0  0  0  0  0  0
   22.9326   -5.2194  -15.4353 C   0  0  0  0  0  0  0  0  0  0  0  0
   23.1488   -3.9145  -15.0658 C   0  0  0  0  0  0  0  0  0  0  0  0
   22.7907   -3.4489  -13.8211 C   0  0  0  0  0  0  0  0  0  0  0  0
   22.1985   -4.3587  -12.9496 C   0  0  0  0  0  0  0  0  0  0  0  0
   21.9844   -5.6777  -13.3343 C   0  0  0  0  0  0  0  0  0  0  0  0
   20.2389   -6.7115  -16.2673 C   0  0  0  0  0  0  0  0  0  0  0  0
   20.2026   -6.8570  -17.5355 O   0  0  0  0  0  0  0  0  0  0  0  0
   19.8088   -5.4744  -15.7673 N   0  0  0  0  0  0  0  0  0  0  0  0
   19.0730   -4.4801  -16.6107 C   0  0  1  0  0  0  0  0  0  0  0  0
   17.6585   -4.8729  -16.6967 C   0  0  0  0  0  0  0  0  0  0  0  0
   17.1822   -5.1965  -18.0661 C   0  0  0  0  0  0  0  0  0  0  0  0
   16.3092   -6.3854  -18.1683 C   0  0  0  0  0  0  0  0  0  0  0  0
   16.7855   -7.5619  -18.2039 O   0  0  0  0  0  0  0  0  0  0  0  0
   19.4557   -3.1654  -16.2021 C   0  0  0  0  0  0  0  0  0  0  0  0
   19.4098   -2.8702  -14.9488 O   0  0  0  0  0  0  0  0  0  0  0  0
   14.9030   -6.3041  -18.2270 O   0  0  0  0  0  0  0  0  0  0  0  0
   19.9010   -2.1026  -16.9873 O   0  0  0  0  0  0  0  0  0  0  0  0
  2  1  1  1
  3  4  1  0
  3  2  1  0
  4  5  2  0
  5  6  1  0
  7  6  2  0
  8  7  1  0
  9  8  2  0
  9  4  1  0
 10  2  1  0
 10 11  2  0
 12 10  1  0
 13 12  1  0
 13 21  1  0
 13 14  1  6
 15 14  1  0
 16 15  2  0
 17 16  1  0
 18 17  2  0
 18 19  1  0
 19 20  2  0
 20 15  1  0
 21 23  1  0
 22 21  2  0
 23 24  1  0
 24 29  1  0
 25 26  1  0
 24 25  1  1
 27 26  1  0
 27 28  2  0
 29 30  2  0
 29 32  1  0
 31 27  1  0
M  END
$$$$
