FFE.pdb
     RDKit          3D

 32 33  0  0  1  0  0  0  0  0999 V2000
   24.2955  -10.9356  -20.0720 N   0  0  0  0  0  0  0  0  0  0  0  0
   23.3225   -9.8898  -19.9568 C   0  0  1  0  0  0  0  0  0  0  0  0
   22.0909  -10.1771  -20.8130 C   0  0  0  0  0  0  0  0  0  0  0  0
   22.4698  -10.1447  -22.2595 C   0  0  0  0  0  0  0  0  0  0  0  0
   22.8206   -8.9563  -22.8667 C   0  0  0  0  0  0  0  0  0  0  0  0
   23.1709   -8.9274  -24.2102 C   0  0  0  0  0  0  0  0  0  0  0  0
   23.1732  -10.0801  -24.9529 C   0  0  0  0  0  0  0  0  0  0  0  0
   22.8239  -11.2610  -24.3463 C   0  0  0  0  0  0  0  0  0  0  0  0
   22.4741  -11.3031  -23.0129 C   0  0  0  0  0  0  0  0  0  0  0  0
   22.9381   -9.5845  -18.5579 C   0  0  0  0  0  0  0  0  0  0  0  0
   22.6044  -10.5014  -17.7972 O   0  0  0  0  0  0  0  0  0  0  0  0
   22.9427   -8.2546  -18.0632 N   0  0  0  0  0  0  0  0  0  0  0  0
   22.5765   -7.8376  -16.7700 C   0  0  1  0  0  0  0  0  0  0  0  0
   23.6855   -7.3603  -15.8595 C   0  0  0  0  0  0  0  0  0  0  0  0
   24.7086   -8.3763  -15.5799 C   0  0  0  0  0  0  0  0  0  0  0  0
   25.8835   -8.3892  -16.3437 C   0  0  0  0  0  0  0  0  0  0  0  0
   26.8649   -9.3246  -16.1249 C   0  0  0  0  0  0  0  0  0  0  0  0
   26.7386  -10.2873  -15.1494 C   0  0  0  0  0  0  0  0  0  0  0  0
   25.5709  -10.2733  -14.3916 C   0  0  0  0  0  0  0  0  0  0  0  0
   24.5837   -9.3216  -14.6220 C   0  0  0  0  0  0  0  0  0  0  0  0
   21.5197   -6.8086  -16.7911 C   0  0  0  0  0  0  0  0  0  0  0  0
   21.6629   -5.7902  -17.5480 O   0  0  0  0  0  0  0  0  0  0  0  0
   20.3443   -6.8608  -16.0288 N   0  0  0  0  0  0  0  0  0  0  0  0
   19.2990   -5.7909  -16.0918 C   0  0  1  0  0  0  0  0  0  0  0  0
   17.9792   -6.3904  -15.8440 C   0  0  0  0  0  0  0  0  0  0  0  0
   16.8427   -5.4343  -15.8776 C   0  0  0  0  0  0  0  0  0  0  0  0
   15.5085   -6.0286  -15.6482 C   0  0  0  0  0  0  0  0  0  0  0  0
   14.6011   -5.9944  -16.5358 O   0  0  0  0  0  0  0  0  0  0  0  0
   19.7559   -4.6638  -15.3418 C   0  0  0  0  0  0  0  0  0  0  0  0
   19.6820   -3.4943  -15.8774 O   0  0  0  0  0  0  0  0  0  0  0  0
   15.1503   -6.6739  -14.4470 O   0  0  0  0  0  0  0  0  0  0  0  0
   20.2880   -4.6306  -14.0533 O   0  0  0  0  0  0  0  0  0  0  0  0
  2  1  1  1
  3  4  1  0
  3  2  1  0
  4  5  2  0
  5  6  1  0
  7  6  2  0
  8  7  1  0
  9  8  2  0
  9  4  1  0
 10  2  1  0
 10 11  2  0
 12 10  1  0
 13 12  1  0
 13 21  1  0
 13 14  1  6
 15 14  1  0
 16 15  2  0
 17 16  1  0
 18 17  2  0
 18 19  1  0
 19 20  2  0
 20 15  1  0
 21 23  1  0
 22 21  2  0
 23 24  1  0
 24 29  1  0
 25 26  1  0
 24 25  1  1
 27 26  1  0
 27 28  2  0
 29 30  2  0
 29 32  1  0
 31 27  1  0
M  END
$$$$
