FFE.pdb
     RDKit          3D

 32 33  0  0  1  0  0  0  0  0999 V2000
   29.9976  -21.9612  -14.4849 N   0  0  0  0  0  0  0  0  0  0  0  0
   30.8188  -22.5703  -15.4890 C   0  0  1  0  0  0  0  0  0  0  0  0
   31.4564  -23.8615  -14.9804 C   0  0  0  0  0  0  0  0  0  0  0  0
   32.4146  -23.5441  -13.8768 C   0  0  0  0  0  0  0  0  0  0  0  0
   33.7757  -23.5551  -14.1041 C   0  0  0  0  0  0  0  0  0  0  0  0
   34.6643  -23.2616  -13.0781 C   0  0  0  0  0  0  0  0  0  0  0  0
   34.2017  -22.9563  -11.8238 C   0  0  0  0  0  0  0  0  0  0  0  0
   32.8473  -22.9460  -11.6005 C   0  0  0  0  0  0  0  0  0  0  0  0
   31.9543  -23.2357  -12.6108 C   0  0  0  0  0  0  0  0  0  0  0  0
   30.1188  -22.7943  -16.7766 C   0  0  0  0  0  0  0  0  0  0  0  0
   28.9538  -23.2109  -16.7794 O   0  0  0  0  0  0  0  0  0  0  0  0
   30.7562  -22.5410  -18.0187 N   0  0  0  0  0  0  0  0  0  0  0  0
   30.2007  -22.7164  -19.2997 C   0  0  1  0  0  0  0  0  0  0  0  0
   30.7370  -21.8406  -20.4097 C   0  0  0  0  0  0  0  0  0  0  0  0
   30.0782  -22.0477  -21.7060 C   0  0  0  0  0  0  0  0  0  0  0  0
   28.8757  -21.3798  -21.9743 C   0  0  0  0  0  0  0  0  0  0  0  0
   28.2188  -21.5479  -23.1685 C   0  0  0  0  0  0  0  0  0  0  0  0
   28.7105  -22.3767  -24.1513 C   0  0  0  0  0  0  0  0  0  0  0  0
   29.9049  -23.0396  -23.8832 C   0  0  0  0  0  0  0  0  0  0  0  0
   30.5614  -22.8620  -22.6704 C   0  0  0  0  0  0  0  0  0  0  0  0
   30.2590  -24.1203  -19.7486 C   0  0  0  0  0  0  0  0  0  0  0  0
   31.3369  -24.7819  -19.5726 O   0  0  0  0  0  0  0  0  0  0  0  0
   29.2013  -24.8014  -20.3673 N   0  0  0  0  0  0  0  0  0  0  0  0
   29.1943  -26.2890  -20.5359 C   0  0  1  0  0  0  0  0  0  0  0  0
   29.6033  -26.9198  -19.2721 C   0  0  0  0  0  0  0  0  0  0  0  0
   29.4816  -28.4001  -19.2448 C   0  0  0  0  0  0  0  0  0  0  0  0
   30.5246  -29.1070  -18.4712 C   0  0  0  0  0  0  0  0  0  0  0  0
   30.7865  -28.7990  -17.2675 O   0  0  0  0  0  0  0  0  0  0  0  0
   27.9854  -26.6662  -21.1977 C   0  0  0  0  0  0  0  0  0  0  0  0
   27.8421  -27.8908  -21.5718 O   0  0  0  0  0  0  0  0  0  0  0  0
   31.2913  -30.1646  -19.0015 O   0  0  0  0  0  0  0  0  0  0  0  0
   26.8785  -25.8774  -21.5093 O   0  0  0  0  0  0  0  0  0  0  0  0
  2  1  1  1
  3  4  1  0
  3  2  1  0
  4  5  2  0
  5  6  1  0
  7  6  2  0
  8  7  1  0
  9  8  2  0
  9  4  1  0
 10  2  1  0
 10 11  2  0
 12 10  1  0
 13 12  1  0
 13 21  1  0
 13 14  1  6
 15 14  1  0
 16 15  2  0
 17 16  1  0
 18 17  2  0
 18 19  1  0
 19 20  2  0
 20 15  1  0
 21 23  1  0
 22 21  2  0
 23 24  1  0
 24 29  1  0
 25 26  1  0
 24 25  1  1
 27 26  1  0
 27 28  2  0
 29 30  2  0
 29 32  1  0
 31 27  1  0
M  END
$$$$
