FFE.pdb
     RDKit          3D

 32 33  0  0  1  0  0  0  0  0999 V2000
   24.8537   -5.8939  -19.1204 N   0  0  0  0  0  0  0  0  0  0  0  0
   24.5913   -5.6357  -17.7354 C   0  0  1  0  0  0  0  0  0  0  0  0
   24.5746   -4.1372  -17.4409 C   0  0  0  0  0  0  0  0  0  0  0  0
   25.8944   -3.5405  -17.8134 C   0  0  0  0  0  0  0  0  0  0  0  0
   26.0469   -2.8628  -19.0057 C   0  0  0  0  0  0  0  0  0  0  0  0
   27.2733   -2.3104  -19.3510 C   0  0  0  0  0  0  0  0  0  0  0  0
   28.3509   -2.4304  -18.5115 C   0  0  0  0  0  0  0  0  0  0  0  0
   28.1964   -3.1050  -17.3259 C   0  0  0  0  0  0  0  0  0  0  0  0
   26.9838   -3.6582  -16.9714 C   0  0  0  0  0  0  0  0  0  0  0  0
   23.3614   -6.2908  -17.2294 C   0  0  0  0  0  0  0  0  0  0  0  0
   22.3519   -6.3395  -17.9430 O   0  0  0  0  0  0  0  0  0  0  0  0
   23.3108   -6.8692  -15.9347 N   0  0  0  0  0  0  0  0  0  0  0  0
   22.2073   -7.5123  -15.3439 C   0  0  1  0  0  0  0  0  0  0  0  0
   22.4929   -8.4655  -14.2052 C   0  0  0  0  0  0  0  0  0  0  0  0
   21.3016   -9.1487  -13.6842 C   0  0  0  0  0  0  0  0  0  0  0  0
   20.7534  -10.2137  -14.4116 C   0  0  0  0  0  0  0  0  0  0  0  0
   19.6358  -10.8777  -13.9690 C   0  0  0  0  0  0  0  0  0  0  0  0
   19.0069  -10.5280  -12.7957 C   0  0  0  0  0  0  0  0  0  0  0  0
   19.5525   -9.4698  -12.0744 C   0  0  0  0  0  0  0  0  0  0  0  0
   20.6845   -8.8045  -12.5321 C   0  0  0  0  0  0  0  0  0  0  0  0
   21.1737   -6.5578  -14.9003 C   0  0  0  0  0  0  0  0  0  0  0  0
   21.5055   -5.6078  -14.1141 O   0  0  0  0  0  0  0  0  0  0  0  0
   19.8257   -6.6121  -15.2816 N   0  0  0  0  0  0  0  0  0  0  0  0
   18.8424   -5.5472  -14.9068 C   0  0  1  0  0  0  0  0  0  0  0  0
   18.6114   -4.6735  -16.0669 C   0  0  0  0  0  0  0  0  0  0  0  0
   17.6245   -3.5859  -15.8431 C   0  0  0  0  0  0  0  0  0  0  0  0
   17.4248   -2.6676  -16.9844 C   0  0  0  0  0  0  0  0  0  0  0  0
   18.0308   -2.8328  -18.0879 O   0  0  0  0  0  0  0  0  0  0  0  0
   17.7557   -6.1572  -14.2078 C   0  0  0  0  0  0  0  0  0  0  0  0
   17.2516   -7.2456  -14.6784 O   0  0  0  0  0  0  0  0  0  0  0  0
   16.5548   -1.5593  -16.9366 O   0  0  0  0  0  0  0  0  0  0  0  0
   17.1307   -5.7412  -13.0327 O   0  0  0  0  0  0  0  0  0  0  0  0
  2  1  1  6
  3  4  1  0
  3  2  1  0
  4  5  2  0
  5  6  1  0
  7  6  2  0
  8  7  1  0
  9  8  2  0
  9  4  1  0
 10  2  1  0
 10 11  2  0
 12 10  1  0
 13 12  1  0
 13 21  1  0
 13 14  1  1
 15 14  1  0
 16 15  2  0
 17 16  1  0
 18 17  2  0
 18 19  1  0
 19 20  2  0
 20 15  1  0
 21 23  1  0
 22 21  2  0
 23 24  1  0
 24 29  1  0
 25 26  1  0
 24 25  1  6
 27 26  1  0
 27 28  2  0
 29 30  2  0
 29 32  1  0
 31 27  1  0
M  END
$$$$
