FFE.pdb
     RDKit          3D

 32 33  0  0  1  0  0  0  0  0999 V2000
   26.5958  -22.5580  -15.3803 N   0  0  0  0  0  0  0  0  0  0  0  0
   25.3501  -21.9632  -15.7653 C   0  0  1  0  0  0  0  0  0  0  0  0
   24.8803  -22.4818  -17.1227 C   0  0  0  0  0  0  0  0  0  0  0  0
   25.0846  -21.4235  -18.1596 C   0  0  0  0  0  0  0  0  0  0  0  0
   26.3109  -21.2694  -18.7732 C   0  0  0  0  0  0  0  0  0  0  0  0
   26.4996  -20.2854  -19.7348 C   0  0  0  0  0  0  0  0  0  0  0  0
   25.4694  -19.4523  -20.0884 C   0  0  0  0  0  0  0  0  0  0  0  0
   24.2505  -19.6078  -19.4764 C   0  0  0  0  0  0  0  0  0  0  0  0
   24.0501  -20.5811  -18.5201 C   0  0  0  0  0  0  0  0  0  0  0  0
   24.2831  -22.1008  -14.7452 C   0  0  0  0  0  0  0  0  0  0  0  0
   24.0452  -23.2090  -14.2492 O   0  0  0  0  0  0  0  0  0  0  0  0
   23.5196  -20.9836  -14.3184 N   0  0  0  0  0  0  0  0  0  0  0  0
   22.5966  -20.9526  -13.2566 C   0  0  1  0  0  0  0  0  0  0  0  0
   22.7805  -19.8726  -12.2143 C   0  0  0  0  0  0  0  0  0  0  0  0
   23.8547  -20.1479  -11.2511 C   0  0  0  0  0  0  0  0  0  0  0  0
   25.1783  -20.2152  -11.7066 C   0  0  0  0  0  0  0  0  0  0  0  0
   26.2153  -20.4779  -10.8453 C   0  0  0  0  0  0  0  0  0  0  0  0
   26.0013  -20.6860   -9.5016 C   0  0  0  0  0  0  0  0  0  0  0  0
   24.6860  -20.6190   -9.0508 C   0  0  0  0  0  0  0  0  0  0  0  0
   23.6437  -20.3524   -9.9319 C   0  0  0  0  0  0  0  0  0  0  0  0
   21.1999  -20.9068  -13.7291 C   0  0  0  0  0  0  0  0  0  0  0  0
   20.8990  -20.1281  -14.6954 O   0  0  0  0  0  0  0  0  0  0  0  0
   20.1530  -21.6671  -13.1893 N   0  0  0  0  0  0  0  0  0  0  0  0
   18.7818  -21.6848  -13.7900 C   0  0  1  0  0  0  0  0  0  0  0  0
   18.3675  -23.0791  -14.0061 C   0  0  0  0  0  0  0  0  0  0  0  0
   17.8492  -23.7711  -12.7981 C   0  0  0  0  0  0  0  0  0  0  0  0
   17.2564  -25.1043  -13.0376 C   0  0  0  0  0  0  0  0  0  0  0  0
   16.0062  -25.3054  -12.9430 O   0  0  0  0  0  0  0  0  0  0  0  0
   17.9571  -20.7678  -13.0683 C   0  0  0  0  0  0  0  0  0  0  0  0
   18.3698  -20.3312  -11.9285 O   0  0  0  0  0  0  0  0  0  0  0  0
   18.0221  -26.2344  -13.3896 O   0  0  0  0  0  0  0  0  0  0  0  0
   16.7177  -20.2398  -13.4279 O   0  0  0  0  0  0  0  0  0  0  0  0
  2  1  1  1
  3  4  1  0
  3  2  1  0
  4  5  2  0
  5  6  1  0
  7  6  2  0
  8  7  1  0
  9  8  2  0
  9  4  1  0
 10  2  1  0
 10 11  2  0
 12 10  1  0
 13 12  1  0
 13 21  1  0
 13 14  1  6
 15 14  1  0
 16 15  2  0
 17 16  1  0
 18 17  2  0
 18 19  1  0
 19 20  2  0
 20 15  1  0
 21 23  1  0
 22 21  2  0
 23 24  1  0
 24 29  1  0
 25 26  1  0
 24 25  1  1
 27 26  1  0
 27 28  2  0
 29 30  2  0
 29 32  1  0
 31 27  1  0
M  END
$$$$
