FFE.pdb
     RDKit          3D

 32 33  0  0  1  0  0  0  0  0999 V2000
   25.6475  -22.9813  -17.4956 N   0  0  0  0  0  0  0  0  0  0  0  0
   25.8493  -21.7976  -16.7133 C   0  0  1  0  0  0  0  0  0  0  0  0
   25.1814  -20.5838  -17.3559 C   0  0  0  0  0  0  0  0  0  0  0  0
   25.8146  -20.3096  -18.6828 C   0  0  0  0  0  0  0  0  0  0  0  0
   25.1154  -20.5266  -19.8525 C   0  0  0  0  0  0  0  0  0  0  0  0
   25.7050  -20.2729  -21.0839 C   0  0  0  0  0  0  0  0  0  0  0  0
   26.9912  -19.8029  -21.1552 C   0  0  0  0  0  0  0  0  0  0  0  0
   27.6846  -19.5878  -19.9900 C   0  0  0  0  0  0  0  0  0  0  0  0
   27.1104  -19.8358  -18.7608 C   0  0  0  0  0  0  0  0  0  0  0  0
   25.4387  -21.9423  -15.2961 C   0  0  0  0  0  0  0  0  0  0  0  0
   24.4512  -22.6298  -15.0086 O   0  0  0  0  0  0  0  0  0  0  0  0
   26.1559  -21.3063  -14.2499 N   0  0  0  0  0  0  0  0  0  0  0  0
   25.7646  -21.2078  -12.9017 C   0  0  1  0  0  0  0  0  0  0  0  0
   26.8361  -20.8475  -11.8973 C   0  0  0  0  0  0  0  0  0  0  0  0
   26.3374  -20.6762  -10.5264 C   0  0  0  0  0  0  0  0  0  0  0  0
   25.7526  -21.7687   -9.8720 C   0  0  0  0  0  0  0  0  0  0  0  0
   25.2646  -21.6550   -8.5933 C   0  0  0  0  0  0  0  0  0  0  0  0
   25.3280  -20.4674   -7.9004 C   0  0  0  0  0  0  0  0  0  0  0  0
   25.9090  -19.3831   -8.5519 C   0  0  0  0  0  0  0  0  0  0  0  0
   26.3997  -19.5096   -9.8468 C   0  0  0  0  0  0  0  0  0  0  0  0
   24.6264  -20.2884  -12.7141 C   0  0  0  0  0  0  0  0  0  0  0  0
   24.7707  -19.0558  -13.0147 O   0  0  0  0  0  0  0  0  0  0  0  0
   23.3706  -20.6689  -12.2206 N   0  0  0  0  0  0  0  0  0  0  0  0
   22.2618  -19.6862  -12.0054 C   0  0  1  0  0  0  0  0  0  0  0  0
   21.9999  -18.9708  -13.2632 C   0  0  0  0  0  0  0  0  0  0  0  0
   21.5491  -19.8300  -14.3882 C   0  0  0  0  0  0  0  0  0  0  0  0
   20.2921  -19.4085  -15.0425 C   0  0  0  0  0  0  0  0  0  0  0  0
   20.2733  -18.4985  -15.9279 O   0  0  0  0  0  0  0  0  0  0  0  0
   21.2111  -20.3358  -11.2872 C   0  0  0  0  0  0  0  0  0  0  0  0
   20.2154  -19.6293  -10.8757 O   0  0  0  0  0  0  0  0  0  0  0  0
   19.0392  -19.9806  -14.7418 O   0  0  0  0  0  0  0  0  0  0  0  0
   21.0862  -21.6839  -10.9535 O   0  0  0  0  0  0  0  0  0  0  0  0
  2  1  1  6
  3  4  1  0
  3  2  1  0
  4  5  2  0
  5  6  1  0
  7  6  2  0
  8  7  1  0
  9  8  2  0
  9  4  1  0
 10  2  1  0
 10 11  2  0
 12 10  1  0
 13 12  1  0
 13 21  1  0
 13 14  1  1
 15 14  1  0
 16 15  2  0
 17 16  1  0
 18 17  2  0
 18 19  1  0
 19 20  2  0
 20 15  1  0
 21 23  1  0
 22 21  2  0
 23 24  1  0
 24 29  1  0
 25 26  1  0
 24 25  1  6
 27 26  1  0
 27 28  2  0
 29 30  2  0
 29 32  1  0
 31 27  1  0
M  END
$$$$
