FFE.pdb
     RDKit          3D

 32 33  0  0  1  0  0  0  0  0999 V2000
   27.4564  -19.9050  -16.8183 N   0  0  0  0  0  0  0  0  0  0  0  0
   26.4352  -19.2992  -16.0157 C   0  0  1  0  0  0  0  0  0  0  0  0
   25.2784  -18.7924  -16.8743 C   0  0  0  0  0  0  0  0  0  0  0  0
   25.7551  -17.6726  -17.7437 C   0  0  0  0  0  0  0  0  0  0  0  0
   25.9950  -17.8799  -19.0867 C   0  0  0  0  0  0  0  0  0  0  0  0
   26.4389  -16.8396  -19.8924 C   0  0  0  0  0  0  0  0  0  0  0  0
   26.6452  -15.5908  -19.3647 C   0  0  0  0  0  0  0  0  0  0  0  0
   26.4056  -15.3874  -18.0284 C   0  0  0  0  0  0  0  0  0  0  0  0
   25.9646  -16.4121  -17.2175 C   0  0  0  0  0  0  0  0  0  0  0  0
   25.9433  -20.1689  -14.9205 C   0  0  0  0  0  0  0  0  0  0  0  0
   25.7829  -21.3793  -15.1206 O   0  0  0  0  0  0  0  0  0  0  0  0
   25.6484  -19.6444  -13.6355 N   0  0  0  0  0  0  0  0  0  0  0  0
   25.1411  -20.3568  -12.5330 C   0  0  1  0  0  0  0  0  0  0  0  0
   25.8833  -20.2195  -11.2226 C   0  0  0  0  0  0  0  0  0  0  0  0
   27.3203  -20.5083  -11.3162 C   0  0  0  0  0  0  0  0  0  0  0  0
   27.8301  -21.6468  -10.6777 C   0  0  0  0  0  0  0  0  0  0  0  0
   29.1677  -21.9539  -10.7301 C   0  0  0  0  0  0  0  0  0  0  0  0
   30.0635  -21.1598  -11.4095 C   0  0  0  0  0  0  0  0  0  0  0  0
   29.5556  -20.0292  -12.0430 C   0  0  0  0  0  0  0  0  0  0  0  0
   28.1994  -19.7279  -11.9832 C   0  0  0  0  0  0  0  0  0  0  0  0
   23.7146  -20.0710  -12.2892 C   0  0  0  0  0  0  0  0  0  0  0  0
   23.2870  -18.8781  -12.4462 O   0  0  0  0  0  0  0  0  0  0  0  0
   22.7698  -21.0265  -11.8896 N   0  0  0  0  0  0  0  0  0  0  0  0
   21.4634  -21.2081  -12.5980 C   0  0  1  0  0  0  0  0  0  0  0  0
   21.6979  -21.2113  -14.0497 C   0  0  0  0  0  0  0  0  0  0  0  0
   20.9872  -20.1439  -14.7996 C   0  0  0  0  0  0  0  0  0  0  0  0
   19.6379  -20.5029  -15.2859 C   0  0  0  0  0  0  0  0  0  0  0  0
   18.6163  -19.8080  -14.9930 O   0  0  0  0  0  0  0  0  0  0  0  0
   20.7425  -22.2637  -11.9594 C   0  0  0  0  0  0  0  0  0  0  0  0
   19.4560  -22.2641  -12.0301 O   0  0  0  0  0  0  0  0  0  0  0  0
   19.3882  -21.6234  -16.1042 O   0  0  0  0  0  0  0  0  0  0  0  0
   21.2404  -23.3516  -11.2432 O   0  0  0  0  0  0  0  0  0  0  0  0
  2  1  1  6
  3  4  1  0
  3  2  1  0
  4  5  2  0
  5  6  1  0
  7  6  2  0
  8  7  1  0
  9  8  2  0
  9  4  1  0
 10  2  1  0
 10 11  2  0
 12 10  1  0
 13 12  1  0
 13 21  1  0
 13 14  1  1
 15 14  1  0
 16 15  2  0
 17 16  1  0
 18 17  2  0
 18 19  1  0
 19 20  2  0
 20 15  1  0
 21 23  1  0
 22 21  2  0
 23 24  1  0
 24 29  1  0
 25 26  1  0
 24 25  1  6
 27 26  1  0
 27 28  2  0
 29 30  2  0
 29 32  1  0
 31 27  1  0
M  END
$$$$
