FFE.pdb
     RDKit          3D

 32 33  0  0  1  0  0  0  0  0999 V2000
   25.0566  -26.4661  -16.1808 N   0  0  0  0  0  0  0  0  0  0  0  0
   25.7841  -26.8371  -17.3584 C   0  0  1  0  0  0  0  0  0  0  0  0
   26.0254  -25.6338  -18.2673 C   0  0  0  0  0  0  0  0  0  0  0  0
   24.7326  -25.2103  -18.8887 C   0  0  0  0  0  0  0  0  0  0  0  0
   24.1396  -25.9798  -19.8687 C   0  0  0  0  0  0  0  0  0  0  0  0
   22.9399  -25.5847  -20.4459 C   0  0  0  0  0  0  0  0  0  0  0  0
   22.3270  -24.4237  -20.0499 C   0  0  0  0  0  0  0  0  0  0  0  0
   22.9191  -23.6601  -19.0748 C   0  0  0  0  0  0  0  0  0  0  0  0
   24.1103  -24.0413  -18.4937 C   0  0  0  0  0  0  0  0  0  0  0  0
   27.0515  -27.5524  -17.0756 C   0  0  0  0  0  0  0  0  0  0  0  0
   27.7165  -27.2544  -16.0757 O   0  0  0  0  0  0  0  0  0  0  0  0
   27.5271  -28.5803  -17.9303 N   0  0  0  0  0  0  0  0  0  0  0  0
   28.6462  -29.4049  -17.7113 C   0  0  1  0  0  0  0  0  0  0  0  0
   28.3949  -30.8915  -17.5934 C   0  0  0  0  0  0  0  0  0  0  0  0
   27.6778  -31.2817  -16.3724 C   0  0  0  0  0  0  0  0  0  0  0  0
   26.2778  -31.2204  -16.3547 C   0  0  0  0  0  0  0  0  0  0  0  0
   25.5640  -31.5673  -15.2340 C   0  0  0  0  0  0  0  0  0  0  0  0
   26.1895  -31.9890  -14.0827 C   0  0  0  0  0  0  0  0  0  0  0  0
   27.5801  -32.0492  -14.1019 C   0  0  0  0  0  0  0  0  0  0  0  0
   28.2927  -31.6954  -15.2422 C   0  0  0  0  0  0  0  0  0  0  0  0
   29.7044  -29.1927  -18.7168 C   0  0  0  0  0  0  0  0  0  0  0  0
   29.3742  -28.8252  -19.8943 O   0  0  0  0  0  0  0  0  0  0  0  0
   31.0747  -29.3666  -18.4772 N   0  0  0  0  0  0  0  0  0  0  0  0
   32.1126  -29.0938  -19.5212 C   0  0  1  0  0  0  0  0  0  0  0  0
   32.5042  -27.6779  -19.4542 C   0  0  0  0  0  0  0  0  0  0  0  0
   32.8466  -27.0621  -20.7620 C   0  0  0  0  0  0  0  0  0  0  0  0
   34.2666  -26.6873  -20.9328 C   0  0  0  0  0  0  0  0  0  0  0  0
   34.7222  -26.2901  -22.0495 O   0  0  0  0  0  0  0  0  0  0  0  0
   33.0876  -30.1374  -19.4768 C   0  0  0  0  0  0  0  0  0  0  0  0
   32.7385  -31.2900  -19.0186 O   0  0  0  0  0  0  0  0  0  0  0  0
   35.2064  -26.7360  -19.8832 O   0  0  0  0  0  0  0  0  0  0  0  0
   34.4220  -30.1026  -19.8801 O   0  0  0  0  0  0  0  0  0  0  0  0
  2  1  1  1
  3  4  1  0
  3  2  1  0
  4  5  2  0
  5  6  1  0
  7  6  2  0
  8  7  1  0
  9  8  2  0
  9  4  1  0
 10  2  1  0
 10 11  2  0
 12 10  1  0
 13 12  1  0
 13 21  1  0
 13 14  1  6
 15 14  1  0
 16 15  2  0
 17 16  1  0
 18 17  2  0
 18 19  1  0
 19 20  2  0
 20 15  1  0
 21 23  1  0
 22 21  2  0
 23 24  1  0
 24 29  1  0
 25 26  1  0
 24 25  1  1
 27 26  1  0
 27 28  2  0
 29 30  2  0
 29 32  1  0
 31 27  1  0
M  END
$$$$
