FFE.pdb
     RDKit          3D

 32 33  0  0  1  0  0  0  0  0999 V2000
   27.8807  -22.0769  -17.5322 N   0  0  0  0  0  0  0  0  0  0  0  0
   27.4708  -20.9746  -16.7132 C   0  0  1  0  0  0  0  0  0  0  0  0
   26.3782  -20.1514  -17.3921 C   0  0  0  0  0  0  0  0  0  0  0  0
   26.8797  -19.6432  -18.7063 C   0  0  0  0  0  0  0  0  0  0  0  0
   26.4058  -20.1708  -19.8900 C   0  0  0  0  0  0  0  0  0  0  0  0
   26.8734  -19.6990  -21.1095 C   0  0  0  0  0  0  0  0  0  0  0  0
   27.8133  -18.7015  -21.1549 C   0  0  0  0  0  0  0  0  0  0  0  0
   28.2830  -18.1784  -19.9758 C   0  0  0  0  0  0  0  0  0  0  0  0
   27.8268  -18.6382  -18.7582 C   0  0  0  0  0  0  0  0  0  0  0  0
   27.0657  -21.3684  -15.3426 C   0  0  0  0  0  0  0  0  0  0  0  0
   26.2917  -22.3197  -15.1790 O   0  0  0  0  0  0  0  0  0  0  0  0
   27.5470  -20.6759  -14.2015 N   0  0  0  0  0  0  0  0  0  0  0  0
   27.0832  -20.8094  -12.8796 C   0  0  1  0  0  0  0  0  0  0  0  0
   27.9448  -20.2232  -11.7839 C   0  0  0  0  0  0  0  0  0  0  0  0
   27.2959  -20.1888  -10.4667 C   0  0  0  0  0  0  0  0  0  0  0  0
   27.4399  -21.2859   -9.6067 C   0  0  0  0  0  0  0  0  0  0  0  0
   26.8453  -21.3033   -8.3689 C   0  0  0  0  0  0  0  0  0  0  0  0
   26.0844  -20.2479   -7.9198 C   0  0  0  0  0  0  0  0  0  0  0  0
   25.9422  -19.1590   -8.7753 C   0  0  0  0  0  0  0  0  0  0  0  0
   26.5486  -19.1522  -10.0265 C   0  0  0  0  0  0  0  0  0  0  0  0
   25.7101  -20.2968  -12.7129 C   0  0  0  0  0  0  0  0  0  0  0  0
   25.4503  -19.0974  -13.0661 O   0  0  0  0  0  0  0  0  0  0  0  0
   24.6436  -21.0382  -12.1853 N   0  0  0  0  0  0  0  0  0  0  0  0
   23.2641  -20.4730  -12.0479 C   0  0  1  0  0  0  0  0  0  0  0  0
   22.5542  -20.6159  -13.3278 C   0  0  0  0  0  0  0  0  0  0  0  0
   22.0047  -21.9710  -13.5894 C   0  0  0  0  0  0  0  0  0  0  0  0
   22.1311  -22.4472  -14.9834 C   0  0  0  0  0  0  0  0  0  0  0  0
   22.7023  -21.7497  -15.8776 O   0  0  0  0  0  0  0  0  0  0  0  0
   22.6968  -20.9498  -10.8262 C   0  0  0  0  0  0  0  0  0  0  0  0
   23.3377  -21.8433  -10.1547 O   0  0  0  0  0  0  0  0  0  0  0  0
   21.6398  -23.6953  -15.4172 O   0  0  0  0  0  0  0  0  0  0  0  0
   21.5021  -20.5734  -10.2135 O   0  0  0  0  0  0  0  0  0  0  0  0
  2  1  1  6
  3  4  1  0
  3  2  1  0
  4  5  2  0
  5  6  1  0
  7  6  2  0
  8  7  1  0
  9  8  2  0
  9  4  1  0
 10  2  1  0
 10 11  2  0
 12 10  1  0
 13 12  1  0
 13 21  1  0
 13 14  1  1
 15 14  1  0
 16 15  2  0
 17 16  1  0
 18 17  2  0
 18 19  1  0
 19 20  2  0
 20 15  1  0
 21 23  1  0
 22 21  2  0
 23 24  1  0
 24 29  1  0
 25 26  1  0
 24 25  1  6
 27 26  1  0
 27 28  2  0
 29 30  2  0
 29 32  1  0
 31 27  1  0
M  END
$$$$
