FFE.pdb
     RDKit          3D

 32 33  0  0  1  0  0  0  0  0999 V2000
   18.5411   -7.0253  -18.8030 N   0  0  0  0  0  0  0  0  0  0  0  0
   19.0582   -6.0763  -17.8619 C   0  0  1  0  0  0  0  0  0  0  0  0
   18.2783   -4.7640  -17.9073 C   0  0  0  0  0  0  0  0  0  0  0  0
   18.4551   -4.1243  -19.2476 C   0  0  0  0  0  0  0  0  0  0  0  0
   17.4283   -4.1308  -20.1694 C   0  0  0  0  0  0  0  0  0  0  0  0
   17.5942   -3.5377  -21.4140 C   0  0  0  0  0  0  0  0  0  0  0  0
   18.7815   -2.9367  -21.7450 C   0  0  0  0  0  0  0  0  0  0  0  0
   19.8014   -2.9317  -20.8261 C   0  0  0  0  0  0  0  0  0  0  0  0
   19.6493   -3.5172  -19.5867 C   0  0  0  0  0  0  0  0  0  0  0  0
   19.1434   -6.5965  -16.4762 C   0  0  0  0  0  0  0  0  0  0  0  0
   18.2086   -7.2584  -16.0088 O   0  0  0  0  0  0  0  0  0  0  0  0
   20.2806   -6.3525  -15.6634 N   0  0  0  0  0  0  0  0  0  0  0  0
   20.4866   -6.8073  -14.3477 C   0  0  1  0  0  0  0  0  0  0  0  0
   21.9144   -6.8620  -13.8525 C   0  0  0  0  0  0  0  0  0  0  0  0
   22.0535   -7.3780  -12.4844 C   0  0  0  0  0  0  0  0  0  0  0  0
   22.2381   -8.7535  -12.2898 C   0  0  0  0  0  0  0  0  0  0  0  0
   22.3650   -9.2836  -11.0293 C   0  0  0  0  0  0  0  0  0  0  0  0
   22.3165   -8.4905   -9.9054 C   0  0  0  0  0  0  0  0  0  0  0  0
   22.1328   -7.1245  -10.1004 C   0  0  0  0  0  0  0  0  0  0  0  0
   22.0055   -6.5985  -11.3813 C   0  0  0  0  0  0  0  0  0  0  0  0
   19.6837   -6.0576  -13.3633 C   0  0  0  0  0  0  0  0  0  0  0  0
   19.7743   -4.7843  -13.3320 O   0  0  0  0  0  0  0  0  0  0  0  0
   18.8095   -6.6452  -12.4381 N   0  0  0  0  0  0  0  0  0  0  0  0
   17.9372   -5.8338  -11.5313 C   0  0  1  0  0  0  0  0  0  0  0  0
   16.6043   -5.6986  -12.1374 C   0  0  0  0  0  0  0  0  0  0  0  0
   15.6276   -4.9216  -11.3317 C   0  0  0  0  0  0  0  0  0  0  0  0
   14.2786   -4.7934  -11.9232 C   0  0  0  0  0  0  0  0  0  0  0  0
   13.9136   -5.5013  -12.9121 O   0  0  0  0  0  0  0  0  0  0  0  0
   18.1008   -6.3123  -10.1948 C   0  0  0  0  0  0  0  0  0  0  0  0
   18.5422   -7.5097  -10.0170 O   0  0  0  0  0  0  0  0  0  0  0  0
   13.3084   -3.8933  -11.4375 O   0  0  0  0  0  0  0  0  0  0  0  0
   17.8523   -5.6487   -8.9939 O   0  0  0  0  0  0  0  0  0  0  0  0
  2  1  1  6
  3  4  1  0
  3  2  1  0
  4  5  2  0
  5  6  1  0
  7  6  2  0
  8  7  1  0
  9  8  2  0
  9  4  1  0
 10  2  1  0
 10 11  2  0
 12 10  1  0
 13 12  1  0
 13 21  1  0
 13 14  1  1
 15 14  1  0
 16 15  2  0
 17 16  1  0
 18 17  2  0
 18 19  1  0
 19 20  2  0
 20 15  1  0
 21 23  1  0
 22 21  2  0
 23 24  1  0
 24 29  1  0
 25 26  1  0
 24 25  1  6
 27 26  1  0
 27 28  2  0
 29 30  2  0
 29 32  1  0
 31 27  1  0
M  END
$$$$
