FFE.pdb
     RDKit          3D

 32 33  0  0  1  0  0  0  0  0999 V2000
   16.7191  -25.5398   -3.5747 N   0  0  0  0  0  0  0  0  0  0  0  0
   16.0923  -25.9339   -2.3477 C   0  0  1  0  0  0  0  0  0  0  0  0
   15.0057  -26.9800   -2.5874 C   0  0  0  0  0  0  0  0  0  0  0  0
   14.3551  -27.3309   -1.2872 C   0  0  0  0  0  0  0  0  0  0  0  0
   13.4048  -26.4994   -0.7308 C   0  0  0  0  0  0  0  0  0  0  0  0
   12.8025  -26.8258    0.4771 C   0  0  0  0  0  0  0  0  0  0  0  0
   13.1437  -27.9797    1.1347 C   0  0  0  0  0  0  0  0  0  0  0  0
   14.0894  -28.8052    0.5790 C   0  0  0  0  0  0  0  0  0  0  0  0
   14.6949  -28.4925   -0.6200 C   0  0  0  0  0  0  0  0  0  0  0  0
   17.0478  -26.3881   -1.3091 C   0  0  0  0  0  0  0  0  0  0  0  0
   17.9086  -27.2308   -1.5910 O   0  0  0  0  0  0  0  0  0  0  0  0
   17.0005  -25.8765    0.0136 N   0  0  0  0  0  0  0  0  0  0  0  0
   17.8741  -26.1953    1.0698 C   0  0  1  0  0  0  0  0  0  0  0  0
   18.0769  -25.1444    2.1381 C   0  0  0  0  0  0  0  0  0  0  0  0
   18.9797  -25.5582    3.2202 C   0  0  0  0  0  0  0  0  0  0  0  0
   20.3191  -25.8409    2.9202 C   0  0  0  0  0  0  0  0  0  0  0  0
   21.1989  -26.2391    3.8967 C   0  0  0  0  0  0  0  0  0  0  0  0
   20.8055  -26.3777    5.2084 C   0  0  0  0  0  0  0  0  0  0  0  0
   19.4747  -26.0967    5.5047 C   0  0  0  0  0  0  0  0  0  0  0  0
   18.5926  -25.6944    4.5079 C   0  0  0  0  0  0  0  0  0  0  0  0
   17.5148  -27.4641    1.7308 C   0  0  0  0  0  0  0  0  0  0  0  0
   16.2998  -27.8558    1.6993 O   0  0  0  0  0  0  0  0  0  0  0  0
   18.4216  -28.2928    2.4065 N   0  0  0  0  0  0  0  0  0  0  0  0
   18.0532  -29.6624    2.8858 C   0  0  1  0  0  0  0  0  0  0  0  0
   17.3826  -30.3903    1.7981 C   0  0  0  0  0  0  0  0  0  0  0  0
   17.0805  -31.8146    2.0930 C   0  0  0  0  0  0  0  0  0  0  0  0
   15.6668  -32.1094    2.4101 C   0  0  0  0  0  0  0  0  0  0  0  0
   14.8115  -32.3346    1.4991 O   0  0  0  0  0  0  0  0  0  0  0  0
   19.1747  -30.2209    3.5729 C   0  0  0  0  0  0  0  0  0  0  0  0
   18.9666  -31.1451    4.4462 O   0  0  0  0  0  0  0  0  0  0  0  0
   15.1705  -32.1680    3.7283 O   0  0  0  0  0  0  0  0  0  0  0  0
   20.5270  -29.9114    3.4318 O   0  0  0  0  0  0  0  0  0  0  0  0
  2  1  1  6
  3  4  1  0
  3  2  1  0
  4  5  2  0
  5  6  1  0
  7  6  2  0
  8  7  1  0
  9  8  2  0
  9  4  1  0
 10  2  1  0
 10 11  2  0
 12 10  1  0
 13 12  1  0
 13 21  1  0
 13 14  1  1
 15 14  1  0
 16 15  2  0
 17 16  1  0
 18 17  2  0
 18 19  1  0
 19 20  2  0
 20 15  1  0
 21 23  1  0
 22 21  2  0
 23 24  1  0
 24 29  1  0
 25 26  1  0
 24 25  1  6
 27 26  1  0
 27 28  2  0
 29 30  2  0
 29 32  1  0
 31 27  1  0
M  END
$$$$
