MKC.pdb
     RDKit          3D

 24 23  0  0  1  0  0  0  0  0999 V2000
   30.2880  -19.6897  -11.4910 C   0  0  0  0  0  0  0  0  0  0  0  0
   29.7990  -21.3001  -10.8711 S   0  0  0  0  0  0  0  0  0  0  0  0
   28.5225  -21.9941  -11.9487 C   0  0  0  0  0  0  0  0  0  0  0  0
   27.3105  -21.0815  -12.0297 C   0  0  0  0  0  0  0  0  0  0  0  0
   26.7392  -21.2201  -13.4220 C   0  0  2  0  0  0  0  0  0  0  0  0
   27.6867  -20.6506  -14.3567 N   0  0  0  0  0  0  0  0  0  0  0  0
   25.4476  -20.5539  -13.5785 C   0  0  0  0  0  0  0  0  0  0  0  0
   25.3408  -19.3309  -13.3159 O   0  0  0  0  0  0  0  0  0  0  0  0
   24.2587  -21.2052  -14.0210 N   0  0  0  0  0  0  0  0  0  0  0  0
   22.9874  -20.4911  -14.1074 C   0  0  1  0  0  0  0  0  0  0  0  0
   22.5980  -20.4947  -15.5562 C   0  0  0  0  0  0  0  0  0  0  0  0
   23.2753  -19.4287  -16.3758 C   0  0  0  0  0  0  0  0  0  0  0  0
   22.8294  -19.4342  -17.8101 C   0  0  0  0  0  0  0  0  0  0  0  0
   23.6874  -20.3381  -18.6693 C   0  0  0  0  0  0  0  0  0  0  0  0
   23.2623  -20.3575  -20.0387 N   0  0  0  0  0  0  0  0  0  0  0  0
   21.9656  -21.1152  -13.2366 C   0  0  0  0  0  0  0  0  0  0  0  0
   21.6376  -22.3160  -13.3970 O   0  0  0  0  0  0  0  0  0  0  0  0
   21.3172  -20.3977  -12.1943 N   0  0  0  0  0  0  0  0  0  0  0  0
   20.2166  -20.9710  -11.4436 C   0  0  1  0  0  0  0  0  0  0  0  0
   19.9579  -20.2142  -10.1597 C   0  0  0  0  0  0  0  0  0  0  0  0
   19.8993  -18.4562  -10.5109 S   0  0  0  0  0  0  0  0  0  0  0  0
   18.9696  -20.8658  -12.2617 C   0  0  0  0  0  0  0  0  0  0  0  0
   18.9114  -20.0953  -13.2603 O   0  0  0  0  0  0  0  0  0  0  0  0
   17.8485  -21.6061  -11.9499 O   0  0  0  0  0  0  0  0  0  0  0  0
  1  2  1  0
  2  3  1  0
  4  3  1  0
  5  4  1  0
  5  6  1  6
  7  8  2  0
  7  5  1  0
  9  7  1  0
 10  9  1  0
 10 11  1  6
 12 13  1  0
 12 11  1  0
 13 14  1  0
 14 15  1  0
 16 17  2  0
 16 10  1  0
 18 16  1  0
 19 18  1  0
 19 20  1  1
 20 21  1  0
 22 19  1  0
 23 22  2  0
 24 22  1  0
M  END
$$$$
