MKC.pdb
     RDKit          3D

 24 23  0  0  1  0  0  0  0  0999 V2000
   26.9740  -30.3727  -23.8038 C   0  0  0  0  0  0  0  0  0  0  0  0
   26.1657  -29.0490  -24.7044 S   0  0  0  0  0  0  0  0  0  0  0  0
   26.1550  -27.5527  -23.6878 C   0  0  0  0  0  0  0  0  0  0  0  0
   27.5188  -27.2933  -23.0707 C   0  0  0  0  0  0  0  0  0  0  0  0
   27.3686  -26.1169  -22.1337 C   0  0  2  0  0  0  0  0  0  0  0  0
   28.4016  -25.1534  -22.4510 N   0  0  0  0  0  0  0  0  0  0  0  0
   27.4749  -26.4914  -20.7248 C   0  0  0  0  0  0  0  0  0  0  0  0
   28.5939  -26.4689  -20.1562 O   0  0  0  0  0  0  0  0  0  0  0  0
   26.3706  -26.8940  -19.9174 N   0  0  0  0  0  0  0  0  0  0  0  0
   26.5505  -27.2794  -18.5201 C   0  0  1  0  0  0  0  0  0  0  0  0
   25.3179  -26.8270  -17.7945 C   0  0  0  0  0  0  0  0  0  0  0  0
   25.3201  -25.3651  -17.4345 C   0  0  0  0  0  0  0  0  0  0  0  0
   24.0783  -24.9510  -16.6980 C   0  0  0  0  0  0  0  0  0  0  0  0
   24.1255  -23.4983  -16.2749 C   0  0  0  0  0  0  0  0  0  0  0  0
   22.9652  -23.1071  -15.5286 N   0  0  0  0  0  0  0  0  0  0  0  0
   26.7884  -28.7354  -18.3955 C   0  0  0  0  0  0  0  0  0  0  0  0
   26.2071  -29.5447  -19.1587 O   0  0  0  0  0  0  0  0  0  0  0  0
   27.6713  -29.2788  -17.4225 N   0  0  0  0  0  0  0  0  0  0  0  0
   27.9041  -30.7064  -17.3162 C   0  0  1  0  0  0  0  0  0  0  0  0
   29.2731  -31.0116  -16.7498 C   0  0  0  0  0  0  0  0  0  0  0  0
   30.1114  -32.1777  -17.8245 S   0  0  0  0  0  0  0  0  0  0  0  0
   26.9075  -31.2870  -16.3647 C   0  0  0  0  0  0  0  0  0  0  0  0
   26.3886  -30.5798  -15.4566 O   0  0  0  0  0  0  0  0  0  0  0  0
   26.5268  -32.6097  -16.4512 O   0  0  0  0  0  0  0  0  0  0  0  0
  1  2  1  0
  2  3  1  0
  4  3  1  0
  5  4  1  0
  5  6  1  6
  7  8  2  0
  7  5  1  0
  9  7  1  0
 10  9  1  0
 10 11  1  1
 12 13  1  0
 12 11  1  0
 13 14  1  0
 14 15  1  0
 16 17  2  0
 16 10  1  0
 18 16  1  0
 19 18  1  0
 19 20  1  1
 20 21  1  0
 22 19  1  0
 23 22  2  0
 24 22  1  0
M  END
$$$$
