MKC.pdb
     RDKit          3D

 24 23  0  0  1  0  0  0  0  0999 V2000
   29.1705  -19.0207   -5.5842 C   0  0  0  0  0  0  0  0  0  0  0  0
   27.9164  -20.2274   -5.1508 S   0  0  0  0  0  0  0  0  0  0  0  0
   26.5682  -20.1484   -6.3545 C   0  0  0  0  0  0  0  0  0  0  0  0
   27.0825  -20.3217   -7.7735 C   0  0  0  0  0  0  0  0  0  0  0  0
   25.9044  -20.1345   -8.7016 C   0  0  2  0  0  0  0  0  0  0  0  0
   24.8715  -21.0716   -8.3133 N   0  0  0  0  0  0  0  0  0  0  0  0
   26.2448  -20.3471  -10.1071 C   0  0  0  0  0  0  0  0  0  0  0  0
   27.3716  -19.9968  -10.5358 O   0  0  0  0  0  0  0  0  0  0  0  0
   25.3687  -20.9412  -11.0625 N   0  0  0  0  0  0  0  0  0  0  0  0
   25.7779  -21.1376  -12.4509 C   0  0  1  0  0  0  0  0  0  0  0  0
   25.1725  -22.4380  -12.8902 C   0  0  0  0  0  0  0  0  0  0  0  0
   25.5706  -22.8615  -14.2791 C   0  0  0  0  0  0  0  0  0  0  0  0
   24.8867  -24.1259  -14.7144 C   0  0  0  0  0  0  0  0  0  0  0  0
   25.2632  -24.5192  -16.1269 C   0  0  0  0  0  0  0  0  0  0  0  0
   24.6637  -25.7583  -16.5289 N   0  0  0  0  0  0  0  0  0  0  0  0
   25.3609  -19.9955  -13.2957 C   0  0  0  0  0  0  0  0  0  0  0  0
   24.2270  -19.4767  -13.1532 O   0  0  0  0  0  0  0  0  0  0  0  0
   26.2094  -19.4403  -14.2924 N   0  0  0  0  0  0  0  0  0  0  0  0
   25.8403  -18.2476  -15.0305 C   0  0  1  0  0  0  0  0  0  0  0  0
   27.0248  -17.3321  -15.2470 C   0  0  0  0  0  0  0  0  0  0  0  0
   26.9231  -15.9529  -14.1047 S   0  0  0  0  0  0  0  0  0  0  0  0
   25.3570  -18.6511  -16.3866 C   0  0  0  0  0  0  0  0  0  0  0  0
   25.4493  -19.8476  -16.7792 O   0  0  0  0  0  0  0  0  0  0  0  0
   24.7972  -17.7297  -17.2467 O   0  0  0  0  0  0  0  0  0  0  0  0
  1  2  1  0
  2  3  1  0
  4  3  1  0
  5  4  1  0
  5  6  1  1
  7  8  2  0
  7  5  1  0
  9  7  1  0
 10  9  1  0
 10 11  1  6
 12 13  1  0
 12 11  1  0
 13 14  1  0
 14 15  1  0
 16 17  2  0
 16 10  1  0
 18 16  1  0
 19 18  1  0
 19 20  1  6
 20 21  1  0
 22 19  1  0
 23 22  2  0
 24 22  1  0
M  END
$$$$
