MKC.pdb
     RDKit          3D

 24 23  0  0  1  0  0  0  0  0999 V2000
   32.2208  -21.3136   -7.5104 C   0  0  0  0  0  0  0  0  0  0  0  0
   33.0323  -21.5644   -9.0899 S   0  0  0  0  0  0  0  0  0  0  0  0
   31.8331  -22.2024  -10.2846 C   0  0  0  0  0  0  0  0  0  0  0  0
   30.5737  -21.3531  -10.3118 C   0  0  0  0  0  0  0  0  0  0  0  0
   29.6350  -21.9783  -11.3179 C   0  0  2  0  0  0  0  0  0  0  0  0
   30.4118  -22.3743  -12.4736 N   0  0  0  0  0  0  0  0  0  0  0  0
   28.5670  -21.0746  -11.7413 C   0  0  0  0  0  0  0  0  0  0  0  0
   27.8988  -20.4519  -10.8800 O   0  0  0  0  0  0  0  0  0  0  0  0
   28.2118  -20.8361  -13.1016 N   0  0  0  0  0  0  0  0  0  0  0  0
   27.1058  -19.9496  -13.4547 C   0  0  1  0  0  0  0  0  0  0  0  0
   27.3047  -19.5782  -14.8945 C   0  0  0  0  0  0  0  0  0  0  0  0
   26.1886  -18.7505  -15.4741 C   0  0  0  0  0  0  0  0  0  0  0  0
   26.5655  -17.3054  -15.6335 C   0  0  0  0  0  0  0  0  0  0  0  0
   25.4193  -16.4741  -16.1692 C   0  0  0  0  0  0  0  0  0  0  0  0
   25.7601  -15.0868  -16.2937 N   0  0  0  0  0  0  0  0  0  0  0  0
   25.8001  -20.6013  -13.2048 C   0  0  0  0  0  0  0  0  0  0  0  0
   25.5040  -21.6778  -13.7780 O   0  0  0  0  0  0  0  0  0  0  0  0
   24.8347  -20.0494  -12.3188 N   0  0  0  0  0  0  0  0  0  0  0  0
   23.6495  -20.7876  -11.9262 C   0  0  1  0  0  0  0  0  0  0  0  0
   23.1652  -20.3825  -10.5516 C   0  0  0  0  0  0  0  0  0  0  0  0
   24.5065  -20.5640   -9.3746 S   0  0  0  0  0  0  0  0  0  0  0  0
   22.5448  -20.4673  -12.8814 C   0  0  0  0  0  0  0  0  0  0  0  0
   22.6807  -19.5624  -13.7513 O   0  0  0  0  0  0  0  0  0  0  0  0
   21.3470  -21.1499  -12.8400 O   0  0  0  0  0  0  0  0  0  0  0  0
  1  2  1  0
  2  3  1  0
  4  3  1  0
  5  4  1  0
  5  6  1  6
  7  8  2  0
  7  5  1  0
  9  7  1  0
 10  9  1  0
 10 11  1  6
 12 13  1  0
 12 11  1  0
 13 14  1  0
 14 15  1  0
 16 17  2  0
 16 10  1  0
 18 16  1  0
 19 18  1  0
 19 20  1  1
 20 21  1  0
 22 19  1  0
 23 22  2  0
 24 22  1  0
M  END
$$$$
