MKC.pdb
     RDKit          3D

 24 23  0  0  1  0  0  0  0  0999 V2000
   27.6342  -12.4741  -15.2144 C   0  0  0  0  0  0  0  0  0  0  0  0
   27.7168  -14.1677  -15.7990 S   0  0  0  0  0  0  0  0  0  0  0  0
   26.0899  -14.6702  -16.4100 C   0  0  0  0  0  0  0  0  0  0  0  0
   25.1296  -13.4939  -16.4586 C   0  0  0  0  0  0  0  0  0  0  0  0
   23.8272  -14.0040  -17.0312 C   0  0  2  0  0  0  0  0  0  0  0  0
   24.0745  -14.4499  -18.3862 N   0  0  0  0  0  0  0  0  0  0  0  0
   22.7724  -12.9921  -17.0415 C   0  0  0  0  0  0  0  0  0  0  0  0
   22.6997  -12.1766  -17.9933 O   0  0  0  0  0  0  0  0  0  0  0  0
   21.7857  -12.8530  -16.0215 N   0  0  0  0  0  0  0  0  0  0  0  0
   20.8084  -11.7679  -16.0516 C   0  0  1  0  0  0  0  0  0  0  0  0
   19.5896  -12.2767  -15.3401 C   0  0  0  0  0  0  0  0  0  0  0  0
   18.7426  -13.2091  -16.1647 C   0  0  0  0  0  0  0  0  0  0  0  0
   17.5308  -13.6954  -15.4225 C   0  0  0  0  0  0  0  0  0  0  0  0
   16.6506  -14.5752  -16.2846 C   0  0  0  0  0  0  0  0  0  0  0  0
   15.5892  -15.1866  -15.5390 N   0  0  0  0  0  0  0  0  0  0  0  0
   21.3592  -10.5377  -15.4390 C   0  0  0  0  0  0  0  0  0  0  0  0
   21.9706  -10.5885  -14.3442 O   0  0  0  0  0  0  0  0  0  0  0  0
   21.2251   -9.2610  -16.0503 N   0  0  0  0  0  0  0  0  0  0  0  0
   21.8114   -8.0701  -15.4658 C   0  0  1  0  0  0  0  0  0  0  0  0
   22.1429   -7.0336  -16.5166 C   0  0  0  0  0  0  0  0  0  0  0  0
   20.6578   -6.6289  -17.4375 S   0  0  0  0  0  0  0  0  0  0  0  0
   20.8127   -7.4436  -14.5462 C   0  0  0  0  0  0  0  0  0  0  0  0
   19.6127   -7.8356  -14.5269 O   0  0  0  0  0  0  0  0  0  0  0  0
   21.1728   -6.4211  -13.6936 O   0  0  0  0  0  0  0  0  0  0  0  0
  1  2  1  0
  2  3  1  0
  4  3  1  0
  5  4  1  0
  5  6  1  6
  7  8  2  0
  7  5  1  0
  9  7  1  0
 10  9  1  0
 10 11  1  1
 12 13  1  0
 12 11  1  0
 13 14  1  0
 14 15  1  0
 16 17  2  0
 16 10  1  0
 18 16  1  0
 19 18  1  0
 19 20  1  6
 20 21  1  0
 22 19  1  0
 23 22  2  0
 24 22  1  0
M  END
$$$$
