MKC.pdb
     RDKit          3D

 24 23  0  0  1  0  0  0  0  0999 V2000
   25.2531  -12.9536  -14.8624 C   0  0  0  0  0  0  0  0  0  0  0  0
   24.5289  -14.2765  -15.8329 S   0  0  0  0  0  0  0  0  0  0  0  0
   22.7972  -13.8853  -16.1806 C   0  0  0  0  0  0  0  0  0  0  0  0
   22.5855  -12.3872  -16.3190 C   0  0  0  0  0  0  0  0  0  0  0  0
   21.1462  -12.1755  -16.7288 C   0  0  2  0  0  0  0  0  0  0  0  0
   20.9512  -12.7919  -18.0242 N   0  0  0  0  0  0  0  0  0  0  0  0
   20.7759  -10.7635  -16.8061 C   0  0  0  0  0  0  0  0  0  0  0  0
   21.1725  -10.0667  -17.7721 O   0  0  0  0  0  0  0  0  0  0  0  0
   19.9725  -10.0920  -15.8381 N   0  0  0  0  0  0  0  0  0  0  0  0
   19.5979   -8.6897  -16.0015 C   0  0  1  0  0  0  0  0  0  0  0  0
   18.1544   -8.5887  -15.6058 C   0  0  0  0  0  0  0  0  0  0  0  0
   17.1975   -9.1337  -16.6325 C   0  0  0  0  0  0  0  0  0  0  0  0
   15.7605   -8.9499  -16.2360 C   0  0  0  0  0  0  0  0  0  0  0  0
   14.8131   -9.6383  -17.1952 C   0  0  0  0  0  0  0  0  0  0  0  0
   13.4367   -9.3971  -16.8735 N   0  0  0  0  0  0  0  0  0  0  0  0
   20.4761   -7.8069  -15.2005 C   0  0  0  0  0  0  0  0  0  0  0  0
   20.7033   -8.0590  -13.9922 O   0  0  0  0  0  0  0  0  0  0  0  0
   21.0941   -6.6508  -15.7510 N   0  0  0  0  0  0  0  0  0  0  0  0
   22.0579   -5.8700  -14.9993 C   0  0  1  0  0  0  0  0  0  0  0  0
   23.1206   -5.2749  -15.8964 C   0  0  0  0  0  0  0  0  0  0  0  0
   24.0289   -6.5988  -16.6962 S   0  0  0  0  0  0  0  0  0  0  0  0
   21.3494   -4.7221  -14.3546 C   0  0  0  0  0  0  0  0  0  0  0  0
   20.1686   -4.4202  -14.6843 O   0  0  0  0  0  0  0  0  0  0  0  0
   21.9640   -3.9608  -13.3826 O   0  0  0  0  0  0  0  0  0  0  0  0
  1  2  1  0
  2  3  1  0
  4  3  1  0
  5  4  1  0
  5  6  1  6
  7  8  2  0
  7  5  1  0
  9  7  1  0
 10  9  1  0
 10 11  1  1
 12 13  1  0
 12 11  1  0
 13 14  1  0
 14 15  1  0
 16 17  2  0
 16 10  1  0
 18 16  1  0
 19 18  1  0
 19 20  1  6
 20 21  1  0
 22 19  1  0
 23 22  2  0
 24 22  1  0
M  END
$$$$
