MKC.pdb
     RDKit          3D

 24 23  0  0  1  0  0  0  0  0999 V2000
   13.5407  -11.9386  -14.9422 C   0  0  0  0  0  0  0  0  0  0  0  0
   14.3071  -13.4865  -14.4592 S   0  0  0  0  0  0  0  0  0  0  0  0
   15.7218  -13.8162  -15.5374 C   0  0  0  0  0  0  0  0  0  0  0  0
   16.7237  -12.6748  -15.5001 C   0  0  0  0  0  0  0  0  0  0  0  0
   17.8160  -13.0067  -16.4907 C   0  0  2  0  0  0  0  0  0  0  0  0
   18.4638  -14.2260  -16.0554 N   0  0  0  0  0  0  0  0  0  0  0  0
   18.8156  -11.9474  -16.6151 C   0  0  0  0  0  0  0  0  0  0  0  0
   19.8360  -11.9639  -15.8841 O   0  0  0  0  0  0  0  0  0  0  0  0
   18.7203  -10.8598  -17.5324 N   0  0  0  0  0  0  0  0  0  0  0  0
   19.7466   -9.8222  -17.5910 C   0  0  1  0  0  0  0  0  0  0  0  0
   19.5112   -9.0660  -18.8651 C   0  0  0  0  0  0  0  0  0  0  0  0
   20.0308   -9.7608  -20.0956 C   0  0  0  0  0  0  0  0  0  0  0  0
   19.7998   -8.9646  -21.3480 C   0  0  0  0  0  0  0  0  0  0  0  0
   20.3077   -9.6823  -22.5803 C   0  0  0  0  0  0  0  0  0  0  0  0
   20.0787   -8.9353  -23.7828 N   0  0  0  0  0  0  0  0  0  0  0  0
   19.6973   -8.9557  -16.3915 C   0  0  0  0  0  0  0  0  0  0  0  0
   18.5962   -8.6229  -15.8895 O   0  0  0  0  0  0  0  0  0  0  0  0
   20.8739   -8.4668  -15.7606 N   0  0  0  0  0  0  0  0  0  0  0  0
   20.8140   -7.5213  -14.6624 C   0  0  1  0  0  0  0  0  0  0  0  0
   21.1157   -8.1819  -13.3355 C   0  0  0  0  0  0  0  0  0  0  0  0
   21.1314   -6.9365  -12.0447 S   0  0  0  0  0  0  0  0  0  0  0  0
   21.8632   -6.4764  -14.8692 C   0  0  0  0  0  0  0  0  0  0  0  0
   22.8789   -6.7085  -15.5822 O   0  0  0  0  0  0  0  0  0  0  0  0
   21.7521   -5.2306  -14.2881 O   0  0  0  0  0  0  0  0  0  0  0  0
  1  2  1  0
  2  3  1  0
  4  3  1  0
  5  4  1  0
  5  6  1  1
  7  8  2  0
  7  5  1  0
  9  7  1  0
 10  9  1  0
 10 11  1  6
 12 13  1  0
 12 11  1  0
 13 14  1  0
 14 15  1  0
 16 17  2  0
 16 10  1  0
 18 16  1  0
 19 18  1  0
 19 20  1  1
 20 21  1  0
 22 19  1  0
 23 22  2  0
 24 22  1  0
M  END
$$$$
