MKC.pdb
     RDKit          3D

 24 23  0  0  1  0  0  0  0  0999 V2000
   25.7889  -15.3572  -14.9858 C   0  0  0  0  0  0  0  0  0  0  0  0
   25.1994  -13.6764  -15.1958 S   0  0  0  0  0  0  0  0  0  0  0  0
   23.5017  -13.7110  -15.8199 C   0  0  0  0  0  0  0  0  0  0  0  0
   22.9698  -12.3073  -16.0544 C   0  0  0  0  0  0  0  0  0  0  0  0
   21.6470  -12.4451  -16.7725 C   0  0  2  0  0  0  0  0  0  0  0  0
   21.9052  -12.9748  -18.0949 N   0  0  0  0  0  0  0  0  0  0  0  0
   20.9274  -11.1785  -16.8925 C   0  0  0  0  0  0  0  0  0  0  0  0
   21.2844  -10.3374  -17.7534 O   0  0  0  0  0  0  0  0  0  0  0  0
   19.8138  -10.8099  -16.0816 N   0  0  0  0  0  0  0  0  0  0  0  0
   19.2395   -9.4683  -16.1425 C   0  0  1  0  0  0  0  0  0  0  0  0
   17.7678   -9.6268  -15.8988 C   0  0  0  0  0  0  0  0  0  0  0  0
   17.0138   -8.3255  -15.8306 C   0  0  0  0  0  0  0  0  0  0  0  0
   15.5350   -8.5244  -15.6586 C   0  0  0  0  0  0  0  0  0  0  0  0
   14.8092   -7.2178  -15.4188 C   0  0  0  0  0  0  0  0  0  0  0  0
   13.4179   -7.4091  -15.1292 N   0  0  0  0  0  0  0  0  0  0  0  0
   19.8895   -8.5657  -15.1653 C   0  0  0  0  0  0  0  0  0  0  0  0
   20.0805   -8.9376  -13.9820 O   0  0  0  0  0  0  0  0  0  0  0  0
   20.3215   -7.2566  -15.5134 N   0  0  0  0  0  0  0  0  0  0  0  0
   20.9472   -6.3770  -14.5446 C   0  0  1  0  0  0  0  0  0  0  0  0
   22.4068   -6.1390  -14.8625 C   0  0  0  0  0  0  0  0  0  0  0  0
   23.0614   -4.8995  -13.7434 S   0  0  0  0  0  0  0  0  0  0  0  0
   20.2736   -5.0433  -14.5999 C   0  0  0  0  0  0  0  0  0  0  0  0
   20.4532   -4.1871  -13.6896 O   0  0  0  0  0  0  0  0  0  0  0  0
   19.4379   -4.7102  -15.6452 O   0  0  0  0  0  0  0  0  0  0  0  0
  1  2  1  0
  2  3  1  0
  4  3  1  0
  5  4  1  0
  5  6  1  6
  7  8  2  0
  7  5  1  0
  9  7  1  0
 10  9  1  0
 10 11  1  1
 12 13  1  0
 12 11  1  0
 13 14  1  0
 14 15  1  0
 16 17  2  0
 16 10  1  0
 18 16  1  0
 19 18  1  0
 19 20  1  6
 20 21  1  0
 22 19  1  0
 23 22  2  0
 24 22  1  0
M  END
$$$$
