MKC.pdb
     RDKit          3D

 24 23  0  0  1  0  0  0  0  0999 V2000
   22.2472   -6.1080  -12.6004 C   0  0  0  0  0  0  0  0  0  0  0  0
   21.9629   -7.7545  -11.9486 S   0  0  0  0  0  0  0  0  0  0  0  0
   20.4863   -8.4578  -12.7217 C   0  0  0  0  0  0  0  0  0  0  0  0
   19.2583   -7.6073  -12.4445 C   0  0  0  0  0  0  0  0  0  0  0  0
   18.1766   -8.5354  -11.9414 C   0  0  2  0  0  0  0  0  0  0  0  0
   17.8075   -9.4250  -13.0222 N   0  0  0  0  0  0  0  0  0  0  0  0
   16.9874   -7.8260  -11.4733 C   0  0  0  0  0  0  0  0  0  0  0  0
   16.1683   -7.3648  -12.3055 O   0  0  0  0  0  0  0  0  0  0  0  0
   16.6730   -7.6089  -10.0994 N   0  0  0  0  0  0  0  0  0  0  0  0
   15.5407   -6.7768   -9.7005 C   0  0  1  0  0  0  0  0  0  0  0  0
   14.7010   -7.6166   -8.7839 C   0  0  0  0  0  0  0  0  0  0  0  0
   13.9355   -8.7088   -9.4822 C   0  0  0  0  0  0  0  0  0  0  0  0
   13.0834   -9.5091   -8.5391 C   0  0  0  0  0  0  0  0  0  0  0  0
   12.4133  -10.6776   -9.2298 C   0  0  0  0  0  0  0  0  0  0  0  0
   11.5870  -11.4397   -8.3395 N   0  0  0  0  0  0  0  0  0  0  0  0
   16.0003   -5.5197   -9.0677 C   0  0  0  0  0  0  0  0  0  0  0  0
   16.8876   -5.5390   -8.1803 O   0  0  0  0  0  0  0  0  0  0  0  0
   15.4684   -4.2512   -9.4279 N   0  0  0  0  0  0  0  0  0  0  0  0
   15.9862   -3.0191   -8.8646 C   0  0  1  0  0  0  0  0  0  0  0  0
   15.9225   -1.8781   -9.8557 C   0  0  0  0  0  0  0  0  0  0  0  0
   16.7752   -2.3533  -11.3605 S   0  0  0  0  0  0  0  0  0  0  0  0
   15.1324   -2.6252   -7.7021 C   0  0  0  0  0  0  0  0  0  0  0  0
   14.0707   -3.2536   -7.4340 O   0  0  0  0  0  0  0  0  0  0  0  0
   15.4793   -1.5656   -6.8902 O   0  0  0  0  0  0  0  0  0  0  0  0
  1  2  1  0
  2  3  1  0
  4  3  1  0
  5  4  1  0
  5  6  1  6
  7  8  2  0
  7  5  1  0
  9  7  1  0
 10  9  1  0
 10 11  1  1
 12 13  1  0
 12 11  1  0
 13 14  1  0
 14 15  1  0
 16 17  2  0
 16 10  1  0
 18 16  1  0
 19 18  1  0
 19 20  1  6
 20 21  1  0
 22 19  1  0
 23 22  2  0
 24 22  1  0
M  END
$$$$
