MKC.pdb
     RDKit          3D

 24 23  0  0  1  0  0  0  0  0999 V2000
   18.8297  -16.3417  -14.5640 C   0  0  0  0  0  0  0  0  0  0  0  0
   19.3592  -17.6343  -15.6889 S   0  0  0  0  0  0  0  0  0  0  0  0
   20.5332  -16.9466  -16.8812 C   0  0  0  0  0  0  0  0  0  0  0  0
   20.9786  -15.5514  -16.4773 C   0  0  0  0  0  0  0  0  0  0  0  0
   21.8678  -15.0291  -17.5822 C   0  0  2  0  0  0  0  0  0  0  0  0
   23.1098  -15.7724  -17.5504 N   0  0  0  0  0  0  0  0  0  0  0  0
   22.1567  -13.6017  -17.4565 C   0  0  0  0  0  0  0  0  0  0  0  0
   23.2771  -13.2272  -17.0315 O   0  0  0  0  0  0  0  0  0  0  0  0
   21.2354  -12.5656  -17.7897 N   0  0  0  0  0  0  0  0  0  0  0  0
   21.6290  -11.1593  -17.7595 C   0  0  1  0  0  0  0  0  0  0  0  0
   21.2407  -10.5829  -19.0890 C   0  0  0  0  0  0  0  0  0  0  0  0
   21.5824   -9.1254  -19.2490 C   0  0  0  0  0  0  0  0  0  0  0  0
   21.1341   -8.5699  -20.5704 C   0  0  0  0  0  0  0  0  0  0  0  0
   21.5434   -7.1233  -20.7479 C   0  0  0  0  0  0  0  0  0  0  0  0
   21.0539   -6.5618  -21.9733 N   0  0  0  0  0  0  0  0  0  0  0  0
   20.9977  -10.4537  -16.6213 C   0  0  0  0  0  0  0  0  0  0  0  0
   19.8020  -10.6799  -16.3141 O   0  0  0  0  0  0  0  0  0  0  0  0
   21.7024   -9.5021  -15.8343 N   0  0  0  0  0  0  0  0  0  0  0  0
   21.0757   -8.8223  -14.7168 C   0  0  1  0  0  0  0  0  0  0  0  0
   22.0664   -8.5248  -13.6131 C   0  0  0  0  0  0  0  0  0  0  0  0
   22.4440  -10.0412  -12.7326 S   0  0  0  0  0  0  0  0  0  0  0  0
   20.5509   -7.5041  -15.1884 C   0  0  0  0  0  0  0  0  0  0  0  0
   20.8385   -7.0640  -16.3363 O   0  0  0  0  0  0  0  0  0  0  0  0
   19.7387   -6.7319  -14.3846 O   0  0  0  0  0  0  0  0  0  0  0  0
  1  2  1  0
  2  3  1  0
  4  3  1  0
  5  4  1  0
  5  6  1  1
  7  8  2  0
  7  5  1  0
  9  7  1  0
 10  9  1  0
 10 11  1  6
 12 13  1  0
 12 11  1  0
 13 14  1  0
 14 15  1  0
 16 17  2  0
 16 10  1  0
 18 16  1  0
 19 18  1  0
 19 20  1  1
 20 21  1  0
 22 19  1  0
 23 22  2  0
 24 22  1  0
M  END
$$$$
