MKC.pdb
     RDKit          3D

 24 23  0  0  1  0  0  0  0  0999 V2000
   27.2385  -20.1669   -8.1600 C   0  0  0  0  0  0  0  0  0  0  0  0
   28.4983  -20.9110   -9.1973 S   0  0  0  0  0  0  0  0  0  0  0  0
   27.7492  -21.4561  -10.7512 C   0  0  0  0  0  0  0  0  0  0  0  0
   26.5107  -20.6415  -11.0840 C   0  0  0  0  0  0  0  0  0  0  0  0
   25.9185  -21.2248  -12.3463 C   0  0  2  0  0  0  0  0  0  0  0  0
   26.9907  -21.4178  -13.2998 N   0  0  0  0  0  0  0  0  0  0  0  0
   24.8910  -20.3727  -12.9421 C   0  0  0  0  0  0  0  0  0  0  0  0
   23.9010  -20.0174  -12.2568 O   0  0  0  0  0  0  0  0  0  0  0  0
   24.9253  -19.8967  -14.2858 N   0  0  0  0  0  0  0  0  0  0  0  0
   23.8289  -19.1075  -14.8413 C   0  0  1  0  0  0  0  0  0  0  0  0
   24.3086  -18.5904  -16.1654 C   0  0  0  0  0  0  0  0  0  0  0  0
   25.3426  -17.5011  -16.0602 C   0  0  0  0  0  0  0  0  0  0  0  0
   25.8361  -17.0433  -17.4028 C   0  0  0  0  0  0  0  0  0  0  0  0
   26.8540  -15.9289  -17.2852 C   0  0  0  0  0  0  0  0  0  0  0  0
   27.3840  -15.5344  -18.5579 N   0  0  0  0  0  0  0  0  0  0  0  0
   22.5940  -19.9163  -14.9540 C   0  0  0  0  0  0  0  0  0  0  0  0
   22.6562  -21.1450  -15.2024 O   0  0  0  0  0  0  0  0  0  0  0  0
   21.2998  -19.3510  -14.7892 N   0  0  0  0  0  0  0  0  0  0  0  0
   20.1116  -20.1780  -14.7009 C   0  0  1  0  0  0  0  0  0  0  0  0
   20.0297  -20.9038  -13.3763 C   0  0  0  0  0  0  0  0  0  0  0  0
   18.3817  -21.5827  -13.1747 S   0  0  0  0  0  0  0  0  0  0  0  0
   18.9056  -19.2981  -14.7828 C   0  0  0  0  0  0  0  0  0  0  0  0
   18.9606  -18.0869  -14.4306 O   0  0  0  0  0  0  0  0  0  0  0  0
   17.7000  -19.7832  -15.2447 O   0  0  0  0  0  0  0  0  0  0  0  0
  1  2  1  0
  2  3  1  0
  4  3  1  0
  5  4  1  0
  5  6  1  6
  7  8  2  0
  7  5  1  0
  9  7  1  0
 10  9  1  0
 10 11  1  6
 12 13  1  0
 12 11  1  0
 13 14  1  0
 14 15  1  0
 16 17  2  0
 16 10  1  0
 18 16  1  0
 19 18  1  0
 19 20  1  1
 20 21  1  0
 22 19  1  0
 23 22  2  0
 24 22  1  0
M  END
$$$$
