MKC.pdb
     RDKit          3D

 24 23  0  0  1  0  0  0  0  0999 V2000
   16.3055  -16.4016  -15.6715 C   0  0  0  0  0  0  0  0  0  0  0  0
   17.8001  -15.4803  -15.3057 S   0  0  0  0  0  0  0  0  0  0  0  0
   17.6109  -13.7774  -15.8862 C   0  0  0  0  0  0  0  0  0  0  0  0
   18.8509  -12.9509  -15.5901 C   0  0  0  0  0  0  0  0  0  0  0  0
   18.6446  -11.5938  -16.2225 C   0  0  2  0  0  0  0  0  0  0  0  0
   18.3076  -11.7927  -17.6164 N   0  0  0  0  0  0  0  0  0  0  0  0
   19.8236  -10.7348  -16.1292 C   0  0  0  0  0  0  0  0  0  0  0  0
   20.2865  -10.4312  -15.0025 O   0  0  0  0  0  0  0  0  0  0  0  0
   20.5131  -10.1958  -17.2551 N   0  0  0  0  0  0  0  0  0  0  0  0
   21.5763   -9.2073  -17.0940 C   0  0  1  0  0  0  0  0  0  0  0  0
   22.2688   -9.1109  -18.4213 C   0  0  0  0  0  0  0  0  0  0  0  0
   23.4149   -8.1349  -18.4456 C   0  0  0  0  0  0  0  0  0  0  0  0
   24.0589   -8.0357  -19.7989 C   0  0  0  0  0  0  0  0  0  0  0  0
   25.2078   -7.0500  -19.8115 C   0  0  0  0  0  0  0  0  0  0  0  0
   25.8092   -6.9262  -21.1073 N   0  0  0  0  0  0  0  0  0  0  0  0
   21.0318   -7.9094  -16.6347 C   0  0  0  0  0  0  0  0  0  0  0  0
   20.0560   -7.3827  -17.2225 O   0  0  0  0  0  0  0  0  0  0  0  0
   21.5780   -7.2083  -15.5248 N   0  0  0  0  0  0  0  0  0  0  0  0
   21.0849   -5.9028  -15.1296 C   0  0  1  0  0  0  0  0  0  0  0  0
   20.4521   -5.9337  -13.7560 C   0  0  0  0  0  0  0  0  0  0  0  0
   20.0277   -4.2623  -13.2624 S   0  0  0  0  0  0  0  0  0  0  0  0
   22.2397   -4.9565  -15.0482 C   0  0  0  0  0  0  0  0  0  0  0  0
   23.4205   -5.3833  -14.9155 O   0  0  0  0  0  0  0  0  0  0  0  0
   22.0489   -3.5923  -15.1156 O   0  0  0  0  0  0  0  0  0  0  0  0
  1  2  1  0
  2  3  1  0
  4  3  1  0
  5  4  1  0
  5  6  1  6
  7  8  2  0
  7  5  1  0
  9  7  1  0
 10  9  1  0
 10 11  1  6
 12 13  1  0
 12 11  1  0
 13 14  1  0
 14 15  1  0
 16 17  2  0
 16 10  1  0
 18 16  1  0
 19 18  1  0
 19 20  1  1
 20 21  1  0
 22 19  1  0
 23 22  2  0
 24 22  1  0
M  END
$$$$
