MKC.pdb
     RDKit          3D

 24 23  0  0  1  0  0  0  0  0999 V2000
   28.4599  -21.2897   -4.3609 C   0  0  0  0  0  0  0  0  0  0  0  0
   28.7268  -19.6200   -4.9589 S   0  0  0  0  0  0  0  0  0  0  0  0
   27.4007  -19.1759   -6.1064 C   0  0  0  0  0  0  0  0  0  0  0  0
   27.0063  -20.3551   -6.9793 C   0  0  0  0  0  0  0  0  0  0  0  0
   26.9584  -19.8585   -8.4060 C   0  0  2  0  0  0  0  0  0  0  0  0
   26.5399  -18.4728   -8.3869 N   0  0  0  0  0  0  0  0  0  0  0  0
   26.0436  -20.6270   -9.2481 C   0  0  0  0  0  0  0  0  0  0  0  0
   26.2094  -21.8643   -9.3817 O   0  0  0  0  0  0  0  0  0  0  0  0
   24.9402  -20.0636   -9.9540 N   0  0  0  0  0  0  0  0  0  0  0  0
   24.3249  -20.7575  -11.0825 C   0  0  1  0  0  0  0  0  0  0  0  0
   22.8618  -20.4296  -11.0338 C   0  0  0  0  0  0  0  0  0  0  0  0
   22.0656  -21.0075  -12.1734 C   0  0  0  0  0  0  0  0  0  0  0  0
   20.5958  -20.7227  -12.0524 C   0  0  0  0  0  0  0  0  0  0  0  0
   19.8063  -21.3069  -13.2044 C   0  0  0  0  0  0  0  0  0  0  0  0
   19.6200  -22.7231  -13.0785 N   0  0  0  0  0  0  0  0  0  0  0  0
   24.9596  -20.3630  -12.3606 C   0  0  0  0  0  0  0  0  0  0  0  0
   25.1027  -19.1514  -12.6549 O   0  0  0  0  0  0  0  0  0  0  0  0
   25.4299  -21.3205  -13.3006 N   0  0  0  0  0  0  0  0  0  0  0  0
   26.0856  -20.9226  -14.5316 C   0  0  1  0  0  0  0  0  0  0  0  0
   27.2837  -21.7941  -14.8369 C   0  0  0  0  0  0  0  0  0  0  0  0
   28.5692  -21.4776  -13.6267 S   0  0  0  0  0  0  0  0  0  0  0  0
   25.1275  -21.0985  -15.6659 C   0  0  0  0  0  0  0  0  0  0  0  0
   23.9868  -21.6065  -15.4792 O   0  0  0  0  0  0  0  0  0  0  0  0
   25.4614  -20.7118  -16.9470 O   0  0  0  0  0  0  0  0  0  0  0  0
  1  2  1  0
  2  3  1  0
  4  3  1  0
  5  4  1  0
  5  6  1  1
  7  8  2  0
  7  5  1  0
  9  7  1  0
 10  9  1  0
 10 11  1  6
 12 13  1  0
 12 11  1  0
 13 14  1  0
 14 15  1  0
 16 17  2  0
 16 10  1  0
 18 16  1  0
 19 18  1  0
 19 20  1  6
 20 21  1  0
 22 19  1  0
 23 22  2  0
 24 22  1  0
M  END
$$$$
