MKC.pdb
     RDKit          3D

 24 23  0  0  1  0  0  0  0  0999 V2000
   22.9268  -16.7627  -21.4925 C   0  0  0  0  0  0  0  0  0  0  0  0
   23.9436  -15.7993  -20.3725 S   0  0  0  0  0  0  0  0  0  0  0  0
   25.2549  -16.8492  -19.7012 C   0  0  0  0  0  0  0  0  0  0  0  0
   24.6885  -18.1206  -19.0921 C   0  0  0  0  0  0  0  0  0  0  0  0
   24.1085  -17.7511  -17.7462 C   0  0  2  0  0  0  0  0  0  0  0  0
   25.1492  -17.1151  -16.9663 N   0  0  0  0  0  0  0  0  0  0  0  0
   23.5912  -18.9038  -17.0111 C   0  0  0  0  0  0  0  0  0  0  0  0
   22.6963  -19.6198  -17.5235 O   0  0  0  0  0  0  0  0  0  0  0  0
   24.0377  -19.2927  -15.7139 N   0  0  0  0  0  0  0  0  0  0  0  0
   23.4502  -20.4347  -15.0180 C   0  0  1  0  0  0  0  0  0  0  0  0
   24.5663  -21.0846  -14.2548 C   0  0  0  0  0  0  0  0  0  0  0  0
   25.4224  -22.0041  -15.0845 C   0  0  0  0  0  0  0  0  0  0  0  0
   24.9151  -23.4178  -15.0874 C   0  0  0  0  0  0  0  0  0  0  0  0
   25.8033  -24.3395  -15.8955 C   0  0  0  0  0  0  0  0  0  0  0  0
   25.4106  -25.7142  -15.7854 N   0  0  0  0  0  0  0  0  0  0  0  0
   22.3306  -20.0096  -14.1474 C   0  0  0  0  0  0  0  0  0  0  0  0
   22.5466  -19.6222  -12.9734 O   0  0  0  0  0  0  0  0  0  0  0  0
   20.9798  -20.0192  -14.5909 N   0  0  0  0  0  0  0  0  0  0  0  0
   19.8785  -19.7449  -13.6878 C   0  0  1  0  0  0  0  0  0  0  0  0
   18.7931  -18.9309  -14.3567 C   0  0  0  0  0  0  0  0  0  0  0  0
   19.0600  -17.1912  -14.0106 S   0  0  0  0  0  0  0  0  0  0  0  0
   19.2537  -21.0415  -13.2830 C   0  0  0  0  0  0  0  0  0  0  0  0
   18.3703  -21.0830  -12.3819 O   0  0  0  0  0  0  0  0  0  0  0  0
   19.6236  -22.2279  -13.8810 O   0  0  0  0  0  0  0  0  0  0  0  0
  1  2  1  0
  2  3  1  0
  4  3  1  0
  5  4  1  0
  5  6  1  1
  7  8  2  0
  7  5  1  0
  9  7  1  0
 10  9  1  0
 10 11  1  1
 12 13  1  0
 12 11  1  0
 13 14  1  0
 14 15  1  0
 16 17  2  0
 16 10  1  0
 18 16  1  0
 19 18  1  0
 19 20  1  6
 20 21  1  0
 22 19  1  0
 23 22  2  0
 24 22  1  0
M  END
$$$$
