NFN.pdb
     RDKit          3D

 28 28  0  0  1  0  0  0  0  0999 V2000
    7.8438  -15.3896   15.9522 N   0  0  0  0  0  0  0  0  0  0  0  0
    8.7007  -15.9860   16.9089 C   0  0  0  0  0  0  0  0  0  0  0  0
    9.0932  -17.1596   16.6977 O   0  0  0  0  0  0  0  0  0  0  0  0
    9.1610  -15.3061   18.1449 C   0  0  0  0  0  0  0  0  0  0  0  0
    8.8774  -16.2104   19.3381 C   0  0  2  0  0  0  0  0  0  0  0  0
    7.4457  -16.5137   19.2443 N   0  0  0  0  0  0  0  0  0  0  0  0
    9.1063  -15.4915   20.6149 C   0  0  0  0  0  0  0  0  0  0  0  0
   10.2237  -14.9882   20.9070 O   0  0  0  0  0  0  0  0  0  0  0  0
    8.0518  -15.3479   21.5621 N   0  0  0  0  0  0  0  0  0  0  0  0
    8.2876  -14.8375   22.9024 C   0  0  1  0  0  0  0  0  0  0  0  0
    7.1352  -13.9833   23.3726 C   0  0  0  0  0  0  0  0  0  0  0  0
    7.2599  -13.5099   24.7642 C   0  0  0  0  0  0  0  0  0  0  0  0
    8.1093  -12.4625   25.0260 C   0  0  0  0  0  0  0  0  0  0  0  0
    8.2501  -11.9955   26.3117 C   0  0  0  0  0  0  0  0  0  0  0  0
    7.5275  -12.5904   27.3435 C   0  0  0  0  0  0  0  0  0  0  0  0
    6.6729  -13.6405   27.0973 C   0  0  0  0  0  0  0  0  0  0  0  0
    6.5351  -14.1043   25.8098 C   0  0  0  0  0  0  0  0  0  0  0  0
    8.6494  -15.9303   23.8352 C   0  0  0  0  0  0  0  0  0  0  0  0
    7.8924  -16.9216   23.9356 O   0  0  0  0  0  0  0  0  0  0  0  0
   11.7125  -19.5984   25.9937 N   0  0  0  0  0  0  0  0  0  0  0  0
   12.3965  -18.3474   25.8425 C   0  0  0  0  0  0  0  0  0  0  0  0
   13.5174  -18.2077   26.3849 O   0  0  0  0  0  0  0  0  0  0  0  0
   11.8220  -17.2304   25.0730 C   0  0  0  0  0  0  0  0  0  0  0  0
   10.3678  -17.1031   25.3082 C   0  0  2  0  0  0  0  0  0  0  0  0
    9.8067  -15.9306   24.6301 N   0  0  0  0  0  0  0  0  0  0  0  0
   10.1449  -16.8443   26.7786 C   0  0  0  0  0  0  0  0  0  0  0  0
    9.9493  -17.8584   27.6766 O   0  0  0  0  0  0  0  0  0  0  0  0
   10.1337  -15.6590   27.2225 O   0  0  0  0  0  0  0  0  0  0  0  0
  2  1  1  0
  2  3  2  0
  4  5  1  0
  4  2  1  0
  5  7  1  0
  5  6  1  1
  7  8  2  0
  9  7  1  0
  9 10  1  0
 11 12  1  0
 10 11  1  1
 12 17  2  0
 13 14  2  0
 13 12  1  0
 14 15  1  0
 15 16  2  0
 17 16  1  0
 18 10  1  0
 18 19  2  0
 20 21  1  0
 21 23  1  0
 21 22  2  0
 24 23  1  1
 24 25  1  0
 24 26  1  0
 25 18  1  0
 26 27  1  0
 28 26  2  0
M  END
$$$$
