NFN.pdb
     RDKit          3D

 28 28  0  0  1  0  0  0  0  0999 V2000
   10.3935  -17.3878   16.6845 N   0  0  0  0  0  0  0  0  0  0  0  0
   10.3263  -17.8424   18.0239 C   0  0  0  0  0  0  0  0  0  0  0  0
   10.0795  -19.0572   18.2220 O   0  0  0  0  0  0  0  0  0  0  0  0
   10.5298  -16.9680   19.2054 C   0  0  0  0  0  0  0  0  0  0  0  0
    9.4741  -17.3024   20.2521 C   0  0  2  0  0  0  0  0  0  0  0  0
    8.1941  -17.0216   19.5938 N   0  0  0  0  0  0  0  0  0  0  0  0
    9.5875  -16.4034   21.4261 C   0  0  0  0  0  0  0  0  0  0  0  0
   10.7019  -16.0973   21.9278 O   0  0  0  0  0  0  0  0  0  0  0  0
    8.4203  -15.8521   22.0291 N   0  0  0  0  0  0  0  0  0  0  0  0
    8.4738  -15.1373   23.2934 C   0  0  1  0  0  0  0  0  0  0  0  0
    7.2743  -14.2365   23.4632 C   0  0  0  0  0  0  0  0  0  0  0  0
    7.2497  -13.4935   24.7374 C   0  0  0  0  0  0  0  0  0  0  0  0
    6.4059  -13.9260   25.7314 C   0  0  0  0  0  0  0  0  0  0  0  0
    6.3571  -13.2571   26.9320 C   0  0  0  0  0  0  0  0  0  0  0  0
    7.1669  -12.1414   27.1322 C   0  0  0  0  0  0  0  0  0  0  0  0
    8.0171  -11.6959   26.1462 C   0  0  0  0  0  0  0  0  0  0  0  0
    8.0627  -12.3679   24.9470 C   0  0  0  0  0  0  0  0  0  0  0  0
    8.6956  -16.0674   24.4252 C   0  0  0  0  0  0  0  0  0  0  0  0
    7.9199  -17.0374   24.5778 O   0  0  0  0  0  0  0  0  0  0  0  0
   12.5342  -19.5168   26.2947 N   0  0  0  0  0  0  0  0  0  0  0  0
   12.4045  -18.1629   26.7484 C   0  0  0  0  0  0  0  0  0  0  0  0
   12.8223  -17.8718   27.8933 O   0  0  0  0  0  0  0  0  0  0  0  0
   11.7983  -17.1129   25.9119 C   0  0  0  0  0  0  0  0  0  0  0  0
   10.3367  -17.0316   26.1207 C   0  0  2  0  0  0  0  0  0  0  0  0
    9.7374  -15.9333   25.3567 N   0  0  0  0  0  0  0  0  0  0  0  0
   10.0818  -16.6825   27.5671 C   0  0  0  0  0  0  0  0  0  0  0  0
   10.0317  -15.3878   28.0074 O   0  0  0  0  0  0  0  0  0  0  0  0
    9.9053  -17.5989   28.4222 O   0  0  0  0  0  0  0  0  0  0  0  0
  2  1  1  0
  2  3  2  0
  4  5  1  0
  4  2  1  0
  5  7  1  0
  5  6  1  6
  7  8  2  0
  9  7  1  0
  9 10  1  0
 11 12  1  0
 10 11  1  1
 12 17  2  0
 13 14  2  0
 13 12  1  0
 14 15  1  0
 15 16  2  0
 17 16  1  0
 18 10  1  0
 18 19  2  0
 20 21  1  0
 21 23  1  0
 21 22  2  0
 24 23  1  1
 24 25  1  0
 24 26  1  0
 25 18  1  0
 26 27  1  0
 28 26  2  0
M  END
$$$$
