NFN.pdb
     RDKit          3D

 28 28  0  0  1  0  0  0  0  0999 V2000
    9.0525  -16.5160   16.1978 N   0  0  0  0  0  0  0  0  0  0  0  0
    9.7966  -16.9710   17.3133 C   0  0  0  0  0  0  0  0  0  0  0  0
   10.2736  -18.1314   17.2697 O   0  0  0  0  0  0  0  0  0  0  0  0
   10.0450  -16.1578   18.5294 C   0  0  0  0  0  0  0  0  0  0  0  0
    9.4645  -16.8865   19.7352 C   0  0  2  0  0  0  0  0  0  0  0  0
    8.0412  -17.0506   19.4221 N   0  0  0  0  0  0  0  0  0  0  0  0
    9.5671  -16.0542   20.9582 C   0  0  0  0  0  0  0  0  0  0  0  0
   10.6714  -15.6153   21.3767 O   0  0  0  0  0  0  0  0  0  0  0  0
    8.4008  -15.7223   21.7062 N   0  0  0  0  0  0  0  0  0  0  0  0
    8.4796  -15.0697   23.0024 C   0  0  1  0  0  0  0  0  0  0  0  0
    7.2420  -14.2505   23.2781 C   0  0  0  0  0  0  0  0  0  0  0  0
    7.2254  -13.6048   24.6044 C   0  0  0  0  0  0  0  0  0  0  0  0
    7.9549  -12.4544   24.7818 C   0  0  0  0  0  0  0  0  0  0  0  0
    7.9623  -11.8261   26.0050 C   0  0  0  0  0  0  0  0  0  0  0  0
    7.2271  -12.3629   27.0595 C   0  0  0  0  0  0  0  0  0  0  0  0
    6.4916  -13.5146   26.8975 C   0  0  0  0  0  0  0  0  0  0  0  0
    6.4870  -14.1397   25.6723 C   0  0  0  0  0  0  0  0  0  0  0  0
    8.8117  -16.0406   24.0712 C   0  0  0  0  0  0  0  0  0  0  0  0
    8.0865  -17.0486   24.2257 O   0  0  0  0  0  0  0  0  0  0  0  0
   12.8908  -19.2045   26.1086 N   0  0  0  0  0  0  0  0  0  0  0  0
   12.5950  -17.8980   26.6196 C   0  0  0  0  0  0  0  0  0  0  0  0
   12.8602  -17.6492   27.8188 O   0  0  0  0  0  0  0  0  0  0  0  0
   11.9925  -16.8482   25.7801 C   0  0  0  0  0  0  0  0  0  0  0  0
   10.5235  -16.9961   25.7005 C   0  0  2  0  0  0  0  0  0  0  0  0
    9.9064  -15.9054   24.9398 N   0  0  0  0  0  0  0  0  0  0  0  0
    9.9565  -16.8668   27.0936 C   0  0  0  0  0  0  0  0  0  0  0  0
    9.8280  -15.6567   27.7197 O   0  0  0  0  0  0  0  0  0  0  0  0
    9.5797  -17.8963   27.7263 O   0  0  0  0  0  0  0  0  0  0  0  0
  2  1  1  0
  2  3  2  0
  4  5  1  0
  4  2  1  0
  5  7  1  0
  5  6  1  6
  7  8  2  0
  9  7  1  0
  9 10  1  0
 11 12  1  0
 10 11  1  1
 12 17  2  0
 13 14  2  0
 13 12  1  0
 14 15  1  0
 15 16  2  0
 17 16  1  0
 18 10  1  0
 18 19  2  0
 20 21  1  0
 21 23  1  0
 21 22  2  0
 24 23  1  1
 24 25  1  0
 24 26  1  0
 25 18  1  0
 26 27  1  0
 28 26  2  0
M  END
$$$$
