NFN.pdb
     RDKit          3D

 28 28  0  0  1  0  0  0  0  0999 V2000
   10.1490  -18.3903   18.3332 N   0  0  0  0  0  0  0  0  0  0  0  0
   11.2769  -17.6039   18.6720 C   0  0  0  0  0  0  0  0  0  0  0  0
   12.1994  -17.5020   17.8266 O   0  0  0  0  0  0  0  0  0  0  0  0
   11.4323  -16.8946   19.9660 C   0  0  0  0  0  0  0  0  0  0  0  0
   10.2925  -17.3038   20.8909 C   0  0  2  0  0  0  0  0  0  0  0  0
    9.0774  -17.1134   20.0923 N   0  0  0  0  0  0  0  0  0  0  0  0
   10.2108  -16.4004   22.0641 C   0  0  0  0  0  0  0  0  0  0  0  0
   11.2225  -16.1132   22.7578 O   0  0  0  0  0  0  0  0  0  0  0  0
    8.9655  -15.8227   22.4455 N   0  0  0  0  0  0  0  0  0  0  0  0
    8.7859  -15.1626   23.7279 C   0  0  1  0  0  0  0  0  0  0  0  0
    7.6080  -14.2189   23.6966 C   0  0  0  0  0  0  0  0  0  0  0  0
    7.3462  -13.5336   24.9764 C   0  0  0  0  0  0  0  0  0  0  0  0
    8.0960  -12.4266   25.2919 C   0  0  0  0  0  0  0  0  0  0  0  0
    7.8788  -11.7632   26.4768 C   0  0  0  0  0  0  0  0  0  0  0  0
    6.8962  -12.2205   27.3520 C   0  0  0  0  0  0  0  0  0  0  0  0
    6.1371  -13.3278   27.0503 C   0  0  0  0  0  0  0  0  0  0  0  0
    6.3576  -13.9883   25.8641 C   0  0  0  0  0  0  0  0  0  0  0  0
    8.7423  -16.1464   24.8349 C   0  0  0  0  0  0  0  0  0  0  0  0
    7.9352  -17.1005   24.7708 O   0  0  0  0  0  0  0  0  0  0  0  0
   11.0199  -19.4395   28.1216 N   0  0  0  0  0  0  0  0  0  0  0  0
   11.6294  -19.0699   26.8776 C   0  0  0  0  0  0  0  0  0  0  0  0
   12.5656  -19.7758   26.4357 O   0  0  0  0  0  0  0  0  0  0  0  0
   11.1886  -17.8920   26.1107 C   0  0  0  0  0  0  0  0  0  0  0  0
   10.0275  -17.2350   26.7482 C   0  0  2  0  0  0  0  0  0  0  0  0
    9.5610  -16.0811   25.9735 N   0  0  0  0  0  0  0  0  0  0  0  0
   10.4738  -16.6596   28.0706 C   0  0  0  0  0  0  0  0  0  0  0  0
   10.7491  -17.4489   29.1542 O   0  0  0  0  0  0  0  0  0  0  0  0
   10.6057  -15.4084   28.2090 O   0  0  0  0  0  0  0  0  0  0  0  0
  2  1  1  0
  2  3  2  0
  4  5  1  0
  4  2  1  0
  5  7  1  0
  5  6  1  6
  7  8  2  0
  9  7  1  0
  9 10  1  0
 11 12  1  0
 10 11  1  6
 12 17  2  0
 13 14  2  0
 13 12  1  0
 14 15  1  0
 15 16  2  0
 17 16  1  0
 18 10  1  0
 18 19  2  0
 20 21  1  0
 21 23  1  0
 21 22  2  0
 24 23  1  6
 24 25  1  0
 24 26  1  0
 25 18  1  0
 26 27  1  0
 28 26  2  0
M  END
$$$$
