NFN.pdb
     RDKit          3D

 28 28  0  0  1  0  0  0  0  0999 V2000
   10.3505  -17.1410   17.6524 N   0  0  0  0  0  0  0  0  0  0  0  0
   10.8472  -17.5349   18.9187 C   0  0  0  0  0  0  0  0  0  0  0  0
   11.1545  -18.7411   19.0818 O   0  0  0  0  0  0  0  0  0  0  0  0
   11.0251  -16.6067   20.0626 C   0  0  0  0  0  0  0  0  0  0  0  0
   10.2475  -17.1445   21.2576 C   0  0  2  0  0  0  0  0  0  0  0  0
    8.9061  -17.4238   20.7347 N   0  0  0  0  0  0  0  0  0  0  0  0
   10.1168  -16.1118   22.3139 C   0  0  0  0  0  0  0  0  0  0  0  0
   11.1212  -15.5501   22.8267 O   0  0  0  0  0  0  0  0  0  0  0  0
    8.8309  -15.7200   22.7859 N   0  0  0  0  0  0  0  0  0  0  0  0
    8.6685  -14.8414   23.9322 C   0  0  1  0  0  0  0  0  0  0  0  0
    7.3239  -14.1558   23.9092 C   0  0  0  0  0  0  0  0  0  0  0  0
    7.0887  -13.2441   25.0450 C   0  0  0  0  0  0  0  0  0  0  0  0
    6.1657  -13.6068   25.9956 C   0  0  0  0  0  0  0  0  0  0  0  0
    5.9212  -12.7811   27.0677 C   0  0  0  0  0  0  0  0  0  0  0  0
    6.6140  -11.5779   27.1824 C   0  0  0  0  0  0  0  0  0  0  0  0
    7.5414  -11.2006   26.2384 C   0  0  0  0  0  0  0  0  0  0  0  0
    7.7828  -12.0297   25.1677 C   0  0  0  0  0  0  0  0  0  0  0  0
    8.9619  -15.5534   25.1981 C   0  0  0  0  0  0  0  0  0  0  0  0
    9.0097  -14.9030   26.2661 O   0  0  0  0  0  0  0  0  0  0  0  0
    9.8975  -19.2705   28.7553 N   0  0  0  0  0  0  0  0  0  0  0  0
    9.1019  -19.8035   27.6882 C   0  0  0  0  0  0  0  0  0  0  0  0
    8.6687  -20.9748   27.7909 O   0  0  0  0  0  0  0  0  0  0  0  0
    8.7824  -19.0180   26.4838 C   0  0  0  0  0  0  0  0  0  0  0  0
    9.4136  -17.6815   26.5265 C   0  0  2  0  0  0  0  0  0  0  0  0
    9.1942  -16.9353   25.2838 N   0  0  0  0  0  0  0  0  0  0  0  0
   10.9097  -17.8647   26.6100 C   0  0  0  0  0  0  0  0  0  0  0  0
   11.6661  -18.1976   25.5192 O   0  0  0  0  0  0  0  0  0  0  0  0
   11.5098  -17.7114   27.7139 O   0  0  0  0  0  0  0  0  0  0  0  0
  2  1  1  0
  2  3  2  0
  4  5  1  0
  4  2  1  0
  5  7  1  0
  5  6  1  6
  7  8  2  0
  9  7  1  0
  9 10  1  0
 11 12  1  0
 10 11  1  1
 12 17  2  0
 13 14  2  0
 13 12  1  0
 14 15  1  0
 15 16  2  0
 17 16  1  0
 18 10  1  0
 18 19  2  0
 20 21  1  0
 21 23  1  0
 21 22  2  0
 24 23  1  6
 24 25  1  0
 24 26  1  0
 25 18  1  0
 26 27  1  0
 28 26  2  0
M  END
$$$$
