NFN.pdb
     RDKit          3D

 28 28  0  0  1  0  0  0  0  0999 V2000
    8.6929  -17.3400   17.2355 N   0  0  0  0  0  0  0  0  0  0  0  0
    9.7166  -17.3055   18.2132 C   0  0  0  0  0  0  0  0  0  0  0  0
   10.5553  -18.2396   18.2213 O   0  0  0  0  0  0  0  0  0  0  0  0
    9.8559  -16.2315   19.2276 C   0  0  0  0  0  0  0  0  0  0  0  0
    9.9344  -16.8680   20.6099 C   0  0  2  0  0  0  0  0  0  0  0  0
    8.7435  -17.7194   20.6967 N   0  0  0  0  0  0  0  0  0  0  0  0
    9.8357  -15.8397   21.6739 C   0  0  0  0  0  0  0  0  0  0  0  0
   10.7469  -14.9922   21.8703 O   0  0  0  0  0  0  0  0  0  0  0  0
    8.6889  -15.7808   22.5173 N   0  0  0  0  0  0  0  0  0  0  0  0
    8.6201  -14.8833   23.6584 C   0  0  1  0  0  0  0  0  0  0  0  0
    7.2940  -14.1638   23.7088 C   0  0  0  0  0  0  0  0  0  0  0  0
    7.1092  -13.3159   24.9017 C   0  0  0  0  0  0  0  0  0  0  0  0
    7.7967  -12.1288   24.9741 C   0  0  0  0  0  0  0  0  0  0  0  0
    7.6485  -11.3136   26.0716 C   0  0  0  0  0  0  0  0  0  0  0  0
    6.7989  -11.6991   27.1062 C   0  0  0  0  0  0  0  0  0  0  0  0
    6.1036  -12.8852   27.0484 C   0  0  0  0  0  0  0  0  0  0  0  0
    6.2549  -13.6974   25.9487 C   0  0  0  0  0  0  0  0  0  0  0  0
    8.9743  -15.5857   24.9140 C   0  0  0  0  0  0  0  0  0  0  0  0
    8.0668  -15.8839   25.7223 O   0  0  0  0  0  0  0  0  0  0  0  0
   11.1703  -20.7057   25.7479 N   0  0  0  0  0  0  0  0  0  0  0  0
   10.6069  -19.5235   26.3315 C   0  0  0  0  0  0  0  0  0  0  0  0
   10.4696  -19.4764   27.5761 O   0  0  0  0  0  0  0  0  0  0  0  0
   10.1881  -18.3717   25.5144 C   0  0  0  0  0  0  0  0  0  0  0  0
   10.6499  -17.0956   26.1016 C   0  0  2  0  0  0  0  0  0  0  0  0
   10.2842  -15.9475   25.2664 N   0  0  0  0  0  0  0  0  0  0  0  0
   12.1594  -17.0984   26.1178 C   0  0  0  0  0  0  0  0  0  0  0  0
   12.8766  -17.4950   27.2137 O   0  0  0  0  0  0  0  0  0  0  0  0
   12.8082  -16.7262   25.0968 O   0  0  0  0  0  0  0  0  0  0  0  0
  2  1  1  0
  2  3  2  0
  4  5  1  0
  4  2  1  0
  5  7  1  0
  5  6  1  1
  7  8  2  0
  9  7  1  0
  9 10  1  0
 11 12  1  0
 10 11  1  1
 12 17  2  0
 13 14  2  0
 13 12  1  0
 14 15  1  0
 15 16  2  0
 17 16  1  0
 18 10  1  0
 18 19  2  0
 20 21  1  0
 21 23  1  0
 21 22  2  0
 24 23  1  6
 24 25  1  0
 24 26  1  0
 25 18  1  0
 26 27  1  0
 28 26  2  0
M  END
$$$$
