NFN.pdb
     RDKit          3D

 28 28  0  0  1  0  0  0  0  0999 V2000
    9.6889  -17.4092   17.6006 N   0  0  0  0  0  0  0  0  0  0  0  0
   10.6299  -17.4010   18.6587 C   0  0  0  0  0  0  0  0  0  0  0  0
   11.5089  -18.2972   18.6723 O   0  0  0  0  0  0  0  0  0  0  0  0
   10.6376  -16.3968   19.7511 C   0  0  0  0  0  0  0  0  0  0  0  0
   10.3936  -17.1094   21.0757 C   0  0  2  0  0  0  0  0  0  0  0  0
    9.1163  -17.8067   20.8944 N   0  0  0  0  0  0  0  0  0  0  0  0
   10.2255  -16.1339   22.1799 C   0  0  0  0  0  0  0  0  0  0  0  0
   11.1986  -15.4932   22.6592 O   0  0  0  0  0  0  0  0  0  0  0  0
    8.9377  -15.8903   22.7387 N   0  0  0  0  0  0  0  0  0  0  0  0
    8.7542  -15.0405   23.9034 C   0  0  1  0  0  0  0  0  0  0  0  0
    7.3866  -14.4014   23.9037 C   0  0  0  0  0  0  0  0  0  0  0  0
    7.1633  -13.4479   25.0070 C   0  0  0  0  0  0  0  0  0  0  0  0
    7.8714  -12.2707   25.0084 C   0  0  0  0  0  0  0  0  0  0  0  0
    7.6885  -11.3588   26.0214 C   0  0  0  0  0  0  0  0  0  0  0  0
    6.7827  -11.6366   27.0428 C   0  0  0  0  0  0  0  0  0  0  0  0
    6.0662  -12.8113   27.0554 C   0  0  0  0  0  0  0  0  0  0  0  0
    6.2523  -13.7205   26.0402 C   0  0  0  0  0  0  0  0  0  0  0  0
    9.0818  -15.7667   25.1527 C   0  0  0  0  0  0  0  0  0  0  0  0
    8.9356  -15.1859   26.2514 O   0  0  0  0  0  0  0  0  0  0  0  0
    6.4111  -19.2003   25.9761 N   0  0  0  0  0  0  0  0  0  0  0  0
    7.5794  -19.1236   26.8037 C   0  0  0  0  0  0  0  0  0  0  0  0
    7.4301  -18.9874   28.0403 O   0  0  0  0  0  0  0  0  0  0  0  0
    8.9399  -19.1997   26.2443 C   0  0  0  0  0  0  0  0  0  0  0  0
    9.6591  -17.9165   26.3947 C   0  0  2  0  0  0  0  0  0  0  0  0
    9.5540  -17.0883   25.1896 N   0  0  0  0  0  0  0  0  0  0  0  0
   11.1330  -18.2113   26.5355 C   0  0  0  0  0  0  0  0  0  0  0  0
   12.0583  -17.7499   25.6391 O   0  0  0  0  0  0  0  0  0  0  0  0
   11.5539  -18.9064   27.5060 O   0  0  0  0  0  0  0  0  0  0  0  0
  2  1  1  0
  2  3  2  0
  4  5  1  0
  4  2  1  0
  5  7  1  0
  5  6  1  6
  7  8  2  0
  9  7  1  0
  9 10  1  0
 11 12  1  0
 10 11  1  1
 12 17  2  0
 13 14  2  0
 13 12  1  0
 14 15  1  0
 15 16  2  0
 17 16  1  0
 18 10  1  0
 18 19  2  0
 20 21  1  0
 21 23  1  0
 21 22  2  0
 24 23  1  6
 24 25  1  0
 24 26  1  0
 25 18  1  0
 26 27  1  0
 28 26  2  0
M  END
$$$$
