NFN.pdb
     RDKit          3D

 28 28  0  0  1  0  0  0  0  0999 V2000
    9.6139  -17.4477   17.4451 N   0  0  0  0  0  0  0  0  0  0  0  0
   10.5418  -17.3131   18.5062 C   0  0  0  0  0  0  0  0  0  0  0  0
   11.5109  -18.1103   18.5460 O   0  0  0  0  0  0  0  0  0  0  0  0
   10.4359  -16.2867   19.5725 C   0  0  0  0  0  0  0  0  0  0  0  0
   10.3514  -16.9877   20.9229 C   0  0  2  0  0  0  0  0  0  0  0  0
    9.1029  -17.7550   20.8673 N   0  0  0  0  0  0  0  0  0  0  0  0
   10.2303  -16.0030   22.0251 C   0  0  0  0  0  0  0  0  0  0  0  0
   11.2269  -15.3758   22.4730 O   0  0  0  0  0  0  0  0  0  0  0  0
    8.9628  -15.7347   22.6179 N   0  0  0  0  0  0  0  0  0  0  0  0
    8.8181  -14.8256   23.7427 C   0  0  1  0  0  0  0  0  0  0  0  0
    7.4369  -14.2174   23.7797 C   0  0  0  0  0  0  0  0  0  0  0  0
    7.2103  -13.2960   24.9092 C   0  0  0  0  0  0  0  0  0  0  0  0
    6.3831  -13.7007   25.9286 C   0  0  0  0  0  0  0  0  0  0  0  0
    6.1494  -12.8672   26.9972 C   0  0  0  0  0  0  0  0  0  0  0  0
    6.7556  -11.6136   27.0383 C   0  0  0  0  0  0  0  0  0  0  0  0
    7.5865  -11.1939   26.0249 C   0  0  0  0  0  0  0  0  0  0  0  0
    7.8175  -12.0308   24.9580 C   0  0  0  0  0  0  0  0  0  0  0  0
    9.2268  -15.4737   25.0108 C   0  0  0  0  0  0  0  0  0  0  0  0
    9.0627  -14.8605   26.0892 O   0  0  0  0  0  0  0  0  0  0  0  0
    9.4001  -19.4013   28.8978 N   0  0  0  0  0  0  0  0  0  0  0  0
    9.8314  -19.5707   27.5410 C   0  0  0  0  0  0  0  0  0  0  0  0
   10.6654  -20.4701   27.2849 O   0  0  0  0  0  0  0  0  0  0  0  0
    9.3249  -18.7227   26.4481 C   0  0  0  0  0  0  0  0  0  0  0  0
   10.1037  -17.4715   26.3290 C   0  0  2  0  0  0  0  0  0  0  0  0
    9.7966  -16.7545   25.0877 N   0  0  0  0  0  0  0  0  0  0  0  0
   11.5659  -17.8303   26.2182 C   0  0  0  0  0  0  0  0  0  0  0  0
   12.2758  -17.6504   25.0622 O   0  0  0  0  0  0  0  0  0  0  0  0
   12.1800  -18.3156   27.2129 O   0  0  0  0  0  0  0  0  0  0  0  0
  2  1  1  0
  2  3  2  0
  4  5  1  0
  4  2  1  0
  5  7  1  0
  5  6  1  6
  7  8  2  0
  9  7  1  0
  9 10  1  0
 11 12  1  0
 10 11  1  1
 12 17  2  0
 13 14  2  0
 13 12  1  0
 14 15  1  0
 15 16  2  0
 17 16  1  0
 18 10  1  0
 18 19  2  0
 20 21  1  0
 21 23  1  0
 21 22  2  0
 24 23  1  6
 24 25  1  0
 24 26  1  0
 25 18  1  0
 26 27  1  0
 28 26  2  0
M  END
$$$$
