NFN.pdb
     RDKit          3D

 28 28  0  0  1  0  0  0  0  0999 V2000
   10.0927  -18.9740   17.9288 N   0  0  0  0  0  0  0  0  0  0  0  0
   10.3957  -17.6068   17.7187 C   0  0  0  0  0  0  0  0  0  0  0  0
   10.6596  -17.2349   16.5490 O   0  0  0  0  0  0  0  0  0  0  0  0
   10.4199  -16.5895   18.7985 C   0  0  0  0  0  0  0  0  0  0  0  0
    9.7361  -17.1658   20.0323 C   0  0  2  0  0  0  0  0  0  0  0  0
    8.3408  -17.3645   19.6269 N   0  0  0  0  0  0  0  0  0  0  0  0
    9.7496  -16.1914   21.1502 C   0  0  0  0  0  0  0  0  0  0  0  0
   10.8170  -15.6681   21.5674 O   0  0  0  0  0  0  0  0  0  0  0  0
    8.5359  -15.8139   21.7940 N   0  0  0  0  0  0  0  0  0  0  0  0
    8.5281  -15.0850   23.0514 C   0  0  1  0  0  0  0  0  0  0  0  0
    7.2515  -14.2970   23.2185 C   0  0  0  0  0  0  0  0  0  0  0  0
    7.1536  -13.5650   24.4956 C   0  0  0  0  0  0  0  0  0  0  0  0
    6.3307  -14.0649   25.4755 C   0  0  0  0  0  0  0  0  0  0  0  0
    6.2153  -13.4083   26.6782 C   0  0  0  0  0  0  0  0  0  0  0  0
    6.9366  -12.2364   26.8951 C   0  0  0  0  0  0  0  0  0  0  0  0
    7.7649  -11.7231   25.9234 C   0  0  0  0  0  0  0  0  0  0  0  0
    7.8773  -12.3831   24.7219 C   0  0  0  0  0  0  0  0  0  0  0  0
    8.8390  -15.9799   24.1907 C   0  0  0  0  0  0  0  0  0  0  0  0
    8.1562  -17.0154   24.3562 O   0  0  0  0  0  0  0  0  0  0  0  0
   11.8257  -19.1164   26.5922 N   0  0  0  0  0  0  0  0  0  0  0  0
   12.5954  -17.9574   26.2460 C   0  0  0  0  0  0  0  0  0  0  0  0
   13.8427  -18.0617   26.1875 O   0  0  0  0  0  0  0  0  0  0  0  0
   11.9649  -16.6574   25.9594 C   0  0  0  0  0  0  0  0  0  0  0  0
   10.4897  -16.7575   25.9707 C   0  0  2  0  0  0  0  0  0  0  0  0
    9.8680  -15.7418   25.1156 N   0  0  0  0  0  0  0  0  0  0  0  0
   10.0024  -16.4425   27.3643 C   0  0  0  0  0  0  0  0  0  0  0  0
    9.8589  -17.4085   28.3230 O   0  0  0  0  0  0  0  0  0  0  0  0
    9.7098  -15.2530   27.6833 O   0  0  0  0  0  0  0  0  0  0  0  0
  2  1  1  0
  2  3  2  0
  4  5  1  0
  4  2  1  0
  5  7  1  0
  5  6  1  6
  7  8  2  0
  9  7  1  0
  9 10  1  0
 11 12  1  0
 10 11  1  1
 12 17  2  0
 13 14  2  0
 13 12  1  0
 14 15  1  0
 15 16  2  0
 17 16  1  0
 18 10  1  0
 18 19  2  0
 20 21  1  0
 21 23  1  0
 21 22  2  0
 24 23  1  1
 24 25  1  0
 24 26  1  0
 25 18  1  0
 26 27  1  0
 28 26  2  0
M  END
$$$$
