NFN.pdb
     RDKit          3D

 28 28  0  0  1  0  0  0  0  0999 V2000
   12.3388  -18.1261   17.7825 N   0  0  0  0  0  0  0  0  0  0  0  0
   11.2770  -17.2668   18.1559 C   0  0  0  0  0  0  0  0  0  0  0  0
   10.2624  -17.2289   17.4176 O   0  0  0  0  0  0  0  0  0  0  0  0
   11.2935  -16.4095   19.3669 C   0  0  0  0  0  0  0  0  0  0  0  0
   10.3934  -17.0358   20.4250 C   0  0  2  0  0  0  0  0  0  0  0  0
    9.0673  -17.0911   19.8013 N   0  0  0  0  0  0  0  0  0  0  0  0
   10.2962  -16.1653   21.6216 C   0  0  0  0  0  0  0  0  0  0  0  0
   11.3167  -15.7786   22.2511 O   0  0  0  0  0  0  0  0  0  0  0  0
    9.0251  -15.7352   22.1006 N   0  0  0  0  0  0  0  0  0  0  0  0
    8.8762  -15.0482   23.3727 C   0  0  1  0  0  0  0  0  0  0  0  0
    7.6474  -14.1714   23.3798 C   0  0  0  0  0  0  0  0  0  0  0  0
    7.4149  -13.4637   24.6531 C   0  0  0  0  0  0  0  0  0  0  0  0
    8.1697  -12.3500   24.9306 C   0  0  0  0  0  0  0  0  0  0  0  0
    7.9797  -11.6659   26.1083 C   0  0  0  0  0  0  0  0  0  0  0  0
    7.0194  -12.1091   27.0150 C   0  0  0  0  0  0  0  0  0  0  0  0
    6.2557  -13.2230   26.7515 C   0  0  0  0  0  0  0  0  0  0  0  0
    6.4491  -13.9042   25.5723 C   0  0  0  0  0  0  0  0  0  0  0  0
    8.9456  -15.9998   24.5063 C   0  0  0  0  0  0  0  0  0  0  0  0
    8.0652  -16.8822   24.6160 O   0  0  0  0  0  0  0  0  0  0  0  0
   11.5595  -20.0705   27.1431 N   0  0  0  0  0  0  0  0  0  0  0  0
   11.3702  -19.0671   26.1367 C   0  0  0  0  0  0  0  0  0  0  0  0
   11.1076  -19.4329   24.9673 O   0  0  0  0  0  0  0  0  0  0  0  0
   11.4752  -17.6289   26.4373 C   0  0  0  0  0  0  0  0  0  0  0  0
   10.1418  -16.9959   26.5249 C   0  0  2  0  0  0  0  0  0  0  0  0
    9.9517  -15.9798   25.4853 N   0  0  0  0  0  0  0  0  0  0  0  0
   10.0601  -16.2379   27.8278 C   0  0  0  0  0  0  0  0  0  0  0  0
    9.6600  -16.8320   28.9939 O   0  0  0  0  0  0  0  0  0  0  0  0
   10.3662  -15.0104   27.8711 O   0  0  0  0  0  0  0  0  0  0  0  0
  2  1  1  0
  2  3  2  0
  4  5  1  0
  4  2  1  0
  5  7  1  0
  5  6  1  6
  7  8  2  0
  9  7  1  0
  9 10  1  0
 11 12  1  0
 10 11  1  6
 12 17  2  0
 13 14  2  0
 13 12  1  0
 14 15  1  0
 15 16  2  0
 17 16  1  0
 18 10  1  0
 18 19  2  0
 20 21  1  0
 21 23  1  0
 21 22  2  0
 24 23  1  6
 24 25  1  0
 24 26  1  0
 25 18  1  0
 26 27  1  0
 28 26  2  0
M  END
$$$$
