NFN.pdb
     RDKit          3D

 28 28  0  0  1  0  0  0  0  0999 V2000
    8.9239  -18.5994   18.1941 N   0  0  0  0  0  0  0  0  0  0  0  0
    8.6692  -17.2349   17.9140 C   0  0  0  0  0  0  0  0  0  0  0  0
    8.3120  -16.9291   16.7500 O   0  0  0  0  0  0  0  0  0  0  0  0
    8.7999  -16.1467   18.9143 C   0  0  0  0  0  0  0  0  0  0  0  0
    9.2609  -16.7473   20.2367 C   0  0  2  0  0  0  0  0  0  0  0  0
    8.1983  -17.6863   20.6105 N   0  0  0  0  0  0  0  0  0  0  0  0
    9.3406  -15.7086   21.2921 C   0  0  0  0  0  0  0  0  0  0  0  0
   10.3485  -14.9638   21.4216 O   0  0  0  0  0  0  0  0  0  0  0  0
    8.2620  -15.5210   22.2039 N   0  0  0  0  0  0  0  0  0  0  0  0
    8.3773  -14.6487   23.3607 C   0  0  1  0  0  0  0  0  0  0  0  0
    7.0326  -14.0920   23.7616 C   0  0  0  0  0  0  0  0  0  0  0  0
    7.0675  -13.2205   24.9514 C   0  0  0  0  0  0  0  0  0  0  0  0
    6.3472  -13.5958   26.0593 C   0  0  0  0  0  0  0  0  0  0  0  0
    6.3568  -12.8073   27.1859 C   0  0  0  0  0  0  0  0  0  0  0  0
    7.1000  -11.6290   27.1955 C   0  0  0  0  0  0  0  0  0  0  0  0
    7.8266  -11.2396   26.0937 C   0  0  0  0  0  0  0  0  0  0  0  0
    7.8140  -12.0313   24.9690 C   0  0  0  0  0  0  0  0  0  0  0  0
    9.1078  -15.3160   24.4636 C   0  0  0  0  0  0  0  0  0  0  0  0
    9.2320  -14.7234   25.5587 O   0  0  0  0  0  0  0  0  0  0  0  0
   11.2354  -20.6991   26.4194 N   0  0  0  0  0  0  0  0  0  0  0  0
   10.6432  -19.4113   26.6351 C   0  0  0  0  0  0  0  0  0  0  0  0
   10.7538  -18.8824   27.7656 O   0  0  0  0  0  0  0  0  0  0  0  0
    9.9139  -18.6985   25.5722 C   0  0  0  0  0  0  0  0  0  0  0  0
   10.3733  -17.2987   25.4461 C   0  0  2  0  0  0  0  0  0  0  0  0
    9.6814  -16.5935   24.3629 N   0  0  0  0  0  0  0  0  0  0  0  0
   11.8260  -17.3103   25.0357 C   0  0  0  0  0  0  0  0  0  0  0  0
   12.2480  -16.8165   23.8312 O   0  0  0  0  0  0  0  0  0  0  0  0
   12.7040  -17.7869   25.8130 O   0  0  0  0  0  0  0  0  0  0  0  0
  2  1  1  0
  2  3  2  0
  4  5  1  0
  4  2  1  0
  5  7  1  0
  5  6  1  1
  7  8  2  0
  9  7  1  0
  9 10  1  0
 11 12  1  0
 10 11  1  1
 12 17  2  0
 13 14  2  0
 13 12  1  0
 14 15  1  0
 15 16  2  0
 17 16  1  0
 18 10  1  0
 18 19  2  0
 20 21  1  0
 21 23  1  0
 21 22  2  0
 24 23  1  6
 24 25  1  0
 24 26  1  0
 25 18  1  0
 26 27  1  0
 28 26  2  0
M  END
$$$$
