NFN.pdb
     RDKit          3D

 28 28  0  0  1  0  0  0  0  0999 V2000
   10.3214  -18.3826   19.1347 N   0  0  0  0  0  0  0  0  0  0  0  0
   10.5374  -16.9855   19.0520 C   0  0  0  0  0  0  0  0  0  0  0  0
   10.8314  -16.5002   17.9321 O   0  0  0  0  0  0  0  0  0  0  0  0
   10.4371  -16.0629   20.2098 C   0  0  0  0  0  0  0  0  0  0  0  0
   10.1393  -16.8772   21.4629 C   0  0  2  0  0  0  0  0  0  0  0  0
    8.7818  -17.3931   21.2587 N   0  0  0  0  0  0  0  0  0  0  0  0
   10.1194  -16.0109   22.6663 C   0  0  0  0  0  0  0  0  0  0  0  0
   11.1512  -15.4179   23.0797 O   0  0  0  0  0  0  0  0  0  0  0  0
    8.9130  -15.8220   23.4004 N   0  0  0  0  0  0  0  0  0  0  0  0
    8.9177  -15.3753   24.7835 C   0  0  1  0  0  0  0  0  0  0  0  0
    7.5124  -15.1842   25.3008 C   0  0  0  0  0  0  0  0  0  0  0  0
    7.2176  -13.8146   25.7630 C   0  0  0  0  0  0  0  0  0  0  0  0
    8.2594  -13.0315   26.1973 C   0  0  0  0  0  0  0  0  0  0  0  0
    8.0210  -11.7500   26.6352 C   0  0  0  0  0  0  0  0  0  0  0  0
    6.7195  -11.2531   26.6352 C   0  0  0  0  0  0  0  0  0  0  0  0
    5.6654  -12.0252   26.2034 C   0  0  0  0  0  0  0  0  0  0  0  0
    5.9086  -13.3065   25.7662 C   0  0  0  0  0  0  0  0  0  0  0  0
    9.7575  -16.2567   25.6279 C   0  0  0  0  0  0  0  0  0  0  0  0
   10.5221  -15.7419   26.4742 O   0  0  0  0  0  0  0  0  0  0  0  0
   11.3807  -21.9712   26.7577 N   0  0  0  0  0  0  0  0  0  0  0  0
   10.6138  -20.8705   27.2636 C   0  0  0  0  0  0  0  0  0  0  0  0
   10.5624  -20.6953   28.5033 O   0  0  0  0  0  0  0  0  0  0  0  0
    9.8902  -19.9471   26.3729 C   0  0  0  0  0  0  0  0  0  0  0  0
   10.4036  -18.5657   26.4934 C   0  0  2  0  0  0  0  0  0  0  0  0
    9.7543  -17.6581   25.5426 N   0  0  0  0  0  0  0  0  0  0  0  0
   11.8606  -18.5639   26.0982 C   0  0  0  0  0  0  0  0  0  0  0  0
   12.8556  -18.8952   26.9774 O   0  0  0  0  0  0  0  0  0  0  0  0
   12.2009  -18.2492   24.9203 O   0  0  0  0  0  0  0  0  0  0  0  0
  2  1  1  0
  2  3  2  0
  4  5  1  0
  4  2  1  0
  5  7  1  0
  5  6  1  6
  7  8  2  0
  9  7  1  0
  9 10  1  0
 11 12  1  0
 10 11  1  1
 12 17  2  0
 13 14  2  0
 13 12  1  0
 14 15  1  0
 15 16  2  0
 17 16  1  0
 18 10  1  0
 18 19  2  0
 20 21  1  0
 21 23  1  0
 21 22  2  0
 24 23  1  6
 24 25  1  0
 24 26  1  0
 25 18  1  0
 26 27  1  0
 28 26  2  0
M  END
$$$$
