TRK.pdb
     RDKit          3D

 28 27  0  0  1  0  0  0  0  0999 V2000
   25.3920  -23.0869  -13.5553 C   0  0  0  0  0  0  0  0  0  0  0  0
   25.2712  -22.5272  -12.1562 C   0  0  1  0  0  0  0  0  0  0  0  0
   25.9395  -23.3841  -11.2827 O   0  0  0  0  0  0  0  0  0  0  0  0
   25.9397  -21.1694  -12.0382 C   0  0  2  0  0  0  0  0  0  0  0  0
   25.8018  -20.7511  -10.6551 N   0  0  0  0  0  0  0  0  0  0  0  0
   25.3135  -20.1653  -12.9062 C   0  0  0  0  0  0  0  0  0  0  0  0
   24.2052  -19.6420  -12.5943 O   0  0  0  0  0  0  0  0  0  0  0  0
   28.8016  -15.7577  -19.0606 N   0  0  0  0  0  0  0  0  0  0  0  0
   28.9486  -17.0291  -18.4038 C   0  0  0  0  0  0  0  0  0  0  0  0
   30.1002  -17.4808  -18.1168 N   0  0  0  0  0  0  0  0  0  0  0  0
   27.7933  -17.7839  -18.0744 N   0  0  0  0  0  0  0  0  0  0  0  0
   26.4529  -17.3377  -18.3456 C   0  0  0  0  0  0  0  0  0  0  0  0
   25.5492  -17.5317  -17.1491 C   0  0  0  0  0  0  0  0  0  0  0  0
   26.1905  -18.5105  -16.2227 C   0  0  0  0  0  0  0  0  0  0  0  0
   25.3411  -18.7766  -14.9869 C   0  0  2  0  0  0  0  0  0  0  0  0
   25.9306  -19.7486  -14.1235 N   0  0  0  0  0  0  0  0  0  0  0  0
   23.9953  -19.2284  -15.4913 C   0  0  0  0  0  0  0  0  0  0  0  0
   23.8084  -20.4114  -15.8717 O   0  0  0  0  0  0  0  0  0  0  0  0
   30.2286  -18.4183  -17.7130 N   0  0  0  0  0  0  0  0  0  0  0  0
   22.8809  -18.3479  -15.5613 C   0  0  2  0  0  0  0  0  0  0  0  0
   21.5402  -18.7896  -15.8818 C   0  0  0  0  0  0  0  0  0  0  0  0
   20.5190  -17.7740  -15.4847 C   0  0  0  0  0  0  0  0  0  0  0  0
   19.1067  -18.1746  -15.7006 C   0  0  0  0  0  0  0  0  0  0  0  0
   18.1041  -17.1262  -15.2882 C   0  0  0  0  0  0  0  0  0  0  0  0
   16.7255  -17.6716  -15.6843 N   0  0  0  0  0  0  0  0  0  0  0  0
   15.7133  -16.8146  -15.0967 C   0  0  0  0  0  0  0  0  0  0  0  0
   21.4936  -19.2075  -17.2722 O   0  0  0  0  0  0  0  0  0  0  0  0
   22.0389  -18.5011  -18.1548 O   0  0  0  0  0  0  0  0  0  0  0  0
  2  1  1  6
  2  3  1  0
  4  2  1  0
  4  5  1  1
  6  4  1  0
  6  7  2  0
  9  8  1  0
 10  9  2  0
 11  9  1  0
 12 11  1  0
 13 12  1  0
 13 14  1  0
 15 14  1  6
 15 16  1  0
 16  6  1  0
 17 15  1  0
 18 17  2  0
 19 17  1  0
 20 26  1  0
 20 19  1  0
 20 21  1  1
 22 21  1  0
 23 22  1  0
 24 25  1  0
 24 23  1  0
 26 28  1  0
 27 26  2  0
M  END
$$$$
