TRK.pdb
     RDKit          3D

 28 27  0  0  1  0  0  0  0  0999 V2000
   27.3346  -21.5058  -17.5296 C   0  0  0  0  0  0  0  0  0  0  0  0
   27.6054  -22.9898  -17.6268 C   0  0  1  0  0  0  0  0  0  0  0  0
   28.8554  -23.1692  -18.2176 O   0  0  0  0  0  0  0  0  0  0  0  0
   27.6702  -23.6367  -16.2549 C   0  0  2  0  0  0  0  0  0  0  0  0
   27.8073  -25.0658  -16.4694 N   0  0  0  0  0  0  0  0  0  0  0  0
   26.4588  -23.3857  -15.4653 C   0  0  0  0  0  0  0  0  0  0  0  0
   25.4113  -24.0688  -15.6538 O   0  0  0  0  0  0  0  0  0  0  0  0
   21.9276  -20.4348   -9.7326 N   0  0  0  0  0  0  0  0  0  0  0  0
   22.8374  -21.0425   -8.7986 C   0  0  0  0  0  0  0  0  0  0  0  0
   22.4141  -21.5282   -7.7043 N   0  0  0  0  0  0  0  0  0  0  0  0
   24.2215  -21.0984   -9.1059 N   0  0  0  0  0  0  0  0  0  0  0  0
   24.8012  -20.4687  -10.2619 C   0  0  0  0  0  0  0  0  0  0  0  0
   24.3762  -21.1542  -11.5408 C   0  0  0  0  0  0  0  0  0  0  0  0
   25.5963  -21.4637  -12.3425 C   0  0  0  0  0  0  0  0  0  0  0  0
   25.2589  -22.1067  -13.6812 C   0  0  2  0  0  0  0  0  0  0  0  0
   26.4230  -22.3688  -14.4649 N   0  0  0  0  0  0  0  0  0  0  0  0
   24.3239  -21.1549  -14.3808 C   0  0  0  0  0  0  0  0  0  0  0  0
   24.6732  -19.9765  -14.6422 O   0  0  0  0  0  0  0  0  0  0  0  0
   23.0473  -21.9838   -7.0335 N   0  0  0  0  0  0  0  0  0  0  0  0
   23.0129  -21.5385  -14.7762 C   0  0  2  0  0  0  0  0  0  0  0  0
   22.1322  -20.6808  -15.5402 C   0  0  0  0  0  0  0  0  0  0  0  0
   21.4025  -21.4456  -16.5960 C   0  0  0  0  0  0  0  0  0  0  0  0
   20.4197  -20.6616  -17.3841 C   0  0  0  0  0  0  0  0  0  0  0  0
   19.6047  -21.4916  -18.3441 C   0  0  0  0  0  0  0  0  0  0  0  0
   18.6851  -20.5115  -19.0847 N   0  0  0  0  0  0  0  0  0  0  0  0
   17.9044  -21.2631  -20.0489 C   0  0  0  0  0  0  0  0  0  0  0  0
   21.2924  -19.9233  -14.6286 O   0  0  0  0  0  0  0  0  0  0  0  0
   21.0785  -20.3575  -13.4706 O   0  0  0  0  0  0  0  0  0  0  0  0
  2  1  1  1
  2  3  1  0
  4  2  1  0
  4  5  1  6
  6  4  1  0
  6  7  2  0
  9  8  1  0
 10  9  2  0
 11  9  1  0
 12 11  1  0
 13 12  1  0
 13 14  1  0
 15 14  1  1
 15 16  1  0
 16  6  1  0
 17 15  1  0
 18 17  2  0
 19 17  1  0
 20 26  1  0
 20 19  1  0
 20 21  1  6
 22 21  1  0
 23 22  1  0
 24 25  1  0
 24 23  1  0
 26 28  1  0
 27 26  2  0
M  END
$$$$
