TRK.pdb
     RDKit          3D

 28 27  0  0  1  0  0  0  0  0999 V2000
   18.2131  -26.1259  -11.1261 C   0  0  0  0  0  0  0  0  0  0  0  0
   19.2194  -26.8966  -11.9498 C   0  0  1  0  0  0  0  0  0  0  0  0
   19.0308  -28.2572  -11.7109 O   0  0  0  0  0  0  0  0  0  0  0  0
   19.0087  -26.6776  -13.4372 C   0  0  2  0  0  0  0  0  0  0  0  0
   20.0141  -27.4666  -14.1254 N   0  0  0  0  0  0  0  0  0  0  0  0
   19.1633  -25.2687  -13.8179 C   0  0  0  0  0  0  0  0  0  0  0  0
   18.4240  -24.3770  -13.3101 O   0  0  0  0  0  0  0  0  0  0  0  0
   26.2357  -24.7960  -15.2372 N   0  0  0  0  0  0  0  0  0  0  0  0
   25.3926  -25.0108  -16.3828 C   0  0  0  0  0  0  0  0  0  0  0  0
   25.5781  -26.0087  -17.1459 N   0  0  0  0  0  0  0  0  0  0  0  0
   24.3436  -24.0966  -16.6605 N   0  0  0  0  0  0  0  0  0  0  0  0
   24.0281  -22.9748  -15.8173 C   0  0  0  0  0  0  0  0  0  0  0  0
   22.7825  -23.2273  -14.9984 C   0  0  0  0  0  0  0  0  0  0  0  0
   21.6080  -23.2644  -15.9185 C   0  0  0  0  0  0  0  0  0  0  0  0
   20.3001  -23.5009  -15.1749 C   0  0  2  0  0  0  0  0  0  0  0  0
   20.1467  -24.8606  -14.7679 N   0  0  0  0  0  0  0  0  0  0  0  0
   19.2005  -23.0769  -16.1133 C   0  0  0  0  0  0  0  0  0  0  0  0
   18.9125  -23.7613  -17.1271 O   0  0  0  0  0  0  0  0  0  0  0  0
   25.0052  -26.1610  -17.9867 N   0  0  0  0  0  0  0  0  0  0  0  0
   18.4414  -21.8934  -15.9009 C   0  0  1  0  0  0  0  0  0  0  0  0
   17.3544  -21.4829  -16.7641 C   0  0  0  0  0  0  0  0  0  0  0  0
   16.0607  -21.4121  -16.0203 C   0  0  0  0  0  0  0  0  0  0  0  0
   14.8809  -21.9463  -16.7445 C   0  0  0  0  0  0  0  0  0  0  0  0
   13.6029  -21.9058  -15.9448 C   0  0  0  0  0  0  0  0  0  0  0  0
   13.7141  -23.0254  -14.9013 N   0  0  0  0  0  0  0  0  0  0  0  0
   12.4710  -23.0749  -14.1555 C   0  0  0  0  0  0  0  0  0  0  0  0
   17.7341  -20.2704  -17.4681 O   0  0  0  0  0  0  0  0  0  0  0  0
   17.0622  -19.8860  -18.4560 O   0  0  0  0  0  0  0  0  0  0  0  0
  2  1  1  1
  2  3  1  0
  4  2  1  0
  4  5  1  6
  6  4  1  0
  6  7  2  0
  9  8  1  0
 10  9  2  0
 11  9  1  0
 12 11  1  0
 13 12  1  0
 13 14  1  0
 15 14  1  6
 15 16  1  0
 16  6  1  0
 17 15  1  0
 18 17  2  0
 19 17  1  0
 20 26  1  0
 20 19  1  0
 20 21  1  6
 22 21  1  0
 23 22  1  0
 24 25  1  0
 24 23  1  0
 26 28  1  0
 27 26  2  0
M  END
$$$$
