TRK.pdb
     RDKit          3D

 28 27  0  0  1  0  0  0  0  0999 V2000
   18.5979  -30.2558  -10.2381 C   0  0  0  0  0  0  0  0  0  0  0  0
   20.0943  -30.3657  -10.4220 C   0  0  1  0  0  0  0  0  0  0  0  0
   20.3556  -31.4654  -11.2383 O   0  0  0  0  0  0  0  0  0  0  0  0
   20.6610  -29.1480  -11.1295 C   0  0  2  0  0  0  0  0  0  0  0  0
   22.0964  -29.3443  -11.2209 N   0  0  0  0  0  0  0  0  0  0  0  0
   20.3941  -27.9056  -10.3954 C   0  0  0  0  0  0  0  0  0  0  0  0
   21.1189  -27.5645   -9.4167 O   0  0  0  0  0  0  0  0  0  0  0  0
   15.7424  -20.5638  -12.5628 N   0  0  0  0  0  0  0  0  0  0  0  0
   16.2522  -20.3352  -11.2371 C   0  0  0  0  0  0  0  0  0  0  0  0
   16.0534  -19.2278  -10.6484 N   0  0  0  0  0  0  0  0  0  0  0  0
   16.9844  -21.3596  -10.5831 N   0  0  0  0  0  0  0  0  0  0  0  0
   17.3879  -22.5796  -11.2296 C   0  0  0  0  0  0  0  0  0  0  0  0
   18.0253  -23.5421  -10.2532 C   0  0  0  0  0  0  0  0  0  0  0  0
   18.4308  -24.7723  -10.9945 C   0  0  0  0  0  0  0  0  0  0  0  0
   19.0491  -25.8201  -10.0783 C   0  0  2  0  0  0  0  0  0  0  0  0
   19.3145  -27.0463  -10.7593 N   0  0  0  0  0  0  0  0  0  0  0  0
   18.0746  -26.0160   -8.9461 C   0  0  0  0  0  0  0  0  0  0  0  0
   16.8915  -26.3792   -9.1635 O   0  0  0  0  0  0  0  0  0  0  0  0
   16.3646  -19.0654   -9.6814 N   0  0  0  0  0  0  0  0  0  0  0  0
   18.4413  -25.8018   -7.5890 C   0  0  2  0  0  0  0  0  0  0  0  0
   17.5299  -25.9956   -6.4813 C   0  0  0  0  0  0  0  0  0  0  0  0
   18.2608  -26.1035   -5.1827 C   0  0  0  0  0  0  0  0  0  0  0  0
   17.4125  -26.3793   -3.9969 C   0  0  0  0  0  0  0  0  0  0  0  0
   18.1802  -26.4577   -2.7011 C   0  0  0  0  0  0  0  0  0  0  0  0
   17.1666  -26.8725   -1.6263 N   0  0  0  0  0  0  0  0  0  0  0  0
   17.8768  -27.0343   -0.3719 C   0  0  0  0  0  0  0  0  0  0  0  0
   16.4948  -24.9776   -6.5295 O   0  0  0  0  0  0  0  0  0  0  0  0
   16.7795  -23.8156   -6.9087 O   0  0  0  0  0  0  0  0  0  0  0  0
  2  1  1  6
  2  3  1  0
  4  2  1  0
  4  5  1  1
  6  4  1  0
  6  7  2  0
  9  8  1  0
 10  9  2  0
 11  9  1  0
 12 11  1  0
 13 12  1  0
 13 14  1  0
 15 14  1  6
 15 16  1  0
 16  6  1  0
 17 15  1  0
 18 17  2  0
 19 17  1  0
 20 26  1  0
 20 19  1  0
 20 21  1  1
 22 21  1  0
 23 22  1  0
 24 25  1  0
 24 23  1  0
 26 28  1  0
 27 26  2  0
M  END
$$$$
