TRK.pdb
     RDKit          3D

 28 27  0  0  1  0  0  0  0  0999 V2000
   25.8301  -19.3481  -18.5508 C   0  0  0  0  0  0  0  0  0  0  0  0
   24.9576  -20.1257  -17.5921 C   0  0  1  0  0  0  0  0  0  0  0  0
   25.6366  -20.2448  -16.3802 O   0  0  0  0  0  0  0  0  0  0  0  0
   23.6598  -19.3945  -17.2994 C   0  0  2  0  0  0  0  0  0  0  0  0
   24.0203  -18.0727  -16.8198 N   0  0  0  0  0  0  0  0  0  0  0  0
   22.8593  -20.0736  -16.2738 C   0  0  0  0  0  0  0  0  0  0  0  0
   22.0957  -21.0339  -16.5808 O   0  0  0  0  0  0  0  0  0  0  0  0
   26.7039  -21.9027  -12.9463 N   0  0  0  0  0  0  0  0  0  0  0  0
   27.0528  -20.7070  -12.2265 C   0  0  0  0  0  0  0  0  0  0  0  0
   28.1491  -20.1088  -12.4566 N   0  0  0  0  0  0  0  0  0  0  0  0
   26.1608  -20.1930  -11.2502 N   0  0  0  0  0  0  0  0  0  0  0  0
   24.8216  -20.6844  -11.0653 C   0  0  0  0  0  0  0  0  0  0  0  0
   24.1650  -21.0199  -12.3852 C   0  0  0  0  0  0  0  0  0  0  0  0
   22.9159  -20.2133  -12.5135 C   0  0  0  0  0  0  0  0  0  0  0  0
   22.2476  -20.3967  -13.8697 C   0  0  2  0  0  0  0  0  0  0  0  0
   22.9157  -19.6755  -14.9047 N   0  0  0  0  0  0  0  0  0  0  0  0
   20.8239  -19.9333  -13.7028 C   0  0  0  0  0  0  0  0  0  0  0  0
   20.5618  -18.7598  -13.3377 O   0  0  0  0  0  0  0  0  0  0  0  0
   28.4392  -19.2834  -11.9153 N   0  0  0  0  0  0  0  0  0  0  0  0
   19.7170  -20.7917  -13.9476 C   0  0  2  0  0  0  0  0  0  0  0  0
   18.3464  -20.4167  -13.6715 C   0  0  0  0  0  0  0  0  0  0  0  0
   17.3817  -21.2682  -14.4306 C   0  0  0  0  0  0  0  0  0  0  0  0
   15.9517  -20.9061  -14.2706 C   0  0  0  0  0  0  0  0  0  0  0  0
   15.0047  -21.8106  -15.0186 C   0  0  0  0  0  0  0  0  0  0  0  0
   13.5943  -21.2652  -14.7576 N   0  0  0  0  0  0  0  0  0  0  0  0
   12.6366  -22.1959  -15.3239 C   0  0  0  0  0  0  0  0  0  0  0  0
   18.1419  -20.3755  -12.2340 O   0  0  0  0  0  0  0  0  0  0  0  0
   17.3790  -19.5119  -11.7367 O   0  0  0  0  0  0  0  0  0  0  0  0
  2  1  1  6
  2  3  1  0
  4  2  1  0
  4  5  1  1
  6  4  1  0
  6  7  2  0
  9  8  1  0
 10  9  2  0
 11  9  1  0
 12 11  1  0
 13 12  1  0
 13 14  1  0
 15 14  1  1
 15 16  1  0
 16  6  1  0
 17 15  1  0
 18 17  2  0
 19 17  1  0
 20 26  1  0
 20 19  1  0
 20 21  1  6
 22 21  1  0
 23 22  1  0
 24 25  1  0
 24 23  1  0
 26 28  1  0
 27 26  2  0
M  END
$$$$
