TRK.pdb
     RDKit          3D

 28 27  0  0  1  0  0  0  0  0999 V2000
   27.1131  -18.6479  -15.9609 C   0  0  0  0  0  0  0  0  0  0  0  0
   27.4996  -19.9121  -16.6941 C   0  0  1  0  0  0  0  0  0  0  0  0
   28.6626  -19.6590  -17.4203 O   0  0  0  0  0  0  0  0  0  0  0  0
   27.8192  -21.0409  -15.7307 C   0  0  2  0  0  0  0  0  0  0  0  0
   28.1027  -22.2145  -16.5365 N   0  0  0  0  0  0  0  0  0  0  0  0
   26.6977  -21.3375  -14.8317 C   0  0  0  0  0  0  0  0  0  0  0  0
   25.7266  -22.0474  -15.2222 O   0  0  0  0  0  0  0  0  0  0  0  0
   24.3253  -22.5498   -7.3328 N   0  0  0  0  0  0  0  0  0  0  0  0
   23.5113  -21.3654   -7.2690 C   0  0  0  0  0  0  0  0  0  0  0  0
   22.4974  -21.3163   -6.5060 N   0  0  0  0  0  0  0  0  0  0  0  0
   23.8472  -20.2421   -8.0680 N   0  0  0  0  0  0  0  0  0  0  0  0
   24.9858  -20.2081   -8.9463 C   0  0  0  0  0  0  0  0  0  0  0  0
   24.6575  -20.7835  -10.3054 C   0  0  0  0  0  0  0  0  0  0  0  0
   25.8121  -20.5356  -11.2181 C   0  0  0  0  0  0  0  0  0  0  0  0
   25.5422  -21.0243  -12.6351 C   0  0  2  0  0  0  0  0  0  0  0  0
   26.6659  -20.8377  -13.4956 N   0  0  0  0  0  0  0  0  0  0  0  0
   24.3396  -20.2586  -13.1219 C   0  0  0  0  0  0  0  0  0  0  0  0
   24.3493  -19.0033  -13.1803 O   0  0  0  0  0  0  0  0  0  0  0  0
   21.8987  -20.4813   -6.4547 N   0  0  0  0  0  0  0  0  0  0  0  0
   23.1457  -20.9112  -13.5352 C   0  0  2  0  0  0  0  0  0  0  0  0
   21.9987  -20.2051  -14.0651 C   0  0  0  0  0  0  0  0  0  0  0  0
   21.8365  -20.4450  -15.5308 C   0  0  0  0  0  0  0  0  0  0  0  0
   20.6718  -19.7743  -16.1596 C   0  0  0  0  0  0  0  0  0  0  0  0
   20.5148  -20.0729  -17.6296 C   0  0  0  0  0  0  0  0  0  0  0  0
   19.3139  -19.2468  -18.1093 N   0  0  0  0  0  0  0  0  0  0  0  0
   19.1599  -19.4575  -19.5362 C   0  0  0  0  0  0  0  0  0  0  0  0
   20.8331  -20.5079  -13.2528 O   0  0  0  0  0  0  0  0  0  0  0  0
   19.7721  -19.8580  -13.4170 O   0  0  0  0  0  0  0  0  0  0  0  0
  2  1  1  1
  2  3  1  0
  4  2  1  0
  4  5  1  6
  6  4  1  0
  6  7  2  0
  9  8  1  0
 10  9  2  0
 11  9  1  0
 12 11  1  0
 13 12  1  0
 13 14  1  0
 15 14  1  1
 15 16  1  0
 16  6  1  0
 17 15  1  0
 18 17  2  0
 19 17  1  0
 20 26  1  0
 20 19  1  0
 20 21  1  6
 22 21  1  0
 23 22  1  0
 24 25  1  0
 24 23  1  0
 26 28  1  0
 27 26  2  0
M  END
$$$$
