TRK.pdb
     RDKit          3D

 28 27  0  0  1  0  0  0  0  0999 V2000
   24.0257  -26.8750  -16.4034 C   0  0  0  0  0  0  0  0  0  0  0  0
   24.4402  -25.8467  -17.4310 C   0  0  1  0  0  0  0  0  0  0  0  0
   23.2934  -25.3836  -18.0744 O   0  0  0  0  0  0  0  0  0  0  0  0
   25.0976  -24.6421  -16.7820 C   0  0  2  0  0  0  0  0  0  0  0  0
   26.2542  -25.1340  -16.0557 N   0  0  0  0  0  0  0  0  0  0  0  0
   24.1996  -23.9579  -15.8443 C   0  0  0  0  0  0  0  0  0  0  0  0
   24.1481  -24.3044  -14.6291 O   0  0  0  0  0  0  0  0  0  0  0  0
   19.3004  -18.8482  -14.0401 N   0  0  0  0  0  0  0  0  0  0  0  0
   20.0635  -17.7118  -13.5975 C   0  0  0  0  0  0  0  0  0  0  0  0
   19.5953  -16.9172  -12.7247 N   0  0  0  0  0  0  0  0  0  0  0  0
   21.3522  -17.4791  -14.1436 N   0  0  0  0  0  0  0  0  0  0  0  0
   21.9697  -18.3461  -15.1111 C   0  0  0  0  0  0  0  0  0  0  0  0
   21.9105  -19.7937  -14.6789 C   0  0  0  0  0  0  0  0  0  0  0  0
   22.5793  -20.6283  -15.7199 C   0  0  0  0  0  0  0  0  0  0  0  0
   22.5895  -22.1068  -15.3546 C   0  0  2  0  0  0  0  0  0  0  0  0
   23.3598  -22.8856  -16.2700 N   0  0  0  0  0  0  0  0  0  0  0  0
   21.1480  -22.5444  -15.3328 C   0  0  0  0  0  0  0  0  0  0  0  0
   20.4282  -22.4589  -16.3592 O   0  0  0  0  0  0  0  0  0  0  0  0
   20.0911  -16.0573  -12.4543 N   0  0  0  0  0  0  0  0  0  0  0  0
   20.5364  -23.0704  -14.1618 C   0  0  2  0  0  0  0  0  0  0  0  0
   19.1591  -23.5133  -14.1172 C   0  0  0  0  0  0  0  0  0  0  0  0
   18.8433  -24.1921  -12.8243 C   0  0  0  0  0  0  0  0  0  0  0  0
   19.5316  -25.4877  -12.6019 C   0  0  0  0  0  0  0  0  0  0  0  0
   19.2391  -26.1129  -11.2609 C   0  0  0  0  0  0  0  0  0  0  0  0
   20.0452  -27.4177  -11.2109 N   0  0  0  0  0  0  0  0  0  0  0  0
   19.8438  -28.0251   -9.9092 C   0  0  0  0  0  0  0  0  0  0  0  0
   18.2883  -22.4042  -14.4661 O   0  0  0  0  0  0  0  0  0  0  0  0
   17.2032  -22.6248  -15.0570 O   0  0  0  0  0  0  0  0  0  0  0  0
  2  1  1  1
  2  3  1  0
  4  2  1  0
  4  5  1  1
  6  4  1  0
  6  7  2  0
  9  8  1  0
 10  9  2  0
 11  9  1  0
 12 11  1  0
 13 12  1  0
 13 14  1  0
 15 14  1  6
 15 16  1  0
 16  6  1  0
 17 15  1  0
 18 17  2  0
 19 17  1  0
 20 26  1  0
 20 19  1  0
 20 21  1  1
 22 21  1  0
 23 22  1  0
 24 25  1  0
 24 23  1  0
 26 28  1  0
 27 26  2  0
M  END
$$$$
