TRK.pdb
     RDKit          3D

 28 27  0  0  1  0  0  0  0  0999 V2000
   25.8847  -18.9756  -16.5084 C   0  0  0  0  0  0  0  0  0  0  0  0
   26.2422  -20.1369  -17.4076 C   0  0  1  0  0  0  0  0  0  0  0  0
   26.4126  -19.6513  -18.7033 O   0  0  0  0  0  0  0  0  0  0  0  0
   27.5583  -20.7744  -16.9999 C   0  0  2  0  0  0  0  0  0  0  0  0
   27.7461  -21.9343  -17.8522 N   0  0  0  0  0  0  0  0  0  0  0  0
   27.5544  -21.2069  -15.5975 C   0  0  0  0  0  0  0  0  0  0  0  0
   26.8359  -22.1778  -15.2225 O   0  0  0  0  0  0  0  0  0  0  0  0
   31.4024  -22.2816   -8.6113 N   0  0  0  0  0  0  0  0  0  0  0  0
   32.3308  -22.6447   -9.6485 C   0  0  0  0  0  0  0  0  0  0  0  0
   33.0545  -23.6820   -9.5362 N   0  0  0  0  0  0  0  0  0  0  0  0
   32.4366  -21.8336  -10.8078 N   0  0  0  0  0  0  0  0  0  0  0  0
   31.4655  -20.8345  -11.1657 C   0  0  0  0  0  0  0  0  0  0  0  0
   30.3062  -21.4338  -11.9290 C   0  0  0  0  0  0  0  0  0  0  0  0
   29.4438  -20.3243  -12.4317 C   0  0  0  0  0  0  0  0  0  0  0  0
   28.2472  -20.8369  -13.2223 C   0  0  2  0  0  0  0  0  0  0  0  0
   28.3563  -20.5506  -14.6166 N   0  0  0  0  0  0  0  0  0  0  0  0
   27.0323  -20.1835  -12.6168 C   0  0  0  0  0  0  0  0  0  0  0  0
   26.7973  -18.9615  -12.7919 O   0  0  0  0  0  0  0  0  0  0  0  0
   33.7237  -23.9569  -10.2677 N   0  0  0  0  0  0  0  0  0  0  0  0
   26.1004  -20.9094  -11.8250 C   0  0  2  0  0  0  0  0  0  0  0  0
   24.9082  -20.3149  -11.2590 C   0  0  0  0  0  0  0  0  0  0  0  0
   23.6848  -20.7089  -12.0207 C   0  0  0  0  0  0  0  0  0  0  0  0
   22.4063  -20.1736  -11.4909 C   0  0  0  0  0  0  0  0  0  0  0  0
   21.1814  -20.7321  -12.1708 C   0  0  0  0  0  0  0  0  0  0  0  0
   19.9760  -20.0449  -11.5153 N   0  0  0  0  0  0  0  0  0  0  0  0
   18.7674  -20.6144  -12.0800 C   0  0  0  0  0  0  0  0  0  0  0  0
   24.8678  -20.5884   -9.8330 O   0  0  0  0  0  0  0  0  0  0  0  0
   25.5351  -21.5408   -9.3611 O   0  0  0  0  0  0  0  0  0  0  0  0
  2  1  1  1
  2  3  1  0
  4  2  1  0
  4  5  1  6
  6  4  1  0
  6  7  2  0
  9  8  1  0
 10  9  2  0
 11  9  1  0
 12 11  1  0
 13 12  1  0
 13 14  1  0
 15 14  1  1
 15 16  1  0
 16  6  1  0
 17 15  1  0
 18 17  2  0
 19 17  1  0
 20 26  1  0
 20 19  1  0
 20 21  1  6
 22 21  1  0
 23 22  1  0
 24 25  1  0
 24 23  1  0
 26 28  1  0
 27 26  2  0
M  END
$$$$
