TRK.pdb
     RDKit          3D

 28 27  0  0  1  0  0  0  0  0999 V2000
   28.7426  -18.5367  -14.3841 C   0  0  0  0  0  0  0  0  0  0  0  0
   27.3184  -18.9943  -14.1659 C   0  0  1  0  0  0  0  0  0  0  0  0
   26.5945  -18.7433  -15.3307 O   0  0  0  0  0  0  0  0  0  0  0  0
   27.2445  -20.4897  -13.9154 C   0  0  2  0  0  0  0  0  0  0  0  0
   27.7346  -21.1424  -15.1157 N   0  0  0  0  0  0  0  0  0  0  0  0
   25.8731  -20.9410  -13.6517 C   0  0  0  0  0  0  0  0  0  0  0  0
   25.1801  -21.4720  -14.5667 O   0  0  0  0  0  0  0  0  0  0  0  0
   20.6978  -23.2238   -7.3963 N   0  0  0  0  0  0  0  0  0  0  0  0
   20.7797  -21.9386   -8.0373 C   0  0  0  0  0  0  0  0  0  0  0  0
   19.7263  -21.3102   -8.3661 N   0  0  0  0  0  0  0  0  0  0  0  0
   22.0518  -21.3696   -8.3036 N   0  0  0  0  0  0  0  0  0  0  0  0
   22.2300  -20.0514   -8.8509 C   0  0  0  0  0  0  0  0  0  0  0  0
   22.4621  -20.0957  -10.3443 C   0  0  0  0  0  0  0  0  0  0  0  0
   23.5701  -21.0553  -10.6249 C   0  0  0  0  0  0  0  0  0  0  0  0
   23.9134  -21.1223  -12.1072 C   0  0  2  0  0  0  0  0  0  0  0  0
   25.2797  -20.7965  -12.3620 N   0  0  0  0  0  0  0  0  0  0  0  0
   22.9782  -20.1649  -12.7989 C   0  0  0  0  0  0  0  0  0  0  0  0
   23.1608  -18.9230  -12.7406 O   0  0  0  0  0  0  0  0  0  0  0  0
   18.7888  -21.6778   -8.1554 N   0  0  0  0  0  0  0  0  0  0  0  0
   21.8538  -20.6142  -13.5445 C   0  0  2  0  0  0  0  0  0  0  0  0
   20.9848  -19.7230  -14.2833 C   0  0  0  0  0  0  0  0  0  0  0  0
   21.0379  -19.9978  -15.7509 C   0  0  0  0  0  0  0  0  0  0  0  0
   20.2379  -19.0798  -16.5988 C   0  0  0  0  0  0  0  0  0  0  0  0
   20.3038  -19.3953  -18.0721 C   0  0  0  0  0  0  0  0  0  0  0  0
   19.4295  -18.3480  -18.7747 N   0  0  0  0  0  0  0  0  0  0  0  0
   19.4882  -18.5933  -20.2032 C   0  0  0  0  0  0  0  0  0  0  0  0
   19.6578  -19.7504  -13.6932 O   0  0  0  0  0  0  0  0  0  0  0  0
   19.3261  -20.7036  -12.9473 O   0  0  0  0  0  0  0  0  0  0  0  0
  2  1  1  6
  2  3  1  0
  4  2  1  0
  4  5  1  6
  6  4  1  0
  6  7  2  0
  9  8  1  0
 10  9  2  0
 11  9  1  0
 12 11  1  0
 13 12  1  0
 13 14  1  0
 15 14  1  1
 15 16  1  0
 16  6  1  0
 17 15  1  0
 18 17  2  0
 19 17  1  0
 20 26  1  0
 20 19  1  0
 20 21  1  6
 22 21  1  0
 23 22  1  0
 24 25  1  0
 24 23  1  0
 26 28  1  0
 27 26  2  0
M  END
$$$$
