TRK.pdb
     RDKit          3D

 28 27  0  0  1  0  0  0  0  0999 V2000
   20.4072  -14.2384  -19.8384 C   0  0  0  0  0  0  0  0  0  0  0  0
   21.0767  -13.5346  -18.6801 C   0  0  1  0  0  0  0  0  0  0  0  0
   22.3458  -14.0854  -18.5074 O   0  0  0  0  0  0  0  0  0  0  0  0
   21.2733  -12.0562  -18.9631 C   0  0  2  0  0  0  0  0  0  0  0  0
   22.2120  -11.9599  -20.0662 N   0  0  0  0  0  0  0  0  0  0  0  0
   21.8198  -11.3376  -17.8060 C   0  0  0  0  0  0  0  0  0  0  0  0
   21.1569  -11.2407  -16.7333 O   0  0  0  0  0  0  0  0  0  0  0  0
   30.2168  -11.0055  -16.8694 N   0  0  0  0  0  0  0  0  0  0  0  0
   29.4428  -12.1908  -16.6138 C   0  0  0  0  0  0  0  0  0  0  0  0
   30.0139  -13.3083  -16.4195 N   0  0  0  0  0  0  0  0  0  0  0  0
   28.0268  -12.1075  -16.5788 N   0  0  0  0  0  0  0  0  0  0  0  0
   27.3045  -10.8679  -16.6828 C   0  0  0  0  0  0  0  0  0  0  0  0
   25.8110  -11.0849  -16.5907 C   0  0  0  0  0  0  0  0  0  0  0  0
   25.1256   -9.7810  -16.8307 C   0  0  0  0  0  0  0  0  0  0  0  0
   23.6086   -9.9116  -16.7935 C   0  0  2  0  0  0  0  0  0  0  0  0
   23.1091  -10.7280  -17.8526 N   0  0  0  0  0  0  0  0  0  0  0  0
   23.0640   -8.5092  -16.8721 C   0  0  0  0  0  0  0  0  0  0  0  0
   23.2811   -7.7838  -17.8750 O   0  0  0  0  0  0  0  0  0  0  0  0
   29.4759  -14.1743  -16.2819 N   0  0  0  0  0  0  0  0  0  0  0  0
   22.2852   -7.9420  -15.8262 C   0  0  1  0  0  0  0  0  0  0  0  0
   21.7872   -6.5833  -15.8558 C   0  0  0  0  0  0  0  0  0  0  0  0
   20.4795   -6.4943  -16.5728 C   0  0  0  0  0  0  0  0  0  0  0  0
   19.9012   -5.1316  -16.6736 C   0  0  0  0  0  0  0  0  0  0  0  0
   18.5108   -5.0992  -17.2570 C   0  0  0  0  0  0  0  0  0  0  0  0
   18.0461   -3.6389  -17.1776 N   0  0  0  0  0  0  0  0  0  0  0  0
   16.6576   -3.5820  -17.5935 C   0  0  0  0  0  0  0  0  0  0  0  0
   21.7955   -6.0411  -14.5082 O   0  0  0  0  0  0  0  0  0  0  0  0
   21.7289   -6.8162  -13.5233 O   0  0  0  0  0  0  0  0  0  0  0  0
  2  1  1  6
  2  3  1  0
  4  2  1  0
  4  5  1  6
  6  4  1  0
  6  7  2  0
  9  8  1  0
 10  9  2  0
 11  9  1  0
 12 11  1  0
 13 12  1  0
 13 14  1  0
 15 14  1  6
 15 16  1  0
 16  6  1  0
 17 15  1  0
 18 17  2  0
 19 17  1  0
 20 26  1  0
 20 19  1  0
 20 21  1  6
 22 21  1  0
 23 22  1  0
 24 25  1  0
 24 23  1  0
 26 28  1  0
 27 26  2  0
M  END
$$$$
