TRK.pdb
     RDKit          3D

 28 27  0  0  1  0  0  0  0  0999 V2000
   24.2940  -23.0022  -15.9184 C   0  0  0  0  0  0  0  0  0  0  0  0
   25.0044  -23.0687  -14.5857 C   0  0  1  0  0  0  0  0  0  0  0  0
   26.2562  -23.6491  -14.7852 O   0  0  0  0  0  0  0  0  0  0  0  0
   25.2475  -21.6841  -14.0127 C   0  0  2  0  0  0  0  0  0  0  0  0
   25.9729  -21.8649  -12.7684 N   0  0  0  0  0  0  0  0  0  0  0  0
   23.9954  -20.9700  -13.7369 C   0  0  0  0  0  0  0  0  0  0  0  0
   23.3722  -21.1533  -12.6517 O   0  0  0  0  0  0  0  0  0  0  0  0
   20.6822  -15.5937  -18.7088 N   0  0  0  0  0  0  0  0  0  0  0  0
   19.5100  -15.6279  -17.8756 C   0  0  0  0  0  0  0  0  0  0  0  0
   18.3490  -15.5896  -18.3885 N   0  0  0  0  0  0  0  0  0  0  0  0
   19.6556  -15.7053  -16.4663 N   0  0  0  0  0  0  0  0  0  0  0  0
   20.8550  -16.1655  -15.8191 C   0  0  0  0  0  0  0  0  0  0  0  0
   20.6784  -17.5514  -15.2409 C   0  0  0  0  0  0  0  0  0  0  0  0
   21.9022  -18.3512  -15.5412 C   0  0  0  0  0  0  0  0  0  0  0  0
   22.2180  -19.3568  -14.4419 C   0  0  2  0  0  0  0  0  0  0  0  0
   23.4429  -20.0508  -14.6782 N   0  0  0  0  0  0  0  0  0  0  0  0
   21.0471  -20.3033  -14.3891 C   0  0  0  0  0  0  0  0  0  0  0  0
   20.8945  -21.1961  -15.2601 O   0  0  0  0  0  0  0  0  0  0  0  0
   17.5012  -15.5544  -17.8069 N   0  0  0  0  0  0  0  0  0  0  0  0
   20.0664  -20.2345  -13.3617 C   0  0  2  0  0  0  0  0  0  0  0  0
   19.0054  -21.2076  -13.2119 C   0  0  0  0  0  0  0  0  0  0  0  0
   18.9653  -21.7658  -11.8266 C   0  0  0  0  0  0  0  0  0  0  0  0
   17.9573  -22.8306  -11.5993 C   0  0  0  0  0  0  0  0  0  0  0  0
   17.7981  -23.2226  -10.1517 C   0  0  0  0  0  0  0  0  0  0  0  0
   17.6295  -24.7478  -10.1363 N   0  0  0  0  0  0  0  0  0  0  0  0
   17.4873  -25.1740   -8.7571 C   0  0  0  0  0  0  0  0  0  0  0  0
   17.7586  -20.6332  -13.6870 O   0  0  0  0  0  0  0  0  0  0  0  0
   16.9016  -21.3684  -14.2349 O   0  0  0  0  0  0  0  0  0  0  0  0
  2  1  1  6
  2  3  1  0
  4  2  1  0
  4  5  1  1
  6  4  1  0
  6  7  2  0
  9  8  1  0
 10  9  2  0
 11  9  1  0
 12 11  1  0
 13 12  1  0
 13 14  1  0
 15 14  1  6
 15 16  1  0
 16  6  1  0
 17 15  1  0
 18 17  2  0
 19 17  1  0
 20 26  1  0
 20 19  1  0
 20 21  1  1
 22 21  1  0
 23 22  1  0
 24 25  1  0
 24 23  1  0
 26 28  1  0
 27 26  2  0
M  END
$$$$
