TRK.pdb
     RDKit          3D

 28 27  0  0  1  0  0  0  0  0999 V2000
   26.9138  -17.6373  -16.7864 C   0  0  0  0  0  0  0  0  0  0  0  0
   27.4344  -18.7702  -17.6412 C   0  0  1  0  0  0  0  0  0  0  0  0
   28.4190  -18.2631  -18.4880 O   0  0  0  0  0  0  0  0  0  0  0  0
   28.0911  -19.8491  -16.7991 C   0  0  2  0  0  0  0  0  0  0  0  0
   28.6182  -20.8395  -17.7201 N   0  0  0  0  0  0  0  0  0  0  0  0
   27.1399  -20.4995  -15.8903 C   0  0  0  0  0  0  0  0  0  0  0  0
   26.2526  -21.2829  -16.3358 O   0  0  0  0  0  0  0  0  0  0  0  0
   22.9264  -19.9716   -9.9546 N   0  0  0  0  0  0  0  0  0  0  0  0
   23.4576  -20.7742   -8.8854 C   0  0  0  0  0  0  0  0  0  0  0  0
   22.6958  -21.2299   -7.9773 N   0  0  0  0  0  0  0  0  0  0  0  0
   24.8472  -21.0579   -8.8477 N   0  0  0  0  0  0  0  0  0  0  0  0
   25.7873  -20.5365   -9.8035 C   0  0  0  0  0  0  0  0  0  0  0  0
   25.4117  -20.9167  -11.2178 C   0  0  0  0  0  0  0  0  0  0  0  0
   26.4723  -20.4180  -12.1417 C   0  0  0  0  0  0  0  0  0  0  0  0
   26.1652  -20.7384  -13.5986 C   0  0  2  0  0  0  0  0  0  0  0  0
   27.1842  -20.2711  -14.4824 N   0  0  0  0  0  0  0  0  0  0  0  0
   24.8356  -20.0966  -13.8988 C   0  0  0  0  0  0  0  0  0  0  0  0
   24.6671  -18.8587  -13.7636 O   0  0  0  0  0  0  0  0  0  0  0  0
   23.0568  -21.8127   -7.2103 N   0  0  0  0  0  0  0  0  0  0  0  0
   23.7166  -20.8518  -14.3454 C   0  0  2  0  0  0  0  0  0  0  0  0
   22.4534  -20.2520  -14.7194 C   0  0  0  0  0  0  0  0  0  0  0  0
   22.0926  -20.5709  -16.1336 C   0  0  0  0  0  0  0  0  0  0  0  0
   20.7863  -20.0371  -16.5923 C   0  0  0  0  0  0  0  0  0  0  0  0
   20.3949  -20.4864  -17.9777 C   0  0  0  0  0  0  0  0  0  0  0  0
   19.1262  -19.7030  -18.3404 N   0  0  0  0  0  0  0  0  0  0  0  0
   18.6958  -20.1235  -19.6602 C   0  0  0  0  0  0  0  0  0  0  0  0
   21.4484  -20.5959  -13.7286 O   0  0  0  0  0  0  0  0  0  0  0  0
   21.5889  -21.6288  -13.0297 O   0  0  0  0  0  0  0  0  0  0  0  0
  2  1  1  1
  2  3  1  0
  4  2  1  0
  4  5  1  6
  6  4  1  0
  6  7  2  0
  9  8  1  0
 10  9  2  0
 11  9  1  0
 12 11  1  0
 13 12  1  0
 13 14  1  0
 15 14  1  1
 15 16  1  0
 16  6  1  0
 17 15  1  0
 18 17  2  0
 19 17  1  0
 20 26  1  0
 20 19  1  0
 20 21  1  6
 22 21  1  0
 23 22  1  0
 24 25  1  0
 24 23  1  0
 26 28  1  0
 27 26  2  0
M  END
$$$$
