TRK.pdb
     RDKit          3D

 28 27  0  0  1  0  0  0  0  0999 V2000
   18.9916  -29.6298  -12.7901 C   0  0  0  0  0  0  0  0  0  0  0  0
   18.8622  -28.7373  -11.5769 C   0  0  1  0  0  0  0  0  0  0  0  0
   18.5655  -29.5374  -10.4743 O   0  0  0  0  0  0  0  0  0  0  0  0
   20.1663  -28.0253  -11.2657 C   0  0  2  0  0  0  0  0  0  0  0  0
   21.1522  -29.0542  -10.9891 N   0  0  0  0  0  0  0  0  0  0  0  0
   20.0528  -27.1452  -10.0968 C   0  0  0  0  0  0  0  0  0  0  0  0
   20.5424  -27.4855   -8.9814 O   0  0  0  0  0  0  0  0  0  0  0  0
   15.5439  -23.4480  -12.9658 N   0  0  0  0  0  0  0  0  0  0  0  0
   15.3356  -22.2586  -12.1838 C   0  0  0  0  0  0  0  0  0  0  0  0
   14.4244  -21.4305  -12.4941 N   0  0  0  0  0  0  0  0  0  0  0  0
   16.1584  -22.0110  -11.0547 N   0  0  0  0  0  0  0  0  0  0  0  0
   17.5814  -22.2209  -11.0515 C   0  0  0  0  0  0  0  0  0  0  0  0
   17.9332  -23.6424  -10.6752 C   0  0  0  0  0  0  0  0  0  0  0  0
   18.8103  -23.6114   -9.4681 C   0  0  0  0  0  0  0  0  0  0  0  0
   19.2825  -25.0014   -9.0626 C   0  0  2  0  0  0  0  0  0  0  0  0
   19.3904  -25.8840  -10.1794 N   0  0  0  0  0  0  0  0  0  0  0  0
   18.2849  -25.5064   -8.0529 C   0  0  0  0  0  0  0  0  0  0  0  0
   17.1598  -25.9365   -8.4111 O   0  0  0  0  0  0  0  0  0  0  0  0
   14.2453  -20.5872  -11.9327 N   0  0  0  0  0  0  0  0  0  0  0  0
   18.5637  -25.5213   -6.6586 C   0  0  2  0  0  0  0  0  0  0  0  0
   17.6216  -25.9941   -5.6666 C   0  0  0  0  0  0  0  0  0  0  0  0
   18.3055  -26.3493   -4.3867 C   0  0  0  0  0  0  0  0  0  0  0  0
   17.4280  -26.9169   -3.3333 C   0  0  0  0  0  0  0  0  0  0  0  0
   18.1244  -27.1449   -2.0151 C   0  0  0  0  0  0  0  0  0  0  0  0
   17.1065  -27.8497   -1.1085 N   0  0  0  0  0  0  0  0  0  0  0  0
   17.7614  -28.1685    0.1459 C   0  0  0  0  0  0  0  0  0  0  0  0
   16.5338  -25.0389   -5.5461 O   0  0  0  0  0  0  0  0  0  0  0  0
   16.7150  -23.8419   -5.8769 O   0  0  0  0  0  0  0  0  0  0  0  0
  2  1  1  6
  2  3  1  0
  4  2  1  0
  4  5  1  1
  6  4  1  0
  6  7  2  0
  9  8  1  0
 10  9  2  0
 11  9  1  0
 12 11  1  0
 13 12  1  0
 13 14  1  0
 15 14  1  6
 15 16  1  0
 16  6  1  0
 17 15  1  0
 18 17  2  0
 19 17  1  0
 20 26  1  0
 20 19  1  0
 20 21  1  1
 22 21  1  0
 23 22  1  0
 24 25  1  0
 24 23  1  0
 26 28  1  0
 27 26  2  0
M  END
$$$$
