WPF.pdb
     RDKit          3D

 33 36  0  0  1  0  0  0  0  0999 V2000
   10.8068  -18.0411   18.6537 N   0  0  0  0  0  0  0  0  0  0  0  0
    9.7283  -17.9205   19.5537 C   0  0  1  0  0  0  0  0  0  0  0  0
    9.6051  -19.1544   20.4262 C   0  0  0  0  0  0  0  0  0  0  0  0
    9.8870  -20.4197   19.7612 C   0  0  0  0  0  0  0  0  0  0  0  0
   10.1325  -20.5867   18.3973 C   0  0  0  0  0  0  0  0  0  0  0  0
   10.3151  -21.8899   18.1617 N   0  0  0  0  0  0  0  0  0  0  0  0
   10.2022  -22.6127   19.3058 C   0  0  0  0  0  0  0  0  0  0  0  0
   10.3096  -23.9646   19.5816 C   0  0  0  0  0  0  0  0  0  0  0  0
   10.1514  -24.4160   20.8761 C   0  0  0  0  0  0  0  0  0  0  0  0
    9.8854  -23.5314   21.9081 C   0  0  0  0  0  0  0  0  0  0  0  0
    9.7825  -22.1804   21.5910 C   0  0  0  0  0  0  0  0  0  0  0  0
    9.9330  -21.6861   20.3154 C   0  0  0  0  0  0  0  0  0  0  0  0
    9.6730  -16.6778   20.3596 C   0  0  0  0  0  0  0  0  0  0  0  0
   10.7985  -16.0243   20.3582 O   0  0  0  0  0  0  0  0  0  0  0  0
    8.5700  -16.2059   21.0626 N   0  0  0  0  0  0  0  0  0  0  0  0
    7.2504  -16.8855   21.0165 C   0  0  0  0  0  0  0  0  0  0  0  0
    6.3784  -15.6679   20.7162 C   0  0  0  0  0  0  0  0  0  0  0  0
    7.0586  -14.4992   21.3484 C   0  0  0  0  0  0  0  0  0  0  0  0
    8.3245  -15.0864   21.9177 C   0  0  1  0  0  0  0  0  0  0  0  0
    8.2208  -15.5561   23.3082 C   0  0  0  0  0  0  0  0  0  0  0  0
    8.1387  -16.8093   23.4823 O   0  0  0  0  0  0  0  0  0  0  0  0
    8.1972  -14.7481   24.4653 N   0  0  0  0  0  0  0  0  0  0  0  0
    8.9052  -15.1464   25.6897 C   0  0  1  0  0  0  0  0  0  0  0  0
    8.8649  -14.1210   26.7563 C   0  0  0  0  0  0  0  0  0  0  0  0
    7.7661  -13.1570   26.7134 C   0  0  0  0  0  0  0  0  0  0  0  0
    6.5114  -13.4405   27.2355 C   0  0  0  0  0  0  0  0  0  0  0  0
    5.5400  -12.4786   27.1422 C   0  0  0  0  0  0  0  0  0  0  0  0
    5.7946  -11.2349   26.5392 C   0  0  0  0  0  0  0  0  0  0  0  0
    7.0385  -10.9427   26.0190 C   0  0  0  0  0  0  0  0  0  0  0  0
    8.0024  -11.9183   26.1160 C   0  0  0  0  0  0  0  0  0  0  0  0
    8.2171  -16.3977   26.2064 C   0  0  0  0  0  0  0  0  0  0  0  0
    7.0666  -16.7077   25.7600 O   0  0  0  0  0  0  0  0  0  0  0  0
    8.7595  -17.2388   27.1420 O   0  0  0  0  0  0  0  0  0  0  0  0
  2  1  1  1
  3  2  1  0
  4  3  1  0
  5  4  2  0
  6  5  1  0
  7  6  1  0
  7 12  2  0
  8  9  2  0
  8  7  1  0
  9 10  1  0
 10 11  2  0
 12 11  1  0
 12  4  1  0
 13  2  1  0
 13 14  2  0
 15 13  1  0
 16 15  1  0
 17 18  1  0
 17 16  1  0
 19 18  1  0
 19 15  1  0
 19 20  1  1
 21 20  2  0
 22 20  1  0
 23 22  1  0
 23 24  1  1
 24 25  1  0
 25 26  2  0
 26 27  1  0
 28 27  2  0
 29 28  1  0
 30 29  2  0
 30 25  1  0
 31 33  1  0
 31 23  1  0
 32 31  2  0
M  END
$$$$
