WPF.pdb
     RDKit          3D

 33 36  0  0  1  0  0  0  0  0999 V2000
    6.0128  -18.2107   25.1681 N   0  0  0  0  0  0  0  0  0  0  0  0
    6.0450  -17.3822   24.0277 C   0  0  1  0  0  0  0  0  0  0  0  0
    5.6410  -15.9622   24.3734 C   0  0  0  0  0  0  0  0  0  0  0  0
    6.2930  -15.3958   25.5467 C   0  0  0  0  0  0  0  0  0  0  0  0
    6.8798  -16.1229   26.5837 C   0  0  0  0  0  0  0  0  0  0  0  0
    7.3424  -15.2575   27.4917 N   0  0  0  0  0  0  0  0  0  0  0  0
    7.0929  -13.9766   27.1159 C   0  0  0  0  0  0  0  0  0  0  0  0
    7.3714  -12.7520   27.6973 C   0  0  0  0  0  0  0  0  0  0  0  0
    6.9947  -11.5876   27.0595 C   0  0  0  0  0  0  0  0  0  0  0  0
    6.3389  -11.6270   25.8402 C   0  0  0  0  0  0  0  0  0  0  0  0
    6.0747  -12.8769   25.2886 C   0  0  0  0  0  0  0  0  0  0  0  0
    6.4319  -14.0628   25.8887 C   0  0  0  0  0  0  0  0  0  0  0  0
    7.2883  -17.4120   23.2215 C   0  0  0  0  0  0  0  0  0  0  0  0
    7.7425  -18.6177   23.0377 O   0  0  0  0  0  0  0  0  0  0  0  0
    7.9462  -16.3084   22.6895 N   0  0  0  0  0  0  0  0  0  0  0  0
    7.5897  -14.9164   23.0640 C   0  0  0  0  0  0  0  0  0  0  0  0
    7.4773  -14.3252   21.6601 C   0  0  0  0  0  0  0  0  0  0  0  0
    8.4374  -15.0861   20.8070 C   0  0  0  0  0  0  0  0  0  0  0  0
    9.0012  -16.1254   21.7417 C   0  0  1  0  0  0  0  0  0  0  0  0
   10.2239  -15.7224   22.4539 C   0  0  0  0  0  0  0  0  0  0  0  0
   10.5457  -14.4978   22.3868 O   0  0  0  0  0  0  0  0  0  0  0  0
   11.0760  -16.5663   23.1981 N   0  0  0  0  0  0  0  0  0  0  0  0
   12.2936  -16.0499   23.8384 C   0  0  1  0  0  0  0  0  0  0  0  0
   12.0250  -15.0921   24.9342 C   0  0  0  0  0  0  0  0  0  0  0  0
   11.5069  -15.6403   26.1870 C   0  0  0  0  0  0  0  0  0  0  0  0
   11.2754  -16.9978   26.3617 C   0  0  0  0  0  0  0  0  0  0  0  0
   10.7802  -17.4193   27.5679 C   0  0  0  0  0  0  0  0  0  0  0  0
   10.5121  -16.5127   28.6079 C   0  0  0  0  0  0  0  0  0  0  0  0
   10.7403  -15.1620   28.4450 C   0  0  0  0  0  0  0  0  0  0  0  0
   11.2335  -14.7528   27.2286 C   0  0  0  0  0  0  0  0  0  0  0  0
   13.0236  -17.2473   24.4212 C   0  0  0  0  0  0  0  0  0  0  0  0
   14.1456  -17.0758   24.9963 O   0  0  0  0  0  0  0  0  0  0  0  0
   12.5492  -18.5316   24.3718 O   0  0  0  0  0  0  0  0  0  0  0  0
  2  1  1  1
  3  2  1  0
  4  3  1  0
  5  4  2  0
  6  5  1  0
  7  6  1  0
  7 12  2  0
  8  9  2  0
  8  7  1  0
  9 10  1  0
 10 11  2  0
 12 11  1  0
 12  4  1  0
 13  2  1  0
 13 14  2  0
 15 13  1  0
 16 15  1  0
 17 18  1  0
 17 16  1  0
 19 18  1  0
 19 15  1  0
 19 20  1  1
 21 20  2  0
 22 20  1  0
 23 22  1  0
 23 24  1  1
 24 25  1  0
 25 26  2  0
 26 27  1  0
 28 27  2  0
 29 28  1  0
 30 29  2  0
 30 25  1  0
 31 33  1  0
 31 23  1  0
 32 31  2  0
M  END
$$$$
