WPF.pdb
     RDKit          3D

 33 36  0  0  1  0  0  0  0  0999 V2000
    8.4489  -18.5876   18.8524 N   0  0  0  0  0  0  0  0  0  0  0  0
    8.0808  -18.3062   20.1841 C   0  0  1  0  0  0  0  0  0  0  0  0
    8.0241  -19.5739   21.0140 C   0  0  0  0  0  0  0  0  0  0  0  0
    7.3566  -19.4468   22.3028 C   0  0  0  0  0  0  0  0  0  0  0  0
    6.0031  -19.1650   22.4954 C   0  0  0  0  0  0  0  0  0  0  0  0
    5.7734  -19.0957   23.8105 N   0  0  0  0  0  0  0  0  0  0  0  0
    6.9121  -19.3163   24.5167 C   0  0  0  0  0  0  0  0  0  0  0  0
    7.1885  -19.3551   25.8722 C   0  0  0  0  0  0  0  0  0  0  0  0
    8.4724  -19.6198   26.3038 C   0  0  0  0  0  0  0  0  0  0  0  0
    9.4929  -19.8483   25.3958 C   0  0  0  0  0  0  0  0  0  0  0  0
    9.1763  -19.7987   24.0417 C   0  0  0  0  0  0  0  0  0  0  0  0
    7.9111  -19.5388   23.5665 C   0  0  0  0  0  0  0  0  0  0  0  0
    8.8467  -17.2402   20.8724 C   0  0  0  0  0  0  0  0  0  0  0  0
   10.1341  -17.4190   20.8047 O   0  0  0  0  0  0  0  0  0  0  0  0
    8.3084  -16.1425   21.5348 N   0  0  0  0  0  0  0  0  0  0  0  0
    6.8459  -15.9715   21.7274 C   0  0  0  0  0  0  0  0  0  0  0  0
    6.7193  -14.5304   21.2371 C   0  0  0  0  0  0  0  0  0  0  0  0
    8.0161  -13.8637   21.5568 C   0  0  0  0  0  0  0  0  0  0  0  0
    8.8517  -14.9701   22.1474 C   0  0  1  0  0  0  0  0  0  0  0  0
    8.7605  -15.1046   23.6097 C   0  0  0  0  0  0  0  0  0  0  0  0
    7.8182  -15.8243   24.0587 O   0  0  0  0  0  0  0  0  0  0  0  0
    9.6148  -14.5058   24.5605 N   0  0  0  0  0  0  0  0  0  0  0  0
    9.8712  -15.1374   25.8621 C   0  0  1  0  0  0  0  0  0  0  0  0
    9.0298  -14.6017   26.9555 C   0  0  0  0  0  0  0  0  0  0  0  0
    7.9817  -13.6512   26.5859 C   0  0  0  0  0  0  0  0  0  0  0  0
    8.2584  -12.3259   26.2792 C   0  0  0  0  0  0  0  0  0  0  0  0
    7.2106  -11.5056   25.9523 C   0  0  0  0  0  0  0  0  0  0  0  0
    5.8884  -11.9811   25.9225 C   0  0  0  0  0  0  0  0  0  0  0  0
    5.6031  -13.2967   26.2238 C   0  0  0  0  0  0  0  0  0  0  0  0
    6.6633  -14.1074   26.5538 C   0  0  0  0  0  0  0  0  0  0  0  0
    9.5586  -16.6148   25.7013 C   0  0  0  0  0  0  0  0  0  0  0  0
    9.0860  -17.0370   24.5980 O   0  0  0  0  0  0  0  0  0  0  0  0
    9.7541  -17.5500   26.6833 O   0  0  0  0  0  0  0  0  0  0  0  0
  2  1  1  6
  3  2  1  0
  4  3  1  0
  5  4  2  0
  6  5  1  0
  7  6  1  0
  7 12  2  0
  8  9  2  0
  8  7  1  0
  9 10  1  0
 10 11  2  0
 12 11  1  0
 12  4  1  0
 13  2  1  0
 13 14  2  0
 15 13  1  0
 16 15  1  0
 17 18  1  0
 17 16  1  0
 19 18  1  0
 19 15  1  0
 19 20  1  1
 21 20  2  0
 22 20  1  0
 23 22  1  0
 23 24  1  1
 24 25  1  0
 25 26  2  0
 26 27  1  0
 28 27  2  0
 29 28  1  0
 30 29  2  0
 30 25  1  0
 31 33  1  0
 31 23  1  0
 32 31  2  0
M  END
$$$$
