WPF.pdb
     RDKit          3D

 33 36  0  0  1  0  0  0  0  0999 V2000
    6.8537  -19.5646   20.7431 N   0  0  0  0  0  0  0  0  0  0  0  0
    6.6180  -18.2257   21.1168 C   0  0  1  0  0  0  0  0  0  0  0  0
    5.6205  -18.1448   22.2559 C   0  0  0  0  0  0  0  0  0  0  0  0
    5.9509  -18.9382   23.4324 C   0  0  0  0  0  0  0  0  0  0  0  0
    6.1822  -20.3148   23.4484 C   0  0  0  0  0  0  0  0  0  0  0  0
    6.4221  -20.6838   24.7108 N   0  0  0  0  0  0  0  0  0  0  0  0
    6.3615  -19.6181   25.5502 C   0  0  0  0  0  0  0  0  0  0  0  0
    6.5366  -19.4826   26.9163 C   0  0  0  0  0  0  0  0  0  0  0  0
    6.4205  -18.2390   27.5034 C   0  0  0  0  0  0  0  0  0  0  0  0
    6.1297  -17.1195   26.7417 C   0  0  0  0  0  0  0  0  0  0  0  0
    5.9584  -17.2962   25.3721 C   0  0  0  0  0  0  0  0  0  0  0  0
    6.0652  -18.5165   24.7446 C   0  0  0  0  0  0  0  0  0  0  0  0
    7.8137  -17.3909   21.3815 C   0  0  0  0  0  0  0  0  0  0  0  0
    8.9297  -18.0382   21.2105 O   0  0  0  0  0  0  0  0  0  0  0  0
    7.8106  -16.0561   21.7714 N   0  0  0  0  0  0  0  0  0  0  0  0
    6.5708  -15.3563   22.1936 C   0  0  0  0  0  0  0  0  0  0  0  0
    6.7065  -14.1087   21.3227 C   0  0  0  0  0  0  0  0  0  0  0  0
    8.1708  -13.8723   21.1548 C   0  0  0  0  0  0  0  0  0  0  0  0
    8.8061  -15.0347   21.8736 C   0  0  1  0  0  0  0  0  0  0  0  0
    9.1079  -14.7968   23.2939 C   0  0  0  0  0  0  0  0  0  0  0  0
    9.0422  -13.5968   23.6977 O   0  0  0  0  0  0  0  0  0  0  0  0
    9.4694  -15.7723   24.2478 N   0  0  0  0  0  0  0  0  0  0  0  0
   10.1218  -15.4008   25.5109 C   0  0  1  0  0  0  0  0  0  0  0  0
    9.1807  -15.2650   26.6451 C   0  0  0  0  0  0  0  0  0  0  0  0
    8.1589  -14.2238   26.5428 C   0  0  0  0  0  0  0  0  0  0  0  0
    8.4582  -12.8758   26.6857 C   0  0  0  0  0  0  0  0  0  0  0  0
    7.4337  -11.9716   26.5827 C   0  0  0  0  0  0  0  0  0  0  0  0
    6.1129  -12.3844   26.3371 C   0  0  0  0  0  0  0  0  0  0  0  0
    5.8053  -13.7213   26.1917 C   0  0  0  0  0  0  0  0  0  0  0  0
    6.8421  -14.6177   26.3013 C   0  0  0  0  0  0  0  0  0  0  0  0
   11.1054  -16.5103   25.8389 C   0  0  0  0  0  0  0  0  0  0  0  0
   11.7790  -16.4497   26.9167 O   0  0  0  0  0  0  0  0  0  0  0  0
   11.3253  -17.5999   25.0381 O   0  0  0  0  0  0  0  0  0  0  0  0
  2  1  1  1
  3  2  1  0
  4  3  1  0
  5  4  2  0
  6  5  1  0
  7  6  1  0
  7 12  2  0
  8  9  2  0
  8  7  1  0
  9 10  1  0
 10 11  2  0
 12 11  1  0
 12  4  1  0
 13  2  1  0
 13 14  2  0
 15 13  1  0
 16 15  1  0
 17 18  1  0
 17 16  1  0
 19 18  1  0
 19 15  1  0
 19 20  1  1
 21 20  2  0
 22 20  1  0
 23 22  1  0
 23 24  1  1
 24 25  1  0
 25 26  2  0
 26 27  1  0
 28 27  2  0
 29 28  1  0
 30 29  2  0
 30 25  1  0
 31 33  1  0
 31 23  1  0
 32 31  2  0
M  END
$$$$
