WPF.pdb
     RDKit          3D

 33 36  0  0  1  0  0  0  0  0999 V2000
    5.6198  -17.1056   24.0065 N   0  0  0  0  0  0  0  0  0  0  0  0
    6.5341  -16.1222   23.5766 C   0  0  1  0  0  0  0  0  0  0  0  0
    7.2609  -15.5012   24.7535 C   0  0  0  0  0  0  0  0  0  0  0  0
    6.4545  -14.6258   25.5937 C   0  0  0  0  0  0  0  0  0  0  0  0
    5.3498  -15.0156   26.3528 C   0  0  0  0  0  0  0  0  0  0  0  0
    4.8557  -13.9316   26.9595 N   0  0  0  0  0  0  0  0  0  0  0  0
    5.5762  -12.8248   26.6431 C   0  0  0  0  0  0  0  0  0  0  0  0
    5.4719  -11.4948   27.0108 C   0  0  0  0  0  0  0  0  0  0  0  0
    6.3787  -10.5749   26.5249 C   0  0  0  0  0  0  0  0  0  0  0  0
    7.3963  -10.9654   25.6704 C   0  0  0  0  0  0  0  0  0  0  0  0
    7.4671  -12.3107   25.3220 C   0  0  0  0  0  0  0  0  0  0  0  0
    6.5855  -13.2619   25.7824 C   0  0  0  0  0  0  0  0  0  0  0  0
    7.4768  -16.5174   22.5033 C   0  0  0  0  0  0  0  0  0  0  0  0
    7.2970  -17.7411   22.0983 O   0  0  0  0  0  0  0  0  0  0  0  0
    8.4662  -15.7149   21.9459 N   0  0  0  0  0  0  0  0  0  0  0  0
    8.6168  -14.2807   22.3000 C   0  0  0  0  0  0  0  0  0  0  0  0
    8.6935  -13.7049   20.8873 C   0  0  0  0  0  0  0  0  0  0  0  0
    9.3195  -14.7607   20.0379 C   0  0  0  0  0  0  0  0  0  0  0  0
    9.5051  -15.9187   20.9845 C   0  0  1  0  0  0  0  0  0  0  0  0
   10.8025  -15.9528   21.6774 C   0  0  0  0  0  0  0  0  0  0  0  0
   11.7904  -15.4482   21.0635 O   0  0  0  0  0  0  0  0  0  0  0  0
   11.0556  -16.4977   22.9546 N   0  0  0  0  0  0  0  0  0  0  0  0
   12.3352  -16.2734   23.6411 C   0  0  1  0  0  0  0  0  0  0  0  0
   12.2611  -16.4628   25.1071 C   0  0  0  0  0  0  0  0  0  0  0  0
   11.2935  -15.6446   25.8371 C   0  0  0  0  0  0  0  0  0  0  0  0
   10.8484  -14.4200   25.3582 C   0  0  0  0  0  0  0  0  0  0  0  0
    9.9470  -13.7186   26.1154 C   0  0  0  0  0  0  0  0  0  0  0  0
    9.4769  -14.2152   27.3433 C   0  0  0  0  0  0  0  0  0  0  0  0
    9.9117  -15.4317   27.8271 C   0  0  0  0  0  0  0  0  0  0  0  0
   10.8188  -16.1228   27.0591 C   0  0  0  0  0  0  0  0  0  0  0  0
   13.3172  -17.2865   23.0794 C   0  0  0  0  0  0  0  0  0  0  0  0
   14.5398  -17.2309   23.4275 O   0  0  0  0  0  0  0  0  0  0  0  0
   12.9732  -18.2817   22.2030 O   0  0  0  0  0  0  0  0  0  0  0  0
  2  1  1  1
  3  2  1  0
  4  3  1  0
  5  4  2  0
  6  5  1  0
  7  6  1  0
  7 12  2  0
  8  9  2  0
  8  7  1  0
  9 10  1  0
 10 11  2  0
 12 11  1  0
 12  4  1  0
 13  2  1  0
 13 14  2  0
 15 13  1  0
 16 15  1  0
 17 18  1  0
 17 16  1  0
 19 18  1  0
 19 15  1  0
 19 20  1  1
 21 20  2  0
 22 20  1  0
 23 22  1  0
 23 24  1  1
 24 25  1  0
 25 26  2  0
 26 27  1  0
 28 27  2  0
 29 28  1  0
 30 29  2  0
 30 25  1  0
 31 33  1  0
 31 23  1  0
 32 31  2  0
M  END
$$$$
