WPF.pdb
     RDKit          3D

 33 36  0  0  1  0  0  0  0  0999 V2000
    6.2546  -17.5168   25.1460 N   0  0  0  0  0  0  0  0  0  0  0  0
    7.0247  -16.5577   24.4567 C   0  0  1  0  0  0  0  0  0  0  0  0
    7.5560  -15.5006   25.4050 C   0  0  0  0  0  0  0  0  0  0  0  0
    6.5553  -14.5954   25.9546 C   0  0  0  0  0  0  0  0  0  0  0  0
    5.4242  -14.9742   26.6797 C   0  0  0  0  0  0  0  0  0  0  0  0
    4.7336  -13.8707   26.9839 N   0  0  0  0  0  0  0  0  0  0  0  0
    5.3464  -12.7618   26.4951 C   0  0  0  0  0  0  0  0  0  0  0  0
    5.0381  -11.4136   26.5474 C   0  0  0  0  0  0  0  0  0  0  0  0
    5.8773  -10.4938   25.9520 C   0  0  0  0  0  0  0  0  0  0  0  0
    7.0288  -10.9024   25.2998 C   0  0  0  0  0  0  0  0  0  0  0  0
    7.3035  -12.2661   25.2667 C   0  0  0  0  0  0  0  0  0  0  0  0
    6.4960  -13.2179   25.8465 C   0  0  0  0  0  0  0  0  0  0  0  0
    8.0924  -17.0778   23.5700 C   0  0  0  0  0  0  0  0  0  0  0  0
    8.0436  -18.3702   23.4246 O   0  0  0  0  0  0  0  0  0  0  0  0
    9.0685  -16.3202   22.9320 N   0  0  0  0  0  0  0  0  0  0  0  0
    9.0987  -14.8376   23.0107 C   0  0  0  0  0  0  0  0  0  0  0  0
    9.2473  -14.5342   21.5210 C   0  0  0  0  0  0  0  0  0  0  0  0
   10.0037  -15.6792   20.9336 C   0  0  0  0  0  0  0  0  0  0  0  0
   10.1895  -16.6199   22.0963 C   0  0  1  0  0  0  0  0  0  0  0  0
   11.4290  -16.4216   22.8639 C   0  0  0  0  0  0  0  0  0  0  0  0
   12.0594  -15.3407   22.6599 O   0  0  0  0  0  0  0  0  0  0  0  0
   11.9873  -17.3193   23.7991 N   0  0  0  0  0  0  0  0  0  0  0  0
   13.1466  -16.9440   24.6202 C   0  0  1  0  0  0  0  0  0  0  0  0
   12.9538  -17.1958   26.0659 C   0  0  0  0  0  0  0  0  0  0  0  0
   11.8661  -16.4773   26.7286 C   0  0  0  0  0  0  0  0  0  0  0  0
   10.6498  -17.0797   27.0195 C   0  0  0  0  0  0  0  0  0  0  0  0
    9.6853  -16.3253   27.6346 C   0  0  0  0  0  0  0  0  0  0  0  0
    9.9097  -14.9787   27.9689 C   0  0  0  0  0  0  0  0  0  0  0  0
   11.1155  -14.3713   27.6857 C   0  0  0  0  0  0  0  0  0  0  0  0
   12.0725  -15.1389   27.0650 C   0  0  0  0  0  0  0  0  0  0  0  0
   14.3144  -17.7888   24.1416 C   0  0  0  0  0  0  0  0  0  0  0  0
   15.4876  -17.5263   24.5583 O   0  0  0  0  0  0  0  0  0  0  0  0
   14.1928  -18.8402   23.2717 O   0  0  0  0  0  0  0  0  0  0  0  0
  2  1  1  1
  3  2  1  0
  4  3  1  0
  5  4  2  0
  6  5  1  0
  7  6  1  0
  7 12  2  0
  8  9  2  0
  8  7  1  0
  9 10  1  0
 10 11  2  0
 12 11  1  0
 12  4  1  0
 13  2  1  0
 13 14  2  0
 15 13  1  0
 16 15  1  0
 17 18  1  0
 17 16  1  0
 19 18  1  0
 19 15  1  0
 19 20  1  1
 21 20  2  0
 22 20  1  0
 23 22  1  0
 23 24  1  1
 24 25  1  0
 25 26  2  0
 26 27  1  0
 28 27  2  0
 29 28  1  0
 30 29  2  0
 30 25  1  0
 31 33  1  0
 31 23  1  0
 32 31  2  0
M  END
$$$$
