WPF.pdb
     RDKit          3D

 33 36  0  0  1  0  0  0  0  0999 V2000
    5.4128  -18.3892   23.6680 N   0  0  0  0  0  0  0  0  0  0  0  0
    6.0660  -17.3764   22.9362 C   0  0  1  0  0  0  0  0  0  0  0  0
    5.6756  -16.0007   23.4404 C   0  0  0  0  0  0  0  0  0  0  0  0
    6.2228  -15.6338   24.7399 C   0  0  0  0  0  0  0  0  0  0  0  0
    6.5009  -16.5156   25.7856 C   0  0  0  0  0  0  0  0  0  0  0  0
    6.9584  -15.8050   26.8214 N   0  0  0  0  0  0  0  0  0  0  0  0
    7.0006  -14.4807   26.5236 C   0  0  0  0  0  0  0  0  0  0  0  0
    7.3941  -13.3648   27.2412 C   0  0  0  0  0  0  0  0  0  0  0  0
    7.3337  -12.1161   26.6567 C   0  0  0  0  0  0  0  0  0  0  0  0
    6.8828  -11.9628   25.3562 C   0  0  0  0  0  0  0  0  0  0  0  0
    6.4939  -13.1079   24.6678 C   0  0  0  0  0  0  0  0  0  0  0  0
    6.5376  -14.3719   25.2105 C   0  0  0  0  0  0  0  0  0  0  0  0
    7.5354  -17.5052   22.7921 C   0  0  0  0  0  0  0  0  0  0  0  0
    7.9626  -18.7113   23.0302 O   0  0  0  0  0  0  0  0  0  0  0  0
    8.4164  -16.4877   22.4423 N   0  0  0  0  0  0  0  0  0  0  0  0
    7.9972  -15.0648   22.3735 C   0  0  0  0  0  0  0  0  0  0  0  0
    8.5647  -14.7273   20.9961 C   0  0  0  0  0  0  0  0  0  0  0  0
    9.7691  -15.5906   20.8162 C   0  0  0  0  0  0  0  0  0  0  0  0
    9.7945  -16.4347   22.0645 C   0  0  1  0  0  0  0  0  0  0  0  0
   10.5776  -15.8747   23.1771 C   0  0  0  0  0  0  0  0  0  0  0  0
   10.7473  -14.6183   23.1796 O   0  0  0  0  0  0  0  0  0  0  0  0
   11.1632  -16.5999   24.2371 N   0  0  0  0  0  0  0  0  0  0  0  0
   12.4598  -16.2077   24.8064 C   0  0  1  0  0  0  0  0  0  0  0  0
   12.4106  -14.9432   25.5740 C   0  0  0  0  0  0  0  0  0  0  0  0
   11.3741  -14.8252   26.5988 C   0  0  0  0  0  0  0  0  0  0  0  0
   10.2374  -14.0496   26.4165 C   0  0  0  0  0  0  0  0  0  0  0  0
    9.3238  -13.9917   27.4362 C   0  0  0  0  0  0  0  0  0  0  0  0
    9.5194  -14.6951   28.6372 C   0  0  0  0  0  0  0  0  0  0  0  0
   10.6448  -15.4700   28.8275 C   0  0  0  0  0  0  0  0  0  0  0  0
   11.5547  -15.5159   27.7978 C   0  0  0  0  0  0  0  0  0  0  0  0
   12.8788  -17.3213   25.7501 C   0  0  0  0  0  0  0  0  0  0  0  0
   14.0039  -17.2502   26.3400 O   0  0  0  0  0  0  0  0  0  0  0  0
   12.1132  -18.4251   26.0195 O   0  0  0  0  0  0  0  0  0  0  0  0
  2  1  1  1
  3  2  1  0
  4  3  1  0
  5  4  2  0
  6  5  1  0
  7  6  1  0
  7 12  2  0
  8  9  2  0
  8  7  1  0
  9 10  1  0
 10 11  2  0
 12 11  1  0
 12  4  1  0
 13  2  1  0
 13 14  2  0
 15 13  1  0
 16 15  1  0
 17 18  1  0
 17 16  1  0
 19 18  1  0
 19 15  1  0
 19 20  1  1
 21 20  2  0
 22 20  1  0
 23 22  1  0
 23 24  1  1
 24 25  1  0
 25 26  2  0
 26 27  1  0
 28 27  2  0
 29 28  1  0
 30 29  2  0
 30 25  1  0
 31 33  1  0
 31 23  1  0
 32 31  2  0
M  END
$$$$
