RYK.pdb
     RDKit          3D

 33 33  0  0  1  0  0  0  0  0999 V2000
    8.7413  -12.1717   17.0939 N   0  0  0  0  0  0  0  0  0  0  0  0
    7.7599  -13.1618   16.7878 C   0  0  0  0  0  0  0  0  0  0  0  0
    7.6084  -13.4713   15.5613 N   0  0  0  0  0  0  0  0  0  0  0  0
    6.9773  -13.7846   17.7865 N   0  0  0  0  0  0  0  0  0  0  0  0
    7.2233  -13.4884   19.2127 C   0  0  0  0  0  0  0  0  0  0  0  0
    7.5387  -14.7394   19.9440 C   0  0  0  0  0  0  0  0  0  0  0  0
    8.9817  -15.0839   19.9632 C   0  0  0  0  0  0  0  0  0  0  0  0
    9.2941  -16.3210   20.7165 C   0  0  2  0  0  0  0  0  0  0  0  0
    8.0902  -17.0794   21.0097 N   0  0  0  0  0  0  0  0  0  0  0  0
    9.9114  -15.9509   22.0461 C   0  0  0  0  0  0  0  0  0  0  0  0
   11.0462  -15.4549   22.1194 O   0  0  0  0  0  0  0  0  0  0  0  0
    6.9063  -14.1568   15.2555 O   0  0  0  0  0  0  0  0  0  0  0  0
   10.9650  -14.6068   30.6928 C   0  0  0  0  0  0  0  0  0  0  0  0
   10.3915  -14.8259   29.4263 C   0  0  0  0  0  0  0  0  0  0  0  0
   10.2838  -13.8073   28.5062 C   0  0  0  0  0  0  0  0  0  0  0  0
    9.7221  -14.0374   27.2749 C   0  0  0  0  0  0  0  0  0  0  0  0
    9.2404  -15.2743   26.8878 C   0  0  0  0  0  0  0  0  0  0  0  0
    8.6448  -15.4685   25.5399 C   0  0  1  0  0  0  0  0  0  0  0  0
    9.6507  -15.8751   24.5388 N   0  0  0  0  0  0  0  0  0  0  0  0
    9.1748  -16.1786   23.2188 C   0  0  0  0  0  0  0  0  0  0  0  0
   10.5094  -16.9854   25.0252 O   0  0  0  0  0  0  0  0  0  0  0  0
   11.2906  -16.7997   26.0193 C   0  0  0  0  0  0  0  0  0  0  0  0
    9.3527  -16.2889   27.8171 C   0  0  0  0  0  0  0  0  0  0  0  0
    9.9176  -16.0686   29.0625 N   0  0  0  0  0  0  0  0  0  0  0  0
   10.5272  -18.2660   24.4544 C   0  0  2  0  0  0  0  0  0  0  0  0
   11.3204  -19.3900   25.0466 C   0  0  0  0  0  0  0  0  0  0  0  0
   12.6104  -19.3574   24.3132 C   0  0  0  0  0  0  0  0  0  0  0  0
   12.9575  -20.2892   23.2662 C   0  0  0  0  0  0  0  0  0  0  0  0
   14.1059  -20.2508   22.3755 C   0  0  0  0  0  0  0  0  0  0  0  0
   14.3330  -21.2133   21.2965 N   0  0  0  0  0  0  0  0  0  0  0  0
   15.5253  -21.1388   20.5413 C   0  0  0  0  0  0  0  0  0  0  0  0
   11.6041  -19.0955   26.4747 O   0  0  0  0  0  0  0  0  0  0  0  0
   11.3999  -20.0138   27.3078 O   0  0  0  0  0  0  0  0  0  0  0  0
  2  3  2  0
  2  1  1  0
  4  2  1  0
  5  4  1  0
  6  5  1  0
  7  6  1  0
  8  7  1  0
  8 10  1  0
  8  9  1  1
 10 19  1  0
 10 11  2  0
 12 13  1  0
 13 23  2  0
 13 14  1  0
 14 15  2  0
 15 16  1  0
 16 17  1  0
 18 17  1  6
 19 18  1  0
 20 18  1  0
 20 24  1  0
 21 20  2  0
 22 16  2  0
 23 22  1  0
 25 26  1  6
 25 31  1  0
 25 24  1  0
 26 27  1  0
 27 28  1  0
 28 29  1  0
 29 30  1  0
 31 33  1  0
 32 31  2  0
M  END
$$$$
