RYK.pdb
     RDKit          3D

 33 33  0  0  1  0  0  0  0  0999 V2000
   10.3137  -18.5979   14.3648 N   0  0  0  0  0  0  0  0  0  0  0  0
    9.6883  -17.5193   15.0595 C   0  0  0  0  0  0  0  0  0  0  0  0
    9.9553  -16.3386   14.6622 N   0  0  0  0  0  0  0  0  0  0  0  0
    8.8081  -17.7287   16.1454 N   0  0  0  0  0  0  0  0  0  0  0  0
    9.0771  -17.0917   17.4508 C   0  0  0  0  0  0  0  0  0  0  0  0
   10.4737  -17.3625   17.8697 C   0  0  0  0  0  0  0  0  0  0  0  0
   10.8272  -16.8069   19.1992 C   0  0  0  0  0  0  0  0  0  0  0  0
   10.2663  -17.5709   20.3382 C   0  0  2  0  0  0  0  0  0  0  0  0
    8.8903  -17.9625   20.0854 N   0  0  0  0  0  0  0  0  0  0  0  0
   10.2508  -16.6910   21.5675 C   0  0  0  0  0  0  0  0  0  0  0  0
   11.2571  -16.0611   21.9277 O   0  0  0  0  0  0  0  0  0  0  0  0
    9.5384  -15.5087   15.1027 O   0  0  0  0  0  0  0  0  0  0  0  0
    7.2718  -12.1546   18.3694 C   0  0  0  0  0  0  0  0  0  0  0  0
    7.3963  -12.7976   19.6152 C   0  0  0  0  0  0  0  0  0  0  0  0
    6.6996  -13.9519   19.8949 C   0  0  0  0  0  0  0  0  0  0  0  0
    6.8322  -14.5671   21.1150 C   0  0  0  0  0  0  0  0  0  0  0  0
    7.6523  -14.0813   22.1165 C   0  0  0  0  0  0  0  0  0  0  0  0
    7.7611  -14.7902   23.4184 C   0  0  2  0  0  0  0  0  0  0  0  0
    8.8985  -15.7308   23.4481 N   0  0  0  0  0  0  0  0  0  0  0  0
    9.0651  -16.5923   22.3118 C   0  0  0  0  0  0  0  0  0  0  0  0
    8.9252  -16.5399   24.6936 O   0  0  0  0  0  0  0  0  0  0  0  0
    7.8510  -17.0792   25.1275 C   0  0  0  0  0  0  0  0  0  0  0  0
    8.3462  -12.9237   21.8267 C   0  0  0  0  0  0  0  0  0  0  0  0
    8.2205  -12.2941   20.5993 N   0  0  0  0  0  0  0  0  0  0  0  0
   10.0815  -16.7630   25.4548 C   0  0  1  0  0  0  0  0  0  0  0  0
   10.1093  -17.7367   26.5925 C   0  0  0  0  0  0  0  0  0  0  0  0
   10.9186  -18.8730   26.0856 C   0  0  0  0  0  0  0  0  0  0  0  0
   11.2213  -20.0490   26.8667 C   0  0  0  0  0  0  0  0  0  0  0  0
   11.9941  -21.2149   26.4703 C   0  0  0  0  0  0  0  0  0  0  0  0
   12.2560  -22.3562   27.3485 N   0  0  0  0  0  0  0  0  0  0  0  0
   11.4366  -23.5040   27.2556 C   0  0  0  0  0  0  0  0  0  0  0  0
   10.8395  -17.1366   27.7385 O   0  0  0  0  0  0  0  0  0  0  0  0
   11.6741  -16.2322   27.4849 O   0  0  0  0  0  0  0  0  0  0  0  0
  2  3  2  0
  2  1  1  0
  4  2  1  0
  5  4  1  0
  6  5  1  0
  7  6  1  0
  8  7  1  0
  8 10  1  0
  8  9  1  6
 10 19  1  0
 10 11  2  0
 12 13  1  0
 13 23  2  0
 13 14  1  0
 14 15  2  0
 15 16  1  0
 16 17  1  0
 18 17  1  6
 19 18  1  0
 20 18  1  0
 20 24  1  0
 21 20  2  0
 22 16  2  0
 23 22  1  0
 25 26  1  1
 25 31  1  0
 25 24  1  0
 26 27  1  0
 27 28  1  0
 28 29  1  0
 29 30  1  0
 31 33  1  0
 32 31  2  0
M  END
$$$$
