RYK.pdb
     RDKit          3D

 33 33  0  0  1  0  0  0  0  0999 V2000
    9.4937  -17.9219   15.7775 N   0  0  0  0  0  0  0  0  0  0  0  0
    9.0322  -19.2539   16.0009 C   0  0  0  0  0  0  0  0  0  0  0  0
    9.3733  -20.1384   15.1498 N   0  0  0  0  0  0  0  0  0  0  0  0
    8.2290  -19.5993   17.1115 N   0  0  0  0  0  0  0  0  0  0  0  0
    7.8864  -18.5796   18.1240 C   0  0  0  0  0  0  0  0  0  0  0  0
    9.1104  -17.8631   18.5573 C   0  0  0  0  0  0  0  0  0  0  0  0
    9.1734  -17.5957   20.0153 C   0  0  0  0  0  0  0  0  0  0  0  0
    8.6784  -16.2537   20.4020 C   0  0  2  0  0  0  0  0  0  0  0  0
    9.1476  -15.2321   19.4820 N   0  0  0  0  0  0  0  0  0  0  0  0
    9.2240  -15.8967   21.7660 C   0  0  0  0  0  0  0  0  0  0  0  0
   10.4078  -16.1119   22.0684 O   0  0  0  0  0  0  0  0  0  0  0  0
    9.1420  -21.1320   15.2749 O   0  0  0  0  0  0  0  0  0  0  0  0
    9.4905  -13.6141   30.2818 C   0  0  0  0  0  0  0  0  0  0  0  0
    9.0804  -13.7480   28.9421 C   0  0  0  0  0  0  0  0  0  0  0  0
    8.3374  -14.8309   28.5284 C   0  0  0  0  0  0  0  0  0  0  0  0
    7.9451  -14.9466   27.2180 C   0  0  0  0  0  0  0  0  0  0  0  0
    8.2615  -14.0084   26.2530 C   0  0  0  0  0  0  0  0  0  0  0  0
    7.8072  -14.1820   24.8484 C   0  0  1  0  0  0  0  0  0  0  0  0
    8.7226  -15.0377   24.0678 N   0  0  0  0  0  0  0  0  0  0  0  0
    8.3621  -15.3090   22.7049 C   0  0  0  0  0  0  0  0  0  0  0  0
    9.0292  -16.3133   24.7644 O   0  0  0  0  0  0  0  0  0  0  0  0
    8.1667  -17.2562   24.7783 C   0  0  0  0  0  0  0  0  0  0  0  0
    9.0067  -12.9267   26.6774 C   0  0  0  0  0  0  0  0  0  0  0  0
    9.4083  -12.7991   27.9969 N   0  0  0  0  0  0  0  0  0  0  0  0
   10.2361  -16.5682   25.4311 C   0  0  2  0  0  0  0  0  0  0  0  0
   10.5221  -17.8860   26.0826 C   0  0  0  0  0  0  0  0  0  0  0  0
   11.7671  -18.3589   25.4270 C   0  0  0  0  0  0  0  0  0  0  0  0
   12.4293  -19.5956   25.7686 C   0  0  0  0  0  0  0  0  0  0  0  0
   13.6391  -20.1555   25.1883 C   0  0  0  0  0  0  0  0  0  0  0  0
   14.2395  -21.4194   25.6176 N   0  0  0  0  0  0  0  0  0  0  0  0
   15.4084  -21.8849   24.9738 C   0  0  0  0  0  0  0  0  0  0  0  0
   10.8219  -17.6711   27.5215 O   0  0  0  0  0  0  0  0  0  0  0  0
   10.2577  -18.4279   28.3508 O   0  0  0  0  0  0  0  0  0  0  0  0
  2  3  2  0
  2  1  1  0
  4  2  1  0
  5  4  1  0
  6  5  1  0
  7  6  1  0
  8  7  1  0
  8 10  1  0
  8  9  1  6
 10 19  1  0
 10 11  2  0
 12 13  1  0
 13 23  2  0
 13 14  1  0
 14 15  2  0
 15 16  1  0
 16 17  1  0
 18 17  1  6
 19 18  1  0
 20 18  1  0
 20 24  1  0
 21 20  2  0
 22 16  2  0
 23 22  1  0
 25 26  1  6
 25 31  1  0
 25 24  1  0
 26 27  1  0
 27 28  1  0
 28 29  1  0
 29 30  1  0
 31 33  1  0
 32 31  2  0
M  END
$$$$
