RYK.pdb
     RDKit          3D

 33 33  0  0  1  0  0  0  0  0999 V2000
    8.5580  -17.1720   15.5181 N   0  0  0  0  0  0  0  0  0  0  0  0
    8.2453  -18.0953   16.5606 C   0  0  0  0  0  0  0  0  0  0  0  0
    8.6694  -19.2893   16.4271 N   0  0  0  0  0  0  0  0  0  0  0  0
    7.4973  -17.7233   17.7007 N   0  0  0  0  0  0  0  0  0  0  0  0
    6.9508  -16.3556   17.8146 C   0  0  0  0  0  0  0  0  0  0  0  0
    8.0245  -15.4109   18.2070 C   0  0  0  0  0  0  0  0  0  0  0  0
    8.3843  -15.4644   19.6454 C   0  0  0  0  0  0  0  0  0  0  0  0
    7.6288  -14.5093   20.4896 C   0  0  2  0  0  0  0  0  0  0  0  0
    7.7532  -13.1505   19.9912 N   0  0  0  0  0  0  0  0  0  0  0  0
    8.2064  -14.5163   21.8868 C   0  0  0  0  0  0  0  0  0  0  0  0
    9.2819  -13.9554   22.1475 O   0  0  0  0  0  0  0  0  0  0  0  0
    8.4683  -20.0194   17.1220 O   0  0  0  0  0  0  0  0  0  0  0  0
    6.3584   -9.7106   26.9069 C   0  0  0  0  0  0  0  0  0  0  0  0
    6.5252  -11.0549   26.5246 C   0  0  0  0  0  0  0  0  0  0  0  0
    5.4953  -11.7665   25.9515 C   0  0  0  0  0  0  0  0  0  0  0  0
    5.6742  -13.0770   25.5839 C   0  0  0  0  0  0  0  0  0  0  0  0
    6.8686  -13.7507   25.7602 C   0  0  0  0  0  0  0  0  0  0  0  0
    7.0084  -15.1697   25.3402 C   0  0  2  0  0  0  0  0  0  0  0  0
    7.9868  -15.3341   24.2470 N   0  0  0  0  0  0  0  0  0  0  0  0
    7.5014  -15.1763   22.9051 C   0  0  0  0  0  0  0  0  0  0  0  0
    8.7411  -16.6091   24.3561 O   0  0  0  0  0  0  0  0  0  0  0  0
    8.2341  -17.6914   23.9038 C   0  0  0  0  0  0  0  0  0  0  0  0
    7.8950  -13.0290   26.3357 C   0  0  0  0  0  0  0  0  0  0  0  0
    7.7263  -11.7062   26.7106 N   0  0  0  0  0  0  0  0  0  0  0  0
   10.0118  -16.7168   24.9391 C   0  0  2  0  0  0  0  0  0  0  0  0
   10.7085  -18.0339   25.0906 C   0  0  0  0  0  0  0  0  0  0  0  0
   12.1070  -17.7612   24.6749 C   0  0  0  0  0  0  0  0  0  0  0  0
   13.1701  -18.7344   24.7616 C   0  0  0  0  0  0  0  0  0  0  0  0
   14.5811  -18.5509   24.4629 C   0  0  0  0  0  0  0  0  0  0  0  0
   15.6032  -19.5723   24.6963 N   0  0  0  0  0  0  0  0  0  0  0  0
   16.9162  -19.3601   24.2183 C   0  0  0  0  0  0  0  0  0  0  0  0
   10.7297  -18.4194   26.5251 O   0  0  0  0  0  0  0  0  0  0  0  0
   10.5022  -17.5187   27.3711 O   0  0  0  0  0  0  0  0  0  0  0  0
  2  3  2  0
  2  1  1  0
  4  2  1  0
  5  4  1  0
  6  5  1  0
  7  6  1  0
  8  7  1  0
  8 10  1  0
  8  9  1  6
 10 19  1  0
 10 11  2  0
 12 13  1  0
 13 23  2  0
 13 14  1  0
 14 15  2  0
 15 16  1  0
 16 17  1  0
 18 17  1  1
 19 18  1  0
 20 18  1  0
 20 24  1  0
 21 20  2  0
 22 16  2  0
 23 22  1  0
 25 26  1  6
 25 31  1  0
 25 24  1  0
 26 27  1  0
 27 28  1  0
 28 29  1  0
 29 30  1  0
 31 33  1  0
 32 31  2  0
M  END
$$$$
