RYK.pdb
     RDKit          3D

 33 33  0  0  1  0  0  0  0  0999 V2000
    9.1243  -14.9640   16.4667 N   0  0  0  0  0  0  0  0  0  0  0  0
    8.3734  -13.8597   15.9629 C   0  0  0  0  0  0  0  0  0  0  0  0
    8.1182  -13.8504   14.7147 N   0  0  0  0  0  0  0  0  0  0  0  0
    7.9230  -12.8094   16.7947 N   0  0  0  0  0  0  0  0  0  0  0  0
    8.1278  -12.8816   18.2559 C   0  0  0  0  0  0  0  0  0  0  0  0
    7.3624  -14.0197   18.8202 C   0  0  0  0  0  0  0  0  0  0  0  0
    7.3609  -14.0745   20.3028 C   0  0  0  0  0  0  0  0  0  0  0  0
    7.6524  -15.4184   20.8547 C   0  0  2  0  0  0  0  0  0  0  0  0
    6.4374  -16.0866   21.2882 N   0  0  0  0  0  0  0  0  0  0  0  0
    8.5308  -15.2740   22.0767 C   0  0  0  0  0  0  0  0  0  0  0  0
    9.7516  -15.0760   21.9789 O   0  0  0  0  0  0  0  0  0  0  0  0
    7.6787  -13.0431   14.2549 O   0  0  0  0  0  0  0  0  0  0  0  0
   11.1934  -14.8022   30.4672 C   0  0  0  0  0  0  0  0  0  0  0  0
   10.3959  -14.7938   29.3075 C   0  0  0  0  0  0  0  0  0  0  0  0
   10.2555  -13.6549   28.5467 C   0  0  0  0  0  0  0  0  0  0  0  0
    9.4741  -13.6632   27.4180 C   0  0  0  0  0  0  0  0  0  0  0  0
    8.7948  -14.7858   26.9824 C   0  0  0  0  0  0  0  0  0  0  0  0
    7.9649  -14.7397   25.7501 C   0  0  1  0  0  0  0  0  0  0  0  0
    8.6723  -15.2965   24.5800 N   0  0  0  0  0  0  0  0  0  0  0  0
    7.9411  -15.3688   23.3467 C   0  0  0  0  0  0  0  0  0  0  0  0
    9.2866  -16.6171   24.8720 O   0  0  0  0  0  0  0  0  0  0  0  0
    8.5436  -17.6422   25.0460 C   0  0  0  0  0  0  0  0  0  0  0  0
    8.9415  -15.9224   27.7519 C   0  0  0  0  0  0  0  0  0  0  0  0
    9.7273  -15.9261   28.8926 N   0  0  0  0  0  0  0  0  0  0  0  0
   10.6688  -16.8295   24.9747 C   0  0  2  0  0  0  0  0  0  0  0  0
   11.2489  -18.1889   25.2163 C   0  0  0  0  0  0  0  0  0  0  0  0
   12.3579  -18.2962   24.2356 C   0  0  0  0  0  0  0  0  0  0  0  0
   13.1907  -19.4675   24.0968 C   0  0  0  0  0  0  0  0  0  0  0  0
   14.2920  -19.6808   23.1719 C   0  0  0  0  0  0  0  0  0  0  0  0
   15.0930  -20.9050   23.1268 N   0  0  0  0  0  0  0  0  0  0  0  0
   16.2345  -20.9556   22.2951 C   0  0  0  0  0  0  0  0  0  0  0  0
   11.8420  -18.2381   26.5774 O   0  0  0  0  0  0  0  0  0  0  0  0
   12.1819  -17.1479   27.1016 O   0  0  0  0  0  0  0  0  0  0  0  0
  2  3  2  0
  2  1  1  0
  4  2  1  0
  5  4  1  0
  6  5  1  0
  7  6  1  0
  8  7  1  0
  8 10  1  0
  8  9  1  1
 10 19  1  0
 10 11  2  0
 12 13  1  0
 13 23  2  0
 13 14  1  0
 14 15  2  0
 15 16  1  0
 16 17  1  0
 18 17  1  6
 19 18  1  0
 20 18  1  0
 20 24  1  0
 21 20  2  0
 22 16  2  0
 23 22  1  0
 25 26  1  6
 25 31  1  0
 25 24  1  0
 26 27  1  0
 27 28  1  0
 28 29  1  0
 29 30  1  0
 31 33  1  0
 32 31  2  0
M  END
$$$$
