RYK.pdb
     RDKit          3D

 33 33  0  0  1  0  0  0  0  0999 V2000
    8.0561  -18.5708   15.9845 N   0  0  0  0  0  0  0  0  0  0  0  0
    7.0851  -17.5475   16.2017 C   0  0  0  0  0  0  0  0  0  0  0  0
    6.0062  -17.6164   15.5275 N   0  0  0  0  0  0  0  0  0  0  0  0
    7.2910  -16.4924   17.1194 N   0  0  0  0  0  0  0  0  0  0  0  0
    8.5765  -16.3754   17.8378 C   0  0  0  0  0  0  0  0  0  0  0  0
    8.5754  -15.1588   18.6858 C   0  0  0  0  0  0  0  0  0  0  0  0
    7.5477  -15.1657   19.7559 C   0  0  0  0  0  0  0  0  0  0  0  0
    7.4923  -13.9121   20.5438 C   0  0  2  0  0  0  0  0  0  0  0  0
    8.0573  -12.7972   19.8035 N   0  0  0  0  0  0  0  0  0  0  0  0
    8.3270  -14.0735   21.7941 C   0  0  0  0  0  0  0  0  0  0  0  0
    9.5638  -13.9804   21.7655 O   0  0  0  0  0  0  0  0  0  0  0  0
    5.3037  -16.8664   15.5463 O   0  0  0  0  0  0  0  0  0  0  0  0
   10.7765  -14.5947   30.2103 C   0  0  0  0  0  0  0  0  0  0  0  0
    9.9847  -14.5160   29.0493 C   0  0  0  0  0  0  0  0  0  0  0  0
    9.8000  -13.3205   28.3917 C   0  0  0  0  0  0  0  0  0  0  0  0
    9.0248  -13.2606   27.2603 C   0  0  0  0  0  0  0  0  0  0  0  0
    8.3954  -14.3671   26.7209 C   0  0  0  0  0  0  0  0  0  0  0  0
    7.5700  -14.2458   25.4907 C   0  0  2  0  0  0  0  0  0  0  0  0
    8.3547  -14.4961   24.2655 N   0  0  0  0  0  0  0  0  0  0  0  0
    7.6771  -14.3353   23.0101 C   0  0  0  0  0  0  0  0  0  0  0  0
    9.0379  -15.8147   24.2964 O   0  0  0  0  0  0  0  0  0  0  0  0
    8.3659  -16.8862   24.1141 C   0  0  0  0  0  0  0  0  0  0  0  0
    8.5864  -15.5608   27.3874 C   0  0  0  0  0  0  0  0  0  0  0  0
    9.3663  -15.6336   28.5298 N   0  0  0  0  0  0  0  0  0  0  0  0
   10.4129  -15.9764   24.5188 C   0  0  2  0  0  0  0  0  0  0  0  0
   11.0875  -17.3079   24.3958 C   0  0  0  0  0  0  0  0  0  0  0  0
   12.4386  -16.9895   23.8701 C   0  0  0  0  0  0  0  0  0  0  0  0
   13.4653  -17.9812   23.6536 C   0  0  0  0  0  0  0  0  0  0  0  0
   14.7699  -17.8023   23.0372 C   0  0  0  0  0  0  0  0  0  0  0  0
   15.7630  -18.8695   22.9068 N   0  0  0  0  0  0  0  0  0  0  0  0
   16.9921  -18.5972   22.2644 C   0  0  0  0  0  0  0  0  0  0  0  0
   11.2560  -17.9030   25.7464 O   0  0  0  0  0  0  0  0  0  0  0  0
   11.2640  -17.1193   26.7285 O   0  0  0  0  0  0  0  0  0  0  0  0
  2  3  2  0
  2  1  1  0
  4  2  1  0
  5  4  1  0
  6  5  1  0
  7  6  1  0
  8  7  1  0
  8 10  1  0
  8  9  1  6
 10 19  1  0
 10 11  2  0
 12 13  1  0
 13 23  2  0
 13 14  1  0
 14 15  2  0
 15 16  1  0
 16 17  1  0
 18 17  1  6
 19 18  1  0
 20 18  1  0
 20 24  1  0
 21 20  2  0
 22 16  2  0
 23 22  1  0
 25 26  1  1
 25 31  1  0
 25 24  1  0
 26 27  1  0
 27 28  1  0
 28 29  1  0
 29 30  1  0
 31 33  1  0
 32 31  2  0
M  END
$$$$
