RYK.pdb
     RDKit          3D

 33 33  0  0  1  0  0  0  0  0999 V2000
    9.6256  -12.9988   19.5328 N   0  0  0  0  0  0  0  0  0  0  0  0
    8.7231  -13.2038   18.4462 C   0  0  0  0  0  0  0  0  0  0  0  0
    7.9983  -12.2158   18.0974 N   0  0  0  0  0  0  0  0  0  0  0  0
    8.6203  -14.4419   17.7723 N   0  0  0  0  0  0  0  0  0  0  0  0
    8.2374  -15.6603   18.5148 C   0  0  0  0  0  0  0  0  0  0  0  0
    9.1587  -16.7719   18.1760 C   0  0  0  0  0  0  0  0  0  0  0  0
   10.2265  -17.0027   19.1799 C   0  0  0  0  0  0  0  0  0  0  0  0
    9.7555  -17.6728   20.4148 C   0  0  2  0  0  0  0  0  0  0  0  0
    8.3985  -18.1685   20.2623 N   0  0  0  0  0  0  0  0  0  0  0  0
    9.7292  -16.6695   21.5455 C   0  0  0  0  0  0  0  0  0  0  0  0
   10.7332  -16.0069   21.8490 O   0  0  0  0  0  0  0  0  0  0  0  0
    7.2979  -12.2919   17.3490 O   0  0  0  0  0  0  0  0  0  0  0  0
    6.8448  -11.5848   28.1537 C   0  0  0  0  0  0  0  0  0  0  0  0
    6.9199  -12.3782   26.9936 C   0  0  0  0  0  0  0  0  0  0  0  0
    6.3044  -13.6082   26.9297 C   0  0  0  0  0  0  0  0  0  0  0  0
    6.3869  -14.3699   25.7905 C   0  0  0  0  0  0  0  0  0  0  0  0
    7.0750  -13.9630   24.6625 C   0  0  0  0  0  0  0  0  0  0  0  0
    7.1290  -14.8268   23.4541 C   0  0  1  0  0  0  0  0  0  0  0  0
    8.3898  -15.5900   23.3698 N   0  0  0  0  0  0  0  0  0  0  0  0
    8.5359  -16.4922   22.2627 C   0  0  0  0  0  0  0  0  0  0  0  0
    8.7002  -16.3023   24.6359 O   0  0  0  0  0  0  0  0  0  0  0  0
    7.9407  -17.2476   25.0392 C   0  0  0  0  0  0  0  0  0  0  0  0
    7.6888  -12.7288   24.7365 C   0  0  0  0  0  0  0  0  0  0  0  0
    7.6125  -11.9513   25.8803 N   0  0  0  0  0  0  0  0  0  0  0  0
    9.8025  -16.0038   25.4494 C   0  0  2  0  0  0  0  0  0  0  0  0
   10.1637  -16.8402   26.6381 C   0  0  0  0  0  0  0  0  0  0  0  0
   11.4908  -17.4111   26.2977 C   0  0  0  0  0  0  0  0  0  0  0  0
   11.8363  -18.7996   26.4916 C   0  0  0  0  0  0  0  0  0  0  0  0
   13.0925  -19.4632   26.1825 C   0  0  0  0  0  0  0  0  0  0  0  0
   13.3483  -20.8821   26.4345 N   0  0  0  0  0  0  0  0  0  0  0  0
   13.0422  -21.8298   25.4318 C   0  0  0  0  0  0  0  0  0  0  0  0
   10.3390  -15.9633   27.8243 O   0  0  0  0  0  0  0  0  0  0  0  0
   10.6705  -14.7689   27.6186 O   0  0  0  0  0  0  0  0  0  0  0  0
  2  3  2  0
  2  1  1  0
  4  2  1  0
  5  4  1  0
  6  5  1  0
  7  6  1  0
  8  7  1  0
  8 10  1  0
  8  9  1  6
 10 19  1  0
 10 11  2  0
 12 13  1  0
 13 23  2  0
 13 14  1  0
 14 15  2  0
 15 16  1  0
 16 17  1  0
 18 17  1  6
 19 18  1  0
 20 18  1  0
 20 24  1  0
 21 20  2  0
 22 16  2  0
 23 22  1  0
 25 26  1  6
 25 31  1  0
 25 24  1  0
 26 27  1  0
 27 28  1  0
 28 29  1  0
 29 30  1  0
 31 33  1  0
 32 31  2  0
M  END
$$$$
