RYK.pdb
     RDKit          3D

 33 33  0  0  1  0  0  0  0  0999 V2000
    9.5976  -14.5461   16.8193 N   0  0  0  0  0  0  0  0  0  0  0  0
    8.3573  -13.8540   16.6785 C   0  0  0  0  0  0  0  0  0  0  0  0
    8.3692  -12.7679   16.0125 N   0  0  0  0  0  0  0  0  0  0  0  0
    7.1551  -14.3338   17.2462 N   0  0  0  0  0  0  0  0  0  0  0  0
    6.8498  -14.0702   18.6673 C   0  0  0  0  0  0  0  0  0  0  0  0
    8.1081  -13.9376   19.4408 C   0  0  0  0  0  0  0  0  0  0  0  0
    7.9590  -14.2037   20.8928 C   0  0  0  0  0  0  0  0  0  0  0  0
    8.3253  -15.5830   21.2916 C   0  0  2  0  0  0  0  0  0  0  0  0
    7.1797  -16.4740   21.2255 N   0  0  0  0  0  0  0  0  0  0  0  0
    8.7915  -15.5774   22.7297 C   0  0  0  0  0  0  0  0  0  0  0  0
    9.8215  -14.9787   23.0759 O   0  0  0  0  0  0  0  0  0  0  0  0
    7.5102  -12.2369   15.8216 O   0  0  0  0  0  0  0  0  0  0  0  0
    6.3168  -10.2494   26.1598 C   0  0  0  0  0  0  0  0  0  0  0  0
    6.5247  -11.6407   26.1154 C   0  0  0  0  0  0  0  0  0  0  0  0
    7.7387  -12.1917   26.4596 C   0  0  0  0  0  0  0  0  0  0  0  0
    7.9253  -13.5509   26.4113 C   0  0  0  0  0  0  0  0  0  0  0  0
    6.9331  -14.4326   26.0243 C   0  0  0  0  0  0  0  0  0  0  0  0
    7.1888  -15.8965   25.9936 C   0  0  2  0  0  0  0  0  0  0  0  0
    8.3072  -16.2487   25.0966 N   0  0  0  0  0  0  0  0  0  0  0  0
    8.0341  -16.2695   23.6873 C   0  0  0  0  0  0  0  0  0  0  0  0
    8.9666  -17.5191   25.4941 O   0  0  0  0  0  0  0  0  0  0  0  0
    8.2822  -18.5953   25.5750 C   0  0  0  0  0  0  0  0  0  0  0  0
    5.7200  -13.8706   25.6809 C   0  0  0  0  0  0  0  0  0  0  0  0
    5.5198  -12.5007   25.7259 N   0  0  0  0  0  0  0  0  0  0  0  0
   10.3310  -17.6286   25.7980 C   0  0  1  0  0  0  0  0  0  0  0  0
   10.9524  -18.9272   26.2107 C   0  0  0  0  0  0  0  0  0  0  0  0
   12.2089  -19.0012   25.4240 C   0  0  0  0  0  0  0  0  0  0  0  0
   12.2456  -19.0662   23.9820 C   0  0  0  0  0  0  0  0  0  0  0  0
   13.4102  -19.1695   23.1179 C   0  0  0  0  0  0  0  0  0  0  0  0
   13.3440  -19.1569   21.6558 N   0  0  0  0  0  0  0  0  0  0  0  0
   14.5414  -19.2192   20.9076 C   0  0  0  0  0  0  0  0  0  0  0  0
   11.3216  -18.8635   27.6482 O   0  0  0  0  0  0  0  0  0  0  0  0
   11.8373  -19.8884   28.1605 O   0  0  0  0  0  0  0  0  0  0  0  0
  2  3  2  0
  2  1  1  0
  4  2  1  0
  5  4  1  0
  6  5  1  0
  7  6  1  0
  8  7  1  0
  8 10  1  0
  8  9  1  1
 10 19  1  0
 10 11  2  0
 12 13  1  0
 13 23  2  0
 13 14  1  0
 14 15  2  0
 15 16  1  0
 16 17  1  0
 18 17  1  6
 19 18  1  0
 20 18  1  0
 20 24  1  0
 21 20  2  0
 22 16  2  0
 23 22  1  0
 25 26  1  6
 25 31  1  0
 25 24  1  0
 26 27  1  0
 27 28  1  0
 28 29  1  0
 29 30  1  0
 31 33  1  0
 32 31  2  0
M  END
$$$$
