RYK.pdb
     RDKit          3D

 33 33  0  0  1  0  0  0  0  0999 V2000
    9.6335  -19.3719   15.5943 N   0  0  0  0  0  0  0  0  0  0  0  0
    8.2908  -19.6761   15.9710 C   0  0  0  0  0  0  0  0  0  0  0  0
    7.4015  -19.6077   15.0612 N   0  0  0  0  0  0  0  0  0  0  0  0
    7.9398  -20.0387   17.2912 N   0  0  0  0  0  0  0  0  0  0  0  0
    8.0501  -19.0519   18.3849 C   0  0  0  0  0  0  0  0  0  0  0  0
    7.5794  -17.7245   17.9204 C   0  0  0  0  0  0  0  0  0  0  0  0
    7.5886  -16.6758   18.9699 C   0  0  0  0  0  0  0  0  0  0  0  0
    8.5963  -16.8986   20.0332 C   0  0  2  0  0  0  0  0  0  0  0  0
    8.7118  -18.3082   20.3647 N   0  0  0  0  0  0  0  0  0  0  0  0
    8.1550  -16.1886   21.2929 C   0  0  0  0  0  0  0  0  0  0  0  0
    7.1499  -16.5504   21.9239 O   0  0  0  0  0  0  0  0  0  0  0  0
    6.3975  -19.6520   15.2770 O   0  0  0  0  0  0  0  0  0  0  0  0
    6.2766  -11.1274   28.0024 C   0  0  0  0  0  0  0  0  0  0  0  0
    6.4960  -11.8555   26.8181 C   0  0  0  0  0  0  0  0  0  0  0  0
    6.0995  -13.1691   26.7045 C   0  0  0  0  0  0  0  0  0  0  0  0
    6.3206  -13.8654   25.5423 C   0  0  0  0  0  0  0  0  0  0  0  0
    6.9395  -13.3084   24.4385 C   0  0  0  0  0  0  0  0  0  0  0  0
    7.1505  -14.1076   23.2032 C   0  0  1  0  0  0  0  0  0  0  0  0
    8.5823  -14.3291   22.9198 N   0  0  0  0  0  0  0  0  0  0  0  0
    8.9070  -15.0953   21.7500 C   0  0  0  0  0  0  0  0  0  0  0  0
    9.3076  -14.8810   24.0928 O   0  0  0  0  0  0  0  0  0  0  0  0
    9.4489  -14.1726   25.1470 C   0  0  0  0  0  0  0  0  0  0  0  0
    7.3335  -11.9912   24.5622 C   0  0  0  0  0  0  0  0  0  0  0  0
    7.1157  -11.2785   25.7298 N   0  0  0  0  0  0  0  0  0  0  0  0
    9.8684  -16.1656   24.1302 C   0  0  1  0  0  0  0  0  0  0  0  0
   10.6786  -16.6463   25.2944 C   0  0  0  0  0  0  0  0  0  0  0  0
   10.0201  -17.9118   25.7044 C   0  0  0  0  0  0  0  0  0  0  0  0
   10.5347  -18.7824   26.7349 C   0  0  0  0  0  0  0  0  0  0  0  0
    9.9921  -20.0521   27.1903 C   0  0  0  0  0  0  0  0  0  0  0  0
   10.5490  -20.8248   28.3017 N   0  0  0  0  0  0  0  0  0  0  0  0
    9.9798  -22.0762   28.6290 C   0  0  0  0  0  0  0  0  0  0  0  0
   12.0522  -16.9785   24.8369 O   0  0  0  0  0  0  0  0  0  0  0  0
   12.7545  -17.7014   25.5873 O   0  0  0  0  0  0  0  0  0  0  0  0
  2  3  2  0
  2  1  1  0
  4  2  1  0
  5  4  1  0
  6  5  1  0
  7  6  1  0
  8  7  1  0
  8 10  1  0
  8  9  1  1
 10 19  1  0
 10 11  2  0
 12 13  1  0
 13 23  2  0
 13 14  1  0
 14 15  2  0
 15 16  1  0
 16 17  1  0
 18 17  1  6
 19 18  1  0
 20 18  1  0
 20 24  1  0
 21 20  2  0
 22 16  2  0
 23 22  1  0
 25 26  1  1
 25 31  1  0
 25 24  1  0
 26 27  1  0
 27 28  1  0
 28 29  1  0
 29 30  1  0
 31 33  1  0
 32 31  2  0
M  END
$$$$
