RYK.pdb
     RDKit          3D

 33 33  0  0  1  0  0  0  0  0999 V2000
   10.0675  -13.5182   17.8017 N   0  0  0  0  0  0  0  0  0  0  0  0
    8.7109  -13.0758   17.8373 C   0  0  0  0  0  0  0  0  0  0  0  0
    8.5044  -11.8558   18.1408 N   0  0  0  0  0  0  0  0  0  0  0  0
    7.6272  -13.9374   17.5528 N   0  0  0  0  0  0  0  0  0  0  0  0
    7.8725  -15.3631   17.2539 C   0  0  0  0  0  0  0  0  0  0  0  0
    7.9951  -16.1325   18.5158 C   0  0  0  0  0  0  0  0  0  0  0  0
    9.3944  -16.3812   18.9416 C   0  0  0  0  0  0  0  0  0  0  0  0
    9.5143  -17.2640   20.1256 C   0  0  2  0  0  0  0  0  0  0  0  0
    8.3583  -18.1341   20.2553 N   0  0  0  0  0  0  0  0  0  0  0  0
    9.5640  -16.4150   21.3756 C   0  0  0  0  0  0  0  0  0  0  0  0
   10.6160  -15.8765   21.7533 O   0  0  0  0  0  0  0  0  0  0  0  0
    7.5560  -11.4722   18.2386 O   0  0  0  0  0  0  0  0  0  0  0  0
    6.8005  -11.9834   28.5187 C   0  0  0  0  0  0  0  0  0  0  0  0
    6.8595  -12.6419   27.2762 C   0  0  0  0  0  0  0  0  0  0  0  0
    6.9998  -11.9374   26.1016 C   0  0  0  0  0  0  0  0  0  0  0  0
    7.0560  -12.5947   24.8977 C   0  0  0  0  0  0  0  0  0  0  0  0
    6.9777  -13.9708   24.7883 C   0  0  0  0  0  0  0  0  0  0  0  0
    7.0476  -14.6312   23.4585 C   0  0  1  0  0  0  0  0  0  0  0  0
    8.2899  -15.4102   23.2872 N   0  0  0  0  0  0  0  0  0  0  0  0
    8.3867  -16.2391   22.1191 C   0  0  0  0  0  0  0  0  0  0  0  0
    8.6210  -16.2109   24.4938 O   0  0  0  0  0  0  0  0  0  0  0  0
    7.8501  -17.1621   24.8599 C   0  0  0  0  0  0  0  0  0  0  0  0
    6.8369  -14.6681   25.9713 C   0  0  0  0  0  0  0  0  0  0  0  0
    6.7791  -14.0158   27.1919 N   0  0  0  0  0  0  0  0  0  0  0  0
    9.7554  -15.9924   25.2885 C   0  0  1  0  0  0  0  0  0  0  0  0
   10.1909  -16.9676   26.3384 C   0  0  0  0  0  0  0  0  0  0  0  0
   11.4278  -17.5751   25.7869 C   0  0  0  0  0  0  0  0  0  0  0  0
   11.4346  -18.7472   24.9439 C   0  0  0  0  0  0  0  0  0  0  0  0
   12.5762  -19.4000   24.3239 C   0  0  0  0  0  0  0  0  0  0  0  0
   12.4735  -20.5852   23.4712 N   0  0  0  0  0  0  0  0  0  0  0  0
   13.6359  -21.0928   22.8478 C   0  0  0  0  0  0  0  0  0  0  0  0
   10.5606  -16.2307   27.5741 O   0  0  0  0  0  0  0  0  0  0  0  0
   10.7826  -14.9984   27.4700 O   0  0  0  0  0  0  0  0  0  0  0  0
  2  3  2  0
  2  1  1  0
  4  2  1  0
  5  4  1  0
  6  5  1  0
  7  6  1  0
  8  7  1  0
  8 10  1  0
  8  9  1  1
 10 19  1  0
 10 11  2  0
 12 13  1  0
 13 23  2  0
 13 14  1  0
 14 15  2  0
 15 16  1  0
 16 17  1  0
 18 17  1  6
 19 18  1  0
 20 18  1  0
 20 24  1  0
 21 20  2  0
 22 16  2  0
 23 22  1  0
 25 26  1  1
 25 31  1  0
 25 24  1  0
 26 27  1  0
 27 28  1  0
 28 29  1  0
 29 30  1  0
 31 33  1  0
 32 31  2  0
M  END
$$$$
