RYK.pdb
     RDKit          3D

 33 33  0  0  1  0  0  0  0  0999 V2000
    8.2539  -16.9088   15.7359 N   0  0  0  0  0  0  0  0  0  0  0  0
    8.6204  -15.7204   16.4363 C   0  0  0  0  0  0  0  0  0  0  0  0
    7.9993  -14.6504   16.1318 N   0  0  0  0  0  0  0  0  0  0  0  0
    9.6274  -15.7075   17.4280 N   0  0  0  0  0  0  0  0  0  0  0  0
   10.4275  -16.9219   17.6875 C   0  0  0  0  0  0  0  0  0  0  0  0
   10.0500  -17.5086   18.9961 C   0  0  0  0  0  0  0  0  0  0  0  0
   10.7214  -16.8794   20.1599 C   0  0  0  0  0  0  0  0  0  0  0  0
   10.3829  -17.5053   21.4596 C   0  0  2  0  0  0  0  0  0  0  0  0
    9.2007  -18.3425   21.3510 N   0  0  0  0  0  0  0  0  0  0  0  0
   10.0600  -16.4223   22.4638 C   0  0  0  0  0  0  0  0  0  0  0  0
   10.9126  -15.5963   22.8246 O   0  0  0  0  0  0  0  0  0  0  0  0
    8.2035  -13.7533   16.5898 O   0  0  0  0  0  0  0  0  0  0  0  0
    8.1464  -11.9982   18.5938 C   0  0  0  0  0  0  0  0  0  0  0  0
    7.9365  -12.6040   19.8468 C   0  0  0  0  0  0  0  0  0  0  0  0
    7.1607  -13.7346   19.9714 C   0  0  0  0  0  0  0  0  0  0  0  0
    6.9660  -14.3137   21.2007 C   0  0  0  0  0  0  0  0  0  0  0  0
    7.5212  -13.8131   22.3638 C   0  0  0  0  0  0  0  0  0  0  0  0
    7.2803  -14.4827   23.6688 C   0  0  2  0  0  0  0  0  0  0  0  0
    8.3546  -15.4345   24.0141 N   0  0  0  0  0  0  0  0  0  0  0  0
    8.7623  -16.3593   22.9945 C   0  0  0  0  0  0  0  0  0  0  0  0
    8.0668  -16.1741   25.2698 O   0  0  0  0  0  0  0  0  0  0  0  0
    7.6410  -15.5452   26.2976 C   0  0  0  0  0  0  0  0  0  0  0  0
    8.2971  -12.6794   22.2286 C   0  0  0  0  0  0  0  0  0  0  0  0
    8.5008  -12.0863   20.9935 N   0  0  0  0  0  0  0  0  0  0  0  0
    8.2338  -17.5586   25.4161 C   0  0  1  0  0  0  0  0  0  0  0  0
    8.0105  -18.2529   26.7242 C   0  0  0  0  0  0  0  0  0  0  0  0
    7.6363  -19.6388   26.3468 C   0  0  0  0  0  0  0  0  0  0  0  0
    7.4847  -20.7127   27.2999 C   0  0  0  0  0  0  0  0  0  0  0  0
    7.2710  -22.1258   27.0329 C   0  0  0  0  0  0  0  0  0  0  0  0
    7.0404  -23.1266   28.0757 N   0  0  0  0  0  0  0  0  0  0  0  0
    6.9368  -24.4896   27.7169 C   0  0  0  0  0  0  0  0  0  0  0  0
    9.2914  -18.3182   27.4738 O   0  0  0  0  0  0  0  0  0  0  0  0
   10.3552  -18.2013   26.8154 O   0  0  0  0  0  0  0  0  0  0  0  0
  2  3  2  0
  2  1  1  0
  4  2  1  0
  5  4  1  0
  6  5  1  0
  7  6  1  0
  8  7  1  0
  8 10  1  0
  8  9  1  6
 10 19  1  0
 10 11  2  0
 12 13  1  0
 13 23  2  0
 13 14  1  0
 14 15  2  0
 15 16  1  0
 16 17  1  0
 18 17  1  6
 19 18  1  0
 20 18  1  0
 20 24  1  0
 21 20  2  0
 22 16  2  0
 23 22  1  0
 25 26  1  1
 25 31  1  0
 25 24  1  0
 26 27  1  0
 27 28  1  0
 28 29  1  0
 29 30  1  0
 31 33  1  0
 32 31  2  0
M  END
$$$$
