HCV.pdb
     RDKit          3D

 24 24  0  0  1  0  0  0  0  0999 V2000
   10.0799  -16.8903   20.0333 N   0  0  0  0  0  0  0  0  0  0  0  0
   10.8783  -17.1377   21.1924 C   0  0  1  0  0  0  0  0  0  0  0  0
   12.3246  -16.7906   20.9674 C   0  0  0  0  0  0  0  0  0  0  0  0
   12.9234  -17.8818   20.1600 C   0  0  0  0  0  0  0  0  0  0  0  0
   12.5614  -19.2103   20.1828 C   0  0  0  0  0  0  0  0  0  0  0  0
   13.3357  -19.8830   19.3115 N   0  0  0  0  0  0  0  0  0  0  0  0
   14.1808  -19.0090   18.7370 C   0  0  0  0  0  0  0  0  0  0  0  0
   13.9197  -17.7797   19.2654 N   0  0  0  0  0  0  0  0  0  0  0  0
   10.3213  -16.3999   22.3803 C   0  0  0  0  0  0  0  0  0  0  0  0
   10.6629  -15.2170   22.5857 O   0  0  0  0  0  0  0  0  0  0  0  0
    9.4100  -17.0324   23.2733 N   0  0  0  0  0  0  0  0  0  0  0  0
    8.8396  -16.4780   24.4475 C   0  0  1  0  0  0  0  0  0  0  0  0
    7.4626  -16.9784   24.7622 C   0  0  0  0  0  0  0  0  0  0  0  0
    7.3940  -18.7970   24.7461 S   0  0  0  0  0  0  0  0  0  0  0  0
    9.6863  -16.5863   25.6735 C   0  0  0  0  0  0  0  0  0  0  0  0
   10.5653  -17.4732   25.7322 O   0  0  0  0  0  0  0  0  0  0  0  0
    9.0595  -14.6197   29.6349 C   0  0  0  0  0  0  0  0  0  0  0  0
   10.3254  -14.5680   28.8137 C   0  0  2  0  0  0  0  0  0  0  0  0
   10.4638  -13.2518   28.0758 C   0  0  0  0  0  0  0  0  0  0  0  0
   10.4673  -15.7587   27.9012 C   0  0  2  0  0  0  0  0  0  0  0  0
    9.5361  -15.7160   26.7888 N   0  0  0  0  0  0  0  0  0  0  0  0
   10.1969  -16.9706   28.7069 C   0  0  0  0  0  0  0  0  0  0  0  0
    9.1262  -17.5836   28.5554 O   0  0  0  0  0  0  0  0  0  0  0  0
   11.1197  -17.4242   29.6213 O   0  0  0  0  0  0  0  0  0  0  0  0
  2  1  1  6
  3  2  1  0
  4  3  1  0
  4  5  2  0
  6  5  1  0
  7  8  2  0
  7  6  1  0
  8  4  1  0
  9  2  1  0
 10  9  2  0
 11  9  1  0
 12 11  1  0
 12 15  1  0
 12 13  1  1
 14 13  1  0
 15 21  1  0
 16 15  2  0
 18 17  1  6
 19 18  1  0
 20 18  1  0
 20 22  1  0
 20 21  1  6
 22 23  2  0
 22 24  1  0
M  END
$$$$
