HCV.pdb
     RDKit          3D

 24 24  0  0  1  0  0  0  0  0999 V2000
    8.5179  -17.7842   18.6548 N   0  0  0  0  0  0  0  0  0  0  0  0
    9.2259  -17.3257   19.8084 C   0  0  1  0  0  0  0  0  0  0  0  0
   10.2633  -16.2930   19.4618 C   0  0  0  0  0  0  0  0  0  0  0  0
   11.3857  -16.9968   18.7940 C   0  0  0  0  0  0  0  0  0  0  0  0
   12.2234  -17.9285   19.3655 C   0  0  0  0  0  0  0  0  0  0  0  0
   13.1118  -18.3346   18.4397 N   0  0  0  0  0  0  0  0  0  0  0  0
   12.8548  -17.6800   17.2936 C   0  0  0  0  0  0  0  0  0  0  0  0
   11.7907  -16.8588   17.5211 N   0  0  0  0  0  0  0  0  0  0  0  0
    8.2635  -16.8033   20.8412 C   0  0  0  0  0  0  0  0  0  0  0  0
    7.3547  -16.0204   20.4954 O   0  0  0  0  0  0  0  0  0  0  0  0
    8.3750  -17.1895   22.2074 N   0  0  0  0  0  0  0  0  0  0  0  0
    7.5163  -16.8191   23.2735 C   0  0  1  0  0  0  0  0  0  0  0  0
    6.7783  -17.9631   23.8997 C   0  0  0  0  0  0  0  0  0  0  0  0
    5.8286  -17.4267   25.3566 S   0  0  0  0  0  0  0  0  0  0  0  0
    8.1600  -16.0097   24.3516 C   0  0  0  0  0  0  0  0  0  0  0  0
    9.2640  -16.3734   24.8117 O   0  0  0  0  0  0  0  0  0  0  0  0
    7.4267  -12.5952   27.8144 C   0  0  0  0  0  0  0  0  0  0  0  0
    7.4462  -12.8440   26.3254 C   0  0  2  0  0  0  0  0  0  0  0  0
    6.0523  -12.8151   25.7320 C   0  0  0  0  0  0  0  0  0  0  0  0
    8.2021  -14.0959   25.9619 C   0  0  2  0  0  0  0  0  0  0  0  0
    7.5672  -14.8309   24.8835 N   0  0  0  0  0  0  0  0  0  0  0  0
    8.2455  -14.9543   27.1670 C   0  0  0  0  0  0  0  0  0  0  0  0
    7.3809  -15.8328   27.3279 O   0  0  0  0  0  0  0  0  0  0  0  0
    9.2339  -14.7885   28.1100 O   0  0  0  0  0  0  0  0  0  0  0  0
  2  1  1  6
  3  2  1  0
  4  3  1  0
  4  5  2  0
  6  5  1  0
  7  8  2  0
  7  6  1  0
  8  4  1  0
  9  2  1  0
 10  9  2  0
 11  9  1  0
 12 11  1  0
 12 15  1  0
 12 13  1  1
 14 13  1  0
 15 21  1  0
 16 15  2  0
 18 17  1  1
 19 18  1  0
 20 18  1  0
 20 22  1  0
 20 21  1  6
 22 23  2  0
 22 24  1  0
M  END
$$$$
