HCV.pdb
     RDKit          3D

 24 24  0  0  1  0  0  0  0  0999 V2000
    8.2394  -15.9229   20.4327 N   0  0  0  0  0  0  0  0  0  0  0  0
    7.9426  -14.6827   21.0777 C   0  0  1  0  0  0  0  0  0  0  0  0
    6.7879  -13.9699   20.4286 C   0  0  0  0  0  0  0  0  0  0  0  0
    7.1610  -13.7135   19.0158 C   0  0  0  0  0  0  0  0  0  0  0  0
    7.9337  -12.6735   18.5491 C   0  0  0  0  0  0  0  0  0  0  0  0
    8.0454  -12.7855   17.2126 N   0  0  0  0  0  0  0  0  0  0  0  0
    7.3598  -13.8745   16.8224 C   0  0  0  0  0  0  0  0  0  0  0  0
    6.8188  -14.4393   17.9390 N   0  0  0  0  0  0  0  0  0  0  0  0
    7.6897  -14.9020   22.5453 C   0  0  0  0  0  0  0  0  0  0  0  0
    7.4947  -13.9192   23.2898 O   0  0  0  0  0  0  0  0  0  0  0  0
    7.6698  -16.2150   23.0965 N   0  0  0  0  0  0  0  0  0  0  0  0
    7.5456  -16.5660   24.4650 C   0  0  1  0  0  0  0  0  0  0  0  0
    7.0404  -17.9564   24.7036 C   0  0  0  0  0  0  0  0  0  0  0  0
    8.3484  -19.1950   24.4444 S   0  0  0  0  0  0  0  0  0  0  0  0
    8.7739  -16.3490   25.2872 C   0  0  0  0  0  0  0  0  0  0  0  0
    9.8955  -16.5584   24.7765 O   0  0  0  0  0  0  0  0  0  0  0  0
   11.0559  -14.0670   28.9974 C   0  0  0  0  0  0  0  0  0  0  0  0
    9.8906  -14.2791   28.0613 C   0  0  2  0  0  0  0  0  0  0  0  0
    8.5639  -14.0273   28.7486 C   0  0  0  0  0  0  0  0  0  0  0  0
    9.9402  -15.6207   27.3768 C   0  0  2  0  0  0  0  0  0  0  0  0
    8.7241  -15.9097   26.6393 N   0  0  0  0  0  0  0  0  0  0  0  0
   10.1202  -16.6486   28.4266 C   0  0  0  0  0  0  0  0  0  0  0  0
    9.1775  -17.4062   28.7137 O   0  0  0  0  0  0  0  0  0  0  0  0
   11.3211  -16.7727   29.0869 O   0  0  0  0  0  0  0  0  0  0  0  0
  2  1  1  6
  3  2  1  0
  4  3  1  0
  4  5  2  0
  6  5  1  0
  7  8  2  0
  7  6  1  0
  8  4  1  0
  9  2  1  0
 10  9  2  0
 11  9  1  0
 12 11  1  0
 12 15  1  0
 12 13  1  6
 14 13  1  0
 15 21  1  0
 16 15  2  0
 18 17  1  1
 19 18  1  0
 20 18  1  0
 20 22  1  0
 20 21  1  1
 22 23  2  0
 22 24  1  0
M  END
$$$$
