HCV.pdb
     RDKit          3D

 24 24  0  0  1  0  0  0  0  0999 V2000
   10.2245  -18.2238   21.1135 N   0  0  0  0  0  0  0  0  0  0  0  0
   10.4603  -16.8143   21.1097 C   0  0  1  0  0  0  0  0  0  0  0  0
   10.0065  -16.1685   19.8293 C   0  0  0  0  0  0  0  0  0  0  0  0
   10.7296  -16.8311   18.7161 C   0  0  0  0  0  0  0  0  0  0  0  0
   12.0891  -16.8126   18.4974 C   0  0  0  0  0  0  0  0  0  0  0  0
   12.3571  -17.5276   17.3891 N   0  0  0  0  0  0  0  0  0  0  0  0
   11.1962  -17.9988   16.9009 C   0  0  0  0  0  0  0  0  0  0  0  0
   10.1999  -17.5651   17.7242 N   0  0  0  0  0  0  0  0  0  0  0  0
    9.8083  -16.1702   22.3037 C   0  0  0  0  0  0  0  0  0  0  0  0
    9.9714  -14.9500   22.5104 O   0  0  0  0  0  0  0  0  0  0  0  0
    9.0079  -16.9332   23.2011 N   0  0  0  0  0  0  0  0  0  0  0  0
    8.5795  -16.5535   24.4987 C   0  0  1  0  0  0  0  0  0  0  0  0
    7.3036  -17.2015   24.9433 C   0  0  0  0  0  0  0  0  0  0  0  0
    6.7421  -16.5404   26.5433 S   0  0  0  0  0  0  0  0  0  0  0  0
    9.6040  -16.7126   25.5743 C   0  0  0  0  0  0  0  0  0  0  0  0
   10.2534  -17.7783   25.6464 O   0  0  0  0  0  0  0  0  0  0  0  0
    9.8966  -14.2779   29.2194 C   0  0  0  0  0  0  0  0  0  0  0  0
   11.1005  -14.6469   28.3865 C   0  0  2  0  0  0  0  0  0  0  0  0
   11.5835  -13.4807   27.5483 C   0  0  0  0  0  0  0  0  0  0  0  0
   10.8731  -15.8910   27.5673 C   0  0  2  0  0  0  0  0  0  0  0  0
    9.8772  -15.6948   26.5300 N   0  0  0  0  0  0  0  0  0  0  0  0
   10.4035  -16.9500   28.4888 C   0  0  0  0  0  0  0  0  0  0  0  0
    9.2189  -17.3239   28.4435 O   0  0  0  0  0  0  0  0  0  0  0  0
   11.2663  -17.5237   29.3944 O   0  0  0  0  0  0  0  0  0  0  0  0
  2  1  1  6
  3  2  1  0
  4  3  1  0
  4  5  2  0
  6  5  1  0
  7  8  2  0
  7  6  1  0
  8  4  1  0
  9  2  1  0
 10  9  2  0
 11  9  1  0
 12 11  1  0
 12 15  1  0
 12 13  1  1
 14 13  1  0
 15 21  1  0
 16 15  2  0
 18 17  1  6
 19 18  1  0
 20 18  1  0
 20 22  1  0
 20 21  1  6
 22 23  2  0
 22 24  1  0
M  END
$$$$
