HCV.pdb
     RDKit          3D

 24 24  0  0  1  0  0  0  0  0999 V2000
    8.9276  -16.0579   19.3910 N   0  0  0  0  0  0  0  0  0  0  0  0
    8.1232  -14.9964   19.9091 C   0  0  1  0  0  0  0  0  0  0  0  0
    6.9739  -14.6614   18.9982 C   0  0  0  0  0  0  0  0  0  0  0  0
    7.5419  -14.3363   17.6667 C   0  0  0  0  0  0  0  0  0  0  0  0
    8.2445  -13.2003   17.3318 C   0  0  0  0  0  0  0  0  0  0  0  0
    8.5905  -13.2747   16.0333 N   0  0  0  0  0  0  0  0  0  0  0  0
    8.1220  -14.4338   15.5382 C   0  0  0  0  0  0  0  0  0  0  0  0
    7.4779  -15.0806   16.5508 N   0  0  0  0  0  0  0  0  0  0  0  0
    7.6383  -15.3336   21.2937 C   0  0  0  0  0  0  0  0  0  0  0  0
    6.4288  -15.1993   21.5719 O   0  0  0  0  0  0  0  0  0  0  0  0
    8.5399  -15.8035   22.2908 N   0  0  0  0  0  0  0  0  0  0  0  0
    8.2389  -16.0991   23.6449 C   0  0  1  0  0  0  0  0  0  0  0  0
    8.7369  -17.4328   24.1125 C   0  0  0  0  0  0  0  0  0  0  0  0
   10.5541  -17.5209   24.0632 S   0  0  0  0  0  0  0  0  0  0  0  0
    8.6562  -15.0543   24.6277 C   0  0  0  0  0  0  0  0  0  0  0  0
    9.7663  -14.4959   24.4910 O   0  0  0  0  0  0  0  0  0  0  0  0
    5.9287  -13.1155   27.3707 C   0  0  0  0  0  0  0  0  0  0  0  0
    7.2326  -12.5619   26.8484 C   0  0  2  0  0  0  0  0  0  0  0  0
    7.0278  -11.7159   25.6081 C   0  0  0  0  0  0  0  0  0  0  0  0
    8.2736  -13.6333   26.6505 C   0  0  2  0  0  0  0  0  0  0  0  0
    7.8384  -14.6616   25.7235 N   0  0  0  0  0  0  0  0  0  0  0  0
    8.5288  -14.2538   27.9699 C   0  0  0  0  0  0  0  0  0  0  0  0
    8.1644  -15.4234   28.1804 O   0  0  0  0  0  0  0  0  0  0  0  0
    9.1656  -13.5477   28.9647 O   0  0  0  0  0  0  0  0  0  0  0  0
  2  1  1  6
  3  2  1  0
  4  3  1  0
  4  5  2  0
  6  5  1  0
  7  8  2  0
  7  6  1  0
  8  4  1  0
  9  2  1  0
 10  9  2  0
 11  9  1  0
 12 11  1  0
 12 15  1  0
 12 13  1  1
 14 13  1  0
 15 21  1  0
 16 15  2  0
 18 17  1  6
 19 18  1  0
 20 18  1  0
 20 22  1  0
 20 21  1  6
 22 23  2  0
 22 24  1  0
M  END
$$$$
