HCV.pdb
     RDKit          3D

 24 24  0  0  1  0  0  0  0  0999 V2000
   10.2233  -18.7693   21.0709 N   0  0  0  0  0  0  0  0  0  0  0  0
   10.1034  -17.3455   21.1003 C   0  0  1  0  0  0  0  0  0  0  0  0
    9.3075  -16.8209   19.9368 C   0  0  0  0  0  0  0  0  0  0  0  0
   10.0937  -17.0821   18.7061 C   0  0  0  0  0  0  0  0  0  0  0  0
   11.3548  -17.6317   18.6417 C   0  0  0  0  0  0  0  0  0  0  0  0
   11.7268  -17.7068   17.3504 N   0  0  0  0  0  0  0  0  0  0  0  0
   10.7281  -17.2163   16.5952 C   0  0  0  0  0  0  0  0  0  0  0  0
    9.7272  -16.8342   17.4382 N   0  0  0  0  0  0  0  0  0  0  0  0
    9.5123  -16.8959   22.4096 C   0  0  0  0  0  0  0  0  0  0  0  0
    9.3378  -15.6779   22.6201 O   0  0  0  0  0  0  0  0  0  0  0  0
    9.1492  -17.8404   23.4117 N   0  0  0  0  0  0  0  0  0  0  0  0
    8.5954  -17.5631   24.6876 C   0  0  1  0  0  0  0  0  0  0  0  0
    7.6411  -18.6047   25.1875 C   0  0  0  0  0  0  0  0  0  0  0  0
    7.1716  -18.3027   26.9197 S   0  0  0  0  0  0  0  0  0  0  0  0
    9.5934  -17.2663   25.7588 C   0  0  0  0  0  0  0  0  0  0  0  0
   10.6559  -17.9235   25.8027 O   0  0  0  0  0  0  0  0  0  0  0  0
    9.0846  -14.5590   29.3366 C   0  0  0  0  0  0  0  0  0  0  0  0
   10.2240  -14.5958   28.3467 C   0  0  2  0  0  0  0  0  0  0  0  0
   10.1009  -13.5008   27.3066 C   0  0  0  0  0  0  0  0  0  0  0  0
   10.4060  -15.9589   27.7306 C   0  0  2  0  0  0  0  0  0  0  0  0
    9.3872  -16.2584   26.7414 N   0  0  0  0  0  0  0  0  0  0  0  0
   10.3220  -16.9547   28.8225 C   0  0  0  0  0  0  0  0  0  0  0  0
    9.3690  -17.7521   28.8557 O   0  0  0  0  0  0  0  0  0  0  0  0
   11.2889  -17.0055   29.8003 O   0  0  0  0  0  0  0  0  0  0  0  0
  2  1  1  1
  3  2  1  0
  4  3  1  0
  4  5  2  0
  6  5  1  0
  7  8  2  0
  7  6  1  0
  8  4  1  0
  9  2  1  0
 10  9  2  0
 11  9  1  0
 12 11  1  0
 12 15  1  0
 12 13  1  1
 14 13  1  0
 15 21  1  0
 16 15  2  0
 18 17  1  6
 19 18  1  0
 20 18  1  0
 20 22  1  0
 20 21  1  6
 22 23  2  0
 22 24  1  0
M  END
$$$$
