HCV.pdb
     RDKit          3D

 24 24  0  0  1  0  0  0  0  0999 V2000
    9.9606  -19.0047   20.4186 N   0  0  0  0  0  0  0  0  0  0  0  0
   10.3437  -17.7089   20.8839 C   0  0  1  0  0  0  0  0  0  0  0  0
   10.2443  -16.6677   19.8030 C   0  0  0  0  0  0  0  0  0  0  0  0
   11.3771  -16.8854   18.8700 C   0  0  0  0  0  0  0  0  0  0  0  0
   12.7147  -16.7240   19.1549 C   0  0  0  0  0  0  0  0  0  0  0  0
   13.4286  -17.0166   18.0522 N   0  0  0  0  0  0  0  0  0  0  0  0
   12.5717  -17.3601   17.0745 C   0  0  0  0  0  0  0  0  0  0  0  0
   11.3112  -17.2765   17.5870 N   0  0  0  0  0  0  0  0  0  0  0  0
    9.5275  -17.3215   22.0879 C   0  0  0  0  0  0  0  0  0  0  0  0
    8.3574  -16.9152   21.9334 O   0  0  0  0  0  0  0  0  0  0  0  0
   10.0715  -17.4118   23.4009 N   0  0  0  0  0  0  0  0  0  0  0  0
    9.3897  -17.1961   24.6257 C   0  0  1  0  0  0  0  0  0  0  0  0
    8.4342  -18.2873   25.0023 C   0  0  0  0  0  0  0  0  0  0  0  0
    9.3042  -19.8517   25.3306 S   0  0  0  0  0  0  0  0  0  0  0  0
   10.2700  -16.8979   25.7952 C   0  0  0  0  0  0  0  0  0  0  0  0
   11.4185  -17.3897   25.8361 O   0  0  0  0  0  0  0  0  0  0  0  0
    9.0998  -14.4320   29.2903 C   0  0  0  0  0  0  0  0  0  0  0  0
   10.4209  -14.3736   28.5619 C   0  0  2  0  0  0  0  0  0  0  0  0
   10.4717  -13.2202   27.5806 C   0  0  0  0  0  0  0  0  0  0  0  0
   10.7842  -15.6898   27.9244 C   0  0  2  0  0  0  0  0  0  0  0  0
    9.8559  -16.0703   26.8757 N   0  0  0  0  0  0  0  0  0  0  0  0
   10.7566  -16.7204   28.9865 C   0  0  0  0  0  0  0  0  0  0  0  0
    9.8560  -17.5772   28.9890 O   0  0  0  0  0  0  0  0  0  0  0  0
   11.7186  -16.7383   29.9704 O   0  0  0  0  0  0  0  0  0  0  0  0
  2  1  1  6
  3  2  1  0
  4  3  1  0
  4  5  2  0
  6  5  1  0
  7  8  2  0
  7  6  1  0
  8  4  1  0
  9  2  1  0
 10  9  2  0
 11  9  1  0
 12 11  1  0
 12 15  1  0
 12 13  1  1
 14 13  1  0
 15 21  1  0
 16 15  2  0
 18 17  1  6
 19 18  1  0
 20 18  1  0
 20 22  1  0
 20 21  1  6
 22 23  2  0
 22 24  1  0
M  END
$$$$
