HCV.pdb
     RDKit          3D

 24 24  0  0  1  0  0  0  0  0999 V2000
    8.0940  -17.0563   19.1945 N   0  0  0  0  0  0  0  0  0  0  0  0
    7.8269  -15.8794   19.9598 C   0  0  1  0  0  0  0  0  0  0  0  0
    6.9044  -14.9341   19.2401 C   0  0  0  0  0  0  0  0  0  0  0  0
    7.6120  -14.4611   18.0248 C   0  0  0  0  0  0  0  0  0  0  0  0
    8.5185  -13.4268   17.9560 C   0  0  0  0  0  0  0  0  0  0  0  0
    8.9380  -13.3053   16.6830 N   0  0  0  0  0  0  0  0  0  0  0  0
    8.3164  -14.2408   15.9436 C   0  0  0  0  0  0  0  0  0  0  0  0
    7.5022  -14.9474   16.7780 N   0  0  0  0  0  0  0  0  0  0  0  0
    7.2800  -16.2466   21.3133 C   0  0  0  0  0  0  0  0  0  0  0  0
    6.3703  -17.0970   21.3994 O   0  0  0  0  0  0  0  0  0  0  0  0
    7.7859  -15.6376   22.4971 N   0  0  0  0  0  0  0  0  0  0  0  0
    7.5169  -16.0183   23.8365 C   0  0  1  0  0  0  0  0  0  0  0  0
    7.8478  -17.4453   24.1525 C   0  0  0  0  0  0  0  0  0  0  0  0
    7.6732  -17.7924   25.9305 S   0  0  0  0  0  0  0  0  0  0  0  0
    8.1258  -15.1377   24.8783 C   0  0  0  0  0  0  0  0  0  0  0  0
    9.3687  -15.0109   24.9204 O   0  0  0  0  0  0  0  0  0  0  0  0
    5.8578  -12.9483   27.9910 C   0  0  0  0  0  0  0  0  0  0  0  0
    6.9488  -12.3724   27.1206 C   0  0  2  0  0  0  0  0  0  0  0  0
    6.3826  -11.5859   25.9557 C   0  0  0  0  0  0  0  0  0  0  0  0
    7.9450  -13.4148   26.6829 C   0  0  2  0  0  0  0  0  0  0  0  0
    7.3466  -14.4289   25.8346 N   0  0  0  0  0  0  0  0  0  0  0  0
    8.4755  -14.0625   27.9036 C   0  0  0  0  0  0  0  0  0  0  0  0
    8.2210  -15.2589   28.1252 O   0  0  0  0  0  0  0  0  0  0  0  0
    9.2472  -13.3524   28.7946 O   0  0  0  0  0  0  0  0  0  0  0  0
  2  1  1  6
  3  2  1  0
  4  3  1  0
  4  5  2  0
  6  5  1  0
  7  8  2  0
  7  6  1  0
  8  4  1  0
  9  2  1  0
 10  9  2  0
 11  9  1  0
 12 11  1  0
 12 15  1  0
 12 13  1  1
 14 13  1  0
 15 21  1  0
 16 15  2  0
 18 17  1  6
 19 18  1  0
 20 18  1  0
 20 22  1  0
 20 21  1  6
 22 23  2  0
 22 24  1  0
M  END
$$$$
