HCV.pdb
     RDKit          3D

 24 24  0  0  1  0  0  0  0  0999 V2000
    8.7367  -18.3095   19.5015 N   0  0  0  0  0  0  0  0  0  0  0  0
    9.3749  -17.4645   20.4612 C   0  0  1  0  0  0  0  0  0  0  0  0
   10.2438  -16.4240   19.8093 C   0  0  0  0  0  0  0  0  0  0  0  0
   11.4930  -17.0963   19.3751 C   0  0  0  0  0  0  0  0  0  0  0  0
   12.5303  -17.4992   20.1864 C   0  0  0  0  0  0  0  0  0  0  0  0
   13.4801  -18.0680   19.4212 N   0  0  0  0  0  0  0  0  0  0  0  0
   13.0667  -18.0342   18.1421 C   0  0  0  0  0  0  0  0  0  0  0  0
   11.8427  -17.4344   18.1234 N   0  0  0  0  0  0  0  0  0  0  0  0
    8.3512  -16.8293   21.3637 C   0  0  0  0  0  0  0  0  0  0  0  0
    7.3166  -16.3358   20.8694 O   0  0  0  0  0  0  0  0  0  0  0  0
    8.5464  -16.7833   22.7736 N   0  0  0  0  0  0  0  0  0  0  0  0
    7.6471  -16.2745   23.7451 C   0  0  1  0  0  0  0  0  0  0  0  0
    6.8761  -17.3251   24.4849 C   0  0  0  0  0  0  0  0  0  0  0  0
    7.9849  -18.5053   25.3154 S   0  0  0  0  0  0  0  0  0  0  0  0
    8.2516  -15.3312   24.7333 C   0  0  0  0  0  0  0  0  0  0  0  0
    9.4334  -15.5068   25.1011 O   0  0  0  0  0  0  0  0  0  0  0  0
    6.0129  -12.5499   27.2792 C   0  0  0  0  0  0  0  0  0  0  0  0
    7.2856  -12.1533   26.5705 C   0  0  2  0  0  0  0  0  0  0  0  0
    7.0081  -11.2868   25.3588 C   0  0  0  0  0  0  0  0  0  0  0  0
    8.1553  -13.3399   26.2442 C   0  0  2  0  0  0  0  0  0  0  0  0
    7.5356  -14.2303   25.2801 N   0  0  0  0  0  0  0  0  0  0  0  0
    8.3850  -14.0821   27.5041 C   0  0  0  0  0  0  0  0  0  0  0  0
    9.0947  -13.5805   28.3928 O   0  0  0  0  0  0  0  0  0  0  0  0
    7.8201  -15.3216   27.7000 O   0  0  0  0  0  0  0  0  0  0  0  0
  2  1  1  6
  3  2  1  0
  4  3  1  0
  4  5  2  0
  6  5  1  0
  7  8  2  0
  7  6  1  0
  8  4  1  0
  9  2  1  0
 10  9  2  0
 11  9  1  0
 12 11  1  0
 12 15  1  0
 12 13  1  1
 14 13  1  0
 15 21  1  0
 16 15  2  0
 18 17  1  6
 19 18  1  0
 20 18  1  0
 20 22  1  0
 20 21  1  6
 22 23  2  0
 22 24  1  0
M  END
$$$$
