HCV.pdb
     RDKit          3D

 24 24  0  0  1  0  0  0  0  0999 V2000
   11.1764  -17.1197   19.4984 N   0  0  0  0  0  0  0  0  0  0  0  0
   10.8027  -17.5420   20.8115 C   0  0  1  0  0  0  0  0  0  0  0  0
   11.9949  -17.9370   21.6393 C   0  0  0  0  0  0  0  0  0  0  0  0
   12.5006  -19.2252   21.1045 C   0  0  0  0  0  0  0  0  0  0  0  0
   11.7912  -20.4003   20.9937 C   0  0  0  0  0  0  0  0  0  0  0  0
   12.5950  -21.3406   20.4635 N   0  0  0  0  0  0  0  0  0  0  0  0
   13.7988  -20.7862   20.2360 C   0  0  0  0  0  0  0  0  0  0  0  0
   13.7313  -19.4839   20.6337 N   0  0  0  0  0  0  0  0  0  0  0  0
    9.9961  -16.4719   21.4970 C   0  0  0  0  0  0  0  0  0  0  0  0
   10.5292  -15.3752   21.7638 O   0  0  0  0  0  0  0  0  0  0  0  0
    8.6331  -16.6929   21.8457 N   0  0  0  0  0  0  0  0  0  0  0  0
    7.7691  -15.7985   22.5276 C   0  0  1  0  0  0  0  0  0  0  0  0
    6.3150  -16.1473   22.4295 C   0  0  0  0  0  0  0  0  0  0  0  0
    5.8761  -16.7120   20.7560 S   0  0  0  0  0  0  0  0  0  0  0  0
    8.1136  -15.5564   23.9609 C   0  0  0  0  0  0  0  0  0  0  0  0
    8.8309  -16.3832   24.5647 O   0  0  0  0  0  0  0  0  0  0  0  0
    5.8783  -12.9720   26.6027 C   0  0  0  0  0  0  0  0  0  0  0  0
    7.3874  -12.9709   26.6477 C   0  0  2  0  0  0  0  0  0  0  0  0
    7.9680  -11.7229   26.0141 C   0  0  0  0  0  0  0  0  0  0  0  0
    7.9801  -14.2349   26.0807 C   0  0  2  0  0  0  0  0  0  0  0  0
    7.6578  -14.4149   24.6772 N   0  0  0  0  0  0  0  0  0  0  0  0
    7.4236  -15.3705   26.8500 C   0  0  0  0  0  0  0  0  0  0  0  0
    6.5040  -16.0510   26.3638 O   0  0  0  0  0  0  0  0  0  0  0  0
    7.9149  -15.6791   28.0978 O   0  0  0  0  0  0  0  0  0  0  0  0
  2  1  1  6
  3  2  1  0
  4  3  1  0
  4  5  2  0
  6  5  1  0
  7  8  2  0
  7  6  1  0
  8  4  1  0
  9  2  1  0
 10  9  2  0
 11  9  1  0
 12 11  1  0
 12 15  1  0
 12 13  1  1
 14 13  1  0
 15 21  1  0
 16 15  2  0
 18 17  1  6
 19 18  1  0
 20 18  1  0
 20 22  1  0
 20 21  1  6
 22 23  2  0
 22 24  1  0
M  END
$$$$
