HCV.pdb
     RDKit          3D

 24 24  0  0  1  0  0  0  0  0999 V2000
    8.6482  -18.0635   19.1015 N   0  0  0  0  0  0  0  0  0  0  0  0
    8.4945  -16.8181   19.7854 C   0  0  1  0  0  0  0  0  0  0  0  0
    7.6238  -15.8577   19.0225 C   0  0  0  0  0  0  0  0  0  0  0  0
    8.2657  -14.5221   19.0943 C   0  0  0  0  0  0  0  0  0  0  0  0
    9.4656  -14.2221   19.6999 C   0  0  0  0  0  0  0  0  0  0  0  0
    9.7061  -12.9063   19.5518 N   0  0  0  0  0  0  0  0  0  0  0  0
    8.6840  -12.3660   18.8651 C   0  0  0  0  0  0  0  0  0  0  0  0
    7.8022  -13.3680   18.5878 N   0  0  0  0  0  0  0  0  0  0  0  0
    7.9640  -17.0452   21.1757 C   0  0  0  0  0  0  0  0  0  0  0  0
    6.8929  -17.6668   21.3319 O   0  0  0  0  0  0  0  0  0  0  0  0
    8.6670  -16.5607   22.3156 N   0  0  0  0  0  0  0  0  0  0  0  0
    8.2801  -16.6832   23.6745 C   0  0  1  0  0  0  0  0  0  0  0  0
    8.8300  -17.8925   24.3678 C   0  0  0  0  0  0  0  0  0  0  0  0
   10.6499  -17.8991   24.3543 S   0  0  0  0  0  0  0  0  0  0  0  0
    8.5446  -15.4790   24.5180 C   0  0  0  0  0  0  0  0  0  0  0  0
    9.5810  -14.8091   24.3182 O   0  0  0  0  0  0  0  0  0  0  0  0
    5.7954  -12.7937   25.4798 C   0  0  0  0  0  0  0  0  0  0  0  0
    6.6500  -13.1215   26.6805 C   0  0  2  0  0  0  0  0  0  0  0  0
    6.9106  -11.8985   27.5362 C   0  0  0  0  0  0  0  0  0  0  0  0
    7.9183  -13.8425   26.3033 C   0  0  2  0  0  0  0  0  0  0  0  0
    7.6607  -15.0554   25.5491 N   0  0  0  0  0  0  0  0  0  0  0  0
    8.6174  -14.1978   27.5587 C   0  0  0  0  0  0  0  0  0  0  0  0
    8.6014  -15.3742   27.9600 O   0  0  0  0  0  0  0  0  0  0  0  0
    9.2845  -13.2379   28.2849 O   0  0  0  0  0  0  0  0  0  0  0  0
  2  1  1  6
  3  2  1  0
  4  3  1  0
  4  5  2  0
  6  5  1  0
  7  8  2  0
  7  6  1  0
  8  4  1  0
  9  2  1  0
 10  9  2  0
 11  9  1  0
 12 11  1  0
 12 15  1  0
 12 13  1  1
 14 13  1  0
 15 21  1  0
 16 15  2  0
 18 17  1  6
 19 18  1  0
 20 18  1  0
 20 22  1  0
 20 21  1  1
 22 23  2  0
 22 24  1  0
M  END
$$$$
