LLQ.pdb
     RDKit          3D

 26 25  0  0  1  0  0  0  0  0999 V2000
    7.4528  -12.4001   18.9222 C   0  0  0  0  0  0  0  0  0  0  0  0
    7.7203  -13.6917   19.6219 C   0  0  1  0  0  0  0  0  0  0  0  0
    8.4687  -14.6689   18.7309 C   0  0  0  0  0  0  0  0  0  0  0  0
    8.3947  -13.5279   20.9591 C   0  0  0  0  0  0  0  0  0  0  0  0
    8.5367  -14.8236   21.7089 C   0  0  2  0  0  0  0  0  0  0  0  0
    7.2746  -15.5015   21.6935 N   0  0  0  0  0  0  0  0  0  0  0  0
    8.9910  -14.5101   23.0797 C   0  0  0  0  0  0  0  0  0  0  0  0
   10.1205  -14.0116   23.2627 O   0  0  0  0  0  0  0  0  0  0  0  0
    5.3452  -12.6001   26.4967 C   0  0  0  0  0  0  0  0  0  0  0  0
    6.6432  -12.8538   25.7553 C   0  0  1  0  0  0  0  0  0  0  0  0
    7.5830  -11.6819   25.9856 C   0  0  0  0  0  0  0  0  0  0  0  0
    7.2710  -14.0833   26.3395 C   0  0  0  0  0  0  0  0  0  0  0  0
    8.5351  -14.4532   25.5619 C   0  0  2  0  0  0  0  0  0  0  0  0
    8.1630  -14.7669   24.1946 N   0  0  0  0  0  0  0  0  0  0  0  0
    9.1286  -15.7057   26.1380 C   0  0  0  0  0  0  0  0  0  0  0  0
    9.3747  -15.8387   27.3644 O   0  0  0  0  0  0  0  0  0  0  0  0
    9.5065  -21.2561   23.0563 N   0  0  0  0  0  0  0  0  0  0  0  0
   10.2205  -21.4950   24.2492 C   0  0  0  0  0  0  0  0  0  0  0  0
   10.6744  -22.6456   24.4571 O   0  0  0  0  0  0  0  0  0  0  0  0
   10.4581  -20.4458   25.2679 C   0  0  0  0  0  0  0  0  0  0  0  0
    9.8240  -19.1537   24.8494 C   0  0  0  0  0  0  0  0  0  0  0  0
   10.0496  -18.0401   25.8311 C   0  0  2  0  0  0  0  0  0  0  0  0
    9.4407  -16.8146   25.2905 N   0  0  0  0  0  0  0  0  0  0  0  0
   11.4855  -17.7566   26.0509 C   0  0  0  0  0  0  0  0  0  0  0  0
   12.1985  -18.3219   27.0957 O   0  0  0  0  0  0  0  0  0  0  0  0
   12.0979  -16.9807   25.2769 O   0  0  0  0  0  0  0  0  0  0  0  0
  2  1  1  6
  3  2  1  0
  4  5  1  0
  4  2  1  0
  5  6  1  1
  7  8  2  0
  7  5  1  0
 10  9  1  1
 11 10  1  0
 12 10  1  0
 13 12  1  1
 13 14  1  0
 14  7  1  0
 15 16  2  0
 15 13  1  0
 18 17  1  0
 18 19  2  0
 20 21  1  0
 20 18  1  0
 22 21  1  6
 22 23  1  0
 23 15  1  0
 24 22  1  0
 25 24  1  0
 26 24  2  0
M  END
$$$$
