LLQ.pdb
     RDKit          3D

 26 25  0  0  1  0  0  0  0  0999 V2000
    6.8077  -13.4825   19.9713 C   0  0  0  0  0  0  0  0  0  0  0  0
    8.1357  -13.8864   19.4213 C   0  0  1  0  0  0  0  0  0  0  0  0
    8.6635  -12.8690   18.4237 C   0  0  0  0  0  0  0  0  0  0  0  0
    9.1570  -14.2100   20.4805 C   0  0  0  0  0  0  0  0  0  0  0  0
    8.6972  -15.2777   21.4343 C   0  0  2  0  0  0  0  0  0  0  0  0
    7.2899  -15.4769   21.2537 N   0  0  0  0  0  0  0  0  0  0  0  0
    9.0328  -14.8402   22.8053 C   0  0  0  0  0  0  0  0  0  0  0  0
   10.2276  -14.7249   23.1472 O   0  0  0  0  0  0  0  0  0  0  0  0
    8.2375  -11.4083   26.6540 C   0  0  0  0  0  0  0  0  0  0  0  0
    7.2593  -12.5542   26.8242 C   0  0  1  0  0  0  0  0  0  0  0  0
    5.9331  -12.0041   27.3222 C   0  0  0  0  0  0  0  0  0  0  0  0
    7.0374  -13.1703   25.4758 C   0  0  0  0  0  0  0  0  0  0  0  0
    8.2707  -13.9675   25.0481 C   0  0  2  0  0  0  0  0  0  0  0  0
    8.0173  -14.5482   23.7424 N   0  0  0  0  0  0  0  0  0  0  0  0
    8.4756  -15.1171   25.9911 C   0  0  0  0  0  0  0  0  0  0  0  0
    8.7748  -14.9567   27.2023 O   0  0  0  0  0  0  0  0  0  0  0  0
    6.8933  -22.3948   26.3937 N   0  0  0  0  0  0  0  0  0  0  0  0
    6.7797  -21.0354   26.0340 C   0  0  0  0  0  0  0  0  0  0  0  0
    5.9937  -20.7233   25.1078 O   0  0  0  0  0  0  0  0  0  0  0  0
    7.5483  -19.9599   26.7027 C   0  0  0  0  0  0  0  0  0  0  0  0
    7.5152  -18.7040   25.8851 C   0  0  0  0  0  0  0  0  0  0  0  0
    8.3406  -17.5954   26.4721 C   0  0  2  0  0  0  0  0  0  0  0  0
    8.3337  -16.4639   25.5316 N   0  0  0  0  0  0  0  0  0  0  0  0
    9.7533  -17.9852   26.6792 C   0  0  0  0  0  0  0  0  0  0  0  0
   10.7794  -17.4895   25.8913 O   0  0  0  0  0  0  0  0  0  0  0  0
   10.0547  -18.7908   27.5938 O   0  0  0  0  0  0  0  0  0  0  0  0
  2  1  1  1
  3  2  1  0
  4  5  1  0
  4  2  1  0
  5  6  1  1
  7  8  2  0
  7  5  1  0
 10  9  1  6
 11 10  1  0
 12 10  1  0
 13 12  1  1
 13 14  1  0
 14  7  1  0
 15 16  2  0
 15 13  1  0
 18 17  1  0
 18 19  2  0
 20 21  1  0
 20 18  1  0
 22 21  1  6
 22 23  1  0
 23 15  1  0
 24 22  1  0
 25 24  1  0
 26 24  2  0
M  END
$$$$
