LLQ.pdb
     RDKit          3D

 26 25  0  0  1  0  0  0  0  0999 V2000
    7.3620  -19.7930   20.4867 C   0  0  0  0  0  0  0  0  0  0  0  0
    7.6213  -18.3387   20.2704 C   0  0  1  0  0  0  0  0  0  0  0  0
    6.4481  -17.6540   19.5895 C   0  0  0  0  0  0  0  0  0  0  0  0
    8.0463  -17.6072   21.5171 C   0  0  0  0  0  0  0  0  0  0  0  0
    8.3113  -16.1461   21.2803 C   0  0  2  0  0  0  0  0  0  0  0  0
    9.2806  -16.0210   20.2328 N   0  0  0  0  0  0  0  0  0  0  0  0
    8.7767  -15.5547   22.5520 C   0  0  0  0  0  0  0  0  0  0  0  0
    9.9588  -15.1701   22.6640 O   0  0  0  0  0  0  0  0  0  0  0  0
    7.8583  -11.7406   25.9484 C   0  0  0  0  0  0  0  0  0  0  0  0
    7.0074  -12.9405   26.3159 C   0  0  1  0  0  0  0  0  0  0  0  0
    5.6351  -12.4588   26.7566 C   0  0  0  0  0  0  0  0  0  0  0  0
    6.8397  -13.7772   25.0834 C   0  0  0  0  0  0  0  0  0  0  0  0
    8.1409  -14.5141   24.7623 C   0  0  2  0  0  0  0  0  0  0  0  0
    7.9006  -15.4161   23.6510 N   0  0  0  0  0  0  0  0  0  0  0  0
    8.5306  -15.3736   25.9295 C   0  0  0  0  0  0  0  0  0  0  0  0
    8.8792  -14.8945   27.0391 O   0  0  0  0  0  0  0  0  0  0  0  0
   13.1300  -18.7838   23.0255 N   0  0  0  0  0  0  0  0  0  0  0  0
   12.3197  -18.8919   24.1752 C   0  0  0  0  0  0  0  0  0  0  0  0
   11.7718  -19.9928   24.4221 O   0  0  0  0  0  0  0  0  0  0  0  0
   12.0873  -17.7616   25.1043 C   0  0  0  0  0  0  0  0  0  0  0  0
   10.7158  -17.1906   24.9046 C   0  0  0  0  0  0  0  0  0  0  0  0
    9.7479  -17.5889   25.9812 C   0  0  2  0  0  0  0  0  0  0  0  0
    8.5177  -16.7990   25.8145 N   0  0  0  0  0  0  0  0  0  0  0  0
   10.2641  -17.3153   27.3412 C   0  0  0  0  0  0  0  0  0  0  0  0
   10.0911  -16.0899   27.9640 O   0  0  0  0  0  0  0  0  0  0  0  0
   10.8823  -18.2092   27.9696 O   0  0  0  0  0  0  0  0  0  0  0  0
  2  1  1  1
  3  2  1  0
  4  5  1  0
  4  2  1  0
  5  6  1  6
  7  8  2  0
  7  5  1  0
 10  9  1  6
 11 10  1  0
 12 10  1  0
 13 12  1  1
 13 14  1  0
 14  7  1  0
 15 16  2  0
 15 13  1  0
 18 17  1  0
 18 19  2  0
 20 21  1  0
 20 18  1  0
 22 21  1  6
 22 23  1  0
 23 15  1  0
 24 22  1  0
 25 24  1  0
 26 24  2  0
M  END
$$$$
