LLQ.pdb
     RDKit          3D

 26 25  0  0  1  0  0  0  0  0999 V2000
    7.5763  -12.3536   19.1024 C   0  0  0  0  0  0  0  0  0  0  0  0
    7.7112  -13.7550   19.5996 C   0  0  1  0  0  0  0  0  0  0  0  0
    7.3499  -14.7689   18.5271 C   0  0  0  0  0  0  0  0  0  0  0  0
    9.0526  -14.0519   20.2179 C   0  0  0  0  0  0  0  0  0  0  0  0
    9.0247  -15.2376   21.1423 C   0  0  2  0  0  0  0  0  0  0  0  0
    7.7597  -15.8958   21.0037 N   0  0  0  0  0  0  0  0  0  0  0  0
    9.2580  -14.7496   22.5175 C   0  0  0  0  0  0  0  0  0  0  0  0
   10.3253  -14.1669   22.7988 O   0  0  0  0  0  0  0  0  0  0  0  0
    8.0419  -11.9859   26.5909 C   0  0  0  0  0  0  0  0  0  0  0  0
    7.1342  -13.1992   26.6433 C   0  0  1  0  0  0  0  0  0  0  0  0
    5.7397  -12.7577   27.0555 C   0  0  0  0  0  0  0  0  0  0  0  0
    7.0574  -13.7732   25.2607 C   0  0  0  0  0  0  0  0  0  0  0  0
    8.4034  -14.3818   24.8642 C   0  0  2  0  0  0  0  0  0  0  0  0
    8.2869  -14.9327   23.5265 N   0  0  0  0  0  0  0  0  0  0  0  0
    8.7182  -15.5351   25.7719 C   0  0  0  0  0  0  0  0  0  0  0  0
    8.7071  -15.4349   27.0257 O   0  0  0  0  0  0  0  0  0  0  0  0
    9.8859  -21.3890   23.5904 N   0  0  0  0  0  0  0  0  0  0  0  0
    9.7755  -20.1144   22.9961 C   0  0  0  0  0  0  0  0  0  0  0  0
    9.9135  -20.0176   21.7532 O   0  0  0  0  0  0  0  0  0  0  0  0
    9.5037  -18.8844   23.7758 C   0  0  0  0  0  0  0  0  0  0  0  0
    9.4369  -19.1948   25.2408 C   0  0  0  0  0  0  0  0  0  0  0  0
    9.3207  -17.9684   26.0994 C   0  0  2  0  0  0  0  0  0  0  0  0
    9.0488  -16.8153   25.2269 N   0  0  0  0  0  0  0  0  0  0  0  0
   10.5665  -17.6727   26.8420 C   0  0  0  0  0  0  0  0  0  0  0  0
   11.3415  -16.5572   26.5695 O   0  0  0  0  0  0  0  0  0  0  0  0
   10.9524  -18.4451   27.7534 O   0  0  0  0  0  0  0  0  0  0  0  0
  2  1  1  6
  3  2  1  0
  4  5  1  0
  4  2  1  0
  5  6  1  1
  7  8  2  0
  7  5  1  0
 10  9  1  6
 11 10  1  0
 12 10  1  0
 13 12  1  1
 13 14  1  0
 14  7  1  0
 15 16  2  0
 15 13  1  0
 18 17  1  0
 18 19  2  0
 20 21  1  0
 20 18  1  0
 22 21  1  6
 22 23  1  0
 23 15  1  0
 24 22  1  0
 25 24  1  0
 26 24  2  0
M  END
$$$$
