LLQ.pdb
     RDKit          3D

 26 25  0  0  1  0  0  0  0  0999 V2000
    7.9576  -12.2186   18.8548 C   0  0  0  0  0  0  0  0  0  0  0  0
    7.9635  -13.5748   19.4791 C   0  0  1  0  0  0  0  0  0  0  0  0
    8.4555  -14.6371   18.5105 C   0  0  0  0  0  0  0  0  0  0  0  0
    8.6999  -13.6340   20.7922 C   0  0  0  0  0  0  0  0  0  0  0  0
    8.6150  -14.9816   21.4539 C   0  0  2  0  0  0  0  0  0  0  0  0
    7.2687  -15.4597   21.3469 N   0  0  0  0  0  0  0  0  0  0  0  0
    9.0484  -14.8285   22.8583 C   0  0  0  0  0  0  0  0  0  0  0  0
   10.2308  -14.5223   23.1152 O   0  0  0  0  0  0  0  0  0  0  0  0
    5.9583  -12.3814   26.4513 C   0  0  0  0  0  0  0  0  0  0  0  0
    7.2080  -12.8939   25.7624 C   0  0  1  0  0  0  0  0  0  0  0  0
    8.4144  -12.1427   26.3006 C   0  0  0  0  0  0  0  0  0  0  0  0
    7.3611  -14.3436   26.1117 C   0  0  0  0  0  0  0  0  0  0  0  0
    8.5178  -14.9594   25.3228 C   0  0  2  0  0  0  0  0  0  0  0  0
    8.1411  -15.0243   23.9227 N   0  0  0  0  0  0  0  0  0  0  0  0
    8.7311  -16.3760   25.7707 C   0  0  0  0  0  0  0  0  0  0  0  0
    7.7888  -17.2014   25.8841 O   0  0  0  0  0  0  0  0  0  0  0  0
   13.5975  -17.8036   24.2105 N   0  0  0  0  0  0  0  0  0  0  0  0
   12.4295  -18.1832   23.5164 C   0  0  0  0  0  0  0  0  0  0  0  0
   12.4161  -18.0863   22.2660 O   0  0  0  0  0  0  0  0  0  0  0  0
   11.2174  -18.6915   24.2000 C   0  0  0  0  0  0  0  0  0  0  0  0
   11.4408  -18.7656   25.6803 C   0  0  0  0  0  0  0  0  0  0  0  0
   10.2820  -18.2427   26.4792 C   0  0  2  0  0  0  0  0  0  0  0  0
   10.0442  -16.8436   26.0905 N   0  0  0  0  0  0  0  0  0  0  0  0
   10.5425  -18.2551   27.9361 C   0  0  0  0  0  0  0  0  0  0  0  0
   10.5398  -17.0972   28.6968 O   0  0  0  0  0  0  0  0  0  0  0  0
   10.7761  -19.3401   28.5228 O   0  0  0  0  0  0  0  0  0  0  0  0
  2  1  1  6
  3  2  1  0
  4  5  1  0
  4  2  1  0
  5  6  1  1
  7  8  2  0
  7  5  1  0
 10  9  1  1
 11 10  1  0
 12 10  1  0
 13 12  1  1
 13 14  1  0
 14  7  1  0
 15 16  2  0
 15 13  1  0
 18 17  1  0
 18 19  2  0
 20 21  1  0
 20 18  1  0
 22 21  1  6
 22 23  1  0
 23 15  1  0
 24 22  1  0
 25 24  1  0
 26 24  2  0
M  END
$$$$
