LLQ.pdb
     RDKit          3D

 26 25  0  0  1  0  0  0  0  0999 V2000
    6.2559  -13.2990   20.0165 C   0  0  0  0  0  0  0  0  0  0  0  0
    7.6289  -13.6222   19.5270 C   0  0  1  0  0  0  0  0  0  0  0  0
    8.1117  -12.6117   18.5002 C   0  0  0  0  0  0  0  0  0  0  0  0
    8.6349  -13.8188   20.6312 C   0  0  0  0  0  0  0  0  0  0  0  0
    8.5091  -15.1544   21.3105 C   0  0  2  0  0  0  0  0  0  0  0  0
    7.1563  -15.6078   21.1810 N   0  0  0  0  0  0  0  0  0  0  0  0
    8.9148  -14.9886   22.7218 C   0  0  0  0  0  0  0  0  0  0  0  0
   10.1130  -14.7844   23.0053 O   0  0  0  0  0  0  0  0  0  0  0  0
    5.3784  -12.9484   26.4630 C   0  0  0  0  0  0  0  0  0  0  0  0
    6.6918  -13.2091   25.7517 C   0  0  1  0  0  0  0  0  0  0  0  0
    7.7747  -12.3461   26.3778 C   0  0  0  0  0  0  0  0  0  0  0  0
    7.0517  -14.6480   25.9686 C   0  0  0  0  0  0  0  0  0  0  0  0
    8.3073  -15.0059   25.1719 C   0  0  2  0  0  0  0  0  0  0  0  0
    7.9631  -15.0577   23.7629 N   0  0  0  0  0  0  0  0  0  0  0  0
    8.7627  -16.3858   25.5483 C   0  0  0  0  0  0  0  0  0  0  0  0
    8.0634  -17.4110   25.3431 O   0  0  0  0  0  0  0  0  0  0  0  0
   13.6433  -19.0272   23.8519 N   0  0  0  0  0  0  0  0  0  0  0  0
   13.4860  -19.7758   25.0372 C   0  0  0  0  0  0  0  0  0  0  0  0
   14.1388  -20.8390   25.1668 O   0  0  0  0  0  0  0  0  0  0  0  0
   12.5831  -19.3613   26.1362 C   0  0  0  0  0  0  0  0  0  0  0  0
   11.8933  -18.0755   25.7930 C   0  0  0  0  0  0  0  0  0  0  0  0
   10.5480  -17.9349   26.4451 C   0  0  2  0  0  0  0  0  0  0  0  0
   10.0367  -16.5835   26.1671 N   0  0  0  0  0  0  0  0  0  0  0  0
   10.6092  -18.0869   27.9161 C   0  0  0  0  0  0  0  0  0  0  0  0
   10.8073  -19.3160   28.5239 O   0  0  0  0  0  0  0  0  0  0  0  0
   10.4795  -17.0818   28.6569 O   0  0  0  0  0  0  0  0  0  0  0  0
  2  1  1  1
  3  2  1  0
  4  5  1  0
  4  2  1  0
  5  6  1  1
  7  8  2  0
  7  5  1  0
 10  9  1  1
 11 10  1  0
 12 10  1  0
 13 12  1  1
 13 14  1  0
 14  7  1  0
 15 16  2  0
 15 13  1  0
 18 17  1  0
 18 19  2  0
 20 21  1  0
 20 18  1  0
 22 21  1  6
 22 23  1  0
 23 15  1  0
 24 22  1  0
 25 24  1  0
 26 24  2  0
M  END
$$$$
