LLQ.pdb
     RDKit          3D

 26 25  0  0  1  0  0  0  0  0999 V2000
    7.7923  -12.3070   19.1668 C   0  0  0  0  0  0  0  0  0  0  0  0
    7.9035  -13.6535   19.8021 C   0  0  1  0  0  0  0  0  0  0  0  0
    8.2126  -14.7337   18.7792 C   0  0  0  0  0  0  0  0  0  0  0  0
    8.8603  -13.6973   20.9651 C   0  0  0  0  0  0  0  0  0  0  0  0
    8.7255  -14.9468   21.7909 C   0  0  2  0  0  0  0  0  0  0  0  0
    7.3619  -15.3833   21.7406 N   0  0  0  0  0  0  0  0  0  0  0  0
    9.1666  -14.6346   23.1663 C   0  0  0  0  0  0  0  0  0  0  0  0
   10.3355  -14.2489   23.3729 O   0  0  0  0  0  0  0  0  0  0  0  0
    5.6700  -12.2542   26.5613 C   0  0  0  0  0  0  0  0  0  0  0  0
    6.9466  -12.6382   25.8391 C   0  0  1  0  0  0  0  0  0  0  0  0
    8.0256  -11.6183   26.1633 C   0  0  0  0  0  0  0  0  0  0  0  0
    7.3857  -13.9719   26.3639 C   0  0  0  0  0  0  0  0  0  0  0  0
    8.6407  -14.4438   25.6279 C   0  0  2  0  0  0  0  0  0  0  0  0
    8.2817  -14.7660   24.2591 N   0  0  0  0  0  0  0  0  0  0  0  0
    9.1353  -15.7181   26.2479 C   0  0  0  0  0  0  0  0  0  0  0  0
    9.4426  -15.8066   27.4645 O   0  0  0  0  0  0  0  0  0  0  0  0
    9.3134  -21.3224   22.4028 N   0  0  0  0  0  0  0  0  0  0  0  0
   10.0488  -20.9608   23.5510 C   0  0  0  0  0  0  0  0  0  0  0  0
   10.6050  -21.8663   24.2174 O   0  0  0  0  0  0  0  0  0  0  0  0
   10.1930  -19.5580   24.0048 C   0  0  0  0  0  0  0  0  0  0  0  0
    9.3165  -19.2968   25.1924 C   0  0  0  0  0  0  0  0  0  0  0  0
    9.7926  -18.1502   26.0369 C   0  0  2  0  0  0  0  0  0  0  0  0
    9.2763  -16.9007   25.4562 N   0  0  0  0  0  0  0  0  0  0  0  0
   11.2683  -18.0416   26.0705 C   0  0  0  0  0  0  0  0  0  0  0  0
   11.9683  -17.2196   25.2023 O   0  0  0  0  0  0  0  0  0  0  0  0
   11.9279  -18.7076   26.9056 O   0  0  0  0  0  0  0  0  0  0  0  0
  2  1  1  6
  3  2  1  0
  4  5  1  0
  4  2  1  0
  5  6  1  1
  7  8  2  0
  7  5  1  0
 10  9  1  1
 11 10  1  0
 12 10  1  0
 13 12  1  1
 13 14  1  0
 14  7  1  0
 15 16  2  0
 15 13  1  0
 18 17  1  0
 18 19  2  0
 20 21  1  0
 20 18  1  0
 22 21  1  6
 22 23  1  0
 23 15  1  0
 24 22  1  0
 25 24  1  0
 26 24  2  0
M  END
$$$$
