LLQ.pdb
     RDKit          3D

 26 25  0  0  1  0  0  0  0  0999 V2000
    6.6440  -13.3243   20.2190 C   0  0  0  0  0  0  0  0  0  0  0  0
    8.0609  -13.3965   19.7538 C   0  0  1  0  0  0  0  0  0  0  0  0
    8.4288  -12.2045   18.8862 C   0  0  0  0  0  0  0  0  0  0  0  0
    9.0544  -13.6028   20.8675 C   0  0  0  0  0  0  0  0  0  0  0  0
    8.9302  -14.9498   21.5243 C   0  0  2  0  0  0  0  0  0  0  0  0
    7.6035  -15.4444   21.3062 N   0  0  0  0  0  0  0  0  0  0  0  0
    9.2421  -14.7880   22.9597 C   0  0  0  0  0  0  0  0  0  0  0  0
   10.3668  -14.3756   23.3099 O   0  0  0  0  0  0  0  0  0  0  0  0
    5.5443  -12.6638   26.2599 C   0  0  0  0  0  0  0  0  0  0  0  0
    6.8833  -13.0253   25.6474 C   0  0  1  0  0  0  0  0  0  0  0  0
    7.9611  -12.1430   26.2553 C   0  0  0  0  0  0  0  0  0  0  0  0
    7.1815  -14.4495   26.0076 C   0  0  0  0  0  0  0  0  0  0  0  0
    8.4994  -14.8924   25.3701 C   0  0  2  0  0  0  0  0  0  0  0  0
    8.2822  -15.0943   23.9494 N   0  0  0  0  0  0  0  0  0  0  0  0
    8.9039  -16.2246   25.9309 C   0  0  0  0  0  0  0  0  0  0  0  0
    8.5626  -16.6102   27.0785 O   0  0  0  0  0  0  0  0  0  0  0  0
   11.4062  -20.8526   22.4506 N   0  0  0  0  0  0  0  0  0  0  0  0
   10.3226  -19.9650   22.2831 C   0  0  0  0  0  0  0  0  0  0  0  0
    9.7625  -19.9063   21.1624 O   0  0  0  0  0  0  0  0  0  0  0  0
    9.8168  -19.0987   23.3733 C   0  0  0  0  0  0  0  0  0  0  0  0
   10.6453  -19.2728   24.6103 C   0  0  0  0  0  0  0  0  0  0  0  0
   10.2225  -18.3729   25.7355 C   0  0  2  0  0  0  0  0  0  0  0  0
    9.7098  -17.1196   25.1597 N   0  0  0  0  0  0  0  0  0  0  0  0
   11.3446  -18.0168   26.6327 C   0  0  0  0  0  0  0  0  0  0  0  0
   11.9015  -16.7484   26.6511 O   0  0  0  0  0  0  0  0  0  0  0  0
   11.8232  -18.8775   27.4113 O   0  0  0  0  0  0  0  0  0  0  0  0
  2  1  1  1
  3  2  1  0
  4  5  1  0
  4  2  1  0
  5  6  1  1
  7  8  2  0
  7  5  1  0
 10  9  1  1
 11 10  1  0
 12 10  1  0
 13 12  1  1
 13 14  1  0
 14  7  1  0
 15 16  2  0
 15 13  1  0
 18 17  1  0
 18 19  2  0
 20 21  1  0
 20 18  1  0
 22 21  1  6
 22 23  1  0
 23 15  1  0
 24 22  1  0
 25 24  1  0
 26 24  2  0
M  END
$$$$
