LLQ.pdb
     RDKit          3D

 26 25  0  0  1  0  0  0  0  0999 V2000
    8.2058  -19.9438   20.3465 C   0  0  0  0  0  0  0  0  0  0  0  0
    8.3651  -18.4741   20.1375 C   0  0  1  0  0  0  0  0  0  0  0  0
    7.2976  -17.9197   19.2090 C   0  0  0  0  0  0  0  0  0  0  0  0
    8.4533  -17.6861   21.4185 C   0  0  0  0  0  0  0  0  0  0  0  0
    8.5536  -16.2031   21.1911 C   0  0  2  0  0  0  0  0  0  0  0  0
    9.5254  -15.9623   20.1662 N   0  0  0  0  0  0  0  0  0  0  0  0
    8.9193  -15.5683   22.4744 C   0  0  0  0  0  0  0  0  0  0  0  0
   10.1173  -15.5052   22.8188 O   0  0  0  0  0  0  0  0  0  0  0  0
    8.2911  -12.1803   26.4753 C   0  0  0  0  0  0  0  0  0  0  0  0
    7.1820  -13.2133   26.5156 C   0  0  1  0  0  0  0  0  0  0  0  0
    5.8992  -12.5456   26.9826 C   0  0  0  0  0  0  0  0  0  0  0  0
    6.9714  -13.7132   25.1182 C   0  0  0  0  0  0  0  0  0  0  0  0
    8.2120  -14.4639   24.6314 C   0  0  2  0  0  0  0  0  0  0  0  0
    7.9293  -15.0277   23.3242 N   0  0  0  0  0  0  0  0  0  0  0  0
    8.4851  -15.6241   25.5437 C   0  0  0  0  0  0  0  0  0  0  0  0
    7.5794  -16.3975   25.9484 O   0  0  0  0  0  0  0  0  0  0  0  0
   13.1688  -19.4945   25.2086 N   0  0  0  0  0  0  0  0  0  0  0  0
   12.1578  -18.9884   24.3649 C   0  0  0  0  0  0  0  0  0  0  0  0
   12.2063  -19.2587   23.1410 O   0  0  0  0  0  0  0  0  0  0  0  0
   11.0408  -18.1513   24.8610 C   0  0  0  0  0  0  0  0  0  0  0  0
   11.2391  -17.8141   26.3081 C   0  0  0  0  0  0  0  0  0  0  0  0
   10.1037  -17.0230   26.8909 C   0  0  2  0  0  0  0  0  0  0  0  0
    9.8159  -15.8937   25.9926 N   0  0  0  0  0  0  0  0  0  0  0  0
   10.4273  -16.4557   28.2191 C   0  0  0  0  0  0  0  0  0  0  0  0
   10.6748  -15.1053   28.4051 O   0  0  0  0  0  0  0  0  0  0  0  0
   10.4847  -17.2051   29.2247 O   0  0  0  0  0  0  0  0  0  0  0  0
  2  1  1  1
  3  2  1  0
  4  5  1  0
  4  2  1  0
  5  6  1  6
  7  8  2  0
  7  5  1  0
 10  9  1  6
 11 10  1  0
 12 10  1  0
 13 12  1  1
 13 14  1  0
 14  7  1  0
 15 16  2  0
 15 13  1  0
 18 17  1  0
 18 19  2  0
 20 21  1  0
 20 18  1  0
 22 21  1  6
 22 23  1  0
 23 15  1  0
 24 22  1  0
 25 24  1  0
 26 24  2  0
M  END
$$$$
