LLQ.pdb
     RDKit          3D

 26 25  0  0  1  0  0  0  0  0999 V2000
    6.5495  -13.5095   20.5237 C   0  0  0  0  0  0  0  0  0  0  0  0
    7.9193  -13.8610   20.0448 C   0  0  1  0  0  0  0  0  0  0  0  0
    8.3901  -12.9200   18.9486 C   0  0  0  0  0  0  0  0  0  0  0  0
    8.9354  -13.9809   21.1508 C   0  0  0  0  0  0  0  0  0  0  0  0
    8.7043  -15.1750   22.0350 C   0  0  2  0  0  0  0  0  0  0  0  0
    7.3161  -15.5248   21.9775 N   0  0  0  0  0  0  0  0  0  0  0  0
    9.1399  -14.8217   23.4021 C   0  0  0  0  0  0  0  0  0  0  0  0
   10.3439  -14.5847   23.6303 O   0  0  0  0  0  0  0  0  0  0  0  0
    5.5836  -12.1191   26.5748 C   0  0  0  0  0  0  0  0  0  0  0  0
    6.8770  -12.5387   25.9042 C   0  0  1  0  0  0  0  0  0  0  0  0
    7.9443  -11.4949   26.1887 C   0  0  0  0  0  0  0  0  0  0  0  0
    7.3108  -13.8356   26.5180 C   0  0  0  0  0  0  0  0  0  0  0  0
    8.5644  -14.3608   25.8164 C   0  0  2  0  0  0  0  0  0  0  0  0
    8.2105  -14.7470   24.4629 N   0  0  0  0  0  0  0  0  0  0  0  0
    9.0371  -15.6085   26.5037 C   0  0  0  0  0  0  0  0  0  0  0  0
    9.2603  -15.6594   27.7406 O   0  0  0  0  0  0  0  0  0  0  0  0
    7.2641  -21.7760   26.4480 N   0  0  0  0  0  0  0  0  0  0  0  0
    7.0443  -20.6698   27.2955 C   0  0  0  0  0  0  0  0  0  0  0  0
    5.9332  -20.5633   27.8675 O   0  0  0  0  0  0  0  0  0  0  0  0
    8.0688  -19.6280   27.5398 C   0  0  0  0  0  0  0  0  0  0  0  0
    8.5690  -19.0682   26.2423 C   0  0  0  0  0  0  0  0  0  0  0  0
    9.6642  -18.0563   26.4190 C   0  0  2  0  0  0  0  0  0  0  0  0
    9.2541  -16.8083   25.7562 N   0  0  0  0  0  0  0  0  0  0  0  0
   10.9394  -18.4830   25.8006 C   0  0  0  0  0  0  0  0  0  0  0  0
   11.4784  -17.8380   24.6993 O   0  0  0  0  0  0  0  0  0  0  0  0
   11.5705  -19.4598   26.2736 O   0  0  0  0  0  0  0  0  0  0  0  0
  2  1  1  1
  3  2  1  0
  4  5  1  0
  4  2  1  0
  5  6  1  1
  7  8  2  0
  7  5  1  0
 10  9  1  1
 11 10  1  0
 12 10  1  0
 13 12  1  1
 13 14  1  0
 14  7  1  0
 15 16  2  0
 15 13  1  0
 18 17  1  0
 18 19  2  0
 20 21  1  0
 20 18  1  0
 22 21  1  6
 22 23  1  0
 23 15  1  0
 24 22  1  0
 25 24  1  0
 26 24  2  0
M  END
$$$$
