LLQ.pdb
     RDKit          3D

 26 25  0  0  1  0  0  0  0  0999 V2000
    7.2685  -12.7028   18.5992 C   0  0  0  0  0  0  0  0  0  0  0  0
    7.5785  -14.0467   19.1709 C   0  0  1  0  0  0  0  0  0  0  0  0
    7.6968  -15.1048   18.0867 C   0  0  0  0  0  0  0  0  0  0  0  0
    8.7731  -14.0536   20.0889 C   0  0  0  0  0  0  0  0  0  0  0  0
    8.7215  -15.1533   21.1132 C   0  0  2  0  0  0  0  0  0  0  0  0
    7.4174  -15.7458   21.0826 N   0  0  0  0  0  0  0  0  0  0  0  0
    9.0422  -14.5654   22.4305 C   0  0  0  0  0  0  0  0  0  0  0  0
   10.1555  -14.0343   22.6209 O   0  0  0  0  0  0  0  0  0  0  0  0
    7.6813  -11.3914   26.2772 C   0  0  0  0  0  0  0  0  0  0  0  0
    7.0237  -12.7296   26.5521 C   0  0  1  0  0  0  0  0  0  0  0  0
    5.6290  -12.4921   27.1071 C   0  0  0  0  0  0  0  0  0  0  0  0
    6.8941  -13.4527   25.2454 C   0  0  0  0  0  0  0  0  0  0  0  0
    8.2729  -13.8712   24.7324 C   0  0  2  0  0  0  0  0  0  0  0  0
    8.1037  -14.5942   23.4854 N   0  0  0  0  0  0  0  0  0  0  0  0
    8.8959  -14.8346   25.7002 C   0  0  0  0  0  0  0  0  0  0  0  0
    8.8861  -14.6491   26.9443 O   0  0  0  0  0  0  0  0  0  0  0  0
    6.5376  -19.7322   26.8711 N   0  0  0  0  0  0  0  0  0  0  0  0
    7.6537  -19.7250   27.7339 C   0  0  0  0  0  0  0  0  0  0  0  0
    7.5677  -20.3257   28.8316 O   0  0  0  0  0  0  0  0  0  0  0  0
    8.9234  -19.0386   27.4003 C   0  0  0  0  0  0  0  0  0  0  0  0
    8.6568  -17.8003   26.5988 C   0  0  0  0  0  0  0  0  0  0  0  0
    9.9104  -17.1063   26.1498 C   0  0  2  0  0  0  0  0  0  0  0  0
    9.5359  -16.0229   25.2273 N   0  0  0  0  0  0  0  0  0  0  0  0
   10.8296  -18.0069   25.4187 C   0  0  0  0  0  0  0  0  0  0  0  0
   11.8000  -18.7550   26.0654 O   0  0  0  0  0  0  0  0  0  0  0  0
   10.7449  -18.1119   24.1706 O   0  0  0  0  0  0  0  0  0  0  0  0
  2  1  1  6
  3  2  1  0
  4  5  1  0
  4  2  1  0
  5  6  1  1
  7  8  2  0
  7  5  1  0
 10  9  1  6
 11 10  1  0
 12 10  1  0
 13 12  1  1
 13 14  1  0
 14  7  1  0
 15 16  2  0
 15 13  1  0
 18 17  1  0
 18 19  2  0
 20 21  1  0
 20 18  1  0
 22 21  1  6
 22 23  1  0
 23 15  1  0
 24 22  1  0
 25 24  1  0
 26 24  2  0
M  END
$$$$
