LLQ.pdb
     RDKit          3D

 26 25  0  0  1  0  0  0  0  0999 V2000
    7.6520  -12.0914   19.0965 C   0  0  0  0  0  0  0  0  0  0  0  0
    7.8016  -13.4869   19.6058 C   0  0  1  0  0  0  0  0  0  0  0  0
    8.4898  -14.3846   18.5913 C   0  0  0  0  0  0  0  0  0  0  0  0
    8.4577  -13.5705   20.9595 C   0  0  0  0  0  0  0  0  0  0  0  0
    8.5130  -14.9724   21.5006 C   0  0  2  0  0  0  0  0  0  0  0  0
    7.2069  -15.5528   21.4015 N   0  0  0  0  0  0  0  0  0  0  0  0
    8.9946  -14.9042   22.8960 C   0  0  0  0  0  0  0  0  0  0  0  0
   10.1736  -14.5695   23.1322 O   0  0  0  0  0  0  0  0  0  0  0  0
    5.9609  -12.6138   26.5372 C   0  0  0  0  0  0  0  0  0  0  0  0
    7.2173  -13.1016   25.8427 C   0  0  1  0  0  0  0  0  0  0  0  0
    8.4125  -12.3346   26.3836 C   0  0  0  0  0  0  0  0  0  0  0  0
    7.3944  -14.5509   26.1823 C   0  0  0  0  0  0  0  0  0  0  0  0
    8.5420  -15.1496   25.3674 C   0  0  2  0  0  0  0  0  0  0  0  0
    8.1375  -15.2136   23.9750 N   0  0  0  0  0  0  0  0  0  0  0  0
    8.7814  -16.5652   25.8050 C   0  0  0  0  0  0  0  0  0  0  0  0
    7.8656  -17.4264   25.8490 O   0  0  0  0  0  0  0  0  0  0  0  0
   11.4859  -20.5804   23.9184 N   0  0  0  0  0  0  0  0  0  0  0  0
   11.9021  -19.2575   23.6598 C   0  0  0  0  0  0  0  0  0  0  0  0
   12.2385  -18.9517   22.4908 O   0  0  0  0  0  0  0  0  0  0  0  0
   11.9592  -18.2130   24.7088 C   0  0  0  0  0  0  0  0  0  0  0  0
   11.6718  -18.8045   26.0558 C   0  0  0  0  0  0  0  0  0  0  0  0
   10.3472  -18.3759   26.6184 C   0  0  2  0  0  0  0  0  0  0  0  0
   10.0899  -16.9903   26.1953 N   0  0  0  0  0  0  0  0  0  0  0  0
   10.3239  -18.3944   28.0982 C   0  0  0  0  0  0  0  0  0  0  0  0
   10.3685  -19.5743   28.8229 O   0  0  0  0  0  0  0  0  0  0  0  0
   10.2617  -17.3163   28.7385 O   0  0  0  0  0  0  0  0  0  0  0  0
  2  1  1  6
  3  2  1  0
  4  5  1  0
  4  2  1  0
  5  6  1  1
  7  8  2  0
  7  5  1  0
 10  9  1  1
 11 10  1  0
 12 10  1  0
 13 12  1  1
 13 14  1  0
 14  7  1  0
 15 16  2  0
 15 13  1  0
 18 17  1  0
 18 19  2  0
 20 21  1  0
 20 18  1  0
 22 21  1  1
 22 23  1  0
 23 15  1  0
 24 22  1  0
 25 24  1  0
 26 24  2  0
M  END
$$$$
