LLQ.pdb
     RDKit          3D

 26 25  0  0  1  0  0  0  0  0999 V2000
    7.1461  -13.0759   20.2209 C   0  0  0  0  0  0  0  0  0  0  0  0
    8.3043  -13.6126   19.4465 C   0  0  1  0  0  0  0  0  0  0  0  0
    8.7715  -12.6330   18.3830 C   0  0  0  0  0  0  0  0  0  0  0  0
    9.4452  -14.0826   20.3110 C   0  0  0  0  0  0  0  0  0  0  0  0
    9.0585  -15.2018   21.2378 C   0  0  2  0  0  0  0  0  0  0  0  0
    7.7303  -15.6280   20.9111 N   0  0  0  0  0  0  0  0  0  0  0  0
    9.1648  -14.7031   22.6248 C   0  0  0  0  0  0  0  0  0  0  0  0
   10.2561  -14.2709   23.0491 O   0  0  0  0  0  0  0  0  0  0  0  0
    7.5547  -11.8185   26.5666 C   0  0  0  0  0  0  0  0  0  0  0  0
    6.6239  -13.0141   26.5115 C   0  0  1  0  0  0  0  0  0  0  0  0
    5.2047  -12.5511   26.7961 C   0  0  0  0  0  0  0  0  0  0  0  0
    6.6693  -13.5654   25.1183 C   0  0  0  0  0  0  0  0  0  0  0  0
    8.0547  -14.1414   24.8213 C   0  0  2  0  0  0  0  0  0  0  0  0
    8.0446  -14.7072   23.4848 N   0  0  0  0  0  0  0  0  0  0  0  0
    8.3365  -15.2775   25.7608 C   0  0  0  0  0  0  0  0  0  0  0  0
    7.9651  -15.2728   26.9626 O   0  0  0  0  0  0  0  0  0  0  0  0
    6.2194  -18.8494   23.5910 N   0  0  0  0  0  0  0  0  0  0  0  0
    5.7968  -18.5184   24.8956 C   0  0  0  0  0  0  0  0  0  0  0  0
    4.5729  -18.3386   25.1026 O   0  0  0  0  0  0  0  0  0  0  0  0
    6.7356  -18.3738   26.0325 C   0  0  0  0  0  0  0  0  0  0  0  0
    8.1422  -18.6437   25.5903 C   0  0  0  0  0  0  0  0  0  0  0  0
    9.1309  -17.6495   26.1274 C   0  0  2  0  0  0  0  0  0  0  0  0
    9.0534  -16.4294   25.3087 N   0  0  0  0  0  0  0  0  0  0  0  0
   10.5263  -18.1380   26.0559 C   0  0  0  0  0  0  0  0  0  0  0  0
   11.4189  -17.9793   27.1034 O   0  0  0  0  0  0  0  0  0  0  0  0
   10.9358  -18.7185   25.0208 O   0  0  0  0  0  0  0  0  0  0  0  0
  2  1  1  1
  3  2  1  0
  4  5  1  0
  4  2  1  0
  5  6  1  6
  7  8  2  0
  7  5  1  0
 10  9  1  6
 11 10  1  0
 12 10  1  0
 13 12  1  1
 13 14  1  0
 14  7  1  0
 15 16  2  0
 15 13  1  0
 18 17  1  0
 18 19  2  0
 20 21  1  0
 20 18  1  0
 22 21  1  6
 22 23  1  0
 23 15  1  0
 24 22  1  0
 25 24  1  0
 26 24  2  0
M  END
$$$$
