LLQ.pdb
     RDKit          3D

 26 25  0  0  1  0  0  0  0  0999 V2000
    7.9461  -12.0975   18.9271 C   0  0  0  0  0  0  0  0  0  0  0  0
    7.7684  -13.4723   19.4814 C   0  0  1  0  0  0  0  0  0  0  0  0
    7.2114  -14.4298   18.4414 C   0  0  0  0  0  0  0  0  0  0  0  0
    9.0056  -14.0241   20.1409 C   0  0  0  0  0  0  0  0  0  0  0  0
    8.7346  -15.2516   20.9661 C   0  0  2  0  0  0  0  0  0  0  0  0
    7.3706  -15.6431   20.7690 N   0  0  0  0  0  0  0  0  0  0  0  0
    9.0291  -14.9269   22.3773 C   0  0  0  0  0  0  0  0  0  0  0  0
   10.1841  -14.5916   22.7111 O   0  0  0  0  0  0  0  0  0  0  0  0
    8.2691  -12.6459   26.8687 C   0  0  0  0  0  0  0  0  0  0  0  0
    7.1730  -13.6892   26.7739 C   0  0  1  0  0  0  0  0  0  0  0  0
    5.8773  -13.0965   27.3024 C   0  0  0  0  0  0  0  0  0  0  0  0
    6.9824  -14.0222   25.3248 C   0  0  0  0  0  0  0  0  0  0  0  0
    8.2414  -14.6847   24.7634 C   0  0  2  0  0  0  0  0  0  0  0  0
    8.0188  -14.9901   23.3621 N   0  0  0  0  0  0  0  0  0  0  0  0
    8.4659  -15.9986   25.4534 C   0  0  0  0  0  0  0  0  0  0  0  0
    7.5807  -16.8897   25.5215 O   0  0  0  0  0  0  0  0  0  0  0  0
   12.5460  -18.4891   22.5126 N   0  0  0  0  0  0  0  0  0  0  0  0
   12.3123  -18.8209   23.8637 C   0  0  0  0  0  0  0  0  0  0  0  0
   13.2380  -19.3565   24.5190 O   0  0  0  0  0  0  0  0  0  0  0  0
   11.0210  -18.5644   24.5429 C   0  0  0  0  0  0  0  0  0  0  0  0
   11.2484  -18.1509   25.9656 C   0  0  0  0  0  0  0  0  0  0  0  0
   10.0125  -17.6161   26.6298 C   0  0  2  0  0  0  0  0  0  0  0  0
    9.7237  -16.2862   26.0703 N   0  0  0  0  0  0  0  0  0  0  0  0
   10.1771  -17.4509   28.0914 C   0  0  0  0  0  0  0  0  0  0  0  0
   10.1913  -18.5304   28.9596 O   0  0  0  0  0  0  0  0  0  0  0  0
   10.3100  -16.3032   28.5824 O   0  0  0  0  0  0  0  0  0  0  0  0
  2  1  1  6
  3  2  1  0
  4  5  1  0
  4  2  1  0
  5  6  1  1
  7  8  2  0
  7  5  1  0
 10  9  1  6
 11 10  1  0
 12 10  1  0
 13 12  1  1
 13 14  1  0
 14  7  1  0
 15 16  2  0
 15 13  1  0
 18 17  1  0
 18 19  2  0
 20 21  1  0
 20 18  1  0
 22 21  1  6
 22 23  1  0
 23 15  1  0
 24 22  1  0
 25 24  1  0
 26 24  2  0
M  END
$$$$
