LLQ.pdb
     RDKit          3D

 26 25  0  0  1  0  0  0  0  0999 V2000
    5.5754  -18.3504   18.5309 C   0  0  0  0  0  0  0  0  0  0  0  0
    6.2612  -18.5980   19.8337 C   0  0  1  0  0  0  0  0  0  0  0  0
    7.3367  -19.6641   19.7088 C   0  0  0  0  0  0  0  0  0  0  0  0
    6.7893  -17.3476   20.4875 C   0  0  0  0  0  0  0  0  0  0  0  0
    7.4525  -17.6111   21.8111 C   0  0  2  0  0  0  0  0  0  0  0  0
    6.5147  -18.2728   22.6687 N   0  0  0  0  0  0  0  0  0  0  0  0
    7.9027  -16.3158   22.3619 C   0  0  0  0  0  0  0  0  0  0  0  0
    8.8126  -15.6794   21.7920 O   0  0  0  0  0  0  0  0  0  0  0  0
    7.0414  -11.6311   24.7249 C   0  0  0  0  0  0  0  0  0  0  0  0
    7.0270  -12.7636   25.7328 C   0  0  1  0  0  0  0  0  0  0  0  0
    5.9997  -12.4559   26.8097 C   0  0  0  0  0  0  0  0  0  0  0  0
    6.5996  -14.0087   25.0158 C   0  0  0  0  0  0  0  0  0  0  0  0
    7.7417  -14.5385   24.1474 C   0  0  2  0  0  0  0  0  0  0  0  0
    7.3167  -15.7817   23.5306 N   0  0  0  0  0  0  0  0  0  0  0  0
    8.9169  -14.8769   25.0176 C   0  0  0  0  0  0  0  0  0  0  0  0
    9.5737  -14.0038   25.6411 O   0  0  0  0  0  0  0  0  0  0  0  0
   11.4156  -20.8375   27.8916 N   0  0  0  0  0  0  0  0  0  0  0  0
   11.1531  -19.5046   28.2714 C   0  0  0  0  0  0  0  0  0  0  0  0
   10.5977  -19.2934   29.3760 O   0  0  0  0  0  0  0  0  0  0  0  0
   11.5046  -18.3425   27.4225 C   0  0  0  0  0  0  0  0  0  0  0  0
   10.2943  -17.8353   26.6981 C   0  0  0  0  0  0  0  0  0  0  0  0
   10.5552  -16.5772   25.9211 C   0  0  2  0  0  0  0  0  0  0  0  0
    9.3375  -16.2353   25.1693 N   0  0  0  0  0  0  0  0  0  0  0  0
   11.6497  -16.7321   24.9368 C   0  0  0  0  0  0  0  0  0  0  0  0
   11.4543  -17.3325   23.7036 O   0  0  0  0  0  0  0  0  0  0  0  0
   12.8015  -16.3127   25.2076 O   0  0  0  0  0  0  0  0  0  0  0  0
  2  1  1  6
  3  2  1  0
  4  5  1  0
  4  2  1  0
  5  6  1  1
  7  8  2  0
  7  5  1  0
 10  9  1  6
 11 10  1  0
 12 10  1  0
 13 12  1  1
 13 14  1  0
 14  7  1  0
 15 16  2  0
 15 13  1  0
 18 17  1  0
 18 19  2  0
 20 21  1  0
 20 18  1  0
 22 21  1  6
 22 23  1  0
 23 15  1  0
 24 22  1  0
 25 24  1  0
 26 24  2  0
M  END
$$$$
