GVR.pdb
     RDKit          3D

 23 22  0  0  1  0  0  0  0  0999 V2000
    5.4679  -12.3720   27.2298 N   0  0  0  0  0  0  0  0  0  0  0  0
    6.1846  -11.8762   26.0787 C   0  0  0  0  0  0  0  0  0  0  0  0
    6.5226  -13.0521   25.2032 C   0  0  0  0  0  0  0  0  0  0  0  0
    6.4316  -14.2250   25.6336 O   0  0  0  0  0  0  0  0  0  0  0  0
    7.5069  -14.8379   20.6594 C   0  0  0  0  0  0  0  0  0  0  0  0
    7.2710  -13.6841   21.5668 C   0  0  2  0  0  0  0  0  0  0  0  0
    8.1886  -12.5452   21.1789 C   0  0  0  0  0  0  0  0  0  0  0  0
    7.3539  -13.9458   23.0225 C   0  0  2  0  0  0  0  0  0  0  0  0
    6.9579  -12.8606   23.8561 N   0  0  0  0  0  0  0  0  0  0  0  0
    8.5667  -14.6741   23.4540 C   0  0  0  0  0  0  0  0  0  0  0  0
    9.6236  -14.0184   23.5802 O   0  0  0  0  0  0  0  0  0  0  0  0
    8.0606  -21.9663   27.8785 N   0  0  0  0  0  0  0  0  0  0  0  0
    7.3092  -21.6163   26.7175 C   0  0  0  0  0  0  0  0  0  0  0  0
    6.5877  -22.5146   26.1307 N   0  0  0  0  0  0  0  0  0  0  0  0
    7.3109  -20.3171   26.1613 N   0  0  0  0  0  0  0  0  0  0  0  0
    8.5186  -19.5640   26.1065 C   0  0  0  0  0  0  0  0  0  0  0  0
    8.3326  -18.1450   25.6440 C   0  0  0  0  0  0  0  0  0  0  0  0
    9.6180  -17.3681   25.5394 C   0  0  0  0  0  0  0  0  0  0  0  0
    9.7847  -16.7231   24.1904 C   0  0  2  0  0  0  0  0  0  0  0  0
    8.5837  -16.0616   23.7226 N   0  0  0  0  0  0  0  0  0  0  0  0
   10.2161  -17.8008   23.2322 C   0  0  0  0  0  0  0  0  0  0  0  0
    9.4253  -18.1796   22.1669 O   0  0  0  0  0  0  0  0  0  0  0  0
   11.3194  -18.3698   23.4044 O   0  0  0  0  0  0  0  0  0  0  0  0
  2  3  1  0
  2  1  1  0
  3  9  1  0
  4  3  2  0
  6  5  1  6
  6  7  1  0
  6  8  1  0
  8 10  1  0
  8  9  1  1
 10 11  2  0
 10 20  1  0
 13 12  1  0
 14 13  2  0
 15 13  1  0
 16 15  1  0
 17 16  1  0
 19 18  1  1
 18 17  1  0
 19 21  1  0
 20 19  1  0
 21 23  2  0
 21 22  1  0
M  END
$$$$
