GVR.pdb
     RDKit          3D

 23 22  0  0  1  0  0  0  0  0999 V2000
    7.4291  -14.0409   20.1154 N   0  0  0  0  0  0  0  0  0  0  0  0
    6.4730  -14.1792   21.1884 C   0  0  0  0  0  0  0  0  0  0  0  0
    7.2119  -14.0190   22.4891 C   0  0  0  0  0  0  0  0  0  0  0  0
    8.4524  -14.1817   22.5515 O   0  0  0  0  0  0  0  0  0  0  0  0
    6.0537  -11.3868   25.4924 C   0  0  0  0  0  0  0  0  0  0  0  0
    6.5012  -12.7284   25.9510 C   0  0  2  0  0  0  0  0  0  0  0  0
    7.3650  -12.5747   27.1838 C   0  0  0  0  0  0  0  0  0  0  0  0
    7.1714  -13.5917   24.9511 C   0  0  2  0  0  0  0  0  0  0  0  0
    6.5160  -13.6774   23.6891 N   0  0  0  0  0  0  0  0  0  0  0  0
    7.6992  -14.8658   25.4854 C   0  0  0  0  0  0  0  0  0  0  0  0
    6.8723  -15.7401   25.8242 O   0  0  0  0  0  0  0  0  0  0  0  0
   11.1737  -20.2645   22.2619 N   0  0  0  0  0  0  0  0  0  0  0  0
   11.2818  -19.1490   21.3792 C   0  0  0  0  0  0  0  0  0  0  0  0
   11.0753  -19.3156   20.1138 N   0  0  0  0  0  0  0  0  0  0  0  0
   11.6100  -17.8469   21.8197 N   0  0  0  0  0  0  0  0  0  0  0  0
   11.8189  -17.5920   23.2053 C   0  0  0  0  0  0  0  0  0  0  0  0
   10.5723  -17.1959   23.9478 C   0  0  0  0  0  0  0  0  0  0  0  0
   10.8076  -16.8758   25.4000 C   0  0  0  0  0  0  0  0  0  0  0  0
    9.5516  -16.4225   26.0933 C   0  0  2  0  0  0  0  0  0  0  0  0
    9.0794  -15.1331   25.6316 N   0  0  0  0  0  0  0  0  0  0  0  0
    9.8438  -16.3939   27.5696 C   0  0  0  0  0  0  0  0  0  0  0  0
   10.0269  -17.5546   28.2927 O   0  0  0  0  0  0  0  0  0  0  0  0
    9.9224  -15.2905   28.1587 O   0  0  0  0  0  0  0  0  0  0  0  0
  2  3  1  0
  2  1  1  0
  3  9  1  0
  4  3  2  0
  6  5  1  6
  6  7  1  0
  6  8  1  0
  8 10  1  0
  8  9  1  6
 10 11  2  0
 10 20  1  0
 13 12  1  0
 14 13  2  0
 15 13  1  0
 16 15  1  0
 17 16  1  0
 19 18  1  6
 18 17  1  0
 19 21  1  0
 20 19  1  0
 21 23  2  0
 21 22  1  0
M  END
$$$$
