GVR.pdb
     RDKit          3D

 23 22  0  0  1  0  0  0  0  0999 V2000
    4.4824  -19.0779   24.6264 N   0  0  0  0  0  0  0  0  0  0  0  0
    5.3016  -18.4285   25.6223 C   0  0  0  0  0  0  0  0  0  0  0  0
    5.8905  -17.1914   25.0009 C   0  0  0  0  0  0  0  0  0  0  0  0
    6.2736  -17.1873   23.8083 O   0  0  0  0  0  0  0  0  0  0  0  0
    7.4026  -12.4601   25.5267 C   0  0  0  0  0  0  0  0  0  0  0  0
    6.7227  -13.6576   26.0872 C   0  0  2  0  0  0  0  0  0  0  0  0
    7.1045  -13.8158   27.5427 C   0  0  0  0  0  0  0  0  0  0  0  0
    6.9043  -14.9355   25.3603 C   0  0  2  0  0  0  0  0  0  0  0  0
    6.0291  -15.9872   25.7571 N   0  0  0  0  0  0  0  0  0  0  0  0
    8.3127  -15.3265   25.1346 C   0  0  0  0  0  0  0  0  0  0  0  0
    8.8862  -15.9767   26.0353 O   0  0  0  0  0  0  0  0  0  0  0  0
    8.7316  -13.4483   17.1078 N   0  0  0  0  0  0  0  0  0  0  0  0
    8.1645  -13.4467   18.4169 C   0  0  0  0  0  0  0  0  0  0  0  0
    7.3982  -12.4699   18.7781 N   0  0  0  0  0  0  0  0  0  0  0  0
    8.3995  -14.4730   19.3597 N   0  0  0  0  0  0  0  0  0  0  0  0
    9.4065  -14.3136   20.3543 C   0  0  0  0  0  0  0  0  0  0  0  0
    9.6338  -15.5400   21.1948 C   0  0  0  0  0  0  0  0  0  0  0  0
   10.7283  -15.3806   22.2162 C   0  0  0  0  0  0  0  0  0  0  0  0
   10.2544  -15.6887   23.6105 C   0  0  2  0  0  0  0  0  0  0  0  0
    9.0304  -14.9979   23.9622 N   0  0  0  0  0  0  0  0  0  0  0  0
   11.3709  -15.3223   24.5511 C   0  0  0  0  0  0  0  0  0  0  0  0
   12.6041  -15.9374   24.4835 O   0  0  0  0  0  0  0  0  0  0  0  0
   11.1781  -14.4380   25.4180 O   0  0  0  0  0  0  0  0  0  0  0  0
  2  3  1  0
  2  1  1  0
  3  9  1  0
  4  3  2  0
  6  5  1  6
  6  7  1  0
  6  8  1  0
  8 10  1  0
  8  9  1  1
 10 11  2  0
 10 20  1  0
 13 12  1  0
 14 13  2  0
 15 13  1  0
 16 15  1  0
 17 16  1  0
 19 18  1  6
 18 17  1  0
 19 21  1  0
 20 19  1  0
 21 23  2  0
 21 22  1  0
M  END
$$$$
