GVR.pdb
     RDKit          3D

 23 22  0  0  1  0  0  0  0  0999 V2000
   13.4193  -14.1924   18.0194 N   0  0  0  0  0  0  0  0  0  0  0  0
   12.0387  -14.6138   18.0472 C   0  0  0  0  0  0  0  0  0  0  0  0
   11.4935  -14.3200   19.4183 C   0  0  0  0  0  0  0  0  0  0  0  0
   12.2443  -13.9290   20.3417 O   0  0  0  0  0  0  0  0  0  0  0  0
    7.0551  -14.4498   20.5804 C   0  0  0  0  0  0  0  0  0  0  0  0
    8.1771  -13.5223   20.8823 C   0  0  2  0  0  0  0  0  0  0  0  0
    8.1510  -12.3683   19.9039 C   0  0  0  0  0  0  0  0  0  0  0  0
    9.5346  -14.1107   20.9559 C   0  0  2  0  0  0  0  0  0  0  0  0
   10.1028  -14.4805   19.7030 N   0  0  0  0  0  0  0  0  0  0  0  0
    9.7333  -15.0766   22.0583 C   0  0  0  0  0  0  0  0  0  0  0  0
    9.9632  -16.2669   21.7528 O   0  0  0  0  0  0  0  0  0  0  0  0
    9.4510  -17.6132   29.5253 N   0  0  0  0  0  0  0  0  0  0  0  0
   10.8202  -17.2761   29.7422 C   0  0  0  0  0  0  0  0  0  0  0  0
   11.5652  -18.0611   30.4495 N   0  0  0  0  0  0  0  0  0  0  0  0
   11.4186  -16.1082   29.2177 N   0  0  0  0  0  0  0  0  0  0  0  0
   10.7250  -15.3194   28.2557 C   0  0  0  0  0  0  0  0  0  0  0  0
   10.7459  -15.8939   26.8658 C   0  0  0  0  0  0  0  0  0  0  0  0
   10.0934  -15.0114   25.8352 C   0  0  0  0  0  0  0  0  0  0  0  0
   10.1248  -15.6228   24.4609 C   0  0  2  0  0  0  0  0  0  0  0  0
    9.6717  -14.7181   23.4240 N   0  0  0  0  0  0  0  0  0  0  0  0
    9.2728  -16.8629   24.5060 C   0  0  0  0  0  0  0  0  0  0  0  0
    9.7916  -18.0826   24.8893 O   0  0  0  0  0  0  0  0  0  0  0  0
    8.0630  -16.7886   24.1875 O   0  0  0  0  0  0  0  0  0  0  0  0
  2  3  1  0
  2  1  1  0
  3  9  1  0
  4  3  2  0
  6  5  1  6
  6  7  1  0
  6  8  1  0
  8 10  1  0
  8  9  1  6
 10 11  2  0
 10 20  1  0
 13 12  1  0
 14 13  2  0
 15 13  1  0
 16 15  1  0
 17 16  1  0
 19 18  1  1
 18 17  1  0
 19 21  1  0
 20 19  1  0
 21 23  2  0
 21 22  1  0
M  END
$$$$
