GVR.pdb
     RDKit          3D

 23 22  0  0  1  0  0  0  0  0999 V2000
    7.2671  -15.0445   20.5682 N   0  0  0  0  0  0  0  0  0  0  0  0
    6.4225  -14.6458   21.6692 C   0  0  0  0  0  0  0  0  0  0  0  0
    7.3110  -14.3204   22.8388 C   0  0  0  0  0  0  0  0  0  0  0  0
    8.5230  -14.6369   22.8369 O   0  0  0  0  0  0  0  0  0  0  0  0
    8.0545  -11.7414   27.0211 C   0  0  0  0  0  0  0  0  0  0  0  0
    7.1440  -12.2025   25.9401 C   0  0  2  0  0  0  0  0  0  0  0  0
    5.7716  -12.4679   26.5194 C   0  0  0  0  0  0  0  0  0  0  0  0
    7.5962  -13.3547   25.1261 C   0  0  2  0  0  0  0  0  0  0  0  0
    6.7939  -13.6413   23.9844 N   0  0  0  0  0  0  0  0  0  0  0  0
    8.0407  -14.5297   25.9067 C   0  0  0  0  0  0  0  0  0  0  0  0
    7.1605  -15.2355   26.4454 O   0  0  0  0  0  0  0  0  0  0  0  0
    9.6311  -17.9582   22.1773 N   0  0  0  0  0  0  0  0  0  0  0  0
   11.0136  -18.2942   22.0721 C   0  0  0  0  0  0  0  0  0  0  0  0
   11.3702  -19.3068   21.3516 N   0  0  0  0  0  0  0  0  0  0  0  0
   12.0349  -17.5682   22.7258 N   0  0  0  0  0  0  0  0  0  0  0  0
   11.7096  -16.6675   23.7802 C   0  0  0  0  0  0  0  0  0  0  0  0
   10.7302  -17.2233   24.7773 C   0  0  0  0  0  0  0  0  0  0  0  0
   10.9810  -16.7699   26.1908 C   0  0  0  0  0  0  0  0  0  0  0  0
    9.7840  -16.0814   26.7882 C   0  0  2  0  0  0  0  0  0  0  0  0
    9.3993  -14.8826   26.0715 N   0  0  0  0  0  0  0  0  0  0  0  0
   10.1198  -15.7693   28.2219 C   0  0  0  0  0  0  0  0  0  0  0  0
   10.3727  -16.7687   29.1390 O   0  0  0  0  0  0  0  0  0  0  0  0
   10.1707  -14.5737   28.5943 O   0  0  0  0  0  0  0  0  0  0  0  0
  2  3  1  0
  2  1  1  0
  3  9  1  0
  4  3  2  0
  6  5  1  1
  6  7  1  0
  6  8  1  0
  8 10  1  0
  8  9  1  6
 10 11  2  0
 10 20  1  0
 13 12  1  0
 14 13  2  0
 15 13  1  0
 16 15  1  0
 17 16  1  0
 19 18  1  6
 18 17  1  0
 19 21  1  0
 20 19  1  0
 21 23  2  0
 21 22  1  0
M  END
$$$$
