GVR.pdb
     RDKit          3D

 23 22  0  0  1  0  0  0  0  0999 V2000
    7.9273  -12.8069   19.8409 N   0  0  0  0  0  0  0  0  0  0  0  0
    6.9360  -13.1909   20.8179 C   0  0  0  0  0  0  0  0  0  0  0  0
    7.6140  -13.2665   22.1588 C   0  0  0  0  0  0  0  0  0  0  0  0
    8.8248  -13.5734   22.2540 O   0  0  0  0  0  0  0  0  0  0  0  0
    7.4414  -12.5061   27.0884 C   0  0  0  0  0  0  0  0  0  0  0  0
    6.7877  -12.4627   25.7539 C   0  0  2  0  0  0  0  0  0  0  0  0
    5.3486  -12.9110   25.8854 C   0  0  0  0  0  0  0  0  0  0  0  0
    7.4600  -13.1897   24.6520 C   0  0  2  0  0  0  0  0  0  0  0  0
    6.8925  -12.9905   23.3606 N   0  0  0  0  0  0  0  0  0  0  0  0
    7.8485  -14.5803   24.9723 C   0  0  0  0  0  0  0  0  0  0  0  0
    6.9553  -15.4545   24.9411 O   0  0  0  0  0  0  0  0  0  0  0  0
   13.0280  -19.6822   21.7333 N   0  0  0  0  0  0  0  0  0  0  0  0
   11.6611  -19.9071   21.3924 C   0  0  0  0  0  0  0  0  0  0  0  0
   11.3414  -20.9474   20.6943 N   0  0  0  0  0  0  0  0  0  0  0  0
   10.6168  -19.0381   21.7817 N   0  0  0  0  0  0  0  0  0  0  0  0
   10.8974  -17.9006   22.5916 C   0  0  0  0  0  0  0  0  0  0  0  0
   10.4148  -18.0275   24.0105 C   0  0  0  0  0  0  0  0  0  0  0  0
   10.7159  -16.8238   24.8632 C   0  0  0  0  0  0  0  0  0  0  0  0
    9.5027  -16.3364   25.6078 C   0  0  2  0  0  0  0  0  0  0  0  0
    9.1674  -14.9585   25.3115 N   0  0  0  0  0  0  0  0  0  0  0  0
    9.7777  -16.5218   27.0761 C   0  0  0  0  0  0  0  0  0  0  0  0
    9.9490  -17.7752   27.6267 O   0  0  0  0  0  0  0  0  0  0  0  0
    9.8524  -15.5150   27.8186 O   0  0  0  0  0  0  0  0  0  0  0  0
  2  3  1  0
  2  1  1  0
  3  9  1  0
  4  3  2  0
  6  5  1  1
  6  7  1  0
  6  8  1  0
  8 10  1  0
  8  9  1  6
 10 11  2  0
 10 20  1  0
 13 12  1  0
 14 13  2  0
 15 13  1  0
 16 15  1  0
 17 16  1  0
 19 18  1  6
 18 17  1  0
 19 21  1  0
 20 19  1  0
 21 23  2  0
 21 22  1  0
M  END
$$$$
