GVR.pdb
     RDKit          3D

 23 22  0  0  1  0  0  0  0  0999 V2000
    7.5651  -18.7138   18.1816 N   0  0  0  0  0  0  0  0  0  0  0  0
    6.6703  -18.0183   19.0760 C   0  0  0  0  0  0  0  0  0  0  0  0
    7.4925  -17.0740   19.9100 C   0  0  0  0  0  0  0  0  0  0  0  0
    8.5659  -17.4458   20.4379 O   0  0  0  0  0  0  0  0  0  0  0  0
    7.3445  -12.9094   19.4029 C   0  0  0  0  0  0  0  0  0  0  0  0
    7.4521  -13.4006   20.8019 C   0  0  2  0  0  0  0  0  0  0  0  0
    8.4359  -12.5383   21.5620 C   0  0  0  0  0  0  0  0  0  0  0  0
    7.7672  -14.8361   20.9880 C   0  0  2  0  0  0  0  0  0  0  0  0
    7.0686  -15.7263   20.1227 N   0  0  0  0  0  0  0  0  0  0  0  0
    7.8773  -15.2696   22.3978 C   0  0  0  0  0  0  0  0  0  0  0  0
    6.8171  -15.4250   23.0419 O   0  0  0  0  0  0  0  0  0  0  0  0
    8.0647  -21.2121   27.6094 N   0  0  0  0  0  0  0  0  0  0  0  0
    6.8755  -21.0311   26.8425 C   0  0  0  0  0  0  0  0  0  0  0  0
    5.8092  -21.6925   27.1545 N   0  0  0  0  0  0  0  0  0  0  0  0
    6.7971  -20.1529   25.7380 N   0  0  0  0  0  0  0  0  0  0  0  0
    7.9845  -19.6023   25.1763 C   0  0  0  0  0  0  0  0  0  0  0  0
    8.0087  -18.0985   25.1537 C   0  0  0  0  0  0  0  0  0  0  0  0
    9.2146  -17.5220   24.4608 C   0  0  0  0  0  0  0  0  0  0  0  0
    9.1691  -16.0195   24.3960 C   0  0  2  0  0  0  0  0  0  0  0  0
    9.1126  -15.5089   23.0415 N   0  0  0  0  0  0  0  0  0  0  0  0
   10.3868  -15.5061   25.1166 C   0  0  0  0  0  0  0  0  0  0  0  0
   11.5853  -15.3104   24.4616 O   0  0  0  0  0  0  0  0  0  0  0  0
   10.3131  -15.2502   26.3413 O   0  0  0  0  0  0  0  0  0  0  0  0
  2  3  1  0
  2  1  1  0
  3  9  1  0
  4  3  2  0
  6  5  1  6
  6  7  1  0
  6  8  1  0
  8 10  1  0
  8  9  1  1
 10 11  2  0
 10 20  1  0
 13 12  1  0
 14 13  2  0
 15 13  1  0
 16 15  1  0
 17 16  1  0
 19 18  1  6
 18 17  1  0
 19 21  1  0
 20 19  1  0
 21 23  2  0
 21 22  1  0
M  END
$$$$
