GVR.pdb
     RDKit          3D

 23 22  0  0  1  0  0  0  0  0999 V2000
    5.7476  -19.6517   27.1124 N   0  0  0  0  0  0  0  0  0  0  0  0
    6.4123  -18.4890   27.6517 C   0  0  0  0  0  0  0  0  0  0  0  0
    6.4355  -17.4320   26.5814 C   0  0  0  0  0  0  0  0  0  0  0  0
    6.1797  -17.7153   25.3883 O   0  0  0  0  0  0  0  0  0  0  0  0
    7.0491  -12.6935   25.2293 C   0  0  0  0  0  0  0  0  0  0  0  0
    7.0368  -13.7104   26.3137 C   0  0  2  0  0  0  0  0  0  0  0  0
    8.1071  -13.3739   27.3290 C   0  0  0  0  0  0  0  0  0  0  0  0
    7.1365  -15.1307   25.9046 C   0  0  2  0  0  0  0  0  0  0  0  0
    6.7515  -16.0755   26.8989 N   0  0  0  0  0  0  0  0  0  0  0  0
    8.3534  -15.4712   25.1361 C   0  0  0  0  0  0  0  0  0  0  0  0
    9.3474  -15.8809   25.7742 O   0  0  0  0  0  0  0  0  0  0  0  0
    7.1610  -13.1671   17.6655 N   0  0  0  0  0  0  0  0  0  0  0  0
    8.2570  -12.9155   18.5433 C   0  0  0  0  0  0  0  0  0  0  0  0
    8.8197  -11.7513   18.5425 N   0  0  0  0  0  0  0  0  0  0  0  0
    8.7730  -13.8875   19.4300 N   0  0  0  0  0  0  0  0  0  0  0  0
    8.0316  -15.0729   19.7019 C   0  0  0  0  0  0  0  0  0  0  0  0
    8.7001  -16.0002   20.6793 C   0  0  0  0  0  0  0  0  0  0  0  0
    9.6761  -15.3128   21.5968 C   0  0  0  0  0  0  0  0  0  0  0  0
    9.5984  -15.8364   23.0051 C   0  0  2  0  0  0  0  0  0  0  0  0
    8.4419  -15.3515   23.7306 N   0  0  0  0  0  0  0  0  0  0  0  0
   10.8752  -15.4416   23.6977 C   0  0  0  0  0  0  0  0  0  0  0  0
   10.9141  -14.4025   24.6045 O   0  0  0  0  0  0  0  0  0  0  0  0
   11.9299  -16.0699   23.4457 O   0  0  0  0  0  0  0  0  0  0  0  0
  2  3  1  0
  2  1  1  0
  3  9  1  0
  4  3  2  0
  6  5  1  6
  6  7  1  0
  6  8  1  0
  8 10  1  0
  8  9  1  1
 10 11  2  0
 10 20  1  0
 13 12  1  0
 14 13  2  0
 15 13  1  0
 16 15  1  0
 17 16  1  0
 19 18  1  6
 18 17  1  0
 19 21  1  0
 20 19  1  0
 21 23  2  0
 21 22  1  0
M  END
$$$$
