GVR.pdb
     RDKit          3D

 23 22  0  0  1  0  0  0  0  0999 V2000
    9.5328  -17.5686   16.7278 N   0  0  0  0  0  0  0  0  0  0  0  0
    8.3559  -17.0262   17.3642 C   0  0  0  0  0  0  0  0  0  0  0  0
    8.7964  -16.2913   18.6009 C   0  0  0  0  0  0  0  0  0  0  0  0
    9.9287  -16.4871   19.0996 O   0  0  0  0  0  0  0  0  0  0  0  0
    7.4822  -12.4535   19.6380 C   0  0  0  0  0  0  0  0  0  0  0  0
    7.5518  -13.4477   20.7411 C   0  0  2  0  0  0  0  0  0  0  0  0
    8.1008  -12.7809   21.9835 C   0  0  0  0  0  0  0  0  0  0  0  0
    8.2776  -14.7091   20.4645 C   0  0  2  0  0  0  0  0  0  0  0  0
    7.9324  -15.3499   19.2399 N   0  0  0  0  0  0  0  0  0  0  0  0
    8.4351  -15.6034   21.6320 C   0  0  0  0  0  0  0  0  0  0  0  0
    7.4031  -16.1252   22.1070 O   0  0  0  0  0  0  0  0  0  0  0  0
   14.7761  -19.0446   19.9004 N   0  0  0  0  0  0  0  0  0  0  0  0
   13.5479  -19.7126   19.6164 C   0  0  0  0  0  0  0  0  0  0  0  0
   13.4618  -20.4713   18.5729 N   0  0  0  0  0  0  0  0  0  0  0  0
   12.3973  -19.5874   20.4272 N   0  0  0  0  0  0  0  0  0  0  0  0
   12.3427  -18.5898   21.4423 C   0  0  0  0  0  0  0  0  0  0  0  0
   11.0672  -18.5992   22.2394 C   0  0  0  0  0  0  0  0  0  0  0  0
   11.0479  -17.5985   23.3641 C   0  0  0  0  0  0  0  0  0  0  0  0
    9.7898  -16.7734   23.3697 C   0  0  2  0  0  0  0  0  0  0  0  0
    9.6845  -15.8869   22.2287 N   0  0  0  0  0  0  0  0  0  0  0  0
    9.7721  -15.9980   24.6598 C   0  0  0  0  0  0  0  0  0  0  0  0
    9.7551  -14.6185   24.6737 O   0  0  0  0  0  0  0  0  0  0  0  0
    9.7735  -16.6181   25.7489 O   0  0  0  0  0  0  0  0  0  0  0  0
  2  3  1  0
  2  1  1  0
  3  9  1  0
  4  3  2  0
  6  5  1  6
  6  7  1  0
  6  8  1  0
  8 10  1  0
  8  9  1  6
 10 11  2  0
 10 20  1  0
 13 12  1  0
 14 13  2  0
 15 13  1  0
 16 15  1  0
 17 16  1  0
 19 18  1  6
 18 17  1  0
 19 21  1  0
 20 19  1  0
 21 23  2  0
 21 22  1  0
M  END
$$$$
