GVR.pdb
     RDKit          3D

 23 22  0  0  1  0  0  0  0  0999 V2000
    4.2408  -19.4034   24.2038 N   0  0  0  0  0  0  0  0  0  0  0  0
    5.1089  -18.8744   25.2291 C   0  0  0  0  0  0  0  0  0  0  0  0
    5.8556  -17.7062   24.6448 C   0  0  0  0  0  0  0  0  0  0  0  0
    6.2122  -17.7030   23.4440 O   0  0  0  0  0  0  0  0  0  0  0  0
    7.5592  -13.0620   25.0216 C   0  0  0  0  0  0  0  0  0  0  0  0
    6.8702  -14.2235   25.6431 C   0  0  2  0  0  0  0  0  0  0  0  0
    7.2370  -14.2987   27.1091 C   0  0  0  0  0  0  0  0  0  0  0  0
    7.0551  -15.5416   24.9928 C   0  0  2  0  0  0  0  0  0  0  0  0
    6.1785  -16.5688   25.4466 N   0  0  0  0  0  0  0  0  0  0  0  0
    8.4646  -15.9444   24.7962 C   0  0  0  0  0  0  0  0  0  0  0  0
    9.0149  -16.5966   25.7099 O   0  0  0  0  0  0  0  0  0  0  0  0
    7.4692  -14.7588   18.1956 N   0  0  0  0  0  0  0  0  0  0  0  0
    8.1926  -13.6053   18.6213 C   0  0  0  0  0  0  0  0  0  0  0  0
    7.9764  -12.4687   18.0440 N   0  0  0  0  0  0  0  0  0  0  0  0
    9.1522  -13.6369   19.6584 N   0  0  0  0  0  0  0  0  0  0  0  0
    9.5904  -14.8836   20.1896 C   0  0  0  0  0  0  0  0  0  0  0  0
   10.5180  -14.7534   21.3664 C   0  0  0  0  0  0  0  0  0  0  0  0
   10.9474  -16.0736   21.9488 C   0  0  0  0  0  0  0  0  0  0  0  0
   10.4917  -16.2422   23.3728 C   0  0  2  0  0  0  0  0  0  0  0  0
    9.2081  -15.6250   23.6374 N   0  0  0  0  0  0  0  0  0  0  0  0
   11.5634  -15.6598   24.2548 C   0  0  0  0  0  0  0  0  0  0  0  0
   11.2957  -14.6307   25.1339 O   0  0  0  0  0  0  0  0  0  0  0  0
   12.7280  -16.1184   24.1904 O   0  0  0  0  0  0  0  0  0  0  0  0
  2  3  1  0
  2  1  1  0
  3  9  1  0
  4  3  2  0
  6  5  1  6
  6  7  1  0
  6  8  1  0
  8 10  1  0
  8  9  1  1
 10 11  2  0
 10 20  1  0
 13 12  1  0
 14 13  2  0
 15 13  1  0
 16 15  1  0
 17 16  1  0
 19 18  1  6
 18 17  1  0
 19 21  1  0
 20 19  1  0
 21 23  2  0
 21 22  1  0
M  END
$$$$
