GVR.pdb
     RDKit          3D

 23 22  0  0  1  0  0  0  0  0999 V2000
    7.3440  -18.2161   17.1225 N   0  0  0  0  0  0  0  0  0  0  0  0
    6.6682  -17.7826   18.3225 C   0  0  0  0  0  0  0  0  0  0  0  0
    7.6312  -16.9435   19.1175 C   0  0  0  0  0  0  0  0  0  0  0  0
    8.8482  -17.2350   19.1732 O   0  0  0  0  0  0  0  0  0  0  0  0
    7.1725  -12.8141   19.7721 C   0  0  0  0  0  0  0  0  0  0  0  0
    7.5872  -13.6392   20.9372 C   0  0  2  0  0  0  0  0  0  0  0  0
    8.6239  -12.8858   21.7417 C   0  0  0  0  0  0  0  0  0  0  0  0
    8.0500  -15.0177   20.6542 C   0  0  2  0  0  0  0  0  0  0  0  0
    7.1811  -15.7909   19.8316 N   0  0  0  0  0  0  0  0  0  0  0  0
    8.6321  -15.7273   21.8139 C   0  0  0  0  0  0  0  0  0  0  0  0
    7.8448  -16.1724   22.6771 O   0  0  0  0  0  0  0  0  0  0  0  0
   13.8230  -19.3530   19.4591 N   0  0  0  0  0  0  0  0  0  0  0  0
   12.5996  -20.0859   19.4212 C   0  0  0  0  0  0  0  0  0  0  0  0
   12.1377  -20.4965   18.2855 N   0  0  0  0  0  0  0  0  0  0  0  0
   11.8491  -20.3928   20.5788 N   0  0  0  0  0  0  0  0  0  0  0  0
   12.0019  -19.6098   21.7587 C   0  0  0  0  0  0  0  0  0  0  0  0
   11.8813  -18.1284   21.5279 C   0  0  0  0  0  0  0  0  0  0  0  0
   11.8861  -17.3152   22.7950 C   0  0  0  0  0  0  0  0  0  0  0  0
   10.5405  -16.7084   23.0866 C   0  0  2  0  0  0  0  0  0  0  0  0
   10.0216  -15.9183   21.9887 N   0  0  0  0  0  0  0  0  0  0  0  0
   10.6890  -15.8736   24.3302 C   0  0  0  0  0  0  0  0  0  0  0  0
   10.8889  -14.5100   24.2658 O   0  0  0  0  0  0  0  0  0  0  0  0
   10.6306  -16.4283   25.4526 O   0  0  0  0  0  0  0  0  0  0  0  0
  2  3  1  0
  2  1  1  0
  3  9  1  0
  4  3  2  0
  6  5  1  6
  6  7  1  0
  6  8  1  0
  8 10  1  0
  8  9  1  1
 10 11  2  0
 10 20  1  0
 13 12  1  0
 14 13  2  0
 15 13  1  0
 16 15  1  0
 17 16  1  0
 19 18  1  6
 18 17  1  0
 19 21  1  0
 20 19  1  0
 21 23  2  0
 21 22  1  0
M  END
$$$$
