GVR.pdb
     RDKit          3D

 23 22  0  0  1  0  0  0  0  0999 V2000
    7.3319  -14.7580   20.2345 N   0  0  0  0  0  0  0  0  0  0  0  0
    6.5047  -14.2059   21.2812 C   0  0  0  0  0  0  0  0  0  0  0  0
    7.3156  -14.1848   22.5483 C   0  0  0  0  0  0  0  0  0  0  0  0
    8.4075  -14.7937   22.6265 O   0  0  0  0  0  0  0  0  0  0  0  0
    8.0962  -12.3334   27.0990 C   0  0  0  0  0  0  0  0  0  0  0  0
    7.2369  -12.4361   25.8901 C   0  0  2  0  0  0  0  0  0  0  0  0
    5.7827  -12.4490   26.3080 C   0  0  0  0  0  0  0  0  0  0  0  0
    7.5196  -13.5516   24.9572 C   0  0  2  0  0  0  0  0  0  0  0  0
    6.8595  -13.4691   23.6975 N   0  0  0  0  0  0  0  0  0  0  0  0
    7.5412  -14.8923   25.5813 C   0  0  0  0  0  0  0  0  0  0  0  0
    6.4534  -15.3677   25.9733 O   0  0  0  0  0  0  0  0  0  0  0  0
    6.5747  -23.2478   26.1468 N   0  0  0  0  0  0  0  0  0  0  0  0
    7.1222  -22.1562   25.4094 C   0  0  0  0  0  0  0  0  0  0  0  0
    8.2794  -22.2839   24.8469 N   0  0  0  0  0  0  0  0  0  0  0  0
    6.4576  -20.9182   25.2579 N   0  0  0  0  0  0  0  0  0  0  0  0
    7.1899  -19.7537   24.8888 C   0  0  0  0  0  0  0  0  0  0  0  0
    8.2008  -19.3180   25.9137 C   0  0  0  0  0  0  0  0  0  0  0  0
    8.9745  -18.0887   25.5176 C   0  0  0  0  0  0  0  0  0  0  0  0
    8.7052  -16.9270   26.4350 C   0  0  2  0  0  0  0  0  0  0  0  0
    8.7229  -15.6478   25.7552 N   0  0  0  0  0  0  0  0  0  0  0  0
    9.7404  -16.9730   27.5268 C   0  0  0  0  0  0  0  0  0  0  0  0
   10.8576  -16.1641   27.4980 O   0  0  0  0  0  0  0  0  0  0  0  0
    9.5864  -17.7650   28.4859 O   0  0  0  0  0  0  0  0  0  0  0  0
  2  3  1  0
  2  1  1  0
  3  9  1  0
  4  3  2  0
  6  5  1  1
  6  7  1  0
  6  8  1  0
  8 10  1  0
  8  9  1  6
 10 11  2  0
 10 20  1  0
 13 12  1  0
 14 13  2  0
 15 13  1  0
 16 15  1  0
 17 16  1  0
 19 18  1  6
 18 17  1  0
 19 21  1  0
 20 19  1  0
 21 23  2  0
 21 22  1  0
M  END
$$$$
