GVR.pdb
     RDKit          3D

 23 22  0  0  1  0  0  0  0  0999 V2000
    5.4168  -19.8182   25.7793 N   0  0  0  0  0  0  0  0  0  0  0  0
    5.7240  -18.6893   26.6254 C   0  0  0  0  0  0  0  0  0  0  0  0
    6.0973  -17.5340   25.7368 C   0  0  0  0  0  0  0  0  0  0  0  0
    6.1185  -17.6583   24.4905 O   0  0  0  0  0  0  0  0  0  0  0  0
    7.0485  -12.7158   25.1082 C   0  0  0  0  0  0  0  0  0  0  0  0
    6.7724  -13.8470   26.0325 C   0  0  2  0  0  0  0  0  0  0  0  0
    7.5377  -13.6400   27.3212 C   0  0  0  0  0  0  0  0  0  0  0  0
    6.9977  -15.2140   25.5080 C   0  0  2  0  0  0  0  0  0  0  0  0
    6.4388  -16.2632   26.2930 N   0  0  0  0  0  0  0  0  0  0  0  0
    8.3589  -15.4618   24.9855 C   0  0  0  0  0  0  0  0  0  0  0  0
    9.1853  -16.0029   25.7518 O   0  0  0  0  0  0  0  0  0  0  0  0
    9.0987  -12.5503   18.9632 N   0  0  0  0  0  0  0  0  0  0  0  0
    7.8484  -13.1754   18.6784 C   0  0  0  0  0  0  0  0  0  0  0  0
    6.8844  -12.4736   18.1785 N   0  0  0  0  0  0  0  0  0  0  0  0
    7.5996  -14.5457   18.9185 N   0  0  0  0  0  0  0  0  0  0  0  0
    8.6448  -15.3904   19.3903 C   0  0  0  0  0  0  0  0  0  0  0  0
    8.6033  -15.6431   20.8725 C   0  0  0  0  0  0  0  0  0  0  0  0
    9.9421  -15.5095   21.5479 C   0  0  0  0  0  0  0  0  0  0  0  0
    9.8651  -15.7906   23.0240 C   0  0  2  0  0  0  0  0  0  0  0  0
    8.7622  -15.1144   23.6762 N   0  0  0  0  0  0  0  0  0  0  0  0
   11.1824  -15.3789   23.6247 C   0  0  0  0  0  0  0  0  0  0  0  0
   12.3695  -15.9627   23.2327 O   0  0  0  0  0  0  0  0  0  0  0  0
   11.2042  -14.4849   24.5028 O   0  0  0  0  0  0  0  0  0  0  0  0
  2  3  1  0
  2  1  1  0
  3  9  1  0
  4  3  2  0
  6  5  1  6
  6  7  1  0
  6  8  1  0
  8 10  1  0
  8  9  1  1
 10 11  2  0
 10 20  1  0
 13 12  1  0
 14 13  2  0
 15 13  1  0
 16 15  1  0
 17 16  1  0
 19 18  1  6
 18 17  1  0
 19 21  1  0
 20 19  1  0
 21 23  2  0
 21 22  1  0
M  END
$$$$
