GVR.pdb
     RDKit          3D

 23 22  0  0  1  0  0  0  0  0999 V2000
    7.2782  -19.2156   18.4611 N   0  0  0  0  0  0  0  0  0  0  0  0
    6.4375  -18.1401   18.9314 C   0  0  0  0  0  0  0  0  0  0  0  0
    7.2703  -17.2579   19.8211 C   0  0  0  0  0  0  0  0  0  0  0  0
    8.1834  -17.7362   20.5328 O   0  0  0  0  0  0  0  0  0  0  0  0
    8.5736  -12.6344   21.1855 C   0  0  0  0  0  0  0  0  0  0  0  0
    7.6450  -13.5459   20.4664 C   0  0  2  0  0  0  0  0  0  0  0  0
    6.2211  -13.0793   20.6766 C   0  0  0  0  0  0  0  0  0  0  0  0
    7.7657  -14.9937   20.7558 C   0  0  2  0  0  0  0  0  0  0  0  0
    7.0400  -15.8491   19.8777 N   0  0  0  0  0  0  0  0  0  0  0  0
    7.7018  -15.3472   22.1905 C   0  0  0  0  0  0  0  0  0  0  0  0
    6.6036  -15.2139   22.7729 O   0  0  0  0  0  0  0  0  0  0  0  0
    6.9350  -21.4213   22.1321 N   0  0  0  0  0  0  0  0  0  0  0  0
    5.9456  -20.8742   23.0022 C   0  0  0  0  0  0  0  0  0  0  0  0
    4.7164  -20.8071   22.6069 N   0  0  0  0  0  0  0  0  0  0  0  0
    6.2407  -20.3906   24.2970 N   0  0  0  0  0  0  0  0  0  0  0  0
    7.4838  -19.7444   24.5530 C   0  0  0  0  0  0  0  0  0  0  0  0
    7.4532  -18.2558   24.3399 C   0  0  0  0  0  0  0  0  0  0  0  0
    8.7560  -17.5711   24.6568 C   0  0  0  0  0  0  0  0  0  0  0  0
    8.7173  -16.1006   24.3411 C   0  0  2  0  0  0  0  0  0  0  0  0
    8.8143  -15.8192   22.9233 N   0  0  0  0  0  0  0  0  0  0  0  0
    9.8452  -15.4530   25.0989 C   0  0  0  0  0  0  0  0  0  0  0  0
   10.9009  -14.8493   24.4472 O   0  0  0  0  0  0  0  0  0  0  0  0
    9.8276  -15.4616   26.3520 O   0  0  0  0  0  0  0  0  0  0  0  0
  2  3  1  0
  2  1  1  0
  3  9  1  0
  4  3  2  0
  6  5  1  1
  6  7  1  0
  6  8  1  0
  8 10  1  0
  8  9  1  6
 10 11  2  0
 10 20  1  0
 13 12  1  0
 14 13  2  0
 15 13  1  0
 16 15  1  0
 17 16  1  0
 19 18  1  6
 18 17  1  0
 19 21  1  0
 20 19  1  0
 21 23  2  0
 21 22  1  0
M  END
$$$$
