WEH.pdb
     RDKit          3D

 34 36  0  0  1  0  0  0  0  0999 V2000
   10.2263  -17.3314   20.2326 N   0  0  0  0  0  0  0  0  0  0  0  0
   10.8996  -16.0665   20.2496 C   0  0  1  0  0  0  0  0  0  0  0  0
   10.6805  -15.3494   21.5673 C   0  0  0  0  0  0  0  0  0  0  0  0
    9.3333  -14.6904   21.4460 C   0  0  0  0  0  0  0  0  0  0  0  0
    8.2281  -14.9050   22.2617 C   0  0  0  0  0  0  0  0  0  0  0  0
    7.2073  -14.1529   21.8593 N   0  0  0  0  0  0  0  0  0  0  0  0
    7.6106  -13.4469   20.7982 C   0  0  0  0  0  0  0  0  0  0  0  0
    6.9601  -12.5302   20.0095 C   0  0  0  0  0  0  0  0  0  0  0  0
    7.5804  -11.9114   18.9448 C   0  0  0  0  0  0  0  0  0  0  0  0
    8.8890  -12.2235   18.6676 C   0  0  0  0  0  0  0  0  0  0  0  0
    9.5603  -13.1533   19.4620 C   0  0  0  0  0  0  0  0  0  0  0  0
    8.9291  -13.7582   20.5150 C   0  0  0  0  0  0  0  0  0  0  0  0
   12.3124  -16.2313   19.8982 C   0  0  0  0  0  0  0  0  0  0  0  0
   12.7904  -17.3929   19.8249 O   0  0  0  0  0  0  0  0  0  0  0  0
   13.2072  -15.1704   19.6273 N   0  0  0  0  0  0  0  0  0  0  0  0
   14.5685  -15.4205   19.1352 C   0  0  1  0  0  0  0  0  0  0  0  0
   15.0082  -14.2260   18.3710 C   0  0  0  0  0  0  0  0  0  0  0  0
   16.3892  -14.4425   17.8228 C   0  0  0  0  0  0  0  0  0  0  0  0
   16.5016  -14.2968   16.3723 C   0  0  0  0  0  0  0  0  0  0  0  0
   16.2046  -15.1908   15.5596 O   0  0  0  0  0  0  0  0  0  0  0  0
   15.4760  -15.7495   20.2695 C   0  0  0  0  0  0  0  0  0  0  0  0
   16.6346  -16.1258   19.9887 O   0  0  0  0  0  0  0  0  0  0  0  0
   16.9648  -13.1012   15.8279 O   0  0  0  0  0  0  0  0  0  0  0  0
   15.1023  -15.6596   21.6152 N   0  0  0  0  0  0  0  0  0  0  0  0
   16.0861  -15.9798   22.6897 C   0  0  1  0  0  0  0  0  0  0  0  0
   16.3105  -17.4410   22.6230 C   0  0  0  0  0  0  0  0  0  0  0  0
   15.1958  -18.3081   23.0386 C   0  0  0  0  0  0  0  0  0  0  0  0
   13.9693  -17.9978   23.5691 C   0  0  0  0  0  0  0  0  0  0  0  0
   13.2285  -19.1132   23.7522 N   0  0  0  0  0  0  0  0  0  0  0  0
   14.0004  -20.1231   23.3313 C   0  0  0  0  0  0  0  0  0  0  0  0
   15.1675  -19.6735   22.9049 N   0  0  0  0  0  0  0  0  0  0  0  0
   17.2874  -15.1824   22.3172 C   0  0  0  0  0  0  0  0  0  0  0  0
   18.4027  -15.1994   23.1632 O   0  0  0  0  0  0  0  0  0  0  0  0
   17.3861  -14.4864   21.2939 O   0  0  0  0  0  0  0  0  0  0  0  0
  2  1  1  1
  2  3  1  0
  4  3  1  0
  5  4  2  0
  6  5  1  0
  7  6  1  0
  7 12  2  0
  8  7  1  0
  9  8  2  0
  9 10  1  0
 10 11  2  0
 11 12  1  0
 12  4  1  0
 13 14  2  0
 13  2  1  0
 15 13  1  0
 16 15  1  0
 17 18  1  0
 16 17  1  1
 19 18  1  0
 20 19  2  0
 21 16  1  0
 21 24  1  0
 22 21  2  0
 23 19  1  0
 25 24  1  0
 25 32  1  0
 26 27  1  0
 25 26  1  6
 27 31  1  0
 28 27  2  0
 28 29  1  0
 29 30  1  0
 31 30  2  0
 32 34  2  0
 32 33  1  0
M  END
$$$$
