WEH.pdb
     RDKit          3D

 34 36  0  0  1  0  0  0  0  0999 V2000
    7.0540  -16.8485   24.3076 N   0  0  0  0  0  0  0  0  0  0  0  0
    8.3722  -16.2863   24.2973 C   0  0  1  0  0  0  0  0  0  0  0  0
    8.6795  -15.5915   25.6093 C   0  0  0  0  0  0  0  0  0  0  0  0
    7.5917  -14.5669   25.7847 C   0  0  0  0  0  0  0  0  0  0  0  0
    6.3324  -14.7792   26.3343 C   0  0  0  0  0  0  0  0  0  0  0  0
    5.6318  -13.6485   26.3279 N   0  0  0  0  0  0  0  0  0  0  0  0
    6.3968  -12.6945   25.7879 C   0  0  0  0  0  0  0  0  0  0  0  0
    6.1632  -11.3629   25.5470 C   0  0  0  0  0  0  0  0  0  0  0  0
    7.1127  -10.5475   24.9684 C   0  0  0  0  0  0  0  0  0  0  0  0
    8.3282  -11.0865   24.6239 C   0  0  0  0  0  0  0  0  0  0  0  0
    8.5771  -12.4381   24.8639 C   0  0  0  0  0  0  0  0  0  0  0  0
    7.6231  -13.2332   25.4391 C   0  0  0  0  0  0  0  0  0  0  0  0
    9.3610  -17.3011   23.9242 C   0  0  0  0  0  0  0  0  0  0  0  0
    9.3262  -18.4233   24.4922 O   0  0  0  0  0  0  0  0  0  0  0  0
   10.3763  -17.1232   22.9562 N   0  0  0  0  0  0  0  0  0  0  0  0
   11.6690  -17.8126   23.0634 C   0  0  1  0  0  0  0  0  0  0  0  0
   12.4763  -17.4653   21.8668 C   0  0  0  0  0  0  0  0  0  0  0  0
   12.0667  -16.1205   21.3393 C   0  0  0  0  0  0  0  0  0  0  0  0
   12.8071  -15.6741   20.1602 C   0  0  0  0  0  0  0  0  0  0  0  0
   13.7071  -16.3369   19.6136 O   0  0  0  0  0  0  0  0  0  0  0  0
   12.3427  -17.4521   24.3419 C   0  0  0  0  0  0  0  0  0  0  0  0
   12.9330  -16.3512   24.3904 O   0  0  0  0  0  0  0  0  0  0  0  0
   12.5179  -14.4391   19.5845 O   0  0  0  0  0  0  0  0  0  0  0  0
   12.3479  -18.2722   25.4759 N   0  0  0  0  0  0  0  0  0  0  0  0
   13.0275  -17.8208   26.7247 C   0  0  1  0  0  0  0  0  0  0  0  0
   12.0200  -17.9225   27.8039 C   0  0  0  0  0  0  0  0  0  0  0  0
   10.9420  -16.9200   27.8086 C   0  0  0  0  0  0  0  0  0  0  0  0
   10.6735  -15.8894   26.9439 C   0  0  0  0  0  0  0  0  0  0  0  0
    9.5400  -15.2455   27.3004 N   0  0  0  0  0  0  0  0  0  0  0  0
    9.1012  -15.8819   28.3937 C   0  0  0  0  0  0  0  0  0  0  0  0
    9.9120  -16.8749   28.7141 N   0  0  0  0  0  0  0  0  0  0  0  0
   14.1549  -18.7813   26.8798 C   0  0  0  0  0  0  0  0  0  0  0  0
   14.9951  -18.6678   27.9938 O   0  0  0  0  0  0  0  0  0  0  0  0
   14.4193  -19.6975   26.0849 O   0  0  0  0  0  0  0  0  0  0  0  0
  2  1  1  1
  2  3  1  0
  4  3  1  0
  5  4  2  0
  6  5  1  0
  7  6  1  0
  7 12  2  0
  8  7  1  0
  9  8  2  0
  9 10  1  0
 10 11  2  0
 11 12  1  0
 12  4  1  0
 13 14  2  0
 13  2  1  0
 15 13  1  0
 16 15  1  0
 17 18  1  0
 16 17  1  6
 19 18  1  0
 20 19  2  0
 21 16  1  0
 21 24  1  0
 22 21  2  0
 23 19  1  0
 25 24  1  0
 25 32  1  0
 26 27  1  0
 25 26  1  1
 27 31  1  0
 28 27  2  0
 28 29  1  0
 29 30  1  0
 31 30  2  0
 32 34  2  0
 32 33  1  0
M  END
$$$$
