WEH.pdb
     RDKit          3D

 34 36  0  0  1  0  0  0  0  0999 V2000
    8.2963  -18.0163   20.2125 N   0  0  0  0  0  0  0  0  0  0  0  0
    9.1571  -17.1492   20.9616 C   0  0  1  0  0  0  0  0  0  0  0  0
    8.3606  -16.2803   21.9150 C   0  0  0  0  0  0  0  0  0  0  0  0
    7.6259  -15.2980   21.0437 C   0  0  0  0  0  0  0  0  0  0  0  0
    6.2962  -15.3749   20.6452 C   0  0  0  0  0  0  0  0  0  0  0  0
    5.9861  -14.3345   19.8766 N   0  0  0  0  0  0  0  0  0  0  0  0
    7.0777  -13.5721   19.7575 C   0  0  0  0  0  0  0  0  0  0  0  0
    7.3029  -12.3973   19.0831 C   0  0  0  0  0  0  0  0  0  0  0  0
    8.5313  -11.7711   19.0963 C   0  0  0  0  0  0  0  0  0  0  0  0
    9.5588  -12.3423   19.8067 C   0  0  0  0  0  0  0  0  0  0  0  0
    9.3418  -13.5357   20.4959 C   0  0  0  0  0  0  0  0  0  0  0  0
    8.1160  -14.1439   20.4720 C   0  0  0  0  0  0  0  0  0  0  0  0
   10.2189  -17.9185   21.6154 C   0  0  0  0  0  0  0  0  0  0  0  0
    9.9303  -19.0174   22.1560 O   0  0  0  0  0  0  0  0  0  0  0  0
   11.5740  -17.5221   21.6927 N   0  0  0  0  0  0  0  0  0  0  0  0
   12.5371  -18.2397   22.5386 C   0  0  1  0  0  0  0  0  0  0  0  0
   13.8928  -17.7125   22.2413 C   0  0  0  0  0  0  0  0  0  0  0  0
   14.4491  -18.3783   21.0158 C   0  0  0  0  0  0  0  0  0  0  0  0
   15.7828  -17.9243   20.6248 C   0  0  0  0  0  0  0  0  0  0  0  0
   16.6492  -18.6642   20.1248 O   0  0  0  0  0  0  0  0  0  0  0  0
   12.1648  -18.1052   23.9744 C   0  0  0  0  0  0  0  0  0  0  0  0
   12.3701  -16.9997   24.5208 O   0  0  0  0  0  0  0  0  0  0  0  0
   16.1442  -16.5914   20.8067 O   0  0  0  0  0  0  0  0  0  0  0  0
   11.6041  -19.1396   24.7322 N   0  0  0  0  0  0  0  0  0  0  0  0
   11.2229  -18.9052   26.1551 C   0  0  1  0  0  0  0  0  0  0  0  0
    9.8723  -19.4864   26.3227 C   0  0  0  0  0  0  0  0  0  0  0  0
    8.7500  -18.7568   25.7102 C   0  0  0  0  0  0  0  0  0  0  0  0
    8.6915  -17.5016   25.1597 C   0  0  0  0  0  0  0  0  0  0  0  0
    7.4610  -17.2528   24.6593 N   0  0  0  0  0  0  0  0  0  0  0  0
    6.7509  -18.3621   24.8999 C   0  0  0  0  0  0  0  0  0  0  0  0
    7.4898  -19.2654   25.5197 N   0  0  0  0  0  0  0  0  0  0  0  0
   12.2736  -19.6267   26.9254 C   0  0  0  0  0  0  0  0  0  0  0  0
   12.2296  -19.5984   28.3244 O   0  0  0  0  0  0  0  0  0  0  0  0
   13.2086  -20.2674   26.4192 O   0  0  0  0  0  0  0  0  0  0  0  0
  2  1  1  1
  2  3  1  0
  4  3  1  0
  5  4  2  0
  6  5  1  0
  7  6  1  0
  7 12  2  0
  8  7  1  0
  9  8  2  0
  9 10  1  0
 10 11  2  0
 11 12  1  0
 12  4  1  0
 13 14  2  0
 13  2  1  0
 15 13  1  0
 16 15  1  0
 17 18  1  0
 16 17  1  1
 19 18  1  0
 20 19  2  0
 21 16  1  0
 21 24  1  0
 22 21  2  0
 23 19  1  0
 25 24  1  0
 25 32  1  0
 26 27  1  0
 25 26  1  6
 27 31  1  0
 28 27  2  0
 28 29  1  0
 29 30  1  0
 31 30  2  0
 32 34  2  0
 32 33  1  0
M  END
$$$$
