WEH.pdb
     RDKit          3D

 34 36  0  0  1  0  0  0  0  0999 V2000
    6.7335  -17.7526   25.1530 N   0  0  0  0  0  0  0  0  0  0  0  0
    7.8101  -16.8819   24.7835 C   0  0  1  0  0  0  0  0  0  0  0  0
    8.2301  -16.0083   25.9492 C   0  0  0  0  0  0  0  0  0  0  0  0
    7.1816  -14.9333   26.0427 C   0  0  0  0  0  0  0  0  0  0  0  0
    5.8510  -15.1014   26.4090 C   0  0  0  0  0  0  0  0  0  0  0  0
    5.2153  -13.9333   26.3797 N   0  0  0  0  0  0  0  0  0  0  0  0
    6.0928  -12.9976   26.0032 C   0  0  0  0  0  0  0  0  0  0  0  0
    5.9608  -11.6438   25.8150 C   0  0  0  0  0  0  0  0  0  0  0  0
    7.0190  -10.8550   25.4161 C   0  0  0  0  0  0  0  0  0  0  0  0
    8.2410  -11.4443   25.2014 C   0  0  0  0  0  0  0  0  0  0  0  0
    8.3872  -12.8190   25.3895 C   0  0  0  0  0  0  0  0  0  0  0  0
    7.3260  -13.5871   25.7857 C   0  0  0  0  0  0  0  0  0  0  0  0
    8.9125  -17.6480   24.1964 C   0  0  0  0  0  0  0  0  0  0  0  0
    9.2763  -18.7161   24.7532 O   0  0  0  0  0  0  0  0  0  0  0  0
    9.6200  -17.2810   23.0283 N   0  0  0  0  0  0  0  0  0  0  0  0
   10.9771  -17.7777   22.7645 C   0  0  1  0  0  0  0  0  0  0  0  0
   11.3821  -17.3144   21.4134 C   0  0  0  0  0  0  0  0  0  0  0  0
   12.7768  -17.7770   21.1047 C   0  0  0  0  0  0  0  0  0  0  0  0
   13.2521  -17.4362   19.7647 C   0  0  0  0  0  0  0  0  0  0  0  0
   14.1492  -18.0577   19.1673 O   0  0  0  0  0  0  0  0  0  0  0  0
   11.9095  -17.3277   23.8353 C   0  0  0  0  0  0  0  0  0  0  0  0
   12.3875  -16.1770   23.7356 O   0  0  0  0  0  0  0  0  0  0  0  0
   12.6928  -16.3582   19.0824 O   0  0  0  0  0  0  0  0  0  0  0  0
   12.2722  -18.1173   24.9325 N   0  0  0  0  0  0  0  0  0  0  0  0
   13.3183  -17.6434   25.8843 C   0  0  1  0  0  0  0  0  0  0  0  0
   12.7491  -17.8084   27.2403 C   0  0  0  0  0  0  0  0  0  0  0  0
   11.8924  -16.7216   27.7423 C   0  0  0  0  0  0  0  0  0  0  0  0
   11.6989  -15.4457   27.2767 C   0  0  0  0  0  0  0  0  0  0  0  0
   10.7723  -14.7987   28.0178 N   0  0  0  0  0  0  0  0  0  0  0  0
   10.3870  -15.6798   28.9495 C   0  0  0  0  0  0  0  0  0  0  0  0
   11.0340  -16.8233   28.8080 N   0  0  0  0  0  0  0  0  0  0  0  0
   14.4729  -18.5452   25.6172 C   0  0  0  0  0  0  0  0  0  0  0  0
   14.3282  -19.5735   24.6782 O   0  0  0  0  0  0  0  0  0  0  0  0
   15.5809  -18.4601   26.1705 O   0  0  0  0  0  0  0  0  0  0  0  0
  2  1  1  1
  2  3  1  0
  4  3  1  0
  5  4  2  0
  6  5  1  0
  7  6  1  0
  7 12  2  0
  8  7  1  0
  9  8  2  0
  9 10  1  0
 10 11  2  0
 11 12  1  0
 12  4  1  0
 13 14  2  0
 13  2  1  0
 15 13  1  0
 16 15  1  0
 17 18  1  0
 16 17  1  6
 19 18  1  0
 20 19  2  0
 21 16  1  0
 21 24  1  0
 22 21  2  0
 23 19  1  0
 25 24  1  0
 25 32  1  0
 26 27  1  0
 25 26  1  1
 27 31  1  0
 28 27  2  0
 28 29  1  0
 29 30  1  0
 31 30  2  0
 32 34  2  0
 32 33  1  0
M  END
$$$$
