WEH.pdb
     RDKit          3D

 34 36  0  0  1  0  0  0  0  0999 V2000
    6.6372  -17.1591   23.5615 N   0  0  0  0  0  0  0  0  0  0  0  0
    7.9605  -16.6455   23.7587 C   0  0  1  0  0  0  0  0  0  0  0  0
    8.2488  -16.4309   25.2315 C   0  0  0  0  0  0  0  0  0  0  0  0
    7.3313  -15.3187   25.6618 C   0  0  0  0  0  0  0  0  0  0  0  0
    6.0449  -15.4543   26.1712 C   0  0  0  0  0  0  0  0  0  0  0  0
    5.5296  -14.2582   26.4418 N   0  0  0  0  0  0  0  0  0  0  0  0
    6.4434  -13.3358   26.1239 C   0  0  0  0  0  0  0  0  0  0  0  0
    6.4248  -11.9651   26.2040 C   0  0  0  0  0  0  0  0  0  0  0  0
    7.4999  -11.1955   25.8127 C   0  0  0  0  0  0  0  0  0  0  0  0
    8.6222  -11.8222   25.3286 C   0  0  0  0  0  0  0  0  0  0  0  0
    8.6528  -13.2143   25.2426 C   0  0  0  0  0  0  0  0  0  0  0  0
    7.5765  -13.9628   25.6355 C   0  0  0  0  0  0  0  0  0  0  0  0
    8.9469  -17.4935   23.0844 C   0  0  0  0  0  0  0  0  0  0  0  0
    8.7623  -18.7378   23.0558 O   0  0  0  0  0  0  0  0  0  0  0  0
   10.1176  -17.0218   22.4468 N   0  0  0  0  0  0  0  0  0  0  0  0
   11.3656  -17.7965   22.4618 C   0  0  1  0  0  0  0  0  0  0  0  0
   12.3121  -17.1626   21.5097 C   0  0  0  0  0  0  0  0  0  0  0  0
   11.7707  -17.2434   20.1115 C   0  0  0  0  0  0  0  0  0  0  0  0
   12.5094  -16.4592   19.1230 C   0  0  0  0  0  0  0  0  0  0  0  0
   13.2821  -16.9527   18.2820 O   0  0  0  0  0  0  0  0  0  0  0  0
   11.9057  -17.8799   23.8473 C   0  0  0  0  0  0  0  0  0  0  0  0
   12.3249  -16.8225   24.3658 O   0  0  0  0  0  0  0  0  0  0  0  0
   12.3671  -15.0739   19.0880 O   0  0  0  0  0  0  0  0  0  0  0  0
   11.9664  -19.0659   24.5878 N   0  0  0  0  0  0  0  0  0  0  0  0
   12.4904  -19.0521   25.9843 C   0  0  1  0  0  0  0  0  0  0  0  0
   11.5646  -19.8867   26.7819 C   0  0  0  0  0  0  0  0  0  0  0  0
   10.2383  -19.3196   27.0759 C   0  0  0  0  0  0  0  0  0  0  0  0
    9.8496  -18.0250   27.3102 C   0  0  0  0  0  0  0  0  0  0  0  0
    8.5115  -17.9485   27.4836 N   0  0  0  0  0  0  0  0  0  0  0  0
    8.0663  -19.2046   27.3548 C   0  0  0  0  0  0  0  0  0  0  0  0
    9.0669  -20.0333   27.1136 N   0  0  0  0  0  0  0  0  0  0  0  0
   13.8519  -19.6417   25.8562 C   0  0  0  0  0  0  0  0  0  0  0  0
   14.3348  -19.9647   24.5824 O   0  0  0  0  0  0  0  0  0  0  0  0
   14.6143  -19.8768   26.8073 O   0  0  0  0  0  0  0  0  0  0  0  0
  2  1  1  1
  2  3  1  0
  4  3  1  0
  5  4  2  0
  6  5  1  0
  7  6  1  0
  7 12  2  0
  8  7  1  0
  9  8  2  0
  9 10  1  0
 10 11  2  0
 11 12  1  0
 12  4  1  0
 13 14  2  0
 13  2  1  0
 15 13  1  0
 16 15  1  0
 17 18  1  0
 16 17  1  6
 19 18  1  0
 20 19  2  0
 21 16  1  0
 21 24  1  0
 22 21  2  0
 23 19  1  0
 25 24  1  0
 25 32  1  0
 26 27  1  0
 25 26  1  1
 27 31  1  0
 28 27  2  0
 28 29  1  0
 29 30  1  0
 31 30  2  0
 32 34  2  0
 32 33  1  0
M  END
$$$$
