WEH.pdb
     RDKit          3D

 34 36  0  0  1  0  0  0  0  0999 V2000
    7.3080  -16.7969   26.0293 N   0  0  0  0  0  0  0  0  0  0  0  0
    7.0581  -17.3533   24.7325 C   0  0  1  0  0  0  0  0  0  0  0  0
    6.0033  -16.5560   23.9907 C   0  0  0  0  0  0  0  0  0  0  0  0
    6.6120  -15.1987   23.7645 C   0  0  0  0  0  0  0  0  0  0  0  0
    7.4357  -14.8241   22.7090 C   0  0  0  0  0  0  0  0  0  0  0  0
    7.7890  -13.5477   22.8328 N   0  0  0  0  0  0  0  0  0  0  0  0
    7.2193  -13.0697   23.9436 C   0  0  0  0  0  0  0  0  0  0  0  0
    7.2570  -11.8279   24.5285 C   0  0  0  0  0  0  0  0  0  0  0  0
    6.5810  -11.5501   25.6978 C   0  0  0  0  0  0  0  0  0  0  0  0
    5.8485  -12.5480   26.2929 C   0  0  0  0  0  0  0  0  0  0  0  0
    5.8027  -13.8137   25.7079 C   0  0  0  0  0  0  0  0  0  0  0  0
    6.4798  -14.0721   24.5469 C   0  0  0  0  0  0  0  0  0  0  0  0
    8.3109  -17.5055   23.9882 C   0  0  0  0  0  0  0  0  0  0  0  0
    8.3544  -18.3182   23.0286 O   0  0  0  0  0  0  0  0  0  0  0  0
    9.5051  -16.7997   24.2624 N   0  0  0  0  0  0  0  0  0  0  0  0
   10.8243  -17.4007   24.0248 C   0  0  1  0  0  0  0  0  0  0  0  0
   11.6309  -16.4406   23.2300 C   0  0  0  0  0  0  0  0  0  0  0  0
   11.3389  -16.6073   21.7666 C   0  0  0  0  0  0  0  0  0  0  0  0
   12.4928  -16.4245   20.8876 C   0  0  0  0  0  0  0  0  0  0  0  0
   13.6364  -16.1471   21.2917 O   0  0  0  0  0  0  0  0  0  0  0  0
   11.4665  -17.7660   25.3181 C   0  0  0  0  0  0  0  0  0  0  0  0
   12.6979  -17.9808   25.3084 O   0  0  0  0  0  0  0  0  0  0  0  0
   12.3448  -16.5604   19.5091 O   0  0  0  0  0  0  0  0  0  0  0  0
   10.7703  -17.8792   26.5269 N   0  0  0  0  0  0  0  0  0  0  0  0
   11.4998  -18.2163   27.7836 C   0  0  1  0  0  0  0  0  0  0  0  0
   10.8843  -17.3973   28.8515 C   0  0  0  0  0  0  0  0  0  0  0  0
   10.7437  -15.9553   28.5909 C   0  0  0  0  0  0  0  0  0  0  0  0
   11.5157  -15.1003   27.8459 C   0  0  0  0  0  0  0  0  0  0  0  0
   10.9834  -13.8581   27.8345 N   0  0  0  0  0  0  0  0  0  0  0  0
    9.8723  -13.9430   28.5768 C   0  0  0  0  0  0  0  0  0  0  0  0
    9.7085  -15.1716   29.0349 N   0  0  0  0  0  0  0  0  0  0  0  0
   11.2599  -19.6766   27.9500 C   0  0  0  0  0  0  0  0  0  0  0  0
   10.5221  -20.3588   26.9753 O   0  0  0  0  0  0  0  0  0  0  0  0
   11.6694  -20.3574   28.9039 O   0  0  0  0  0  0  0  0  0  0  0  0
  2  1  1  1
  2  3  1  0
  4  3  1  0
  5  4  2  0
  6  5  1  0
  7  6  1  0
  7 12  2  0
  8  7  1  0
  9  8  2  0
  9 10  1  0
 10 11  2  0
 11 12  1  0
 12  4  1  0
 13 14  2  0
 13  2  1  0
 15 13  1  0
 16 15  1  0
 17 18  1  0
 16 17  1  1
 19 18  1  0
 20 19  2  0
 21 16  1  0
 21 24  1  0
 22 21  2  0
 23 19  1  0
 25 24  1  0
 25 32  1  0
 26 27  1  0
 25 26  1  1
 27 31  1  0
 28 27  2  0
 28 29  1  0
 29 30  1  0
 31 30  2  0
 32 34  2  0
 32 33  1  0
M  END
$$$$
