WEH.pdb
     RDKit          3D

 34 36  0  0  1  0  0  0  0  0999 V2000
    6.8294  -17.1927   24.5963 N   0  0  0  0  0  0  0  0  0  0  0  0
    8.0262  -16.4053   24.5605 C   0  0  1  0  0  0  0  0  0  0  0  0
    8.3095  -15.7811   25.9128 C   0  0  0  0  0  0  0  0  0  0  0  0
    7.2464  -14.7331   26.1011 C   0  0  0  0  0  0  0  0  0  0  0  0
    6.1369  -14.8169   26.9347 C   0  0  0  0  0  0  0  0  0  0  0  0
    5.4109  -13.7058   26.8462 N   0  0  0  0  0  0  0  0  0  0  0  0
    6.0131  -12.8901   25.9750 C   0  0  0  0  0  0  0  0  0  0  0  0
    5.6878  -11.6348   25.5231 C   0  0  0  0  0  0  0  0  0  0  0  0
    6.4673  -10.9643   24.6043 C   0  0  0  0  0  0  0  0  0  0  0  0
    7.6029  -11.5731   24.1288 C   0  0  0  0  0  0  0  0  0  0  0  0
    7.9436  -12.8483   24.5806 C   0  0  0  0  0  0  0  0  0  0  0  0
    7.1584  -13.4996   25.4930 C   0  0  0  0  0  0  0  0  0  0  0  0
    9.1433  -17.1916   24.0308 C   0  0  0  0  0  0  0  0  0  0  0  0
    9.3530  -18.3419   24.4957 O   0  0  0  0  0  0  0  0  0  0  0  0
   10.0279  -16.7581   23.0164 N   0  0  0  0  0  0  0  0  0  0  0  0
   11.3762  -17.3249   22.8792 C   0  0  1  0  0  0  0  0  0  0  0  0
   11.9335  -16.8769   21.5781 C   0  0  0  0  0  0  0  0  0  0  0  0
   11.3766  -17.7127   20.4619 C   0  0  0  0  0  0  0  0  0  0  0  0
   11.5502  -17.1440   19.1262 C   0  0  0  0  0  0  0  0  0  0  0  0
   12.5994  -17.2354   18.4637 O   0  0  0  0  0  0  0  0  0  0  0  0
   12.2231  -16.9306   24.0392 C   0  0  0  0  0  0  0  0  0  0  0  0
   12.4891  -15.7162   24.1708 O   0  0  0  0  0  0  0  0  0  0  0  0
   10.5024  -16.4509   18.5245 O   0  0  0  0  0  0  0  0  0  0  0  0
   12.7290  -17.8385   24.9765 N   0  0  0  0  0  0  0  0  0  0  0  0
   13.5690  -17.3556   26.1106 C   0  0  1  0  0  0  0  0  0  0  0  0
   12.8533  -17.7387   27.3480 C   0  0  0  0  0  0  0  0  0  0  0  0
   11.6940  -16.9165   27.7314 C   0  0  0  0  0  0  0  0  0  0  0  0
   11.1357  -15.8185   27.1276 C   0  0  0  0  0  0  0  0  0  0  0  0
   10.0365  -15.4078   27.7982 N   0  0  0  0  0  0  0  0  0  0  0  0
    9.9111  -16.2578   28.8251 C   0  0  0  0  0  0  0  0  0  0  0  0
   10.8779  -17.1584   28.8077 N   0  0  0  0  0  0  0  0  0  0  0  0
   14.8577  -18.0793   25.9283 C   0  0  0  0  0  0  0  0  0  0  0  0
   15.9136  -17.8184   26.8097 O   0  0  0  0  0  0  0  0  0  0  0  0
   15.0805  -18.9158   25.0384 O   0  0  0  0  0  0  0  0  0  0  0  0
  2  1  1  1
  2  3  1  0
  4  3  1  0
  5  4  2  0
  6  5  1  0
  7  6  1  0
  7 12  2  0
  8  7  1  0
  9  8  2  0
  9 10  1  0
 10 11  2  0
 11 12  1  0
 12  4  1  0
 13 14  2  0
 13  2  1  0
 15 13  1  0
 16 15  1  0
 17 18  1  0
 16 17  1  6
 19 18  1  0
 20 19  2  0
 21 16  1  0
 21 24  1  0
 22 21  2  0
 23 19  1  0
 25 24  1  0
 25 32  1  0
 26 27  1  0
 25 26  1  1
 27 31  1  0
 28 27  2  0
 28 29  1  0
 29 30  1  0
 31 30  2  0
 32 34  2  0
 32 33  1  0
M  END
$$$$
