WEH.pdb
     RDKit          3D

 34 36  0  0  1  0  0  0  0  0999 V2000
    6.1330  -17.0773   23.9185 N   0  0  0  0  0  0  0  0  0  0  0  0
    7.4175  -16.4479   23.8310 C   0  0  1  0  0  0  0  0  0  0  0  0
    7.9272  -16.0546   25.2036 C   0  0  0  0  0  0  0  0  0  0  0  0
    6.9847  -14.9877   25.6907 C   0  0  0  0  0  0  0  0  0  0  0  0
    5.7486  -15.1855   26.2957 C   0  0  0  0  0  0  0  0  0  0  0  0
    5.1902  -14.0154   26.5929 N   0  0  0  0  0  0  0  0  0  0  0  0
    6.0264  -13.0495   26.1995 C   0  0  0  0  0  0  0  0  0  0  0  0
    5.9389  -11.6808   26.2683 C   0  0  0  0  0  0  0  0  0  0  0  0
    6.9387  -10.8598   25.7911 C   0  0  0  0  0  0  0  0  0  0  0  0
    8.0547  -11.4316   25.2306 C   0  0  0  0  0  0  0  0  0  0  0  0
    8.1548  -12.8211   25.1552 C   0  0  0  0  0  0  0  0  0  0  0  0
    7.1529  -13.6211   25.6339 C   0  0  0  0  0  0  0  0  0  0  0  0
    8.3511  -17.2877   23.0760 C   0  0  0  0  0  0  0  0  0  0  0  0
    8.4416  -18.5091   23.3644 O   0  0  0  0  0  0  0  0  0  0  0  0
    9.1797  -16.8320   22.0247 N   0  0  0  0  0  0  0  0  0  0  0  0
   10.5922  -17.2253   21.9344 C   0  0  1  0  0  0  0  0  0  0  0  0
   11.2458  -16.3630   20.9178 C   0  0  0  0  0  0  0  0  0  0  0  0
   12.6917  -16.7409   20.7719 C   0  0  0  0  0  0  0  0  0  0  0  0
   13.1391  -16.9279   19.3926 C   0  0  0  0  0  0  0  0  0  0  0  0
   12.4576  -16.6300   18.3952 O   0  0  0  0  0  0  0  0  0  0  0  0
   11.2400  -17.1370   23.2726 C   0  0  0  0  0  0  0  0  0  0  0  0
   11.3461  -16.0024   23.7865 O   0  0  0  0  0  0  0  0  0  0  0  0
   14.3971  -17.4690   19.1375 O   0  0  0  0  0  0  0  0  0  0  0  0
   11.7288  -18.2450   23.9741 N   0  0  0  0  0  0  0  0  0  0  0  0
   12.3136  -18.0722   25.3355 C   0  0  1  0  0  0  0  0  0  0  0  0
   11.4487  -18.8412   26.2578 C   0  0  0  0  0  0  0  0  0  0  0  0
   11.7083  -18.6908   27.6990 C   0  0  0  0  0  0  0  0  0  0  0  0
   12.5731  -17.8655   28.3720 C   0  0  0  0  0  0  0  0  0  0  0  0
   12.4438  -18.0204   29.7084 N   0  0  0  0  0  0  0  0  0  0  0  0
   11.4910  -18.9478   29.8659 C   0  0  0  0  0  0  0  0  0  0  0  0
   11.0406  -19.3596   28.6939 N   0  0  0  0  0  0  0  0  0  0  0  0
   13.6847  -18.6386   25.2050 C   0  0  0  0  0  0  0  0  0  0  0  0
   14.6349  -18.3511   26.1921 O   0  0  0  0  0  0  0  0  0  0  0  0
   14.0660  -19.3626   24.2714 O   0  0  0  0  0  0  0  0  0  0  0  0
  2  1  1  1
  2  3  1  0
  4  3  1  0
  5  4  2  0
  6  5  1  0
  7  6  1  0
  7 12  2  0
  8  7  1  0
  9  8  2  0
  9 10  1  0
 10 11  2  0
 11 12  1  0
 12  4  1  0
 13 14  2  0
 13  2  1  0
 15 13  1  0
 16 15  1  0
 17 18  1  0
 16 17  1  6
 19 18  1  0
 20 19  2  0
 21 16  1  0
 21 24  1  0
 22 21  2  0
 23 19  1  0
 25 24  1  0
 25 32  1  0
 26 27  1  0
 25 26  1  1
 27 31  1  0
 28 27  2  0
 28 29  1  0
 29 30  1  0
 31 30  2  0
 32 34  2  0
 32 33  1  0
M  END
$$$$
