WEH.pdb
     RDKit          3D

 34 36  0  0  1  0  0  0  0  0999 V2000
    6.5723  -17.1726   24.4388 N   0  0  0  0  0  0  0  0  0  0  0  0
    7.7266  -16.3889   24.1114 C   0  0  1  0  0  0  0  0  0  0  0  0
    8.2094  -15.6002   25.3129 C   0  0  0  0  0  0  0  0  0  0  0  0
    7.1017  -14.6322   25.6285 C   0  0  0  0  0  0  0  0  0  0  0  0
    5.9172  -14.9163   26.2987 C   0  0  0  0  0  0  0  0  0  0  0  0
    5.1705  -13.8198   26.3967 N   0  0  0  0  0  0  0  0  0  0  0  0
    5.8321  -12.8184   25.8080 C   0  0  0  0  0  0  0  0  0  0  0  0
    5.5161  -11.4940   25.6303 C   0  0  0  0  0  0  0  0  0  0  0  0
    6.3631  -10.6215   24.9803 C   0  0  0  0  0  0  0  0  0  0  0  0
    7.5586  -11.0947   24.4972 C   0  0  0  0  0  0  0  0  0  0  0  0
    7.8906  -12.4384   24.6718 C   0  0  0  0  0  0  0  0  0  0  0  0
    7.0379  -13.2907   25.3195 C   0  0  0  0  0  0  0  0  0  0  0  0
    8.7628  -17.2284   23.5047 C   0  0  0  0  0  0  0  0  0  0  0  0
    8.9270  -18.3995   23.9347 O   0  0  0  0  0  0  0  0  0  0  0  0
    9.6153  -16.8257   22.4509 N   0  0  0  0  0  0  0  0  0  0  0  0
   10.9604  -17.3941   22.2911 C   0  0  1  0  0  0  0  0  0  0  0  0
   11.3338  -17.2967   20.8575 C   0  0  0  0  0  0  0  0  0  0  0  0
   11.3886  -15.8571   20.4342 C   0  0  0  0  0  0  0  0  0  0  0  0
   12.5293  -15.5113   19.5875 C   0  0  0  0  0  0  0  0  0  0  0  0
   13.2015  -16.3447   18.9538 O   0  0  0  0  0  0  0  0  0  0  0  0
   11.9247  -16.7006   23.1898 C   0  0  0  0  0  0  0  0  0  0  0  0
   12.0401  -15.4623   23.0637 O   0  0  0  0  0  0  0  0  0  0  0  0
   12.9188  -14.1803   19.4559 O   0  0  0  0  0  0  0  0  0  0  0  0
   12.6973  -17.3564   24.1550 N   0  0  0  0  0  0  0  0  0  0  0  0
   12.7391  -16.8457   25.5559 C   0  0  1  0  0  0  0  0  0  0  0  0
   11.3359  -16.8083   26.0246 C   0  0  0  0  0  0  0  0  0  0  0  0
   11.1037  -16.3457   27.4026 C   0  0  0  0  0  0  0  0  0  0  0  0
   11.3308  -15.1261   27.9883 C   0  0  0  0  0  0  0  0  0  0  0  0
   10.9150  -15.1252   29.2742 N   0  0  0  0  0  0  0  0  0  0  0  0
   10.4251  -16.3528   29.4879 C   0  0  0  0  0  0  0  0  0  0  0  0
   10.5250  -17.0927   28.3976 N   0  0  0  0  0  0  0  0  0  0  0  0
   13.5724  -17.8503   26.2729 C   0  0  0  0  0  0  0  0  0  0  0  0
   14.1875  -17.4871   27.4770 O   0  0  0  0  0  0  0  0  0  0  0  0
   13.7727  -19.0120   25.8837 O   0  0  0  0  0  0  0  0  0  0  0  0
  2  1  1  1
  2  3  1  0
  4  3  1  0
  5  4  2  0
  6  5  1  0
  7  6  1  0
  7 12  2  0
  8  7  1  0
  9  8  2  0
  9 10  1  0
 10 11  2  0
 11 12  1  0
 12  4  1  0
 13 14  2  0
 13  2  1  0
 15 13  1  0
 16 15  1  0
 17 18  1  0
 16 17  1  6
 19 18  1  0
 20 19  2  0
 21 16  1  0
 21 24  1  0
 22 21  2  0
 23 19  1  0
 25 24  1  0
 25 32  1  0
 26 27  1  0
 25 26  1  1
 27 31  1  0
 28 27  2  0
 28 29  1  0
 29 30  1  0
 31 30  2  0
 32 34  2  0
 32 33  1  0
M  END
$$$$
