WEH.pdb
     RDKit          3D

 34 36  0  0  1  0  0  0  0  0999 V2000
    7.1241  -17.0729   23.7753 N   0  0  0  0  0  0  0  0  0  0  0  0
    8.3379  -16.3113   23.7941 C   0  0  1  0  0  0  0  0  0  0  0  0
    8.6829  -15.8691   25.2026 C   0  0  0  0  0  0  0  0  0  0  0  0
    7.5929  -14.9112   25.6004 C   0  0  0  0  0  0  0  0  0  0  0  0
    6.2906  -15.2390   25.9604 C   0  0  0  0  0  0  0  0  0  0  0  0
    5.6024  -14.1376   26.2479 N   0  0  0  0  0  0  0  0  0  0  0  0
    6.4175  -13.0903   26.0869 C   0  0  0  0  0  0  0  0  0  0  0  0
    6.2159  -11.7417   26.2492 C   0  0  0  0  0  0  0  0  0  0  0  0
    7.2169  -10.8208   26.0231 C   0  0  0  0  0  0  0  0  0  0  0  0
    8.4522  -11.2693   25.6237 C   0  0  0  0  0  0  0  0  0  0  0  0
    8.6690  -12.6372   25.4556 C   0  0  0  0  0  0  0  0  0  0  0  0
    7.6639  -13.5375   25.6843 C   0  0  0  0  0  0  0  0  0  0  0  0
    9.4164  -17.0463   23.1283 C   0  0  0  0  0  0  0  0  0  0  0  0
    9.4694  -18.2971   23.2546 O   0  0  0  0  0  0  0  0  0  0  0  0
   10.4280  -16.4560   22.3360 N   0  0  0  0  0  0  0  0  0  0  0  0
   11.5235  -17.2539   21.7693 C   0  0  1  0  0  0  0  0  0  0  0  0
   11.9093  -16.6484   20.4698 C   0  0  0  0  0  0  0  0  0  0  0  0
   13.0739  -17.3899   19.8794 C   0  0  0  0  0  0  0  0  0  0  0  0
   13.3484  -17.0812   18.4769 C   0  0  0  0  0  0  0  0  0  0  0  0
   13.3936  -15.9264   18.0161 O   0  0  0  0  0  0  0  0  0  0  0  0
   12.6574  -17.3323   22.7318 C   0  0  0  0  0  0  0  0  0  0  0  0
   13.6533  -18.0079   22.3936 O   0  0  0  0  0  0  0  0  0  0  0  0
   13.5782  -18.1136   17.5703 O   0  0  0  0  0  0  0  0  0  0  0  0
   12.6641  -16.6963   23.9785 N   0  0  0  0  0  0  0  0  0  0  0  0
   13.8262  -16.8624   24.8988 C   0  0  1  0  0  0  0  0  0  0  0  0
   13.8600  -18.2952   25.2679 C   0  0  0  0  0  0  0  0  0  0  0  0
   12.7244  -18.8110   26.0498 C   0  0  0  0  0  0  0  0  0  0  0  0
   11.8433  -18.1672   26.8812 C   0  0  0  0  0  0  0  0  0  0  0  0
   10.9132  -19.0261   27.3541 N   0  0  0  0  0  0  0  0  0  0  0  0
   11.2185  -20.2114   26.8113 C   0  0  0  0  0  0  0  0  0  0  0  0
   12.2844  -20.1107   26.0368 N   0  0  0  0  0  0  0  0  0  0  0  0
   14.9922  -16.4395   24.0747 C   0  0  0  0  0  0  0  0  0  0  0  0
   14.7662  -15.9211   22.7940 O   0  0  0  0  0  0  0  0  0  0  0  0
   16.1777  -16.5093   24.4364 O   0  0  0  0  0  0  0  0  0  0  0  0
  2  1  1  1
  2  3  1  0
  4  3  1  0
  5  4  2  0
  6  5  1  0
  7  6  1  0
  7 12  2  0
  8  7  1  0
  9  8  2  0
  9 10  1  0
 10 11  2  0
 11 12  1  0
 12  4  1  0
 13 14  2  0
 13  2  1  0
 15 13  1  0
 16 15  1  0
 17 18  1  0
 16 17  1  6
 19 18  1  0
 20 19  2  0
 21 16  1  0
 21 24  1  0
 22 21  2  0
 23 19  1  0
 25 24  1  0
 25 32  1  0
 26 27  1  0
 25 26  1  6
 27 31  1  0
 28 27  2  0
 28 29  1  0
 29 30  1  0
 31 30  2  0
 32 34  2  0
 32 33  1  0
M  END
$$$$
