WEH.pdb
     RDKit          3D

 34 36  0  0  1  0  0  0  0  0999 V2000
    7.1623  -17.3917   23.9167 N   0  0  0  0  0  0  0  0  0  0  0  0
    8.3930  -16.7307   23.5972 C   0  0  1  0  0  0  0  0  0  0  0  0
    8.6430  -15.5621   24.5302 C   0  0  0  0  0  0  0  0  0  0  0  0
    7.6618  -14.4999   24.1141 C   0  0  0  0  0  0  0  0  0  0  0  0
    6.5595  -14.0591   24.8376 C   0  0  0  0  0  0  0  0  0  0  0  0
    5.9157  -13.1113   24.1620 N   0  0  0  0  0  0  0  0  0  0  0  0
    6.5652  -12.9149   23.0101 C   0  0  0  0  0  0  0  0  0  0  0  0
    6.3271  -12.0620   21.9606 C   0  0  0  0  0  0  0  0  0  0  0  0
    7.1421  -12.0261   20.8489 C   0  0  0  0  0  0  0  0  0  0  0  0
    8.2242  -12.8701   20.7929 C   0  0  0  0  0  0  0  0  0  0  0  0
    8.4763  -13.7410   21.8533 C   0  0  0  0  0  0  0  0  0  0  0  0
    7.6568  -13.7636   22.9492 C   0  0  0  0  0  0  0  0  0  0  0  0
    9.4969  -17.6931   23.5523 C   0  0  0  0  0  0  0  0  0  0  0  0
    9.4832  -18.6729   24.3416 O   0  0  0  0  0  0  0  0  0  0  0  0
   10.6037  -17.6136   22.6759 N   0  0  0  0  0  0  0  0  0  0  0  0
   11.7186  -18.5666   22.7582 C   0  0  1  0  0  0  0  0  0  0  0  0
   12.6042  -18.3407   21.5881 C   0  0  0  0  0  0  0  0  0  0  0  0
   11.8607  -18.6239   20.3147 C   0  0  0  0  0  0  0  0  0  0  0  0
   12.6158  -18.3538   19.0922 C   0  0  0  0  0  0  0  0  0  0  0  0
   12.1432  -18.4609   17.9463 O   0  0  0  0  0  0  0  0  0  0  0  0
   12.4285  -18.4205   24.0593 C   0  0  0  0  0  0  0  0  0  0  0  0
   12.8213  -17.2765   24.3751 O   0  0  0  0  0  0  0  0  0  0  0  0
   13.9467  -17.9504   19.1724 O   0  0  0  0  0  0  0  0  0  0  0  0
   12.6744  -19.4847   24.9344 N   0  0  0  0  0  0  0  0  0  0  0  0
   13.4891  -19.2705   26.1654 C   0  0  1  0  0  0  0  0  0  0  0  0
   12.8850  -20.1217   27.2145 C   0  0  0  0  0  0  0  0  0  0  0  0
   11.6275  -19.6492   27.8166 C   0  0  0  0  0  0  0  0  0  0  0  0
   10.9759  -18.4473   27.7027 C   0  0  0  0  0  0  0  0  0  0  0  0
    9.8121  -18.4642   28.3895 N   0  0  0  0  0  0  0  0  0  0  0  0
    9.7402  -19.6859   28.9328 C   0  0  0  0  0  0  0  0  0  0  0  0
   10.8006  -20.4049   28.6091 N   0  0  0  0  0  0  0  0  0  0  0  0
   14.8547  -19.7097   25.7655 C   0  0  0  0  0  0  0  0  0  0  0  0
   15.8973  -19.6162   26.6951 O   0  0  0  0  0  0  0  0  0  0  0  0
   15.1544  -20.1633   24.6495 O   0  0  0  0  0  0  0  0  0  0  0  0
  2  1  1  1
  2  3  1  0
  4  3  1  0
  5  4  2  0
  6  5  1  0
  7  6  1  0
  7 12  2  0
  8  7  1  0
  9  8  2  0
  9 10  1  0
 10 11  2  0
 11 12  1  0
 12  4  1  0
 13 14  2  0
 13  2  1  0
 15 13  1  0
 16 15  1  0
 17 18  1  0
 16 17  1  6
 19 18  1  0
 20 19  2  0
 21 16  1  0
 21 24  1  0
 22 21  2  0
 23 19  1  0
 25 24  1  0
 25 32  1  0
 26 27  1  0
 25 26  1  1
 27 31  1  0
 28 27  2  0
 28 29  1  0
 29 30  1  0
 31 30  2  0
 32 34  2  0
 32 33  1  0
M  END
$$$$
