WEH.pdb
     RDKit          3D

 34 36  0  0  1  0  0  0  0  0999 V2000
    6.3952  -17.6906   24.5812 N   0  0  0  0  0  0  0  0  0  0  0  0
    7.4956  -16.7875   24.4161 C   0  0  1  0  0  0  0  0  0  0  0  0
    7.9126  -16.1869   25.7443 C   0  0  0  0  0  0  0  0  0  0  0  0
    6.9720  -15.0357   25.9767 C   0  0  0  0  0  0  0  0  0  0  0  0
    5.6942  -15.1048   26.5203 C   0  0  0  0  0  0  0  0  0  0  0  0
    5.1520  -13.8914   26.5748 N   0  0  0  0  0  0  0  0  0  0  0  0
    6.0396  -13.0224   26.0809 C   0  0  0  0  0  0  0  0  0  0  0  0
    5.9877  -11.6609   25.9093 C   0  0  0  0  0  0  0  0  0  0  0  0
    7.0396  -10.9519   25.3690 C   0  0  0  0  0  0  0  0  0  0  0  0
    8.1724  -11.6310   24.9920 C   0  0  0  0  0  0  0  0  0  0  0  0
    8.2368  -13.0143   25.1615 C   0  0  0  0  0  0  0  0  0  0  0  0
    7.1832  -13.7024   25.6996 C   0  0  0  0  0  0  0  0  0  0  0  0
    8.5924  -17.4396   23.6960 C   0  0  0  0  0  0  0  0  0  0  0  0
    8.4098  -18.5902   23.2207 O   0  0  0  0  0  0  0  0  0  0  0  0
    9.8703  -16.8726   23.4838 N   0  0  0  0  0  0  0  0  0  0  0  0
   10.9312  -17.6098   22.7847 C   0  0  1  0  0  0  0  0  0  0  0  0
   10.8697  -17.2503   21.3455 C   0  0  0  0  0  0  0  0  0  0  0  0
   11.9914  -17.9126   20.5988 C   0  0  0  0  0  0  0  0  0  0  0  0
   12.0651  -17.5737   19.1784 C   0  0  0  0  0  0  0  0  0  0  0  0
   12.4334  -18.3671   18.2935 O   0  0  0  0  0  0  0  0  0  0  0  0
   12.2558  -17.3166   23.3994 C   0  0  0  0  0  0  0  0  0  0  0  0
   12.9452  -16.4141   22.8771 O   0  0  0  0  0  0  0  0  0  0  0  0
   11.7105  -16.2968   18.7494 O   0  0  0  0  0  0  0  0  0  0  0  0
   12.7604  -17.9912   24.5169 N   0  0  0  0  0  0  0  0  0  0  0  0
   12.5724  -17.4237   25.8835 C   0  0  1  0  0  0  0  0  0  0  0  0
   11.4477  -16.4671   25.7830 C   0  0  0  0  0  0  0  0  0  0  0  0
   11.0308  -15.7930   27.0235 C   0  0  0  0  0  0  0  0  0  0  0  0
   11.4837  -15.9270   28.3115 C   0  0  0  0  0  0  0  0  0  0  0  0
   10.8501  -15.0640   29.1363 N   0  0  0  0  0  0  0  0  0  0  0  0
    9.9985  -14.3886   28.3543 C   0  0  0  0  0  0  0  0  0  0  0  0
   10.0862  -14.8007   27.1018 N   0  0  0  0  0  0  0  0  0  0  0  0
   12.2586  -18.6150   26.7202 C   0  0  0  0  0  0  0  0  0  0  0  0
   12.5378  -18.5742   28.0915 O   0  0  0  0  0  0  0  0  0  0  0  0
   11.7575  -19.6678   26.2939 O   0  0  0  0  0  0  0  0  0  0  0  0
  2  1  1  1
  2  3  1  0
  4  3  1  0
  5  4  2  0
  6  5  1  0
  7  6  1  0
  7 12  2  0
  8  7  1  0
  9  8  2  0
  9 10  1  0
 10 11  2  0
 11 12  1  0
 12  4  1  0
 13 14  2  0
 13  2  1  0
 15 13  1  0
 16 15  1  0
 17 18  1  0
 16 17  1  6
 19 18  1  0
 20 19  2  0
 21 16  1  0
 21 24  1  0
 22 21  2  0
 23 19  1  0
 25 24  1  0
 25 32  1  0
 26 27  1  0
 25 26  1  6
 27 31  1  0
 28 27  2  0
 28 29  1  0
 29 30  1  0
 31 30  2  0
 32 34  2  0
 32 33  1  0
M  END
$$$$
