WEH.pdb
     RDKit          3D

 34 36  0  0  1  0  0  0  0  0999 V2000
    6.7517  -17.4169   24.2483 N   0  0  0  0  0  0  0  0  0  0  0  0
    7.9729  -16.6673   24.2284 C   0  0  1  0  0  0  0  0  0  0  0  0
    8.2218  -15.9940   25.5638 C   0  0  0  0  0  0  0  0  0  0  0  0
    7.0621  -15.0562   25.7623 C   0  0  0  0  0  0  0  0  0  0  0  0
    5.8165  -15.3768   26.2902 C   0  0  0  0  0  0  0  0  0  0  0  0
    5.0369  -14.2993   26.3148 N   0  0  0  0  0  0  0  0  0  0  0  0
    5.7364  -13.2748   25.8165 C   0  0  0  0  0  0  0  0  0  0  0  0
    5.4103  -11.9556   25.6189 C   0  0  0  0  0  0  0  0  0  0  0  0
    6.3040  -11.0549   25.0792 C   0  0  0  0  0  0  0  0  0  0  0  0
    7.5578  -11.4937   24.7300 C   0  0  0  0  0  0  0  0  0  0  0  0
    7.9006  -12.8318   24.9261 C   0  0  0  0  0  0  0  0  0  0  0  0
    7.0010  -13.7124   25.4630 C   0  0  0  0  0  0  0  0  0  0  0  0
    9.0851  -17.5082   23.7781 C   0  0  0  0  0  0  0  0  0  0  0  0
    9.0036  -18.7553   23.9239 O   0  0  0  0  0  0  0  0  0  0  0  0
   10.2717  -17.0265   23.1786 N   0  0  0  0  0  0  0  0  0  0  0  0
   11.5725  -17.6601   23.4326 C   0  0  1  0  0  0  0  0  0  0  0  0
   12.5288  -17.1754   22.4056 C   0  0  0  0  0  0  0  0  0  0  0  0
   11.9192  -16.0483   21.6227 C   0  0  0  0  0  0  0  0  0  0  0  0
   12.7886  -15.4762   20.5957 C   0  0  0  0  0  0  0  0  0  0  0  0
   12.4627  -14.5273   19.8600 O   0  0  0  0  0  0  0  0  0  0  0  0
   12.0227  -17.3766   24.8238 C   0  0  0  0  0  0  0  0  0  0  0  0
   12.9714  -16.5757   24.9693 O   0  0  0  0  0  0  0  0  0  0  0  0
   14.0655  -15.9964   20.3977 O   0  0  0  0  0  0  0  0  0  0  0  0
   11.4451  -17.9535   25.9605 N   0  0  0  0  0  0  0  0  0  0  0  0
   12.1698  -17.9298   27.2640 C   0  0  1  0  0  0  0  0  0  0  0  0
   11.2402  -17.3241   28.2433 C   0  0  0  0  0  0  0  0  0  0  0  0
   11.0411  -15.8677   28.1635 C   0  0  0  0  0  0  0  0  0  0  0  0
   11.8860  -14.8696   27.7493 C   0  0  0  0  0  0  0  0  0  0  0  0
   11.2675  -13.6686   27.7890 N   0  0  0  0  0  0  0  0  0  0  0  0
   10.0293  -13.9234   28.2301 C   0  0  0  0  0  0  0  0  0  0  0  0
    9.8705  -15.2152   28.4585 N   0  0  0  0  0  0  0  0  0  0  0  0
   12.4558  -19.3660   27.5348 C   0  0  0  0  0  0  0  0  0  0  0  0
   13.1293  -19.7140   28.7118 O   0  0  0  0  0  0  0  0  0  0  0  0
   12.1395  -20.3045   26.7863 O   0  0  0  0  0  0  0  0  0  0  0  0
  2  1  1  1
  2  3  1  0
  4  3  1  0
  5  4  2  0
  6  5  1  0
  7  6  1  0
  7 12  2  0
  8  7  1  0
  9  8  2  0
  9 10  1  0
 10 11  2  0
 11 12  1  0
 12  4  1  0
 13 14  2  0
 13  2  1  0
 15 13  1  0
 16 15  1  0
 17 18  1  0
 16 17  1  6
 19 18  1  0
 20 19  2  0
 21 16  1  0
 21 24  1  0
 22 21  2  0
 23 19  1  0
 25 24  1  0
 25 32  1  0
 26 27  1  0
 25 26  1  1
 27 31  1  0
 28 27  2  0
 28 29  1  0
 29 30  1  0
 31 30  2  0
 32 34  2  0
 32 33  1  0
M  END
$$$$
