MQY.pdb
     RDKit          3D

 30 30  0  0  1  0  0  0  0  0999 V2000
   27.5880  -18.7524   -5.0125 C   0  0  0  0  0  0  0  0  0  0  0  0
   28.2661  -19.2387   -6.6144 S   0  0  0  0  0  0  0  0  0  0  0  0
   26.9669  -19.4536   -7.8424 C   0  0  0  0  0  0  0  0  0  0  0  0
   26.6218  -20.8771   -8.0968 C   0  0  0  0  0  0  0  0  0  0  0  0
   25.5156  -21.0451   -9.1034 C   0  0  2  0  0  0  0  0  0  0  0  0
   25.3296  -22.5020   -9.2296 N   0  0  0  0  0  0  0  0  0  0  0  0
   25.8309  -20.4439  -10.3858 C   0  0  0  0  0  0  0  0  0  0  0  0
   25.9465  -19.1735  -10.4552 O   0  0  0  0  0  0  0  0  0  0  0  0
   28.7145  -20.2153  -15.7115 N   0  0  0  0  0  0  0  0  0  0  0  0
   27.7691  -21.2422  -15.9607 C   0  0  0  0  0  0  0  0  0  0  0  0
   27.5913  -21.7662  -17.0891 O   0  0  0  0  0  0  0  0  0  0  0  0
   26.9518  -21.7122  -14.8104 C   0  0  0  0  0  0  0  0  0  0  0  0
   27.3945  -21.0100  -13.5287 C   0  0  0  0  0  0  0  0  0  0  0  0
   26.1247  -20.4878  -12.8396 C   0  0  2  0  0  0  0  0  0  0  0  0
   26.0294  -21.1906  -11.5954 N   0  0  0  0  0  0  0  0  0  0  0  0
   24.9640  -20.6048  -13.7216 C   0  0  0  0  0  0  0  0  0  0  0  0
   24.3931  -21.7189  -13.8418 O   0  0  0  0  0  0  0  0  0  0  0  0
   16.9009  -18.9882  -16.5226 O   0  0  0  0  0  0  0  0  0  0  0  0
   18.1937  -18.9067  -16.0086 C   0  0  0  0  0  0  0  0  0  0  0  0
   19.0645  -17.9240  -16.4231 C   0  0  0  0  0  0  0  0  0  0  0  0
   20.3536  -17.8236  -15.9262 C   0  0  0  0  0  0  0  0  0  0  0  0
   20.7648  -18.7444  -14.9865 C   0  0  0  0  0  0  0  0  0  0  0  0
   22.1184  -18.7163  -14.4099 C   0  0  0  0  0  0  0  0  0  0  0  0
   23.1129  -19.5975  -15.1183 C   0  0  2  0  0  0  0  0  0  0  0  0
   24.4165  -19.5386  -14.4702 N   0  0  0  0  0  0  0  0  0  0  0  0
   23.2036  -19.3832  -16.5627 C   0  0  0  0  0  0  0  0  0  0  0  0
   22.4350  -20.0326  -17.4994 O   0  0  0  0  0  0  0  0  0  0  0  0
   19.8824  -19.7209  -14.5823 C   0  0  0  0  0  0  0  0  0  0  0  0
   18.6017  -19.8277  -15.0701 C   0  0  0  0  0  0  0  0  0  0  0  0
   24.0453  -18.5406  -17.0309 O   0  0  0  0  0  0  0  0  0  0  0  0
  1  2  1  0
  2  3  1  0
  3  4  1  0
  5  4  1  0
  5  6  1  6
  7  5  1  0
  8  7  2  0
 10  9  1  0
 10 12  1  0
 11 10  2  0
 13 12  1  0
 14 13  1  6
 14 15  1  0
 15  7  1  0
 16 25  1  0
 16 14  1  0
 17 16  2  0
 18 19  1  0
 19 29  2  0
 19 20  1  0
 20 21  2  0
 21 22  1  0
 22 23  1  0
 24 23  1  1
 24 25  1  0
 26 24  1  0
 26 27  1  0
 28 22  2  0
 29 28  1  0
 30 26  2  0
M  END
$$$$
