MQY.pdb
     RDKit          3D

 30 30  0  0  1  0  0  0  0  0999 V2000
   12.8489   -3.5079   -4.4849 C   0  0  0  0  0  0  0  0  0  0  0  0
   13.2508   -4.4910   -5.9458 S   0  0  0  0  0  0  0  0  0  0  0  0
   14.5936   -3.7507   -6.8897 C   0  0  0  0  0  0  0  0  0  0  0  0
   15.0155   -4.5660   -8.0591 C   0  0  0  0  0  0  0  0  0  0  0  0
   16.1628   -3.9574   -8.8195 C   0  0  2  0  0  0  0  0  0  0  0  0
   15.6799   -2.6318   -9.2466 N   0  0  0  0  0  0  0  0  0  0  0  0
   16.5665   -4.7603   -9.9587 C   0  0  0  0  0  0  0  0  0  0  0  0
   16.4469   -4.2655  -11.1305 O   0  0  0  0  0  0  0  0  0  0  0  0
   20.6369   -5.0113  -13.0477 N   0  0  0  0  0  0  0  0  0  0  0  0
   20.9720   -5.8470  -11.9523 C   0  0  0  0  0  0  0  0  0  0  0  0
   22.1520   -6.0666  -11.5794 O   0  0  0  0  0  0  0  0  0  0  0  0
   19.8514   -6.4905  -11.2160 C   0  0  0  0  0  0  0  0  0  0  0  0
   18.5125   -6.0013  -11.7635 C   0  0  0  0  0  0  0  0  0  0  0  0
   17.4141   -6.8076  -11.0541 C   0  0  2  0  0  0  0  0  0  0  0  0
   17.1030   -6.0876   -9.8557 N   0  0  0  0  0  0  0  0  0  0  0  0
   17.8237   -8.1990  -10.8665 C   0  0  0  0  0  0  0  0  0  0  0  0
   18.3250   -8.5494   -9.7676 O   0  0  0  0  0  0  0  0  0  0  0  0
   12.5332  -14.8712  -10.2274 O   0  0  0  0  0  0  0  0  0  0  0  0
   13.3355  -13.7425  -10.3834 C   0  0  0  0  0  0  0  0  0  0  0  0
   14.6509  -13.7416   -9.9763 C   0  0  0  0  0  0  0  0  0  0  0  0
   15.4669  -12.6317  -10.1213 C   0  0  0  0  0  0  0  0  0  0  0  0
   14.9313  -11.4977  -10.6934 C   0  0  0  0  0  0  0  0  0  0  0  0
   15.7239  -10.2720  -10.8803 C   0  0  0  0  0  0  0  0  0  0  0  0
   17.0247  -10.4795  -11.6098 C   0  0  2  0  0  0  0  0  0  0  0  0
   17.6985   -9.2095  -11.8462 N   0  0  0  0  0  0  0  0  0  0  0  0
   16.9247  -11.2869  -12.8257 C   0  0  0  0  0  0  0  0  0  0  0  0
   17.3634  -12.5845  -12.9411 O   0  0  0  0  0  0  0  0  0  0  0  0
   13.6147  -11.5144  -11.0953 C   0  0  0  0  0  0  0  0  0  0  0  0
   12.7980  -12.6112  -10.9552 C   0  0  0  0  0  0  0  0  0  0  0  0
   16.3986  -10.7887  -13.8806 O   0  0  0  0  0  0  0  0  0  0  0  0
  1  2  1  0
  2  3  1  0
  3  4  1  0
  5  4  1  0
  5  6  1  6
  7  5  1  0
  8  7  2  0
 10  9  1  0
 10 12  1  0
 11 10  2  0
 13 12  1  0
 14 13  1  1
 14 15  1  0
 15  7  1  0
 16 25  1  0
 16 14  1  0
 17 16  2  0
 18 19  1  0
 19 29  2  0
 19 20  1  0
 20 21  2  0
 21 22  1  0
 22 23  1  0
 24 23  1  6
 24 25  1  0
 26 24  1  0
 26 27  1  0
 28 22  2  0
 29 28  1  0
 30 26  2  0
M  END
$$$$
