MQY.pdb
     RDKit          3D

 30 30  0  0  1  0  0  0  0  0999 V2000
   25.5990  -21.0469   -8.3941 C   0  0  0  0  0  0  0  0  0  0  0  0
   26.2452  -22.1394   -9.6790 S   0  0  0  0  0  0  0  0  0  0  0  0
   26.7857  -21.2105  -11.1238 C   0  0  0  0  0  0  0  0  0  0  0  0
   25.7044  -20.4031  -11.7475 C   0  0  0  0  0  0  0  0  0  0  0  0
   25.5149  -20.7009  -13.2106 C   0  0  2  0  0  0  0  0  0  0  0  0
   26.7698  -20.2730  -13.8549 N   0  0  0  0  0  0  0  0  0  0  0  0
   24.3721  -20.0098  -13.7780 C   0  0  0  0  0  0  0  0  0  0  0  0
   24.3315  -18.7347  -13.7105 O   0  0  0  0  0  0  0  0  0  0  0  0
   22.7238  -16.9427  -17.3333 N   0  0  0  0  0  0  0  0  0  0  0  0
   22.9216  -18.2699  -17.7914 C   0  0  0  0  0  0  0  0  0  0  0  0
   23.2912  -18.5560  -18.9581 O   0  0  0  0  0  0  0  0  0  0  0  0
   22.6730  -19.3711  -16.8232 C   0  0  0  0  0  0  0  0  0  0  0  0
   22.2579  -18.7982  -15.4699 C   0  0  0  0  0  0  0  0  0  0  0  0
   22.0179  -19.9899  -14.5308 C   0  0  2  0  0  0  0  0  0  0  0  0
   23.2732  -20.6707  -14.4228 N   0  0  0  0  0  0  0  0  0  0  0  0
   20.8954  -20.8047  -14.9944 C   0  0  0  0  0  0  0  0  0  0  0  0
   21.0187  -21.4773  -16.0499 O   0  0  0  0  0  0  0  0  0  0  0  0
   24.2910  -25.8033  -14.8900 O   0  0  0  0  0  0  0  0  0  0  0  0
   23.2739  -25.0220  -14.3450 C   0  0  0  0  0  0  0  0  0  0  0  0
   21.9598  -25.4307  -14.3897 C   0  0  0  0  0  0  0  0  0  0  0  0
   20.9326  -24.6709  -13.8547 C   0  0  0  0  0  0  0  0  0  0  0  0
   21.2508  -23.4682  -13.2610 C   0  0  0  0  0  0  0  0  0  0  0  0
   20.2229  -22.5948  -12.6730 C   0  0  0  0  0  0  0  0  0  0  0  0
   19.1908  -22.1041  -13.6535 C   0  0  2  0  0  0  0  0  0  0  0  0
   19.6493  -20.9006  -14.3349 N   0  0  0  0  0  0  0  0  0  0  0  0
   17.8450  -21.9479  -13.1016 C   0  0  0  0  0  0  0  0  0  0  0  0
   17.0911  -20.8019  -13.1910 O   0  0  0  0  0  0  0  0  0  0  0  0
   22.5693  -23.0735  -13.2242 C   0  0  0  0  0  0  0  0  0  0  0  0
   23.5946  -23.8212  -13.7526 C   0  0  0  0  0  0  0  0  0  0  0  0
   17.2922  -22.9225  -12.4831 O   0  0  0  0  0  0  0  0  0  0  0  0
  1  2  1  0
  2  3  1  0
  3  4  1  0
  5  4  1  0
  5  6  1  6
  7  5  1  0
  8  7  2  0
 10  9  1  0
 10 12  1  0
 11 10  2  0
 13 12  1  0
 14 13  1  6
 14 15  1  0
 15  7  1  0
 16 25  1  0
 16 14  1  0
 17 16  2  0
 18 19  1  0
 19 29  2  0
 19 20  1  0
 20 21  2  0
 21 22  1  0
 22 23  1  0
 24 23  1  1
 24 25  1  0
 26 24  1  0
 26 27  1  0
 28 22  2  0
 29 28  1  0
 30 26  2  0
M  END
$$$$
