MQY.pdb
     RDKit          3D

 30 30  0  0  1  0  0  0  0  0999 V2000
   29.8896  -23.1709  -20.2783 C   0  0  0  0  0  0  0  0  0  0  0  0
   30.9577  -24.4184  -21.0299 S   0  0  0  0  0  0  0  0  0  0  0  0
   32.0976  -25.1218  -19.8266 C   0  0  0  0  0  0  0  0  0  0  0  0
   32.9653  -26.1910  -20.3871 C   0  0  0  0  0  0  0  0  0  0  0  0
   33.8573  -26.8281  -19.3559 C   0  0  2  0  0  0  0  0  0  0  0  0
   35.1816  -26.2144  -19.5623 N   0  0  0  0  0  0  0  0  0  0  0  0
   33.9221  -28.2716  -19.4883 C   0  0  0  0  0  0  0  0  0  0  0  0
   34.4744  -28.7675  -20.5282 O   0  0  0  0  0  0  0  0  0  0  0  0
   37.7782  -31.3519  -18.9226 N   0  0  0  0  0  0  0  0  0  0  0  0
   36.9240  -32.4792  -19.0232 C   0  0  0  0  0  0  0  0  0  0  0  0
   37.3328  -33.6436  -19.2606 O   0  0  0  0  0  0  0  0  0  0  0  0
   35.4665  -32.2510  -18.8343 C   0  0  0  0  0  0  0  0  0  0  0  0
   35.1791  -30.7560  -18.7149 C   0  0  0  0  0  0  0  0  0  0  0  0
   33.6521  -30.5921  -18.6809 C   0  0  2  0  0  0  0  0  0  0  0  0
   33.4057  -29.1911  -18.5147 N   0  0  0  0  0  0  0  0  0  0  0  0
   33.0540  -31.4629  -17.6696 C   0  0  0  0  0  0  0  0  0  0  0  0
   33.1631  -31.1586  -16.4542 O   0  0  0  0  0  0  0  0  0  0  0  0
   25.6341  -33.3495  -14.0166 O   0  0  0  0  0  0  0  0  0  0  0  0
   26.7564  -33.0055  -14.7678 C   0  0  0  0  0  0  0  0  0  0  0  0
   26.7248  -33.0219  -16.1442 C   0  0  0  0  0  0  0  0  0  0  0  0
   27.8276  -32.6841  -16.9112 C   0  0  0  0  0  0  0  0  0  0  0  0
   28.9883  -32.3215  -16.2619 C   0  0  0  0  0  0  0  0  0  0  0  0
   30.2086  -31.9536  -16.9972 C   0  0  0  0  0  0  0  0  0  0  0  0
   31.1758  -33.0894  -17.2021 C   0  0  2  0  0  0  0  0  0  0  0  0
   32.3438  -32.6508  -17.9546 N   0  0  0  0  0  0  0  0  0  0  0  0
   30.5846  -34.3063  -17.7589 C   0  0  0  0  0  0  0  0  0  0  0  0
   29.9299  -35.2653  -17.0229 O   0  0  0  0  0  0  0  0  0  0  0  0
   29.0040  -32.3100  -14.8853 C   0  0  0  0  0  0  0  0  0  0  0  0
   27.9143  -32.6438  -14.1167 C   0  0  0  0  0  0  0  0  0  0  0  0
   30.6597  -34.5345  -19.0159 O   0  0  0  0  0  0  0  0  0  0  0  0
  1  2  1  0
  2  3  1  0
  3  4  1  0
  5  4  1  0
  5  6  1  6
  7  5  1  0
  8  7  2  0
 10  9  1  0
 10 12  1  0
 11 10  2  0
 13 12  1  0
 14 13  1  1
 14 15  1  0
 15  7  1  0
 16 25  1  0
 16 14  1  0
 17 16  2  0
 18 19  1  0
 19 29  2  0
 19 20  1  0
 20 21  2  0
 21 22  1  0
 22 23  1  0
 24 23  1  6
 24 25  1  0
 26 24  1  0
 26 27  1  0
 28 22  2  0
 29 28  1  0
 30 26  2  0
M  END
$$$$
