MQY.pdb
     RDKit          3D

 30 30  0  0  1  0  0  0  0  0999 V2000
   25.1539  -14.9308  -22.1525 C   0  0  0  0  0  0  0  0  0  0  0  0
   24.3655  -15.8689  -20.8257 S   0  0  0  0  0  0  0  0  0  0  0  0
   22.5870  -15.9976  -21.0760 C   0  0  0  0  0  0  0  0  0  0  0  0
   21.8384  -14.7896  -20.6398 C   0  0  0  0  0  0  0  0  0  0  0  0
   22.3215  -14.2389  -19.3251 C   0  0  2  0  0  0  0  0  0  0  0  0
   22.2943  -15.3834  -18.3964 N   0  0  0  0  0  0  0  0  0  0  0  0
   21.4960  -13.1493  -18.8385 C   0  0  0  0  0  0  0  0  0  0  0  0
   21.4087  -12.0856  -19.5407 O   0  0  0  0  0  0  0  0  0  0  0  0
   16.6699  -13.3522  -14.9319 N   0  0  0  0  0  0  0  0  0  0  0  0
   16.7080  -11.9703  -15.2474 C   0  0  0  0  0  0  0  0  0  0  0  0
   15.8341  -11.1470  -14.8762 O   0  0  0  0  0  0  0  0  0  0  0  0
   17.8535  -11.4873  -16.0638 C   0  0  0  0  0  0  0  0  0  0  0  0
   18.7574  -12.6572  -16.4463 C   0  0  0  0  0  0  0  0  0  0  0  0
   19.9239  -12.0776  -17.2606 C   0  0  2  0  0  0  0  0  0  0  0  0
   20.7576  -13.1890  -17.6083 N   0  0  0  0  0  0  0  0  0  0  0  0
   20.5853  -10.9957  -16.5319 C   0  0  0  0  0  0  0  0  0  0  0  0
   21.2872  -11.2718  -15.5256 O   0  0  0  0  0  0  0  0  0  0  0  0
   22.0497   -2.7029  -13.7593 O   0  0  0  0  0  0  0  0  0  0  0  0
   21.8770   -3.8397  -14.5467 C   0  0  0  0  0  0  0  0  0  0  0  0
   22.4365   -3.9289  -15.8016 C   0  0  0  0  0  0  0  0  0  0  0  0
   22.2782   -5.0485  -16.6017 C   0  0  0  0  0  0  0  0  0  0  0  0
   21.5335   -6.1004  -16.1129 C   0  0  0  0  0  0  0  0  0  0  0  0
   21.3089   -7.3252  -16.8969 C   0  0  0  0  0  0  0  0  0  0  0  0
   21.0647   -8.5574  -16.0665 C   0  0  2  0  0  0  0  0  0  0  0  0
   20.4975   -9.6280  -16.8759 N   0  0  0  0  0  0  0  0  0  0  0  0
   20.3021   -8.3293  -14.8390 C   0  0  0  0  0  0  0  0  0  0  0  0
   20.8571   -8.0254  -13.6186 O   0  0  0  0  0  0  0  0  0  0  0  0
   20.9806   -5.9960  -14.8564 C   0  0  0  0  0  0  0  0  0  0  0  0
   21.1327   -4.8889  -14.0559 C   0  0  0  0  0  0  0  0  0  0  0  0
   19.0250   -8.4090  -14.8574 O   0  0  0  0  0  0  0  0  0  0  0  0
  1  2  1  0
  2  3  1  0
  3  4  1  0
  5  4  1  0
  5  6  1  1
  7  5  1  0
  8  7  2  0
 10  9  1  0
 10 12  1  0
 11 10  2  0
 13 12  1  0
 14 13  1  1
 14 15  1  0
 15  7  1  0
 16 25  1  0
 16 14  1  0
 17 16  2  0
 18 19  1  0
 19 29  2  0
 19 20  1  0
 20 21  2  0
 21 22  1  0
 22 23  1  0
 24 23  1  6
 24 25  1  0
 26 24  1  0
 26 27  1  0
 28 22  2  0
 29 28  1  0
 30 26  2  0
M  END
$$$$
