MQY.pdb
     RDKit          3D

 30 30  0  0  1  0  0  0  0  0999 V2000
   25.1059  -10.8266  -21.3130 C   0  0  0  0  0  0  0  0  0  0  0  0
   25.0752  -12.6073  -21.6135 S   0  0  0  0  0  0  0  0  0  0  0  0
   23.5706  -13.3587  -20.9703 C   0  0  0  0  0  0  0  0  0  0  0  0
   22.5777  -12.3681  -20.4773 C   0  0  0  0  0  0  0  0  0  0  0  0
   21.3508  -13.0073  -19.8848 C   0  0  2  0  0  0  0  0  0  0  0  0
   20.7180  -13.7317  -21.0019 N   0  0  0  0  0  0  0  0  0  0  0  0
   20.4398  -12.0377  -19.3058 C   0  0  0  0  0  0  0  0  0  0  0  0
   19.6062  -11.4461  -20.0722 O   0  0  0  0  0  0  0  0  0  0  0  0
   17.0522  -12.8186  -14.7018 N   0  0  0  0  0  0  0  0  0  0  0  0
   16.8101  -13.0895  -16.0724 C   0  0  0  0  0  0  0  0  0  0  0  0
   15.9528  -13.9139  -16.4783 O   0  0  0  0  0  0  0  0  0  0  0  0
   17.6259  -12.3471  -17.0700 C   0  0  0  0  0  0  0  0  0  0  0  0
   18.6306  -11.4426  -16.3598 C   0  0  0  0  0  0  0  0  0  0  0  0
   19.4514  -10.7377  -17.4503 C   0  0  2  0  0  0  0  0  0  0  0  0
   20.4084  -11.6983  -17.9116 N   0  0  0  0  0  0  0  0  0  0  0  0
   20.0081   -9.4790  -16.9558 C   0  0  0  0  0  0  0  0  0  0  0  0
   21.2560   -9.3233  -16.9389 O   0  0  0  0  0  0  0  0  0  0  0  0
   22.9792   -1.5992  -15.6211 O   0  0  0  0  0  0  0  0  0  0  0  0
   22.4416   -2.8350  -15.9759 C   0  0  0  0  0  0  0  0  0  0  0  0
   21.5207   -2.9456  -16.9936 C   0  0  0  0  0  0  0  0  0  0  0  0
   20.9732   -4.1630  -17.3635 C   0  0  0  0  0  0  0  0  0  0  0  0
   21.3724   -5.2927  -16.6818 C   0  0  0  0  0  0  0  0  0  0  0  0
   20.8379   -6.6253  -17.0039 C   0  0  0  0  0  0  0  0  0  0  0  0
   19.8140   -7.1363  -16.0252 C   0  0  2  0  0  0  0  0  0  0  0  0
   19.2370   -8.3935  -16.4826 N   0  0  0  0  0  0  0  0  0  0  0  0
   18.7893   -6.1639  -15.6449 C   0  0  0  0  0  0  0  0  0  0  0  0
   18.9010   -5.2786  -14.5991 O   0  0  0  0  0  0  0  0  0  0  0  0
   22.2939   -5.1656  -15.6669 C   0  0  0  0  0  0  0  0  0  0  0  0
   22.8422   -3.9617  -15.2934 C   0  0  0  0  0  0  0  0  0  0  0  0
   17.6952   -6.0989  -16.3055 O   0  0  0  0  0  0  0  0  0  0  0  0
  1  2  1  0
  2  3  1  0
  3  4  1  0
  5  4  1  0
  5  6  1  6
  7  5  1  0
  8  7  2  0
 10  9  1  0
 10 12  1  0
 11 10  2  0
 13 12  1  0
 14 13  1  1
 14 15  1  0
 15  7  1  0
 16 25  1  0
 16 14  1  0
 17 16  2  0
 18 19  1  0
 19 29  2  0
 19 20  1  0
 20 21  2  0
 21 22  1  0
 22 23  1  0
 24 23  1  6
 24 25  1  0
 26 24  1  0
 26 27  1  0
 28 22  2  0
 29 28  1  0
 30 26  2  0
M  END
$$$$
