MQY.pdb
     RDKit          3D

 30 30  0  0  1  0  0  0  0  0999 V2000
   28.5348  -27.5013  -16.6593 C   0  0  0  0  0  0  0  0  0  0  0  0
   27.9898  -25.9264  -15.9632 S   0  0  0  0  0  0  0  0  0  0  0  0
   28.6637  -24.5315  -16.8809 C   0  0  0  0  0  0  0  0  0  0  0  0
   28.1503  -23.2149  -16.4191 C   0  0  0  0  0  0  0  0  0  0  0  0
   26.6476  -23.1322  -16.4263 C   0  0  2  0  0  0  0  0  0  0  0  0
   26.2715  -23.1079  -17.8514 N   0  0  0  0  0  0  0  0  0  0  0  0
   26.1492  -21.9593  -15.7326 C   0  0  0  0  0  0  0  0  0  0  0  0
   26.9295  -20.9591  -15.5811 O   0  0  0  0  0  0  0  0  0  0  0  0
   24.0581  -18.3436  -18.5318 N   0  0  0  0  0  0  0  0  0  0  0  0
   23.7224  -17.6417  -17.3463 C   0  0  0  0  0  0  0  0  0  0  0  0
   23.3494  -16.4417  -17.3295 O   0  0  0  0  0  0  0  0  0  0  0  0
   23.8235  -18.3837  -16.0613 C   0  0  0  0  0  0  0  0  0  0  0  0
   24.2958  -19.8135  -16.3150 C   0  0  0  0  0  0  0  0  0  0  0  0
   24.2775  -20.5407  -14.9620 C   0  0  2  0  0  0  0  0  0  0  0  0
   24.8201  -21.8440  -15.2032 N   0  0  0  0  0  0  0  0  0  0  0  0
   22.9404  -20.5129  -14.3701 C   0  0  0  0  0  0  0  0  0  0  0  0
   22.4968  -19.4324  -13.9040 O   0  0  0  0  0  0  0  0  0  0  0  0
   19.2791  -22.2900  -19.9441 O   0  0  0  0  0  0  0  0  0  0  0  0
   19.4130  -21.9067  -18.6111 C   0  0  0  0  0  0  0  0  0  0  0  0
   18.8339  -22.6376  -17.5980 C   0  0  0  0  0  0  0  0  0  0  0  0
   18.9536  -22.2758  -16.2663 C   0  0  0  0  0  0  0  0  0  0  0  0
   19.6791  -21.1445  -15.9596 C   0  0  0  0  0  0  0  0  0  0  0  0
   19.8524  -20.6835  -14.5730 C   0  0  0  0  0  0  0  0  0  0  0  0
   20.7335  -21.5677  -13.7307 C   0  0  2  0  0  0  0  0  0  0  0  0
   22.0827  -21.6321  -14.2770 N   0  0  0  0  0  0  0  0  0  0  0  0
   20.1854  -22.8956  -13.4538 C   0  0  0  0  0  0  0  0  0  0  0  0
   20.8367  -24.0791  -13.7083 O   0  0  0  0  0  0  0  0  0  0  0  0
   20.2520  -20.4244  -16.9837 C   0  0  0  0  0  0  0  0  0  0  0  0
   20.1382  -20.7763  -18.3076 C   0  0  0  0  0  0  0  0  0  0  0  0
   19.0195  -23.0097  -12.9386 O   0  0  0  0  0  0  0  0  0  0  0  0
  1  2  1  0
  2  3  1  0
  3  4  1  0
  5  4  1  0
  5  6  1  6
  7  5  1  0
  8  7  2  0
 10  9  1  0
 10 12  1  0
 11 10  2  0
 13 12  1  0
 14 13  1  6
 14 15  1  0
 15  7  1  0
 16 25  1  0
 16 14  1  0
 17 16  2  0
 18 19  1  0
 19 29  2  0
 19 20  1  0
 20 21  2  0
 21 22  1  0
 22 23  1  0
 24 23  1  6
 24 25  1  0
 26 24  1  0
 26 27  1  0
 28 22  2  0
 29 28  1  0
 30 26  2  0
M  END
$$$$
