MQY.pdb
     RDKit          3D

 30 30  0  0  1  0  0  0  0  0999 V2000
   21.1499  -14.7137  -16.5355 C   0  0  0  0  0  0  0  0  0  0  0  0
   22.0703  -14.4180  -18.0611 S   0  0  0  0  0  0  0  0  0  0  0  0
   21.4145  -13.0045  -18.9633 C   0  0  0  0  0  0  0  0  0  0  0  0
   20.4342  -13.3772  -20.0170 C   0  0  0  0  0  0  0  0  0  0  0  0
   19.8658  -12.1869  -20.7416 C   0  0  2  0  0  0  0  0  0  0  0  0
   20.9947  -11.6291  -21.5080 N   0  0  0  0  0  0  0  0  0  0  0  0
   19.3058  -11.1983  -19.8390 C   0  0  0  0  0  0  0  0  0  0  0  0
   20.0053  -10.1703  -19.5456 O   0  0  0  0  0  0  0  0  0  0  0  0
   13.5019  -10.8789  -17.3742 N   0  0  0  0  0  0  0  0  0  0  0  0
   13.9776   -9.5524  -17.2173 C   0  0  0  0  0  0  0  0  0  0  0  0
   13.2620   -8.5983  -16.8210 O   0  0  0  0  0  0  0  0  0  0  0  0
   15.4054   -9.2954  -17.5449 C   0  0  0  0  0  0  0  0  0  0  0  0
   16.0467  -10.5536  -18.1260 C   0  0  0  0  0  0  0  0  0  0  0  0
   17.4959  -10.1946  -18.4875 C   0  0  2  0  0  0  0  0  0  0  0  0
   18.0004  -11.2967  -19.2505 N   0  0  0  0  0  0  0  0  0  0  0  0
   18.2643   -9.8499  -17.2919 C   0  0  0  0  0  0  0  0  0  0  0  0
   18.8430  -10.7627  -16.6487 O   0  0  0  0  0  0  0  0  0  0  0  0
   23.5260   -6.8397  -11.1170 O   0  0  0  0  0  0  0  0  0  0  0  0
   22.7972   -7.1523  -12.2628 C   0  0  0  0  0  0  0  0  0  0  0  0
   22.5884   -8.4601  -12.6397 C   0  0  0  0  0  0  0  0  0  0  0  0
   21.8674   -8.7945  -13.7741 C   0  0  0  0  0  0  0  0  0  0  0  0
   21.3475   -7.7744  -14.5417 C   0  0  0  0  0  0  0  0  0  0  0  0
   20.5744   -8.0381  -15.7657 C   0  0  0  0  0  0  0  0  0  0  0  0
   19.0986   -8.2316  -15.5378 C   0  0  2  0  0  0  0  0  0  0  0  0
   18.4138   -8.5388  -16.7866 N   0  0  0  0  0  0  0  0  0  0  0  0
   18.4444   -7.1509  -14.8000 C   0  0  0  0  0  0  0  0  0  0  0  0
   18.5416   -6.9604  -13.4421 O   0  0  0  0  0  0  0  0  0  0  0  0
   21.5648   -6.4721  -14.1516 C   0  0  0  0  0  0  0  0  0  0  0  0
   22.2789   -6.1314  -13.0276 C   0  0  0  0  0  0  0  0  0  0  0  0
   17.7201   -6.3001  -15.4239 O   0  0  0  0  0  0  0  0  0  0  0  0
  1  2  1  0
  2  3  1  0
  3  4  1  0
  5  4  1  0
  5  6  1  1
  7  5  1  0
  8  7  2  0
 10  9  1  0
 10 12  1  0
 11 10  2  0
 13 12  1  0
 14 13  1  1
 14 15  1  0
 15  7  1  0
 16 25  1  0
 16 14  1  0
 17 16  2  0
 18 19  1  0
 19 29  2  0
 19 20  1  0
 20 21  2  0
 21 22  1  0
 22 23  1  0
 24 23  1  6
 24 25  1  0
 26 24  1  0
 26 27  1  0
 28 22  2  0
 29 28  1  0
 30 26  2  0
M  END
$$$$
