MQY.pdb
     RDKit          3D

 30 30  0  0  1  0  0  0  0  0999 V2000
   19.0097  -13.7297  -17.9970 C   0  0  0  0  0  0  0  0  0  0  0  0
   20.2068  -15.0182  -17.5862 S   0  0  0  0  0  0  0  0  0  0  0  0
   19.8643  -16.5447  -18.4775 C   0  0  0  0  0  0  0  0  0  0  0  0
   20.7446  -17.6742  -18.0781 C   0  0  0  0  0  0  0  0  0  0  0  0
   22.1411  -17.5564  -18.6267 C   0  0  2  0  0  0  0  0  0  0  0  0
   22.0240  -17.9090  -20.0532 N   0  0  0  0  0  0  0  0  0  0  0  0
   23.0835  -18.4258  -17.9474 C   0  0  0  0  0  0  0  0  0  0  0  0
   23.0976  -19.6676  -18.2473 O   0  0  0  0  0  0  0  0  0  0  0  0
   27.4456  -17.7155  -14.0424 N   0  0  0  0  0  0  0  0  0  0  0  0
   27.8380  -18.9882  -14.5291 C   0  0  0  0  0  0  0  0  0  0  0  0
   28.6921  -19.7166  -13.9641 O   0  0  0  0  0  0  0  0  0  0  0  0
   27.1919  -19.4706  -15.7788 C   0  0  0  0  0  0  0  0  0  0  0  0
   26.2736  -18.3909  -16.3470 C   0  0  0  0  0  0  0  0  0  0  0  0
   24.8406  -18.9412  -16.2871 C   0  0  2  0  0  0  0  0  0  0  0  0
   24.0161  -17.9776  -16.9527 N   0  0  0  0  0  0  0  0  0  0  0  0
   24.4577  -19.2573  -14.9115 C   0  0  0  0  0  0  0  0  0  0  0  0
   24.0955  -18.3281  -14.1453 O   0  0  0  0  0  0  0  0  0  0  0  0
   26.9104  -20.3788   -6.9377 O   0  0  0  0  0  0  0  0  0  0  0  0
   26.6907  -20.3619   -8.3137 C   0  0  0  0  0  0  0  0  0  0  0  0
   26.8251  -21.5042   -9.0706 C   0  0  0  0  0  0  0  0  0  0  0  0
   26.6118  -21.5112  -10.4392 C   0  0  0  0  0  0  0  0  0  0  0  0
   26.2538  -20.3287  -11.0504 C   0  0  0  0  0  0  0  0  0  0  0  0
   26.0139  -20.2435  -12.4997 C   0  0  0  0  0  0  0  0  0  0  0  0
   24.7009  -20.8297  -12.9468 C   0  0  2  0  0  0  0  0  0  0  0  0
   24.4615  -20.5574  -14.3580 N   0  0  0  0  0  0  0  0  0  0  0  0
   23.5533  -20.4726  -12.1126 C   0  0  0  0  0  0  0  0  0  0  0  0
   22.3452  -20.0270  -12.5937 O   0  0  0  0  0  0  0  0  0  0  0  0
   26.1235  -19.1952  -10.2800 C   0  0  0  0  0  0  0  0  0  0  0  0
   26.3332  -19.1794   -8.9215 C   0  0  0  0  0  0  0  0  0  0  0  0
   23.6369  -20.5662  -10.8390 O   0  0  0  0  0  0  0  0  0  0  0  0
  1  2  1  0
  2  3  1  0
  3  4  1  0
  5  4  1  0
  5  6  1  6
  7  5  1  0
  8  7  2  0
 10  9  1  0
 10 12  1  0
 11 10  2  0
 13 12  1  0
 14 13  1  1
 14 15  1  0
 15  7  1  0
 16 25  1  0
 16 14  1  0
 17 16  2  0
 18 19  1  0
 19 29  2  0
 19 20  1  0
 20 21  2  0
 21 22  1  0
 22 23  1  0
 24 23  1  1
 24 25  1  0
 26 24  1  0
 26 27  1  0
 28 22  2  0
 29 28  1  0
 30 26  2  0
M  END
$$$$
