MQY.pdb
     RDKit          3D

 30 30  0  0  1  0  0  0  0  0999 V2000
   23.8519  -21.6581  -19.8460 C   0  0  0  0  0  0  0  0  0  0  0  0
   25.1908  -21.1514  -20.9472 S   0  0  0  0  0  0  0  0  0  0  0  0
   26.2499  -19.9179  -20.1733 C   0  0  0  0  0  0  0  0  0  0  0  0
   26.7274  -20.3113  -18.8214 C   0  0  0  0  0  0  0  0  0  0  0  0
   26.9407  -19.1359  -17.9060 C   0  0  2  0  0  0  0  0  0  0  0  0
   28.2753  -19.3461  -17.3163 N   0  0  0  0  0  0  0  0  0  0  0  0
   25.9226  -19.0373  -16.8768 C   0  0  0  0  0  0  0  0  0  0  0  0
   26.2558  -19.2526  -15.6624 O   0  0  0  0  0  0  0  0  0  0  0  0
   20.4267  -16.0858  -17.0270 N   0  0  0  0  0  0  0  0  0  0  0  0
   20.4049  -16.6397  -15.7219 C   0  0  0  0  0  0  0  0  0  0  0  0
   19.4985  -16.4087  -14.8826 O   0  0  0  0  0  0  0  0  0  0  0  0
   21.5253  -17.5416  -15.3437 C   0  0  0  0  0  0  0  0  0  0  0  0
   22.5477  -17.6140  -16.4758 C   0  0  0  0  0  0  0  0  0  0  0  0
   23.6414  -18.5975  -16.0328 C   0  0  2  0  0  0  0  0  0  0  0  0
   24.5503  -18.7046  -17.1344 N   0  0  0  0  0  0  0  0  0  0  0  0
   23.0581  -19.8565  -15.5706 C   0  0  0  0  0  0  0  0  0  0  0  0
   23.0575  -20.8523  -16.3388 O   0  0  0  0  0  0  0  0  0  0  0  0
   26.5445  -20.4155   -9.1649 O   0  0  0  0  0  0  0  0  0  0  0  0
   25.7477  -20.8463  -10.2238 C   0  0  0  0  0  0  0  0  0  0  0  0
   24.3804  -20.9432  -10.0931 C   0  0  0  0  0  0  0  0  0  0  0  0
   23.5687  -21.3688  -11.1317 C   0  0  0  0  0  0  0  0  0  0  0  0
   24.1626  -21.7031  -12.3299 C   0  0  0  0  0  0  0  0  0  0  0  0
   23.3778  -22.1705  -13.4835 C   0  0  0  0  0  0  0  0  0  0  0  0
   22.1381  -21.3614  -13.7593 C   0  0  2  0  0  0  0  0  0  0  0  0
   22.4793  -20.0506  -14.2962 N   0  0  0  0  0  0  0  0  0  0  0  0
   21.2009  -21.2731  -12.6395 C   0  0  0  0  0  0  0  0  0  0  0  0
   20.8251  -20.1025  -12.0246 O   0  0  0  0  0  0  0  0  0  0  0  0
   25.5307  -21.6009  -12.4448 C   0  0  0  0  0  0  0  0  0  0  0  0
   26.3436  -21.1796  -11.4195 C   0  0  0  0  0  0  0  0  0  0  0  0
   20.6699  -22.3373  -12.1667 O   0  0  0  0  0  0  0  0  0  0  0  0
  1  2  1  0
  2  3  1  0
  3  4  1  0
  5  4  1  0
  5  6  1  1
  7  5  1  0
  8  7  2  0
 10  9  1  0
 10 12  1  0
 11 10  2  0
 13 12  1  0
 14 13  1  6
 14 15  1  0
 15  7  1  0
 16 25  1  0
 16 14  1  0
 17 16  2  0
 18 19  1  0
 19 29  2  0
 19 20  1  0
 20 21  2  0
 21 22  1  0
 22 23  1  0
 24 23  1  1
 24 25  1  0
 26 24  1  0
 26 27  1  0
 28 22  2  0
 29 28  1  0
 30 26  2  0
M  END
$$$$
