MQY.pdb
     RDKit          3D

 30 30  0  0  1  0  0  0  0  0999 V2000
   18.8914  -26.0003  -17.2991 C   0  0  0  0  0  0  0  0  0  0  0  0
   17.4931  -26.1643  -16.1678 S   0  0  0  0  0  0  0  0  0  0  0  0
   17.9559  -25.7368  -14.4811 C   0  0  0  0  0  0  0  0  0  0  0  0
   18.7110  -24.4602  -14.3794 C   0  0  0  0  0  0  0  0  0  0  0  0
   19.3790  -24.2746  -13.0437 C   0  0  2  0  0  0  0  0  0  0  0  0
   18.2744  -24.1759  -12.0726 N   0  0  0  0  0  0  0  0  0  0  0  0
   20.2224  -23.0947  -12.9998 C   0  0  0  0  0  0  0  0  0  0  0  0
   19.6941  -21.9750  -12.6845 O   0  0  0  0  0  0  0  0  0  0  0  0
   26.1853  -22.9371  -12.1136 N   0  0  0  0  0  0  0  0  0  0  0  0
   25.9411  -22.9837  -13.5096 C   0  0  0  0  0  0  0  0  0  0  0  0
   26.7645  -23.4331  -14.3459 O   0  0  0  0  0  0  0  0  0  0  0  0
   24.6322  -22.4678  -13.9918 C   0  0  0  0  0  0  0  0  0  0  0  0
   23.7353  -22.1184  -12.8063 C   0  0  0  0  0  0  0  0  0  0  0  0
   22.3295  -21.8557  -13.3671 C   0  0  2  0  0  0  0  0  0  0  0  0
   21.6290  -23.1023  -13.2853 N   0  0  0  0  0  0  0  0  0  0  0  0
   22.4002  -21.2574  -14.6997 C   0  0  0  0  0  0  0  0  0  0  0  0
   22.1811  -21.9757  -15.7085 O   0  0  0  0  0  0  0  0  0  0  0  0
   18.2573  -16.3935  -20.3278 O   0  0  0  0  0  0  0  0  0  0  0  0
   18.8422  -17.0769  -19.2634 C   0  0  0  0  0  0  0  0  0  0  0  0
   18.8523  -16.5439  -17.9939 C   0  0  0  0  0  0  0  0  0  0  0  0
   19.4276  -17.2049  -16.9212 C   0  0  0  0  0  0  0  0  0  0  0  0
   20.0054  -18.4359  -17.1464 C   0  0  0  0  0  0  0  0  0  0  0  0
   20.6443  -19.2047  -16.0665 C   0  0  0  0  0  0  0  0  0  0  0  0
   22.1491  -19.1486  -16.0715 C   0  0  2  0  0  0  0  0  0  0  0  0
   22.7029  -19.9006  -14.9531 N   0  0  0  0  0  0  0  0  0  0  0  0
   22.7129  -17.8019  -16.1652 C   0  0  0  0  0  0  0  0  0  0  0  0
   22.7342  -17.0409  -17.3099 O   0  0  0  0  0  0  0  0  0  0  0  0
   19.9872  -18.9554  -18.4212 C   0  0  0  0  0  0  0  0  0  0  0  0
   19.4186  -18.3064  -19.4912 C   0  0  0  0  0  0  0  0  0  0  0  0
   23.2342  -17.2554  -15.1321 O   0  0  0  0  0  0  0  0  0  0  0  0
  1  2  1  0
  2  3  1  0
  3  4  1  0
  5  4  1  0
  5  6  1  1
  7  5  1  0
  8  7  2  0
 10  9  1  0
 10 12  1  0
 11 10  2  0
 13 12  1  0
 14 13  1  6
 14 15  1  0
 15  7  1  0
 16 25  1  0
 16 14  1  0
 17 16  2  0
 18 19  1  0
 19 29  2  0
 19 20  1  0
 20 21  2  0
 21 22  1  0
 22 23  1  0
 24 23  1  1
 24 25  1  0
 26 24  1  0
 26 27  1  0
 28 22  2  0
 29 28  1  0
 30 26  2  0
M  END
$$$$
