MQY.pdb
     RDKit          3D

 30 30  0  0  1  0  0  0  0  0999 V2000
   23.0583  -25.9116  -13.0203 C   0  0  0  0  0  0  0  0  0  0  0  0
   23.5786  -25.1656  -14.5807 S   0  0  0  0  0  0  0  0  0  0  0  0
   24.8474  -23.9143  -14.3226 C   0  0  0  0  0  0  0  0  0  0  0  0
   24.5716  -23.0205  -13.1671 C   0  0  0  0  0  0  0  0  0  0  0  0
   25.6382  -21.9795  -12.9587 C   0  0  2  0  0  0  0  0  0  0  0  0
   25.7883  -21.8712  -11.4963 N   0  0  0  0  0  0  0  0  0  0  0  0
   25.2915  -20.6988  -13.5463 C   0  0  0  0  0  0  0  0  0  0  0  0
   24.5617  -19.8937  -12.8744 O   0  0  0  0  0  0  0  0  0  0  0  0
   27.9580  -17.5393  -18.2312 N   0  0  0  0  0  0  0  0  0  0  0  0
   26.8990  -16.6701  -17.8658 C   0  0  0  0  0  0  0  0  0  0  0  0
   26.7366  -15.5252  -18.3582 O   0  0  0  0  0  0  0  0  0  0  0  0
   25.9372  -17.1579  -16.8417 C   0  0  0  0  0  0  0  0  0  0  0  0
   26.3322  -18.5565  -16.3728 C   0  0  0  0  0  0  0  0  0  0  0  0
   25.2846  -18.9976  -15.3395 C   0  0  2  0  0  0  0  0  0  0  0  0
   25.7232  -20.2685  -14.8457 N   0  0  0  0  0  0  0  0  0  0  0  0
   23.9397  -18.9731  -15.9134 C   0  0  0  0  0  0  0  0  0  0  0  0
   23.5712  -19.9183  -16.6568 O   0  0  0  0  0  0  0  0  0  0  0  0
   19.9456  -22.4164  -11.8892 O   0  0  0  0  0  0  0  0  0  0  0  0
   20.1265  -21.2725  -12.6642 C   0  0  0  0  0  0  0  0  0  0  0  0
   20.8222  -20.1870  -12.1807 C   0  0  0  0  0  0  0  0  0  0  0  0
   21.0144  -19.0399  -12.9328 C   0  0  0  0  0  0  0  0  0  0  0  0
   20.4864  -18.9972  -14.2054 C   0  0  0  0  0  0  0  0  0  0  0  0
   20.6372  -17.8169  -15.0711 C   0  0  0  0  0  0  0  0  0  0  0  0
   21.6261  -17.9928  -16.1931 C   0  0  2  0  0  0  0  0  0  0  0  0
   22.9944  -17.9458  -15.6946 N   0  0  0  0  0  0  0  0  0  0  0  0
   21.4232  -17.1018  -17.3355 C   0  0  0  0  0  0  0  0  0  0  0  0
   20.3315  -17.1366  -18.1703 O   0  0  0  0  0  0  0  0  0  0  0  0
   19.7934  -20.0904  -14.6744 C   0  0  0  0  0  0  0  0  0  0  0  0
   19.5980  -21.2326  -13.9349 C   0  0  0  0  0  0  0  0  0  0  0  0
   22.2999  -16.2121  -17.6142 O   0  0  0  0  0  0  0  0  0  0  0  0
  1  2  1  0
  2  3  1  0
  3  4  1  0
  5  4  1  0
  5  6  1  1
  7  5  1  0
  8  7  2  0
 10  9  1  0
 10 12  1  0
 11 10  2  0
 13 12  1  0
 14 13  1  6
 14 15  1  0
 15  7  1  0
 16 25  1  0
 16 14  1  0
 17 16  2  0
 18 19  1  0
 19 29  2  0
 19 20  1  0
 20 21  2  0
 21 22  1  0
 22 23  1  0
 24 23  1  1
 24 25  1  0
 26 24  1  0
 26 27  1  0
 28 22  2  0
 29 28  1  0
 30 26  2  0
M  END
$$$$
