MTH.pdb
     RDKit          3D

 26 26  0  0  1  0  0  0  0  0999 V2000
   27.8960  -18.0602  -15.8272 C   0  0  0  0  0  0  0  0  0  0  0  0
   27.5133  -16.4644  -15.0214 S   0  0  0  0  0  0  0  0  0  0  0  0
   25.9503  -15.8018  -15.6603 C   0  0  0  0  0  0  0  0  0  0  0  0
   25.7296  -14.4476  -15.0494 C   0  0  0  0  0  0  0  0  0  0  0  0
   24.4660  -13.7753  -15.4931 C   0  0  2  0  0  0  0  0  0  0  0  0
   24.4683  -13.8054  -16.9642 N   0  0  0  0  0  0  0  0  0  0  0  0
   24.3283  -12.3765  -15.0189 C   0  0  0  0  0  0  0  0  0  0  0  0
   24.4095  -12.0770  -13.8246 O   0  0  0  0  0  0  0  0  0  0  0  0
   26.3443   -9.3523  -15.7743 C   0  0  0  0  0  0  0  0  0  0  0  0
   24.9453   -9.0482  -16.2675 C   0  0  1  0  0  0  0  0  0  0  0  0
   24.8714   -9.0892  -17.6584 O   0  0  0  0  0  0  0  0  0  0  0  0
   23.9154   -9.9413  -15.6203 C   0  0  2  0  0  0  0  0  0  0  0  0
   24.0944  -11.3302  -15.9560 N   0  0  0  0  0  0  0  0  0  0  0  0
   22.5572   -9.4511  -15.9427 C   0  0  0  0  0  0  0  0  0  0  0  0
   21.8548   -9.9064  -16.8685 O   0  0  0  0  0  0  0  0  0  0  0  0
   22.0190   -8.4001  -15.1526 N   0  0  0  0  0  0  0  0  0  0  0  0
   20.6936   -7.9034  -15.4634 C   0  0  1  0  0  0  0  0  0  0  0  0
   19.6479   -8.2795  -14.4699 C   0  0  0  0  0  0  0  0  0  0  0  0
   19.2357   -9.7001  -14.6082 C   0  0  0  0  0  0  0  0  0  0  0  0
   19.7465  -10.6417  -15.5008 C   0  0  0  0  0  0  0  0  0  0  0  0
   19.1375  -11.8070  -15.3378 N   0  0  0  0  0  0  0  0  0  0  0  0
   18.2367  -11.6391  -14.3515 C   0  0  0  0  0  0  0  0  0  0  0  0
   18.2957  -10.3668  -13.9107 N   0  0  0  0  0  0  0  0  0  0  0  0
   20.7819   -6.4026  -15.4856 C   0  0  0  0  0  0  0  0  0  0  0  0
   19.6818   -5.6245  -15.8435 O   0  0  0  0  0  0  0  0  0  0  0  0
   21.8401   -5.7928  -15.1857 O   0  0  0  0  0  0  0  0  0  0  0  0
  1  2  1  0
  3  2  1  0
  4  5  1  0
  4  3  1  0
  5  6  1  6
  5  7  1  0
  7  8  2  0
 10  9  1  6
 10 12  1  0
 10 11  1  0
 13  7  1  0
 12 13  1  6
 14 12  1  0
 14 16  1  0
 15 14  2  0
 16 17  1  0
 17 24  1  0
 17 18  1  1
 19 18  1  0
 20 19  2  0
 21 22  1  0
 21 20  1  0
 22 23  2  0
 23 19  1  0
 24 26  2  0
 24 25  1  0
M  END
$$$$
