MTH.pdb
     RDKit          3D

 26 26  0  0  1  0  0  0  0  0999 V2000
   19.8567  -18.5666  -14.5018 C   0  0  0  0  0  0  0  0  0  0  0  0
   19.7997  -16.9336  -15.3219 S   0  0  0  0  0  0  0  0  0  0  0  0
   18.1897  -16.6931  -16.1220 C   0  0  0  0  0  0  0  0  0  0  0  0
   18.2232  -15.3860  -16.8611 C   0  0  0  0  0  0  0  0  0  0  0  0
   18.6511  -14.2203  -16.0223 C   0  0  2  0  0  0  0  0  0  0  0  0
   17.6471  -14.0788  -14.9559 N   0  0  0  0  0  0  0  0  0  0  0  0
   18.7691  -12.9470  -16.7741 C   0  0  0  0  0  0  0  0  0  0  0  0
   19.4680  -12.8440  -17.7858 O   0  0  0  0  0  0  0  0  0  0  0  0
   15.7882  -10.8561  -18.0983 C   0  0  0  0  0  0  0  0  0  0  0  0
   16.6218   -9.9926  -17.1752 C   0  0  1  0  0  0  0  0  0  0  0  0
   15.9948   -9.8025  -15.9453 O   0  0  0  0  0  0  0  0  0  0  0  0
   18.0234  -10.5290  -17.0181 C   0  0  2  0  0  0  0  0  0  0  0  0
   18.0607  -11.7940  -16.3309 N   0  0  0  0  0  0  0  0  0  0  0  0
   18.8784   -9.5084  -16.3727 C   0  0  0  0  0  0  0  0  0  0  0  0
   19.2774   -9.5806  -15.1924 O   0  0  0  0  0  0  0  0  0  0  0  0
   19.2695   -8.3790  -17.1408 N   0  0  0  0  0  0  0  0  0  0  0  0
   20.0654   -7.3472  -16.5068 C   0  0  1  0  0  0  0  0  0  0  0  0
   20.7518   -6.4285  -17.4590 C   0  0  0  0  0  0  0  0  0  0  0  0
   21.5887   -5.4229  -16.7550 C   0  0  0  0  0  0  0  0  0  0  0  0
   22.4035   -5.6355  -15.6436 C   0  0  0  0  0  0  0  0  0  0  0  0
   23.0001   -4.5071  -15.2886 N   0  0  0  0  0  0  0  0  0  0  0  0
   22.5861   -3.5612  -16.1526 C   0  0  0  0  0  0  0  0  0  0  0  0
   21.7338   -4.1139  -17.0383 N   0  0  0  0  0  0  0  0  0  0  0  0
   19.1269   -6.5201  -15.6726 C   0  0  0  0  0  0  0  0  0  0  0  0
   19.4409   -6.1880  -14.3555 O   0  0  0  0  0  0  0  0  0  0  0  0
   18.0312   -6.0977  -16.1230 O   0  0  0  0  0  0  0  0  0  0  0  0
  1  2  1  0
  3  2  1  0
  4  5  1  0
  4  3  1  0
  5  6  1  1
  5  7  1  0
  7  8  2  0
 10  9  1  6
 10 12  1  0
 10 11  1  0
 13  7  1  0
 12 13  1  1
 14 12  1  0
 14 16  1  0
 15 14  2  0
 16 17  1  0
 17 24  1  0
 17 18  1  6
 19 18  1  0
 20 19  2  0
 21 22  1  0
 21 20  1  0
 22 23  2  0
 23 19  1  0
 24 26  2  0
 24 25  1  0
M  END
$$$$
