MTH.pdb
     RDKit          3D

 26 26  0  0  1  0  0  0  0  0999 V2000
   21.1335  -16.8624  -20.3441 C   0  0  0  0  0  0  0  0  0  0  0  0
   20.9132  -15.2020  -19.6113 S   0  0  0  0  0  0  0  0  0  0  0  0
   22.4292  -14.2262  -19.8099 C   0  0  0  0  0  0  0  0  0  0  0  0
   22.2829  -12.9633  -19.0102 C   0  0  0  0  0  0  0  0  0  0  0  0
   23.4071  -11.9896  -19.1940 C   0  0  2  0  0  0  0  0  0  0  0  0
   24.5414  -12.7547  -19.7353 N   0  0  0  0  0  0  0  0  0  0  0  0
   23.8162  -11.2980  -17.9471 C   0  0  0  0  0  0  0  0  0  0  0  0
   24.6486  -11.7779  -17.1729 O   0  0  0  0  0  0  0  0  0  0  0  0
   26.0623  -10.0092  -16.7584 C   0  0  0  0  0  0  0  0  0  0  0  0
   25.1664   -8.7887  -16.7405 C   0  0  1  0  0  0  0  0  0  0  0  0
   25.3739   -7.9834  -17.8588 O   0  0  0  0  0  0  0  0  0  0  0  0
   23.7136   -9.1611  -16.5741 C   0  0  2  0  0  0  0  0  0  0  0  0
   23.2419  -10.0384  -17.6141 N   0  0  0  0  0  0  0  0  0  0  0  0
   22.8952   -7.9344  -16.4533 C   0  0  0  0  0  0  0  0  0  0  0  0
   22.4145   -7.3201  -17.4276 O   0  0  0  0  0  0  0  0  0  0  0  0
   22.6401   -7.4245  -15.1520 N   0  0  0  0  0  0  0  0  0  0  0  0
   21.7816   -6.2653  -15.0140 C   0  0  1  0  0  0  0  0  0  0  0  0
   20.5507   -6.5047  -14.2081 C   0  0  0  0  0  0  0  0  0  0  0  0
   19.5380   -7.2891  -14.9606 C   0  0  0  0  0  0  0  0  0  0  0  0
   19.6594   -7.8015  -16.2518 C   0  0  0  0  0  0  0  0  0  0  0  0
   18.5549   -8.4473  -16.5955 N   0  0  0  0  0  0  0  0  0  0  0  0
   17.7145   -8.3636  -15.5471 C   0  0  0  0  0  0  0  0  0  0  0  0
   18.3078   -7.6642  -14.5596 N   0  0  0  0  0  0  0  0  0  0  0  0
   22.5854   -5.2052  -14.3135 C   0  0  0  0  0  0  0  0  0  0  0  0
   22.0739   -3.9214  -14.1294 O   0  0  0  0  0  0  0  0  0  0  0  0
   23.7404   -5.4295  -13.8690 O   0  0  0  0  0  0  0  0  0  0  0  0
  1  2  1  0
  3  2  1  0
  4  5  1  0
  4  3  1  0
  5  6  1  1
  5  7  1  0
  7  8  2  0
 10  9  1  6
 10 12  1  0
 10 11  1  0
 13  7  1  0
 12 13  1  6
 14 12  1  0
 14 16  1  0
 15 14  2  0
 16 17  1  0
 17 24  1  0
 17 18  1  1
 19 18  1  0
 20 19  2  0
 21 22  1  0
 21 20  1  0
 22 23  2  0
 23 19  1  0
 24 26  2  0
 24 25  1  0
M  END
$$$$
