MTH.pdb
     RDKit          3D

 26 26  0  0  1  0  0  0  0  0999 V2000
   17.7068  -11.5072  -20.9841 C   0  0  0  0  0  0  0  0  0  0  0  0
   18.5736  -13.1169  -20.9765 S   0  0  0  0  0  0  0  0  0  0  0  0
   20.2198  -12.9356  -20.2366 C   0  0  0  0  0  0  0  0  0  0  0  0
   20.0766  -12.1654  -18.9553 C   0  0  0  0  0  0  0  0  0  0  0  0
   21.3781  -11.8503  -18.2826 C   0  0  2  0  0  0  0  0  0  0  0  0
   22.0750  -13.1325  -18.0944 N   0  0  0  0  0  0  0  0  0  0  0  0
   21.2312  -11.1613  -16.9771 C   0  0  0  0  0  0  0  0  0  0  0  0
   20.7481  -11.7216  -15.9896 O   0  0  0  0  0  0  0  0  0  0  0  0
   22.4729  -11.0390  -14.2603 C   0  0  0  0  0  0  0  0  0  0  0  0
   22.7294   -9.5959  -14.6400 C   0  0  1  0  0  0  0  0  0  0  0  0
   24.0234   -9.4151  -15.1248 O   0  0  0  0  0  0  0  0  0  0  0  0
   21.6884   -9.0742  -15.5997 C   0  0  2  0  0  0  0  0  0  0  0  0
   21.6555   -9.8093  -16.8376 N   0  0  0  0  0  0  0  0  0  0  0  0
   21.8849   -7.6227  -15.8079 C   0  0  0  0  0  0  0  0  0  0  0  0
   22.5298   -7.1375  -16.7599 O   0  0  0  0  0  0  0  0  0  0  0  0
   21.3056   -6.7267  -14.8697 N   0  0  0  0  0  0  0  0  0  0  0  0
   21.4706   -5.3015  -15.0740 C   0  0  1  0  0  0  0  0  0  0  0  0
   20.2094   -4.5148  -14.9627 C   0  0  0  0  0  0  0  0  0  0  0  0
   19.2954   -4.7659  -16.1067 C   0  0  0  0  0  0  0  0  0  0  0  0
   19.6523   -5.1195  -17.4074 C   0  0  0  0  0  0  0  0  0  0  0  0
   18.5701   -5.2607  -18.1585 N   0  0  0  0  0  0  0  0  0  0  0  0
   17.5121   -5.0042  -17.3664 C   0  0  0  0  0  0  0  0  0  0  0  0
   17.9498   -4.7054  -16.1271 N   0  0  0  0  0  0  0  0  0  0  0  0
   22.4089   -4.8113  -14.0064 C   0  0  0  0  0  0  0  0  0  0  0  0
   22.9231   -3.5160  -14.0428 O   0  0  0  0  0  0  0  0  0  0  0  0
   22.7654   -5.5411  -13.0461 O   0  0  0  0  0  0  0  0  0  0  0  0
  1  2  1  0
  3  2  1  0
  4  5  1  0
  4  3  1  0
  5  6  1  1
  5  7  1  0
  7  8  2  0
 10  9  1  6
 10 12  1  0
 10 11  1  0
 13  7  1  0
 12 13  1  6
 14 12  1  0
 14 16  1  0
 15 14  2  0
 16 17  1  0
 17 24  1  0
 17 18  1  1
 19 18  1  0
 20 19  2  0
 21 22  1  0
 21 20  1  0
 22 23  2  0
 23 19  1  0
 24 26  2  0
 24 25  1  0
M  END
$$$$
