MTH.pdb
     RDKit          3D

 26 26  0  0  1  0  0  0  0  0999 V2000
   30.9742  -21.6942   -9.2478 C   0  0  0  0  0  0  0  0  0  0  0  0
   29.8115  -21.0242  -10.4895 S   0  0  0  0  0  0  0  0  0  0  0  0
   28.8464  -22.3695  -11.2305 C   0  0  0  0  0  0  0  0  0  0  0  0
   27.9854  -21.7877  -12.3148 C   0  0  0  0  0  0  0  0  0  0  0  0
   26.8329  -20.9739  -11.8097 C   0  0  2  0  0  0  0  0  0  0  0  0
   26.0525  -21.8540  -10.9256 N   0  0  0  0  0  0  0  0  0  0  0  0
   25.9597  -20.4347  -12.8808 C   0  0  0  0  0  0  0  0  0  0  0  0
   26.3468  -19.5688  -13.6700 O   0  0  0  0  0  0  0  0  0  0  0  0
   24.3105  -22.5131  -15.5178 C   0  0  0  0  0  0  0  0  0  0  0  0
   23.1965  -21.7483  -14.8345 C   0  0  1  0  0  0  0  0  0  0  0  0
   22.4224  -22.5805  -14.0281 O   0  0  0  0  0  0  0  0  0  0  0  0
   23.7192  -20.5532  -14.0759 C   0  0  2  0  0  0  0  0  0  0  0  0
   24.6278  -20.9187  -13.0202 N   0  0  0  0  0  0  0  0  0  0  0  0
   22.5853  -19.7364  -13.5898 C   0  0  0  0  0  0  0  0  0  0  0  0
   22.2930  -19.5995  -12.3842 O   0  0  0  0  0  0  0  0  0  0  0  0
   21.7809  -19.0673  -14.5510 N   0  0  0  0  0  0  0  0  0  0  0  0
   20.7072  -18.2120  -14.0867 C   0  0  1  0  0  0  0  0  0  0  0  0
   20.6044  -16.9100  -14.8050 C   0  0  0  0  0  0  0  0  0  0  0  0
   19.4989  -16.0699  -14.2765 C   0  0  0  0  0  0  0  0  0  0  0  0
   18.9732  -16.0855  -12.9850 C   0  0  0  0  0  0  0  0  0  0  0  0
   17.9948  -15.1988  -12.8765 N   0  0  0  0  0  0  0  0  0  0  0  0
   17.8745  -14.6049  -14.0788 C   0  0  0  0  0  0  0  0  0  0  0  0
   18.7828  -15.1308  -14.9245 N   0  0  0  0  0  0  0  0  0  0  0  0
   19.4223  -18.9595  -14.3128 C   0  0  0  0  0  0  0  0  0  0  0  0
   19.1437  -19.5512  -15.5439 O   0  0  0  0  0  0  0  0  0  0  0  0
   18.5544  -19.0810  -13.4107 O   0  0  0  0  0  0  0  0  0  0  0  0
  1  2  1  0
  3  2  1  0
  4  5  1  0
  4  3  1  0
  5  6  1  1
  5  7  1  0
  7  8  2  0
 10  9  1  1
 10 12  1  0
 10 11  1  0
 13  7  1  0
 12 13  1  1
 14 12  1  0
 14 16  1  0
 15 14  2  0
 16 17  1  0
 17 24  1  0
 17 18  1  6
 19 18  1  0
 20 19  2  0
 21 22  1  0
 21 20  1  0
 22 23  2  0
 23 19  1  0
 24 26  2  0
 24 25  1  0
M  END
$$$$
