MTH.pdb
     RDKit          3D

 26 26  0  0  1  0  0  0  0  0999 V2000
   20.3781  -18.4251  -13.1402 C   0  0  0  0  0  0  0  0  0  0  0  0
   19.9688  -19.4487  -14.5988 S   0  0  0  0  0  0  0  0  0  0  0  0
   20.8125  -18.8045  -16.0696 C   0  0  0  0  0  0  0  0  0  0  0  0
   21.0807  -17.3425  -15.8546 C   0  0  0  0  0  0  0  0  0  0  0  0
   21.7000  -16.6547  -17.0332 C   0  0  2  0  0  0  0  0  0  0  0  0
   23.0616  -17.1962  -17.1679 N   0  0  0  0  0  0  0  0  0  0  0  0
   21.7562  -15.1776  -16.9089 C   0  0  0  0  0  0  0  0  0  0  0  0
   22.6744  -14.6028  -16.3180 O   0  0  0  0  0  0  0  0  0  0  0  0
   21.6568  -12.7233  -19.7718 C   0  0  0  0  0  0  0  0  0  0  0  0
   20.5157  -12.3494  -18.8493 C   0  0  1  0  0  0  0  0  0  0  0  0
   19.2797  -12.6770  -19.4032 O   0  0  0  0  0  0  0  0  0  0  0  0
   20.6916  -12.9388  -17.4714 C   0  0  2  0  0  0  0  0  0  0  0  0
   20.7270  -14.3784  -17.4829 N   0  0  0  0  0  0  0  0  0  0  0  0
   19.6516  -12.4051  -16.5644 C   0  0  0  0  0  0  0  0  0  0  0  0
   18.8488  -13.1194  -15.9297 O   0  0  0  0  0  0  0  0  0  0  0  0
   19.5604  -10.9962  -16.4050 N   0  0  0  0  0  0  0  0  0  0  0  0
   18.6249  -10.4641  -15.4346 C   0  0  1  0  0  0  0  0  0  0  0  0
   18.9296  -10.8309  -14.0223 C   0  0  0  0  0  0  0  0  0  0  0  0
   17.9578  -10.2324  -13.0711 C   0  0  0  0  0  0  0  0  0  0  0  0
   16.8105   -9.5052  -13.3860 C   0  0  0  0  0  0  0  0  0  0  0  0
   16.1873   -9.1282  -12.2793 N   0  0  0  0  0  0  0  0  0  0  0  0
   16.9116   -9.5992  -11.2468 C   0  0  0  0  0  0  0  0  0  0  0  0
   17.9810  -10.2661  -11.7246 N   0  0  0  0  0  0  0  0  0  0  0  0
   18.6891   -8.9656  -15.5397 C   0  0  0  0  0  0  0  0  0  0  0  0
   17.6037   -8.1733  -15.1685 O   0  0  0  0  0  0  0  0  0  0  0  0
   19.7132   -8.3704  -15.9623 O   0  0  0  0  0  0  0  0  0  0  0  0
  1  2  1  0
  3  2  1  0
  4  5  1  0
  4  3  1  0
  5  6  1  1
  5  7  1  0
  7  8  2  0
 10  9  1  6
 10 12  1  0
 10 11  1  0
 13  7  1  0
 12 13  1  6
 14 12  1  0
 14 16  1  0
 15 14  2  0
 16 17  1  0
 17 24  1  0
 17 18  1  1
 19 18  1  0
 20 19  2  0
 21 22  1  0
 21 20  1  0
 22 23  2  0
 23 19  1  0
 24 26  2  0
 24 25  1  0
M  END
$$$$
