MTH.pdb
     RDKit          3D

 26 26  0  0  1  0  0  0  0  0999 V2000
   22.9638  -10.1491  -23.0112 C   0  0  0  0  0  0  0  0  0  0  0  0
   24.1558  -11.4243  -22.4676 S   0  0  0  0  0  0  0  0  0  0  0  0
   23.6432  -12.1177  -20.8717 C   0  0  0  0  0  0  0  0  0  0  0  0
   23.1374  -10.9944  -20.0125 C   0  0  0  0  0  0  0  0  0  0  0  0
   22.8141  -11.3985  -18.6061 C   0  0  2  0  0  0  0  0  0  0  0  0
   22.2679  -12.7630  -18.6759 N   0  0  0  0  0  0  0  0  0  0  0  0
   21.8449  -10.5028  -17.9287 C   0  0  0  0  0  0  0  0  0  0  0  0
   20.6701  -10.4097  -18.2947 O   0  0  0  0  0  0  0  0  0  0  0  0
   20.0793  -10.5906  -14.9624 C   0  0  0  0  0  0  0  0  0  0  0  0
   20.9545   -9.3701  -14.7696 C   0  0  1  0  0  0  0  0  0  0  0  0
   22.0160   -9.6312  -13.9053 O   0  0  0  0  0  0  0  0  0  0  0  0
   21.4245   -8.8025  -16.0864 C   0  0  2  0  0  0  0  0  0  0  0  0
   22.2632   -9.7163  -16.8180 N   0  0  0  0  0  0  0  0  0  0  0  0
   22.0752   -7.4930  -15.8610 C   0  0  0  0  0  0  0  0  0  0  0  0
   23.2910   -7.2795  -16.0451 O   0  0  0  0  0  0  0  0  0  0  0  0
   21.2698   -6.4135  -15.4086 N   0  0  0  0  0  0  0  0  0  0  0  0
   21.8829   -5.1119  -15.2353 C   0  0  1  0  0  0  0  0  0  0  0  0
   20.9853   -3.9635  -15.5472 C   0  0  0  0  0  0  0  0  0  0  0  0
   20.7021   -3.8591  -17.0019 C   0  0  0  0  0  0  0  0  0  0  0  0
   21.4331   -4.4271  -18.0446 C   0  0  0  0  0  0  0  0  0  0  0  0
   20.8837   -4.1213  -19.2107 N   0  0  0  0  0  0  0  0  0  0  0  0
   19.8045   -3.3619  -18.9437 C   0  0  0  0  0  0  0  0  0  0  0  0
   19.6946   -3.2034  -17.6098 N   0  0  0  0  0  0  0  0  0  0  0  0
   22.2769   -5.0020  -13.7884 C   0  0  0  0  0  0  0  0  0  0  0  0
   23.0077   -3.9090  -13.3250 O   0  0  0  0  0  0  0  0  0  0  0  0
   21.9672   -5.8818  -12.9447 O   0  0  0  0  0  0  0  0  0  0  0  0
  1  2  1  0
  3  2  1  0
  4  5  1  0
  4  3  1  0
  5  6  1  6
  5  7  1  0
  7  8  2  0
 10  9  1  6
 10 12  1  0
 10 11  1  0
 13  7  1  0
 12 13  1  1
 14 12  1  0
 14 16  1  0
 15 14  2  0
 16 17  1  0
 17 24  1  0
 17 18  1  1
 19 18  1  0
 20 19  2  0
 21 22  1  0
 21 20  1  0
 22 23  2  0
 23 19  1  0
 24 26  2  0
 24 25  1  0
M  END
$$$$
