MTH.pdb
     RDKit          3D

 26 26  0  0  1  0  0  0  0  0999 V2000
   20.8311  -15.8003  -24.1139 C   0  0  0  0  0  0  0  0  0  0  0  0
   22.2818  -14.7734  -23.6857 S   0  0  0  0  0  0  0  0  0  0  0  0
   22.1571  -14.2024  -21.9686 C   0  0  0  0  0  0  0  0  0  0  0  0
   23.3151  -13.2866  -21.6929 C   0  0  0  0  0  0  0  0  0  0  0  0
   23.3243  -12.7121  -20.3089 C   0  0  2  0  0  0  0  0  0  0  0  0
   22.4427  -13.5636  -19.4947 N   0  0  0  0  0  0  0  0  0  0  0  0
   22.8680  -11.3025  -20.2377 C   0  0  0  0  0  0  0  0  0  0  0  0
   23.4843  -10.3843  -20.7851 O   0  0  0  0  0  0  0  0  0  0  0  0
   20.0795   -9.6648  -21.7588 C   0  0  0  0  0  0  0  0  0  0  0  0
   19.8086   -9.5799  -20.2715 C   0  0  1  0  0  0  0  0  0  0  0  0
   18.8651  -10.5224  -19.8671 O   0  0  0  0  0  0  0  0  0  0  0  0
   21.0797   -9.6701  -19.4633 C   0  0  2  0  0  0  0  0  0  0  0  0
   21.6825  -10.9767  -19.5192 N   0  0  0  0  0  0  0  0  0  0  0  0
   20.8214   -9.2244  -18.0764 C   0  0  0  0  0  0  0  0  0  0  0  0
   20.5461   -9.9983  -17.1368 O   0  0  0  0  0  0  0  0  0  0  0  0
   20.8908   -7.8333  -17.7957 N   0  0  0  0  0  0  0  0  0  0  0  0
   20.6341   -7.3820  -16.4427 C   0  0  1  0  0  0  0  0  0  0  0  0
   21.5447   -7.9658  -15.4171 C   0  0  0  0  0  0  0  0  0  0  0  0
   20.8377   -8.2435  -14.1403 C   0  0  0  0  0  0  0  0  0  0  0  0
   19.4832   -8.0530  -13.8694 C   0  0  0  0  0  0  0  0  0  0  0  0
   19.2091   -8.4101  -12.6234 N   0  0  0  0  0  0  0  0  0  0  0  0
   20.3655   -8.8309  -12.0773 C   0  0  0  0  0  0  0  0  0  0  0  0
   21.3493   -8.7305  -12.9932 N   0  0  0  0  0  0  0  0  0  0  0  0
   20.8326   -5.8917  -16.4325 C   0  0  0  0  0  0  0  0  0  0  0  0
   20.4318   -5.1220  -15.3414 O   0  0  0  0  0  0  0  0  0  0  0  0
   21.3627   -5.2834  -17.3973 O   0  0  0  0  0  0  0  0  0  0  0  0
  1  2  1  0
  3  2  1  0
  4  5  1  0
  4  3  1  0
  5  6  1  1
  5  7  1  0
  7  8  2  0
 10  9  1  6
 10 12  1  0
 10 11  1  0
 13  7  1  0
 12 13  1  1
 14 12  1  0
 14 16  1  0
 15 14  2  0
 16 17  1  0
 17 24  1  0
 17 18  1  1
 19 18  1  0
 20 19  2  0
 21 22  1  0
 21 20  1  0
 22 23  2  0
 23 19  1  0
 24 26  2  0
 24 25  1  0
M  END
$$$$
