MTH.pdb
     RDKit          3D

 26 26  0  0  1  0  0  0  0  0999 V2000
   20.4348  -30.7696  -20.1413 C   0  0  0  0  0  0  0  0  0  0  0  0
   22.1418  -30.7432  -20.7955 S   0  0  0  0  0  0  0  0  0  0  0  0
   23.3290  -31.0228  -19.4529 C   0  0  0  0  0  0  0  0  0  0  0  0
   23.8995  -29.6942  -19.0463 C   0  0  0  0  0  0  0  0  0  0  0  0
   24.9325  -29.7780  -17.9640 C   0  0  2  0  0  0  0  0  0  0  0  0
   24.2284  -30.1996  -16.7427 N   0  0  0  0  0  0  0  0  0  0  0  0
   25.6510  -28.5041  -17.7159 C   0  0  0  0  0  0  0  0  0  0  0  0
   25.3827  -27.7748  -16.7575 O   0  0  0  0  0  0  0  0  0  0  0  0
   28.0930  -27.5955  -16.0164 C   0  0  0  0  0  0  0  0  0  0  0  0
   28.6558  -27.2702  -17.3840 C   0  0  1  0  0  0  0  0  0  0  0  0
   29.5171  -28.2686  -17.8351 O   0  0  0  0  0  0  0  0  0  0  0  0
   27.5655  -26.9706  -18.3831 C   0  0  2  0  0  0  0  0  0  0  0  0
   26.6875  -28.0911  -18.6006 N   0  0  0  0  0  0  0  0  0  0  0  0
   28.1646  -26.4683  -19.6393 C   0  0  0  0  0  0  0  0  0  0  0  0
   28.3195  -27.1648  -20.6633 O   0  0  0  0  0  0  0  0  0  0  0  0
   28.5889  -25.1131  -19.6843 N   0  0  0  0  0  0  0  0  0  0  0  0
   29.2620  -24.6331  -20.8745 C   0  0  1  0  0  0  0  0  0  0  0  0
   28.8290  -23.2786  -21.3212 C   0  0  0  0  0  0  0  0  0  0  0  0
   29.5269  -22.8535  -22.5620 C   0  0  0  0  0  0  0  0  0  0  0  0
   29.3979  -23.4112  -23.8335 C   0  0  0  0  0  0  0  0  0  0  0  0
   30.1748  -22.7728  -24.6961 N   0  0  0  0  0  0  0  0  0  0  0  0
   30.8089  -21.8066  -24.0056 C   0  0  0  0  0  0  0  0  0  0  0  0
   30.4179  -21.8551  -22.7167 N   0  0  0  0  0  0  0  0  0  0  0  0
   30.7280  -24.5582  -20.5490 C   0  0  0  0  0  0  0  0  0  0  0  0
   31.6908  -24.6315  -21.5546 O   0  0  0  0  0  0  0  0  0  0  0  0
   31.1427  -24.4277  -19.3688 O   0  0  0  0  0  0  0  0  0  0  0  0
  1  2  1  0
  3  2  1  0
  4  5  1  0
  4  3  1  0
  5  6  1  1
  5  7  1  0
  7  8  2  0
 10  9  1  1
 10 12  1  0
 10 11  1  0
 13  7  1  0
 12 13  1  6
 14 12  1  0
 14 16  1  0
 15 14  2  0
 16 17  1  0
 17 24  1  0
 17 18  1  1
 19 18  1  0
 20 19  2  0
 21 22  1  0
 21 20  1  0
 22 23  2  0
 23 19  1  0
 24 26  2  0
 24 25  1  0
M  END
$$$$
