MTH.pdb
     RDKit          3D

 26 26  0  0  1  0  0  0  0  0999 V2000
   17.1028  -17.0354  -15.8057 C   0  0  0  0  0  0  0  0  0  0  0  0
   18.0967  -15.5204  -15.5621 S   0  0  0  0  0  0  0  0  0  0  0  0
   17.7931  -14.3509  -16.9150 C   0  0  0  0  0  0  0  0  0  0  0  0
   18.6441  -13.1350  -16.6844 C   0  0  0  0  0  0  0  0  0  0  0  0
   18.6084  -12.1421  -17.8063 C   0  0  2  0  0  0  0  0  0  0  0  0
   19.0881  -12.8462  -19.0060 N   0  0  0  0  0  0  0  0  0  0  0  0
   19.4345  -10.9332  -17.5686 C   0  0  0  0  0  0  0  0  0  0  0  0
   20.6564  -10.9287  -17.7402 O   0  0  0  0  0  0  0  0  0  0  0  0
   19.3559   -7.7341  -19.2464 C   0  0  0  0  0  0  0  0  0  0  0  0
   19.0892   -7.3819  -17.7981 C   0  0  1  0  0  0  0  0  0  0  0  0
   17.7633   -7.0024  -17.5982 O   0  0  0  0  0  0  0  0  0  0  0  0
   19.5063   -8.4916  -16.8645 C   0  0  2  0  0  0  0  0  0  0  0  0
   18.8170   -9.7282  -17.1278 N   0  0  0  0  0  0  0  0  0  0  0  0
   19.3549   -8.0462  -15.4617 C   0  0  0  0  0  0  0  0  0  0  0  0
   18.4627   -8.4594  -14.6931 O   0  0  0  0  0  0  0  0  0  0  0  0
   20.2794   -7.0921  -14.9582 N   0  0  0  0  0  0  0  0  0  0  0  0
   20.1943   -6.7086  -13.5633 C   0  0  1  0  0  0  0  0  0  0  0  0
   21.4092   -7.0311  -12.7621 C   0  0  0  0  0  0  0  0  0  0  0  0
   21.2799   -6.5819  -11.3519 C   0  0  0  0  0  0  0  0  0  0  0  0
   20.1589   -6.0122  -10.7494 C   0  0  0  0  0  0  0  0  0  0  0  0
   20.4104   -5.7374   -9.4780 N   0  0  0  0  0  0  0  0  0  0  0  0
   21.6796   -6.1197   -9.2423 C   0  0  0  0  0  0  0  0  0  0  0  0
   22.2051   -6.6297  -10.3739 N   0  0  0  0  0  0  0  0  0  0  0  0
   20.0092   -5.2169  -13.5292 C   0  0  0  0  0  0  0  0  0  0  0  0
   19.5988   -4.5713  -12.3637 O   0  0  0  0  0  0  0  0  0  0  0  0
   20.2145   -4.4966  -14.5395 O   0  0  0  0  0  0  0  0  0  0  0  0
  1  2  1  0
  3  2  1  0
  4  5  1  0
  4  3  1  0
  5  6  1  6
  5  7  1  0
  7  8  2  0
 10  9  1  6
 10 12  1  0
 10 11  1  0
 13  7  1  0
 12 13  1  1
 14 12  1  0
 14 16  1  0
 15 14  2  0
 16 17  1  0
 17 24  1  0
 17 18  1  1
 19 18  1  0
 20 19  2  0
 21 22  1  0
 21 20  1  0
 22 23  2  0
 23 19  1  0
 24 26  2  0
 24 25  1  0
M  END
$$$$
