MTH.pdb
     RDKit          3D

 26 26  0  0  1  0  0  0  0  0999 V2000
   27.4153  -11.4881  -18.9173 C   0  0  0  0  0  0  0  0  0  0  0  0
   29.1729  -10.9883  -18.9760 S   0  0  0  0  0  0  0  0  0  0  0  0
   30.2370  -12.4559  -19.0402 C   0  0  0  0  0  0  0  0  0  0  0  0
   29.5209  -13.5214  -19.8198 C   0  0  0  0  0  0  0  0  0  0  0  0
   30.2112  -14.8515  -19.8137 C   0  0  2  0  0  0  0  0  0  0  0  0
   31.5087  -14.6546  -20.4793 N   0  0  0  0  0  0  0  0  0  0  0  0
   29.4533  -15.9277  -20.4976 C   0  0  0  0  0  0  0  0  0  0  0  0
   29.4965  -16.0860  -21.7206 O   0  0  0  0  0  0  0  0  0  0  0  0
   30.0171  -19.3006  -20.6560 C   0  0  0  0  0  0  0  0  0  0  0  0
   28.6540  -19.2592  -19.9979 C   0  0  1  0  0  0  0  0  0  0  0  0
   28.7335  -19.5392  -18.6351 O   0  0  0  0  0  0  0  0  0  0  0  0
   27.9401  -17.9573  -20.2667 C   0  0  2  0  0  0  0  0  0  0  0  0
   28.6434  -16.8179  -19.7366 N   0  0  0  0  0  0  0  0  0  0  0  0
   26.5471  -18.0418  -19.7753 C   0  0  0  0  0  0  0  0  0  0  0  0
   26.1136  -17.3972  -18.7985 O   0  0  0  0  0  0  0  0  0  0  0  0
   25.6483  -18.9073  -20.4548 N   0  0  0  0  0  0  0  0  0  0  0  0
   24.2696  -18.9665  -20.0123 C   0  0  1  0  0  0  0  0  0  0  0  0
   23.3491  -18.0517  -20.7455 C   0  0  0  0  0  0  0  0  0  0  0  0
   22.7548  -17.0265  -19.8494 C   0  0  0  0  0  0  0  0  0  0  0  0
   22.9680  -16.8808  -18.4791 C   0  0  0  0  0  0  0  0  0  0  0  0
   22.2707  -15.8557  -18.0121 N   0  0  0  0  0  0  0  0  0  0  0  0
   21.6057  -15.3303  -19.0582 C   0  0  0  0  0  0  0  0  0  0  0  0
   21.8978  -16.0372  -20.1680 N   0  0  0  0  0  0  0  0  0  0  0  0
   23.7943  -20.3738  -20.2456 C   0  0  0  0  0  0  0  0  0  0  0  0
   22.7462  -20.9100  -19.4989 O   0  0  0  0  0  0  0  0  0  0  0  0
   24.3165  -21.1180  -21.1145 O   0  0  0  0  0  0  0  0  0  0  0  0
  1  2  1  0
  3  2  1  0
  4  5  1  0
  4  3  1  0
  5  6  1  6
  5  7  1  0
  7  8  2  0
 10  9  1  1
 10 12  1  0
 10 11  1  0
 13  7  1  0
 12 13  1  1
 14 12  1  0
 14 16  1  0
 15 14  2  0
 16 17  1  0
 17 24  1  0
 17 18  1  6
 19 18  1  0
 20 19  2  0
 21 22  1  0
 21 20  1  0
 22 23  2  0
 23 19  1  0
 24 26  2  0
 24 25  1  0
M  END
$$$$
