MTH.pdb
     RDKit          3D

 26 26  0  0  1  0  0  0  0  0999 V2000
   19.1288  -18.0145  -15.9042 C   0  0  0  0  0  0  0  0  0  0  0  0
   17.5527  -17.3757  -16.5753 S   0  0  0  0  0  0  0  0  0  0  0  0
   17.8287  -15.7922  -17.4158 C   0  0  0  0  0  0  0  0  0  0  0  0
   18.5763  -14.8873  -16.4788 C   0  0  0  0  0  0  0  0  0  0  0  0
   18.9933  -13.5841  -17.0901 C   0  0  2  0  0  0  0  0  0  0  0  0
   20.0545  -13.8957  -18.0606 N   0  0  0  0  0  0  0  0  0  0  0  0
   19.4865  -12.5876  -16.1082 C   0  0  0  0  0  0  0  0  0  0  0  0
   18.9245  -12.3981  -15.0262 O   0  0  0  0  0  0  0  0  0  0  0  0
   23.0882  -12.2745  -14.7069 C   0  0  0  0  0  0  0  0  0  0  0  0
   22.7182  -10.9756  -15.3916 C   0  0  1  0  0  0  0  0  0  0  0  0
   23.3773  -10.8326  -16.6111 O   0  0  0  0  0  0  0  0  0  0  0  0
   21.2240  -10.8225  -15.5354 C   0  0  2  0  0  0  0  0  0  0  0  0
   20.6446  -11.8139  -16.4044 N   0  0  0  0  0  0  0  0  0  0  0  0
   20.9026   -9.4415  -15.9580 C   0  0  0  0  0  0  0  0  0  0  0  0
   20.7327   -9.0994  -17.1461 O   0  0  0  0  0  0  0  0  0  0  0  0
   20.7794   -8.4448  -14.9530 N   0  0  0  0  0  0  0  0  0  0  0  0
   20.4173   -7.0984  -15.3480 C   0  0  1  0  0  0  0  0  0  0  0  0
   19.0397   -6.6909  -14.9503 C   0  0  0  0  0  0  0  0  0  0  0  0
   18.0033   -7.3395  -15.7943 C   0  0  0  0  0  0  0  0  0  0  0  0
   18.2123   -8.1995  -16.8719 C   0  0  0  0  0  0  0  0  0  0  0  0
   17.0527   -8.5829  -17.3854 N   0  0  0  0  0  0  0  0  0  0  0  0
   16.0901   -7.9853  -16.6582 C   0  0  0  0  0  0  0  0  0  0  0  0
   16.6638   -7.2343  -15.6972 N   0  0  0  0  0  0  0  0  0  0  0  0
   21.3819   -6.1673  -14.6673 C   0  0  0  0  0  0  0  0  0  0  0  0
   21.3808   -4.8019  -14.9487 O   0  0  0  0  0  0  0  0  0  0  0  0
   22.2212   -6.5767  -13.8248 O   0  0  0  0  0  0  0  0  0  0  0  0
  1  2  1  0
  3  2  1  0
  4  5  1  0
  4  3  1  0
  5  6  1  6
  5  7  1  0
  7  8  2  0
 10  9  1  6
 10 12  1  0
 10 11  1  0
 13  7  1  0
 12 13  1  6
 14 12  1  0
 14 16  1  0
 15 14  2  0
 16 17  1  0
 17 24  1  0
 17 18  1  1
 19 18  1  0
 20 19  2  0
 21 22  1  0
 21 20  1  0
 22 23  2  0
 23 19  1  0
 24 26  2  0
 24 25  1  0
M  END
$$$$
