MTH.pdb
     RDKit          3D

 26 26  0  0  1  0  0  0  0  0999 V2000
   33.7694  -28.9057  -26.3831 C   0  0  0  0  0  0  0  0  0  0  0  0
   34.5791  -27.3674  -26.9492 S   0  0  0  0  0  0  0  0  0  0  0  0
   35.9770  -26.9631  -25.8663 C   0  0  0  0  0  0  0  0  0  0  0  0
   35.5727  -27.2538  -24.4493 C   0  0  0  0  0  0  0  0  0  0  0  0
   36.5939  -26.8542  -23.4280 C   0  0  2  0  0  0  0  0  0  0  0  0
   37.8863  -26.7909  -24.1286 N   0  0  0  0  0  0  0  0  0  0  0  0
   36.6912  -27.7840  -22.2763 C   0  0  0  0  0  0  0  0  0  0  0  0
   37.5136  -28.7033  -22.2421 O   0  0  0  0  0  0  0  0  0  0  0  0
   37.8460  -27.4263  -18.9636 C   0  0  0  0  0  0  0  0  0  0  0  0
   36.3825  -27.7681  -18.7787 C   0  0  1  0  0  0  0  0  0  0  0  0
   35.6356  -26.6482  -18.4182 O   0  0  0  0  0  0  0  0  0  0  0  0
   35.8108  -28.4627  -19.9901 C   0  0  2  0  0  0  0  0  0  0  0  0
   35.8163  -27.6282  -21.1637 N   0  0  0  0  0  0  0  0  0  0  0  0
   34.4639  -28.9874  -19.6747 C   0  0  0  0  0  0  0  0  0  0  0  0
   33.4083  -28.5307  -20.1592 O   0  0  0  0  0  0  0  0  0  0  0  0
   34.3645  -30.0758  -18.7668 N   0  0  0  0  0  0  0  0  0  0  0  0
   33.0558  -30.6309  -18.4854 C   0  0  1  0  0  0  0  0  0  0  0  0
   33.0750  -31.8349  -17.6069 C   0  0  0  0  0  0  0  0  0  0  0  0
   31.7260  -32.4413  -17.4662 C   0  0  0  0  0  0  0  0  0  0  0  0
   30.5399  -32.0011  -18.0525 C   0  0  0  0  0  0  0  0  0  0  0  0
   29.5342  -32.7893  -17.7024 N   0  0  0  0  0  0  0  0  0  0  0  0
   30.0472  -33.7374  -16.8960 C   0  0  0  0  0  0  0  0  0  0  0  0
   31.3709  -33.5276  -16.7531 N   0  0  0  0  0  0  0  0  0  0  0  0
   32.2696  -29.5628  -17.7770 C   0  0  0  0  0  0  0  0  0  0  0  0
   32.9054  -28.6194  -16.9711 O   0  0  0  0  0  0  0  0  0  0  0  0
   31.0192  -29.4765  -17.8805 O   0  0  0  0  0  0  0  0  0  0  0  0
  1  2  1  0
  3  2  1  0
  4  5  1  0
  4  3  1  0
  5  6  1  6
  5  7  1  0
  7  8  2  0
 10  9  1  6
 10 12  1  0
 10 11  1  0
 13  7  1  0
 12 13  1  6
 14 12  1  0
 14 16  1  0
 15 14  2  0
 16 17  1  0
 17 24  1  0
 17 18  1  1
 19 18  1  0
 20 19  2  0
 21 22  1  0
 21 20  1  0
 22 23  2  0
 23 19  1  0
 24 26  2  0
 24 25  1  0
M  END
$$$$
