MTH.pdb
     RDKit          3D

 26 26  0  0  1  0  0  0  0  0999 V2000
   17.1687  -15.6487  -18.1419 C   0  0  0  0  0  0  0  0  0  0  0  0
   18.1040  -16.2632  -19.5876 S   0  0  0  0  0  0  0  0  0  0  0  0
   19.8866  -16.1265  -19.2815 C   0  0  0  0  0  0  0  0  0  0  0  0
   20.1071  -15.0404  -18.2678 C   0  0  0  0  0  0  0  0  0  0  0  0
   21.5461  -14.8167  -17.9146 C   0  0  2  0  0  0  0  0  0  0  0  0
   22.1057  -16.1350  -17.5769 N   0  0  0  0  0  0  0  0  0  0  0  0
   21.7511  -13.8786  -16.7840 C   0  0  0  0  0  0  0  0  0  0  0  0
   21.3793  -14.1413  -15.6371 O   0  0  0  0  0  0  0  0  0  0  0  0
   24.8205  -12.4976  -15.3117 C   0  0  0  0  0  0  0  0  0  0  0  0
   24.0447  -11.2851  -15.7814 C   0  0  1  0  0  0  0  0  0  0  0  0
   24.6348  -10.7002  -16.9002 O   0  0  0  0  0  0  0  0  0  0  0  0
   22.5884  -11.6055  -16.0132 C   0  0  2  0  0  0  0  0  0  0  0  0
   22.3958  -12.6289  -17.0078 N   0  0  0  0  0  0  0  0  0  0  0  0
   21.8486  -10.3635  -16.3278 C   0  0  0  0  0  0  0  0  0  0  0  0
   21.3211  -10.1293  -17.4344 O   0  0  0  0  0  0  0  0  0  0  0  0
   21.7304   -9.3781  -15.3110 N   0  0  0  0  0  0  0  0  0  0  0  0
   21.0166   -8.1526  -15.6084 C   0  0  1  0  0  0  0  0  0  0  0  0
   19.6098   -8.3544  -16.0579 C   0  0  0  0  0  0  0  0  0  0  0  0
   18.9169   -7.0647  -16.3101 C   0  0  0  0  0  0  0  0  0  0  0  0
   19.2212   -6.1238  -17.2932 C   0  0  0  0  0  0  0  0  0  0  0  0
   18.3892   -5.0955  -17.2183 N   0  0  0  0  0  0  0  0  0  0  0  0
   17.5464   -5.3520  -16.2003 C   0  0  0  0  0  0  0  0  0  0  0  0
   17.8647   -6.5412  -15.6516 N   0  0  0  0  0  0  0  0  0  0  0  0
   20.9779   -7.3486  -14.3384 C   0  0  0  0  0  0  0  0  0  0  0  0
   20.4513   -6.0578  -14.3222 O   0  0  0  0  0  0  0  0  0  0  0  0
   21.4141   -7.8017  -13.2493 O   0  0  0  0  0  0  0  0  0  0  0  0
  1  2  1  0
  3  2  1  0
  4  5  1  0
  4  3  1  0
  5  6  1  1
  5  7  1  0
  7  8  2  0
 10  9  1  6
 10 12  1  0
 10 11  1  0
 13  7  1  0
 12 13  1  6
 14 12  1  0
 14 16  1  0
 15 14  2  0
 16 17  1  0
 17 24  1  0
 17 18  1  1
 19 18  1  0
 20 19  2  0
 21 22  1  0
 21 20  1  0
 22 23  2  0
 23 19  1  0
 24 26  2  0
 24 25  1  0
M  END
$$$$
