QPE.pdb
     RDKit          3D

 26 26  0  0  1  0  0  0  0  0999 V2000
   -2.8917  -29.8406   27.4290 N   0  0  0  0  0  0  0  0  0  0  0  0
   -3.2156  -28.7398   26.5835 C   0  0  0  0  0  0  0  0  0  0  0  0
   -4.0371  -27.9163   27.0511 O   0  0  0  0  0  0  0  0  0  0  0  0
   -2.6445  -28.5509   25.2575 C   0  0  0  0  0  0  0  0  0  0  0  0
   -3.3950  -29.0598   24.0871 C   0  0  0  0  0  0  0  0  0  0  0  0
   -3.7919  -28.0659   23.0462 C   0  0  2  0  0  0  0  0  0  0  0  0
   -2.6077  -27.4334   22.4964 N   0  0  0  0  0  0  0  0  0  0  0  0
   -4.7917  -27.0803   23.4535 C   0  0  0  0  0  0  0  0  0  0  0  0
   -4.3466  -25.8978   23.7092 O   0  0  0  0  0  0  0  0  0  0  0  0
   -6.1637  -27.3228   23.5796 N   0  0  0  0  0  0  0  0  0  0  0  0
   -6.7715  -28.6572   23.4301 C   0  0  0  0  0  0  0  0  0  0  0  0
   -7.9837  -28.3227   22.5885 C   0  0  0  0  0  0  0  0  0  0  0  0
   -8.4293  -26.9921   23.1617 C   0  0  0  0  0  0  0  0  0  0  0  0
   -7.2242  -26.4182   23.8906 C   0  0  1  0  0  0  0  0  0  0  0  0
   -7.4805  -26.3313   25.3581 C   0  0  0  0  0  0  0  0  0  0  0  0
   -7.2278  -27.3401   26.0693 O   0  0  0  0  0  0  0  0  0  0  0  0
   -7.9866  -25.1877   25.9871 N   0  0  0  0  0  0  0  0  0  0  0  0
   -8.1646  -25.0928   27.4726 C   0  0  1  0  0  0  0  0  0  0  0  0
   -7.5121  -23.8129   27.8593 C   0  0  0  0  0  0  0  0  0  0  0  0
   -7.6245  -23.2762   29.2134 C   0  0  0  0  0  0  0  0  0  0  0  0
   -6.9289  -22.0186   29.4926 C   0  0  0  0  0  0  0  0  0  0  0  0
   -6.2666  -21.4509   28.5765 O   0  0  0  0  0  0  0  0  0  0  0  0
   -9.6126  -25.0778   27.6595 C   0  0  0  0  0  0  0  0  0  0  0  0
  -10.1738  -25.3957   28.8885 O   0  0  0  0  0  0  0  0  0  0  0  0
   -6.9650  -21.4086   30.7366 O   0  0  0  0  0  0  0  0  0  0  0  0
  -10.4048  -24.7862   26.7487 O   0  0  0  0  0  0  0  0  0  0  0  0
  2  1  1  0
  3  2  2  0
  4  2  1  0
  5  6  1  0
  5  4  1  0
  6  8  1  0
  6  7  1  1
  8 10  1  0
  9  8  2  0
 10 11  1  0
 10 14  1  0
 11 12  1  0
 12 13  1  0
 14 13  1  0
 14 15  1  1
 15 16  2  0
 17 15  1  0
 18 17  1  0
 18 19  1  6
 20 21  1  0
 20 19  1  0
 21 25  1  0
 22 21  2  0
 23 18  1  0
 24 23  1  0
 26 23  2  0
M  END
$$$$
