QPE.pdb
     RDKit          3D

 26 26  0  0  1  0  0  0  0  0999 V2000
    5.8941  -17.5376   23.5968 N   0  0  0  0  0  0  0  0  0  0  0  0
    6.0238  -17.4091   22.1831 C   0  0  0  0  0  0  0  0  0  0  0  0
    6.0772  -18.4841   21.5405 O   0  0  0  0  0  0  0  0  0  0  0  0
    6.0889  -16.1268   21.4963 C   0  0  0  0  0  0  0  0  0  0  0  0
    5.9581  -14.8894   22.2986 C   0  0  0  0  0  0  0  0  0  0  0  0
    7.1082  -13.9378   22.2778 C   0  0  2  0  0  0  0  0  0  0  0  0
    7.8945  -14.1464   21.0765 N   0  0  0  0  0  0  0  0  0  0  0  0
    7.9452  -13.9223   23.4761 C   0  0  0  0  0  0  0  0  0  0  0  0
    9.1810  -14.2468   23.3052 O   0  0  0  0  0  0  0  0  0  0  0  0
    7.5114  -13.5857   24.7628 N   0  0  0  0  0  0  0  0  0  0  0  0
    6.1229  -13.2070   25.0806 C   0  0  0  0  0  0  0  0  0  0  0  0
    6.3551  -12.0254   25.9968 C   0  0  0  0  0  0  0  0  0  0  0  0
    7.5655  -12.4598   26.7991 C   0  0  0  0  0  0  0  0  0  0  0  0
    8.2385  -13.5591   25.9918 C   0  0  1  0  0  0  0  0  0  0  0  0
    8.1770  -14.8640   26.7130 C   0  0  0  0  0  0  0  0  0  0  0  0
    7.1093  -15.5301   26.6525 O   0  0  0  0  0  0  0  0  0  0  0  0
    9.2432  -15.3879   27.4533 N   0  0  0  0  0  0  0  0  0  0  0  0
    9.5219  -16.8583   27.5418 C   0  0  1  0  0  0  0  0  0  0  0  0
   10.4155  -17.1526   26.3893 C   0  0  0  0  0  0  0  0  0  0  0  0
   11.7135  -16.4985   26.2421 C   0  0  0  0  0  0  0  0  0  0  0  0
   12.5198  -16.8703   25.0780 C   0  0  0  0  0  0  0  0  0  0  0  0
   13.6160  -16.2782   24.8589 O   0  0  0  0  0  0  0  0  0  0  0  0
   10.1807  -17.0208   28.8346 C   0  0  0  0  0  0  0  0  0  0  0  0
   10.4538  -15.9213   29.6363 O   0  0  0  0  0  0  0  0  0  0  0  0
   12.1319  -17.8610   24.1898 O   0  0  0  0  0  0  0  0  0  0  0  0
   10.5258  -18.1282   29.2784 O   0  0  0  0  0  0  0  0  0  0  0  0
  2  1  1  0
  3  2  2  0
  4  2  1  0
  5  6  1  0
  5  4  1  0
  6  8  1  0
  6  7  1  6
  8 10  1  0
  9  8  2  0
 10 11  1  0
 10 14  1  0
 11 12  1  0
 12 13  1  0
 14 13  1  0
 14 15  1  1
 15 16  2  0
 17 15  1  0
 18 17  1  0
 18 19  1  6
 20 21  1  0
 20 19  1  0
 21 25  1  0
 22 21  2  0
 23 18  1  0
 24 23  1  0
 26 23  2  0
M  END
$$$$
