QPE.pdb
     RDKit          3D

 26 26  0  0  1  0  0  0  0  0999 V2000
    7.8567  -16.3487   26.9807 N   0  0  0  0  0  0  0  0  0  0  0  0
    6.7434  -16.2232   26.0995 C   0  0  0  0  0  0  0  0  0  0  0  0
    5.8630  -15.4012   26.4470 O   0  0  0  0  0  0  0  0  0  0  0  0
    6.6074  -16.9828   24.8648 C   0  0  0  0  0  0  0  0  0  0  0  0
    5.9500  -16.3352   23.7070 C   0  0  0  0  0  0  0  0  0  0  0  0
    6.0433  -17.0337   22.3908 C   0  0  2  0  0  0  0  0  0  0  0  0
    5.8066  -18.4535   22.5721 N   0  0  0  0  0  0  0  0  0  0  0  0
    7.2596  -16.7823   21.6200 C   0  0  0  0  0  0  0  0  0  0  0  0
    7.9090  -17.8269   21.2342 O   0  0  0  0  0  0  0  0  0  0  0  0
    7.7551  -15.5196   21.2775 N   0  0  0  0  0  0  0  0  0  0  0  0
    7.0992  -14.2565   21.6606 C   0  0  0  0  0  0  0  0  0  0  0  0
    7.2040  -13.4800   20.3662 C   0  0  0  0  0  0  0  0  0  0  0  0
    8.5760  -13.8712   19.8541 C   0  0  0  0  0  0  0  0  0  0  0  0
    8.9385  -15.1692   20.5590 C   0  0  1  0  0  0  0  0  0  0  0  0
   10.1111  -14.9762   21.4615 C   0  0  0  0  0  0  0  0  0  0  0  0
    9.9636  -14.2600   22.4874 O   0  0  0  0  0  0  0  0  0  0  0  0
   11.3670  -15.5491   21.2289 N   0  0  0  0  0  0  0  0  0  0  0  0
   12.3146  -15.8990   22.3366 C   0  0  1  0  0  0  0  0  0  0  0  0
   11.6623  -17.0213   23.0636 C   0  0  0  0  0  0  0  0  0  0  0  0
   12.3629  -17.7657   24.1072 C   0  0  0  0  0  0  0  0  0  0  0  0
   11.6064  -18.8050   24.8078 C   0  0  0  0  0  0  0  0  0  0  0  0
   12.2047  -19.5942   25.5947 O   0  0  0  0  0  0  0  0  0  0  0  0
   13.5393  -16.2966   21.6480 C   0  0  0  0  0  0  0  0  0  0  0  0
   14.7672  -16.2396   22.2922 O   0  0  0  0  0  0  0  0  0  0  0  0
   10.2391  -18.9659   24.6477 O   0  0  0  0  0  0  0  0  0  0  0  0
   13.5493  -16.6987   20.4731 O   0  0  0  0  0  0  0  0  0  0  0  0
  2  1  1  0
  3  2  2  0
  4  2  1  0
  5  6  1  0
  5  4  1  0
  6  8  1  0
  6  7  1  1
  8 10  1  0
  9  8  2  0
 10 11  1  0
 10 14  1  0
 11 12  1  0
 12 13  1  0
 14 13  1  0
 14 15  1  1
 15 16  2  0
 17 15  1  0
 18 17  1  0
 18 19  1  6
 20 21  1  0
 20 19  1  0
 21 25  1  0
 22 21  2  0
 23 18  1  0
 24 23  1  0
 26 23  2  0
M  END
$$$$
