QPE.pdb
     RDKit          3D

 26 26  0  0  1  0  0  0  0  0999 V2000
    7.4745  -19.4559   23.5440 N   0  0  0  0  0  0  0  0  0  0  0  0
    6.5361  -18.4038   23.7539 C   0  0  0  0  0  0  0  0  0  0  0  0
    5.9933  -18.3746   24.8835 O   0  0  0  0  0  0  0  0  0  0  0  0
    6.2082  -17.4073   22.7441 C   0  0  0  0  0  0  0  0  0  0  0  0
    5.7132  -16.0858   23.1918 C   0  0  0  0  0  0  0  0  0  0  0  0
    6.4666  -14.8825   22.7297 C   0  0  2  0  0  0  0  0  0  0  0  0
    6.8862  -15.0665   21.3531 N   0  0  0  0  0  0  0  0  0  0  0  0
    7.5765  -14.4589   23.5814 C   0  0  0  0  0  0  0  0  0  0  0  0
    8.7532  -14.5541   23.0635 O   0  0  0  0  0  0  0  0  0  0  0  0
    7.4550  -13.9669   24.8853 N   0  0  0  0  0  0  0  0  0  0  0  0
    6.1712  -13.8722   25.6032 C   0  0  0  0  0  0  0  0  0  0  0  0
    6.2982  -12.5006   26.2293 C   0  0  0  0  0  0  0  0  0  0  0  0
    7.7610  -12.4494   26.6233 C   0  0  0  0  0  0  0  0  0  0  0  0
    8.4649  -13.5029   25.7822 C   0  0  1  0  0  0  0  0  0  0  0  0
    9.0042  -14.5977   26.6409 C   0  0  0  0  0  0  0  0  0  0  0  0
    8.1989  -15.4563   27.0898 O   0  0  0  0  0  0  0  0  0  0  0  0
   10.3581  -14.7218   26.9741 N   0  0  0  0  0  0  0  0  0  0  0  0
   11.0668  -16.0425   27.0031 C   0  0  1  0  0  0  0  0  0  0  0  0
   12.3389  -15.8151   26.2657 C   0  0  0  0  0  0  0  0  0  0  0  0
   13.3868  -16.8319   26.2179 C   0  0  0  0  0  0  0  0  0  0  0  0
   14.6162  -16.4897   25.5004 C   0  0  0  0  0  0  0  0  0  0  0  0
   14.6618  -16.6073   24.2417 O   0  0  0  0  0  0  0  0  0  0  0  0
   11.2676  -16.3101   28.4244 C   0  0  0  0  0  0  0  0  0  0  0  0
   11.0263  -15.3268   29.3737 O   0  0  0  0  0  0  0  0  0  0  0  0
   15.7529  -16.0321   26.1481 O   0  0  0  0  0  0  0  0  0  0  0  0
   11.6573  -17.4087   28.8528 O   0  0  0  0  0  0  0  0  0  0  0  0
  2  1  1  0
  3  2  2  0
  4  2  1  0
  5  6  1  0
  5  4  1  0
  6  8  1  0
  6  7  1  6
  8 10  1  0
  9  8  2  0
 10 11  1  0
 10 14  1  0
 11 12  1  0
 12 13  1  0
 14 13  1  0
 14 15  1  1
 15 16  2  0
 17 15  1  0
 18 17  1  0
 18 19  1  6
 20 21  1  0
 20 19  1  0
 21 25  1  0
 22 21  2  0
 23 18  1  0
 24 23  1  0
 26 23  2  0
M  END
$$$$
