QPE.pdb
     RDKit          3D

 26 26  0  0  1  0  0  0  0  0999 V2000
    6.3349  -19.0364   17.1189 N   0  0  0  0  0  0  0  0  0  0  0  0
    7.7550  -18.9517   17.0303 C   0  0  0  0  0  0  0  0  0  0  0  0
    8.3809  -20.0082   17.2824 O   0  0  0  0  0  0  0  0  0  0  0  0
    8.4654  -17.7332   16.6690 C   0  0  0  0  0  0  0  0  0  0  0  0
    7.6761  -16.5101   16.3989 C   0  0  0  0  0  0  0  0  0  0  0  0
    8.4351  -15.2462   16.1637 C   0  0  2  0  0  0  0  0  0  0  0  0
    9.1802  -15.3463   14.9229 N   0  0  0  0  0  0  0  0  0  0  0  0
    9.2807  -14.7950   17.2674 C   0  0  0  0  0  0  0  0  0  0  0  0
   10.5520  -14.8378   17.0580 O   0  0  0  0  0  0  0  0  0  0  0  0
    8.8194  -14.3290   18.5032 N   0  0  0  0  0  0  0  0  0  0  0  0
    7.4030  -14.3650   18.9094 C   0  0  0  0  0  0  0  0  0  0  0  0
    7.2524  -12.9933   19.5302 C   0  0  0  0  0  0  0  0  0  0  0  0
    8.5756  -12.8051   20.2453 C   0  0  0  0  0  0  0  0  0  0  0  0
    9.5499  -13.7782   19.5998 C   0  0  1  0  0  0  0  0  0  0  0  0
    9.9822  -14.8238   20.5727 C   0  0  0  0  0  0  0  0  0  0  0  0
    9.2462  -15.8341   20.7300 O   0  0  0  0  0  0  0  0  0  0  0  0
   11.1630  -14.7420   21.3201 N   0  0  0  0  0  0  0  0  0  0  0  0
   11.6353  -15.8511   22.2113 C   0  0  1  0  0  0  0  0  0  0  0  0
   13.0950  -15.6173   22.3792 C   0  0  0  0  0  0  0  0  0  0  0  0
   13.9774  -15.4363   21.2291 C   0  0  0  0  0  0  0  0  0  0  0  0
   15.3983  -15.2183   21.5059 C   0  0  0  0  0  0  0  0  0  0  0  0
   15.8791  -14.0502   21.4376 O   0  0  0  0  0  0  0  0  0  0  0  0
   10.8788  -15.6651   23.4462 C   0  0  0  0  0  0  0  0  0  0  0  0
   10.8945  -16.6320   24.4417 O   0  0  0  0  0  0  0  0  0  0  0  0
   16.2568  -16.2511   21.8482 O   0  0  0  0  0  0  0  0  0  0  0  0
   10.1942  -14.6532   23.6688 O   0  0  0  0  0  0  0  0  0  0  0  0
  2  1  1  0
  3  2  2  0
  4  2  1  0
  5  6  1  0
  5  4  1  0
  6  8  1  0
  6  7  1  6
  8 10  1  0
  9  8  2  0
 10 11  1  0
 10 14  1  0
 11 12  1  0
 12 13  1  0
 14 13  1  0
 14 15  1  1
 15 16  2  0
 17 15  1  0
 18 17  1  0
 18 19  1  1
 20 21  1  0
 20 19  1  0
 21 25  1  0
 22 21  2  0
 23 18  1  0
 24 23  1  0
 26 23  2  0
M  END
$$$$
