QPE.pdb
     RDKit          3D

 26 26  0  0  1  0  0  0  0  0999 V2000
    4.5476  -20.2075   18.5165 N   0  0  0  0  0  0  0  0  0  0  0  0
    5.9231  -20.5749   18.4484 C   0  0  0  0  0  0  0  0  0  0  0  0
    6.1538  -21.7742   18.1654 O   0  0  0  0  0  0  0  0  0  0  0  0
    7.0158  -19.6416   18.6830 C   0  0  0  0  0  0  0  0  0  0  0  0
    6.6850  -18.2486   19.0600 C   0  0  0  0  0  0  0  0  0  0  0  0
    7.4236  -17.1578   18.3573 C   0  0  2  0  0  0  0  0  0  0  0  0
    8.0292  -17.6781   17.1460 N   0  0  0  0  0  0  0  0  0  0  0  0
    8.3870  -16.4150   19.1677 C   0  0  0  0  0  0  0  0  0  0  0  0
    9.6221  -16.5208   18.8138 O   0  0  0  0  0  0  0  0  0  0  0  0
    8.0712  -15.6150   20.2710 N   0  0  0  0  0  0  0  0  0  0  0  0
    6.6982  -15.4247   20.7720 C   0  0  0  0  0  0  0  0  0  0  0  0
    6.6949  -13.9332   21.0272 C   0  0  0  0  0  0  0  0  0  0  0  0
    8.0869  -13.6867   21.5742 C   0  0  0  0  0  0  0  0  0  0  0  0
    8.9327  -14.8715   21.1340 C   0  0  1  0  0  0  0  0  0  0  0  0
    9.3818  -15.6722   22.3105 C   0  0  0  0  0  0  0  0  0  0  0  0
    8.6026  -16.5502   22.7679 O   0  0  0  0  0  0  0  0  0  0  0  0
   10.6236  -15.4999   22.9330 N   0  0  0  0  0  0  0  0  0  0  0  0
   11.3334  -16.6121   23.6448 C   0  0  1  0  0  0  0  0  0  0  0  0
   12.7819  -16.3182   23.4741 C   0  0  0  0  0  0  0  0  0  0  0  0
   13.8058  -17.0856   24.1791 C   0  0  0  0  0  0  0  0  0  0  0  0
   15.1416  -17.1228   23.5813 C   0  0  0  0  0  0  0  0  0  0  0  0
   15.7267  -16.0412   23.2844 O   0  0  0  0  0  0  0  0  0  0  0  0
   10.8839  -16.4959   25.0292 C   0  0  0  0  0  0  0  0  0  0  0  0
   10.1558  -15.3916   25.4495 O   0  0  0  0  0  0  0  0  0  0  0  0
   15.8085  -18.3100   23.3230 O   0  0  0  0  0  0  0  0  0  0  0  0
   11.1233  -17.3601   25.8882 O   0  0  0  0  0  0  0  0  0  0  0  0
  2  1  1  0
  3  2  2  0
  4  2  1  0
  5  6  1  0
  5  4  1  0
  6  8  1  0
  6  7  1  6
  8 10  1  0
  9  8  2  0
 10 11  1  0
 10 14  1  0
 11 12  1  0
 12 13  1  0
 14 13  1  0
 14 15  1  1
 15 16  2  0
 17 15  1  0
 18 17  1  0
 18 19  1  1
 20 21  1  0
 20 19  1  0
 21 25  1  0
 22 21  2  0
 23 18  1  0
 24 23  1  0
 26 23  2  0
M  END
$$$$
