QPE.pdb
     RDKit          3D

 26 26  0  0  1  0  0  0  0  0999 V2000
    5.1772  -18.6026   21.9938 N   0  0  0  0  0  0  0  0  0  0  0  0
    6.4776  -18.0192   22.0166 C   0  0  0  0  0  0  0  0  0  0  0  0
    7.2903  -18.4655   21.1730 O   0  0  0  0  0  0  0  0  0  0  0  0
    6.8693  -16.9674   22.9442 C   0  0  0  0  0  0  0  0  0  0  0  0
    6.3157  -15.6088   22.7449 C   0  0  0  0  0  0  0  0  0  0  0  0
    7.2915  -14.4981   22.5370 C   0  0  2  0  0  0  0  0  0  0  0  0
    7.9899  -14.6890   21.2797 N   0  0  0  0  0  0  0  0  0  0  0  0
    8.2193  -14.2495   23.6387 C   0  0  0  0  0  0  0  0  0  0  0  0
    9.4712  -14.3875   23.3640 O   0  0  0  0  0  0  0  0  0  0  0  0
    7.8541  -13.8788   24.9373 N   0  0  0  0  0  0  0  0  0  0  0  0
    6.4558  -13.7192   25.3754 C   0  0  0  0  0  0  0  0  0  0  0  0
    6.5545  -12.4377   26.1738 C   0  0  0  0  0  0  0  0  0  0  0  0
    7.8934  -12.5820   26.8696 C   0  0  0  0  0  0  0  0  0  0  0  0
    8.6760  -13.6161   26.0753 C   0  0  1  0  0  0  0  0  0  0  0  0
    8.9201  -14.8418   26.8909 C   0  0  0  0  0  0  0  0  0  0  0  0
    7.9431  -15.5964   27.1419 O   0  0  0  0  0  0  0  0  0  0  0  0
   10.1778  -15.1980   27.3918 N   0  0  0  0  0  0  0  0  0  0  0  0
   10.4284  -16.4937   28.1029 C   0  0  1  0  0  0  0  0  0  0  0  0
   11.6072  -17.0892   27.4177 C   0  0  0  0  0  0  0  0  0  0  0  0
   11.6125  -17.3305   25.9769 C   0  0  0  0  0  0  0  0  0  0  0  0
   12.8634  -17.8080   25.3849 C   0  0  0  0  0  0  0  0  0  0  0  0
   13.8972  -17.9178   26.1057 O   0  0  0  0  0  0  0  0  0  0  0  0
   10.7051  -16.0984   29.4810 C   0  0  0  0  0  0  0  0  0  0  0  0
   10.8491  -17.0523   30.4787 O   0  0  0  0  0  0  0  0  0  0  0  0
   12.9690  -18.1540   24.0469 O   0  0  0  0  0  0  0  0  0  0  0  0
   10.8242  -14.9122   29.8287 O   0  0  0  0  0  0  0  0  0  0  0  0
  2  1  1  0
  3  2  2  0
  4  2  1  0
  5  6  1  0
  5  4  1  0
  6  8  1  0
  6  7  1  6
  8 10  1  0
  9  8  2  0
 10 11  1  0
 10 14  1  0
 11 12  1  0
 12 13  1  0
 14 13  1  0
 14 15  1  1
 15 16  2  0
 17 15  1  0
 18 17  1  0
 18 19  1  6
 20 21  1  0
 20 19  1  0
 21 25  1  0
 22 21  2  0
 23 18  1  0
 24 23  1  0
 26 23  2  0
M  END
$$$$
