FEN.pdb
     RDKit          3D

 29 29  0  0  1  0  0  0  0  0999 V2000
    5.8285  -16.8518   25.2248 N   0  0  0  0  0  0  0  0  0  0  0  0
    7.0229  -16.1117   24.9713 C   0  0  1  0  0  0  0  0  0  0  0  0
    7.5490  -15.4580   26.2190 C   0  0  0  0  0  0  0  0  0  0  0  0
    7.1462  -14.0259   26.2222 C   0  0  0  0  0  0  0  0  0  0  0  0
    7.7710  -13.0917   25.4243 C   0  0  0  0  0  0  0  0  0  0  0  0
    7.3803  -11.7543   25.4400 C   0  0  0  0  0  0  0  0  0  0  0  0
    6.3564  -11.3113   26.2511 C   0  0  0  0  0  0  0  0  0  0  0  0
    5.7305  -12.2483   27.0507 C   0  0  0  0  0  0  0  0  0  0  0  0
    6.1177  -13.5764   27.0359 C   0  0  0  0  0  0  0  0  0  0  0  0
    8.0740  -16.9152   24.2931 C   0  0  0  0  0  0  0  0  0  0  0  0
    8.2438  -18.0993   24.6951 O   0  0  0  0  0  0  0  0  0  0  0  0
    8.8646  -16.3970   23.2381 N   0  0  0  0  0  0  0  0  0  0  0  0
    9.9252  -17.1487   22.6468 C   0  0  1  0  0  0  0  0  0  0  0  0
   10.3450  -16.7209   21.2859 C   0  0  0  0  0  0  0  0  0  0  0  0
   11.4848  -17.4460   20.6727 C   0  0  0  0  0  0  0  0  0  0  0  0
   11.8482  -17.0755   19.3119 C   0  0  0  0  0  0  0  0  0  0  0  0
   12.9660  -16.5673   19.0708 O   0  0  0  0  0  0  0  0  0  0  0  0
   11.0975  -17.3459   23.5646 C   0  0  0  0  0  0  0  0  0  0  0  0
   11.5537  -16.3274   24.1436 O   0  0  0  0  0  0  0  0  0  0  0  0
   10.9765  -17.2726   18.2558 O   0  0  0  0  0  0  0  0  0  0  0  0
   13.8581  -21.4682   26.9441 N   0  0  0  0  0  0  0  0  0  0  0  0
   13.1559  -20.2462   26.8221 C   0  0  0  0  0  0  0  0  0  0  0  0
   13.4062  -19.3556   27.6711 O   0  0  0  0  0  0  0  0  0  0  0  0
   12.1640  -19.9689   25.7704 C   0  0  0  0  0  0  0  0  0  0  0  0
   12.6177  -18.8303   24.9238 C   0  0  2  0  0  0  0  0  0  0  0  0
   11.7042  -18.5873   23.8060 N   0  0  0  0  0  0  0  0  0  0  0  0
   13.9614  -19.0469   24.3993 C   0  0  0  0  0  0  0  0  0  0  0  0
   14.9873  -18.9048   25.1501 O   0  0  0  0  0  0  0  0  0  0  0  0
   14.2112  -19.4128   23.0896 O   0  0  0  0  0  0  0  0  0  0  0  0
  2  1  1  1
  2  3  1  0
  2 10  1  0
  3  4  1  0
  4  5  2  0
  5  6  1  0
  7  6  2  0
  8  7  1  0
  9  4  1  0
  9  8  2  0
 10 11  2  0
 10 12  1  0
 12 13  1  0
 13 18  1  0
 13 14  1  6
 14 15  1  0
 15 16  1  0
 16 20  1  0
 17 16  2  0
 18 26  1  0
 19 18  2  0
 21 22  1  0
 22 24  1  0
 23 22  2  0
 25 24  1  6
 25 27  1  0
 26 25  1  0
 27 28  2  0
 27 29  1  0
M  END
$$$$
