FEN.pdb
     RDKit          3D

 29 29  0  0  1  0  0  0  0  0999 V2000
    6.4715  -16.5300   25.5357 N   0  0  0  0  0  0  0  0  0  0  0  0
    7.5569  -15.7669   25.0081 C   0  0  1  0  0  0  0  0  0  0  0  0
    8.1387  -14.8390   26.0383 C   0  0  0  0  0  0  0  0  0  0  0  0
    7.3359  -13.5870   26.0710 C   0  0  0  0  0  0  0  0  0  0  0  0
    7.4170  -12.6434   25.0695 C   0  0  0  0  0  0  0  0  0  0  0  0
    6.6574  -11.4763   25.1164 C   0  0  0  0  0  0  0  0  0  0  0  0
    5.7961  -11.2175   26.1623 C   0  0  0  0  0  0  0  0  0  0  0  0
    5.7153  -12.1639   27.1658 C   0  0  0  0  0  0  0  0  0  0  0  0
    6.4692  -13.3230   27.1203 C   0  0  0  0  0  0  0  0  0  0  0  0
    8.6082  -16.6076   24.3769 C   0  0  0  0  0  0  0  0  0  0  0  0
    8.8688  -17.7136   24.9258 O   0  0  0  0  0  0  0  0  0  0  0  0
    9.3026  -16.2067   23.2091 N   0  0  0  0  0  0  0  0  0  0  0  0
   10.4452  -16.9147   22.7268 C   0  0  1  0  0  0  0  0  0  0  0  0
   10.8460  -16.6239   21.3247 C   0  0  0  0  0  0  0  0  0  0  0  0
   12.0307  -17.3455   20.7985 C   0  0  0  0  0  0  0  0  0  0  0  0
   12.3997  -17.0878   19.4134 C   0  0  0  0  0  0  0  0  0  0  0  0
   11.8371  -16.1757   18.7672 O   0  0  0  0  0  0  0  0  0  0  0  0
   11.6133  -16.8708   23.6698 C   0  0  0  0  0  0  0  0  0  0  0  0
   11.7850  -15.8119   24.3256 O   0  0  0  0  0  0  0  0  0  0  0  0
   13.3738  -17.8365   18.7774 O   0  0  0  0  0  0  0  0  0  0  0  0
   15.5443  -17.6200   22.7726 N   0  0  0  0  0  0  0  0  0  0  0  0
   15.3461  -16.5538   23.6810 C   0  0  0  0  0  0  0  0  0  0  0  0
   16.0925  -15.5516   23.5580 O   0  0  0  0  0  0  0  0  0  0  0  0
   14.3285  -16.5576   24.7446 C   0  0  0  0  0  0  0  0  0  0  0  0
   13.6374  -17.8765   24.7895 C   0  0  2  0  0  0  0  0  0  0  0  0
   12.5122  -17.9316   23.8546 N   0  0  0  0  0  0  0  0  0  0  0  0
   13.1557  -18.1903   26.1300 C   0  0  0  0  0  0  0  0  0  0  0  0
   13.6866  -19.1336   26.8115 O   0  0  0  0  0  0  0  0  0  0  0  0
   12.1205  -17.5062   26.7401 O   0  0  0  0  0  0  0  0  0  0  0  0
  2  1  1  1
  2  3  1  0
  2 10  1  0
  3  4  1  0
  4  5  2  0
  5  6  1  0
  7  6  2  0
  8  7  1  0
  9  4  1  0
  9  8  2  0
 10 11  2  0
 10 12  1  0
 12 13  1  0
 13 18  1  0
 13 14  1  6
 14 15  1  0
 15 16  1  0
 16 20  1  0
 17 16  2  0
 18 26  1  0
 19 18  2  0
 21 22  1  0
 22 24  1  0
 23 22  2  0
 25 24  1  1
 25 27  1  0
 26 25  1  0
 27 28  2  0
 27 29  1  0
M  END
$$$$
