FEN.pdb
     RDKit          3D

 29 29  0  0  1  0  0  0  0  0999 V2000
    6.4013  -16.0652   25.4858 N   0  0  0  0  0  0  0  0  0  0  0  0
    6.9983  -15.8563   24.2058 C   0  0  1  0  0  0  0  0  0  0  0  0
    7.3163  -14.4059   23.9690 C   0  0  0  0  0  0  0  0  0  0  0  0
    7.1745  -13.6635   25.2504 C   0  0  0  0  0  0  0  0  0  0  0  0
    5.9680  -13.1351   25.6564 C   0  0  0  0  0  0  0  0  0  0  0  0
    5.8535  -12.4428   26.8602 C   0  0  0  0  0  0  0  0  0  0  0  0
    6.9381  -12.2581   27.6923 C   0  0  0  0  0  0  0  0  0  0  0  0
    8.1472  -12.7881   27.2846 C   0  0  0  0  0  0  0  0  0  0  0  0
    8.2619  -13.4756   26.0895 C   0  0  0  0  0  0  0  0  0  0  0  0
    8.1851  -16.7196   23.9679 C   0  0  0  0  0  0  0  0  0  0  0  0
    8.2246  -17.8255   24.5746 O   0  0  0  0  0  0  0  0  0  0  0  0
    9.2400  -16.3400   23.1020 N   0  0  0  0  0  0  0  0  0  0  0  0
   10.2055  -17.2792   22.6275 C   0  0  1  0  0  0  0  0  0  0  0  0
   10.7642  -17.0105   21.2760 C   0  0  0  0  0  0  0  0  0  0  0  0
    9.9405  -17.4200   20.1120 C   0  0  0  0  0  0  0  0  0  0  0  0
   10.6430  -18.0076   18.9796 C   0  0  0  0  0  0  0  0  0  0  0  0
   11.4277  -17.3158   18.2928 O   0  0  0  0  0  0  0  0  0  0  0  0
   11.2784  -17.5876   23.6322 C   0  0  0  0  0  0  0  0  0  0  0  0
   12.1389  -18.4462   23.3111 O   0  0  0  0  0  0  0  0  0  0  0  0
   10.4652  -19.3351   18.6332 O   0  0  0  0  0  0  0  0  0  0  0  0
   11.7392  -13.8659   26.8818 N   0  0  0  0  0  0  0  0  0  0  0  0
   12.5445  -14.9409   26.4378 C   0  0  0  0  0  0  0  0  0  0  0  0
   13.3754  -14.6956   25.5289 O   0  0  0  0  0  0  0  0  0  0  0  0
   12.4608  -16.3084   26.9760 C   0  0  0  0  0  0  0  0  0  0  0  0
   12.4201  -17.2971   25.8625 C   0  0  2  0  0  0  0  0  0  0  0  0
   11.3701  -16.9796   24.8930 N   0  0  0  0  0  0  0  0  0  0  0  0
   12.2181  -18.6562   26.3519 C   0  0  0  0  0  0  0  0  0  0  0  0
   11.1230  -19.2770   26.1251 O   0  0  0  0  0  0  0  0  0  0  0  0
   13.1725  -19.3486   27.0740 O   0  0  0  0  0  0  0  0  0  0  0  0
  2  1  1  1
  2  3  1  0
  2 10  1  0
  3  4  1  0
  4  5  2  0
  5  6  1  0
  7  6  2  0
  8  7  1  0
  9  4  1  0
  9  8  2  0
 10 11  2  0
 10 12  1  0
 12 13  1  0
 13 18  1  0
 13 14  1  6
 14 15  1  0
 15 16  1  0
 16 20  1  0
 17 16  2  0
 18 26  1  0
 19 18  2  0
 21 22  1  0
 22 24  1  0
 23 22  2  0
 25 24  1  1
 25 27  1  0
 26 25  1  0
 27 28  2  0
 27 29  1  0
M  END
$$$$
