FEN.pdb
     RDKit          3D

 29 29  0  0  1  0  0  0  0  0999 V2000
    6.0469  -16.3022   25.1595 N   0  0  0  0  0  0  0  0  0  0  0  0
    7.3323  -15.8638   24.7185 C   0  0  1  0  0  0  0  0  0  0  0  0
    8.0925  -15.1728   25.8164 C   0  0  0  0  0  0  0  0  0  0  0  0
    7.5199  -13.8153   26.0219 C   0  0  0  0  0  0  0  0  0  0  0  0
    6.6492  -13.5407   27.0545 C   0  0  0  0  0  0  0  0  0  0  0  0
    6.1227  -12.2629   27.2321 C   0  0  0  0  0  0  0  0  0  0  0  0
    6.4494  -11.2238   26.3858 C   0  0  0  0  0  0  0  0  0  0  0  0
    7.3224  -11.4998   25.3508 C   0  0  0  0  0  0  0  0  0  0  0  0
    7.8456  -12.7682   25.1736 C   0  0  0  0  0  0  0  0  0  0  0  0
    8.1374  -16.9490   24.0983 C   0  0  0  0  0  0  0  0  0  0  0  0
    7.9818  -18.1152   24.5545 O   0  0  0  0  0  0  0  0  0  0  0  0
    9.0473  -16.7100   23.0392 N   0  0  0  0  0  0  0  0  0  0  0  0
    9.8296  -17.7562   22.4623 C   0  0  1  0  0  0  0  0  0  0  0  0
   10.0085  -17.6964   20.9874 C   0  0  0  0  0  0  0  0  0  0  0  0
    8.8992  -17.1089   20.1967 C   0  0  0  0  0  0  0  0  0  0  0  0
    9.1346  -16.9123   18.7730 C   0  0  0  0  0  0  0  0  0  0  0  0
   10.2337  -17.2258   18.2634 O   0  0  0  0  0  0  0  0  0  0  0  0
   11.1272  -17.9934   23.1805 C   0  0  0  0  0  0  0  0  0  0  0  0
   11.8471  -18.9397   22.7722 O   0  0  0  0  0  0  0  0  0  0  0  0
    8.1594  -16.3782   17.9498 O   0  0  0  0  0  0  0  0  0  0  0  0
   14.0356  -16.7943   22.5104 N   0  0  0  0  0  0  0  0  0  0  0  0
   13.9676  -15.9372   23.6338 C   0  0  0  0  0  0  0  0  0  0  0  0
   14.1028  -14.7068   23.4232 O   0  0  0  0  0  0  0  0  0  0  0  0
   13.7508  -16.4041   25.0128 C   0  0  0  0  0  0  0  0  0  0  0  0
   12.7864  -17.5393   25.0251 C   0  0  2  0  0  0  0  0  0  0  0  0
   11.5723  -17.2282   24.2685 N   0  0  0  0  0  0  0  0  0  0  0  0
   12.4142  -17.9192   26.3833 C   0  0  0  0  0  0  0  0  0  0  0  0
   11.1997  -17.8357   26.7762 O   0  0  0  0  0  0  0  0  0  0  0  0
   13.3247  -18.3849   27.3138 O   0  0  0  0  0  0  0  0  0  0  0  0
  2  1  1  1
  2  3  1  0
  2 10  1  0
  3  4  1  0
  4  5  2  0
  5  6  1  0
  7  6  2  0
  8  7  1  0
  9  4  1  0
  9  8  2  0
 10 11  2  0
 10 12  1  0
 12 13  1  0
 13 18  1  0
 13 14  1  6
 14 15  1  0
 15 16  1  0
 16 20  1  0
 17 16  2  0
 18 26  1  0
 19 18  2  0
 21 22  1  0
 22 24  1  0
 23 22  2  0
 25 24  1  1
 25 27  1  0
 26 25  1  0
 27 28  2  0
 27 29  1  0
M  END
$$$$
