FEN.pdb
     RDKit          3D

 29 29  0  0  1  0  0  0  0  0999 V2000
    5.9065  -18.4670   20.9579 N   0  0  0  0  0  0  0  0  0  0  0  0
    6.8527  -17.4120   21.1322 C   0  0  1  0  0  0  0  0  0  0  0  0
    6.3161  -16.3227   22.0190 C   0  0  0  0  0  0  0  0  0  0  0  0
    6.9835  -15.0401   21.6686 C   0  0  0  0  0  0  0  0  0  0  0  0
    7.4397  -14.1689   22.6344 C   0  0  0  0  0  0  0  0  0  0  0  0
    8.0629  -12.9718   22.2879 C   0  0  0  0  0  0  0  0  0  0  0  0
    8.2486  -12.6101   20.9698 C   0  0  0  0  0  0  0  0  0  0  0  0
    7.7909  -13.4840   20.0022 C   0  0  0  0  0  0  0  0  0  0  0  0
    7.1720  -14.6728   20.3452 C   0  0  0  0  0  0  0  0  0  0  0  0
    8.1802  -17.8906   21.6003 C   0  0  0  0  0  0  0  0  0  0  0  0
    8.1941  -18.6820   22.5831 O   0  0  0  0  0  0  0  0  0  0  0  0
    9.3923  -17.4903   20.9863 N   0  0  0  0  0  0  0  0  0  0  0  0
   10.6667  -17.8648   21.5108 C   0  0  1  0  0  0  0  0  0  0  0  0
   11.8336  -17.6161   20.6233 C   0  0  0  0  0  0  0  0  0  0  0  0
   11.8352  -18.2966   19.3049 C   0  0  0  0  0  0  0  0  0  0  0  0
   12.8188  -17.8459   18.3301 C   0  0  0  0  0  0  0  0  0  0  0  0
   13.8658  -18.5033   18.1361 O   0  0  0  0  0  0  0  0  0  0  0  0
   10.9033  -17.3687   22.9086 C   0  0  0  0  0  0  0  0  0  0  0  0
   10.6505  -16.1593   23.1412 O   0  0  0  0  0  0  0  0  0  0  0  0
   12.6266  -16.6886   17.5968 O   0  0  0  0  0  0  0  0  0  0  0  0
    8.1229  -17.3854   27.3256 N   0  0  0  0  0  0  0  0  0  0  0  0
    8.9594  -18.3907   26.7862 C   0  0  0  0  0  0  0  0  0  0  0  0
    9.3197  -19.3110   27.5607 O   0  0  0  0  0  0  0  0  0  0  0  0
    9.4217  -18.4139   25.3889 C   0  0  0  0  0  0  0  0  0  0  0  0
   10.8755  -18.0957   25.3236 C   0  0  2  0  0  0  0  0  0  0  0  0
   11.3863  -18.1698   23.9537 N   0  0  0  0  0  0  0  0  0  0  0  0
   11.6630  -18.9835   26.1717 C   0  0  0  0  0  0  0  0  0  0  0  0
   11.7632  -18.7683   27.4286 O   0  0  0  0  0  0  0  0  0  0  0  0
   12.3358  -20.0902   25.6877 O   0  0  0  0  0  0  0  0  0  0  0  0
  2  1  1  1
  2  3  1  0
  2 10  1  0
  3  4  1  0
  4  5  2  0
  5  6  1  0
  7  6  2  0
  8  7  1  0
  9  4  1  0
  9  8  2  0
 10 11  2  0
 10 12  1  0
 12 13  1  0
 13 18  1  0
 13 14  1  6
 14 15  1  0
 15 16  1  0
 16 20  1  0
 17 16  2  0
 18 26  1  0
 19 18  2  0
 21 22  1  0
 22 24  1  0
 23 22  2  0
 25 24  1  6
 25 27  1  0
 26 25  1  0
 27 28  2  0
 27 29  1  0
M  END
$$$$
