FEN.pdb
     RDKit          3D

 29 29  0  0  1  0  0  0  0  0999 V2000
    5.9467  -16.2055   24.5040 N   0  0  0  0  0  0  0  0  0  0  0  0
    7.3401  -15.9732   24.2960 C   0  0  1  0  0  0  0  0  0  0  0  0
    7.9659  -15.2571   25.4606 C   0  0  0  0  0  0  0  0  0  0  0  0
    7.3472  -13.9105   25.5905 C   0  0  0  0  0  0  0  0  0  0  0  0
    7.8173  -12.8221   24.8875 C   0  0  0  0  0  0  0  0  0  0  0  0
    7.2252  -11.5679   25.0212 C   0  0  0  0  0  0  0  0  0  0  0  0
    6.1484  -11.3640   25.8590 C   0  0  0  0  0  0  0  0  0  0  0  0
    5.6778  -12.4555   26.5634 C   0  0  0  0  0  0  0  0  0  0  0  0
    6.2650  -13.7012   26.4313 C   0  0  0  0  0  0  0  0  0  0  0  0
    8.0917  -17.2080   23.9485 C   0  0  0  0  0  0  0  0  0  0  0  0
    7.4618  -18.1130   23.3347 O   0  0  0  0  0  0  0  0  0  0  0  0
    9.4572  -17.3857   24.2810 N   0  0  0  0  0  0  0  0  0  0  0  0
   10.3071  -18.2672   23.5462 C   0  0  1  0  0  0  0  0  0  0  0  0
   10.2338  -18.1564   22.0651 C   0  0  0  0  0  0  0  0  0  0  0  0
   10.7646  -16.9127   21.4548 C   0  0  0  0  0  0  0  0  0  0  0  0
   10.8032  -16.8551   20.0001 C   0  0  0  0  0  0  0  0  0  0  0  0
   11.2055  -15.8233   19.4174 O   0  0  0  0  0  0  0  0  0  0  0  0
   11.7243  -18.2781   24.0432 C   0  0  0  0  0  0  0  0  0  0  0  0
   12.5798  -18.8641   23.3322 O   0  0  0  0  0  0  0  0  0  0  0  0
   10.4000  -17.9291   19.2268 O   0  0  0  0  0  0  0  0  0  0  0  0
   11.9383  -19.5898   29.0343 N   0  0  0  0  0  0  0  0  0  0  0  0
   10.7646  -19.3816   28.2724 C   0  0  0  0  0  0  0  0  0  0  0  0
    9.6899  -19.8270   28.7448 O   0  0  0  0  0  0  0  0  0  0  0  0
   10.7378  -18.6825   26.9774 C   0  0  0  0  0  0  0  0  0  0  0  0
   12.1252  -18.3735   26.5316 C   0  0  2  0  0  0  0  0  0  0  0  0
   12.1393  -17.6803   25.2423 N   0  0  0  0  0  0  0  0  0  0  0  0
   12.9427  -19.5773   26.4314 C   0  0  0  0  0  0  0  0  0  0  0  0
   14.0567  -19.6650   27.0539 O   0  0  0  0  0  0  0  0  0  0  0  0
   12.5778  -20.6777   25.6779 O   0  0  0  0  0  0  0  0  0  0  0  0
  2  1  1  1
  2  3  1  0
  2 10  1  0
  3  4  1  0
  4  5  2  0
  5  6  1  0
  7  6  2  0
  8  7  1  0
  9  4  1  0
  9  8  2  0
 10 11  2  0
 10 12  1  0
 12 13  1  0
 13 18  1  0
 13 14  1  6
 14 15  1  0
 15 16  1  0
 16 20  1  0
 17 16  2  0
 18 26  1  0
 19 18  2  0
 21 22  1  0
 22 24  1  0
 23 22  2  0
 25 24  1  6
 25 27  1  0
 26 25  1  0
 27 28  2  0
 27 29  1  0
M  END
$$$$
