FEN.pdb
     RDKit          3D

 29 29  0  0  1  0  0  0  0  0999 V2000
    5.9240  -17.8974   26.0455 N   0  0  0  0  0  0  0  0  0  0  0  0
    6.5383  -16.6531   25.7092 C   0  0  1  0  0  0  0  0  0  0  0  0
    7.0857  -15.9555   26.9234 C   0  0  0  0  0  0  0  0  0  0  0  0
    7.0984  -14.4888   26.6748 C   0  0  0  0  0  0  0  0  0  0  0  0
    5.9408  -13.7405   26.6716 C   0  0  0  0  0  0  0  0  0  0  0  0
    5.9715  -12.3674   26.4372 C   0  0  0  0  0  0  0  0  0  0  0  0
    7.1564  -11.7023   26.1996 C   0  0  0  0  0  0  0  0  0  0  0  0
    8.3164  -12.4530   26.2030 C   0  0  0  0  0  0  0  0  0  0  0  0
    8.2869  -13.8165   26.4355 C   0  0  0  0  0  0  0  0  0  0  0  0
    7.5676  -16.7801   24.6439 C   0  0  0  0  0  0  0  0  0  0  0  0
    8.4480  -17.6712   24.7959 O   0  0  0  0  0  0  0  0  0  0  0  0
    7.5814  -15.9483   23.4973 N   0  0  0  0  0  0  0  0  0  0  0  0
    8.5533  -16.1015   22.4622 C   0  0  1  0  0  0  0  0  0  0  0  0
    8.2430  -15.4268   21.1740 C   0  0  0  0  0  0  0  0  0  0  0  0
    9.2064  -15.6196   20.0624 C   0  0  0  0  0  0  0  0  0  0  0  0
    8.8525  -15.0409   18.7736 C   0  0  0  0  0  0  0  0  0  0  0  0
    9.5871  -15.2186   17.7763 O   0  0  0  0  0  0  0  0  0  0  0  0
    9.9574  -15.8284   22.9201 C   0  0  0  0  0  0  0  0  0  0  0  0
   10.1833  -14.7112   23.4508 O   0  0  0  0  0  0  0  0  0  0  0  0
    7.7048  -14.2848   18.6157 O   0  0  0  0  0  0  0  0  0  0  0  0
   15.2299  -18.3887   24.5291 N   0  0  0  0  0  0  0  0  0  0  0  0
   14.1396  -17.5021   24.6921 C   0  0  0  0  0  0  0  0  0  0  0  0
   14.3466  -16.4575   25.3575 O   0  0  0  0  0  0  0  0  0  0  0  0
   12.7985  -17.7360   24.1324 C   0  0  0  0  0  0  0  0  0  0  0  0
   12.3338  -16.5303   23.3912 C   0  0  2  0  0  0  0  0  0  0  0  0
   11.0164  -16.7385   22.7876 N   0  0  0  0  0  0  0  0  0  0  0  0
   13.2761  -16.1385   22.3490 C   0  0  0  0  0  0  0  0  0  0  0  0
   13.0431  -16.4103   21.1210 O   0  0  0  0  0  0  0  0  0  0  0  0
   14.4537  -15.4629   22.6105 O   0  0  0  0  0  0  0  0  0  0  0  0
  2  1  1  1
  2  3  1  0
  2 10  1  0
  3  4  1  0
  4  5  2  0
  5  6  1  0
  7  6  2  0
  8  7  1  0
  9  4  1  0
  9  8  2  0
 10 11  2  0
 10 12  1  0
 12 13  1  0
 13 18  1  0
 13 14  1  6
 14 15  1  0
 15 16  1  0
 16 20  1  0
 17 16  2  0
 18 26  1  0
 19 18  2  0
 21 22  1  0
 22 24  1  0
 23 22  2  0
 25 24  1  6
 25 27  1  0
 26 25  1  0
 27 28  2  0
 27 29  1  0
M  END
$$$$
