FEN.pdb
     RDKit          3D

 29 29  0  0  1  0  0  0  0  0999 V2000
    5.9423  -16.2596   25.4804 N   0  0  0  0  0  0  0  0  0  0  0  0
    6.6494  -16.1758   24.2428 C   0  0  1  0  0  0  0  0  0  0  0  0
    6.6679  -14.7717   23.7053 C   0  0  0  0  0  0  0  0  0  0  0  0
    6.8355  -13.8217   24.8378 C   0  0  0  0  0  0  0  0  0  0  0  0
    8.0693  -13.3178   25.1893 C   0  0  0  0  0  0  0  0  0  0  0  0
    8.2076  -12.4285   26.2530 C   0  0  0  0  0  0  0  0  0  0  0  0
    7.1203  -12.0169   26.9954 C   0  0  0  0  0  0  0  0  0  0  0  0
    5.8838  -12.5224   26.6423 C   0  0  0  0  0  0  0  0  0  0  0  0
    5.7454  -13.4055   25.5864 C   0  0  0  0  0  0  0  0  0  0  0  0
    8.0191  -16.7497   24.3137 C   0  0  0  0  0  0  0  0  0  0  0  0
    8.2779  -17.5053   25.2907 O   0  0  0  0  0  0  0  0  0  0  0  0
    9.0095  -16.4756   23.3387 N   0  0  0  0  0  0  0  0  0  0  0  0
   10.2920  -17.1033   23.3646 C   0  0  1  0  0  0  0  0  0  0  0  0
   11.0637  -17.0580   22.0944 C   0  0  0  0  0  0  0  0  0  0  0  0
   12.3807  -17.7410   22.0807 C   0  0  0  0  0  0  0  0  0  0  0  0
   13.1134  -17.7378   20.8221 C   0  0  0  0  0  0  0  0  0  0  0  0
   13.5770  -18.8027   20.3562 O   0  0  0  0  0  0  0  0  0  0  0  0
   11.1258  -16.7031   24.5479 C   0  0  0  0  0  0  0  0  0  0  0  0
   11.3986  -15.4823   24.6740 O   0  0  0  0  0  0  0  0  0  0  0  0
   13.3167  -16.5685   20.1112 O   0  0  0  0  0  0  0  0  0  0  0  0
   11.2063  -15.0370   29.4664 N   0  0  0  0  0  0  0  0  0  0  0  0
   10.9893  -16.3427   28.9668 C   0  0  0  0  0  0  0  0  0  0  0  0
   11.0591  -17.2886   29.7896 O   0  0  0  0  0  0  0  0  0  0  0  0
   10.6914  -16.6451   27.5574 C   0  0  0  0  0  0  0  0  0  0  0  0
   11.8895  -17.2302   26.8933 C   0  0  2  0  0  0  0  0  0  0  0  0
   11.6120  -17.6052   25.5056 N   0  0  0  0  0  0  0  0  0  0  0  0
   12.3893  -18.3986   27.6091 C   0  0  0  0  0  0  0  0  0  0  0  0
   11.9501  -19.5690   27.3379 O   0  0  0  0  0  0  0  0  0  0  0  0
   13.3480  -18.3229   28.6026 O   0  0  0  0  0  0  0  0  0  0  0  0
  2  1  1  1
  2  3  1  0
  2 10  1  0
  3  4  1  0
  4  5  2  0
  5  6  1  0
  7  6  2  0
  8  7  1  0
  9  4  1  0
  9  8  2  0
 10 11  2  0
 10 12  1  0
 12 13  1  0
 13 18  1  0
 13 14  1  6
 14 15  1  0
 15 16  1  0
 16 20  1  0
 17 16  2  0
 18 26  1  0
 19 18  2  0
 21 22  1  0
 22 24  1  0
 23 22  2  0
 25 24  1  1
 25 27  1  0
 26 25  1  0
 27 28  2  0
 27 29  1  0
M  END
$$$$
