FEN.pdb
     RDKit          3D

 29 29  0  0  1  0  0  0  0  0999 V2000
    6.0800  -15.7364   23.8343 N   0  0  0  0  0  0  0  0  0  0  0  0
    7.2910  -15.3814   23.1663 C   0  0  1  0  0  0  0  0  0  0  0  0
    7.5484  -13.9013   23.2278 C   0  0  0  0  0  0  0  0  0  0  0  0
    7.4982  -13.4595   24.6475 C   0  0  0  0  0  0  0  0  0  0  0  0
    8.6432  -13.2313   25.3802 C   0  0  0  0  0  0  0  0  0  0  0  0
    8.5773  -12.8174   26.7090 C   0  0  0  0  0  0  0  0  0  0  0  0
    7.3689  -12.6196   27.3441 C   0  0  0  0  0  0  0  0  0  0  0  0
    6.2216  -12.8486   26.6090 C   0  0  0  0  0  0  0  0  0  0  0  0
    6.2859  -13.2596   25.2895 C   0  0  0  0  0  0  0  0  0  0  0  0
    8.4670  -16.1586   23.6390 C   0  0  0  0  0  0  0  0  0  0  0  0
    8.3086  -16.8784   24.6634 O   0  0  0  0  0  0  0  0  0  0  0  0
    9.7227  -16.1104   22.9851 N   0  0  0  0  0  0  0  0  0  0  0  0
   10.8388  -16.8819   23.4308 C   0  0  1  0  0  0  0  0  0  0  0  0
   11.9853  -16.9712   22.4881 C   0  0  0  0  0  0  0  0  0  0  0  0
   11.7079  -17.5229   21.1391 C   0  0  0  0  0  0  0  0  0  0  0  0
   12.8459  -17.6849   20.2448 C   0  0  0  0  0  0  0  0  0  0  0  0
   12.9712  -16.9501   19.2396 O   0  0  0  0  0  0  0  0  0  0  0  0
   11.2785  -16.5403   24.8256 C   0  0  0  0  0  0  0  0  0  0  0  0
   11.8628  -15.4397   24.9922 O   0  0  0  0  0  0  0  0  0  0  0  0
   13.8127  -18.6466   20.4780 O   0  0  0  0  0  0  0  0  0  0  0  0
   10.5410  -14.8389   30.1893 N   0  0  0  0  0  0  0  0  0  0  0  0
   11.2138  -15.6620   29.2560 C   0  0  0  0  0  0  0  0  0  0  0  0
   12.3463  -16.0926   29.5856 O   0  0  0  0  0  0  0  0  0  0  0  0
   10.6656  -16.0335   27.9415 C   0  0  0  0  0  0  0  0  0  0  0  0
   11.5456  -17.0394   27.2835 C   0  0  2  0  0  0  0  0  0  0  0  0
   11.0773  -17.3721   25.9370 N   0  0  0  0  0  0  0  0  0  0  0  0
   11.6463  -18.2657   28.0668 C   0  0  0  0  0  0  0  0  0  0  0  0
   10.7115  -19.1383   28.0386 O   0  0  0  0  0  0  0  0  0  0  0  0
   12.7317  -18.5616   28.8706 O   0  0  0  0  0  0  0  0  0  0  0  0
  2  1  1  1
  2  3  1  0
  2 10  1  0
  3  4  1  0
  4  5  2  0
  5  6  1  0
  7  6  2  0
  8  7  1  0
  9  4  1  0
  9  8  2  0
 10 11  2  0
 10 12  1  0
 12 13  1  0
 13 18  1  0
 13 14  1  6
 14 15  1  0
 15 16  1  0
 16 20  1  0
 17 16  2  0
 18 26  1  0
 19 18  2  0
 21 22  1  0
 22 24  1  0
 23 22  2  0
 25 24  1  1
 25 27  1  0
 26 25  1  0
 27 28  2  0
 27 29  1  0
M  END
$$$$
