FEN.pdb
     RDKit          3D

 29 29  0  0  1  0  0  0  0  0999 V2000
    6.0302  -16.4619   25.2720 N   0  0  0  0  0  0  0  0  0  0  0  0
    7.2562  -15.8218   24.9171 C   0  0  1  0  0  0  0  0  0  0  0  0
    7.8137  -15.0145   26.0565 C   0  0  0  0  0  0  0  0  0  0  0  0
    7.1809  -13.6681   26.0514 C   0  0  0  0  0  0  0  0  0  0  0  0
    7.7400  -12.6031   25.3784 C   0  0  0  0  0  0  0  0  0  0  0  0
    7.1331  -11.3489   25.3842 C   0  0  0  0  0  0  0  0  0  0  0  0
    5.9526  -11.1216   26.0605 C   0  0  0  0  0  0  0  0  0  0  0  0
    5.3927  -12.1898   26.7349 C   0  0  0  0  0  0  0  0  0  0  0  0
    5.9945  -13.4355   26.7299 C   0  0  0  0  0  0  0  0  0  0  0  0
    8.2687  -16.7634   24.3705 C   0  0  0  0  0  0  0  0  0  0  0  0
    8.3355  -17.9080   24.8974 O   0  0  0  0  0  0  0  0  0  0  0  0
    9.1334  -16.4146   23.3040 N   0  0  0  0  0  0  0  0  0  0  0  0
   10.2924  -17.1858   22.9856 C   0  0  1  0  0  0  0  0  0  0  0  0
   11.0050  -16.8034   21.7378 C   0  0  0  0  0  0  0  0  0  0  0  0
   12.2366  -17.5609   21.4053 C   0  0  0  0  0  0  0  0  0  0  0  0
   12.8879  -17.2415   20.1424 C   0  0  0  0  0  0  0  0  0  0  0  0
   13.5122  -18.1231   19.5109 O   0  0  0  0  0  0  0  0  0  0  0  0
   11.2322  -17.3528   24.1453 C   0  0  0  0  0  0  0  0  0  0  0  0
   11.5264  -16.3216   24.8016 O   0  0  0  0  0  0  0  0  0  0  0  0
   12.8360  -15.9661   19.6089 O   0  0  0  0  0  0  0  0  0  0  0  0
   12.0940  -21.3473   28.3222 N   0  0  0  0  0  0  0  0  0  0  0  0
   11.8267  -20.0009   27.9802 C   0  0  0  0  0  0  0  0  0  0  0  0
   12.1050  -19.1271   28.8379 O   0  0  0  0  0  0  0  0  0  0  0  0
   11.2493  -19.5779   26.6940 C   0  0  0  0  0  0  0  0  0  0  0  0
   12.2702  -18.8544   25.8858 C   0  0  2  0  0  0  0  0  0  0  0  0
   11.7934  -18.5795   24.5292 N   0  0  0  0  0  0  0  0  0  0  0  0
   13.5236  -19.5962   25.8065 C   0  0  0  0  0  0  0  0  0  0  0  0
   14.2148  -19.8266   26.8578 O   0  0  0  0  0  0  0  0  0  0  0  0
   14.0357  -20.0895   24.6206 O   0  0  0  0  0  0  0  0  0  0  0  0
  2  1  1  1
  2  3  1  0
  2 10  1  0
  3  4  1  0
  4  5  2  0
  5  6  1  0
  7  6  2  0
  8  7  1  0
  9  4  1  0
  9  8  2  0
 10 11  2  0
 10 12  1  0
 12 13  1  0
 13 18  1  0
 13 14  1  6
 14 15  1  0
 15 16  1  0
 16 20  1  0
 17 16  2  0
 18 26  1  0
 19 18  2  0
 21 22  1  0
 22 24  1  0
 23 22  2  0
 25 24  1  1
 25 27  1  0
 26 25  1  0
 27 28  2  0
 27 29  1  0
M  END
$$$$
