SLV.pdb
     RDKit          3D

 22 21  0  0  1  0  0  0  0  0999 V2000
   20.5368   -9.6173  -22.1319 O   0  0  0  0  0  0  0  0  0  0  0  0
   20.3154   -9.6490  -20.7633 C   0  0  0  0  0  0  0  0  0  0  0  0
   21.1514  -10.7724  -20.1827 C   0  0  2  0  0  0  0  0  0  0  0  0
   20.4589  -12.0207  -20.2913 N   0  0  0  0  0  0  0  0  0  0  0  0
   21.5028  -10.4995  -18.7579 C   0  0  0  0  0  0  0  0  0  0  0  0
   20.7399  -10.8217  -17.8194 O   0  0  0  0  0  0  0  0  0  0  0  0
   26.7842  -10.0781  -16.0829 C   0  0  0  0  0  0  0  0  0  0  0  0
   25.3263   -9.6654  -15.7706 C   0  0  2  0  0  0  0  0  0  0  0  0
   24.9268  -10.4721  -14.5845 C   0  0  0  0  0  0  0  0  0  0  0  0
   24.5694   -9.9276  -17.0134 C   0  0  0  0  0  0  0  0  0  0  0  0
   23.1323   -9.5499  -17.0576 C   0  0  2  0  0  0  0  0  0  0  0  0
   22.7153   -9.8668  -18.4486 N   0  0  0  0  0  0  0  0  0  0  0  0
   22.9469   -8.1184  -16.8411 C   0  0  0  0  0  0  0  0  0  0  0  0
   23.5046   -7.2840  -17.6461 O   0  0  0  0  0  0  0  0  0  0  0  0
   20.4336   -5.8921  -17.5226 C   0  0  0  0  0  0  0  0  0  0  0  0
   20.6738   -5.5837  -16.0808 C   0  0  1  0  0  0  0  0  0  0  0  0
   19.6172   -6.0707  -15.1530 C   0  0  0  0  0  0  0  0  0  0  0  0
   22.0619   -6.0555  -15.7073 C   0  0  2  0  0  0  0  0  0  0  0  0
   22.1925   -7.4921  -15.8129 N   0  0  0  0  0  0  0  0  0  0  0  0
   22.4561   -5.6280  -14.3638 C   0  0  0  0  0  0  0  0  0  0  0  0
   22.6853   -4.3892  -14.1758 O   0  0  0  0  0  0  0  0  0  0  0  0
   22.5890   -6.4987  -13.3018 O   0  0  0  0  0  0  0  0  0  0  0  0
  2  3  1  0
  2  1  1  0
  3  4  1  1
  5  3  1  0
  6  5  2  0
  8  7  1  6
  8 10  1  0
  9  8  1  0
 11 10  1  6
 11 13  1  0
 11 12  1  0
 12  5  1  0
 13 19  1  0
 14 13  2  0
 16 17  1  1
 16 15  1  0
 18 16  1  0
 18 20  1  0
 18 19  1  1
 20 21  2  0
 20 22  1  0
M  END
$$$$
