SLV.pdb
     RDKit          3D

 22 21  0  0  1  0  0  0  0  0999 V2000
   23.1363   -9.2881  -20.0519 O   0  0  0  0  0  0  0  0  0  0  0  0
   21.8242   -9.0487  -19.6723 C   0  0  0  0  0  0  0  0  0  0  0  0
   21.1826  -10.3834  -19.3486 C   0  0  2  0  0  0  0  0  0  0  0  0
   21.0186  -11.1627  -20.5382 N   0  0  0  0  0  0  0  0  0  0  0  0
   19.8669  -10.1963  -18.6689 C   0  0  0  0  0  0  0  0  0  0  0  0
   18.8137  -10.0034  -19.3170 O   0  0  0  0  0  0  0  0  0  0  0  0
   16.8903  -12.4134  -16.1441 C   0  0  0  0  0  0  0  0  0  0  0  0
   18.3357  -12.3677  -15.5945 C   0  0  2  0  0  0  0  0  0  0  0  0
   18.3316  -13.2339  -14.3834 C   0  0  0  0  0  0  0  0  0  0  0  0
   18.6221  -10.9359  -15.3623 C   0  0  0  0  0  0  0  0  0  0  0  0
   18.5345  -10.0024  -16.5158 C   0  0  2  0  0  0  0  0  0  0  0  0
   19.7946  -10.2353  -17.2691 N   0  0  0  0  0  0  0  0  0  0  0  0
   18.5154   -8.6098  -16.0790 C   0  0  0  0  0  0  0  0  0  0  0  0
   19.4957   -8.1576  -15.3792 O   0  0  0  0  0  0  0  0  0  0  0  0
   18.0670   -5.3060  -18.1353 C   0  0  0  0  0  0  0  0  0  0  0  0
   17.1230   -5.3009  -16.9776 C   0  0  1  0  0  0  0  0  0  0  0  0
   15.6964   -5.5305  -17.3334 C   0  0  0  0  0  0  0  0  0  0  0  0
   17.6387   -6.2578  -15.9254 C   0  0  2  0  0  0  0  0  0  0  0  0
   17.5123   -7.6379  -16.3395 N   0  0  0  0  0  0  0  0  0  0  0  0
   16.9795   -6.0753  -14.6310 C   0  0  0  0  0  0  0  0  0  0  0  0
   17.1891   -4.9867  -14.0037 O   0  0  0  0  0  0  0  0  0  0  0  0
   16.1489   -7.0207  -14.0656 O   0  0  0  0  0  0  0  0  0  0  0  0
  2  3  1  0
  2  1  1  0
  3  4  1  6
  5  3  1  0
  6  5  2  0
  8  7  1  1
  8 10  1  0
  9  8  1  0
 11 10  1  1
 11 13  1  0
 11 12  1  0
 12  5  1  0
 13 19  1  0
 14 13  2  0
 16 17  1  6
 16 15  1  0
 18 16  1  0
 18 20  1  0
 18 19  1  6
 20 21  2  0
 20 22  1  0
M  END
$$$$
