SLV.pdb
     RDKit          3D

 22 21  0  0  1  0  0  0  0  0999 V2000
   16.7215   -9.2686  -19.0364 O   0  0  0  0  0  0  0  0  0  0  0  0
   17.1757   -8.9257  -17.7718 C   0  0  0  0  0  0  0  0  0  0  0  0
   18.0062  -10.0800  -17.2468 C   0  0  2  0  0  0  0  0  0  0  0  0
   17.1593  -11.1346  -16.7778 N   0  0  0  0  0  0  0  0  0  0  0  0
   18.9224   -9.6309  -16.1574 C   0  0  0  0  0  0  0  0  0  0  0  0
   18.5128   -9.4426  -14.9898 O   0  0  0  0  0  0  0  0  0  0  0  0
   22.8838  -10.7444  -13.6808 C   0  0  0  0  0  0  0  0  0  0  0  0
   22.7751  -10.9496  -15.2104 C   0  0  2  0  0  0  0  0  0  0  0  0
   24.0547  -11.5912  -15.6205 C   0  0  0  0  0  0  0  0  0  0  0  0
   22.5198   -9.6049  -15.7695 C   0  0  0  0  0  0  0  0  0  0  0  0
   21.2463   -8.9240  -15.4168 C   0  0  2  0  0  0  0  0  0  0  0  0
   20.2790   -9.4107  -16.4352 N   0  0  0  0  0  0  0  0  0  0  0  0
   21.3578   -7.4748  -15.5500 C   0  0  0  0  0  0  0  0  0  0  0  0
   21.6962   -6.9727  -16.6851 O   0  0  0  0  0  0  0  0  0  0  0  0
   20.0374   -2.9201  -14.6567 C   0  0  0  0  0  0  0  0  0  0  0  0
   19.8565   -4.3973  -14.5280 C   0  0  1  0  0  0  0  0  0  0  0  0
   18.7228   -4.9587  -15.3117 C   0  0  0  0  0  0  0  0  0  0  0  0
   21.1774   -5.0761  -14.8166 C   0  0  2  0  0  0  0  0  0  0  0  0
   21.1273   -6.4961  -14.5462 N   0  0  0  0  0  0  0  0  0  0  0  0
   22.2885   -4.4778  -14.0745 C   0  0  0  0  0  0  0  0  0  0  0  0
   22.5725   -4.9641  -12.9321 O   0  0  0  0  0  0  0  0  0  0  0  0
   23.0352   -3.4209  -14.5530 O   0  0  0  0  0  0  0  0  0  0  0  0
  2  3  1  0
  2  1  1  0
  3  4  1  1
  5  3  1  0
  6  5  2  0
  8  7  1  1
  8 10  1  0
  9  8  1  0
 11 10  1  6
 11 13  1  0
 11 12  1  0
 12  5  1  0
 13 19  1  0
 14 13  2  0
 16 17  1  6
 16 15  1  0
 18 16  1  0
 18 20  1  0
 18 19  1  1
 20 21  2  0
 20 22  1  0
M  END
$$$$
