SLV.pdb
     RDKit          3D

 22 21  0  0  1  0  0  0  0  0999 V2000
   28.7375  -18.6966  -16.1456 O   0  0  0  0  0  0  0  0  0  0  0  0
   27.6836  -19.3857  -15.5646 C   0  0  0  0  0  0  0  0  0  0  0  0
   28.2598  -20.3278  -14.5262 C   0  0  2  0  0  0  0  0  0  0  0  0
   29.0347  -21.3542  -15.1552 N   0  0  0  0  0  0  0  0  0  0  0  0
   27.1802  -20.9339  -13.6927 C   0  0  0  0  0  0  0  0  0  0  0  0
   26.6508  -22.0268  -13.9960 O   0  0  0  0  0  0  0  0  0  0  0  0
   25.4109  -21.8229   -8.9148 C   0  0  0  0  0  0  0  0  0  0  0  0
   26.3511  -20.6508   -9.2835 C   0  0  2  0  0  0  0  0  0  0  0  0
   26.4654  -19.8254   -8.0495 C   0  0  0  0  0  0  0  0  0  0  0  0
   25.7178  -19.9903  -10.4448 C   0  0  0  0  0  0  0  0  0  0  0  0
   25.5989  -20.7554  -11.7138 C   0  0  2  0  0  0  0  0  0  0  0  0
   26.7381  -20.2730  -12.5378 N   0  0  0  0  0  0  0  0  0  0  0  0
   24.3604  -20.4378  -12.4179 C   0  0  0  0  0  0  0  0  0  0  0  0
   24.1516  -19.2296  -12.8075 O   0  0  0  0  0  0  0  0  0  0  0  0
   23.3890  -21.3768  -15.6744 C   0  0  0  0  0  0  0  0  0  0  0  0
   22.1639  -21.7131  -14.8886 C   0  0  1  0  0  0  0  0  0  0  0  0
   21.9217  -23.1693  -14.7012 C   0  0  0  0  0  0  0  0  0  0  0  0
   22.1921  -20.9391  -13.5890 C   0  0  2  0  0  0  0  0  0  0  0  0
   23.3047  -21.3285  -12.7507 N   0  0  0  0  0  0  0  0  0  0  0  0
   20.9448  -21.0673  -12.8335 C   0  0  0  0  0  0  0  0  0  0  0  0
   20.9874  -21.6652  -11.7097 O   0  0  0  0  0  0  0  0  0  0  0  0
   19.7363  -20.5737  -13.2800 O   0  0  0  0  0  0  0  0  0  0  0  0
  2  3  1  0
  2  1  1  0
  3  4  1  6
  5  3  1  0
  6  5  2  0
  8  7  1  1
  8 10  1  0
  9  8  1  0
 11 10  1  1
 11 13  1  0
 11 12  1  0
 12  5  1  0
 13 19  1  0
 14 13  2  0
 16 17  1  1
 16 15  1  0
 18 16  1  0
 18 20  1  0
 18 19  1  1
 20 21  2  0
 20 22  1  0
M  END
$$$$
