SLV.pdb
     RDKit          3D

 22 21  0  0  1  0  0  0  0  0999 V2000
   19.7800  -11.3876  -20.7535 O   0  0  0  0  0  0  0  0  0  0  0  0
   21.0682  -11.6521  -21.1938 C   0  0  0  0  0  0  0  0  0  0  0  0
   21.6900  -12.6519  -20.2391 C   0  0  2  0  0  0  0  0  0  0  0  0
   20.9188  -13.8575  -20.2031 N   0  0  0  0  0  0  0  0  0  0  0  0
   21.8154  -12.0783  -18.8668 C   0  0  0  0  0  0  0  0  0  0  0  0
   20.9356  -12.2603  -17.9954 O   0  0  0  0  0  0  0  0  0  0  0  0
   26.7055  -10.1385  -15.9515 C   0  0  0  0  0  0  0  0  0  0  0  0
   25.1685  -10.0582  -15.7941 C   0  0  2  0  0  0  0  0  0  0  0  0
   24.8605  -10.7480  -14.5110 C   0  0  0  0  0  0  0  0  0  0  0  0
   24.6159  -10.6868  -17.0129 C   0  0  0  0  0  0  0  0  0  0  0  0
   23.1400  -10.7069  -17.1896 C   0  0  2  0  0  0  0  0  0  0  0  0
   22.9423  -11.3142  -18.5318 N   0  0  0  0  0  0  0  0  0  0  0  0
   22.5839   -9.3576  -17.2134 C   0  0  0  0  0  0  0  0  0  0  0  0
   22.9662   -8.5368  -18.1274 O   0  0  0  0  0  0  0  0  0  0  0  0
   19.4737   -7.9257  -18.1420 C   0  0  0  0  0  0  0  0  0  0  0  0
   19.6794   -7.3790  -16.7672 C   0  0  1  0  0  0  0  0  0  0  0  0
   18.8138   -7.9833  -15.7183 C   0  0  0  0  0  0  0  0  0  0  0  0
   21.1540   -7.4411  -16.4347 C   0  0  2  0  0  0  0  0  0  0  0  0
   21.6270   -8.8033  -16.3215 N   0  0  0  0  0  0  0  0  0  0  0  0
   21.4838   -6.7077  -15.2114 C   0  0  0  0  0  0  0  0  0  0  0  0
   21.4151   -5.4361  -15.2421 O   0  0  0  0  0  0  0  0  0  0  0  0
   21.8618   -7.3263  -14.0376 O   0  0  0  0  0  0  0  0  0  0  0  0
  2  3  1  0
  2  1  1  0
  3  4  1  1
  5  3  1  0
  6  5  2  0
  8  7  1  6
  8 10  1  0
  9  8  1  0
 11 10  1  6
 11 13  1  0
 11 12  1  0
 12  5  1  0
 13 19  1  0
 14 13  2  0
 16 17  1  1
 16 15  1  0
 18 16  1  0
 18 20  1  0
 18 19  1  1
 20 21  2  0
 20 22  1  0
M  END
$$$$
