SLV.pdb
     RDKit          3D

 22 21  0  0  1  0  0  0  0  0999 V2000
   19.7113  -11.2890  -20.9556 O   0  0  0  0  0  0  0  0  0  0  0  0
   19.5171  -10.3266  -19.9763 C   0  0  0  0  0  0  0  0  0  0  0  0
   19.5861  -11.0149  -18.6274 C   0  0  2  0  0  0  0  0  0  0  0  0
   18.5085  -11.9463  -18.4840 N   0  0  0  0  0  0  0  0  0  0  0  0
   19.5600  -10.0203  -17.5148 C   0  0  0  0  0  0  0  0  0  0  0  0
   18.4938   -9.7044  -16.9403 O   0  0  0  0  0  0  0  0  0  0  0  0
   21.5395   -9.5091  -13.2520 C   0  0  0  0  0  0  0  0  0  0  0  0
   22.3876   -9.7819  -14.5168 C   0  0  2  0  0  0  0  0  0  0  0  0
   23.7824   -9.9706  -14.0310 C   0  0  0  0  0  0  0  0  0  0  0  0
   22.1640   -8.6160  -15.3982 C   0  0  0  0  0  0  0  0  0  0  0  0
   20.8122   -8.4250  -15.9866 C   0  0  2  0  0  0  0  0  0  0  0  0
   20.7530   -9.4167  -17.0922 N   0  0  0  0  0  0  0  0  0  0  0  0
   20.6607   -7.0919  -16.5614 C   0  0  0  0  0  0  0  0  0  0  0  0
   21.6006   -6.6158  -17.2996 O   0  0  0  0  0  0  0  0  0  0  0  0
   19.0363   -5.6987  -19.2971 C   0  0  0  0  0  0  0  0  0  0  0  0
   18.5221   -4.8553  -18.1766 C   0  0  1  0  0  0  0  0  0  0  0  0
   17.1270   -5.1576  -17.7560 C   0  0  0  0  0  0  0  0  0  0  0  0
   19.5147   -4.9043  -17.0359 C   0  0  2  0  0  0  0  0  0  0  0  0
   19.5584   -6.2081  -16.4113 N   0  0  0  0  0  0  0  0  0  0  0  0
   19.2497   -3.8855  -16.0186 C   0  0  0  0  0  0  0  0  0  0  0  0
   18.0882   -3.3637  -15.9861 O   0  0  0  0  0  0  0  0  0  0  0  0
   20.1929   -3.4692  -15.1017 O   0  0  0  0  0  0  0  0  0  0  0  0
  2  3  1  0
  2  1  1  0
  3  4  1  1
  5  3  1  0
  6  5  2  0
  8  7  1  1
  8 10  1  0
  9  8  1  0
 11 10  1  6
 11 13  1  0
 11 12  1  0
 12  5  1  0
 13 19  1  0
 14 13  2  0
 16 17  1  1
 16 15  1  0
 18 16  1  0
 18 20  1  0
 18 19  1  1
 20 21  2  0
 20 22  1  0
M  END
$$$$
