SLV.pdb
     RDKit          3D

 22 21  0  0  1  0  0  0  0  0999 V2000
   17.6322  -13.2196  -19.5037 O   0  0  0  0  0  0  0  0  0  0  0  0
   17.8287  -12.3026  -18.4822 C   0  0  0  0  0  0  0  0  0  0  0  0
   19.0507  -12.7358  -17.6967 C   0  0  2  0  0  0  0  0  0  0  0  0
   18.8061  -13.9817  -17.0354 N   0  0  0  0  0  0  0  0  0  0  0  0
   19.4485  -11.6942  -16.7044 C   0  0  0  0  0  0  0  0  0  0  0  0
   18.7334  -11.4229  -15.7137 O   0  0  0  0  0  0  0  0  0  0  0  0
   22.8056  -10.5292  -13.5752 C   0  0  0  0  0  0  0  0  0  0  0  0
   23.1537  -11.0328  -14.9960 C   0  0  2  0  0  0  0  0  0  0  0  0
   24.6375  -11.1529  -15.0262 C   0  0  0  0  0  0  0  0  0  0  0  0
   22.5685  -10.0374  -15.9195 C   0  0  0  0  0  0  0  0  0  0  0  0
   21.0888   -9.9019  -15.9658 C   0  0  2  0  0  0  0  0  0  0  0  0
   20.6515  -10.9942  -16.8742 N   0  0  0  0  0  0  0  0  0  0  0  0
   20.6847   -8.6294  -16.5556 C   0  0  0  0  0  0  0  0  0  0  0  0
   21.0880   -8.3299  -17.7400 O   0  0  0  0  0  0  0  0  0  0  0  0
   17.2452   -6.6132  -15.6686 C   0  0  0  0  0  0  0  0  0  0  0  0
   17.9754   -6.4092  -16.9557 C   0  0  1  0  0  0  0  0  0  0  0  0
   17.5423   -5.2199  -17.7383 C   0  0  0  0  0  0  0  0  0  0  0  0
   19.4628   -6.4349  -16.6804 C   0  0  2  0  0  0  0  0  0  0  0  0
   19.8617   -7.6301  -15.9701 N   0  0  0  0  0  0  0  0  0  0  0  0
   19.9162   -5.2551  -15.9418 C   0  0  0  0  0  0  0  0  0  0  0  0
   20.0731   -5.3643  -14.6825 O   0  0  0  0  0  0  0  0  0  0  0  0
   20.1792   -4.0415  -16.5431 O   0  0  0  0  0  0  0  0  0  0  0  0
  2  3  1  0
  2  1  1  0
  3  4  1  1
  5  3  1  0
  6  5  2  0
  8  7  1  1
  8 10  1  0
  9  8  1  0
 11 10  1  6
 11 13  1  0
 11 12  1  0
 12  5  1  0
 13 19  1  0
 14 13  2  0
 16 17  1  1
 16 15  1  0
 18 16  1  0
 18 20  1  0
 18 19  1  1
 20 21  2  0
 20 22  1  0
M  END
$$$$
