SLV.pdb
     RDKit          3D

 22 21  0  0  1  0  0  0  0  0999 V2000
   27.2363  -19.1706  -15.4135 O   0  0  0  0  0  0  0  0  0  0  0  0
   28.0435  -18.9251  -14.3130 C   0  0  0  0  0  0  0  0  0  0  0  0
   28.3997  -20.2604  -13.6901 C   0  0  2  0  0  0  0  0  0  0  0  0
   28.8924  -21.1630  -14.6862 N   0  0  0  0  0  0  0  0  0  0  0  0
   27.2247  -20.8569  -12.9892 C   0  0  0  0  0  0  0  0  0  0  0  0
   26.6550  -21.8850  -13.4193 O   0  0  0  0  0  0  0  0  0  0  0  0
   26.6874  -21.6546   -8.4446 C   0  0  0  0  0  0  0  0  0  0  0  0
   26.7328  -20.1834   -8.9212 C   0  0  2  0  0  0  0  0  0  0  0  0
   26.7319  -19.3601   -7.6805 C   0  0  0  0  0  0  0  0  0  0  0  0
   25.5580  -20.0204   -9.8040 C   0  0  0  0  0  0  0  0  0  0  0  0
   25.5370  -20.7584  -11.0943 C   0  0  2  0  0  0  0  0  0  0  0  0
   26.7361  -20.2605  -11.8180 N   0  0  0  0  0  0  0  0  0  0  0  0
   24.3563  -20.4240  -11.8846 C   0  0  0  0  0  0  0  0  0  0  0  0
   24.2469  -19.2423  -12.3812 O   0  0  0  0  0  0  0  0  0  0  0  0
   22.4557  -23.2391  -14.0575 C   0  0  0  0  0  0  0  0  0  0  0  0
   22.4714  -21.8007  -14.4603 C   0  0  1  0  0  0  0  0  0  0  0  0
   21.5310  -21.4490  -15.5587 C   0  0  0  0  0  0  0  0  0  0  0  0
   22.2931  -20.9474  -13.2239 C   0  0  2  0  0  0  0  0  0  0  0  0
   23.2598  -21.2715  -12.1979 N   0  0  0  0  0  0  0  0  0  0  0  0
   20.9422  -21.0424  -12.6677 C   0  0  0  0  0  0  0  0  0  0  0  0
   19.9792  -20.5756  -13.3584 O   0  0  0  0  0  0  0  0  0  0  0  0
   20.6680  -21.6100  -11.4405 O   0  0  0  0  0  0  0  0  0  0  0  0
  2  3  1  0
  2  1  1  0
  3  4  1  6
  5  3  1  0
  6  5  2  0
  8  7  1  1
  8 10  1  0
  9  8  1  0
 11 10  1  1
 11 13  1  0
 11 12  1  0
 12  5  1  0
 13 19  1  0
 14 13  2  0
 16 17  1  6
 16 15  1  0
 18 16  1  0
 18 20  1  0
 18 19  1  1
 20 21  2  0
 20 22  1  0
M  END
$$$$
