SLV.pdb
     RDKit          3D

 22 21  0  0  1  0  0  0  0  0999 V2000
   18.5154  -10.3252  -14.6126 O   0  0  0  0  0  0  0  0  0  0  0  0
   17.5135   -9.3929  -14.3890 C   0  0  0  0  0  0  0  0  0  0  0  0
   18.0746   -8.3151  -13.4827 C   0  0  2  0  0  0  0  0  0  0  0  0
   18.8826   -8.8959  -12.4534 N   0  0  0  0  0  0  0  0  0  0  0  0
   16.9813   -7.4967  -12.8803 C   0  0  0  0  0  0  0  0  0  0  0  0
   16.1084   -6.9440  -13.5868 O   0  0  0  0  0  0  0  0  0  0  0  0
   14.9641   -7.4435   -7.2035 C   0  0  0  0  0  0  0  0  0  0  0  0
   14.7682   -6.6289   -8.5041 C   0  0  2  0  0  0  0  0  0  0  0  0
   13.3267   -6.7678   -8.8506 C   0  0  0  0  0  0  0  0  0  0  0  0
   15.7231   -7.2044   -9.4752 C   0  0  0  0  0  0  0  0  0  0  0  0
   15.8448   -6.5626  -10.8105 C   0  0  2  0  0  0  0  0  0  0  0  0
   16.9186   -7.3346  -11.4890 N   0  0  0  0  0  0  0  0  0  0  0  0
   16.2816   -5.1742  -10.7008 C   0  0  0  0  0  0  0  0  0  0  0  0
   17.4670   -4.9209  -10.2699 O   0  0  0  0  0  0  0  0  0  0  0  0
   16.5551   -2.4031  -13.3154 C   0  0  0  0  0  0  0  0  0  0  0  0
   15.7926   -1.8460  -12.1580 C   0  0  1  0  0  0  0  0  0  0  0  0
   14.3356   -1.6629  -12.3993 C   0  0  0  0  0  0  0  0  0  0  0  0
   16.0960   -2.6767  -10.9306 C   0  0  2  0  0  0  0  0  0  0  0  0
   15.5381   -4.0079  -11.0259 N   0  0  0  0  0  0  0  0  0  0  0  0
   15.6324   -2.0417   -9.6957 C   0  0  0  0  0  0  0  0  0  0  0  0
   14.5601   -2.4801   -9.1662 O   0  0  0  0  0  0  0  0  0  0  0  0
   16.2991   -0.9994   -9.0851 O   0  0  0  0  0  0  0  0  0  0  0  0
  2  3  1  0
  2  1  1  0
  3  4  1  1
  5  3  1  0
  6  5  2  0
  8  7  1  1
  8 10  1  0
  9  8  1  0
 11 10  1  1
 11 13  1  0
 11 12  1  0
 12  5  1  0
 13 19  1  0
 14 13  2  0
 16 17  1  6
 16 15  1  0
 18 16  1  0
 18 20  1  0
 18 19  1  6
 20 21  2  0
 20 22  1  0
M  END
$$$$
