SLV.pdb
     RDKit          3D

 22 21  0  0  1  0  0  0  0  0999 V2000
   17.8671  -13.0315  -19.1426 O   0  0  0  0  0  0  0  0  0  0  0  0
   17.8915  -11.9740  -18.2458 C   0  0  0  0  0  0  0  0  0  0  0  0
   18.9427  -12.2778  -17.1968 C   0  0  2  0  0  0  0  0  0  0  0  0
   18.5571  -13.4128  -16.4142 N   0  0  0  0  0  0  0  0  0  0  0  0
   19.1771  -11.0976  -16.3135 C   0  0  0  0  0  0  0  0  0  0  0  0
   18.3985  -10.8134  -15.3757 O   0  0  0  0  0  0  0  0  0  0  0  0
   22.3639   -9.7232  -13.2126 C   0  0  0  0  0  0  0  0  0  0  0  0
   22.7671  -10.1906  -14.6311 C   0  0  2  0  0  0  0  0  0  0  0  0
   24.2556  -10.2294  -14.6322 C   0  0  0  0  0  0  0  0  0  0  0  0
   22.1468   -9.2181  -15.5559 C   0  0  0  0  0  0  0  0  0  0  0  0
   20.6631   -9.1570  -15.6247 C   0  0  2  0  0  0  0  0  0  0  0  0
   20.2941  -10.2777  -16.5287 N   0  0  0  0  0  0  0  0  0  0  0  0
   20.2049   -7.9115  -16.2325 C   0  0  0  0  0  0  0  0  0  0  0  0
   20.6200   -7.5968  -17.4088 O   0  0  0  0  0  0  0  0  0  0  0  0
   17.0793   -4.2925  -17.0546 C   0  0  0  0  0  0  0  0  0  0  0  0
   17.4105   -5.6193  -16.4534 C   0  0  1  0  0  0  0  0  0  0  0  0
   16.7439   -6.7822  -17.0997 C   0  0  0  0  0  0  0  0  0  0  0  0
   18.9152   -5.7576  -16.3790 C   0  0  2  0  0  0  0  0  0  0  0  0
   19.3149   -6.9554  -15.6736 N   0  0  0  0  0  0  0  0  0  0  0  0
   19.5549   -4.5934  -15.7637 C   0  0  0  0  0  0  0  0  0  0  0  0
   19.7622   -4.6221  -14.5073 O   0  0  0  0  0  0  0  0  0  0  0  0
   19.9402   -3.4772  -16.4771 O   0  0  0  0  0  0  0  0  0  0  0  0
  2  3  1  0
  2  1  1  0
  3  4  1  1
  5  3  1  0
  6  5  2  0
  8  7  1  1
  8 10  1  0
  9  8  1  0
 11 10  1  6
 11 13  1  0
 11 12  1  0
 12  5  1  0
 13 19  1  0
 14 13  2  0
 16 17  1  6
 16 15  1  0
 18 16  1  0
 18 20  1  0
 18 19  1  1
 20 21  2  0
 20 22  1  0
M  END
$$$$
