SLV.pdb
     RDKit          3D

 22 21  0  0  1  0  0  0  0  0999 V2000
   26.7730  -19.3192  -17.4949 O   0  0  0  0  0  0  0  0  0  0  0  0
   26.9470  -18.8006  -16.2206 C   0  0  0  0  0  0  0  0  0  0  0  0
   27.5181  -19.8987  -15.3454 C   0  0  2  0  0  0  0  0  0  0  0  0
   28.3497  -20.7728  -16.1160 N   0  0  0  0  0  0  0  0  0  0  0  0
   26.4310  -20.6750  -14.6795 C   0  0  0  0  0  0  0  0  0  0  0  0
   26.0267  -21.7668  -15.1388 O   0  0  0  0  0  0  0  0  0  0  0  0
   25.9338  -22.2169  -10.3761 C   0  0  0  0  0  0  0  0  0  0  0  0
   25.9939  -20.6844  -10.5794 C   0  0  2  0  0  0  0  0  0  0  0  0
   26.0138  -20.0990   -9.2104 C   0  0  0  0  0  0  0  0  0  0  0  0
   24.8140  -20.3516  -11.4059 C   0  0  0  0  0  0  0  0  0  0  0  0
   24.7477  -20.8891  -12.7903 C   0  0  2  0  0  0  0  0  0  0  0  0
   25.8389  -20.1802  -13.5087 N   0  0  0  0  0  0  0  0  0  0  0  0
   23.4829  -20.5528  -13.4365 C   0  0  0  0  0  0  0  0  0  0  0  0
   23.2042  -19.3182  -13.6670 O   0  0  0  0  0  0  0  0  0  0  0  0
   20.0050  -22.4084  -16.1422 C   0  0  0  0  0  0  0  0  0  0  0  0
   21.2679  -21.6231  -16.0019 C   0  0  1  0  0  0  0  0  0  0  0  0
   21.5130  -20.6346  -17.0870 C   0  0  0  0  0  0  0  0  0  0  0  0
   21.3112  -21.0148  -14.6174 C   0  0  2  0  0  0  0  0  0  0  0  0
   22.4705  -21.4504  -13.8702 N   0  0  0  0  0  0  0  0  0  0  0  0
   20.1000  -21.2949  -13.8444 C   0  0  0  0  0  0  0  0  0  0  0  0
   20.1643  -22.1882  -12.9387 O   0  0  0  0  0  0  0  0  0  0  0  0
   18.9030  -20.6405  -14.0507 O   0  0  0  0  0  0  0  0  0  0  0  0
  2  3  1  0
  2  1  1  0
  3  4  1  6
  5  3  1  0
  6  5  2  0
  8  7  1  1
  8 10  1  0
  9  8  1  0
 11 10  1  1
 11 13  1  0
 11 12  1  0
 12  5  1  0
 13 19  1  0
 14 13  2  0
 16 17  1  6
 16 15  1  0
 18 16  1  0
 18 20  1  0
 18 19  1  1
 20 21  2  0
 20 22  1  0
M  END
$$$$
