SLV.pdb
     RDKit          3D

 22 21  0  0  1  0  0  0  0  0999 V2000
   43.6040   -9.4154   -4.3148 O   0  0  0  0  0  0  0  0  0  0  0  0
   43.1383   -9.0402   -5.5660 C   0  0  0  0  0  0  0  0  0  0  0  0
   42.8582  -10.3031   -6.3561 C   0  0  2  0  0  0  0  0  0  0  0  0
   44.0680  -10.8207   -6.9198 N   0  0  0  0  0  0  0  0  0  0  0  0
   41.8538  -10.0525   -7.4315 C   0  0  0  0  0  0  0  0  0  0  0  0
   42.1981   -9.8401   -8.6159 O   0  0  0  0  0  0  0  0  0  0  0  0
   38.1705  -12.4229   -8.9364 C   0  0  0  0  0  0  0  0  0  0  0  0
   38.1811  -11.9271   -7.4709 C   0  0  2  0  0  0  0  0  0  0  0  0
   36.9653  -12.5122   -6.8411 C   0  0  0  0  0  0  0  0  0  0  0  0
   38.2166  -10.4515   -7.5561 C   0  0  0  0  0  0  0  0  0  0  0  0
   39.4256   -9.8066   -8.1326 C   0  0  2  0  0  0  0  0  0  0  0  0
   40.4865  -10.0520   -7.1208 N   0  0  0  0  0  0  0  0  0  0  0  0
   39.2508   -8.3639   -8.2689 C   0  0  0  0  0  0  0  0  0  0  0  0
   38.9032   -7.6734   -7.2406 O   0  0  0  0  0  0  0  0  0  0  0  0
   40.8690   -6.0024  -11.3755 C   0  0  0  0  0  0  0  0  0  0  0  0
   40.6873   -5.5427   -9.9659 C   0  0  1  0  0  0  0  0  0  0  0  0
   40.7844   -4.0705   -9.7711 C   0  0  0  0  0  0  0  0  0  0  0  0
   39.4054   -6.1347   -9.4227 C   0  0  2  0  0  0  0  0  0  0  0  0
   39.4260   -7.5809   -9.4415 N   0  0  0  0  0  0  0  0  0  0  0  0
   38.2205   -5.6552  -10.1363 C   0  0  0  0  0  0  0  0  0  0  0  0
   37.7110   -6.4143  -11.0231 O   0  0  0  0  0  0  0  0  0  0  0  0
   37.6360   -4.4293   -9.8931 O   0  0  0  0  0  0  0  0  0  0  0  0
  2  3  1  0
  2  1  1  0
  3  4  1  6
  5  3  1  0
  6  5  2  0
  8  7  1  6
  8 10  1  0
  9  8  1  0
 11 10  1  1
 11 13  1  0
 11 12  1  0
 12  5  1  0
 13 19  1  0
 14 13  2  0
 16 17  1  6
 16 15  1  0
 18 16  1  0
 18 20  1  0
 18 19  1  6
 20 21  2  0
 20 22  1  0
M  END
$$$$
