SLV.pdb
     RDKit          3D

 22 21  0  0  1  0  0  0  0  0999 V2000
   21.5363   -9.6452  -21.8058 O   0  0  0  0  0  0  0  0  0  0  0  0
   21.0497   -9.4777  -20.5180 C   0  0  0  0  0  0  0  0  0  0  0  0
   21.5457  -10.6383  -19.6785 C   0  0  2  0  0  0  0  0  0  0  0  0
   20.6997  -11.7801  -19.8515 N   0  0  0  0  0  0  0  0  0  0  0  0
   21.6193  -10.2646  -18.2353 C   0  0  0  0  0  0  0  0  0  0  0  0
   20.6113  -10.3018  -17.4944 O   0  0  0  0  0  0  0  0  0  0  0  0
   23.6511  -12.1244  -14.7993 C   0  0  0  0  0  0  0  0  0  0  0  0
   24.5566  -11.5888  -15.9336 C   0  0  2  0  0  0  0  0  0  0  0  0
   25.9279  -12.0729  -15.6141 C   0  0  0  0  0  0  0  0  0  0  0  0
   24.3720  -10.1219  -15.9235 C   0  0  0  0  0  0  0  0  0  0  0  0
   23.0239   -9.5780  -16.2342 C   0  0  2  0  0  0  0  0  0  0  0  0
   22.8426   -9.8597  -17.6824 N   0  0  0  0  0  0  0  0  0  0  0  0
   22.9709   -8.1322  -16.0410 C   0  0  0  0  0  0  0  0  0  0  0  0
   23.7981   -7.3824  -16.6803 O   0  0  0  0  0  0  0  0  0  0  0  0
   20.8497   -5.6129  -17.2017 C   0  0  0  0  0  0  0  0  0  0  0  0
   20.8448   -5.3535  -15.7307 C   0  0  1  0  0  0  0  0  0  0  0  0
   19.5945   -5.7535  -15.0296 C   0  0  0  0  0  0  0  0  0  0  0  0
   22.0908   -5.9616  -15.1254 C   0  0  2  0  0  0  0  0  0  0  0  0
   22.0819   -7.4059  -15.2039 N   0  0  0  0  0  0  0  0  0  0  0  0
   22.2964   -5.5506  -13.7355 C   0  0  0  0  0  0  0  0  0  0  0  0
   22.1220   -6.4231  -12.8240 O   0  0  0  0  0  0  0  0  0  0  0  0
   22.6675   -4.2725  -13.3719 O   0  0  0  0  0  0  0  0  0  0  0  0
  2  3  1  0
  2  1  1  0
  3  4  1  1
  5  3  1  0
  6  5  2  0
  8  7  1  1
  8 10  1  0
  9  8  1  0
 11 10  1  6
 11 13  1  0
 11 12  1  0
 12  5  1  0
 13 19  1  0
 14 13  2  0
 16 17  1  1
 16 15  1  0
 18 16  1  0
 18 20  1  0
 18 19  1  1
 20 21  2  0
 20 22  1  0
M  END
$$$$
