SLV.pdb
     RDKit          3D

 22 21  0  0  1  0  0  0  0  0999 V2000
   28.5579  -18.6021  -17.0942 O   0  0  0  0  0  0  0  0  0  0  0  0
   27.5539  -19.3006  -16.4407 C   0  0  0  0  0  0  0  0  0  0  0  0
   28.2055  -20.4061  -15.6338 C   0  0  2  0  0  0  0  0  0  0  0  0
   28.7595  -21.4008  -16.5017 N   0  0  0  0  0  0  0  0  0  0  0  0
   27.2307  -21.0292  -14.6908 C   0  0  0  0  0  0  0  0  0  0  0  0
   26.5565  -22.0340  -15.0110 O   0  0  0  0  0  0  0  0  0  0  0  0
   26.0572  -19.6541   -8.8830 C   0  0  0  0  0  0  0  0  0  0  0  0
   25.4479  -20.4978  -10.0278 C   0  0  2  0  0  0  0  0  0  0  0  0
   25.3377  -21.8821   -9.4905 C   0  0  0  0  0  0  0  0  0  0  0  0
   26.3640  -20.3224  -11.1750 C   0  0  0  0  0  0  0  0  0  0  0  0
   25.9920  -20.9381  -12.4759 C   0  0  2  0  0  0  0  0  0  0  0  0
   27.0556  -20.4853  -13.4103 N   0  0  0  0  0  0  0  0  0  0  0  0
   24.7122  -20.4322  -12.9625 C   0  0  0  0  0  0  0  0  0  0  0  0
   24.5788  -19.1722  -13.1856 O   0  0  0  0  0  0  0  0  0  0  0  0
   22.9854  -20.5007  -16.0809 C   0  0  0  0  0  0  0  0  0  0  0  0
   21.9727  -21.0413  -15.1250 C   0  0  1  0  0  0  0  0  0  0  0  0
   21.7519  -22.5103  -15.2131 C   0  0  0  0  0  0  0  0  0  0  0  0
   22.3214  -20.5714  -13.7299 C   0  0  2  0  0  0  0  0  0  0  0  0
   23.5379  -21.1820  -13.2407 N   0  0  0  0  0  0  0  0  0  0  0  0
   21.2391  -20.8069  -12.7726 C   0  0  0  0  0  0  0  0  0  0  0  0
   21.4267  -21.6793  -11.8637 O   0  0  0  0  0  0  0  0  0  0  0  0
   20.0362  -20.1322  -12.8103 O   0  0  0  0  0  0  0  0  0  0  0  0
  2  3  1  0
  2  1  1  0
  3  4  1  6
  5  3  1  0
  6  5  2  0
  8  7  1  1
  8 10  1  0
  9  8  1  0
 11 10  1  1
 11 13  1  0
 11 12  1  0
 12  5  1  0
 13 19  1  0
 14 13  2  0
 16 17  1  1
 16 15  1  0
 18 16  1  0
 18 20  1  0
 18 19  1  1
 20 21  2  0
 20 22  1  0
M  END
$$$$
