RCV.pdb
     RDKit          3D

 25 24  0  0  1  0  0  0  0  0999 V2000
    9.0101  -15.4989   15.1187 N   0  0  0  0  0  0  0  0  0  0  0  0
    8.7491  -16.7672   15.6914 C   0  0  0  0  0  0  0  0  0  0  0  0
    7.8219  -17.5048   15.1447 N   0  0  0  0  0  0  0  0  0  0  0  0
    9.4414  -17.2579   16.8103 N   0  0  0  0  0  0  0  0  0  0  0  0
    8.9291  -17.0442   18.1655 C   0  0  0  0  0  0  0  0  0  0  0  0
    9.0625  -15.5898   18.5026 C   0  0  0  0  0  0  0  0  0  0  0  0
    8.5258  -15.2066   19.8345 C   0  0  0  0  0  0  0  0  0  0  0  0
    8.7225  -16.1747   20.9455 C   0  0  2  0  0  0  0  0  0  0  0  0
    7.7331  -17.2264   21.0243 N   0  0  0  0  0  0  0  0  0  0  0  0
    8.6891  -15.3598   22.2183 C   0  0  0  0  0  0  0  0  0  0  0  0
    9.3430  -14.2973   22.3481 O   0  0  0  0  0  0  0  0  0  0  0  0
    7.6186  -18.4683   15.4389 N   0  0  0  0  0  0  0  0  0  0  0  0
    7.9089  -15.7688   23.3254 C   0  0  1  0  0  0  0  0  0  0  0  0
    7.8583  -15.0354   24.5894 C   0  0  0  0  0  0  0  0  0  0  0  0
    6.4296  -15.1129   25.1345 S   0  0  0  0  0  0  0  0  0  0  0  0
    6.3023  -14.0707   26.5911 C   0  0  0  0  0  0  0  0  0  0  0  0
    8.8801  -15.5036   25.5181 O   0  0  0  0  0  0  0  0  0  0  0  0
    9.3236  -16.6956   25.3696 C   0  0  0  0  0  0  0  0  0  0  0  0
   10.6676  -12.9784   28.2078 C   0  0  1  0  0  0  0  0  0  0  0  0
   10.4959  -14.4152   28.6904 C   0  0  0  0  0  0  0  0  0  0  0  0
   11.5975  -14.7993   29.6494 C   0  0  2  0  0  0  0  0  0  0  0  0
   10.4135  -15.3552   27.5091 N   0  0  0  0  0  0  0  0  0  0  0  0
    9.4469  -14.7787   26.5782 C   0  0  0  0  0  0  0  0  0  0  0  0
   10.0125  -16.7307   27.9030 O   0  0  0  0  0  0  0  0  0  0  0  0
   11.0080  -17.6834   28.1468 O   0  0  0  0  0  0  0  0  0  0  0  0
  2  1  1  0
  3  2  2  0
  4  2  1  0
  5  6  1  0
  5  4  1  0
  7  6  1  0
  8  7  1  0
  8 10  1  0
  8  9  1  1
 10 12  1  0
 10 11  2  0
 12 13  1  0
 13 14  1  6
 14 15  1  0
 16 17  2  0
 16 13  1  0
 19 18  1  1
 19 21  1  0
 19 20  1  0
 21 22  1  6
 22 16  1  0
 23 21  1  0
 24 23  1  0
 25 23  2  0
M  END
$$$$
