RCV.pdb
     RDKit          3D

 25 24  0  0  1  0  0  0  0  0999 V2000
    6.6207  -13.3295   20.3014 N   0  0  0  0  0  0  0  0  0  0  0  0
    7.7477  -13.1372   19.4663 C   0  0  0  0  0  0  0  0  0  0  0  0
    8.4277  -12.0321   19.6034 N   0  0  0  0  0  0  0  0  0  0  0  0
    8.1590  -14.0781   18.5085 N   0  0  0  0  0  0  0  0  0  0  0  0
    8.8240  -15.3195   18.9102 C   0  0  0  0  0  0  0  0  0  0  0  0
   10.0248  -14.9720   19.7372 C   0  0  0  0  0  0  0  0  0  0  0  0
   10.9005  -16.1231   20.0797 C   0  0  0  0  0  0  0  0  0  0  0  0
   10.3067  -17.1963   20.9198 C   0  0  2  0  0  0  0  0  0  0  0  0
    9.3346  -18.0317   20.2500 N   0  0  0  0  0  0  0  0  0  0  0  0
    9.6460  -16.4953   22.0847 C   0  0  0  0  0  0  0  0  0  0  0  0
    9.8003  -15.2694   22.3008 O   0  0  0  0  0  0  0  0  0  0  0  0
    9.1641  -11.7360   18.9506 N   0  0  0  0  0  0  0  0  0  0  0  0
    8.8172  -17.2034   22.9867 C   0  0  1  0  0  0  0  0  0  0  0  0
    8.1786  -16.5853   24.1478 C   0  0  0  0  0  0  0  0  0  0  0  0
    6.9949  -17.4602   24.5692 S   0  0  0  0  0  0  0  0  0  0  0  0
    7.5565  -18.6589   25.7824 C   0  0  0  0  0  0  0  0  0  0  0  0
    9.1420  -16.3280   25.2115 O   0  0  0  0  0  0  0  0  0  0  0  0
   10.3138  -16.8304   25.0926 C   0  0  0  0  0  0  0  0  0  0  0  0
    9.1550  -12.9942   27.3335 C   0  0  1  0  0  0  0  0  0  0  0  0
    9.5041  -14.1814   28.2253 C   0  0  0  0  0  0  0  0  0  0  0  0
   10.5279  -13.7941   29.2658 C   0  0  2  0  0  0  0  0  0  0  0  0
    9.9608  -15.3501   27.3819 N   0  0  0  0  0  0  0  0  0  0  0  0
    8.9263  -15.5733   26.3753 C   0  0  0  0  0  0  0  0  0  0  0  0
   10.1890  -16.5782   28.1866 O   0  0  0  0  0  0  0  0  0  0  0  0
   11.4682  -16.8264   28.6967 O   0  0  0  0  0  0  0  0  0  0  0  0
  2  1  1  0
  3  2  2  0
  4  2  1  0
  5  6  1  0
  5  4  1  0
  7  6  1  0
  8  7  1  0
  8 10  1  0
  8  9  1  6
 10 12  1  0
 10 11  2  0
 12 13  1  0
 13 14  1  1
 14 15  1  0
 16 17  2  0
 16 13  1  0
 19 18  1  1
 19 21  1  0
 19 20  1  0
 21 22  1  6
 22 16  1  0
 23 21  1  0
 24 23  1  0
 25 23  2  0
M  END
$$$$
