RCV.pdb
     RDKit          3D

 25 24  0  0  1  0  0  0  0  0999 V2000
   11.5532  -15.4964   17.5498 N   0  0  0  0  0  0  0  0  0  0  0  0
   10.9738  -15.9267   16.3318 C   0  0  0  0  0  0  0  0  0  0  0  0
   11.7544  -16.4863   15.4484 N   0  0  0  0  0  0  0  0  0  0  0  0
    9.6082  -15.7785   16.0404 N   0  0  0  0  0  0  0  0  0  0  0  0
    8.6000  -15.8545   17.0999 C   0  0  0  0  0  0  0  0  0  0  0  0
    9.2136  -15.3695   18.3785 C   0  0  0  0  0  0  0  0  0  0  0  0
    8.2979  -15.3704   19.5493 C   0  0  0  0  0  0  0  0  0  0  0  0
    7.6494  -16.6618   19.8980 C   0  0  2  0  0  0  0  0  0  0  0  0
    6.6329  -17.1073   18.9708 N   0  0  0  0  0  0  0  0  0  0  0  0
    7.0293  -16.4611   21.2619 C   0  0  0  0  0  0  0  0  0  0  0  0
    5.9207  -15.8945   21.4143 O   0  0  0  0  0  0  0  0  0  0  0  0
   11.4387  -16.7676   14.5117 N   0  0  0  0  0  0  0  0  0  0  0  0
    7.6829  -16.9110   22.4333 C   0  0  2  0  0  0  0  0  0  0  0  0
    7.1117  -16.7837   23.7732 C   0  0  0  0  0  0  0  0  0  0  0  0
    6.9080  -18.1891   24.3456 S   0  0  0  0  0  0  0  0  0  0  0  0
    6.3088  -18.0521   26.0327 C   0  0  0  0  0  0  0  0  0  0  0  0
    7.9161  -15.9052   24.6139 O   0  0  0  0  0  0  0  0  0  0  0  0
    9.1898  -16.0230   24.5571 C   0  0  0  0  0  0  0  0  0  0  0  0
    6.3829  -12.8905   27.3055 C   0  0  1  0  0  0  0  0  0  0  0  0
    7.7140  -12.8058   26.5654 C   0  0  0  0  0  0  0  0  0  0  0  0
    7.5522  -12.1008   25.2397 C   0  0  1  0  0  0  0  0  0  0  0  0
    8.3121  -14.1855   26.4093 N   0  0  0  0  0  0  0  0  0  0  0  0
    7.4418  -14.9216   25.4961 C   0  0  0  0  0  0  0  0  0  0  0  0
    8.4424  -14.8995   27.7060 O   0  0  0  0  0  0  0  0  0  0  0  0
    7.6379  -16.0186   27.9474 O   0  0  0  0  0  0  0  0  0  0  0  0
  2  1  1  0
  3  2  2  0
  4  2  1  0
  5  6  1  0
  5  4  1  0
  7  6  1  0
  8  7  1  0
  8 10  1  0
  8  9  1  6
 10 12  1  0
 10 11  2  0
 12 13  1  0
 13 14  1  6
 14 15  1  0
 16 17  2  0
 16 13  1  0
 19 18  1  1
 19 21  1  0
 19 20  1  0
 21 22  1  6
 22 16  1  0
 23 21  1  0
 24 23  1  0
 25 23  2  0
M  END
$$$$
