RCV.pdb
     RDKit          3D

 25 24  0  0  1  0  0  0  0  0999 V2000
    7.4729  -12.5913   17.4403 N   0  0  0  0  0  0  0  0  0  0  0  0
    8.4378  -13.6196   17.5670 C   0  0  0  0  0  0  0  0  0  0  0  0
    9.6914  -13.3063   17.3854 N   0  0  0  0  0  0  0  0  0  0  0  0
    8.1036  -14.9475   17.8783 N   0  0  0  0  0  0  0  0  0  0  0  0
    6.8996  -15.2590   18.6517 C   0  0  0  0  0  0  0  0  0  0  0  0
    6.9250  -14.4578   19.9182 C   0  0  0  0  0  0  0  0  0  0  0  0
    6.5931  -15.2242   21.1477 C   0  0  0  0  0  0  0  0  0  0  0  0
    7.6995  -15.9810   21.7905 C   0  0  2  0  0  0  0  0  0  0  0  0
    7.7805  -17.3777   21.4242 N   0  0  0  0  0  0  0  0  0  0  0  0
    7.4709  -15.8670   23.2805 C   0  0  0  0  0  0  0  0  0  0  0  0
    7.2352  -14.7682   23.8375 O   0  0  0  0  0  0  0  0  0  0  0  0
   10.4557  -13.9930   17.4104 N   0  0  0  0  0  0  0  0  0  0  0  0
    7.5137  -17.0094   24.1140 C   0  0  2  0  0  0  0  0  0  0  0  0
    7.3999  -16.9478   25.5705 C   0  0  0  0  0  0  0  0  0  0  0  0
    6.7319  -18.2369   26.0565 S   0  0  0  0  0  0  0  0  0  0  0  0
    8.0028  -19.3940   26.5762 C   0  0  0  0  0  0  0  0  0  0  0  0
    8.6879  -16.6685   26.1940 O   0  0  0  0  0  0  0  0  0  0  0  0
    9.7470  -16.9250   25.5217 C   0  0  0  0  0  0  0  0  0  0  0  0
    9.3071  -14.1978   29.5322 C   0  0  1  0  0  0  0  0  0  0  0  0
   10.3571  -14.5319   28.4775 C   0  0  0  0  0  0  0  0  0  0  0  0
   10.2636  -13.5877   27.3026 C   0  0  1  0  0  0  0  0  0  0  0  0
   10.2326  -15.9792   28.0585 N   0  0  0  0  0  0  0  0  0  0  0  0
    8.9028  -16.1364   27.4751 C   0  0  0  0  0  0  0  0  0  0  0  0
   10.4266  -16.9190   29.1930 O   0  0  0  0  0  0  0  0  0  0  0  0
   11.7102  -17.0834   29.7253 O   0  0  0  0  0  0  0  0  0  0  0  0
  2  1  1  0
  3  2  2  0
  4  2  1  0
  5  6  1  0
  5  4  1  0
  7  6  1  0
  8  7  1  0
  8 10  1  0
  8  9  1  6
 10 12  1  0
 10 11  2  0
 12 13  1  0
 13 14  1  6
 14 15  1  0
 16 17  2  0
 16 13  1  0
 19 18  1  1
 19 21  1  0
 19 20  1  0
 21 22  1  6
 22 16  1  0
 23 21  1  0
 24 23  1  0
 25 23  2  0
M  END
$$$$
