RCV.pdb
     RDKit          3D

 25 24  0  0  1  0  0  0  0  0999 V2000
    8.2204  -13.3440   17.7472 N   0  0  0  0  0  0  0  0  0  0  0  0
    8.4433  -13.2397   19.1414 C   0  0  0  0  0  0  0  0  0  0  0  0
    9.0023  -12.1494   19.5904 N   0  0  0  0  0  0  0  0  0  0  0  0
    8.0897  -14.2503   20.0500 N   0  0  0  0  0  0  0  0  0  0  0  0
    7.9164  -15.6349   19.6055 C   0  0  0  0  0  0  0  0  0  0  0  0
    6.4499  -15.9410   19.5573 C   0  0  0  0  0  0  0  0  0  0  0  0
    5.8498  -16.3250   20.8617 C   0  0  0  0  0  0  0  0  0  0  0  0
    6.0669  -17.7227   21.3192 C   0  0  2  0  0  0  0  0  0  0  0  0
    5.1146  -18.6874   20.8153 N   0  0  0  0  0  0  0  0  0  0  0  0
    5.9885  -17.6835   22.8283 C   0  0  0  0  0  0  0  0  0  0  0  0
    4.8970  -17.5793   23.4375 O   0  0  0  0  0  0  0  0  0  0  0  0
    9.2271  -11.9955   20.5813 N   0  0  0  0  0  0  0  0  0  0  0  0
    7.1573  -17.7647   23.6213 C   0  0  2  0  0  0  0  0  0  0  0  0
    7.1495  -17.6592   25.0797 C   0  0  0  0  0  0  0  0  0  0  0  0
    7.6433  -18.9865   25.6615 S   0  0  0  0  0  0  0  0  0  0  0  0
    7.8247  -18.8142   27.4395 C   0  0  0  0  0  0  0  0  0  0  0  0
    7.8959  -16.4917   25.5332 O   0  0  0  0  0  0  0  0  0  0  0  0
    9.0503  -16.2823   25.0200 C   0  0  0  0  0  0  0  0  0  0  0  0
    6.3070  -12.9890   26.5594 C   0  0  1  0  0  0  0  0  0  0  0  0
    7.3886  -13.4134   27.5476 C   0  0  0  0  0  0  0  0  0  0  0  0
    8.1356  -12.2140   28.0806 C   0  0  2  0  0  0  0  0  0  0  0  0
    8.3130  -14.4234   26.9063 N   0  0  0  0  0  0  0  0  0  0  0  0
    7.4821  -15.5493   26.4877 C   0  0  0  0  0  0  0  0  0  0  0  0
    9.3896  -14.8741   27.8259 O   0  0  0  0  0  0  0  0  0  0  0  0
   10.5382  -14.0867   27.9624 O   0  0  0  0  0  0  0  0  0  0  0  0
  2  1  1  0
  3  2  2  0
  4  2  1  0
  5  6  1  0
  5  4  1  0
  7  6  1  0
  8  7  1  0
  8 10  1  0
  8  9  1  6
 10 12  1  0
 10 11  2  0
 12 13  1  0
 13 14  1  6
 14 15  1  0
 16 17  2  0
 16 13  1  0
 19 18  1  1
 19 21  1  0
 19 20  1  0
 21 22  1  6
 22 16  1  0
 23 21  1  0
 24 23  1  0
 25 23  2  0
M  END
$$$$
