RCV.pdb
     RDKit          3D

 25 24  0  0  1  0  0  0  0  0999 V2000
    7.6807  -15.2390   16.1423 N   0  0  0  0  0  0  0  0  0  0  0  0
    7.7282  -13.8379   16.3403 C   0  0  0  0  0  0  0  0  0  0  0  0
    7.9796  -13.0833   15.3058 N   0  0  0  0  0  0  0  0  0  0  0  0
    7.5163  -13.2348   17.5906 N   0  0  0  0  0  0  0  0  0  0  0  0
    7.1168  -14.0316   18.7525 C   0  0  0  0  0  0  0  0  0  0  0  0
    8.0418  -15.2054   18.8675 C   0  0  0  0  0  0  0  0  0  0  0  0
    9.1273  -15.0480   19.8705 C   0  0  0  0  0  0  0  0  0  0  0  0
    9.1303  -15.9953   21.0161 C   0  0  2  0  0  0  0  0  0  0  0  0
    7.9668  -16.8492   21.1084 N   0  0  0  0  0  0  0  0  0  0  0  0
    9.2252  -15.1428   22.2608 C   0  0  0  0  0  0  0  0  0  0  0  0
   10.1163  -14.2723   22.4074 O   0  0  0  0  0  0  0  0  0  0  0  0
    8.0636  -12.0604   15.3586 N   0  0  0  0  0  0  0  0  0  0  0  0
    8.3008  -15.2952   23.3210 C   0  0  1  0  0  0  0  0  0  0  0  0
    8.5258  -14.7700   24.6670 C   0  0  0  0  0  0  0  0  0  0  0  0
    7.1802  -14.7194   25.3956 S   0  0  0  0  0  0  0  0  0  0  0  0
    6.7533  -16.3728   25.9508 C   0  0  0  0  0  0  0  0  0  0  0  0
    9.5583  -15.5244   25.3673 O   0  0  0  0  0  0  0  0  0  0  0  0
   10.7179  -15.5951   24.8287 C   0  0  0  0  0  0  0  0  0  0  0  0
   11.4839  -14.4266   29.1758 C   0  0  2  0  0  0  0  0  0  0  0  0
   10.3976  -14.6499   28.1285 C   0  0  0  0  0  0  0  0  0  0  0  0
    9.0463  -14.2238   28.6511 C   0  0  2  0  0  0  0  0  0  0  0  0
   10.4044  -16.0904   27.6698 N   0  0  0  0  0  0  0  0  0  0  0  0
    9.4228  -16.1947   26.5932 C   0  0  0  0  0  0  0  0  0  0  0  0
   10.0869  -17.0392   28.7683 O   0  0  0  0  0  0  0  0  0  0  0  0
   11.1350  -17.5781   29.5227 O   0  0  0  0  0  0  0  0  0  0  0  0
  2  1  1  0
  3  2  2  0
  4  2  1  0
  5  6  1  0
  5  4  1  0
  7  6  1  0
  8  7  1  0
  8 10  1  0
  8  9  1  1
 10 12  1  0
 10 11  2  0
 12 13  1  0
 13 14  1  1
 14 15  1  0
 16 17  2  0
 16 13  1  0
 19 18  1  6
 19 21  1  0
 19 20  1  0
 21 22  1  1
 22 16  1  0
 23 21  1  0
 24 23  1  0
 25 23  2  0
M  END
$$$$
