RCV.pdb
     RDKit          3D

 25 24  0  0  1  0  0  0  0  0999 V2000
    6.6992  -13.0245   18.2265 N   0  0  0  0  0  0  0  0  0  0  0  0
    7.5886  -13.6375   17.3113 C   0  0  0  0  0  0  0  0  0  0  0  0
    8.0685  -12.9060   16.3432 N   0  0  0  0  0  0  0  0  0  0  0  0
    7.9716  -14.9853   17.4036 N   0  0  0  0  0  0  0  0  0  0  0  0
    7.5177  -15.8221   18.5164 C   0  0  0  0  0  0  0  0  0  0  0  0
    7.9939  -15.2103   19.7992 C   0  0  0  0  0  0  0  0  0  0  0  0
    9.4710  -15.1170   19.9351 C   0  0  0  0  0  0  0  0  0  0  0  0
   10.1167  -16.0234   20.9208 C   0  0  2  0  0  0  0  0  0  0  0  0
   10.0860  -17.4272   20.5745 N   0  0  0  0  0  0  0  0  0  0  0  0
    9.3802  -15.8133   22.2240 C   0  0  0  0  0  0  0  0  0  0  0  0
    9.1277  -14.6689   22.6711 O   0  0  0  0  0  0  0  0  0  0  0  0
    8.6646  -13.2792   15.5939 N   0  0  0  0  0  0  0  0  0  0  0  0
    8.9412  -16.9128   22.9987 C   0  0  1  0  0  0  0  0  0  0  0  0
    8.2912  -16.7716   24.3009 C   0  0  0  0  0  0  0  0  0  0  0  0
    7.4652  -18.0331   24.5663 S   0  0  0  0  0  0  0  0  0  0  0  0
    6.6345  -17.8657   26.1494 C   0  0  0  0  0  0  0  0  0  0  0  0
    9.2568  -16.4566   25.3468 O   0  0  0  0  0  0  0  0  0  0  0  0
   10.4667  -16.8416   25.1808 C   0  0  0  0  0  0  0  0  0  0  0  0
    9.4591  -13.1138   27.2926 C   0  0  1  0  0  0  0  0  0  0  0  0
    9.6366  -14.2596   28.2837 C   0  0  0  0  0  0  0  0  0  0  0  0
   10.6267  -13.8928   29.3634 C   0  0  2  0  0  0  0  0  0  0  0  0
   10.0299  -15.5238   27.5536 N   0  0  0  0  0  0  0  0  0  0  0  0
    9.0052  -15.7616   26.5402 C   0  0  0  0  0  0  0  0  0  0  0  0
   10.1542  -16.6917   28.4638 O   0  0  0  0  0  0  0  0  0  0  0  0
    9.0783  -17.5789   28.5789 O   0  0  0  0  0  0  0  0  0  0  0  0
  2  1  1  0
  3  2  2  0
  4  2  1  0
  5  6  1  0
  5  4  1  0
  7  6  1  0
  8  7  1  0
  8 10  1  0
  8  9  1  6
 10 12  1  0
 10 11  2  0
 12 13  1  0
 13 14  1  1
 14 15  1  0
 16 17  2  0
 16 13  1  0
 19 18  1  1
 19 21  1  0
 19 20  1  0
 21 22  1  6
 22 16  1  0
 23 21  1  0
 24 23  1  0
 25 23  2  0
M  END
$$$$
