RCV.pdb
     RDKit          3D

 25 24  0  0  1  0  0  0  0  0999 V2000
    8.6236  -12.5516   15.6527 N   0  0  0  0  0  0  0  0  0  0  0  0
    7.7178  -13.6349   15.7546 C   0  0  0  0  0  0  0  0  0  0  0  0
    6.9610  -13.8971   14.7244 N   0  0  0  0  0  0  0  0  0  0  0  0
    7.6037  -14.4304   16.9062 N   0  0  0  0  0  0  0  0  0  0  0  0
    8.4453  -14.1822   18.0787 C   0  0  0  0  0  0  0  0  0  0  0  0
    7.7201  -13.2460   18.9975 C   0  0  0  0  0  0  0  0  0  0  0  0
    6.8313  -13.9081   19.9879 C   0  0  0  0  0  0  0  0  0  0  0  0
    7.3204  -15.1749   20.5929 C   0  0  2  0  0  0  0  0  0  0  0  0
    6.2871  -16.1173   20.9611 N   0  0  0  0  0  0  0  0  0  0  0  0
    8.0954  -14.7744   21.8275 C   0  0  0  0  0  0  0  0  0  0  0  0
    8.5643  -13.6206   21.9763 O   0  0  0  0  0  0  0  0  0  0  0  0
    6.3674  -14.7333   14.6564 N   0  0  0  0  0  0  0  0  0  0  0  0
    8.3237  -15.6966   22.8759 C   0  0  1  0  0  0  0  0  0  0  0  0
    9.1510  -15.3986   24.0441 C   0  0  0  0  0  0  0  0  0  0  0  0
    8.4486  -14.3162   24.8684 S   0  0  0  0  0  0  0  0  0  0  0  0
    6.8085  -14.8941   25.3157 C   0  0  0  0  0  0  0  0  0  0  0  0
    9.4713  -16.6082   24.7925 O   0  0  0  0  0  0  0  0  0  0  0  0
    8.5576  -17.4971   24.9137 C   0  0  0  0  0  0  0  0  0  0  0  0
   12.2486  -18.8501   24.0017 C   0  0  1  0  0  0  0  0  0  0  0  0
   12.3067  -18.6730   25.5156 C   0  0  0  0  0  0  0  0  0  0  0  0
   12.7712  -19.9411   26.1915 C   0  0  2  0  0  0  0  0  0  0  0  0
   10.9670  -18.2054   26.0372 N   0  0  0  0  0  0  0  0  0  0  0  0
   10.6955  -16.9163   25.4064 C   0  0  0  0  0  0  0  0  0  0  0  0
   10.9432  -18.0847   27.5181 O   0  0  0  0  0  0  0  0  0  0  0  0
   10.6149  -19.2083   28.2846 O   0  0  0  0  0  0  0  0  0  0  0  0
  2  1  1  0
  3  2  2  0
  4  2  1  0
  5  6  1  0
  5  4  1  0
  7  6  1  0
  8  7  1  0
  8 10  1  0
  8  9  1  1
 10 12  1  0
 10 11  2  0
 12 13  1  0
 13 14  1  6
 14 15  1  0
 16 17  2  0
 16 13  1  0
 19 18  1  6
 19 21  1  0
 19 20  1  0
 21 22  1  6
 22 16  1  0
 23 21  1  0
 24 23  1  0
 25 23  2  0
M  END
$$$$
