RCV.pdb
     RDKit          3D

 25 24  0  0  1  0  0  0  0  0999 V2000
    9.6728  -14.4236   16.6692 N   0  0  0  0  0  0  0  0  0  0  0  0
    8.4571  -13.7021   16.5910 C   0  0  0  0  0  0  0  0  0  0  0  0
    7.6647  -13.9484   15.5839 N   0  0  0  0  0  0  0  0  0  0  0  0
    8.0737  -12.7445   17.5438 N   0  0  0  0  0  0  0  0  0  0  0  0
    7.8773  -13.1154   18.9468 C   0  0  0  0  0  0  0  0  0  0  0  0
    7.3603  -14.5212   19.0012 C   0  0  0  0  0  0  0  0  0  0  0  0
    7.0177  -15.0074   20.3633 C   0  0  0  0  0  0  0  0  0  0  0  0
    7.9419  -15.9953   20.9796 C   0  0  2  0  0  0  0  0  0  0  0  0
    7.8517  -17.3358   20.4446 N   0  0  0  0  0  0  0  0  0  0  0  0
    7.6022  -16.0205   22.4524 C   0  0  0  0  0  0  0  0  0  0  0  0
    7.3288  -14.9769   23.0923 O   0  0  0  0  0  0  0  0  0  0  0  0
    6.7970  -13.4272   15.4060 N   0  0  0  0  0  0  0  0  0  0  0  0
    7.5784  -17.2370   23.1744 C   0  0  1  0  0  0  0  0  0  0  0  0
    7.3641  -17.3117   24.6188 C   0  0  0  0  0  0  0  0  0  0  0  0
    7.1574  -18.7802   24.9999 S   0  0  0  0  0  0  0  0  0  0  0  0
    6.9897  -18.9034   26.7833 C   0  0  0  0  0  0  0  0  0  0  0  0
    8.4356  -16.6478   25.3514 O   0  0  0  0  0  0  0  0  0  0  0  0
    9.6407  -16.8619   24.9749 C   0  0  0  0  0  0  0  0  0  0  0  0
    8.1525  -13.0823   27.1205 C   0  0  1  0  0  0  0  0  0  0  0  0
    8.8956  -14.0779   28.0055 C   0  0  0  0  0  0  0  0  0  0  0  0
    9.9837  -13.3917   28.7966 C   0  0  2  0  0  0  0  0  0  0  0  0
    9.4298  -15.2195   27.1705 N   0  0  0  0  0  0  0  0  0  0  0  0
    8.2925  -15.7794   26.4450 C   0  0  0  0  0  0  0  0  0  0  0  0
   10.0975  -16.2620   27.9923 O   0  0  0  0  0  0  0  0  0  0  0  0
    9.3700  -17.3958   28.3708 O   0  0  0  0  0  0  0  0  0  0  0  0
  2  1  1  0
  3  2  2  0
  4  2  1  0
  5  6  1  0
  5  4  1  0
  7  6  1  0
  8  7  1  0
  8 10  1  0
  8  9  1  6
 10 12  1  0
 10 11  2  0
 12 13  1  0
 13 14  1  1
 14 15  1  0
 16 17  2  0
 16 13  1  0
 19 18  1  1
 19 21  1  0
 19 20  1  0
 21 22  1  6
 22 16  1  0
 23 21  1  0
 24 23  1  0
 25 23  2  0
M  END
$$$$
