RCV.pdb
     RDKit          3D

 25 24  0  0  1  0  0  0  0  0999 V2000
   10.0695  -13.5251   16.1302 N   0  0  0  0  0  0  0  0  0  0  0  0
    8.9869  -14.3571   15.7556 C   0  0  0  0  0  0  0  0  0  0  0  0
    8.5780  -14.3067   14.5175 N   0  0  0  0  0  0  0  0  0  0  0  0
    8.3441  -15.2255   16.6526 N   0  0  0  0  0  0  0  0  0  0  0  0
    7.3235  -14.7303   17.5788 C   0  0  0  0  0  0  0  0  0  0  0  0
    7.8275  -13.4704   18.2155 C   0  0  0  0  0  0  0  0  0  0  0  0
    7.6872  -13.4197   19.6943 C   0  0  0  0  0  0  0  0  0  0  0  0
    8.3765  -14.4809   20.4745 C   0  0  2  0  0  0  0  0  0  0  0  0
    7.9295  -15.8293   20.2031 N   0  0  0  0  0  0  0  0  0  0  0  0
    8.1287  -14.1551   21.9297 C   0  0  0  0  0  0  0  0  0  0  0  0
    7.6166  -13.0691   22.2927 O   0  0  0  0  0  0  0  0  0  0  0  0
    7.8435  -14.9176   14.1388 N   0  0  0  0  0  0  0  0  0  0  0  0
    8.4682  -15.0739   22.9505 C   0  0  1  0  0  0  0  0  0  0  0  0
    8.0580  -14.9156   24.3450 C   0  0  0  0  0  0  0  0  0  0  0  0
    6.6808  -15.5618   24.5184 S   0  0  0  0  0  0  0  0  0  0  0  0
    5.9972  -15.0652   26.1028 C   0  0  0  0  0  0  0  0  0  0  0  0
    9.0754  -15.4190   25.2600 O   0  0  0  0  0  0  0  0  0  0  0  0
    9.7190  -16.4722   24.9192 C   0  0  0  0  0  0  0  0  0  0  0  0
   10.3311  -13.2752   28.5072 C   0  0  1  0  0  0  0  0  0  0  0  0
   10.2700  -14.7824   28.7332 C   0  0  0  0  0  0  0  0  0  0  0  0
   11.3270  -15.2255   29.7167 C   0  0  2  0  0  0  0  0  0  0  0  0
   10.3763  -15.5119   27.4133 N   0  0  0  0  0  0  0  0  0  0  0  0
    9.4388  -14.8662   26.4980 C   0  0  0  0  0  0  0  0  0  0  0  0
   10.0784  -16.9622   27.5387 O   0  0  0  0  0  0  0  0  0  0  0  0
   11.1417  -17.8688   27.6116 O   0  0  0  0  0  0  0  0  0  0  0  0
  2  1  1  0
  3  2  2  0
  4  2  1  0
  5  6  1  0
  5  4  1  0
  7  6  1  0
  8  7  1  0
  8 10  1  0
  8  9  1  6
 10 12  1  0
 10 11  2  0
 12 13  1  0
 13 14  1  1
 14 15  1  0
 16 17  2  0
 16 13  1  0
 19 18  1  1
 19 21  1  0
 19 20  1  0
 21 22  1  6
 22 16  1  0
 23 21  1  0
 24 23  1  0
 25 23  2  0
M  END
$$$$
