LRT.pdb
     RDKit          3D

 27 26  0  0  1  0  0  0  0  0999 V2000
    7.5040  -12.2702   18.5270 C   0  0  0  0  0  0  0  0  0  0  0  0
    8.1154  -13.6289   18.8183 C   0  0  1  0  0  0  0  0  0  0  0  0
    9.6342  -13.3722   18.8990 C   0  0  0  0  0  0  0  0  0  0  0  0
    7.6953  -14.1686   20.1414 C   0  0  0  0  0  0  0  0  0  0  0  0
    8.2833  -15.5341   20.4623 C   0  0  2  0  0  0  0  0  0  0  0  0
    7.4462  -16.4930   19.6986 N   0  0  0  0  0  0  0  0  0  0  0  0
    8.1272  -15.9138   21.8821 C   0  0  0  0  0  0  0  0  0  0  0  0
    6.9678  -16.0939   22.3291 O   0  0  0  0  0  0  0  0  0  0  0  0
   12.8228  -17.1531   28.4654 N   0  0  0  0  0  0  0  0  0  0  0  0
   11.7964  -18.0137   28.8942 C   0  0  0  0  0  0  0  0  0  0  0  0
   11.5138  -18.1344   30.1337 N   0  0  0  0  0  0  0  0  0  0  0  0
   11.0546  -18.7665   27.9434 N   0  0  0  0  0  0  0  0  0  0  0  0
   11.1988  -18.5488   26.5212 C   0  0  0  0  0  0  0  0  0  0  0  0
   10.1194  -17.6126   26.0528 C   0  0  0  0  0  0  0  0  0  0  0  0
   10.1395  -17.3601   24.5774 C   0  0  0  0  0  0  0  0  0  0  0  0
    9.0769  -16.3635   24.1926 C   0  0  2  0  0  0  0  0  0  0  0  0
    9.2218  -16.0894   22.7698 N   0  0  0  0  0  0  0  0  0  0  0  0
    9.1745  -15.1214   24.9957 C   0  0  0  0  0  0  0  0  0  0  0  0
   10.2437  -14.4732   24.9690 O   0  0  0  0  0  0  0  0  0  0  0  0
   10.7661  -18.7695   30.4662 C   0  0  0  0  0  0  0  0  0  0  0  0
    6.5521  -12.1490   25.4202 C   0  0  2  0  0  0  0  0  0  0  0  0
    6.9209  -12.7109   26.7658 O   0  0  0  0  0  0  0  0  0  0  0  0
    5.9442  -13.6675   27.0911 C   0  0  2  0  0  0  0  0  0  0  0  0
    8.2312  -13.4531   26.6264 N   0  0  0  0  0  0  0  0  0  0  0  0
    8.1106  -14.6329   25.7942 C   0  0  0  0  0  0  0  0  0  0  0  0
    8.8019  -13.7996   27.9486 O   0  0  0  0  0  0  0  0  0  0  0  0
    9.0417  -15.0052   28.2091 O   0  0  0  0  0  0  0  0  0  0  0  0
  2  1  1  1
  3  2  1  0
  4  2  1  0
  5  4  1  0
  5  6  1  6
  7  5  1  0
  7  8  2  0
  9 10  1  0
 10 12  1  0
 11 10  2  0
 12 13  1  0
 13 14  1  0
 14 15  1  0
 16 17  1  0
 16 15  1  1
 17  7  1  0
 18 16  1  0
 19 18  2  0
 21 20  1  1
 21 23  1  0
 22 21  1  0
 23 24  1  1
 24 18  1  0
 25 23  1  0
 25 27  1  0
 26 25  2  0
M  END
$$$$
