LRT.pdb
     RDKit          3D

 27 26  0  0  1  0  0  0  0  0999 V2000
    6.7786  -12.7034   17.6830 C   0  0  0  0  0  0  0  0  0  0  0  0
    7.7712  -13.5377   18.4725 C   0  0  1  0  0  0  0  0  0  0  0  0
    9.0852  -12.7306   18.4374 C   0  0  0  0  0  0  0  0  0  0  0  0
    7.3846  -13.6758   19.9042 C   0  0  0  0  0  0  0  0  0  0  0  0
    8.4164  -14.4049   20.7512 C   0  0  2  0  0  0  0  0  0  0  0  0
    8.6344  -15.6952   20.0505 N   0  0  0  0  0  0  0  0  0  0  0  0
    7.9157  -14.7624   22.0950 C   0  0  0  0  0  0  0  0  0  0  0  0
    7.4720  -13.8471   22.8311 O   0  0  0  0  0  0  0  0  0  0  0  0
    9.3424  -19.4441   27.8280 N   0  0  0  0  0  0  0  0  0  0  0  0
    8.0579  -19.9243   28.1398 C   0  0  0  0  0  0  0  0  0  0  0  0
    7.7267  -20.1829   29.3456 N   0  0  0  0  0  0  0  0  0  0  0  0
    7.1041  -20.1295   27.1057 N   0  0  0  0  0  0  0  0  0  0  0  0
    7.4073  -19.8379   25.7223 C   0  0  0  0  0  0  0  0  0  0  0  0
    7.3205  -18.3533   25.4999 C   0  0  0  0  0  0  0  0  0  0  0  0
    7.6232  -17.9360   24.0945 C   0  0  0  0  0  0  0  0  0  0  0  0
    7.4252  -16.4519   23.9247 C   0  0  2  0  0  0  0  0  0  0  0  0
    7.9066  -16.0902   22.5988 N   0  0  0  0  0  0  0  0  0  0  0  0
    8.1225  -15.6819   24.9823 C   0  0  0  0  0  0  0  0  0  0  0  0
    9.3730  -15.6767   24.9937 O   0  0  0  0  0  0  0  0  0  0  0  0
    6.7706  -20.4916   29.5975 C   0  0  0  0  0  0  0  0  0  0  0  0
    6.8909  -12.0981   26.2517 C   0  0  2  0  0  0  0  0  0  0  0  0
    7.2397  -12.9682   27.4281 O   0  0  0  0  0  0  0  0  0  0  0  0
    6.0412  -13.5488   27.8769 C   0  0  2  0  0  0  0  0  0  0  0  0
    8.1169  -14.0984   26.9379 N   0  0  0  0  0  0  0  0  0  0  0  0
    7.4367  -14.9498   25.9832 C   0  0  0  0  0  0  0  0  0  0  0  0
    8.6531  -14.8968   28.0643 O   0  0  0  0  0  0  0  0  0  0  0  0
    8.4131  -16.1296   28.1029 O   0  0  0  0  0  0  0  0  0  0  0  0
  2  1  1  6
  3  2  1  0
  4  2  1  0
  5  4  1  0
  5  6  1  6
  7  5  1  0
  7  8  2  0
  9 10  1  0
 10 12  1  0
 11 10  2  0
 12 13  1  0
 13 14  1  0
 14 15  1  0
 16 17  1  0
 16 15  1  1
 17  7  1  0
 18 16  1  0
 19 18  2  0
 21 20  1  1
 21 23  1  0
 22 21  1  0
 23 24  1  1
 24 18  1  0
 25 23  1  0
 25 27  1  0
 26 25  2  0
M  END
$$$$
