LRT.pdb
     RDKit          3D

 27 26  0  0  1  0  0  0  0  0999 V2000
    7.2971  -12.0436   28.2250 C   0  0  0  0  0  0  0  0  0  0  0  0
    6.4235  -12.8297   27.2640 C   0  0  1  0  0  0  0  0  0  0  0  0
    5.6896  -11.7605   26.4289 C   0  0  0  0  0  0  0  0  0  0  0  0
    7.2226  -13.6508   26.3124 C   0  0  0  0  0  0  0  0  0  0  0  0
    6.3920  -14.3075   25.2204 C   0  0  2  0  0  0  0  0  0  0  0  0
    5.6030  -15.3499   25.9235 N   0  0  0  0  0  0  0  0  0  0  0  0
    7.2104  -15.0322   24.2258 C   0  0  0  0  0  0  0  0  0  0  0  0
    7.5349  -16.2203   24.4696 O   0  0  0  0  0  0  0  0  0  0  0  0
    7.5923  -13.2984   16.9661 N   0  0  0  0  0  0  0  0  0  0  0  0
    8.1946  -14.5133   17.3390 C   0  0  0  0  0  0  0  0  0  0  0  0
    7.5152  -15.5927   17.4016 N   0  0  0  0  0  0  0  0  0  0  0  0
    9.5805  -14.5540   17.6535 N   0  0  0  0  0  0  0  0  0  0  0  0
   10.1190  -13.8691   18.8075 C   0  0  0  0  0  0  0  0  0  0  0  0
    9.8837  -14.7071   20.0336 C   0  0  0  0  0  0  0  0  0  0  0  0
    8.8313  -14.1579   20.9457 C   0  0  0  0  0  0  0  0  0  0  0  0
    8.5395  -15.1233   22.0652 C   0  0  2  0  0  0  0  0  0  0  0  0
    7.6482  -14.4560   23.0038 N   0  0  0  0  0  0  0  0  0  0  0  0
    9.7821  -15.5813   22.7312 C   0  0  0  0  0  0  0  0  0  0  0  0
   10.5704  -14.7226   23.1843 O   0  0  0  0  0  0  0  0  0  0  0  0
    7.9584  -16.5093   17.5923 C   0  0  0  0  0  0  0  0  0  0  0  0
   12.7355  -19.2269   24.3036 C   0  0  1  0  0  0  0  0  0  0  0  0
   11.4488  -18.8899   23.6011 O   0  0  0  0  0  0  0  0  0  0  0  0
   10.4040  -19.2203   24.4808 C   0  0  1  0  0  0  0  0  0  0  0  0
   11.3961  -17.3916   23.4020 N   0  0  0  0  0  0  0  0  0  0  0  0
   10.1193  -16.9497   22.8789 C   0  0  0  0  0  0  0  0  0  0  0  0
   12.5068  -16.9189   22.5437 O   0  0  0  0  0  0  0  0  0  0  0  0
   12.3935  -17.0157   21.2961 O   0  0  0  0  0  0  0  0  0  0  0  0
  2  1  1  1
  3  2  1  0
  4  2  1  0
  5  4  1  0
  5  6  1  1
  7  5  1  0
  7  8  2  0
  9 10  1  0
 10 12  1  0
 11 10  2  0
 12 13  1  0
 13 14  1  0
 14 15  1  0
 16 17  1  0
 16 15  1  6
 17  7  1  0
 18 16  1  0
 19 18  2  0
 21 20  1  6
 21 23  1  0
 22 21  1  0
 23 24  1  6
 24 18  1  0
 25 23  1  0
 25 27  1  0
 26 25  2  0
M  END
$$$$
