LRT.pdb
     RDKit          3D

 27 26  0  0  1  0  0  0  0  0999 V2000
    7.6329  -11.5955   25.0120 C   0  0  0  0  0  0  0  0  0  0  0  0
    7.0154  -12.8656   25.5691 C   0  0  1  0  0  0  0  0  0  0  0  0
    6.0690  -12.3888   26.6898 C   0  0  0  0  0  0  0  0  0  0  0  0
    6.1759  -13.5764   24.5650 C   0  0  0  0  0  0  0  0  0  0  0  0
    6.9748  -14.2222   23.4433 C   0  0  2  0  0  0  0  0  0  0  0  0
    5.9728  -14.9881   22.6604 N   0  0  0  0  0  0  0  0  0  0  0  0
    7.9498  -15.2222   23.9269 C   0  0  0  0  0  0  0  0  0  0  0  0
    7.5191  -16.2300   24.5394 O   0  0  0  0  0  0  0  0  0  0  0  0
   14.8613  -15.0077   21.7540 N   0  0  0  0  0  0  0  0  0  0  0  0
   15.4084  -16.0172   22.5661 C   0  0  0  0  0  0  0  0  0  0  0  0
   16.5493  -15.8698   23.1203 N   0  0  0  0  0  0  0  0  0  0  0  0
   14.6904  -17.2252   22.7814 N   0  0  0  0  0  0  0  0  0  0  0  0
   13.3814  -17.4447   22.2076 C   0  0  0  0  0  0  0  0  0  0  0  0
   12.3395  -17.2910   23.2808 C   0  0  0  0  0  0  0  0  0  0  0  0
   11.3623  -16.1879   23.0181 C   0  0  0  0  0  0  0  0  0  0  0  0
   10.3104  -16.1397   24.0959 C   0  0  2  0  0  0  0  0  0  0  0  0
    9.3518  -15.1054   23.7326 N   0  0  0  0  0  0  0  0  0  0  0  0
   10.9043  -15.8827   25.4296 C   0  0  0  0  0  0  0  0  0  0  0  0
   11.6560  -14.8931   25.5700 O   0  0  0  0  0  0  0  0  0  0  0  0
   17.0081  -16.6372   23.6434 C   0  0  0  0  0  0  0  0  0  0  0  0
   10.4662  -14.4263   28.4231 C   0  0  2  0  0  0  0  0  0  0  0  0
   10.6364  -15.8546   28.8630 O   0  0  0  0  0  0  0  0  0  0  0  0
    9.3527  -16.4249   28.9061 C   0  0  2  0  0  0  0  0  0  0  0  0
   11.4072  -16.5919   27.7910 N   0  0  0  0  0  0  0  0  0  0  0  0
   10.6595  -16.7077   26.5554 C   0  0  0  0  0  0  0  0  0  0  0  0
   11.8525  -17.9239   28.2617 O   0  0  0  0  0  0  0  0  0  0  0  0
   11.5363  -18.9404   27.5943 O   0  0  0  0  0  0  0  0  0  0  0  0
  2  1  1  6
  3  2  1  0
  4  2  1  0
  5  4  1  0
  5  6  1  6
  7  5  1  0
  7  8  2  0
  9 10  1  0
 10 12  1  0
 11 10  2  0
 12 13  1  0
 13 14  1  0
 14 15  1  0
 16 17  1  0
 16 15  1  6
 17  7  1  0
 18 16  1  0
 19 18  2  0
 21 20  1  1
 21 23  1  0
 22 21  1  0
 23 24  1  1
 24 18  1  0
 25 23  1  0
 25 27  1  0
 26 25  2  0
M  END
$$$$
