LRT.pdb
     RDKit          3D

 27 26  0  0  1  0  0  0  0  0999 V2000
    8.3402  -12.1016   27.2943 C   0  0  0  0  0  0  0  0  0  0  0  0
    7.0942  -12.9423   27.0817 C   0  0  1  0  0  0  0  0  0  0  0  0
    5.9867  -12.2192   27.8752 C   0  0  0  0  0  0  0  0  0  0  0  0
    6.6620  -12.9666   25.6566 C   0  0  0  0  0  0  0  0  0  0  0  0
    6.1520  -14.3223   25.1926 C   0  0  2  0  0  0  0  0  0  0  0  0
    6.5103  -15.2549   26.2905 N   0  0  0  0  0  0  0  0  0  0  0  0
    6.8563  -14.8284   23.9959 C   0  0  0  0  0  0  0  0  0  0  0  0
    7.3050  -16.0009   24.0170 O   0  0  0  0  0  0  0  0  0  0  0  0
   10.0184  -15.0063   16.6504 N   0  0  0  0  0  0  0  0  0  0  0  0
    8.6991  -14.6869   16.2827 C   0  0  0  0  0  0  0  0  0  0  0  0
    8.3999  -14.4215   15.0700 N   0  0  0  0  0  0  0  0  0  0  0  0
    7.6734  -14.6555   17.2667 N   0  0  0  0  0  0  0  0  0  0  0  0
    7.9250  -15.0316   18.6400 C   0  0  0  0  0  0  0  0  0  0  0  0
    8.4833  -13.8487   19.3817 C   0  0  0  0  0  0  0  0  0  0  0  0
    7.6871  -13.4647   20.5898 C   0  0  0  0  0  0  0  0  0  0  0  0
    7.7730  -14.5347   21.6472 C   0  0  2  0  0  0  0  0  0  0  0  0
    7.0508  -14.0583   22.8185 N   0  0  0  0  0  0  0  0  0  0  0  0
    9.1796  -14.8670   21.9768 C   0  0  0  0  0  0  0  0  0  0  0  0
    9.8323  -14.0715   22.6876 O   0  0  0  0  0  0  0  0  0  0  0  0
    7.4207  -14.2720   14.7670 C   0  0  0  0  0  0  0  0  0  0  0  0
   10.5652  -18.7731   22.1469 C   0  0  2  0  0  0  0  0  0  0  0  0
   11.1809  -17.6008   22.8604 O   0  0  0  0  0  0  0  0  0  0  0  0
   12.5304  -17.9219   23.0855 C   0  0  1  0  0  0  0  0  0  0  0  0
   11.1638  -16.4137   21.9236 N   0  0  0  0  0  0  0  0  0  0  0  0
    9.8206  -16.0466   21.5234 C   0  0  0  0  0  0  0  0  0  0  0  0
   12.0197  -16.6463   20.7373 O   0  0  0  0  0  0  0  0  0  0  0  0
   11.4814  -16.7122   19.6039 O   0  0  0  0  0  0  0  0  0  0  0  0
  2  1  1  6
  3  2  1  0
  4  2  1  0
  5  4  1  0
  5  6  1  1
  7  5  1  0
  7  8  2  0
  9 10  1  0
 10 12  1  0
 11 10  2  0
 12 13  1  0
 13 14  1  0
 14 15  1  0
 16 17  1  0
 16 15  1  6
 17  7  1  0
 18 16  1  0
 19 18  2  0
 21 20  1  1
 21 23  1  0
 22 21  1  0
 23 24  1  1
 24 18  1  0
 25 23  1  0
 25 27  1  0
 26 25  2  0
M  END
$$$$
