LRT.pdb
     RDKit          3D

 27 26  0  0  1  0  0  0  0  0999 V2000
    7.1856  -11.8474   18.9687 C   0  0  0  0  0  0  0  0  0  0  0  0
    7.8639  -13.2041   19.0318 C   0  0  1  0  0  0  0  0  0  0  0  0
    9.3618  -12.9101   18.8110 C   0  0  0  0  0  0  0  0  0  0  0  0
    7.7392  -13.8393   20.3732 C   0  0  0  0  0  0  0  0  0  0  0  0
    8.3854  -15.2132   20.4645 C   0  0  2  0  0  0  0  0  0  0  0  0
    7.5162  -16.0930   19.6436 N   0  0  0  0  0  0  0  0  0  0  0  0
    8.3504  -15.7811   21.8285 C   0  0  0  0  0  0  0  0  0  0  0  0
    7.2573  -16.2153   22.2678 O   0  0  0  0  0  0  0  0  0  0  0  0
   14.0819  -16.1150   21.9524 N   0  0  0  0  0  0  0  0  0  0  0  0
   14.7430  -15.9770   23.1860 C   0  0  0  0  0  0  0  0  0  0  0  0
   15.7332  -15.1812   23.3166 N   0  0  0  0  0  0  0  0  0  0  0  0
   14.3123  -16.7293   24.3128 N   0  0  0  0  0  0  0  0  0  0  0  0
   13.1141  -17.5378   24.2747 C   0  0  0  0  0  0  0  0  0  0  0  0
   11.9203  -16.6431   24.0866 C   0  0  0  0  0  0  0  0  0  0  0  0
   10.6100  -17.3629   24.1635 C   0  0  0  0  0  0  0  0  0  0  0  0
    9.4620  -16.3966   24.0258 C   0  0  2  0  0  0  0  0  0  0  0  0
    9.4911  -15.8653   22.6703 N   0  0  0  0  0  0  0  0  0  0  0  0
    9.5352  -15.3122   25.0338 C   0  0  0  0  0  0  0  0  0  0  0  0
   10.5507  -14.5826   25.0563 O   0  0  0  0  0  0  0  0  0  0  0  0
   16.2403  -15.0797   24.2141 C   0  0  0  0  0  0  0  0  0  0  0  0
    7.0681  -12.4962   25.7339 C   0  0  2  0  0  0  0  0  0  0  0  0
    7.2798  -13.2138   27.0388 O   0  0  0  0  0  0  0  0  0  0  0  0
    6.2460  -14.1581   27.1587 C   0  0  2  0  0  0  0  0  0  0  0  0
    8.5740  -13.9909   26.9476 N   0  0  0  0  0  0  0  0  0  0  0  0
    8.5059  -15.0629   25.9754 C   0  0  0  0  0  0  0  0  0  0  0  0
    8.9905  -14.5086   28.2714 O   0  0  0  0  0  0  0  0  0  0  0  0
    9.1208  -15.7490   28.4245 O   0  0  0  0  0  0  0  0  0  0  0  0
  2  1  1  1
  3  2  1  0
  4  2  1  0
  5  4  1  0
  5  6  1  6
  7  5  1  0
  7  8  2  0
  9 10  1  0
 10 12  1  0
 11 10  2  0
 12 13  1  0
 13 14  1  0
 14 15  1  0
 16 17  1  0
 16 15  1  6
 17  7  1  0
 18 16  1  0
 19 18  2  0
 21 20  1  1
 21 23  1  0
 22 21  1  0
 23 24  1  1
 24 18  1  0
 25 23  1  0
 25 27  1  0
 26 25  2  0
M  END
$$$$
