LRT.pdb
     RDKit          3D

 27 26  0  0  1  0  0  0  0  0999 V2000
    5.1569  -11.2617   26.3893 C   0  0  0  0  0  0  0  0  0  0  0  0
    6.1560  -11.9333   25.4644 C   0  0  1  0  0  0  0  0  0  0  0  0
    7.3485  -10.9577   25.3919 C   0  0  0  0  0  0  0  0  0  0  0  0
    6.6751  -13.2129   26.0224 C   0  0  0  0  0  0  0  0  0  0  0  0
    7.8235  -13.8101   25.2235 C   0  0  2  0  0  0  0  0  0  0  0  0
    7.3376  -13.8262   23.8209 N   0  0  0  0  0  0  0  0  0  0  0  0
    8.0957  -15.2218   25.5658 C   0  0  0  0  0  0  0  0  0  0  0  0
    8.0672  -15.5605   26.7745 O   0  0  0  0  0  0  0  0  0  0  0  0
    9.1671  -23.0676   24.1551 N   0  0  0  0  0  0  0  0  0  0  0  0
    8.1322  -22.7139   23.2710 C   0  0  0  0  0  0  0  0  0  0  0  0
    7.1278  -23.4820   23.0925 N   0  0  0  0  0  0  0  0  0  0  0  0
    8.1931  -21.4850   22.5588 N   0  0  0  0  0  0  0  0  0  0  0  0
    9.3428  -20.6123   22.6444 C   0  0  0  0  0  0  0  0  0  0  0  0
    9.2391  -19.7799   23.8924 C   0  0  0  0  0  0  0  0  0  0  0  0
    8.7619  -18.3825   23.6465 C   0  0  0  0  0  0  0  0  0  0  0  0
    8.7463  -17.5911   24.9286 C   0  0  2  0  0  0  0  0  0  0  0  0
    8.3857  -16.2196   24.5977 N   0  0  0  0  0  0  0  0  0  0  0  0
   10.0525  -17.6538   25.6268 C   0  0  0  0  0  0  0  0  0  0  0  0
   11.0952  -17.4524   24.9661 O   0  0  0  0  0  0  0  0  0  0  0  0
    6.3399  -23.2195   22.4735 C   0  0  0  0  0  0  0  0  0  0  0  0
   10.2937  -16.0355   29.2099 C   0  0  2  0  0  0  0  0  0  0  0  0
   11.4517  -16.2501   28.2741 O   0  0  0  0  0  0  0  0  0  0  0  0
   12.6233  -16.1483   29.0433 C   0  0  1  0  0  0  0  0  0  0  0  0
   11.3880  -17.6708   27.7595 N   0  0  0  0  0  0  0  0  0  0  0  0
   10.1754  -17.9320   27.0108 C   0  0  0  0  0  0  0  0  0  0  0  0
   11.5493  -18.6530   28.8564 O   0  0  0  0  0  0  0  0  0  0  0  0
   10.6194  -19.4668   29.0841 O   0  0  0  0  0  0  0  0  0  0  0  0
  2  1  1  1
  3  2  1  0
  4  2  1  0
  5  4  1  0
  5  6  1  6
  7  5  1  0
  7  8  2  0
  9 10  1  0
 10 12  1  0
 11 10  2  0
 12 13  1  0
 13 14  1  0
 14 15  1  0
 16 17  1  0
 16 15  1  6
 17  7  1  0
 18 16  1  0
 19 18  2  0
 21 20  1  6
 21 23  1  0
 22 21  1  0
 23 24  1  6
 24 18  1  0
 25 23  1  0
 25 27  1  0
 26 25  2  0
M  END
$$$$
