LRT.pdb
     RDKit          3D

 27 26  0  0  1  0  0  0  0  0999 V2000
    6.8237  -12.6600   17.7612 C   0  0  0  0  0  0  0  0  0  0  0  0
    7.8222  -13.4701   18.5682 C   0  0  1  0  0  0  0  0  0  0  0  0
    9.0900  -12.5935   18.6269 C   0  0  0  0  0  0  0  0  0  0  0  0
    7.3766  -13.6836   19.9732 C   0  0  0  0  0  0  0  0  0  0  0  0
    8.4081  -14.3833   20.8449 C   0  0  2  0  0  0  0  0  0  0  0  0
    8.6916  -15.6594   20.1415 N   0  0  0  0  0  0  0  0  0  0  0  0
    7.8812  -14.7692   22.1708 C   0  0  0  0  0  0  0  0  0  0  0  0
    7.2527  -13.9109   22.8376 O   0  0  0  0  0  0  0  0  0  0  0  0
    8.9295  -21.1236   27.8353 N   0  0  0  0  0  0  0  0  0  0  0  0
    7.5409  -20.9551   27.9807 C   0  0  0  0  0  0  0  0  0  0  0  0
    6.9215  -21.4362   28.9885 N   0  0  0  0  0  0  0  0  0  0  0  0
    6.8036  -20.2402   26.9976 N   0  0  0  0  0  0  0  0  0  0  0  0
    7.3798  -19.8931   25.7177 C   0  0  0  0  0  0  0  0  0  0  0  0
    7.3358  -18.4001   25.5447 C   0  0  0  0  0  0  0  0  0  0  0  0
    7.6359  -17.9462   24.1501 C   0  0  0  0  0  0  0  0  0  0  0  0
    7.5596  -16.4446   24.0502 C   0  0  2  0  0  0  0  0  0  0  0  0
    8.0454  -16.0637   22.7313 N   0  0  0  0  0  0  0  0  0  0  0  0
    8.3377  -15.7840   25.1252 C   0  0  0  0  0  0  0  0  0  0  0  0
    9.5718  -15.9796   25.1782 O   0  0  0  0  0  0  0  0  0  0  0  0
    5.8990  -21.3226   29.1091 C   0  0  0  0  0  0  0  0  0  0  0  0
    7.7388  -12.0119   26.2812 C   0  0  2  0  0  0  0  0  0  0  0  0
    7.8409  -12.9090   27.4843 O   0  0  0  0  0  0  0  0  0  0  0  0
    6.5283  -13.2510   27.8518 C   0  0  2  0  0  0  0  0  0  0  0  0
    8.5254  -14.1901   27.0633 N   0  0  0  0  0  0  0  0  0  0  0  0
    7.7473  -14.9394   26.0978 C   0  0  0  0  0  0  0  0  0  0  0  0
    8.8642  -15.0339   28.2326 O   0  0  0  0  0  0  0  0  0  0  0  0
    8.4284  -16.2115   28.2780 O   0  0  0  0  0  0  0  0  0  0  0  0
  2  1  1  6
  3  2  1  0
  4  2  1  0
  5  4  1  0
  5  6  1  6
  7  5  1  0
  7  8  2  0
  9 10  1  0
 10 12  1  0
 11 10  2  0
 12 13  1  0
 13 14  1  0
 14 15  1  0
 16 17  1  0
 16 15  1  1
 17  7  1  0
 18 16  1  0
 19 18  2  0
 21 20  1  1
 21 23  1  0
 22 21  1  0
 23 24  1  1
 24 18  1  0
 25 23  1  0
 25 27  1  0
 26 25  2  0
M  END
$$$$
