LRT.pdb
     RDKit          3D

 27 26  0  0  1  0  0  0  0  0999 V2000
    5.3455  -11.1390   26.5722 C   0  0  0  0  0  0  0  0  0  0  0  0
    6.6735  -11.7982   26.8988 C   0  0  1  0  0  0  0  0  0  0  0  0
    6.9371  -11.4494   28.3780 C   0  0  0  0  0  0  0  0  0  0  0  0
    6.6076  -13.2834   26.8081 C   0  0  0  0  0  0  0  0  0  0  0  0
    7.8988  -13.9271   26.3266 C   0  0  2  0  0  0  0  0  0  0  0  0
    8.7308  -12.7926   25.8528 N   0  0  0  0  0  0  0  0  0  0  0  0
    7.7082  -14.7989   25.1485 C   0  0  0  0  0  0  0  0  0  0  0  0
    7.0627  -15.8662   25.2924 O   0  0  0  0  0  0  0  0  0  0  0  0
    8.5793  -12.7502   18.4103 N   0  0  0  0  0  0  0  0  0  0  0  0
    8.9585  -13.9499   17.7818 C   0  0  0  0  0  0  0  0  0  0  0  0
    9.9184  -13.9769   16.9401 N   0  0  0  0  0  0  0  0  0  0  0  0
    8.2707  -15.1579   18.0794 N   0  0  0  0  0  0  0  0  0  0  0  0
    7.2628  -15.2245   19.1141 C   0  0  0  0  0  0  0  0  0  0  0  0
    7.8812  -15.7698   20.3716 C   0  0  0  0  0  0  0  0  0  0  0  0
    7.9050  -14.7915   21.5044 C   0  0  0  0  0  0  0  0  0  0  0  0
    8.3371  -15.4648   22.7813 C   0  0  2  0  0  0  0  0  0  0  0  0
    8.2149  -14.4918   23.8578 N   0  0  0  0  0  0  0  0  0  0  0  0
    9.7192  -15.9915   22.6821 C   0  0  0  0  0  0  0  0  0  0  0  0
   10.6631  -15.1790   22.5680 O   0  0  0  0  0  0  0  0  0  0  0  0
   10.1246  -14.8172   16.3705 C   0  0  0  0  0  0  0  0  0  0  0  0
   11.7591  -18.3440   24.9475 C   0  0  2  0  0  0  0  0  0  0  0  0
   11.6753  -18.9742   23.5843 O   0  0  0  0  0  0  0  0  0  0  0  0
   10.5659  -19.8367   23.6001 C   0  0  2  0  0  0  0  0  0  0  0  0
   11.3705  -17.8874   22.5778 N   0  0  0  0  0  0  0  0  0  0  0  0
   10.0216  -17.3756   22.7106 C   0  0  0  0  0  0  0  0  0  0  0  0
   11.6243  -18.3445   21.1920 O   0  0  0  0  0  0  0  0  0  0  0  0
   10.6680  -18.3728   20.3774 O   0  0  0  0  0  0  0  0  0  0  0  0
  2  1  1  1
  3  2  1  0
  4  2  1  0
  5  4  1  0
  5  6  1  6
  7  5  1  0
  7  8  2  0
  9 10  1  0
 10 12  1  0
 11 10  2  0
 12 13  1  0
 13 14  1  0
 14 15  1  0
 16 17  1  0
 16 15  1  6
 17  7  1  0
 18 16  1  0
 19 18  2  0
 21 20  1  1
 21 23  1  0
 22 21  1  0
 23 24  1  6
 24 18  1  0
 25 23  1  0
 25 27  1  0
 26 25  2  0
M  END
$$$$
