LRT.pdb
     RDKit          3D

 27 26  0  0  1  0  0  0  0  0999 V2000
    7.3816  -11.7883   28.0190 C   0  0  0  0  0  0  0  0  0  0  0  0
    6.5216  -12.8630   27.3788 C   0  0  1  0  0  0  0  0  0  0  0  0
    5.4397  -12.0918   26.5953 C   0  0  0  0  0  0  0  0  0  0  0  0
    7.2769  -13.6788   26.3876 C   0  0  0  0  0  0  0  0  0  0  0  0
    6.3966  -14.5820   25.5375 C   0  0  2  0  0  0  0  0  0  0  0  0
    6.1204  -15.7581   26.4001 N   0  0  0  0  0  0  0  0  0  0  0  0
    7.0916  -15.1165   24.3477 C   0  0  0  0  0  0  0  0  0  0  0  0
    7.7560  -16.1751   24.4684 O   0  0  0  0  0  0  0  0  0  0  0  0
    9.0622  -13.2076   17.4959 N   0  0  0  0  0  0  0  0  0  0  0  0
    8.4630  -14.3246   16.8868 C   0  0  0  0  0  0  0  0  0  0  0  0
    8.3880  -14.4197   15.6156 N   0  0  0  0  0  0  0  0  0  0  0  0
    7.9286  -15.3709   17.6873 N   0  0  0  0  0  0  0  0  0  0  0  0
    8.3198  -15.5480   19.0680 C   0  0  0  0  0  0  0  0  0  0  0  0
    8.5784  -14.2013   19.6848 C   0  0  0  0  0  0  0  0  0  0  0  0
    7.6880  -13.8901   20.8473 C   0  0  0  0  0  0  0  0  0  0  0  0
    7.8469  -14.9237   21.9322 C   0  0  2  0  0  0  0  0  0  0  0  0
    7.0456  -14.4969   23.0707 N   0  0  0  0  0  0  0  0  0  0  0  0
    9.2687  -15.1073   22.3095 C   0  0  0  0  0  0  0  0  0  0  0  0
    9.9456  -14.0977   22.6038 O   0  0  0  0  0  0  0  0  0  0  0  0
    8.0396  -15.2766   15.1495 C   0  0  0  0  0  0  0  0  0  0  0  0
   11.0972  -17.7034   24.7723 C   0  0  2  0  0  0  0  0  0  0  0  0
   11.6034  -17.8344   23.3619 O   0  0  0  0  0  0  0  0  0  0  0  0
   10.8352  -18.8353   22.7431 C   0  0  2  0  0  0  0  0  0  0  0  0
   11.3100  -16.5431   22.6314 N   0  0  0  0  0  0  0  0  0  0  0  0
    9.8982  -16.3761   22.3523 C   0  0  0  0  0  0  0  0  0  0  0  0
   12.1077  -16.4294   21.3886 O   0  0  0  0  0  0  0  0  0  0  0  0
   11.5084  -16.3718   20.2858 O   0  0  0  0  0  0  0  0  0  0  0  0
  2  1  1  6
  3  2  1  0
  4  2  1  0
  5  4  1  0
  5  6  1  1
  7  5  1  0
  7  8  2  0
  9 10  1  0
 10 12  1  0
 11 10  2  0
 12 13  1  0
 13 14  1  0
 14 15  1  0
 16 17  1  0
 16 15  1  6
 17  7  1  0
 18 16  1  0
 19 18  2  0
 21 20  1  1
 21 23  1  0
 22 21  1  0
 23 24  1  6
 24 18  1  0
 25 23  1  0
 25 27  1  0
 26 25  2  0
M  END
$$$$
