LRT.pdb
     RDKit          3D

 27 26  0  0  1  0  0  0  0  0999 V2000
    7.3401  -11.8506   19.3960 C   0  0  0  0  0  0  0  0  0  0  0  0
    7.6103  -13.3445   19.4003 C   0  0  1  0  0  0  0  0  0  0  0  0
    8.8854  -13.5200   18.5504 C   0  0  0  0  0  0  0  0  0  0  0  0
    7.9216  -13.8612   20.7620 C   0  0  0  0  0  0  0  0  0  0  0  0
    8.1342  -15.3664   20.8138 C   0  0  2  0  0  0  0  0  0  0  0  0
    6.8036  -15.9453   20.5011 N   0  0  0  0  0  0  0  0  0  0  0  0
    8.4735  -15.8581   22.1656 C   0  0  0  0  0  0  0  0  0  0  0  0
    7.5589  -15.9310   23.0227 O   0  0  0  0  0  0  0  0  0  0  0  0
   11.4195  -21.4295   25.8891 N   0  0  0  0  0  0  0  0  0  0  0  0
   12.4348  -20.8616   26.6794 C   0  0  0  0  0  0  0  0  0  0  0  0
   12.6807  -21.3036   27.8520 N   0  0  0  0  0  0  0  0  0  0  0  0
   13.2064  -19.7785   26.1770 N   0  0  0  0  0  0  0  0  0  0  0  0
   12.9415  -19.1918   24.8822 C   0  0  0  0  0  0  0  0  0  0  0  0
   11.7087  -18.3356   24.9708 C   0  0  0  0  0  0  0  0  0  0  0  0
   11.3616  -17.6449   23.6889 C   0  0  0  0  0  0  0  0  0  0  0  0
   10.1117  -16.8189   23.8497 C   0  0  2  0  0  0  0  0  0  0  0  0
    9.7821  -16.2569   22.5474 N   0  0  0  0  0  0  0  0  0  0  0  0
   10.2846  -15.7569   24.8694 C   0  0  0  0  0  0  0  0  0  0  0  0
   11.1857  -14.9061   24.7014 O   0  0  0  0  0  0  0  0  0  0  0  0
   13.4088  -20.8812   28.4556 C   0  0  0  0  0  0  0  0  0  0  0  0
    8.1295  -13.0512   25.9328 C   0  0  2  0  0  0  0  0  0  0  0  0
    8.4019  -13.7906   27.2141 O   0  0  0  0  0  0  0  0  0  0  0  0
    7.3380  -14.6895   27.4015 C   0  0  2  0  0  0  0  0  0  0  0  0
    9.6501  -14.6231   27.0245 N   0  0  0  0  0  0  0  0  0  0  0  0
    9.4748  -15.6604   26.0283 C   0  0  0  0  0  0  0  0  0  0  0  0
   10.1175  -15.1999   28.3061 O   0  0  0  0  0  0  0  0  0  0  0  0
   10.2299  -16.4474   28.4052 O   0  0  0  0  0  0  0  0  0  0  0  0
  2  1  1  1
  3  2  1  0
  4  2  1  0
  5  4  1  0
  5  6  1  1
  7  5  1  0
  7  8  2  0
  9 10  1  0
 10 12  1  0
 11 10  2  0
 12 13  1  0
 13 14  1  0
 14 15  1  0
 16 17  1  0
 16 15  1  6
 17  7  1  0
 18 16  1  0
 19 18  2  0
 21 20  1  1
 21 23  1  0
 22 21  1  0
 23 24  1  1
 24 18  1  0
 25 23  1  0
 25 27  1  0
 26 25  2  0
M  END
$$$$
