LRT.pdb
     RDKit          3D

 27 26  0  0  1  0  0  0  0  0999 V2000
    7.7654  -11.8698   18.3964 C   0  0  0  0  0  0  0  0  0  0  0  0
    8.2530  -13.2719   18.7142 C   0  0  1  0  0  0  0  0  0  0  0  0
    9.6770  -13.0798   19.2750 C   0  0  0  0  0  0  0  0  0  0  0  0
    7.4488  -13.9235   19.7851 C   0  0  0  0  0  0  0  0  0  0  0  0
    7.9740  -15.2885   20.2030 C   0  0  2  0  0  0  0  0  0  0  0  0
    7.3600  -16.2383   19.2415 N   0  0  0  0  0  0  0  0  0  0  0  0
    7.4973  -15.7099   21.5369 C   0  0  0  0  0  0  0  0  0  0  0  0
    6.2611  -15.7144   21.7565 O   0  0  0  0  0  0  0  0  0  0  0  0
    9.2436  -20.2668   27.7840 N   0  0  0  0  0  0  0  0  0  0  0  0
    7.8979  -20.0915   28.1532 C   0  0  0  0  0  0  0  0  0  0  0  0
    7.5088  -20.3164   29.3485 N   0  0  0  0  0  0  0  0  0  0  0  0
    6.9461  -19.6577   27.1904 N   0  0  0  0  0  0  0  0  0  0  0  0
    7.3071  -19.4437   25.8067 C   0  0  0  0  0  0  0  0  0  0  0  0
    8.0823  -18.1604   25.6913 C   0  0  0  0  0  0  0  0  0  0  0  0
    8.4416  -17.7982   24.2840 C   0  0  0  0  0  0  0  0  0  0  0  0
    7.9156  -16.4301   23.9347 C   0  0  2  0  0  0  0  0  0  0  0  0
    8.3650  -16.1143   22.5860 N   0  0  0  0  0  0  0  0  0  0  0  0
    8.3640  -15.4061   24.9082 C   0  0  0  0  0  0  0  0  0  0  0  0
    9.5898  -15.1878   25.0262 O   0  0  0  0  0  0  0  0  0  0  0  0
    6.5204  -20.1977   29.6349 C   0  0  0  0  0  0  0  0  0  0  0  0
    6.5324  -11.8610   25.9196 C   0  0  2  0  0  0  0  0  0  0  0  0
    6.8267  -12.7369   27.1065 O   0  0  0  0  0  0  0  0  0  0  0  0
    5.6681  -13.4926   27.3542 C   0  0  2  0  0  0  0  0  0  0  0  0
    7.9121  -13.7150   26.7160 N   0  0  0  0  0  0  0  0  0  0  0  0
    7.4668  -14.6611   25.7132 C   0  0  0  0  0  0  0  0  0  0  0  0
    8.4572  -14.4211   27.8984 O   0  0  0  0  0  0  0  0  0  0  0  0
    8.4478  -15.6775   27.9128 O   0  0  0  0  0  0  0  0  0  0  0  0
  2  1  1  1
  3  2  1  0
  4  2  1  0
  5  4  1  0
  5  6  1  6
  7  5  1  0
  7  8  2  0
  9 10  1  0
 10 12  1  0
 11 10  2  0
 12 13  1  0
 13 14  1  0
 14 15  1  0
 16 17  1  0
 16 15  1  1
 17  7  1  0
 18 16  1  0
 19 18  2  0
 21 20  1  1
 21 23  1  0
 22 21  1  0
 23 24  1  1
 24 18  1  0
 25 23  1  0
 25 27  1  0
 26 25  2  0
M  END
$$$$
