LRT.pdb
     RDKit          3D

 27 26  0  0  1  0  0  0  0  0999 V2000
   11.2734  -14.5523   29.7454 C   0  0  0  0  0  0  0  0  0  0  0  0
    9.9546  -15.0477   29.1797 C   0  0  1  0  0  0  0  0  0  0  0  0
    9.0649  -13.7911   29.0870 C   0  0  0  0  0  0  0  0  0  0  0  0
   10.0954  -15.5829   27.7969 C   0  0  0  0  0  0  0  0  0  0  0  0
    8.7788  -16.0119   27.1675 C   0  0  2  0  0  0  0  0  0  0  0  0
    8.4025  -17.2522   27.8910 N   0  0  0  0  0  0  0  0  0  0  0  0
    8.9147  -16.4049   25.7493 C   0  0  0  0  0  0  0  0  0  0  0  0
    9.3119  -17.5666   25.4860 O   0  0  0  0  0  0  0  0  0  0  0  0
    6.8725  -12.7311   17.7769 N   0  0  0  0  0  0  0  0  0  0  0  0
    7.7996  -13.7708   17.5841 C   0  0  0  0  0  0  0  0  0  0  0  0
    8.0993  -14.1760   16.4108 N   0  0  0  0  0  0  0  0  0  0  0  0
    8.4199  -14.3886   18.7043 N   0  0  0  0  0  0  0  0  0  0  0  0
    8.0727  -14.0280   20.0608 C   0  0  0  0  0  0  0  0  0  0  0  0
    8.9163  -14.8267   21.0155 C   0  0  0  0  0  0  0  0  0  0  0  0
    8.5519  -14.6268   22.4536 C   0  0  0  0  0  0  0  0  0  0  0  0
    9.0159  -15.7924   23.2882 C   0  0  2  0  0  0  0  0  0  0  0  0
    8.6162  -15.5376   24.6651 N   0  0  0  0  0  0  0  0  0  0  0  0
   10.4802  -15.9958   23.1785 C   0  0  0  0  0  0  0  0  0  0  0  0
   11.2421  -15.1862   23.7515 O   0  0  0  0  0  0  0  0  0  0  0  0
    8.7044  -15.0021   16.2539 C   0  0  0  0  0  0  0  0  0  0  0  0
   13.0035  -18.8353   24.0164 C   0  0  2  0  0  0  0  0  0  0  0  0
   12.9667  -18.6183   22.5284 O   0  0  0  0  0  0  0  0  0  0  0  0
   11.9855  -19.4825   22.0133 C   0  0  2  0  0  0  0  0  0  0  0  0
   12.4884  -17.2076   22.2670 N   0  0  0  0  0  0  0  0  0  0  0  0
   11.0585  -17.0670   22.4531 C   0  0  0  0  0  0  0  0  0  0  0  0
   12.8910  -16.7388   20.9209 O   0  0  0  0  0  0  0  0  0  0  0  0
   14.1132  -16.5891   20.6707 O   0  0  0  0  0  0  0  0  0  0  0  0
  2  1  1  6
  3  2  1  0
  4  2  1  0
  5  4  1  0
  5  6  1  1
  7  5  1  0
  7  8  2  0
  9 10  1  0
 10 12  1  0
 11 10  2  0
 12 13  1  0
 13 14  1  0
 14 15  1  0
 16 17  1  0
 16 15  1  6
 17  7  1  0
 18 16  1  0
 19 18  2  0
 21 20  1  6
 21 23  1  0
 22 21  1  0
 23 24  1  6
 24 18  1  0
 25 23  1  0
 25 27  1  0
 26 25  2  0
M  END
$$$$
