LRT.pdb
     RDKit          3D

 27 26  0  0  1  0  0  0  0  0999 V2000
    5.7980  -12.4194   26.4526 C   0  0  0  0  0  0  0  0  0  0  0  0
    7.0356  -13.2914   26.3404 C   0  0  1  0  0  0  0  0  0  0  0  0
    8.0583  -12.6558   27.3043 C   0  0  0  0  0  0  0  0  0  0  0  0
    6.7955  -14.6819   26.8172 C   0  0  0  0  0  0  0  0  0  0  0  0
    6.2107  -15.6023   25.7567 C   0  0  2  0  0  0  0  0  0  0  0  0
    6.1649  -16.9383   26.4020 N   0  0  0  0  0  0  0  0  0  0  0  0
    7.0882  -15.7603   24.5781 C   0  0  0  0  0  0  0  0  0  0  0  0
    7.8672  -16.7443   24.5399 O   0  0  0  0  0  0  0  0  0  0  0  0
    7.3375  -15.3496   17.4708 N   0  0  0  0  0  0  0  0  0  0  0  0
    8.3510  -14.4792   17.0314 C   0  0  0  0  0  0  0  0  0  0  0  0
    8.9997  -14.7138   15.9568 N   0  0  0  0  0  0  0  0  0  0  0  0
    8.6681  -13.3169   17.7861 N   0  0  0  0  0  0  0  0  0  0  0  0
    7.9955  -13.0097   19.0287 C   0  0  0  0  0  0  0  0  0  0  0  0
    8.2733  -14.1022   20.0239 C   0  0  0  0  0  0  0  0  0  0  0  0
    7.5608  -13.9243   21.3283 C   0  0  0  0  0  0  0  0  0  0  0  0
    7.8470  -15.0784   22.2538 C   0  0  2  0  0  0  0  0  0  0  0  0
    7.0954  -14.8579   23.4815 N   0  0  0  0  0  0  0  0  0  0  0  0
    9.2979  -15.2161   22.5249 C   0  0  0  0  0  0  0  0  0  0  0  0
    9.8845  -14.2925   23.1305 O   0  0  0  0  0  0  0  0  0  0  0  0
    9.7278  -14.0673   15.6036 C   0  0  0  0  0  0  0  0  0  0  0  0
   11.3298  -17.3986   24.6670 C   0  0  2  0  0  0  0  0  0  0  0  0
   11.7757  -17.6915   23.2605 O   0  0  0  0  0  0  0  0  0  0  0  0
   10.9699  -18.7407   22.7864 C   0  0  2  0  0  0  0  0  0  0  0  0
   11.4688  -16.4829   22.4049 N   0  0  0  0  0  0  0  0  0  0  0  0
   10.0529  -16.3480   22.1289 C   0  0  0  0  0  0  0  0  0  0  0  0
   12.2498  -16.4966   21.1464 O   0  0  0  0  0  0  0  0  0  0  0  0
   11.6380  -16.5959   20.0534 O   0  0  0  0  0  0  0  0  0  0  0  0
  2  1  1  1
  3  2  1  0
  4  2  1  0
  5  4  1  0
  5  6  1  1
  7  5  1  0
  7  8  2  0
  9 10  1  0
 10 12  1  0
 11 10  2  0
 12 13  1  0
 13 14  1  0
 14 15  1  0
 16 17  1  0
 16 15  1  6
 17  7  1  0
 18 16  1  0
 19 18  2  0
 21 20  1  1
 21 23  1  0
 22 21  1  0
 23 24  1  6
 24 18  1  0
 25 23  1  0
 25 27  1  0
 26 25  2  0
M  END
$$$$
