LRT.pdb
     RDKit          3D

 27 26  0  0  1  0  0  0  0  0999 V2000
    5.9193  -12.2651   26.4151 C   0  0  0  0  0  0  0  0  0  0  0  0
    7.1568  -13.1434   26.4594 C   0  0  1  0  0  0  0  0  0  0  0  0
    8.1019  -12.4481   27.4605 C   0  0  0  0  0  0  0  0  0  0  0  0
    6.8707  -14.5003   27.0028 C   0  0  0  0  0  0  0  0  0  0  0  0
    6.3021  -15.4662   25.9746 C   0  0  2  0  0  0  0  0  0  0  0  0
    6.2227  -16.7674   26.6845 N   0  0  0  0  0  0  0  0  0  0  0  0
    7.2078  -15.6933   24.8290 C   0  0  0  0  0  0  0  0  0  0  0  0
    8.0340  -16.6364   24.8974 O   0  0  0  0  0  0  0  0  0  0  0  0
    7.8977  -12.8694   16.7224 N   0  0  0  0  0  0  0  0  0  0  0  0
    8.5065  -14.1371   16.7188 C   0  0  0  0  0  0  0  0  0  0  0  0
    9.1206  -14.5693   15.6859 N   0  0  0  0  0  0  0  0  0  0  0  0
    8.4445  -14.9601   17.8763 N   0  0  0  0  0  0  0  0  0  0  0  0
    7.6180  -14.6153   19.0116 C   0  0  0  0  0  0  0  0  0  0  0  0
    8.4987  -14.3477   20.2006 C   0  0  0  0  0  0  0  0  0  0  0  0
    7.7410  -14.0931   21.4663 C   0  0  0  0  0  0  0  0  0  0  0  0
    7.9850  -15.1950   22.4646 C   0  0  2  0  0  0  0  0  0  0  0  0
    7.1917  -14.9017   23.6500 N   0  0  0  0  0  0  0  0  0  0  0  0
    9.4241  -15.3257   22.7952 C   0  0  0  0  0  0  0  0  0  0  0  0
   10.0033  -14.3612   23.3414 O   0  0  0  0  0  0  0  0  0  0  0  0
    9.5939  -15.4906   15.6749 C   0  0  0  0  0  0  0  0  0  0  0  0
   11.6315  -17.6614   24.9231 C   0  0  2  0  0  0  0  0  0  0  0  0
   12.0080  -17.8304   23.4766 O   0  0  0  0  0  0  0  0  0  0  0  0
   11.2177  -18.8752   22.9678 C   0  0  2  0  0  0  0  0  0  0  0  0
   11.6069  -16.5761   22.7330 N   0  0  0  0  0  0  0  0  0  0  0  0
   10.1761  -16.4949   22.5206 C   0  0  0  0  0  0  0  0  0  0  0  0
   12.3360  -16.4495   21.4499 O   0  0  0  0  0  0  0  0  0  0  0  0
   11.6958  -16.5610   20.3745 O   0  0  0  0  0  0  0  0  0  0  0  0
  2  1  1  1
  3  2  1  0
  4  2  1  0
  5  4  1  0
  5  6  1  1
  7  5  1  0
  7  8  2  0
  9 10  1  0
 10 12  1  0
 11 10  2  0
 12 13  1  0
 13 14  1  0
 14 15  1  0
 16 17  1  0
 16 15  1  6
 17  7  1  0
 18 16  1  0
 19 18  2  0
 21 20  1  1
 21 23  1  0
 22 21  1  0
 23 24  1  6
 24 18  1  0
 25 23  1  0
 25 27  1  0
 26 25  2  0
M  END
$$$$
