YKC.pdb
     RDKit          3D

 28 28  0  0  1  0  0  0  0  0999 V2000
   26.9459  -30.9182  -21.2834 O   0  0  0  0  0  0  0  0  0  0  0  0
   26.7659  -29.9453  -20.2986 C   0  0  0  0  0  0  0  0  0  0  0  0
   26.7545  -30.2695  -18.9608 C   0  0  0  0  0  0  0  0  0  0  0  0
   26.5747  -29.2996  -17.9690 C   0  0  0  0  0  0  0  0  0  0  0  0
   26.4040  -27.9872  -18.3228 C   0  0  0  0  0  0  0  0  0  0  0  0
   26.2139  -26.9547  -17.3003 C   0  0  0  0  0  0  0  0  0  0  0  0
   27.4303  -26.0625  -17.1369 C   0  0  2  0  0  0  0  0  0  0  0  0
   28.4382  -26.8482  -16.4556 N   0  0  0  0  0  0  0  0  0  0  0  0
   26.9867  -24.9178  -16.2622 C   0  0  0  0  0  0  0  0  0  0  0  0
   27.0706  -24.9824  -15.0035 O   0  0  0  0  0  0  0  0  0  0  0  0
   26.4144  -27.6567  -19.6590 C   0  0  0  0  0  0  0  0  0  0  0  0
   26.5943  -28.6286  -20.6467 C   0  0  0  0  0  0  0  0  0  0  0  0
   26.4589  -23.7273  -16.8233 N   0  0  0  0  0  0  0  0  0  0  0  0
   26.1159  -22.5554  -16.0246 C   0  0  1  0  0  0  0  0  0  0  0  0
   26.4884  -21.3292  -16.8268 C   0  0  0  0  0  0  0  0  0  0  0  0
   27.9424  -21.3652  -17.2488 C   0  0  0  0  0  0  0  0  0  0  0  0
   28.3175  -20.0874  -17.9629 C   0  0  0  0  0  0  0  0  0  0  0  0
   29.7509  -20.1763  -18.4389 C   0  0  0  0  0  0  0  0  0  0  0  0
   30.1161  -18.9709  -19.1446 N   0  0  0  0  0  0  0  0  0  0  0  0
   24.6982  -22.5400  -15.6485 C   0  0  0  0  0  0  0  0  0  0  0  0
   23.9395  -23.4382  -16.0912 O   0  0  0  0  0  0  0  0  0  0  0  0
   24.1943  -21.5230  -14.7962 N   0  0  0  0  0  0  0  0  0  0  0  0
   22.7827  -21.5847  -14.4469 C   0  0  1  0  0  0  0  0  0  0  0  0
   22.6315  -22.7465  -13.4694 C   0  0  0  0  0  0  0  0  0  0  0  0
   20.9414  -22.7232  -12.8375 S   0  0  0  0  0  0  0  0  0  0  0  0
   22.3997  -20.3356  -13.7338 C   0  0  0  0  0  0  0  0  0  0  0  0
   23.2780  -19.6477  -13.1692 O   0  0  0  0  0  0  0  0  0  0  0  0
   21.0913  -19.8817  -13.6594 O   0  0  0  0  0  0  0  0  0  0  0  0
  2  1  1  0
  3  2  2  0
  4  3  1  0
  5  4  2  0
  5 11  1  0
  6  5  1  0
  7  6  1  0
  7  8  1  1
  9  7  1  0
 10  9  2  0
 11 12  2  0
 12  2  1  0
 13  9  1  0
 14 15  1  6
 14 13  1  0
 16 17  1  0
 16 15  1  0
 18 17  1  0
 19 18  1  0
 20 14  1  0
 21 20  2  0
 22 20  1  0
 23 22  1  0
 24 25  1  0
 23 24  1  1
 26 23  1  0
 26 28  1  0
 27 26  2  0
M  END
$$$$
