YKC.pdb
     RDKit          3D

 28 28  0  0  1  0  0  0  0  0999 V2000
   13.0873  -19.7256  -20.5356 O   0  0  0  0  0  0  0  0  0  0  0  0
   13.8796  -18.7528  -19.9232 C   0  0  0  0  0  0  0  0  0  0  0  0
   15.0237  -18.2757  -20.5217 C   0  0  0  0  0  0  0  0  0  0  0  0
   15.8220  -17.3011  -19.9137 C   0  0  0  0  0  0  0  0  0  0  0  0
   15.4688  -16.7981  -18.6894 C   0  0  0  0  0  0  0  0  0  0  0  0
   16.2905  -15.7767  -18.0342 C   0  0  0  0  0  0  0  0  0  0  0  0
   17.6771  -16.2806  -17.6795 C   0  0  2  0  0  0  0  0  0  0  0  0
   17.5120  -17.2475  -16.6140 N   0  0  0  0  0  0  0  0  0  0  0  0
   18.4353  -15.0790  -17.1760 C   0  0  0  0  0  0  0  0  0  0  0  0
   18.3317  -14.6918  -15.9781 O   0  0  0  0  0  0  0  0  0  0  0  0
   14.3257  -17.2712  -18.0858 C   0  0  0  0  0  0  0  0  0  0  0  0
   13.5310  -18.2448  -18.6966 C   0  0  0  0  0  0  0  0  0  0  0  0
   19.2924  -14.3410  -18.0312 N   0  0  0  0  0  0  0  0  0  0  0  0
   20.0563  -13.1812  -17.5837 C   0  0  1  0  0  0  0  0  0  0  0  0
   21.2691  -13.0585  -18.4780 C   0  0  0  0  0  0  0  0  0  0  0  0
   22.3104  -14.1062  -18.1444 C   0  0  0  0  0  0  0  0  0  0  0  0
   23.4770  -14.0155  -19.1006 C   0  0  0  0  0  0  0  0  0  0  0  0
   24.3930  -15.2021  -18.8945 C   0  0  0  0  0  0  0  0  0  0  0  0
   25.5329  -15.1090  -19.7755 N   0  0  0  0  0  0  0  0  0  0  0  0
   19.2536  -11.9535  -17.5972 C   0  0  0  0  0  0  0  0  0  0  0  0
   18.5302  -11.7081  -18.5946 O   0  0  0  0  0  0  0  0  0  0  0  0
   19.2961  -11.0578  -16.4969 N   0  0  0  0  0  0  0  0  0  0  0  0
   18.4069   -9.9064  -16.5398 C   0  0  1  0  0  0  0  0  0  0  0  0
   17.8870   -9.7108  -15.1187 C   0  0  0  0  0  0  0  0  0  0  0  0
   16.7701  -11.0776  -14.7438 S   0  0  0  0  0  0  0  0  0  0  0  0
   19.1906   -8.6961  -16.9096 C   0  0  0  0  0  0  0  0  0  0  0  0
   20.4250   -8.7851  -17.0877 O   0  0  0  0  0  0  0  0  0  0  0  0
   18.6134   -7.4454  -17.0713 O   0  0  0  0  0  0  0  0  0  0  0  0
  2  1  1  0
  3  2  2  0
  4  3  1  0
  5  4  2  0
  5 11  1  0
  6  5  1  0
  7  6  1  0
  7  8  1  1
  9  7  1  0
 10  9  2  0
 11 12  2  0
 12  2  1  0
 13  9  1  0
 14 15  1  6
 14 13  1  0
 16 17  1  0
 16 15  1  0
 18 17  1  0
 19 18  1  0
 20 14  1  0
 21 20  2  0
 22 20  1  0
 23 22  1  0
 24 25  1  0
 23 24  1  1
 26 23  1  0
 26 28  1  0
 27 26  2  0
M  END
$$$$
