YKC.pdb
     RDKit          3D

 28 28  0  0  1  0  0  0  0  0999 V2000
   22.5105  -21.6487   -6.6036 O   0  0  0  0  0  0  0  0  0  0  0  0
   23.1707  -21.2590   -7.7703 C   0  0  0  0  0  0  0  0  0  0  0  0
   22.5226  -21.2182   -8.9841 C   0  0  0  0  0  0  0  0  0  0  0  0
   23.1781  -20.8286  -10.1568 C   0  0  0  0  0  0  0  0  0  0  0  0
   24.5009  -20.4752  -10.1122 C   0  0  0  0  0  0  0  0  0  0  0  0
   25.2074  -20.0639  -11.3286 C   0  0  0  0  0  0  0  0  0  0  0  0
   25.1059  -21.0922  -12.4399 C   0  0  2  0  0  0  0  0  0  0  0  0
   26.0326  -22.1560  -12.1128 N   0  0  0  0  0  0  0  0  0  0  0  0
   25.5496  -20.3862  -13.6956 C   0  0  0  0  0  0  0  0  0  0  0  0
   26.7664  -20.1186  -13.9035 O   0  0  0  0  0  0  0  0  0  0  0  0
   25.1545  -20.5140   -8.9015 C   0  0  0  0  0  0  0  0  0  0  0  0
   24.4960  -20.9037   -7.7323 C   0  0  0  0  0  0  0  0  0  0  0  0
   24.6146  -19.9977  -14.6884 N   0  0  0  0  0  0  0  0  0  0  0  0
   24.9920  -19.2695  -15.8951 C   0  0  1  0  0  0  0  0  0  0  0  0
   24.4163  -20.0139  -17.0784 C   0  0  0  0  0  0  0  0  0  0  0  0
   24.9391  -19.4604  -18.3875 C   0  0  0  0  0  0  0  0  0  0  0  0
   24.4543  -20.2990  -19.5473 C   0  0  0  0  0  0  0  0  0  0  0  0
   25.0545  -19.7769  -20.8344 C   0  0  0  0  0  0  0  0  0  0  0  0
   26.4455  -20.1533  -20.9227 N   0  0  0  0  0  0  0  0  0  0  0  0
   24.5348  -17.8761  -15.8639 C   0  0  0  0  0  0  0  0  0  0  0  0
   23.3521  -17.6292  -15.5196 O   0  0  0  0  0  0  0  0  0  0  0  0
   25.4192  -16.8240  -16.2186 N   0  0  0  0  0  0  0  0  0  0  0  0
   24.8937  -15.4675  -16.1732 C   0  0  1  0  0  0  0  0  0  0  0  0
   26.1033  -14.5386  -16.1279 C   0  0  0  0  0  0  0  0  0  0  0  0
   26.9347  -14.7873  -14.5459 S   0  0  0  0  0  0  0  0  0  0  0  0
   24.1505  -15.1879  -17.4322 C   0  0  0  0  0  0  0  0  0  0  0  0
   24.2975  -15.9391  -18.4209 O   0  0  0  0  0  0  0  0  0  0  0  0
   23.2834  -14.1147  -17.5725 O   0  0  0  0  0  0  0  0  0  0  0  0
  2  1  1  0
  3  2  2  0
  4  3  1  0
  5  4  2  0
  5 11  1  0
  6  5  1  0
  7  6  1  0
  7  8  1  1
  9  7  1  0
 10  9  2  0
 11 12  2  0
 12  2  1  0
 13  9  1  0
 14 15  1  6
 14 13  1  0
 16 17  1  0
 16 15  1  0
 18 17  1  0
 19 18  1  0
 20 14  1  0
 21 20  2  0
 22 20  1  0
 23 22  1  0
 24 25  1  0
 23 24  1  6
 26 23  1  0
 26 28  1  0
 27 26  2  0
M  END
$$$$
