YKC.pdb
     RDKit          3D

 28 28  0  0  1  0  0  0  0  0999 V2000
   14.4717  -23.8822   -3.3638 O   0  0  0  0  0  0  0  0  0  0  0  0
   15.4109  -23.9647   -4.3934 C   0  0  0  0  0  0  0  0  0  0  0  0
   15.1910  -23.3727   -5.6166 C   0  0  0  0  0  0  0  0  0  0  0  0
   16.1278  -23.4514   -6.6525 C   0  0  0  0  0  0  0  0  0  0  0  0
   17.3006  -24.1326   -6.4597 C   0  0  0  0  0  0  0  0  0  0  0  0
   18.2960  -24.2277   -7.5310 C   0  0  0  0  0  0  0  0  0  0  0  0
   17.8512  -25.1340   -8.6638 C   0  0  2  0  0  0  0  0  0  0  0  0
   18.0563  -26.4961   -8.2164 N   0  0  0  0  0  0  0  0  0  0  0  0
   18.7662  -24.8255   -9.8213 C   0  0  0  0  0  0  0  0  0  0  0  0
   19.9208  -25.3319   -9.8988 O   0  0  0  0  0  0  0  0  0  0  0  0
   17.5263  -24.7267   -5.2387 C   0  0  0  0  0  0  0  0  0  0  0  0
   16.5879  -24.6457   -4.2065 C   0  0  0  0  0  0  0  0  0  0  0  0
   18.3615  -23.9547  -10.8647 N   0  0  0  0  0  0  0  0  0  0  0  0
   19.1881  -23.6767  -12.0345 C   0  0  1  0  0  0  0  0  0  0  0  0
   18.6363  -24.4837  -13.1877 C   0  0  0  0  0  0  0  0  0  0  0  0
   18.9771  -25.9526  -13.0478 C   0  0  0  0  0  0  0  0  0  0  0  0
   18.5015  -26.7234  -14.2574 C   0  0  0  0  0  0  0  0  0  0  0  0
   18.9073  -28.1749  -14.1236 C   0  0  0  0  0  0  0  0  0  0  0  0
   18.5097  -28.9125  -15.2992 N   0  0  0  0  0  0  0  0  0  0  0  0
   19.2296  -22.2454  -12.3528 C   0  0  0  0  0  0  0  0  0  0  0  0
   18.1916  -21.5551  -12.1971 O   0  0  0  0  0  0  0  0  0  0  0  0
   20.4276  -21.6522  -12.8298 N   0  0  0  0  0  0  0  0  0  0  0  0
   20.3883  -20.2322  -13.1466 C   0  0  1  0  0  0  0  0  0  0  0  0
   21.8400  -19.7743  -13.2521 C   0  0  0  0  0  0  0  0  0  0  0  0
   22.6922  -20.8896  -14.3862 S   0  0  0  0  0  0  0  0  0  0  0  0
   19.7528  -20.0452  -14.4795 C   0  0  0  0  0  0  0  0  0  0  0  0
   19.5978  -21.0274  -15.2377 O   0  0  0  0  0  0  0  0  0  0  0  0
   19.3126  -18.8125  -14.9379 O   0  0  0  0  0  0  0  0  0  0  0  0
  2  1  1  0
  3  2  2  0
  4  3  1  0
  5  4  2  0
  5 11  1  0
  6  5  1  0
  7  6  1  0
  7  8  1  1
  9  7  1  0
 10  9  2  0
 11 12  2  0
 12  2  1  0
 13  9  1  0
 14 15  1  6
 14 13  1  0
 16 17  1  0
 16 15  1  0
 18 17  1  0
 19 18  1  0
 20 14  1  0
 21 20  2  0
 22 20  1  0
 23 22  1  0
 24 25  1  0
 23 24  1  6
 26 23  1  0
 26 28  1  0
 27 26  2  0
M  END
$$$$
