YKC.pdb
     RDKit          3D

 28 28  0  0  1  0  0  0  0  0999 V2000
   27.1395  -26.5235  -16.9262 O   0  0  0  0  0  0  0  0  0  0  0  0
   26.4241  -25.3764  -16.5780 C   0  0  0  0  0  0  0  0  0  0  0  0
   25.4525  -25.4029  -15.6032 C   0  0  0  0  0  0  0  0  0  0  0  0
   24.7320  -24.2572  -15.2496 C   0  0  0  0  0  0  0  0  0  0  0  0
   24.9889  -23.0691  -15.8814 C   0  0  0  0  0  0  0  0  0  0  0  0
   24.2461  -21.8566  -15.5267 C   0  0  0  0  0  0  0  0  0  0  0  0
   25.1043  -20.8358  -14.8029 C   0  0  2  0  0  0  0  0  0  0  0  0
   25.4532  -21.4141  -13.5218 N   0  0  0  0  0  0  0  0  0  0  0  0
   24.2262  -19.6268  -14.6038 C   0  0  0  0  0  0  0  0  0  0  0  0
   23.6789  -19.3888  -13.4906 O   0  0  0  0  0  0  0  0  0  0  0  0
   25.9593  -23.0362  -16.8570 C   0  0  0  0  0  0  0  0  0  0  0  0
   26.6768  -24.1830  -17.2074 C   0  0  0  0  0  0  0  0  0  0  0  0
   23.9839  -18.7138  -15.6614 N   0  0  0  0  0  0  0  0  0  0  0  0
   23.1858  -17.5031  -15.4999 C   0  0  1  0  0  0  0  0  0  0  0  0
   23.5332  -16.5702  -16.6378 C   0  0  0  0  0  0  0  0  0  0  0  0
   25.0114  -16.2418  -16.6520 C   0  0  0  0  0  0  0  0  0  0  0  0
   25.3831  -15.5319  -17.9332 C   0  0  0  0  0  0  0  0  0  0  0  0
   26.8874  -15.3909  -18.0149 C   0  0  0  0  0  0  0  0  0  0  0  0
   27.2742  -14.9485  -19.3336 N   0  0  0  0  0  0  0  0  0  0  0  0
   21.7481  -17.7912  -15.4624 C   0  0  0  0  0  0  0  0  0  0  0  0
   21.2859  -18.6898  -16.2090 O   0  0  0  0  0  0  0  0  0  0  0  0
   20.8940  -17.0631  -14.5935 N   0  0  0  0  0  0  0  0  0  0  0  0
   19.4832  -17.4206  -14.5914 C   0  0  1  0  0  0  0  0  0  0  0  0
   18.9632  -17.1130  -13.1903 C   0  0  0  0  0  0  0  0  0  0  0  0
   17.2374  -17.6343  -13.1124 S   0  0  0  0  0  0  0  0  0  0  0  0
   18.7550  -16.5459  -15.5507 C   0  0  0  0  0  0  0  0  0  0  0  0
   19.1903  -15.4009  -15.8018 O   0  0  0  0  0  0  0  0  0  0  0  0
   17.5928  -16.9400  -16.1966 O   0  0  0  0  0  0  0  0  0  0  0  0
  2  1  1  0
  3  2  2  0
  4  3  1  0
  5  4  2  0
  5 11  1  0
  6  5  1  0
  7  6  1  0
  7  8  1  1
  9  7  1  0
 10  9  2  0
 11 12  2  0
 12  2  1  0
 13  9  1  0
 14 15  1  6
 14 13  1  0
 16 17  1  0
 16 15  1  0
 18 17  1  0
 19 18  1  0
 20 14  1  0
 21 20  2  0
 22 20  1  0
 23 22  1  0
 24 25  1  0
 23 24  1  1
 26 23  1  0
 26 28  1  0
 27 26  2  0
M  END
$$$$
