YKC.pdb
     RDKit          3D

 28 28  0  0  1  0  0  0  0  0999 V2000
   17.8926  -20.1230   -9.8672 O   0  0  0  0  0  0  0  0  0  0  0  0
   18.8778  -20.0307  -10.8519 C   0  0  0  0  0  0  0  0  0  0  0  0
   19.8710  -20.9770  -10.9666 C   0  0  0  0  0  0  0  0  0  0  0  0
   20.8612  -20.8905  -11.9509 C   0  0  0  0  0  0  0  0  0  0  0  0
   20.8558  -19.8415  -12.8319 C   0  0  0  0  0  0  0  0  0  0  0  0
   21.8835  -19.7311  -13.8708 C   0  0  0  0  0  0  0  0  0  0  0  0
   21.3509  -20.0469  -15.2561 C   0  0  2  0  0  0  0  0  0  0  0  0
   20.9780  -21.4463  -15.2531 N   0  0  0  0  0  0  0  0  0  0  0  0
   22.5027  -19.8196  -16.2016 C   0  0  0  0  0  0  0  0  0  0  0  0
   23.2507  -20.7700  -16.5659 O   0  0  0  0  0  0  0  0  0  0  0  0
   19.8653  -18.8920  -12.7223 C   0  0  0  0  0  0  0  0  0  0  0  0
   18.8780  -18.9821  -11.7376 C   0  0  0  0  0  0  0  0  0  0  0  0
   22.7865  -18.5288  -16.7154 N   0  0  0  0  0  0  0  0  0  0  0  0
   23.8527  -18.2723  -17.6778 C   0  0  1  0  0  0  0  0  0  0  0  0
   23.7264  -16.8351  -18.1295 C   0  0  0  0  0  0  0  0  0  0  0  0
   22.6439  -16.6777  -19.1768 C   0  0  0  0  0  0  0  0  0  0  0  0
   22.4128  -15.2160  -19.4828 C   0  0  0  0  0  0  0  0  0  0  0  0
   21.3431  -15.0849  -20.5449 C   0  0  0  0  0  0  0  0  0  0  0  0
   21.0753  -13.6915  -20.8113 N   0  0  0  0  0  0  0  0  0  0  0  0
   25.1801  -18.5431  -17.1154 C   0  0  0  0  0  0  0  0  0  0  0  0
   25.4339  -18.1702  -15.9428 O   0  0  0  0  0  0  0  0  0  0  0  0
   26.1615  -19.2172  -17.8881 N   0  0  0  0  0  0  0  0  0  0  0  0
   27.3334  -19.7196  -17.1861 C   0  0  1  0  0  0  0  0  0  0  0  0
   26.8354  -20.8114  -16.2437 C   0  0  0  0  0  0  0  0  0  0  0  0
   28.2774  -21.6200  -15.5206 S   0  0  0  0  0  0  0  0  0  0  0  0
   28.2585  -20.3505  -18.1668 C   0  0  0  0  0  0  0  0  0  0  0  0
   27.8305  -20.7027  -19.2877 O   0  0  0  0  0  0  0  0  0  0  0  0
   29.6008  -20.5745  -17.8997 O   0  0  0  0  0  0  0  0  0  0  0  0
  2  1  1  0
  3  2  2  0
  4  3  1  0
  5  4  2  0
  5 11  1  0
  6  5  1  0
  7  6  1  0
  7  8  1  1
  9  7  1  0
 10  9  2  0
 11 12  2  0
 12  2  1  0
 13  9  1  0
 14 15  1  1
 14 13  1  0
 16 17  1  0
 16 15  1  0
 18 17  1  0
 19 18  1  0
 20 14  1  0
 21 20  2  0
 22 20  1  0
 23 22  1  0
 24 25  1  0
 23 24  1  1
 26 23  1  0
 26 28  1  0
 27 26  2  0
M  END
$$$$
