YKC.pdb
     RDKit          3D

 28 28  0  0  1  0  0  0  0  0999 V2000
   29.3807  -18.5664   -3.1277 O   0  0  0  0  0  0  0  0  0  0  0  0
   28.8827  -19.1370   -4.3005 C   0  0  0  0  0  0  0  0  0  0  0  0
   29.0992  -20.4622   -4.6039 C   0  0  0  0  0  0  0  0  0  0  0  0
   28.6030  -21.0402   -5.7771 C   0  0  0  0  0  0  0  0  0  0  0  0
   27.8802  -20.2798   -6.6579 C   0  0  0  0  0  0  0  0  0  0  0  0
   27.3509  -20.8648   -7.8931 C   0  0  0  0  0  0  0  0  0  0  0  0
   26.3226  -19.9758   -8.5674 C   0  0  2  0  0  0  0  0  0  0  0  0
   25.0686  -20.1842   -7.8735 N   0  0  0  0  0  0  0  0  0  0  0  0
   26.2178  -20.4714   -9.9871 C   0  0  0  0  0  0  0  0  0  0  0  0
   27.2455  -20.7885  -10.6495 O   0  0  0  0  0  0  0  0  0  0  0  0
   27.6603  -18.9540   -6.3602 C   0  0  0  0  0  0  0  0  0  0  0  0
   28.1577  -18.3804   -5.1871 C   0  0  0  0  0  0  0  0  0  0  0  0
   24.9598  -20.5988  -10.6288 N   0  0  0  0  0  0  0  0  0  0  0  0
   24.8133  -21.0390  -12.0122 C   0  0  1  0  0  0  0  0  0  0  0  0
   23.3394  -21.0137  -12.3475 C   0  0  0  0  0  0  0  0  0  0  0  0
   23.0911  -21.4336  -13.7812 C   0  0  0  0  0  0  0  0  0  0  0  0
   22.4646  -22.8079  -13.8287 C   0  0  0  0  0  0  0  0  0  0  0  0
   22.2280  -23.2061  -15.2691 C   0  0  0  0  0  0  0  0  0  0  0  0
   21.6691  -24.5357  -15.3319 N   0  0  0  0  0  0  0  0  0  0  0  0
   25.5888  -20.2088  -12.9401 C   0  0  0  0  0  0  0  0  0  0  0  0
   25.4147  -18.9646  -12.9374 O   0  0  0  0  0  0  0  0  0  0  0  0
   26.5220  -20.8063  -13.8271 N   0  0  0  0  0  0  0  0  0  0  0  0
   27.3860  -19.9142  -14.5860 C   0  0  1  0  0  0  0  0  0  0  0  0
   28.7951  -20.4906  -14.4849 C   0  0  0  0  0  0  0  0  0  0  0  0
   29.2233  -20.6052  -12.7357 S   0  0  0  0  0  0  0  0  0  0  0  0
   26.9827  -19.9433  -16.0185 C   0  0  0  0  0  0  0  0  0  0  0  0
   25.9750  -20.5962  -16.3676 O   0  0  0  0  0  0  0  0  0  0  0  0
   27.6795  -19.2703  -17.0110 O   0  0  0  0  0  0  0  0  0  0  0  0
  2  1  1  0
  3  2  2  0
  4  3  1  0
  5  4  2  0
  5 11  1  0
  6  5  1  0
  7  6  1  0
  7  8  1  1
  9  7  1  0
 10  9  2  0
 11 12  2  0
 12  2  1  0
 13  9  1  0
 14 15  1  6
 14 13  1  0
 16 17  1  0
 16 15  1  0
 18 17  1  0
 19 18  1  0
 20 14  1  0
 21 20  2  0
 22 20  1  0
 23 22  1  0
 24 25  1  0
 23 24  1  6
 26 23  1  0
 26 28  1  0
 27 26  2  0
M  END
$$$$
