YKC.pdb
     RDKit          3D

 28 28  0  0  1  0  0  0  0  0999 V2000
   23.0998  -29.1312  -18.6924 O   0  0  0  0  0  0  0  0  0  0  0  0
   23.3766  -28.1966  -17.6930 C   0  0  0  0  0  0  0  0  0  0  0  0
   24.5929  -27.5555  -17.6249 C   0  0  0  0  0  0  0  0  0  0  0  0
   24.8768  -26.6181  -16.6262 C   0  0  0  0  0  0  0  0  0  0  0  0
   23.9290  -26.3193  -15.6833 C   0  0  0  0  0  0  0  0  0  0  0  0
   24.2051  -25.3404  -14.6281 C   0  0  0  0  0  0  0  0  0  0  0  0
   23.9514  -23.9125  -15.0742 C   0  0  2  0  0  0  0  0  0  0  0  0
   25.2439  -23.2653  -15.1640 N   0  0  0  0  0  0  0  0  0  0  0  0
   23.1298  -23.2794  -13.9805 C   0  0  0  0  0  0  0  0  0  0  0  0
   23.6082  -22.3754  -13.2392 O   0  0  0  0  0  0  0  0  0  0  0  0
   22.7108  -26.9571  -15.7461 C   0  0  0  0  0  0  0  0  0  0  0  0
   22.4312  -27.8929  -16.7454 C   0  0  0  0  0  0  0  0  0  0  0  0
   21.7892  -23.6775  -13.7458 N   0  0  0  0  0  0  0  0  0  0  0  0
   20.6992  -22.7270  -13.5525 C   0  0  1  0  0  0  0  0  0  0  0  0
   20.6742  -21.8082  -14.7529 C   0  0  0  0  0  0  0  0  0  0  0  0
   19.5778  -20.7707  -14.6324 C   0  0  0  0  0  0  0  0  0  0  0  0
   20.1563  -19.3774  -14.7193 C   0  0  0  0  0  0  0  0  0  0  0  0
   19.0488  -18.3591  -14.5579 C   0  0  0  0  0  0  0  0  0  0  0  0
   19.5542  -17.0307  -14.8108 N   0  0  0  0  0  0  0  0  0  0  0  0
   19.4088  -23.3986  -13.3641 C   0  0  0  0  0  0  0  0  0  0  0  0
   18.8497  -23.9350  -14.3531 O   0  0  0  0  0  0  0  0  0  0  0  0
   18.8034  -23.4398  -12.0810 N   0  0  0  0  0  0  0  0  0  0  0  0
   17.5217  -24.1205  -11.9701 C   0  0  1  0  0  0  0  0  0  0  0  0
   17.3671  -24.5106  -10.5031 C   0  0  0  0  0  0  0  0  0  0  0  0
   18.7501  -25.5841  -10.0659 S   0  0  0  0  0  0  0  0  0  0  0  0
   16.4298  -23.1663  -12.3060 C   0  0  0  0  0  0  0  0  0  0  0  0
   16.7065  -21.9818  -12.5960 O   0  0  0  0  0  0  0  0  0  0  0  0
   15.0907  -23.5270  -12.3155 O   0  0  0  0  0  0  0  0  0  0  0  0
  2  1  1  0
  3  2  2  0
  4  3  1  0
  5  4  2  0
  5 11  1  0
  6  5  1  0
  7  6  1  0
  7  8  1  1
  9  7  1  0
 10  9  2  0
 11 12  2  0
 12  2  1  0
 13  9  1  0
 14 15  1  6
 14 13  1  0
 16 17  1  0
 16 15  1  0
 18 17  1  0
 19 18  1  0
 20 14  1  0
 21 20  2  0
 22 20  1  0
 23 22  1  0
 24 25  1  0
 23 24  1  1
 26 23  1  0
 26 28  1  0
 27 26  2  0
M  END
$$$$
