YKC.pdb
     RDKit          3D

 28 28  0  0  1  0  0  0  0  0999 V2000
   23.8317  -21.5060   -8.0715 O   0  0  0  0  0  0  0  0  0  0  0  0
   24.2313  -21.1065   -9.3481 C   0  0  0  0  0  0  0  0  0  0  0  0
   25.5597  -21.0689   -9.7072 C   0  0  0  0  0  0  0  0  0  0  0  0
   25.9668  -20.6696  -10.9845 C   0  0  0  0  0  0  0  0  0  0  0  0
   25.0299  -20.3031  -11.9143 C   0  0  0  0  0  0  0  0  0  0  0  0
   25.4341  -19.8814  -13.2584 C   0  0  0  0  0  0  0  0  0  0  0  0
   24.8534  -20.7640  -14.3476 C   0  0  2  0  0  0  0  0  0  0  0  0
   25.5590  -22.0271  -14.2844 N   0  0  0  0  0  0  0  0  0  0  0  0
   25.1566  -20.0656  -15.6486 C   0  0  0  0  0  0  0  0  0  0  0  0
   26.2262  -20.2914  -16.2814 O   0  0  0  0  0  0  0  0  0  0  0  0
   23.7000  -20.3386  -11.5613 C   0  0  0  0  0  0  0  0  0  0  0  0
   23.2974  -20.7381  -10.2842 C   0  0  0  0  0  0  0  0  0  0  0  0
   24.2499  -19.1295  -16.2075 N   0  0  0  0  0  0  0  0  0  0  0  0
   24.4879  -18.4523  -17.4778 C   0  0  1  0  0  0  0  0  0  0  0  0
   23.2876  -18.7023  -18.3623 C   0  0  0  0  0  0  0  0  0  0  0  0
   23.4255  -17.9952  -19.6944 C   0  0  0  0  0  0  0  0  0  0  0  0
   24.2389  -18.8312  -20.6551 C   0  0  0  0  0  0  0  0  0  0  0  0
   24.3863  -18.0931  -21.9677 C   0  0  0  0  0  0  0  0  0  0  0  0
   25.1598  -18.8817  -22.8972 N   0  0  0  0  0  0  0  0  0  0  0  0
   24.7338  -17.0172  -17.3001 C   0  0  0  0  0  0  0  0  0  0  0  0
   23.7707  -16.2643  -17.0102 O   0  0  0  0  0  0  0  0  0  0  0  0
   26.0426  -16.4902  -17.4542 N   0  0  0  0  0  0  0  0  0  0  0  0
   26.2193  -15.0646  -17.2199 C   0  0  1  0  0  0  0  0  0  0  0  0
   27.4627  -14.9227  -16.3471 C   0  0  0  0  0  0  0  0  0  0  0  0
   27.1102  -15.6872  -14.7510 S   0  0  0  0  0  0  0  0  0  0  0  0
   26.4916  -14.3854  -18.5161 C   0  0  0  0  0  0  0  0  0  0  0  0
   27.3832  -14.8264  -19.2739 O   0  0  0  0  0  0  0  0  0  0  0  0
   25.7946  -13.2638  -18.9398 O   0  0  0  0  0  0  0  0  0  0  0  0
  2  1  1  0
  3  2  2  0
  4  3  1  0
  5  4  2  0
  5 11  1  0
  6  5  1  0
  7  6  1  0
  7  8  1  6
  9  7  1  0
 10  9  2  0
 11 12  2  0
 12  2  1  0
 13  9  1  0
 14 15  1  6
 14 13  1  0
 16 17  1  0
 16 15  1  0
 18 17  1  0
 19 18  1  0
 20 14  1  0
 21 20  2  0
 22 20  1  0
 23 22  1  0
 24 25  1  0
 23 24  1  1
 26 23  1  0
 26 28  1  0
 27 26  2  0
M  END
$$$$
