YKC.pdb
     RDKit          3D

 28 28  0  0  1  0  0  0  0  0999 V2000
   31.9007  -22.0521  -10.0760 O   0  0  0  0  0  0  0  0  0  0  0  0
   30.6709  -21.5316  -10.4831 C   0  0  0  0  0  0  0  0  0  0  0  0
   30.5403  -20.8332  -11.6622 C   0  0  0  0  0  0  0  0  0  0  0  0
   29.3112  -20.3091  -12.0759 C   0  0  0  0  0  0  0  0  0  0  0  0
   28.1981  -20.4873  -11.2975 C   0  0  0  0  0  0  0  0  0  0  0  0
   26.9004  -19.9467  -11.7116 C   0  0  0  0  0  0  0  0  0  0  0  0
   25.9644  -21.0159  -12.2437 C   0  0  2  0  0  0  0  0  0  0  0  0
   26.6441  -21.6548  -13.3514 N   0  0  0  0  0  0  0  0  0  0  0  0
   24.7425  -20.2844  -12.7379 C   0  0  0  0  0  0  0  0  0  0  0  0
   24.4115  -19.1623  -12.2616 O   0  0  0  0  0  0  0  0  0  0  0  0
   28.3223  -21.1847  -10.1173 C   0  0  0  0  0  0  0  0  0  0  0  0
   29.5520  -21.7067   -9.7075 C   0  0  0  0  0  0  0  0  0  0  0  0
   23.9213  -20.8319  -13.7561 N   0  0  0  0  0  0  0  0  0  0  0  0
   22.7840  -20.1201  -14.3294 C   0  0  1  0  0  0  0  0  0  0  0  0
   22.9484  -20.1285  -15.8322 C   0  0  0  0  0  0  0  0  0  0  0  0
   24.0346  -19.1706  -16.2749 C   0  0  0  0  0  0  0  0  0  0  0  0
   24.2256  -19.2432  -17.7722 C   0  0  0  0  0  0  0  0  0  0  0  0
   25.3156  -18.2805  -18.1901 C   0  0  0  0  0  0  0  0  0  0  0  0
   25.5669  -18.3988  -19.6068 N   0  0  0  0  0  0  0  0  0  0  0  0
   21.5035  -20.7115  -13.9266 C   0  0  0  0  0  0  0  0  0  0  0  0
   21.3727  -21.9607  -13.9536 O   0  0  0  0  0  0  0  0  0  0  0  0
   20.4295  -19.8809  -13.5128 N   0  0  0  0  0  0  0  0  0  0  0  0
   19.2082  -20.5395  -13.0734 C   0  0  1  0  0  0  0  0  0  0  0  0
   18.4350  -19.5104  -12.2541 C   0  0  0  0  0  0  0  0  0  0  0  0
   19.3677  -19.1903  -10.7429 S   0  0  0  0  0  0  0  0  0  0  0  0
   18.3845  -20.8879  -14.2632 C   0  0  0  0  0  0  0  0  0  0  0  0
   17.3195  -21.5267  -14.1167 O   0  0  0  0  0  0  0  0  0  0  0  0
   18.7413  -20.5347  -15.5560 O   0  0  0  0  0  0  0  0  0  0  0  0
  2  1  1  0
  3  2  2  0
  4  3  1  0
  5  4  2  0
  5 11  1  0
  6  5  1  0
  7  6  1  0
  7  8  1  6
  9  7  1  0
 10  9  2  0
 11 12  2  0
 12  2  1  0
 13  9  1  0
 14 15  1  6
 14 13  1  0
 16 17  1  0
 16 15  1  0
 18 17  1  0
 19 18  1  0
 20 14  1  0
 21 20  2  0
 22 20  1  0
 23 22  1  0
 24 25  1  0
 23 24  1  1
 26 23  1  0
 26 28  1  0
 27 26  2  0
M  END
$$$$
