YKC.pdb
     RDKit          3D

 28 28  0  0  1  0  0  0  0  0999 V2000
   36.7269  -25.0465  -19.1492 O   0  0  0  0  0  0  0  0  0  0  0  0
   35.4462  -25.3570  -18.6884 C   0  0  0  0  0  0  0  0  0  0  0  0
   35.2514  -26.0229  -17.4994 C   0  0  0  0  0  0  0  0  0  0  0  0
   33.9710  -26.3371  -17.0320 C   0  0  0  0  0  0  0  0  0  0  0  0
   32.8711  -25.9789  -17.7660 C   0  0  0  0  0  0  0  0  0  0  0  0
   31.5204  -26.2979  -17.2952 C   0  0  0  0  0  0  0  0  0  0  0  0
   30.6736  -25.0600  -17.0655 C   0  0  2  0  0  0  0  0  0  0  0  0
   31.2859  -24.3293  -15.9753 N   0  0  0  0  0  0  0  0  0  0  0  0
   29.3135  -25.5624  -16.6532 C   0  0  0  0  0  0  0  0  0  0  0  0
   29.0583  -25.8555  -15.4513 O   0  0  0  0  0  0  0  0  0  0  0  0
   33.0594  -25.3127  -18.9557 C   0  0  0  0  0  0  0  0  0  0  0  0
   34.3403  -25.0008  -19.4192 C   0  0  0  0  0  0  0  0  0  0  0  0
   28.2721  -25.7235  -17.6020 N   0  0  0  0  0  0  0  0  0  0  0  0
   26.9114  -26.1000  -17.2336 C   0  0  1  0  0  0  0  0  0  0  0  0
   25.9820  -25.0283  -17.7563 C   0  0  0  0  0  0  0  0  0  0  0  0
   26.1689  -23.7230  -17.0116 C   0  0  0  0  0  0  0  0  0  0  0  0
   25.2773  -22.6503  -17.5928 C   0  0  0  0  0  0  0  0  0  0  0  0
   25.4079  -21.3853  -16.7730 C   0  0  0  0  0  0  0  0  0  0  0  0
   24.5312  -20.3630  -17.2932 N   0  0  0  0  0  0  0  0  0  0  0  0
   26.5470  -27.4241  -17.7489 C   0  0  0  0  0  0  0  0  0  0  0  0
   27.2005  -27.9073  -18.7069 O   0  0  0  0  0  0  0  0  0  0  0  0
   25.4705  -28.1463  -17.1708 N   0  0  0  0  0  0  0  0  0  0  0  0
   25.2005  -29.4759  -17.6975 C   0  0  1  0  0  0  0  0  0  0  0  0
   26.3566  -30.3619  -17.2429 C   0  0  0  0  0  0  0  0  0  0  0  0
   25.9362  -32.0706  -17.6424 S   0  0  0  0  0  0  0  0  0  0  0  0
   23.9523  -30.0026  -17.0811 C   0  0  0  0  0  0  0  0  0  0  0  0
   23.5046  -29.4781  -16.0380 O   0  0  0  0  0  0  0  0  0  0  0  0
   23.2414  -31.0684  -17.6124 O   0  0  0  0  0  0  0  0  0  0  0  0
  2  1  1  0
  3  2  2  0
  4  3  1  0
  5  4  2  0
  5 11  1  0
  6  5  1  0
  7  6  1  0
  7  8  1  1
  9  7  1  0
 10  9  2  0
 11 12  2  0
 12  2  1  0
 13  9  1  0
 14 15  1  6
 14 13  1  0
 16 17  1  0
 16 15  1  0
 18 17  1  0
 19 18  1  0
 20 14  1  0
 21 20  2  0
 22 20  1  0
 23 22  1  0
 24 25  1  0
 23 24  1  1
 26 23  1  0
 26 28  1  0
 27 26  2  0
M  END
$$$$
