YKC.pdb
     RDKit          3D

 28 28  0  0  1  0  0  0  0  0999 V2000
   27.9262  -31.4528  -16.2398 O   0  0  0  0  0  0  0  0  0  0  0  0
   27.0699  -30.3776  -15.9953 C   0  0  0  0  0  0  0  0  0  0  0  0
   25.8389  -30.5580  -15.4062 C   0  0  0  0  0  0  0  0  0  0  0  0
   24.9762  -29.4851  -15.1584 C   0  0  0  0  0  0  0  0  0  0  0  0
   25.3524  -28.2145  -15.5058 C   0  0  0  0  0  0  0  0  0  0  0  0
   24.4642  -27.0759  -15.2554 C   0  0  0  0  0  0  0  0  0  0  0  0
   23.2038  -27.1209  -16.0989 C   0  0  2  0  0  0  0  0  0  0  0  0
   23.5950  -26.7969  -17.4552 N   0  0  0  0  0  0  0  0  0  0  0  0
   22.3018  -26.0456  -15.5489 C   0  0  0  0  0  0  0  0  0  0  0  0
   22.3048  -24.8771  -16.0286 O   0  0  0  0  0  0  0  0  0  0  0  0
   26.5821  -28.0276  -16.0952 C   0  0  0  0  0  0  0  0  0  0  0  0
   27.4410  -29.1021  -16.3410 C   0  0  0  0  0  0  0  0  0  0  0  0
   21.4176  -26.3095  -14.4722 N   0  0  0  0  0  0  0  0  0  0  0  0
   20.5520  -25.2917  -13.8859 C   0  0  1  0  0  0  0  0  0  0  0  0
   19.8577  -25.9115  -12.6945 C   0  0  0  0  0  0  0  0  0  0  0  0
   18.9364  -24.9207  -12.0143 C   0  0  0  0  0  0  0  0  0  0  0  0
   18.2332  -25.5695  -10.8446 C   0  0  0  0  0  0  0  0  0  0  0  0
   18.9524  -25.2139   -9.5618 C   0  0  0  0  0  0  0  0  0  0  0  0
   18.2671  -25.7929   -8.4307 N   0  0  0  0  0  0  0  0  0  0  0  0
   21.2970  -24.0867  -13.5055 C   0  0  0  0  0  0  0  0  0  0  0  0
   22.4021  -24.2113  -12.9211 O   0  0  0  0  0  0  0  0  0  0  0  0
   20.7734  -22.7996  -13.7953 N   0  0  0  0  0  0  0  0  0  0  0  0
   21.5948  -21.6509  -13.4429 C   0  0  1  0  0  0  0  0  0  0  0  0
   22.5972  -21.4736  -14.5794 C   0  0  0  0  0  0  0  0  0  0  0  0
   24.2514  -21.4381  -13.8593 S   0  0  0  0  0  0  0  0  0  0  0  0
   20.7394  -20.4337  -13.3948 C   0  0  0  0  0  0  0  0  0  0  0  0
   21.2146  -19.3560  -12.9748 O   0  0  0  0  0  0  0  0  0  0  0  0
   19.4130  -20.4287  -13.7997 O   0  0  0  0  0  0  0  0  0  0  0  0
  2  1  1  0
  3  2  2  0
  4  3  1  0
  5  4  2  0
  5 11  1  0
  6  5  1  0
  7  6  1  0
  7  8  1  6
  9  7  1  0
 10  9  2  0
 11 12  2  0
 12  2  1  0
 13  9  1  0
 14 15  1  1
 14 13  1  0
 16 17  1  0
 16 15  1  0
 18 17  1  0
 19 18  1  0
 20 14  1  0
 21 20  2  0
 22 20  1  0
 23 22  1  0
 24 25  1  0
 23 24  1  6
 26 23  1  0
 26 28  1  0
 27 26  2  0
M  END
$$$$
