YKC.pdb
     RDKit          3D

 28 28  0  0  1  0  0  0  0  0999 V2000
   14.2715  -18.8863  -11.3222 O   0  0  0  0  0  0  0  0  0  0  0  0
   15.5666  -19.3710  -11.5138 C   0  0  0  0  0  0  0  0  0  0  0  0
   16.4852  -18.6864  -12.2770 C   0  0  0  0  0  0  0  0  0  0  0  0
   17.7844  -19.1664  -12.4731 C   0  0  0  0  0  0  0  0  0  0  0  0
   18.1680  -20.3483  -11.8964 C   0  0  0  0  0  0  0  0  0  0  0  0
   19.5240  -20.8698  -12.0885 C   0  0  0  0  0  0  0  0  0  0  0  0
   19.7111  -21.5277  -13.4430 C   0  0  2  0  0  0  0  0  0  0  0  0
   18.9675  -22.7701  -13.4121 N   0  0  0  0  0  0  0  0  0  0  0  0
   21.1870  -21.8101  -13.5631 C   0  0  0  0  0  0  0  0  0  0  0  0
   21.7155  -22.8000  -12.9832 O   0  0  0  0  0  0  0  0  0  0  0  0
   17.2539  -21.0376  -11.1321 C   0  0  0  0  0  0  0  0  0  0  0  0
   15.9570  -20.5546  -10.9387 C   0  0  0  0  0  0  0  0  0  0  0  0
   22.0340  -20.9727  -14.3325 N   0  0  0  0  0  0  0  0  0  0  0  0
   23.4438  -21.2669  -14.5669 C   0  0  1  0  0  0  0  0  0  0  0  0
   23.7462  -20.9394  -16.0115 C   0  0  0  0  0  0  0  0  0  0  0  0
   25.2058  -21.1759  -16.3383 C   0  0  0  0  0  0  0  0  0  0  0  0
   25.4072  -22.5728  -16.8782 C   0  0  0  0  0  0  0  0  0  0  0  0
   26.8809  -22.8124  -17.1234 C   0  0  0  0  0  0  0  0  0  0  0  0
   27.0842  -24.1270  -17.6846 N   0  0  0  0  0  0  0  0  0  0  0  0
   24.3209  -20.5261  -13.6540 C   0  0  0  0  0  0  0  0  0  0  0  0
   24.1175  -19.2996  -13.4731 O   0  0  0  0  0  0  0  0  0  0  0  0
   25.3835  -21.1890  -12.9861 N   0  0  0  0  0  0  0  0  0  0  0  0
   26.3350  -20.3604  -12.2606 C   0  0  1  0  0  0  0  0  0  0  0  0
   26.4961  -20.9957  -10.8827 C   0  0  0  0  0  0  0  0  0  0  0  0
   24.9414  -20.7876   -9.9908 S   0  0  0  0  0  0  0  0  0  0  0  0
   27.6551  -20.4163  -12.9460 C   0  0  0  0  0  0  0  0  0  0  0  0
   27.8235  -21.1965  -13.9086 O   0  0  0  0  0  0  0  0  0  0  0  0
   28.7344  -19.6321  -12.5670 O   0  0  0  0  0  0  0  0  0  0  0  0
  2  1  1  0
  3  2  2  0
  4  3  1  0
  5  4  2  0
  5 11  1  0
  6  5  1  0
  7  6  1  0
  7  8  1  1
  9  7  1  0
 10  9  2  0
 11 12  2  0
 12  2  1  0
 13  9  1  0
 14 15  1  6
 14 13  1  0
 16 17  1  0
 16 15  1  0
 18 17  1  0
 19 18  1  0
 20 14  1  0
 21 20  2  0
 22 20  1  0
 23 22  1  0
 24 25  1  0
 23 24  1  1
 26 23  1  0
 26 28  1  0
 27 26  2  0
M  END
$$$$
