YKC.pdb
     RDKit          3D

 28 28  0  0  1  0  0  0  0  0999 V2000
   26.0110  -14.4222  -22.3263 O   0  0  0  0  0  0  0  0  0  0  0  0
   25.2235  -13.5150  -21.6152 C   0  0  0  0  0  0  0  0  0  0  0  0
   24.8399  -13.7596  -20.3160 C   0  0  0  0  0  0  0  0  0  0  0  0
   24.0509  -12.8549  -19.5978 C   0  0  0  0  0  0  0  0  0  0  0  0
   23.6410  -11.6895  -20.1897 C   0  0  0  0  0  0  0  0  0  0  0  0
   22.8140  -10.7276  -19.4559 C   0  0  0  0  0  0  0  0  0  0  0  0
   21.7002  -11.3938  -18.6698 C   0  0  2  0  0  0  0  0  0  0  0  0
   20.8356  -12.0416  -19.6343 N   0  0  0  0  0  0  0  0  0  0  0  0
   20.9602  -10.2777  -17.9779 C   0  0  0  0  0  0  0  0  0  0  0  0
   20.1775   -9.5162  -18.6127 O   0  0  0  0  0  0  0  0  0  0  0  0
   24.0214  -11.4392  -21.4887 C   0  0  0  0  0  0  0  0  0  0  0  0
   24.8096  -12.3456  -22.2027 C   0  0  0  0  0  0  0  0  0  0  0  0
   21.1176  -10.0439  -16.5881 N   0  0  0  0  0  0  0  0  0  0  0  0
   20.4394   -8.9623  -15.8816 C   0  0  1  0  0  0  0  0  0  0  0  0
   19.4499   -9.5891  -14.9257 C   0  0  0  0  0  0  0  0  0  0  0  0
   18.3179  -10.2678  -15.6680 C   0  0  0  0  0  0  0  0  0  0  0  0
   17.3049  -10.8234  -14.6940 C   0  0  0  0  0  0  0  0  0  0  0  0
   16.2085  -11.5353  -15.4559 C   0  0  0  0  0  0  0  0  0  0  0  0
   15.3215  -12.2089  -14.5373 N   0  0  0  0  0  0  0  0  0  0  0  0
   21.3827   -8.0859  -15.1789 C   0  0  0  0  0  0  0  0  0  0  0  0
   22.2675   -8.6007  -14.4505 O   0  0  0  0  0  0  0  0  0  0  0  0
   21.2940   -6.6766  -15.3223 N   0  0  0  0  0  0  0  0  0  0  0  0
   22.2940   -5.8723  -14.6357 C   0  0  1  0  0  0  0  0  0  0  0  0
   23.0676   -5.1291  -15.7207 C   0  0  0  0  0  0  0  0  0  0  0  0
   21.8719   -4.2760  -16.7688 S   0  0  0  0  0  0  0  0  0  0  0  0
   21.6092   -4.8586  -13.7878 C   0  0  0  0  0  0  0  0  0  0  0  0
   20.3623   -4.7678  -13.8118 O   0  0  0  0  0  0  0  0  0  0  0  0
   22.2941   -3.9885  -12.9527 O   0  0  0  0  0  0  0  0  0  0  0  0
  2  1  1  0
  3  2  2  0
  4  3  1  0
  5  4  2  0
  5 11  1  0
  6  5  1  0
  7  6  1  0
  7  8  1  6
  9  7  1  0
 10  9  2  0
 11 12  2  0
 12  2  1  0
 13  9  1  0
 14 15  1  1
 14 13  1  0
 16 17  1  0
 16 15  1  0
 18 17  1  0
 19 18  1  0
 20 14  1  0
 21 20  2  0
 22 20  1  0
 23 22  1  0
 24 25  1  0
 23 24  1  6
 26 23  1  0
 26 28  1  0
 27 26  2  0
M  END
$$$$
