YKC.pdb
     RDKit          3D

 28 28  0  0  1  0  0  0  0  0999 V2000
   27.2973  -16.9240  -15.7893 O   0  0  0  0  0  0  0  0  0  0  0  0
   26.4811  -15.8149  -16.0190 C   0  0  0  0  0  0  0  0  0  0  0  0
   26.2508  -15.3425  -17.2913 C   0  0  0  0  0  0  0  0  0  0  0  0
   25.4342  -14.2318  -17.5284 C   0  0  0  0  0  0  0  0  0  0  0  0
   24.8405  -13.5861  -16.4762 C   0  0  0  0  0  0  0  0  0  0  0  0
   23.9812  -12.4205  -16.7017 C   0  0  0  0  0  0  0  0  0  0  0  0
   22.5041  -12.7582  -16.6194 C   0  0  2  0  0  0  0  0  0  0  0  0
   22.2145  -13.6456  -17.7267 N   0  0  0  0  0  0  0  0  0  0  0  0
   21.7728  -11.4521  -16.7971 C   0  0  0  0  0  0  0  0  0  0  0  0
   21.6054  -10.9436  -17.9411 O   0  0  0  0  0  0  0  0  0  0  0  0
   25.0669  -14.0537  -15.2016 C   0  0  0  0  0  0  0  0  0  0  0  0
   25.8834  -15.1636  -14.9690 C   0  0  0  0  0  0  0  0  0  0  0  0
   21.2467  -10.7484  -15.6840 N   0  0  0  0  0  0  0  0  0  0  0  0
   20.5325   -9.4822  -15.8086 C   0  0  1  0  0  0  0  0  0  0  0  0
   19.1154   -9.7068  -15.3322 C   0  0  0  0  0  0  0  0  0  0  0  0
   18.3391  -10.5782  -16.2972 C   0  0  0  0  0  0  0  0  0  0  0  0
   16.9233  -10.7776  -15.8080 C   0  0  0  0  0  0  0  0  0  0  0  0
   16.2015  -11.7387  -16.7271 C   0  0  0  0  0  0  0  0  0  0  0  0
   14.8856  -12.0288  -16.2087 N   0  0  0  0  0  0  0  0  0  0  0  0
   21.1861   -8.4043  -15.0587 C   0  0  0  0  0  0  0  0  0  0  0  0
   21.6103   -8.6375  -13.8994 O   0  0  0  0  0  0  0  0  0  0  0  0
   21.3353   -7.1171  -15.6380 N   0  0  0  0  0  0  0  0  0  0  0  0
   21.9797   -6.0927  -14.8294 C   0  0  1  0  0  0  0  0  0  0  0  0
   22.5855   -5.0903  -15.8073 C   0  0  0  0  0  0  0  0  0  0  0  0
   23.3410   -3.7639  -14.8449 S   0  0  0  0  0  0  0  0  0  0  0  0
   20.9475   -5.3810  -14.0271 C   0  0  0  0  0  0  0  0  0  0  0  0
   21.2249   -4.9740  -12.8778 O   0  0  0  0  0  0  0  0  0  0  0  0
   19.6647   -5.1387  -14.4951 O   0  0  0  0  0  0  0  0  0  0  0  0
  2  1  1  0
  3  2  2  0
  4  3  1  0
  5  4  2  0
  5 11  1  0
  6  5  1  0
  7  6  1  0
  7  8  1  6
  9  7  1  0
 10  9  2  0
 11 12  2  0
 12  2  1  0
 13  9  1  0
 14 15  1  1
 14 13  1  0
 16 17  1  0
 16 15  1  0
 18 17  1  0
 19 18  1  0
 20 14  1  0
 21 20  2  0
 22 20  1  0
 23 22  1  0
 24 25  1  0
 23 24  1  6
 26 23  1  0
 26 28  1  0
 27 26  2  0
M  END
$$$$
