YKC.pdb
     RDKit          3D

 28 28  0  0  1  0  0  0  0  0999 V2000
   33.7494   -7.9006    6.7268 O   0  0  0  0  0  0  0  0  0  0  0  0
   32.5954   -7.1296    6.5756 C   0  0  0  0  0  0  0  0  0  0  0  0
   31.3408   -7.6746    6.7307 C   0  0  0  0  0  0  0  0  0  0  0  0
   30.1806   -6.9078    6.5806 C   0  0  0  0  0  0  0  0  0  0  0  0
   30.2792   -5.5770    6.2709 C   0  0  0  0  0  0  0  0  0  0  0  0
   29.0768   -4.7548    6.1090 C   0  0  0  0  0  0  0  0  0  0  0  0
   28.6787   -4.0425    7.3883 C   0  0  2  0  0  0  0  0  0  0  0  0
   28.2618   -5.0651    8.3253 N   0  0  0  0  0  0  0  0  0  0  0  0
   27.5083   -3.1653    7.0239 C   0  0  0  0  0  0  0  0  0  0  0  0
   26.4080   -3.2497    7.6385 O   0  0  0  0  0  0  0  0  0  0  0  0
   31.5309   -5.0262    6.1145 C   0  0  0  0  0  0  0  0  0  0  0  0
   32.6875   -5.7957    6.2653 C   0  0  0  0  0  0  0  0  0  0  0  0
   27.6025   -2.2137    5.9769 N   0  0  0  0  0  0  0  0  0  0  0  0
   26.5646   -1.2250    5.7047 C   0  0  1  0  0  0  0  0  0  0  0  0
   26.4247   -0.3571    6.9347 C   0  0  0  0  0  0  0  0  0  0  0  0
   25.3133    0.6585    6.7715 C   0  0  0  0  0  0  0  0  0  0  0  0
   25.1395    1.4608    8.0402 C   0  0  0  0  0  0  0  0  0  0  0  0
   24.0308    2.4728    7.8505 C   0  0  0  0  0  0  0  0  0  0  0  0
   23.7914    3.1847    9.0834 N   0  0  0  0  0  0  0  0  0  0  0  0
   26.8654   -0.4232    4.5138 C   0  0  0  0  0  0  0  0  0  0  0  0
   28.0489   -0.3721    4.0954 O   0  0  0  0  0  0  0  0  0  0  0  0
   25.8314    0.2837    3.8463 N   0  0  0  0  0  0  0  0  0  0  0  0
   26.0018    0.5260    2.4213 C   0  0  1  0  0  0  0  0  0  0  0  0
   25.8756   -0.8312    1.7357 C   0  0  0  0  0  0  0  0  0  0  0  0
   25.8875   -0.5551   -0.0475 S   0  0  0  0  0  0  0  0  0  0  0  0
   24.8901    1.3881    1.9348 C   0  0  0  0  0  0  0  0  0  0  0  0
   23.7584    1.2981    2.4590 O   0  0  0  0  0  0  0  0  0  0  0  0
   25.0438    2.3074    0.9079 O   0  0  0  0  0  0  0  0  0  0  0  0
  2  1  1  0
  3  2  2  0
  4  3  1  0
  5  4  2  0
  5 11  1  0
  6  5  1  0
  7  6  1  0
  7  8  1  1
  9  7  1  0
 10  9  2  0
 11 12  2  0
 12  2  1  0
 13  9  1  0
 14 15  1  1
 14 13  1  0
 16 17  1  0
 16 15  1  0
 18 17  1  0
 19 18  1  0
 20 14  1  0
 21 20  2  0
 22 20  1  0
 23 22  1  0
 24 25  1  0
 23 24  1  6
 26 23  1  0
 26 28  1  0
 27 26  2  0
M  END
$$$$
