GMT.pdb
     RDKit          3D

 20 19  0  0  1  0  0  0  0  0999 V2000
    8.0457  -15.8455   19.0851 N   0  0  0  0  0  0  0  0  0  0  0  0
    7.1333  -15.8168   20.1900 C   0  0  0  0  0  0  0  0  0  0  0  0
    7.8450  -15.3419   21.4009 C   0  0  0  0  0  0  0  0  0  0  0  0
    9.1017  -15.3769   21.4342 O   0  0  0  0  0  0  0  0  0  0  0  0
    7.3432  -11.5215   28.2781 C   0  0  0  0  0  0  0  0  0  0  0  0
    6.3884  -12.1268   26.8534 S   0  0  0  0  0  0  0  0  0  0  0  0
    7.4270  -13.1927   25.8482 C   0  0  0  0  0  0  0  0  0  0  0  0
    6.7344  -13.6377   24.5701 C   0  0  0  0  0  0  0  0  0  0  0  0
    7.7004  -14.4640   23.7551 C   0  0  2  0  0  0  0  0  0  0  0  0
    7.0938  -14.8525   22.5106 N   0  0  0  0  0  0  0  0  0  0  0  0
    8.1050  -15.7036   24.5155 C   0  0  0  0  0  0  0  0  0  0  0  0
    7.2414  -16.5366   24.8799 O   0  0  0  0  0  0  0  0  0  0  0  0
   10.7272  -18.0493   23.1439 C   0  0  0  0  0  0  0  0  0  0  0  0
   11.1681  -17.7168   24.5447 C   0  0  1  0  0  0  0  0  0  0  0  0
   12.3161  -16.9499   24.5776 O   0  0  0  0  0  0  0  0  0  0  0  0
   10.0439  -17.1408   25.3407 C   0  0  2  0  0  0  0  0  0  0  0  0
    9.4641  -15.9482   24.8306 N   0  0  0  0  0  0  0  0  0  0  0  0
   10.3368  -17.1453   26.7993 C   0  0  0  0  0  0  0  0  0  0  0  0
   10.3512  -16.0633   27.4297 O   0  0  0  0  0  0  0  0  0  0  0  0
   10.5945  -18.3133   27.4605 O   0  0  0  0  0  0  0  0  0  0  0  0
  2  3  1  0
  2  1  1  0
  3 10  1  0
  4  3  2  0
  5  6  1  0
  7  6  1  0
  8  7  1  0
  9  8  1  1
  9 11  1  0
 10  9  1  0
 11 17  1  0
 11 12  2  0
 14 16  1  0
 14 13  1  6
 15 14  1  0
 16 18  1  0
 16 17  1  6
 18 20  1  0
 19 18  2  0
M  END
$$$$
