GMT.pdb
     RDKit          3D

 20 19  0  0  1  0  0  0  0  0999 V2000
    7.0849  -14.6299   19.5658 N   0  0  0  0  0  0  0  0  0  0  0  0
    6.4407  -14.6750   20.8454 C   0  0  0  0  0  0  0  0  0  0  0  0
    7.4605  -14.5364   21.9125 C   0  0  0  0  0  0  0  0  0  0  0  0
    8.6805  -14.5366   21.6069 O   0  0  0  0  0  0  0  0  0  0  0  0
    6.1344  -12.0814   27.8549 C   0  0  0  0  0  0  0  0  0  0  0  0
    6.2663  -11.0919   26.3346 S   0  0  0  0  0  0  0  0  0  0  0  0
    6.9890  -12.0937   25.0311 C   0  0  0  0  0  0  0  0  0  0  0  0
    7.3144  -13.5037   25.4975 C   0  0  0  0  0  0  0  0  0  0  0  0
    7.9676  -14.2538   24.3614 C   0  0  2  0  0  0  0  0  0  0  0  0
    7.0431  -14.4051   23.2703 N   0  0  0  0  0  0  0  0  0  0  0  0
    8.4166  -15.6196   24.8212 C   0  0  0  0  0  0  0  0  0  0  0  0
    7.5742  -16.4982   25.1225 O   0  0  0  0  0  0  0  0  0  0  0  0
   10.9683  -17.7472   22.8957 C   0  0  0  0  0  0  0  0  0  0  0  0
   11.4673  -17.6492   24.3129 C   0  0  1  0  0  0  0  0  0  0  0  0
   12.6342  -16.9186   24.4211 O   0  0  0  0  0  0  0  0  0  0  0  0
   10.3869  -17.1860   25.2335 C   0  0  2  0  0  0  0  0  0  0  0  0
    9.7943  -15.9332   24.9206 N   0  0  0  0  0  0  0  0  0  0  0  0
   10.7481  -17.3921   26.6619 C   0  0  0  0  0  0  0  0  0  0  0  0
   10.7243  -16.4204   27.4515 O   0  0  0  0  0  0  0  0  0  0  0  0
   11.1096  -18.6265   27.1240 O   0  0  0  0  0  0  0  0  0  0  0  0
  2  3  1  0
  2  1  1  0
  3 10  1  0
  4  3  2  0
  5  6  1  0
  7  6  1  0
  8  7  1  0
  9  8  1  1
  9 11  1  0
 10  9  1  0
 11 17  1  0
 11 12  2  0
 14 16  1  0
 14 13  1  6
 15 14  1  0
 16 18  1  0
 16 17  1  1
 18 20  1  0
 19 18  2  0
M  END
$$$$
