GMT.pdb
     RDKit          3D

 20 19  0  0  1  0  0  0  0  0999 V2000
    4.9305  -19.6048   22.5724 N   0  0  0  0  0  0  0  0  0  0  0  0
    5.1999  -19.0417   23.8626 C   0  0  0  0  0  0  0  0  0  0  0  0
    6.0959  -17.8706   23.7087 C   0  0  0  0  0  0  0  0  0  0  0  0
    6.5947  -17.6163   22.5825 O   0  0  0  0  0  0  0  0  0  0  0  0
    5.8084  -11.8358   26.8393 C   0  0  0  0  0  0  0  0  0  0  0  0
    7.5013  -12.4806   27.0003 S   0  0  0  0  0  0  0  0  0  0  0  0
    7.7996  -13.7016   25.7175 C   0  0  0  0  0  0  0  0  0  0  0  0
    6.9302  -14.9380   25.8816 C   0  0  0  0  0  0  0  0  0  0  0  0
    7.2655  -15.9183   24.7832 C   0  0  2  0  0  0  0  0  0  0  0  0
    6.3795  -17.0495   24.8403 N   0  0  0  0  0  0  0  0  0  0  0  0
    8.6896  -16.3988   24.9227 C   0  0  0  0  0  0  0  0  0  0  0  0
    9.0729  -16.9545   25.9794 O   0  0  0  0  0  0  0  0  0  0  0  0
   10.6800  -17.4894   21.4261 C   0  0  0  0  0  0  0  0  0  0  0  0
   11.5462  -16.7437   22.4063 C   0  0  1  0  0  0  0  0  0  0  0  0
   11.8997  -15.4855   21.9603 O   0  0  0  0  0  0  0  0  0  0  0  0
   10.9388  -16.7435   23.7702 C   0  0  2  0  0  0  0  0  0  0  0  0
    9.6169  -16.2313   23.8652 N   0  0  0  0  0  0  0  0  0  0  0  0
   11.8947  -16.2627   24.8038 C   0  0  0  0  0  0  0  0  0  0  0  0
   11.5693  -15.3124   25.5518 O   0  0  0  0  0  0  0  0  0  0  0  0
   13.1250  -16.8407   24.9461 O   0  0  0  0  0  0  0  0  0  0  0  0
  2  3  1  0
  2  1  1  0
  3 10  1  0
  4  3  2  0
  5  6  1  0
  7  6  1  0
  8  7  1  0
  9  8  1  1
  9 11  1  0
 10  9  1  0
 11 17  1  0
 11 12  2  0
 14 16  1  0
 14 13  1  6
 15 14  1  0
 16 18  1  0
 16 17  1  6
 18 20  1  0
 19 18  2  0
M  END
$$$$
