GMT.pdb
     RDKit          3D

 20 19  0  0  1  0  0  0  0  0999 V2000
    7.3505  -14.8122   19.8627 N   0  0  0  0  0  0  0  0  0  0  0  0
    6.7455  -15.1040   21.1288 C   0  0  0  0  0  0  0  0  0  0  0  0
    7.5795  -14.5332   22.2135 C   0  0  0  0  0  0  0  0  0  0  0  0
    8.6644  -13.9651   21.9269 O   0  0  0  0  0  0  0  0  0  0  0  0
    6.2877  -11.7577   28.2091 C   0  0  0  0  0  0  0  0  0  0  0  0
    6.3487  -11.1449   26.4978 S   0  0  0  0  0  0  0  0  0  0  0  0
    6.1889  -12.5271   25.3626 C   0  0  0  0  0  0  0  0  0  0  0  0
    6.9958  -13.7369   25.8062 C   0  0  0  0  0  0  0  0  0  0  0  0
    7.9109  -14.1519   24.6791 C   0  0  2  0  0  0  0  0  0  0  0  0
    7.1395  -14.6369   23.5666 N   0  0  0  0  0  0  0  0  0  0  0  0
    8.8526  -15.2386   25.1381 C   0  0  0  0  0  0  0  0  0  0  0  0
    9.3341  -15.2160   26.2957 O   0  0  0  0  0  0  0  0  0  0  0  0
    8.8760  -19.1737   23.5208 C   0  0  0  0  0  0  0  0  0  0  0  0
   10.1884  -18.4361   23.4999 C   0  0  1  0  0  0  0  0  0  0  0  0
   10.5721  -18.0603   22.2277 O   0  0  0  0  0  0  0  0  0  0  0  0
   10.1885  -17.3092   24.4794 C   0  0  2  0  0  0  0  0  0  0  0  0
    9.2089  -16.3012   24.2720 N   0  0  0  0  0  0  0  0  0  0  0  0
   11.5650  -16.8240   24.7677 C   0  0  0  0  0  0  0  0  0  0  0  0
   12.4116  -17.6148   25.2436 O   0  0  0  0  0  0  0  0  0  0  0  0
   11.9179  -15.5263   24.5245 O   0  0  0  0  0  0  0  0  0  0  0  0
  2  3  1  0
  2  1  1  0
  3 10  1  0
  4  3  2  0
  5  6  1  0
  7  6  1  0
  8  7  1  0
  9  8  1  1
  9 11  1  0
 10  9  1  0
 11 17  1  0
 11 12  2  0
 14 16  1  0
 14 13  1  6
 15 14  1  0
 16 18  1  0
 16 17  1  6
 18 20  1  0
 19 18  2  0
M  END
$$$$
