GMT.pdb
     RDKit          3D

 20 19  0  0  1  0  0  0  0  0999 V2000
    4.8241  -19.2801   23.3163 N   0  0  0  0  0  0  0  0  0  0  0  0
    5.2496  -18.5408   24.4680 C   0  0  0  0  0  0  0  0  0  0  0  0
    6.2292  -17.5082   24.0530 C   0  0  0  0  0  0  0  0  0  0  0  0
    6.7142  -17.5454   22.8932 O   0  0  0  0  0  0  0  0  0  0  0  0
    7.5765  -12.1354   27.6801 C   0  0  0  0  0  0  0  0  0  0  0  0
    6.0226  -12.3318   26.7557 S   0  0  0  0  0  0  0  0  0  0  0  0
    6.1775  -13.7087   25.6132 C   0  0  0  0  0  0  0  0  0  0  0  0
    7.5414  -14.3757   25.6920 C   0  0  0  0  0  0  0  0  0  0  0  0
    7.5982  -15.4898   24.6743 C   0  0  2  0  0  0  0  0  0  0  0  0
    6.6075  -16.4877   24.9753 N   0  0  0  0  0  0  0  0  0  0  0  0
    8.9634  -16.1336   24.6737 C   0  0  0  0  0  0  0  0  0  0  0  0
    9.3299  -16.8489   25.6361 O   0  0  0  0  0  0  0  0  0  0  0  0
   10.3113  -17.5818   21.1612 C   0  0  0  0  0  0  0  0  0  0  0  0
   11.4012  -16.8277   21.8758 C   0  0  1  0  0  0  0  0  0  0  0  0
   11.7571  -15.6599   21.2303 O   0  0  0  0  0  0  0  0  0  0  0  0
   11.0652  -16.6329   23.3175 C   0  0  2  0  0  0  0  0  0  0  0  0
    9.8535  -15.9421   23.5886 N   0  0  0  0  0  0  0  0  0  0  0  0
   12.2477  -16.2003   24.1098 C   0  0  0  0  0  0  0  0  0  0  0  0
   12.2009  -15.1271   24.7535 O   0  0  0  0  0  0  0  0  0  0  0  0
   13.3863  -16.9556   24.1420 O   0  0  0  0  0  0  0  0  0  0  0  0
  2  3  1  0
  2  1  1  0
  3 10  1  0
  4  3  2  0
  5  6  1  0
  7  6  1  0
  8  7  1  0
  9  8  1  1
  9 11  1  0
 10  9  1  0
 11 17  1  0
 11 12  2  0
 14 16  1  0
 14 13  1  6
 15 14  1  0
 16 18  1  0
 16 17  1  6
 18 20  1  0
 19 18  2  0
M  END
$$$$
