GMT.pdb
     RDKit          3D

 20 19  0  0  1  0  0  0  0  0999 V2000
    4.7580  -18.5850   22.0363 N   0  0  0  0  0  0  0  0  0  0  0  0
    4.8586  -18.0397   23.3579 C   0  0  0  0  0  0  0  0  0  0  0  0
    6.0265  -17.1290   23.4247 C   0  0  0  0  0  0  0  0  0  0  0  0
    6.8302  -17.0808   22.4585 O   0  0  0  0  0  0  0  0  0  0  0  0
    7.4187  -11.5489   27.1666 C   0  0  0  0  0  0  0  0  0  0  0  0
    5.8105  -12.2150   26.6394 S   0  0  0  0  0  0  0  0  0  0  0  0
    6.0719  -13.5319   25.4467 C   0  0  0  0  0  0  0  0  0  0  0  0
    7.1486  -14.5094   25.8901 C   0  0  0  0  0  0  0  0  0  0  0  0
    7.3895  -15.5048   24.7805 C   0  0  2  0  0  0  0  0  0  0  0  0
    6.2219  -16.3208   24.5839 N   0  0  0  0  0  0  0  0  0  0  0  0
    8.5625  -16.3937   25.1158 C   0  0  0  0  0  0  0  0  0  0  0  0
    8.4758  -17.2415   26.0355 O   0  0  0  0  0  0  0  0  0  0  0  0
   10.9456  -17.6219   22.0549 C   0  0  0  0  0  0  0  0  0  0  0  0
   11.7640  -17.2114   23.2502 C   0  0  1  0  0  0  0  0  0  0  0  0
   12.5140  -16.0746   23.0215 O   0  0  0  0  0  0  0  0  0  0  0  0
   10.9198  -17.1309   24.4790 C   0  0  2  0  0  0  0  0  0  0  0  0
    9.7797  -16.2868   24.3995 N   0  0  0  0  0  0  0  0  0  0  0  0
   11.7431  -16.9919   25.7104 C   0  0  0  0  0  0  0  0  0  0  0  0
   11.5035  -16.0596   26.5115 O   0  0  0  0  0  0  0  0  0  0  0  0
   12.7600  -17.8649   25.9778 O   0  0  0  0  0  0  0  0  0  0  0  0
  2  3  1  0
  2  1  1  0
  3 10  1  0
  4  3  2  0
  5  6  1  0
  7  6  1  0
  8  7  1  0
  9  8  1  1
  9 11  1  0
 10  9  1  0
 11 17  1  0
 11 12  2  0
 14 16  1  0
 14 13  1  6
 15 14  1  0
 16 18  1  0
 16 17  1  6
 18 20  1  0
 19 18  2  0
M  END
$$$$
