GMT.pdb
     RDKit          3D

 20 19  0  0  1  0  0  0  0  0999 V2000
    6.3712  -16.4588   19.4463 N   0  0  0  0  0  0  0  0  0  0  0  0
    5.8593  -16.1367   20.7457 C   0  0  0  0  0  0  0  0  0  0  0  0
    6.9596  -15.6121   21.5896 C   0  0  0  0  0  0  0  0  0  0  0  0
    8.1412  -15.6505   21.1607 O   0  0  0  0  0  0  0  0  0  0  0  0
    5.6536  -12.1549   27.0057 C   0  0  0  0  0  0  0  0  0  0  0  0
    7.4690  -12.0451   26.9973 S   0  0  0  0  0  0  0  0  0  0  0  0
    8.1249  -13.1003   25.7006 C   0  0  0  0  0  0  0  0  0  0  0  0
    7.0302  -13.6963   24.8301 C   0  0  0  0  0  0  0  0  0  0  0  0
    7.6696  -14.5388   23.7524 C   0  0  2  0  0  0  0  0  0  0  0  0
    6.6619  -15.0718   22.8759 N   0  0  0  0  0  0  0  0  0  0  0  0
    8.4443  -15.6798   24.3660 C   0  0  0  0  0  0  0  0  0  0  0  0
    7.8802  -16.4869   25.1423 O   0  0  0  0  0  0  0  0  0  0  0  0
   11.2915  -17.5028   22.1319 C   0  0  0  0  0  0  0  0  0  0  0  0
   11.7895  -17.2494   23.5301 C   0  0  1  0  0  0  0  0  0  0  0  0
   12.8098  -16.3199   23.5756 O   0  0  0  0  0  0  0  0  0  0  0  0
   10.6600  -16.9400   24.4562 C   0  0  2  0  0  0  0  0  0  0  0  0
    9.8192  -15.8594   24.0768 N   0  0  0  0  0  0  0  0  0  0  0  0
   11.0892  -16.9566   25.8806 C   0  0  0  0  0  0  0  0  0  0  0  0
   10.9141  -15.9398   26.5903 O   0  0  0  0  0  0  0  0  0  0  0  0
   11.6758  -18.0647   26.4247 O   0  0  0  0  0  0  0  0  0  0  0  0
  2  3  1  0
  2  1  1  0
  3 10  1  0
  4  3  2  0
  5  6  1  0
  7  6  1  0
  8  7  1  0
  9  8  1  1
  9 11  1  0
 10  9  1  0
 11 17  1  0
 11 12  2  0
 14 16  1  0
 14 13  1  6
 15 14  1  0
 16 18  1  0
 16 17  1  6
 18 20  1  0
 19 18  2  0
M  END
$$$$
