GMT.pdb
     RDKit          3D

 20 19  0  0  1  0  0  0  0  0999 V2000
    7.3430  -16.1035   19.9496 N   0  0  0  0  0  0  0  0  0  0  0  0
    7.0796  -14.8393   20.5712 C   0  0  0  0  0  0  0  0  0  0  0  0
    7.8633  -14.7373   21.8256 C   0  0  0  0  0  0  0  0  0  0  0  0
    9.0985  -14.5080   21.7672 O   0  0  0  0  0  0  0  0  0  0  0  0
    6.9732  -10.2766   26.7551 C   0  0  0  0  0  0  0  0  0  0  0  0
    7.0900  -12.0816   26.9449 S   0  0  0  0  0  0  0  0  0  0  0  0
    6.7672  -12.8702   25.3641 C   0  0  0  0  0  0  0  0  0  0  0  0
    6.9324  -14.3803   25.4260 C   0  0  0  0  0  0  0  0  0  0  0  0
    7.8908  -14.8101   24.3412 C   0  0  2  0  0  0  0  0  0  0  0  0
    7.2049  -14.9011   23.0806 N   0  0  0  0  0  0  0  0  0  0  0  0
    8.4941  -16.1534   24.6732 C   0  0  0  0  0  0  0  0  0  0  0  0
    7.7604  -17.1563   24.8408 O   0  0  0  0  0  0  0  0  0  0  0  0
   12.5968  -18.9310   24.5756 C   0  0  0  0  0  0  0  0  0  0  0  0
   11.9904  -17.5621   24.4151 C   0  0  1  0  0  0  0  0  0  0  0  0
   12.0274  -17.1089   23.1112 O   0  0  0  0  0  0  0  0  0  0  0  0
   10.6308  -17.5001   25.0290 C   0  0  2  0  0  0  0  0  0  0  0  0
    9.8965  -16.3053   24.8013 N   0  0  0  0  0  0  0  0  0  0  0  0
   10.6302  -18.0029   26.4292 C   0  0  0  0  0  0  0  0  0  0  0  0
   10.4134  -17.2067   27.3713 O   0  0  0  0  0  0  0  0  0  0  0  0
   10.8669  -19.3209   26.7025 O   0  0  0  0  0  0  0  0  0  0  0  0
  2  3  1  0
  2  1  1  0
  3 10  1  0
  4  3  2  0
  5  6  1  0
  7  6  1  0
  8  7  1  0
  9  8  1  1
  9 11  1  0
 10  9  1  0
 11 17  1  0
 11 12  2  0
 14 16  1  0
 14 13  1  6
 15 14  1  0
 16 18  1  0
 16 17  1  1
 18 20  1  0
 19 18  2  0
M  END
$$$$
