GMT.pdb
     RDKit          3D

 20 19  0  0  1  0  0  0  0  0999 V2000
    5.0719  -17.9569   21.5184 N   0  0  0  0  0  0  0  0  0  0  0  0
    5.0912  -17.5778   22.9004 C   0  0  0  0  0  0  0  0  0  0  0  0
    6.3322  -16.8173   23.1826 C   0  0  0  0  0  0  0  0  0  0  0  0
    7.2919  -16.8753   22.3718 O   0  0  0  0  0  0  0  0  0  0  0  0
    7.5341  -11.9556   27.7157 C   0  0  0  0  0  0  0  0  0  0  0  0
    6.1595  -11.9828   26.5251 S   0  0  0  0  0  0  0  0  0  0  0  0
    6.4095  -13.3221   25.3552 C   0  0  0  0  0  0  0  0  0  0  0  0
    7.3404  -14.3962   25.8949 C   0  0  0  0  0  0  0  0  0  0  0  0
    7.6332  -15.3857   24.7925 C   0  0  2  0  0  0  0  0  0  0  0  0
    6.4197  -16.0311   24.3698 N   0  0  0  0  0  0  0  0  0  0  0  0
    8.6091  -16.4333   25.2706 C   0  0  0  0  0  0  0  0  0  0  0  0
    8.2819  -17.2447   26.1689 O   0  0  0  0  0  0  0  0  0  0  0  0
   11.1102  -18.0872   22.5137 C   0  0  0  0  0  0  0  0  0  0  0  0
   11.8384  -17.7579   23.7897 C   0  0  1  0  0  0  0  0  0  0  0  0
   12.7547  -16.7363   23.6358 O   0  0  0  0  0  0  0  0  0  0  0  0
   10.8814  -17.5355   24.9140 C   0  0  2  0  0  0  0  0  0  0  0  0
    9.9090  -16.5190   24.7147 N   0  0  0  0  0  0  0  0  0  0  0  0
   11.5680  -17.5243   26.2338 C   0  0  0  0  0  0  0  0  0  0  0  0
   11.4756  -16.5150   26.9695 O   0  0  0  0  0  0  0  0  0  0  0  0
   12.3018  -18.5983   26.6531 O   0  0  0  0  0  0  0  0  0  0  0  0
  2  3  1  0
  2  1  1  0
  3 10  1  0
  4  3  2  0
  5  6  1  0
  7  6  1  0
  8  7  1  0
  9  8  1  1
  9 11  1  0
 10  9  1  0
 11 17  1  0
 11 12  2  0
 14 16  1  0
 14 13  1  6
 15 14  1  0
 16 18  1  0
 16 17  1  6
 18 20  1  0
 19 18  2  0
M  END
$$$$
