GMT.pdb
     RDKit          3D

 20 19  0  0  1  0  0  0  0  0999 V2000
    7.6005  -15.6829   18.8506 N   0  0  0  0  0  0  0  0  0  0  0  0
    6.7712  -15.6520   20.0191 C   0  0  0  0  0  0  0  0  0  0  0  0
    7.5871  -15.2455   21.1884 C   0  0  0  0  0  0  0  0  0  0  0  0
    8.8418  -15.2791   21.1097 O   0  0  0  0  0  0  0  0  0  0  0  0
    7.5980  -11.7077   28.2479 C   0  0  0  0  0  0  0  0  0  0  0  0
    6.5494  -12.2646   26.8702 S   0  0  0  0  0  0  0  0  0  0  0  0
    7.5444  -13.1972   25.7018 C   0  0  0  0  0  0  0  0  0  0  0  0
    6.7428  -13.6528   24.4929 C   0  0  0  0  0  0  0  0  0  0  0  0
    7.6548  -14.4184   23.5643 C   0  0  2  0  0  0  0  0  0  0  0  0
    6.9369  -14.8226   22.3857 N   0  0  0  0  0  0  0  0  0  0  0  0
    8.2006  -15.6447   24.2549 C   0  0  0  0  0  0  0  0  0  0  0  0
    7.4420  -16.5972   24.5537 O   0  0  0  0  0  0  0  0  0  0  0  0
   12.1886  -18.4499   24.8854 C   0  0  0  0  0  0  0  0  0  0  0  0
   11.5881  -17.1655   24.3787 C   0  0  1  0  0  0  0  0  0  0  0  0
   11.5192  -17.1129   23.0005 O   0  0  0  0  0  0  0  0  0  0  0  0
   10.2869  -16.8770   25.0516 C   0  0  2  0  0  0  0  0  0  0  0  0
    9.5765  -15.7417   24.5773 N   0  0  0  0  0  0  0  0  0  0  0  0
   10.3855  -17.0071   26.5304 C   0  0  0  0  0  0  0  0  0  0  0  0
   10.6944  -16.0078   27.2191 O   0  0  0  0  0  0  0  0  0  0  0  0
   10.1478  -18.2030   27.1479 O   0  0  0  0  0  0  0  0  0  0  0  0
  2  3  1  0
  2  1  1  0
  3 10  1  0
  4  3  2  0
  5  6  1  0
  7  6  1  0
  8  7  1  0
  9  8  1  1
  9 11  1  0
 10  9  1  0
 11 17  1  0
 11 12  2  0
 14 16  1  0
 14 13  1  6
 15 14  1  0
 16 18  1  0
 16 17  1  1
 18 20  1  0
 19 18  2  0
M  END
$$$$
