GMT.pdb
     RDKit          3D

 20 19  0  0  1  0  0  0  0  0999 V2000
    8.1053  -15.8733   19.0221 N   0  0  0  0  0  0  0  0  0  0  0  0
    7.1984  -15.8700   20.1319 C   0  0  0  0  0  0  0  0  0  0  0  0
    7.9154  -15.4204   21.3492 C   0  0  0  0  0  0  0  0  0  0  0  0
    9.1730  -15.4220   21.3633 O   0  0  0  0  0  0  0  0  0  0  0  0
    7.3692  -11.7150   28.2938 C   0  0  0  0  0  0  0  0  0  0  0  0
    6.4299  -12.3182   26.8580 S   0  0  0  0  0  0  0  0  0  0  0  0
    7.5170  -13.2672   25.7892 C   0  0  0  0  0  0  0  0  0  0  0  0
    6.8113  -13.7600   24.5360 C   0  0  0  0  0  0  0  0  0  0  0  0
    7.7866  -14.5678   23.7136 C   0  0  2  0  0  0  0  0  0  0  0  0
    7.1683  -14.9929   22.4869 N   0  0  0  0  0  0  0  0  0  0  0  0
    8.2442  -15.7831   24.4830 C   0  0  0  0  0  0  0  0  0  0  0  0
    7.4299  -16.6861   24.7891 O   0  0  0  0  0  0  0  0  0  0  0  0
   11.0092  -17.9469   23.2433 C   0  0  0  0  0  0  0  0  0  0  0  0
   11.4001  -17.6053   24.6567 C   0  0  1  0  0  0  0  0  0  0  0  0
   12.5206  -16.8011   24.7236 O   0  0  0  0  0  0  0  0  0  0  0  0
   10.2358  -17.0699   25.4230 C   0  0  2  0  0  0  0  0  0  0  0  0
    9.5987  -15.9256   24.8724 N   0  0  0  0  0  0  0  0  0  0  0  0
   10.5095  -17.0177   26.8844 C   0  0  0  0  0  0  0  0  0  0  0  0
   10.3863  -15.9326   27.4975 O   0  0  0  0  0  0  0  0  0  0  0  0
   10.8975  -18.1364   27.5669 O   0  0  0  0  0  0  0  0  0  0  0  0
  2  3  1  0
  2  1  1  0
  3 10  1  0
  4  3  2  0
  5  6  1  0
  7  6  1  0
  8  7  1  0
  9  8  1  1
  9 11  1  0
 10  9  1  0
 11 17  1  0
 11 12  2  0
 14 16  1  0
 14 13  1  6
 15 14  1  0
 16 18  1  0
 16 17  1  6
 18 20  1  0
 19 18  2  0
M  END
$$$$
