GMT.pdb
     RDKit          3D

 20 19  0  0  1  0  0  0  0  0999 V2000
    5.0258  -20.0072   22.3501 N   0  0  0  0  0  0  0  0  0  0  0  0
    5.1979  -19.4343   23.6525 C   0  0  0  0  0  0  0  0  0  0  0  0
    6.0677  -18.2380   23.5505 C   0  0  0  0  0  0  0  0  0  0  0  0
    6.6664  -17.9979   22.4709 O   0  0  0  0  0  0  0  0  0  0  0  0
    7.8991  -11.1808   26.4750 C   0  0  0  0  0  0  0  0  0  0  0  0
    6.9059  -12.6810   26.7414 S   0  0  0  0  0  0  0  0  0  0  0  0
    7.3958  -13.9393   25.5575 C   0  0  0  0  0  0  0  0  0  0  0  0
    6.5773  -15.2131   25.6944 C   0  0  0  0  0  0  0  0  0  0  0  0
    7.0579  -16.2133   24.6703 C   0  0  2  0  0  0  0  0  0  0  0  0
    6.2130  -17.3769   24.6786 N   0  0  0  0  0  0  0  0  0  0  0  0
    8.4773  -16.6314   24.9681 C   0  0  0  0  0  0  0  0  0  0  0  0
    8.7575  -17.2104   26.0445 O   0  0  0  0  0  0  0  0  0  0  0  0
   10.8012  -17.3023   21.5903 C   0  0  0  0  0  0  0  0  0  0  0  0
   11.5926  -16.7680   22.7545 C   0  0  1  0  0  0  0  0  0  0  0  0
   12.0701  -15.4907   22.5371 O   0  0  0  0  0  0  0  0  0  0  0  0
   10.8336  -16.9108   24.0324 C   0  0  2  0  0  0  0  0  0  0  0  0
    9.5165  -16.3782   24.0395 N   0  0  0  0  0  0  0  0  0  0  0  0
   11.6718  -16.5797   25.2161 C   0  0  0  0  0  0  0  0  0  0  0  0
   12.7755  -17.1510   25.3707 O   0  0  0  0  0  0  0  0  0  0  0  0
   11.2527  -15.6635   26.1396 O   0  0  0  0  0  0  0  0  0  0  0  0
  2  3  1  0
  2  1  1  0
  3 10  1  0
  4  3  2  0
  5  6  1  0
  7  6  1  0
  8  7  1  0
  9  8  1  1
  9 11  1  0
 10  9  1  0
 11 17  1  0
 11 12  2  0
 14 16  1  0
 14 13  1  6
 15 14  1  0
 16 18  1  0
 16 17  1  6
 18 20  1  0
 19 18  2  0
M  END
$$$$
