GMT.pdb
     RDKit          3D

 20 19  0  0  1  0  0  0  0  0999 V2000
    5.3758  -18.1701   20.9442 N   0  0  0  0  0  0  0  0  0  0  0  0
    5.2554  -17.9790   22.3595 C   0  0  0  0  0  0  0  0  0  0  0  0
    6.3459  -17.0910   22.8286 C   0  0  0  0  0  0  0  0  0  0  0  0
    7.4087  -17.0097   22.1611 O   0  0  0  0  0  0  0  0  0  0  0  0
    5.8296  -11.6694   26.6601 C   0  0  0  0  0  0  0  0  0  0  0  0
    7.2483  -12.5486   27.3826 S   0  0  0  0  0  0  0  0  0  0  0  0
    7.8207  -13.8043   26.2334 C   0  0  0  0  0  0  0  0  0  0  0  0
    6.6784  -14.6259   25.6576 C   0  0  0  0  0  0  0  0  0  0  0  0
    7.2390  -15.5986   24.6477 C   0  0  2  0  0  0  0  0  0  0  0  0
    6.1740  -16.3420   24.0306 N   0  0  0  0  0  0  0  0  0  0  0  0
    8.1908  -16.5611   25.3156 C   0  0  0  0  0  0  0  0  0  0  0  0
    7.7648  -17.4168   26.1271 O   0  0  0  0  0  0  0  0  0  0  0  0
   10.8290  -18.3149   23.0356 C   0  0  0  0  0  0  0  0  0  0  0  0
   11.5379  -17.8109   24.2647 C   0  0  1  0  0  0  0  0  0  0  0  0
   12.4208  -16.7849   23.9915 O   0  0  0  0  0  0  0  0  0  0  0  0
   10.5669  -17.4878   25.3518 C   0  0  2  0  0  0  0  0  0  0  0  0
    9.5791  -16.5158   25.0385 N   0  0  0  0  0  0  0  0  0  0  0  0
   11.2410  -17.3242   26.6680 C   0  0  0  0  0  0  0  0  0  0  0  0
   11.1475  -16.2348   27.2787 O   0  0  0  0  0  0  0  0  0  0  0  0
   11.9645  -18.3447   27.2184 O   0  0  0  0  0  0  0  0  0  0  0  0
  2  3  1  0
  2  1  1  0
  3 10  1  0
  4  3  2  0
  5  6  1  0
  7  6  1  0
  8  7  1  0
  9  8  1  1
  9 11  1  0
 10  9  1  0
 11 17  1  0
 11 12  2  0
 14 16  1  0
 14 13  1  6
 15 14  1  0
 16 18  1  0
 16 17  1  6
 18 20  1  0
 19 18  2  0
M  END
$$$$
