HIG.pdb
     RDKit          3D

 23 23  0  0  1  0  0  0  0  0999 V2000
   28.2832  -20.0494  -14.8144 N   0  0  0  0  0  0  0  0  0  0  0  0
   27.2594  -19.4313  -13.9935 C   0  0  1  0  0  0  0  0  0  0  0  0
   26.3098  -18.7175  -14.9222 C   0  0  0  0  0  0  0  0  0  0  0  0
   27.0597  -17.6137  -15.5639 C   0  0  0  0  0  0  0  0  0  0  0  0
   27.6266  -17.6466  -16.8180 C   0  0  0  0  0  0  0  0  0  0  0  0
   28.2325  -16.4465  -17.0632 N   0  0  0  0  0  0  0  0  0  0  0  0
   28.0446  -15.6842  -15.9815 C   0  0  0  0  0  0  0  0  0  0  0  0
   27.3332  -16.3953  -15.0749 N   0  0  0  0  0  0  0  0  0  0  0  0
   26.6062  -20.3822  -13.0925 C   0  0  0  0  0  0  0  0  0  0  0  0
   26.5938  -21.6077  -13.3802 O   0  0  0  0  0  0  0  0  0  0  0  0
   26.9841  -19.4407   -7.9141 C   0  0  0  0  0  0  0  0  0  0  0  0
   26.9172  -20.4330   -9.0407 C   0  0  0  0  0  0  0  0  0  0  0  0
   25.5038  -20.5296   -9.5193 C   0  0  2  0  0  0  0  0  0  0  0  0
   24.6204  -21.3598   -8.6220 C   0  0  0  0  0  0  0  0  0  0  0  0
   25.3901  -20.9706  -10.9634 C   0  0  2  0  0  0  0  0  0  0  0  0
   25.9638  -20.0194  -11.8787 N   0  0  0  0  0  0  0  0  0  0  0  0
   23.9751  -21.2139  -11.3378 C   0  0  0  0  0  0  0  0  0  0  0  0
   23.2630  -21.9298  -10.5916 O   0  0  0  0  0  0  0  0  0  0  0  0
   23.4008  -20.6562  -12.5236 N   0  0  0  0  0  0  0  0  0  0  0  0
   22.0310  -20.9443  -12.8083 C   0  0  0  0  0  0  0  0  0  0  0  0
   21.5669  -20.2920  -14.0488 C   0  0  0  0  0  0  0  0  0  0  0  0
   20.2188  -20.1013  -14.2998 O   0  0  0  0  0  0  0  0  0  0  0  0
   22.4040  -19.9007  -14.8954 O   0  0  0  0  0  0  0  0  0  0  0  0
  2  1  1  6
  3  2  1  0
  4  8  1  0
  4  3  1  0
  5  4  2  0
  6  5  1  0
  6  7  1  0
  7  8  2  0
  9  2  1  0
 10  9  2  0
 11 12  1  0
 13 12  1  0
 13 14  1  1
 15 13  1  0
 15 16  1  6
 16  9  1  0
 17 18  2  0
 17 15  1  0
 19 17  1  0
 20 19  1  0
 21 20  1  0
 22 21  1  0
 23 21  2  0
M  END
$$$$
