HIG.pdb
     RDKit          3D

 23 23  0  0  1  0  0  0  0  0999 V2000
   28.0916  -20.7254  -15.9146 N   0  0  0  0  0  0  0  0  0  0  0  0
   26.9165  -19.9409  -15.5861 C   0  0  1  0  0  0  0  0  0  0  0  0
   26.2648  -19.5427  -16.8862 C   0  0  0  0  0  0  0  0  0  0  0  0
   27.1817  -18.6065  -17.5758 C   0  0  0  0  0  0  0  0  0  0  0  0
   27.4080  -17.2947  -17.2249 C   0  0  0  0  0  0  0  0  0  0  0  0
   28.3147  -16.7531  -18.0921 N   0  0  0  0  0  0  0  0  0  0  0  0
   28.6441  -17.7111  -18.9638 C   0  0  0  0  0  0  0  0  0  0  0  0
   27.9552  -18.8331  -18.6476 N   0  0  0  0  0  0  0  0  0  0  0  0
   26.0180  -20.6293  -14.6579 C   0  0  0  0  0  0  0  0  0  0  0  0
   25.7512  -21.8469  -14.8342 O   0  0  0  0  0  0  0  0  0  0  0  0
   26.6693  -21.7085  -10.8131 C   0  0  0  0  0  0  0  0  0  0  0  0
   26.1729  -20.2916  -10.7476 C   0  0  0  0  0  0  0  0  0  0  0  0
   24.7426  -20.2576  -11.1824 C   0  0  2  0  0  0  0  0  0  0  0  0
   23.8117  -20.9861  -10.2455 C   0  0  0  0  0  0  0  0  0  0  0  0
   24.5420  -20.7052  -12.6149 C   0  0  2  0  0  0  0  0  0  0  0  0
   25.4028  -20.0115  -13.5366 N   0  0  0  0  0  0  0  0  0  0  0  0
   23.1311  -20.5262  -13.0379 C   0  0  0  0  0  0  0  0  0  0  0  0
   22.6558  -19.3654  -13.0950 O   0  0  0  0  0  0  0  0  0  0  0  0
   22.2987  -21.6377  -13.3821 N   0  0  0  0  0  0  0  0  0  0  0  0
   20.9485  -21.3744  -13.7669 C   0  0  0  0  0  0  0  0  0  0  0  0
   20.0124  -21.4704  -12.6293 C   0  0  0  0  0  0  0  0  0  0  0  0
   18.6614  -21.2115  -12.7861 O   0  0  0  0  0  0  0  0  0  0  0  0
   20.4421  -21.7920  -11.4967 O   0  0  0  0  0  0  0  0  0  0  0  0
  2  1  1  6
  3  2  1  0
  4  8  1  0
  4  3  1  0
  5  4  2  0
  6  5  1  0
  6  7  1  0
  7  8  2  0
  9  2  1  0
 10  9  2  0
 11 12  1  0
 13 12  1  0
 13 14  1  1
 15 13  1  0
 15 16  1  6
 16  9  1  0
 17 18  2  0
 17 15  1  0
 19 17  1  0
 20 19  1  0
 21 20  1  0
 22 21  1  0
 23 21  2  0
M  END
$$$$
