HIG.pdb
     RDKit          3D

 23 23  0  0  1  0  0  0  0  0999 V2000
   12.3846  -24.7390   -4.5349 N   0  0  0  0  0  0  0  0  0  0  0  0
   13.3283  -24.1847   -3.5829 C   0  0  1  0  0  0  0  0  0  0  0  0
   12.5670  -23.2264   -2.7022 C   0  0  0  0  0  0  0  0  0  0  0  0
   12.1437  -22.0859   -3.5464 C   0  0  0  0  0  0  0  0  0  0  0  0
   12.9719  -21.1169   -4.0665 C   0  0  0  0  0  0  0  0  0  0  0  0
   12.2216  -20.2334   -4.7904 N   0  0  0  0  0  0  0  0  0  0  0  0
   10.9527  -20.6470   -4.7203 C   0  0  0  0  0  0  0  0  0  0  0  0
   10.9094  -21.7702   -3.9653 N   0  0  0  0  0  0  0  0  0  0  0  0
   14.0595  -25.2161   -2.8452 C   0  0  0  0  0  0  0  0  0  0  0  0
   13.4316  -26.1744   -2.3235 O   0  0  0  0  0  0  0  0  0  0  0  0
   18.4389  -26.5292   -4.8821 C   0  0  0  0  0  0  0  0  0  0  0  0
   17.3231  -27.0887   -4.0453 C   0  0  0  0  0  0  0  0  0  0  0  0
   17.4900  -26.6182   -2.6358 C   0  0  2  0  0  0  0  0  0  0  0  0
   18.3028  -27.5576   -1.7804 C   0  0  0  0  0  0  0  0  0  0  0  0
   16.1806  -26.2585   -1.9661 C   0  0  2  0  0  0  0  0  0  0  0  0
   15.4685  -25.2214   -2.6654 N   0  0  0  0  0  0  0  0  0  0  0  0
   16.3976  -25.8368   -0.5602 C   0  0  0  0  0  0  0  0  0  0  0  0
   17.0811  -24.8085   -0.3323 O   0  0  0  0  0  0  0  0  0  0  0  0
   15.8507  -26.5683    0.5410 N   0  0  0  0  0  0  0  0  0  0  0  0
   16.3127  -26.2526    1.8552 C   0  0  0  0  0  0  0  0  0  0  0  0
   15.6588  -25.0485    2.4053 C   0  0  0  0  0  0  0  0  0  0  0  0
   15.8240  -24.6825    3.7302 O   0  0  0  0  0  0  0  0  0  0  0  0
   14.9388  -24.3393    1.6641 O   0  0  0  0  0  0  0  0  0  0  0  0
  2  1  1  6
  3  2  1  0
  4  8  1  0
  4  3  1  0
  5  4  2  0
  6  5  1  0
  6  7  1  0
  7  8  2  0
  9  2  1  0
 10  9  2  0
 11 12  1  0
 13 12  1  0
 13 14  1  1
 15 13  1  0
 15 16  1  6
 16  9  1  0
 17 18  2  0
 17 15  1  0
 19 17  1  0
 20 19  1  0
 21 20  1  0
 22 21  1  0
 23 21  2  0
M  END
$$$$
