HIG.pdb
     RDKit          3D

 23 23  0  0  1  0  0  0  0  0999 V2000
   21.2824  -34.4061   -6.0468 N   0  0  0  0  0  0  0  0  0  0  0  0
   22.1375  -34.0287   -4.9375 C   0  0  1  0  0  0  0  0  0  0  0  0
   21.4602  -34.4896   -3.6716 C   0  0  0  0  0  0  0  0  0  0  0  0
   20.2923  -33.6080   -3.4449 C   0  0  0  0  0  0  0  0  0  0  0  0
   20.3116  -32.2315   -3.4335 C   0  0  0  0  0  0  0  0  0  0  0  0
   19.0473  -31.7716   -3.1934 N   0  0  0  0  0  0  0  0  0  0  0  0
   18.2595  -32.8428   -3.0585 C   0  0  0  0  0  0  0  0  0  0  0  0
   19.0178  -33.9541   -3.2116 N   0  0  0  0  0  0  0  0  0  0  0  0
   23.5090  -34.5172   -5.0887 C   0  0  0  0  0  0  0  0  0  0  0  0
   23.7202  -35.7491   -5.2392 O   0  0  0  0  0  0  0  0  0  0  0  0
   26.7737  -32.3799   -8.5498 C   0  0  0  0  0  0  0  0  0  0  0  0
   26.0226  -33.3013   -7.6305 C   0  0  0  0  0  0  0  0  0  0  0  0
   26.7540  -33.3916   -6.3294 C   0  0  2  0  0  0  0  0  0  0  0  0
   28.1709  -33.8895   -6.4693 C   0  0  0  0  0  0  0  0  0  0  0  0
   25.9998  -34.1696   -5.2719 C   0  0  2  0  0  0  0  0  0  0  0  0
   24.6589  -33.6834   -5.0788 N   0  0  0  0  0  0  0  0  0  0  0  0
   26.7188  -34.1425   -3.9743 C   0  0  0  0  0  0  0  0  0  0  0  0
   26.8333  -33.0506   -3.3650 O   0  0  0  0  0  0  0  0  0  0  0  0
   27.2843  -35.3241   -3.3990 N   0  0  0  0  0  0  0  0  0  0  0  0
   27.9530  -35.2077   -2.1421 C   0  0  0  0  0  0  0  0  0  0  0  0
   29.4213  -35.2808   -2.2793 C   0  0  0  0  0  0  0  0  0  0  0  0
   30.2564  -35.0576   -1.1979 O   0  0  0  0  0  0  0  0  0  0  0  0
   29.9284  -35.5495   -3.3934 O   0  0  0  0  0  0  0  0  0  0  0  0
  2  1  1  6
  3  2  1  0
  4  8  1  0
  4  3  1  0
  5  4  2  0
  6  5  1  0
  6  7  1  0
  7  8  2  0
  9  2  1  0
 10  9  2  0
 11 12  1  0
 13 12  1  0
 13 14  1  6
 15 13  1  0
 15 16  1  1
 16  9  1  0
 17 18  2  0
 17 15  1  0
 19 17  1  0
 20 19  1  0
 21 20  1  0
 22 21  1  0
 23 21  2  0
M  END
$$$$
