HIG.pdb
     RDKit          3D

 23 23  0  0  1  0  0  0  0  0999 V2000
   28.2579  -22.0002  -16.4810 N   0  0  0  0  0  0  0  0  0  0  0  0
   27.2358  -21.0355  -16.1223 C   0  0  1  0  0  0  0  0  0  0  0  0
   26.5043  -20.6652  -17.3878 C   0  0  0  0  0  0  0  0  0  0  0  0
   27.3498  -19.6983  -18.1245 C   0  0  0  0  0  0  0  0  0  0  0  0
   28.1313  -18.7162  -17.5588 C   0  0  0  0  0  0  0  0  0  0  0  0
   28.7639  -18.0243  -18.5532 N   0  0  0  0  0  0  0  0  0  0  0  0
   28.3817  -18.5674  -19.7130 C   0  0  0  0  0  0  0  0  0  0  0  0
   27.5246  -19.5818  -19.4491 N   0  0  0  0  0  0  0  0  0  0  0  0
   26.3617  -21.5102  -15.0485 C   0  0  0  0  0  0  0  0  0  0  0  0
   25.8217  -22.6439  -15.1379 O   0  0  0  0  0  0  0  0  0  0  0  0
   25.4419  -20.9934   -9.0224 C   0  0  0  0  0  0  0  0  0  0  0  0
   24.8535  -21.4110  -10.3406 C   0  0  0  0  0  0  0  0  0  0  0  0
   25.7233  -20.9000  -11.4443 C   0  0  2  0  0  0  0  0  0  0  0  0
   26.0383  -19.4294  -11.3302 C   0  0  0  0  0  0  0  0  0  0  0  0
   25.2041  -21.2456  -12.8240 C   0  0  2  0  0  0  0  0  0  0  0  0
   26.0647  -20.7682  -13.8743 N   0  0  0  0  0  0  0  0  0  0  0  0
   23.8377  -20.7058  -13.0313 C   0  0  0  0  0  0  0  0  0  0  0  0
   23.7008  -19.4917  -13.3207 O   0  0  0  0  0  0  0  0  0  0  0  0
   22.6738  -21.5290  -12.9109 N   0  0  0  0  0  0  0  0  0  0  0  0
   21.4051  -20.9515  -13.2229 C   0  0  0  0  0  0  0  0  0  0  0  0
   20.5214  -20.8685  -12.0431 C   0  0  0  0  0  0  0  0  0  0  0  0
   19.2513  -20.3249  -12.1329 O   0  0  0  0  0  0  0  0  0  0  0  0
   20.9223  -21.2964  -10.9355 O   0  0  0  0  0  0  0  0  0  0  0  0
  2  1  1  6
  3  2  1  0
  4  8  1  0
  4  3  1  0
  5  4  2  0
  6  5  1  0
  6  7  1  0
  7  8  2  0
  9  2  1  0
 10  9  2  0
 11 12  1  0
 13 12  1  0
 13 14  1  6
 15 13  1  0
 15 16  1  6
 16  9  1  0
 17 18  2  0
 17 15  1  0
 19 17  1  0
 20 19  1  0
 21 20  1  0
 22 21  1  0
 23 21  2  0
M  END
$$$$
