HIG.pdb
     RDKit          3D

 23 23  0  0  1  0  0  0  0  0999 V2000
   18.4646  -25.4281  -12.4163 N   0  0  0  0  0  0  0  0  0  0  0  0
   18.7705  -24.5408  -13.5223 C   0  0  1  0  0  0  0  0  0  0  0  0
   17.8569  -24.9133  -14.6625 C   0  0  0  0  0  0  0  0  0  0  0  0
   18.3815  -26.1601  -15.2648 C   0  0  0  0  0  0  0  0  0  0  0  0
   17.8530  -27.4203  -15.0980 C   0  0  0  0  0  0  0  0  0  0  0  0
   18.6057  -28.3148  -15.8058 N   0  0  0  0  0  0  0  0  0  0  0  0
   19.5821  -27.6220  -16.3999 C   0  0  0  0  0  0  0  0  0  0  0  0
   19.4428  -26.3163  -16.0696 N   0  0  0  0  0  0  0  0  0  0  0  0
   18.7068  -23.1272  -13.1478 C   0  0  0  0  0  0  0  0  0  0  0  0
   17.8085  -22.7295  -12.3606 O   0  0  0  0  0  0  0  0  0  0  0  0
   22.7485  -20.4742  -11.2217 C   0  0  0  0  0  0  0  0  0  0  0  0
   21.4002  -21.0218  -11.5965 C   0  0  0  0  0  0  0  0  0  0  0  0
   20.8411  -20.2087  -12.7200 C   0  0  2  0  0  0  0  0  0  0  0  0
   20.7434  -18.7366  -12.4066 C   0  0  0  0  0  0  0  0  0  0  0  0
   19.5292  -20.7458  -13.2521 C   0  0  2  0  0  0  0  0  0  0  0  0
   19.6084  -22.1355  -13.6182 N   0  0  0  0  0  0  0  0  0  0  0  0
   19.0654  -19.9600  -14.4221 C   0  0  0  0  0  0  0  0  0  0  0  0
   19.8165  -19.8589  -15.4232 O   0  0  0  0  0  0  0  0  0  0  0  0
   17.7882  -19.3155  -14.4411 N   0  0  0  0  0  0  0  0  0  0  0  0
   17.4615  -18.5011  -15.5682 C   0  0  0  0  0  0  0  0  0  0  0  0
   17.4855  -17.0607  -15.2450 C   0  0  0  0  0  0  0  0  0  0  0  0
   17.4739  -16.0998  -16.2416 O   0  0  0  0  0  0  0  0  0  0  0  0
   17.5172  -16.6934  -14.0471 O   0  0  0  0  0  0  0  0  0  0  0  0
  2  1  1  1
  3  2  1  0
  4  8  1  0
  4  3  1  0
  5  4  2  0
  6  5  1  0
  6  7  1  0
  7  8  2  0
  9  2  1  0
 10  9  2  0
 11 12  1  0
 13 12  1  0
 13 14  1  1
 15 13  1  0
 15 16  1  6
 16  9  1  0
 17 18  2  0
 17 15  1  0
 19 17  1  0
 20 19  1  0
 21 20  1  0
 22 21  1  0
 23 21  2  0
M  END
$$$$
