HIG.pdb
     RDKit          3D

 23 23  0  0  1  0  0  0  0  0999 V2000
   27.2018  -17.2056  -16.9004 N   0  0  0  0  0  0  0  0  0  0  0  0
   26.2931  -17.0636  -15.7787 C   0  0  1  0  0  0  0  0  0  0  0  0
   25.2563  -16.0402  -16.1678 C   0  0  0  0  0  0  0  0  0  0  0  0
   25.8955  -14.7068  -16.0906 C   0  0  0  0  0  0  0  0  0  0  0  0
   27.0072  -14.3878  -15.3438 C   0  0  0  0  0  0  0  0  0  0  0  0
   27.3003  -13.0655  -15.5262 N   0  0  0  0  0  0  0  0  0  0  0  0
   26.3876  -12.5744  -16.3701 C   0  0  0  0  0  0  0  0  0  0  0  0
   25.5378  -13.5723  -16.7100 N   0  0  0  0  0  0  0  0  0  0  0  0
   25.7304  -18.3421  -15.3412 C   0  0  0  0  0  0  0  0  0  0  0  0
   25.4015  -19.2052  -16.1966 O   0  0  0  0  0  0  0  0  0  0  0  0
   27.5329  -21.7454  -13.8625 C   0  0  0  0  0  0  0  0  0  0  0  0
   27.3608  -20.6789  -12.8180 C   0  0  0  0  0  0  0  0  0  0  0  0
   25.9132  -20.5828  -12.4559 C   0  0  2  0  0  0  0  0  0  0  0  0
   25.3334  -21.8786  -11.9463 C   0  0  0  0  0  0  0  0  0  0  0  0
   25.0586  -19.9939  -13.5583 C   0  0  2  0  0  0  0  0  0  0  0  0
   25.5191  -18.6978  -13.9823 N   0  0  0  0  0  0  0  0  0  0  0  0
   23.6393  -19.8924  -13.1377 C   0  0  0  0  0  0  0  0  0  0  0  0
   23.3614  -19.2788  -12.0780 O   0  0  0  0  0  0  0  0  0  0  0  0
   22.5806  -20.4733  -13.9048 N   0  0  0  0  0  0  0  0  0  0  0  0
   21.2543  -20.4105  -13.3780 C   0  0  0  0  0  0  0  0  0  0  0  0
   20.8585  -21.6634  -12.7046 C   0  0  0  0  0  0  0  0  0  0  0  0
   19.6448  -21.7743  -12.0480 O   0  0  0  0  0  0  0  0  0  0  0  0
   21.6314  -22.6498  -12.7238 O   0  0  0  0  0  0  0  0  0  0  0  0
  2  1  1  6
  3  2  1  0
  4  8  1  0
  4  3  1  0
  5  4  2  0
  6  5  1  0
  6  7  1  0
  7  8  2  0
  9  2  1  0
 10  9  2  0
 11 12  1  0
 13 12  1  0
 13 14  1  6
 15 13  1  0
 15 16  1  1
 16  9  1  0
 17 18  2  0
 17 15  1  0
 19 17  1  0
 20 19  1  0
 21 20  1  0
 22 21  1  0
 23 21  2  0
M  END
$$$$
