HIG.pdb
     RDKit          3D

 23 23  0  0  1  0  0  0  0  0999 V2000
   23.2337  -20.3302  -14.4937 N   0  0  0  0  0  0  0  0  0  0  0  0
   22.2830  -19.9958  -13.4504 C   0  0  1  0  0  0  0  0  0  0  0  0
   20.9133  -19.9767  -14.0806 C   0  0  0  0  0  0  0  0  0  0  0  0
   20.8797  -18.8488  -15.0394 C   0  0  0  0  0  0  0  0  0  0  0  0
   20.8992  -18.9565  -16.4117 C   0  0  0  0  0  0  0  0  0  0  0  0
   20.8560  -17.7038  -16.9562 N   0  0  0  0  0  0  0  0  0  0  0  0
   20.8105  -16.8363  -15.9405 C   0  0  0  0  0  0  0  0  0  0  0  0
   20.8250  -17.5341  -14.7802 N   0  0  0  0  0  0  0  0  0  0  0  0
   22.3885  -20.8761  -12.2857 C   0  0  0  0  0  0  0  0  0  0  0  0
   22.4335  -22.1237  -12.4477 O   0  0  0  0  0  0  0  0  0  0  0  0
   25.8999  -19.9618   -8.4117 C   0  0  0  0  0  0  0  0  0  0  0  0
   24.9961  -20.6074   -9.4239 C   0  0  0  0  0  0  0  0  0  0  0  0
   23.6374  -20.7777   -8.8231 C   0  0  2  0  0  0  0  0  0  0  0  0
   23.6383  -21.5962   -7.5562 C   0  0  0  0  0  0  0  0  0  0  0  0
   22.6078  -21.2900   -9.8080 C   0  0  2  0  0  0  0  0  0  0  0  0
   22.4461  -20.4187  -10.9421 N   0  0  0  0  0  0  0  0  0  0  0  0
   21.2912  -21.4842   -9.1519 C   0  0  0  0  0  0  0  0  0  0  0  0
   20.5692  -20.4815   -8.9284 O   0  0  0  0  0  0  0  0  0  0  0  0
   20.8225  -22.7801   -8.7675 N   0  0  0  0  0  0  0  0  0  0  0  0
   19.5411  -22.8751   -8.1434 C   0  0  0  0  0  0  0  0  0  0  0  0
   19.6399  -22.9919   -6.6750 C   0  0  0  0  0  0  0  0  0  0  0  0
   18.5473  -23.3583   -5.9078 O   0  0  0  0  0  0  0  0  0  0  0  0
   20.7310  -22.7564   -6.1052 O   0  0  0  0  0  0  0  0  0  0  0  0
  2  1  1  6
  3  2  1  0
  4  8  1  0
  4  3  1  0
  5  4  2  0
  6  5  1  0
  6  7  1  0
  7  8  2  0
  9  2  1  0
 10  9  2  0
 11 12  1  0
 13 12  1  0
 13 14  1  1
 15 13  1  0
 15 16  1  6
 16  9  1  0
 17 18  2  0
 17 15  1  0
 19 17  1  0
 20 19  1  0
 21 20  1  0
 22 21  1  0
 23 21  2  0
M  END
$$$$
