HIG.pdb
     RDKit          3D

 23 23  0  0  1  0  0  0  0  0999 V2000
   28.1818  -20.8228  -14.9750 N   0  0  0  0  0  0  0  0  0  0  0  0
   27.3116  -20.0063  -14.1503 C   0  0  1  0  0  0  0  0  0  0  0  0
   26.4514  -19.1874  -15.0793 C   0  0  0  0  0  0  0  0  0  0  0  0
   27.3072  -18.1284  -15.6614 C   0  0  0  0  0  0  0  0  0  0  0  0
   28.2371  -18.3025  -16.6615 C   0  0  0  0  0  0  0  0  0  0  0  0
   28.8280  -17.1005  -16.9327 N   0  0  0  0  0  0  0  0  0  0  0  0
   28.2747  -16.1986  -16.1162 C   0  0  0  0  0  0  0  0  0  0  0  0
   27.3533  -16.8255  -15.3471 N   0  0  0  0  0  0  0  0  0  0  0  0
   26.5523  -20.7932  -13.1773 C   0  0  0  0  0  0  0  0  0  0  0  0
   26.3855  -22.0267  -13.3655 O   0  0  0  0  0  0  0  0  0  0  0  0
   26.9995  -19.8600   -7.9032 C   0  0  0  0  0  0  0  0  0  0  0  0
   26.8507  -20.6393   -9.1794 C   0  0  0  0  0  0  0  0  0  0  0  0
   25.4242  -20.5765   -9.6233 C   0  0  2  0  0  0  0  0  0  0  0  0
   24.4702  -21.2678   -8.6815 C   0  0  0  0  0  0  0  0  0  0  0  0
   25.2207  -21.0400  -11.0503 C   0  0  2  0  0  0  0  0  0  0  0  0
   25.9694  -20.2572  -11.9980 N   0  0  0  0  0  0  0  0  0  0  0  0
   23.7845  -21.0109  -11.4218 C   0  0  0  0  0  0  0  0  0  0  0  0
   22.9585  -21.6292  -10.7063 O   0  0  0  0  0  0  0  0  0  0  0  0
   23.3157  -20.2991  -12.5709 N   0  0  0  0  0  0  0  0  0  0  0  0
   21.9048  -20.1800  -12.7601 C   0  0  0  0  0  0  0  0  0  0  0  0
   21.3948  -21.1174  -13.7803 C   0  0  0  0  0  0  0  0  0  0  0  0
   20.0818  -21.0615  -14.2157 O   0  0  0  0  0  0  0  0  0  0  0  0
   22.1597  -21.9831  -14.2661 O   0  0  0  0  0  0  0  0  0  0  0  0
  2  1  1  6
  3  2  1  0
  4  8  1  0
  4  3  1  0
  5  4  2  0
  6  5  1  0
  6  7  1  0
  7  8  2  0
  9  2  1  0
 10  9  2  0
 11 12  1  0
 13 12  1  0
 13 14  1  1
 15 13  1  0
 15 16  1  6
 16  9  1  0
 17 18  2  0
 17 15  1  0
 19 17  1  0
 20 19  1  0
 21 20  1  0
 22 21  1  0
 23 21  2  0
M  END
$$$$
