HIG.pdb
     RDKit          3D

 23 23  0  0  1  0  0  0  0  0999 V2000
   25.8963  -21.1641  -13.8196 N   0  0  0  0  0  0  0  0  0  0  0  0
   24.8750  -20.7200  -12.8902 C   0  0  1  0  0  0  0  0  0  0  0  0
   23.5392  -21.1084  -13.4719 C   0  0  0  0  0  0  0  0  0  0  0  0
   23.2639  -20.1951  -14.6045 C   0  0  0  0  0  0  0  0  0  0  0  0
   22.4401  -19.0928  -14.5691 C   0  0  0  0  0  0  0  0  0  0  0  0
   22.4365  -18.5013  -15.8011 N   0  0  0  0  0  0  0  0  0  0  0  0
   23.2429  -19.2236  -16.5850 C   0  0  0  0  0  0  0  0  0  0  0  0
   23.7425  -20.2494  -15.8561 N   0  0  0  0  0  0  0  0  0  0  0  0
   25.0958  -21.2122  -11.5294 C   0  0  0  0  0  0  0  0  0  0  0  0
   25.4256  -22.4130  -11.3455 O   0  0  0  0  0  0  0  0  0  0  0  0
   27.2892  -19.6441   -6.1217 C   0  0  0  0  0  0  0  0  0  0  0  0
   26.3388  -20.5660   -6.8323 C   0  0  0  0  0  0  0  0  0  0  0  0
   26.1252  -20.0642   -8.2246 C   0  0  2  0  0  0  0  0  0  0  0  0
   25.7483  -18.6051   -8.2868 C   0  0  0  0  0  0  0  0  0  0  0  0
   25.1631  -20.9152   -9.0263 C   0  0  2  0  0  0  0  0  0  0  0  0
   24.9630  -20.4153  -10.3611 N   0  0  0  0  0  0  0  0  0  0  0  0
   23.8495  -21.0227   -8.3449 C   0  0  0  0  0  0  0  0  0  0  0  0
   22.9886  -20.1296   -8.5393 O   0  0  0  0  0  0  0  0  0  0  0  0
   23.5372  -22.1139   -7.4738 N   0  0  0  0  0  0  0  0  0  0  0  0
   22.2218  -22.1790   -6.9207 C   0  0  0  0  0  0  0  0  0  0  0  0
   22.1815  -21.7282   -5.5154 C   0  0  0  0  0  0  0  0  0  0  0  0
   21.0022  -21.7392   -4.7903 O   0  0  0  0  0  0  0  0  0  0  0  0
   23.2316  -21.3263   -4.9617 O   0  0  0  0  0  0  0  0  0  0  0  0
  2  1  1  6
  3  2  1  0
  4  8  1  0
  4  3  1  0
  5  4  2  0
  6  5  1  0
  6  7  1  0
  7  8  2  0
  9  2  1  0
 10  9  2  0
 11 12  1  0
 13 12  1  0
 13 14  1  1
 15 13  1  0
 15 16  1  6
 16  9  1  0
 17 18  2  0
 17 15  1  0
 19 17  1  0
 20 19  1  0
 21 20  1  0
 22 21  1  0
 23 21  2  0
M  END
$$$$
