HIG.pdb
     RDKit          3D

 23 23  0  0  1  0  0  0  0  0999 V2000
   20.6453  -14.6383  -18.0438 N   0  0  0  0  0  0  0  0  0  0  0  0
   20.7141  -13.2334  -18.3981 C   0  0  1  0  0  0  0  0  0  0  0  0
   19.3602  -12.8380  -18.9311 C   0  0  0  0  0  0  0  0  0  0  0  0
   19.1992  -13.4777  -20.2569 C   0  0  0  0  0  0  0  0  0  0  0  0
   18.6079  -14.6975  -20.4968 C   0  0  0  0  0  0  0  0  0  0  0  0
   18.6447  -14.9525  -21.8389 N   0  0  0  0  0  0  0  0  0  0  0  0
   19.2473  -13.9105  -22.4196 C   0  0  0  0  0  0  0  0  0  0  0  0
   19.5820  -13.0185  -21.4574 N   0  0  0  0  0  0  0  0  0  0  0  0
   21.1863  -12.3944  -17.2955 C   0  0  0  0  0  0  0  0  0  0  0  0
   20.7774  -12.6127  -16.1251 O   0  0  0  0  0  0  0  0  0  0  0  0
   26.0147  -10.2816  -14.6936 C   0  0  0  0  0  0  0  0  0  0  0  0
   24.5548   -9.9819  -14.8865 C   0  0  0  0  0  0  0  0  0  0  0  0
   24.0492  -10.7632  -16.0569 C   0  0  2  0  0  0  0  0  0  0  0  0
   24.8906  -10.5998  -17.2979 C   0  0  0  0  0  0  0  0  0  0  0  0
   22.5838  -10.5203  -16.3503 C   0  0  2  0  0  0  0  0  0  0  0  0
   22.0999  -11.3173  -17.4468 N   0  0  0  0  0  0  0  0  0  0  0  0
   22.3271   -9.0878  -16.6394 C   0  0  0  0  0  0  0  0  0  0  0  0
   22.9606   -8.5322  -17.5702 O   0  0  0  0  0  0  0  0  0  0  0  0
   21.3792   -8.3235  -15.8882 N   0  0  0  0  0  0  0  0  0  0  0  0
   21.2408   -6.9348  -16.1931 C   0  0  0  0  0  0  0  0  0  0  0  0
   21.7761   -6.0699  -15.1230 C   0  0  0  0  0  0  0  0  0  0  0  0
   21.7803   -4.6910  -15.2477 O   0  0  0  0  0  0  0  0  0  0  0  0
   22.2373   -6.5870  -14.0787 O   0  0  0  0  0  0  0  0  0  0  0  0
  2  1  1  1
  3  2  1  0
  4  8  1  0
  4  3  1  0
  5  4  2  0
  6  5  1  0
  6  7  1  0
  7  8  2  0
  9  2  1  0
 10  9  2  0
 11 12  1  0
 13 12  1  0
 13 14  1  6
 15 13  1  0
 15 16  1  6
 16  9  1  0
 17 18  2  0
 17 15  1  0
 19 17  1  0
 20 19  1  0
 21 20  1  0
 22 21  1  0
 23 21  2  0
M  END
$$$$
