HIG.pdb
     RDKit          3D

 23 23  0  0  1  0  0  0  0  0999 V2000
   27.6090  -34.9091   -1.1134 N   0  0  0  0  0  0  0  0  0  0  0  0
   28.2866  -33.6266   -1.0985 C   0  0  1  0  0  0  0  0  0  0  0  0
   27.8136  -32.8550   -2.3045 C   0  0  0  0  0  0  0  0  0  0  0  0
   28.2013  -33.6268   -3.5073 C   0  0  0  0  0  0  0  0  0  0  0  0
   29.4872  -33.9487   -3.8786 C   0  0  0  0  0  0  0  0  0  0  0  0
   29.4475  -34.6652   -5.0416 N   0  0  0  0  0  0  0  0  0  0  0  0
   28.1613  -34.7851   -5.3845 C   0  0  0  0  0  0  0  0  0  0  0  0
   27.4089  -34.1543   -4.4520 N   0  0  0  0  0  0  0  0  0  0  0  0
   28.1169  -32.9119    0.1677 C   0  0  0  0  0  0  0  0  0  0  0  0
   28.5360  -31.7301    0.2788 O   0  0  0  0  0  0  0  0  0  0  0  0
   23.8899  -31.2836    2.6525 C   0  0  0  0  0  0  0  0  0  0  0  0
   25.2999  -31.4655    2.1654 C   0  0  0  0  0  0  0  0  0  0  0  0
   25.9683  -32.5157    2.9938 C   0  0  2  0  0  0  0  0  0  0  0  0
   25.8616  -32.2691    4.4780 C   0  0  0  0  0  0  0  0  0  0  0  0
   27.4010  -32.7805    2.5819 C   0  0  2  0  0  0  0  0  0  0  0  0
   27.4959  -33.4649    1.3193 N   0  0  0  0  0  0  0  0  0  0  0  0
   28.1177  -33.5664    3.6165 C   0  0  0  0  0  0  0  0  0  0  0  0
   28.3841  -33.0234    4.7168 O   0  0  0  0  0  0  0  0  0  0  0  0
   28.5130  -34.9235    3.3952 N   0  0  0  0  0  0  0  0  0  0  0  0
   29.1482  -35.6231    4.4665 C   0  0  0  0  0  0  0  0  0  0  0  0
   28.1785  -36.3262    5.3298 C   0  0  0  0  0  0  0  0  0  0  0  0
   28.5976  -37.2024    6.3164 O   0  0  0  0  0  0  0  0  0  0  0  0
   26.9507  -36.1307    5.1722 O   0  0  0  0  0  0  0  0  0  0  0  0
  2  1  1  1
  3  2  1  0
  4  8  1  0
  4  3  1  0
  5  4  2  0
  6  5  1  0
  6  7  1  0
  7  8  2  0
  9  2  1  0
 10  9  2  0
 11 12  1  0
 13 12  1  0
 13 14  1  1
 15 13  1  0
 15 16  1  6
 16  9  1  0
 17 18  2  0
 17 15  1  0
 19 17  1  0
 20 19  1  0
 21 20  1  0
 22 21  1  0
 23 21  2  0
M  END
$$$$
