HIG.pdb
     RDKit          3D

 23 23  0  0  1  0  0  0  0  0999 V2000
   22.5957  -11.5925  -20.4894 N   0  0  0  0  0  0  0  0  0  0  0  0
   22.6972  -10.2363  -19.9849 C   0  0  1  0  0  0  0  0  0  0  0  0
   21.4796   -9.4869  -20.4639 C   0  0  0  0  0  0  0  0  0  0  0  0
   21.5744   -9.3786  -21.9376 C   0  0  0  0  0  0  0  0  0  0  0  0
   20.6387   -9.8301  -22.8409 C   0  0  0  0  0  0  0  0  0  0  0  0
   21.0733   -9.5530  -24.1065 N   0  0  0  0  0  0  0  0  0  0  0  0
   22.2559   -8.9413  -23.9898 C   0  0  0  0  0  0  0  0  0  0  0  0
   22.5562   -8.8374  -22.6736 N   0  0  0  0  0  0  0  0  0  0  0  0
   22.8936  -10.1852  -18.5352 C   0  0  0  0  0  0  0  0  0  0  0  0
   22.1365  -10.8478  -17.7787 O   0  0  0  0  0  0  0  0  0  0  0  0
   27.1759  -11.5578  -16.1339 C   0  0  0  0  0  0  0  0  0  0  0  0
   25.7496  -11.2364  -16.4815 C   0  0  0  0  0  0  0  0  0  0  0  0
   25.4387   -9.8480  -16.0214 C   0  0  2  0  0  0  0  0  0  0  0  0
   25.6362   -9.6470  -14.5396 C   0  0  0  0  0  0  0  0  0  0  0  0
   24.0751   -9.3620  -16.4652 C   0  0  2  0  0  0  0  0  0  0  0  0
   23.9047   -9.4216  -17.8932 N   0  0  0  0  0  0  0  0  0  0  0  0
   23.8260   -7.9743  -16.0029 C   0  0  0  0  0  0  0  0  0  0  0  0
   24.4661   -7.0327  -16.5322 O   0  0  0  0  0  0  0  0  0  0  0  0
   22.8781   -7.6799  -14.9725 N   0  0  0  0  0  0  0  0  0  0  0  0
   22.6979   -6.3147  -14.5931 C   0  0  0  0  0  0  0  0  0  0  0  0
   21.5891   -5.6709  -15.3252 C   0  0  0  0  0  0  0  0  0  0  0  0
   21.1864   -4.3797  -15.0297 O   0  0  0  0  0  0  0  0  0  0  0  0
   20.9964   -6.2996  -16.2329 O   0  0  0  0  0  0  0  0  0  0  0  0
  2  1  1  1
  3  2  1  0
  4  8  1  0
  4  3  1  0
  5  4  2  0
  6  5  1  0
  6  7  1  0
  7  8  2  0
  9  2  1  0
 10  9  2  0
 11 12  1  0
 13 12  1  0
 13 14  1  1
 15 13  1  0
 15 16  1  6
 16  9  1  0
 17 18  2  0
 17 15  1  0
 19 17  1  0
 20 19  1  0
 21 20  1  0
 22 21  1  0
 23 21  2  0
M  END
$$$$
