CRM.pdb
     RDKit          3D

 26 25  0  0  1  0  0  0  0  0999 V2000
   24.9587  -31.6781   -8.5477 N   0  0  0  0  0  0  0  0  0  0  0  0
   26.0999  -32.4052   -9.1411 C   0  0  1  0  0  0  0  0  0  0  0  0
   26.5998  -33.4425   -8.1638 C   0  0  0  0  0  0  0  0  0  0  0  0
   25.7870  -33.1784   -6.5755 S   0  0  0  0  0  0  0  0  0  0  0  0
   25.5729  -33.1071  -10.3410 C   0  0  0  0  0  0  0  0  0  0  0  0
   24.3644  -33.4297  -10.3361 O   0  0  0  0  0  0  0  0  0  0  0  0
   28.8666  -31.8418  -17.9577 N   0  0  0  0  0  0  0  0  0  0  0  0
   29.5914  -32.0099  -16.7405 C   0  0  0  0  0  0  0  0  0  0  0  0
   30.8897  -31.9415  -16.7244 N   0  0  0  0  0  0  0  0  0  0  0  0
   28.9341  -32.2604  -15.5067 N   0  0  0  0  0  0  0  0  0  0  0  0
   27.4937  -32.1835  -15.4583 C   0  0  0  0  0  0  0  0  0  0  0  0
   26.9723  -32.4599  -14.0506 C   0  0  0  0  0  0  0  0  0  0  0  0
   26.4100  -33.8297  -13.9271 C   0  0  0  0  0  0  0  0  0  0  0  0
   25.8199  -34.1084  -12.6012 C   0  0  2  0  0  0  0  0  0  0  0  0
   26.3184  -33.4316  -11.4690 N   0  0  0  0  0  0  0  0  0  0  0  0
   25.6851  -35.5602  -12.3538 C   0  0  0  0  0  0  0  0  0  0  0  0
   26.2927  -36.0456  -11.3599 O   0  0  0  0  0  0  0  0  0  0  0  0
   31.4391  -32.0783  -15.8554 C   0  0  0  0  0  0  0  0  0  0  0  0
   20.8945  -39.3468  -10.0362 S   0  0  0  0  0  0  0  0  0  0  0  0
   22.6838  -39.5079   -9.6726 C   0  0  0  0  0  0  0  0  0  0  0  0
   23.5991  -39.4375  -11.2407 C   0  0  0  0  0  0  0  0  0  0  0  0
   24.0567  -38.0002  -11.4448 C   0  0  1  0  0  0  0  0  0  0  0  0
   24.7839  -37.8652  -12.7657 N   0  0  0  0  0  0  0  0  0  0  0  0
   24.9292  -36.4616  -13.1354 C   0  0  0  0  0  0  0  0  0  0  0  0
   23.9653  -38.5341  -13.7911 O   0  0  0  0  0  0  0  0  0  0  0  0
   23.3886  -37.8782  -14.6728 O   0  0  0  0  0  0  0  0  0  0  0  0
  2  5  1  0
  2  1  1  1
  3  2  1  0
  4  3  1  0
  5  6  2  0
  7  8  1  0
  8 10  1  0
  9  8  2  0
 10 11  1  0
 12 11  1  0
 13 12  1  0
 14 13  1  6
 15 14  1  0
 15  5  1  0
 16 14  1  0
 17 16  2  0
 19 18  1  0
 20 19  1  0
 21 20  1  0
 22 21  1  1
 22 23  1  0
 23 16  1  0
 24 22  1  0
 24 26  1  0
 25 24  2  0
M  END
$$$$
