CRM.pdb
     RDKit          3D

 26 25  0  0  1  0  0  0  0  0999 V2000
   20.2169  -10.5175  -15.2257 N   0  0  0  0  0  0  0  0  0  0  0  0
   20.7526   -9.7558  -14.0786 C   0  0  1  0  0  0  0  0  0  0  0  0
   22.0503   -9.0928  -14.4755 C   0  0  0  0  0  0  0  0  0  0  0  0
   23.3641  -10.3280  -14.4400 S   0  0  0  0  0  0  0  0  0  0  0  0
   19.7567   -8.6939  -13.7773 C   0  0  0  0  0  0  0  0  0  0  0  0
   19.2977   -8.0433  -14.7419 O   0  0  0  0  0  0  0  0  0  0  0  0
   12.9345   -7.8610  -10.2392 N   0  0  0  0  0  0  0  0  0  0  0  0
   13.8987   -8.3499   -9.3083 C   0  0  0  0  0  0  0  0  0  0  0  0
   13.5394   -9.1069   -8.3140 N   0  0  0  0  0  0  0  0  0  0  0  0
   15.2781   -8.0318   -9.4232 N   0  0  0  0  0  0  0  0  0  0  0  0
   15.6635   -6.6473   -9.5555 C   0  0  0  0  0  0  0  0  0  0  0  0
   16.5316   -6.4309  -10.7922 C   0  0  0  0  0  0  0  0  0  0  0  0
   17.4559   -7.5704  -11.0264 C   0  0  0  0  0  0  0  0  0  0  0  0
   18.2997   -7.4087  -12.2289 C   0  0  2  0  0  0  0  0  0  0  0  0
   19.2945   -8.3688  -12.5068 N   0  0  0  0  0  0  0  0  0  0  0  0
   18.8215   -6.0305  -12.3530 C   0  0  0  0  0  0  0  0  0  0  0  0
   19.7306   -5.6723  -11.5542 O   0  0  0  0  0  0  0  0  0  0  0  0
   14.2237   -9.4855   -7.6329 C   0  0  0  0  0  0  0  0  0  0  0  0
   21.7932   -2.9982  -17.0133 S   0  0  0  0  0  0  0  0  0  0  0  0
   20.5610   -1.7247  -16.5447 C   0  0  0  0  0  0  0  0  0  0  0  0
   20.0425   -2.0280  -14.8298 C   0  0  0  0  0  0  0  0  0  0  0  0
   19.4902   -3.4445  -14.7574 C   0  0  1  0  0  0  0  0  0  0  0  0
   18.9855   -3.7387  -13.3608 N   0  0  0  0  0  0  0  0  0  0  0  0
   18.3919   -5.0695  -13.2946 C   0  0  0  0  0  0  0  0  0  0  0  0
   17.9414   -2.7475  -13.0504 O   0  0  0  0  0  0  0  0  0  0  0  0
   16.7390   -3.0321  -13.1662 O   0  0  0  0  0  0  0  0  0  0  0  0
  2  5  1  0
  2  1  1  6
  3  2  1  0
  4  3  1  0
  5  6  2  0
  7  8  1  0
  8 10  1  0
  9  8  2  0
 10 11  1  0
 12 11  1  0
 13 12  1  0
 14 13  1  1
 15 14  1  0
 15  5  1  0
 16 14  1  0
 17 16  2  0
 19 18  1  0
 20 19  1  0
 21 20  1  0
 22 21  1  1
 22 23  1  0
 23 16  1  0
 24 22  1  0
 24 26  1  0
 25 24  2  0
M  END
$$$$
