CRM.pdb
     RDKit          3D

 26 25  0  0  1  0  0  0  0  0999 V2000
   15.3449  -10.2987  -10.2601 N   0  0  0  0  0  0  0  0  0  0  0  0
   14.6284   -9.9182  -11.4950 C   0  0  1  0  0  0  0  0  0  0  0  0
   13.5791   -8.8817  -11.1700 C   0  0  0  0  0  0  0  0  0  0  0  0
   12.3232   -9.6408  -10.1214 S   0  0  0  0  0  0  0  0  0  0  0  0
   15.6381   -9.2976  -12.3925 C   0  0  0  0  0  0  0  0  0  0  0  0
   16.3744   -8.4109  -11.9063 O   0  0  0  0  0  0  0  0  0  0  0  0
   20.3462  -12.7373  -15.5761 N   0  0  0  0  0  0  0  0  0  0  0  0
   19.3580  -13.6604  -16.0301 C   0  0  0  0  0  0  0  0  0  0  0  0
   19.4843  -14.9348  -15.8045 N   0  0  0  0  0  0  0  0  0  0  0  0
   18.2069  -13.2335  -16.7441 N   0  0  0  0  0  0  0  0  0  0  0  0
   17.9907  -11.8190  -16.9321 C   0  0  0  0  0  0  0  0  0  0  0  0
   17.6242  -11.1361  -15.6171 C   0  0  0  0  0  0  0  0  0  0  0  0
   17.1702   -9.7370  -15.8271 C   0  0  0  0  0  0  0  0  0  0  0  0
   16.7940   -9.0444  -14.5770 C   0  0  2  0  0  0  0  0  0  0  0  0
   15.8291   -9.6273  -13.7298 N   0  0  0  0  0  0  0  0  0  0  0  0
   16.5246   -7.6081  -14.8041 C   0  0  0  0  0  0  0  0  0  0  0  0
   15.3341   -7.2644  -15.0438 O   0  0  0  0  0  0  0  0  0  0  0  0
   18.7705  -15.6228  -16.1088 C   0  0  0  0  0  0  0  0  0  0  0  0
   14.2053   -0.8486  -13.6972 S   0  0  0  0  0  0  0  0  0  0  0  0
   14.6657   -2.5608  -13.2323 C   0  0  0  0  0  0  0  0  0  0  0  0
   15.9457   -3.1457  -14.3818 C   0  0  0  0  0  0  0  0  0  0  0  0
   16.1358   -4.6368  -14.1422 C   0  0  1  0  0  0  0  0  0  0  0  0
   17.1491   -5.1984  -15.1168 N   0  0  0  0  0  0  0  0  0  0  0  0
   17.4876   -6.5754  -14.7752 C   0  0  0  0  0  0  0  0  0  0  0  0
   18.3679   -4.3788  -15.0081 O   0  0  0  0  0  0  0  0  0  0  0  0
   18.3544   -3.1749  -15.3091 O   0  0  0  0  0  0  0  0  0  0  0  0
  2  5  1  0
  2  1  1  1
  3  2  1  0
  4  3  1  0
  5  6  2  0
  7  8  1  0
  8 10  1  0
  9  8  2  0
 10 11  1  0
 12 11  1  0
 13 12  1  0
 14 13  1  6
 15 14  1  0
 15  5  1  0
 16 14  1  0
 17 16  2  0
 19 18  1  0
 20 19  1  0
 21 20  1  0
 22 21  1  6
 22 23  1  0
 23 16  1  0
 24 22  1  0
 24 26  1  0
 25 24  2  0
M  END
$$$$
