CRM.pdb
     RDKit          3D

 26 25  0  0  1  0  0  0  0  0999 V2000
   16.6700  -12.2191  -16.7108 N   0  0  0  0  0  0  0  0  0  0  0  0
   16.9871  -11.9366  -15.2956 C   0  0  1  0  0  0  0  0  0  0  0  0
   18.2451  -12.6748  -14.9038 C   0  0  0  0  0  0  0  0  0  0  0  0
   17.8048  -14.3624  -14.4442 S   0  0  0  0  0  0  0  0  0  0  0  0
   17.2536  -10.4767  -15.2078 C   0  0  0  0  0  0  0  0  0  0  0  0
   17.9123   -9.9541  -16.1339 O   0  0  0  0  0  0  0  0  0  0  0  0
   11.5007   -5.5540  -11.6657 N   0  0  0  0  0  0  0  0  0  0  0  0
   11.2684   -6.3984  -12.7918 C   0  0  0  0  0  0  0  0  0  0  0  0
   10.0592   -6.6387  -13.2050 N   0  0  0  0  0  0  0  0  0  0  0  0
   12.3358   -7.0101  -13.5014 N   0  0  0  0  0  0  0  0  0  0  0  0
   13.6846   -6.8262  -13.0221 C   0  0  0  0  0  0  0  0  0  0  0  0
   14.6787   -7.6462  -13.8402 C   0  0  0  0  0  0  0  0  0  0  0  0
   16.0821   -7.3908  -13.4245 C   0  0  0  0  0  0  0  0  0  0  0  0
   17.0664   -8.2590  -14.1038 C   0  0  2  0  0  0  0  0  0  0  0  0
   16.8263   -9.6466  -14.1774 N   0  0  0  0  0  0  0  0  0  0  0  0
   18.4495   -7.9667  -13.6691 C   0  0  0  0  0  0  0  0  0  0  0  0
   18.8864   -8.5737  -12.6526 O   0  0  0  0  0  0  0  0  0  0  0  0
    9.8653   -7.2511  -14.0193 C   0  0  0  0  0  0  0  0  0  0  0  0
   25.4775   -9.6724  -13.7844 S   0  0  0  0  0  0  0  0  0  0  0  0
   23.7266   -9.7434  -14.3221 C   0  0  0  0  0  0  0  0  0  0  0  0
   22.9475   -8.1420  -13.9615 C   0  0  0  0  0  0  0  0  0  0  0  0
   21.4600   -8.2748  -14.2558 C   0  0  1  0  0  0  0  0  0  0  0  0
   20.7435   -6.9832  -13.9236 N   0  0  0  0  0  0  0  0  0  0  0  0
   19.3352   -7.0623  -14.2953 C   0  0  0  0  0  0  0  0  0  0  0  0
   21.3739   -5.9123  -14.7139 O   0  0  0  0  0  0  0  0  0  0  0  0
   20.8475   -5.4981  -15.7586 O   0  0  0  0  0  0  0  0  0  0  0  0
  2  5  1  0
  2  1  1  6
  3  2  1  0
  4  3  1  0
  5  6  2  0
  7  8  1  0
  8 10  1  0
  9  8  2  0
 10 11  1  0
 12 11  1  0
 13 12  1  0
 14 13  1  1
 15 14  1  0
 15  5  1  0
 16 14  1  0
 17 16  2  0
 19 18  1  0
 20 19  1  0
 21 20  1  0
 22 21  1  1
 22 23  1  0
 23 16  1  0
 24 22  1  0
 24 26  1  0
 25 24  2  0
M  END
$$$$
