CRM.pdb
     RDKit          3D

 26 25  0  0  1  0  0  0  0  0999 V2000
   26.3454  -19.1138  -18.6260 N   0  0  0  0  0  0  0  0  0  0  0  0
   26.1835  -17.9200  -19.4814 C   0  0  1  0  0  0  0  0  0  0  0  0
   24.7260  -17.5268  -19.5275 C   0  0  0  0  0  0  0  0  0  0  0  0
   23.8203  -18.7759  -20.4615 S   0  0  0  0  0  0  0  0  0  0  0  0
   26.9438  -16.8250  -18.8233 C   0  0  0  0  0  0  0  0  0  0  0  0
   27.0546  -16.8674  -17.5781 O   0  0  0  0  0  0  0  0  0  0  0  0
   34.7358  -14.5089  -20.2827 N   0  0  0  0  0  0  0  0  0  0  0  0
   33.9487  -13.5714  -19.5502 C   0  0  0  0  0  0  0  0  0  0  0  0
   34.3848  -12.3668  -19.3278 N   0  0  0  0  0  0  0  0  0  0  0  0
   32.6696  -13.9098  -19.0341 N   0  0  0  0  0  0  0  0  0  0  0  0
   32.1662  -15.2458  -19.2451 C   0  0  0  0  0  0  0  0  0  0  0  0
   30.7708  -15.4113  -18.6490 C   0  0  0  0  0  0  0  0  0  0  0  0
   29.7554  -14.6163  -19.3868 C   0  0  0  0  0  0  0  0  0  0  0  0
   28.3797  -14.7983  -18.8787 C   0  0  2  0  0  0  0  0  0  0  0  0
   27.5428  -15.7583  -19.4842 N   0  0  0  0  0  0  0  0  0  0  0  0
   27.6850  -13.5054  -18.6975 C   0  0  0  0  0  0  0  0  0  0  0  0
   27.0086  -13.0611  -19.6659 O   0  0  0  0  0  0  0  0  0  0  0  0
   33.7944  -11.6391  -18.8833 C   0  0  0  0  0  0  0  0  0  0  0  0
   23.7218   -8.7498  -13.9799 S   0  0  0  0  0  0  0  0  0  0  0  0
   25.1893   -9.8433  -14.0814 C   0  0  0  0  0  0  0  0  0  0  0  0
   25.6491  -10.0300  -15.8294 C   0  0  0  0  0  0  0  0  0  0  0  0
   26.4560  -11.3140  -15.9606 C   0  0  1  0  0  0  0  0  0  0  0  0
   26.8964  -11.5110  -17.3956 N   0  0  0  0  0  0  0  0  0  0  0  0
   27.7086  -12.7154  -17.5270 C   0  0  0  0  0  0  0  0  0  0  0  0
   27.7224  -10.3498  -17.7676 O   0  0  0  0  0  0  0  0  0  0  0  0
   28.9606  -10.4304  -17.7895 O   0  0  0  0  0  0  0  0  0  0  0  0
  2  5  1  0
  2  1  1  1
  3  2  1  0
  4  3  1  0
  5  6  2  0
  7  8  1  0
  8 10  1  0
  9  8  2  0
 10 11  1  0
 12 11  1  0
 13 12  1  0
 14 13  1  6
 15 14  1  0
 15  5  1  0
 16 14  1  0
 17 16  2  0
 19 18  1  0
 20 19  1  0
 21 20  1  0
 22 21  1  6
 22 23  1  0
 23 16  1  0
 24 22  1  0
 24 26  1  0
 25 24  2  0
M  END
$$$$
