CRM.pdb
     RDKit          3D

 26 25  0  0  1  0  0  0  0  0999 V2000
   23.3289  -21.9283  -15.2106 N   0  0  0  0  0  0  0  0  0  0  0  0
   22.3810  -21.0396  -14.5071 C   0  0  1  0  0  0  0  0  0  0  0  0
   22.0333  -19.8689  -15.3956 C   0  0  0  0  0  0  0  0  0  0  0  0
   23.2328  -18.5523  -15.1115 S   0  0  0  0  0  0  0  0  0  0  0  0
   21.1475  -21.8374  -14.2787 C   0  0  0  0  0  0  0  0  0  0  0  0
   20.7059  -22.5046  -15.2401 O   0  0  0  0  0  0  0  0  0  0  0  0
   17.3543  -25.0108   -7.1943 N   0  0  0  0  0  0  0  0  0  0  0  0
   18.3736  -25.5385   -8.0415 C   0  0  0  0  0  0  0  0  0  0  0  0
   19.2255  -26.4122   -7.5926 N   0  0  0  0  0  0  0  0  0  0  0  0
   18.5036  -25.1344   -9.3969 N   0  0  0  0  0  0  0  0  0  0  0  0
   17.4186  -24.4091  -10.0130 C   0  0  0  0  0  0  0  0  0  0  0  0
   17.7630  -24.0114  -11.4459 C   0  0  0  0  0  0  0  0  0  0  0  0
   18.9577  -23.1300  -11.5043 C   0  0  0  0  0  0  0  0  0  0  0  0
   19.2725  -22.6514  -12.8666 C   0  0  2  0  0  0  0  0  0  0  0  0
   20.4473  -21.9009  -13.0790 N   0  0  0  0  0  0  0  0  0  0  0  0
   18.0998  -22.0243  -13.5135 C   0  0  0  0  0  0  0  0  0  0  0  0
   17.8367  -20.8259  -13.2179 O   0  0  0  0  0  0  0  0  0  0  0  0
   19.8971  -26.8989   -8.2153 C   0  0  0  0  0  0  0  0  0  0  0  0
   14.1893  -24.7417  -17.8692 S   0  0  0  0  0  0  0  0  0  0  0  0
   13.8524  -22.9919  -18.2987 C   0  0  0  0  0  0  0  0  0  0  0  0
   14.5279  -21.9354  -16.9836 C   0  0  0  0  0  0  0  0  0  0  0  0
   15.5609  -22.7517  -16.2196 C   0  0  2  0  0  0  0  0  0  0  0  0
   16.1634  -21.9224  -15.1056 N   0  0  0  0  0  0  0  0  0  0  0  0
   17.2398  -22.6501  -14.4427 C   0  0  0  0  0  0  0  0  0  0  0  0
   15.0991  -21.6664  -14.1203 O   0  0  0  0  0  0  0  0  0  0  0  0
   14.5208  -20.5691  -14.0786 O   0  0  0  0  0  0  0  0  0  0  0  0
  2  5  1  0
  2  1  1  6
  3  2  1  0
  4  3  1  0
  5  6  2  0
  7  8  1  0
  8 10  1  0
  9  8  2  0
 10 11  1  0
 12 11  1  0
 13 12  1  0
 14 13  1  1
 15 14  1  0
 15  5  1  0
 16 14  1  0
 17 16  2  0
 19 18  1  0
 20 19  1  0
 21 20  1  0
 22 21  1  6
 22 23  1  0
 23 16  1  0
 24 22  1  0
 24 26  1  0
 25 24  2  0
M  END
$$$$
