CRM.pdb
     RDKit          3D

 26 25  0  0  1  0  0  0  0  0999 V2000
   11.6884  -20.0859    1.9252 N   0  0  0  0  0  0  0  0  0  0  0  0
   12.5888  -20.0208    3.0949 C   0  0  1  0  0  0  0  0  0  0  0  0
   13.2040  -21.3793    3.3337 C   0  0  0  0  0  0  0  0  0  0  0  0
   12.0050  -22.4120    4.1991 S   0  0  0  0  0  0  0  0  0  0  0  0
   13.6748  -19.0708    2.7369 C   0  0  0  0  0  0  0  0  0  0  0  0
   14.0690  -19.0662    1.5498 O   0  0  0  0  0  0  0  0  0  0  0  0
   16.4233  -11.5401    6.1098 N   0  0  0  0  0  0  0  0  0  0  0  0
   15.2623  -12.0762    5.4776 C   0  0  0  0  0  0  0  0  0  0  0  0
   14.0919  -11.5453    5.6754 N   0  0  0  0  0  0  0  0  0  0  0  0
   15.3322  -13.2035    4.6166 N   0  0  0  0  0  0  0  0  0  0  0  0
   16.6085  -13.8465    4.4155 C   0  0  0  0  0  0  0  0  0  0  0  0
   16.4688  -15.0924    3.5448 C   0  0  0  0  0  0  0  0  0  0  0  0
   15.3930  -15.9927    4.0346 C   0  0  0  0  0  0  0  0  0  0  0  0
   15.2802  -17.2502    3.2665 C   0  0  2  0  0  0  0  0  0  0  0  0
   14.2855  -18.1857    3.6185 N   0  0  0  0  0  0  0  0  0  0  0  0
   16.5959  -17.8981    3.0763 C   0  0  0  0  0  0  0  0  0  0  0  0
   16.9620  -18.7477    3.9346 O   0  0  0  0  0  0  0  0  0  0  0  0
   13.2262  -11.9524    5.2751 C   0  0  0  0  0  0  0  0  0  0  0  0
   23.5232  -18.4375   -0.7667 S   0  0  0  0  0  0  0  0  0  0  0  0
   21.9217  -17.5624   -0.5969 C   0  0  0  0  0  0  0  0  0  0  0  0
   21.0360  -18.2533    0.8314 C   0  0  0  0  0  0  0  0  0  0  0  0
   19.6508  -17.6232    0.8654 C   0  0  2  0  0  0  0  0  0  0  0  0
   18.8209  -18.2432    1.9694 N   0  0  0  0  0  0  0  0  0  0  0  0
   17.4884  -17.6512    2.0098 C   0  0  0  0  0  0  0  0  0  0  0  0
   19.4971  -17.9549    3.2455 O   0  0  0  0  0  0  0  0  0  0  0  0
   19.5199  -16.8034    3.7079 O   0  0  0  0  0  0  0  0  0  0  0  0
  2  5  1  0
  2  1  1  6
  3  2  1  0
  4  3  1  0
  5  6  2  0
  7  8  1  0
  8 10  1  0
  9  8  2  0
 10 11  1  0
 12 11  1  0
 13 12  1  0
 14 13  1  1
 15 14  1  0
 15  5  1  0
 16 14  1  0
 17 16  2  0
 19 18  1  0
 20 19  1  0
 21 20  1  0
 22 21  1  6
 22 23  1  0
 23 16  1  0
 24 22  1  0
 24 26  1  0
 25 24  2  0
M  END
$$$$
