CRM.pdb
     RDKit          3D

 26 25  0  0  1  0  0  0  0  0999 V2000
   14.6685   -2.1194   -8.5206 N   0  0  0  0  0  0  0  0  0  0  0  0
   15.2176   -3.3546   -7.9239 C   0  0  1  0  0  0  0  0  0  0  0  0
   14.1625   -4.0126   -7.0668 C   0  0  0  0  0  0  0  0  0  0  0  0
   14.8040   -5.5892   -6.4703 S   0  0  0  0  0  0  0  0  0  0  0  0
   15.5352   -4.2634   -9.0567 C   0  0  0  0  0  0  0  0  0  0  0  0
   14.6389   -4.4608   -9.9066 O   0  0  0  0  0  0  0  0  0  0  0  0
   22.3972   -6.6477  -13.9332 N   0  0  0  0  0  0  0  0  0  0  0  0
   21.5291   -7.7795  -13.9108 C   0  0  0  0  0  0  0  0  0  0  0  0
   21.8540   -8.8794  -14.5234 N   0  0  0  0  0  0  0  0  0  0  0  0
   20.2835   -7.7539  -13.2289 N   0  0  0  0  0  0  0  0  0  0  0  0
   19.6512   -6.4798  -12.9841 C   0  0  0  0  0  0  0  0  0  0  0  0
   18.3517   -6.6490  -12.2014 C   0  0  0  0  0  0  0  0  0  0  0  0
   18.2676   -5.7054  -11.0567 C   0  0  0  0  0  0  0  0  0  0  0  0
   17.0230   -5.8394  -10.2712 C   0  0  2  0  0  0  0  0  0  0  0  0
   16.7518   -4.9098   -9.2462 N   0  0  0  0  0  0  0  0  0  0  0  0
   16.8060   -7.2303   -9.8181 C   0  0  0  0  0  0  0  0  0  0  0  0
   17.5125   -7.6536   -8.8618 O   0  0  0  0  0  0  0  0  0  0  0  0
   21.2298   -9.7076  -14.5395 C   0  0  0  0  0  0  0  0  0  0  0  0
   11.5601   -8.7046   -8.1551 S   0  0  0  0  0  0  0  0  0  0  0  0
   11.7460  -10.2098   -9.1844 C   0  0  0  0  0  0  0  0  0  0  0  0
   13.3108  -10.0917  -10.1007 C   0  0  0  0  0  0  0  0  0  0  0  0
   14.3855   -9.6364   -9.1237 C   0  0  1  0  0  0  0  0  0  0  0  0
   15.7125   -9.4883   -9.8371 N   0  0  0  0  0  0  0  0  0  0  0  0
   15.8696   -8.1366  -10.3624 C   0  0  0  0  0  0  0  0  0  0  0  0
   15.7131  -10.4305  -10.9690 O   0  0  0  0  0  0  0  0  0  0  0  0
   15.7825  -11.6548  -10.7780 O   0  0  0  0  0  0  0  0  0  0  0  0
  2  5  1  0
  2  1  1  6
  3  2  1  0
  4  3  1  0
  5  6  2  0
  7  8  1  0
  8 10  1  0
  9  8  2  0
 10 11  1  0
 12 11  1  0
 13 12  1  0
 14 13  1  1
 15 14  1  0
 15  5  1  0
 16 14  1  0
 17 16  2  0
 19 18  1  0
 20 19  1  0
 21 20  1  0
 22 21  1  1
 22 23  1  0
 23 16  1  0
 24 22  1  0
 24 26  1  0
 25 24  2  0
M  END
$$$$
