CRM.pdb
     RDKit          3D

 26 25  0  0  1  0  0  0  0  0999 V2000
   27.3959  -20.9635  -14.9275 N   0  0  0  0  0  0  0  0  0  0  0  0
   26.3187  -20.0896  -14.4184 C   0  0  1  0  0  0  0  0  0  0  0  0
   26.5068  -18.6914  -14.9575 C   0  0  0  0  0  0  0  0  0  0  0  0
   27.9328  -17.9456  -14.1430 S   0  0  0  0  0  0  0  0  0  0  0  0
   25.0453  -20.6334  -14.9595 C   0  0  0  0  0  0  0  0  0  0  0  0
   25.1240  -21.5318  -15.8263 O   0  0  0  0  0  0  0  0  0  0  0  0
   19.3639  -21.5794  -10.6905 N   0  0  0  0  0  0  0  0  0  0  0  0
   19.2919  -22.8470  -11.3409 C   0  0  0  0  0  0  0  0  0  0  0  0
   19.2921  -23.9495  -10.6515 N   0  0  0  0  0  0  0  0  0  0  0  0
   19.2213  -22.9597  -12.7549 N   0  0  0  0  0  0  0  0  0  0  0  0
   19.1418  -21.7546  -13.5451 C   0  0  0  0  0  0  0  0  0  0  0  0
   20.2802  -21.6824  -14.5593 C   0  0  0  0  0  0  0  0  0  0  0  0
   21.4573  -20.9537  -14.0198 C   0  0  0  0  0  0  0  0  0  0  0  0
   22.5688  -20.8300  -14.9858 C   0  0  2  0  0  0  0  0  0  0  0  0
   23.7735  -20.2223  -14.5759 N   0  0  0  0  0  0  0  0  0  0  0  0
   22.1084  -20.3046  -16.2893 C   0  0  0  0  0  0  0  0  0  0  0  0
   21.8226  -19.0775  -16.3602 O   0  0  0  0  0  0  0  0  0  0  0  0
   19.2994  -24.8831  -11.1031 C   0  0  0  0  0  0  0  0  0  0  0  0
   17.1720  -18.3795  -21.2593 S   0  0  0  0  0  0  0  0  0  0  0  0
   17.9565  -18.7015  -19.6343 C   0  0  0  0  0  0  0  0  0  0  0  0
   19.5665  -19.4945  -19.9187 C   0  0  0  0  0  0  0  0  0  0  0  0
   20.2070  -19.7408  -18.5600 C   0  0  2  0  0  0  0  0  0  0  0  0
   21.5367  -20.4447  -18.7281 N   0  0  0  0  0  0  0  0  0  0  0  0
   21.9595  -21.0585  -17.4743 C   0  0  0  0  0  0  0  0  0  0  0  0
   22.5310  -19.4262  -19.1062 O   0  0  0  0  0  0  0  0  0  0  0  0
   22.1841  -18.3762  -19.6695 O   0  0  0  0  0  0  0  0  0  0  0  0
  2  5  1  0
  2  1  1  6
  3  2  1  0
  4  3  1  0
  5  6  2  0
  7  8  1  0
  8 10  1  0
  9  8  2  0
 10 11  1  0
 12 11  1  0
 13 12  1  0
 14 13  1  1
 15 14  1  0
 15  5  1  0
 16 14  1  0
 17 16  2  0
 19 18  1  0
 20 19  1  0
 21 20  1  0
 22 21  1  6
 22 23  1  0
 23 16  1  0
 24 22  1  0
 24 26  1  0
 25 24  2  0
M  END
$$$$
