CRM.pdb
     RDKit          3D

 26 25  0  0  1  0  0  0  0  0999 V2000
   15.2631  -10.5226  -10.2433 N   0  0  0  0  0  0  0  0  0  0  0  0
   14.5856   -9.6145  -11.1917 C   0  0  1  0  0  0  0  0  0  0  0  0
   13.7012   -8.6572  -10.4285 C   0  0  0  0  0  0  0  0  0  0  0  0
   12.2898   -9.5708   -9.7755 S   0  0  0  0  0  0  0  0  0  0  0  0
   15.6568   -8.8307  -11.8612 C   0  0  0  0  0  0  0  0  0  0  0  0
   16.5724   -8.3736  -11.1418 O   0  0  0  0  0  0  0  0  0  0  0  0
   19.7972  -12.7141  -15.0144 N   0  0  0  0  0  0  0  0  0  0  0  0
   18.7101  -12.6611  -15.9366 C   0  0  0  0  0  0  0  0  0  0  0  0
   18.0982  -13.7470  -16.3068 N   0  0  0  0  0  0  0  0  0  0  0  0
   18.2555  -11.4336  -16.4877 N   0  0  0  0  0  0  0  0  0  0  0  0
   18.8578  -10.2029  -16.0345 C   0  0  0  0  0  0  0  0  0  0  0  0
   18.1597   -9.6731  -14.7848 C   0  0  0  0  0  0  0  0  0  0  0  0
   17.4000   -8.4264  -15.0610 C   0  0  0  0  0  0  0  0  0  0  0  0
   16.7545   -7.8505  -13.8629 C   0  0  2  0  0  0  0  0  0  0  0  0
   15.7212   -8.5675  -13.2251 N   0  0  0  0  0  0  0  0  0  0  0  0
   16.3909   -6.4311  -14.0630 C   0  0  0  0  0  0  0  0  0  0  0  0
   15.1691   -6.1533  -14.2140 O   0  0  0  0  0  0  0  0  0  0  0  0
   17.2748  -13.7292  -16.9373 C   0  0  0  0  0  0  0  0  0  0  0  0
   13.9078    0.1029  -12.1989 S   0  0  0  0  0  0  0  0  0  0  0  0
   14.3302   -1.6753  -12.0604 C   0  0  0  0  0  0  0  0  0  0  0  0
   15.5290   -2.0860  -13.3628 C   0  0  0  0  0  0  0  0  0  0  0  0
   15.8372   -3.5728  -13.2552 C   0  0  1  0  0  0  0  0  0  0  0  0
   16.8446   -3.9760  -14.3110 N   0  0  0  0  0  0  0  0  0  0  0  0
   17.2954   -5.3470  -14.0992 C   0  0  0  0  0  0  0  0  0  0  0  0
   18.0052   -3.0790  -14.1797 O   0  0  0  0  0  0  0  0  0  0  0  0
   19.1034   -3.5111  -13.7958 O   0  0  0  0  0  0  0  0  0  0  0  0
  2  5  1  0
  2  1  1  1
  3  2  1  0
  4  3  1  0
  5  6  2  0
  7  8  1  0
  8 10  1  0
  9  8  2  0
 10 11  1  0
 12 11  1  0
 13 12  1  0
 14 13  1  6
 15 14  1  0
 15  5  1  0
 16 14  1  0
 17 16  2  0
 19 18  1  0
 20 19  1  0
 21 20  1  0
 22 21  1  6
 22 23  1  0
 23 16  1  0
 24 22  1  0
 24 26  1  0
 25 24  2  0
M  END
$$$$
