CRM.pdb
     RDKit          3D

 26 25  0  0  1  0  0  0  0  0999 V2000
   13.6792   -9.6601   -9.0563 N   0  0  0  0  0  0  0  0  0  0  0  0
   13.9530   -8.2428   -9.3714 C   0  0  1  0  0  0  0  0  0  0  0  0
   14.2322   -7.4872   -8.0938 C   0  0  0  0  0  0  0  0  0  0  0  0
   12.7186   -7.4297   -7.1146 S   0  0  0  0  0  0  0  0  0  0  0  0
   15.1846   -8.2275  -10.2038 C   0  0  0  0  0  0  0  0  0  0  0  0
   16.0482   -9.1022   -9.9720 O   0  0  0  0  0  0  0  0  0  0  0  0
   18.7996   -4.9990  -16.6887 N   0  0  0  0  0  0  0  0  0  0  0  0
   19.0252   -6.3315  -17.1456 C   0  0  0  0  0  0  0  0  0  0  0  0
   20.0475   -6.6125  -17.8985 N   0  0  0  0  0  0  0  0  0  0  0  0
   18.1508   -7.3976  -16.8051 N   0  0  0  0  0  0  0  0  0  0  0  0
   17.0210   -7.1236  -15.9499 C   0  0  0  0  0  0  0  0  0  0  0  0
   17.3795   -7.3227  -14.4797 C   0  0  0  0  0  0  0  0  0  0  0  0
   16.1884   -7.2089  -13.5987 C   0  0  0  0  0  0  0  0  0  0  0  0
   16.4855   -7.4454  -12.1705 C   0  0  2  0  0  0  0  0  0  0  0  0
   15.4507   -7.3177  -11.2211 N   0  0  0  0  0  0  0  0  0  0  0  0
   17.7115   -6.7392  -11.7399 C   0  0  0  0  0  0  0  0  0  0  0  0
   17.6041   -5.5278  -11.4029 O   0  0  0  0  0  0  0  0  0  0  0  0
   20.2530   -7.5795  -18.2121 C   0  0  0  0  0  0  0  0  0  0  0  0
   24.5046   -7.1033   -7.8547 S   0  0  0  0  0  0  0  0  0  0  0  0
   23.1068   -7.9873   -8.6448 C   0  0  0  0  0  0  0  0  0  0  0  0
   22.0925   -6.7760   -9.5426 C   0  0  0  0  0  0  0  0  0  0  0  0
   20.9244   -7.5246  -10.1687 C   0  0  1  0  0  0  0  0  0  0  0  0
   20.1199   -6.5947  -11.0518 N   0  0  0  0  0  0  0  0  0  0  0  0
   19.0044   -7.3034  -11.6690 C   0  0  0  0  0  0  0  0  0  0  0  0
   21.0143   -6.1152  -12.1191 O   0  0  0  0  0  0  0  0  0  0  0  0
   21.7959   -5.1723  -11.9189 O   0  0  0  0  0  0  0  0  0  0  0  0
  2  5  1  0
  2  1  1  1
  3  2  1  0
  4  3  1  0
  5  6  2  0
  7  8  1  0
  8 10  1  0
  9  8  2  0
 10 11  1  0
 12 11  1  0
 13 12  1  0
 14 13  1  6
 15 14  1  0
 15  5  1  0
 16 14  1  0
 17 16  2  0
 19 18  1  0
 20 19  1  0
 21 20  1  0
 22 21  1  1
 22 23  1  0
 23 16  1  0
 24 22  1  0
 24 26  1  0
 25 24  2  0
M  END
$$$$
