CRM.pdb
     RDKit          3D

 26 25  0  0  1  0  0  0  0  0999 V2000
   14.2388  -26.0039    3.8367 N   0  0  0  0  0  0  0  0  0  0  0  0
   13.3973  -24.7908    3.7782 C   0  0  1  0  0  0  0  0  0  0  0  0
   13.3413  -24.1498    5.1446 C   0  0  0  0  0  0  0  0  0  0  0  0
   12.3723  -22.6328    5.0313 S   0  0  0  0  0  0  0  0  0  0  0  0
   14.0773  -23.8520    2.8475 C   0  0  0  0  0  0  0  0  0  0  0  0
   15.3230  -23.7667    2.9225 O   0  0  0  0  0  0  0  0  0  0  0  0
   12.5496  -23.2185   -5.0118 N   0  0  0  0  0  0  0  0  0  0  0  0
   13.3204  -22.2075   -4.3646 C   0  0  0  0  0  0  0  0  0  0  0  0
   13.7543  -21.1758   -5.0264 N   0  0  0  0  0  0  0  0  0  0  0  0
   13.6473  -22.2843   -2.9846 N   0  0  0  0  0  0  0  0  0  0  0  0
   14.4332  -23.4011   -2.5176 C   0  0  0  0  0  0  0  0  0  0  0  0
   14.6501  -23.3317   -1.0083 C   0  0  0  0  0  0  0  0  0  0  0  0
   13.9046  -22.2033   -0.3929 C   0  0  0  0  0  0  0  0  0  0  0  0
   14.0734  -22.1136    1.0725 C   0  0  2  0  0  0  0  0  0  0  0  0
   13.4367  -23.0625    1.8988 N   0  0  0  0  0  0  0  0  0  0  0  0
   13.8678  -20.7348    1.5662 C   0  0  0  0  0  0  0  0  0  0  0  0
   12.7713  -20.4709    2.1325 O   0  0  0  0  0  0  0  0  0  0  0  0
   14.1243  -20.3311   -4.5518 C   0  0  0  0  0  0  0  0  0  0  0  0
   11.4264  -15.6403    5.5980 S   0  0  0  0  0  0  0  0  0  0  0  0
   11.9758  -17.3007    5.0495 C   0  0  0  0  0  0  0  0  0  0  0  0
   13.2042  -17.0935    3.7267 C   0  0  0  0  0  0  0  0  0  0  0  0
   13.4752  -18.4665    3.1281 C   0  0  2  0  0  0  0  0  0  0  0  0
   14.5456  -18.3706    2.0619 N   0  0  0  0  0  0  0  0  0  0  0  0
   14.7968  -19.6762    1.4619 C   0  0  0  0  0  0  0  0  0  0  0  0
   15.7828  -17.9141    2.7178 O   0  0  0  0  0  0  0  0  0  0  0  0
   16.7644  -18.6666    2.8192 O   0  0  0  0  0  0  0  0  0  0  0  0
  2  5  1  0
  2  1  1  1
  3  2  1  0
  4  3  1  0
  5  6  2  0
  7  8  1  0
  8 10  1  0
  9  8  2  0
 10 11  1  0
 12 11  1  0
 13 12  1  0
 14 13  1  6
 15 14  1  0
 15  5  1  0
 16 14  1  0
 17 16  2  0
 19 18  1  0
 20 19  1  0
 21 20  1  0
 22 21  1  6
 22 23  1  0
 23 16  1  0
 24 22  1  0
 24 26  1  0
 25 24  2  0
M  END
$$$$
