CRM.pdb
     RDKit          3D

 26 25  0  0  1  0  0  0  0  0999 V2000
   26.2345  -17.1063  -16.6272 N   0  0  0  0  0  0  0  0  0  0  0  0
   26.6901  -17.2553  -15.2296 C   0  0  1  0  0  0  0  0  0  0  0  0
   25.7305  -16.5408  -14.3078 C   0  0  0  0  0  0  0  0  0  0  0  0
   25.9544  -14.7623  -14.5074 S   0  0  0  0  0  0  0  0  0  0  0  0
   26.6392  -18.7092  -14.9236 C   0  0  0  0  0  0  0  0  0  0  0  0
   25.8194  -19.4048  -15.5629 O   0  0  0  0  0  0  0  0  0  0  0  0
   31.6033  -24.6829  -15.1506 N   0  0  0  0  0  0  0  0  0  0  0  0
   31.1433  -24.3657  -16.4631 C   0  0  0  0  0  0  0  0  0  0  0  0
   31.9550  -24.3977  -17.4784 N   0  0  0  0  0  0  0  0  0  0  0  0
   29.7939  -24.0015  -16.7156 N   0  0  0  0  0  0  0  0  0  0  0  0
   29.0013  -23.4756  -15.6302 C   0  0  0  0  0  0  0  0  0  0  0  0
   28.8328  -21.9634  -15.7509 C   0  0  0  0  0  0  0  0  0  0  0  0
   28.9436  -21.2867  -14.4327 C   0  0  0  0  0  0  0  0  0  0  0  0
   27.6604  -20.7474  -13.9361 C   0  0  2  0  0  0  0  0  0  0  0  0
   27.4332  -19.3565  -13.9833 N   0  0  0  0  0  0  0  0  0  0  0  0
   27.2982  -21.3153  -12.6195 C   0  0  0  0  0  0  0  0  0  0  0  0
   28.2361  -21.6012  -11.8249 O   0  0  0  0  0  0  0  0  0  0  0  0
   31.6211  -24.3010  -18.4556 C   0  0  0  0  0  0  0  0  0  0  0  0
   27.2062  -19.6857   -5.8664 S   0  0  0  0  0  0  0  0  0  0  0  0
   27.5167  -19.5880   -7.6702 C   0  0  0  0  0  0  0  0  0  0  0  0
   26.2304  -20.5419   -8.5288 C   0  0  0  0  0  0  0  0  0  0  0  0
   26.6265  -20.6366   -9.9955 C   0  0  1  0  0  0  0  0  0  0  0  0
   25.6322  -21.4916  -10.7519 N   0  0  0  0  0  0  0  0  0  0  0  0
   25.9850  -21.5678  -12.1652 C   0  0  0  0  0  0  0  0  0  0  0  0
   24.3144  -20.8444  -10.6355 O   0  0  0  0  0  0  0  0  0  0  0  0
   23.6951  -20.8503   -9.5600 O   0  0  0  0  0  0  0  0  0  0  0  0
  2  5  1  0
  2  1  1  6
  3  2  1  0
  4  3  1  0
  5  6  2  0
  7  8  1  0
  8 10  1  0
  9  8  2  0
 10 11  1  0
 12 11  1  0
 13 12  1  0
 14 13  1  1
 15 14  1  0
 15  5  1  0
 16 14  1  0
 17 16  2  0
 19 18  1  0
 20 19  1  0
 21 20  1  0
 22 21  1  1
 22 23  1  0
 23 16  1  0
 24 22  1  0
 24 26  1  0
 25 24  2  0
M  END
$$$$
