CRM.pdb
     RDKit          3D

 26 25  0  0  1  0  0  0  0  0999 V2000
   28.2781  -19.2705  -15.7751 N   0  0  0  0  0  0  0  0  0  0  0  0
   27.9017  -20.5407  -15.1210 C   0  0  1  0  0  0  0  0  0  0  0  0
   29.1339  -21.1933  -14.5407 C   0  0  0  0  0  0  0  0  0  0  0  0
   30.1145  -21.8784  -15.8906 S   0  0  0  0  0  0  0  0  0  0  0  0
   26.9897  -20.1835  -14.0027 C   0  0  0  0  0  0  0  0  0  0  0  0
   27.1073  -19.0421  -13.5047 O   0  0  0  0  0  0  0  0  0  0  0  0
   19.4702  -18.5694  -11.7173 N   0  0  0  0  0  0  0  0  0  0  0  0
   19.8903  -18.9919  -13.0135 C   0  0  0  0  0  0  0  0  0  0  0  0
   19.4686  -18.3814  -14.0813 N   0  0  0  0  0  0  0  0  0  0  0  0
   20.7751  -20.0882  -13.1930 N   0  0  0  0  0  0  0  0  0  0  0  0
   21.2493  -20.7965  -12.0284 C   0  0  0  0  0  0  0  0  0  0  0  0
   22.7035  -20.4471  -11.7230 C   0  0  0  0  0  0  0  0  0  0  0  0
   23.6127  -20.8447  -12.8289 C   0  0  0  0  0  0  0  0  0  0  0  0
   25.0425  -20.6273  -12.5249 C   0  0  2  0  0  0  0  0  0  0  0  0
   26.0148  -21.0187  -13.4683 N   0  0  0  0  0  0  0  0  0  0  0  0
   25.3901  -21.0830  -11.1616 C   0  0  0  0  0  0  0  0  0  0  0  0
   25.2820  -22.3147  -10.9085 O   0  0  0  0  0  0  0  0  0  0  0  0
   19.7572  -18.6726  -15.0340 C   0  0  0  0  0  0  0  0  0  0  0  0
   30.0068  -19.7432   -6.0656 S   0  0  0  0  0  0  0  0  0  0  0  0
   28.2806  -19.2531   -5.6916 C   0  0  0  0  0  0  0  0  0  0  0  0
   27.1583  -20.3876   -6.5607 C   0  0  0  0  0  0  0  0  0  0  0  0
   26.9396  -19.8375   -7.9630 C   0  0  1  0  0  0  0  0  0  0  0  0
   26.0688  -20.7809   -8.7653 N   0  0  0  0  0  0  0  0  0  0  0  0
   25.8381  -20.2573  -10.1070 C   0  0  0  0  0  0  0  0  0  0  0  0
   24.7717  -20.8796   -8.0749 O   0  0  0  0  0  0  0  0  0  0  0  0
   23.7891  -20.2332   -8.4707 O   0  0  0  0  0  0  0  0  0  0  0  0
  2  5  1  0
  2  1  1  1
  3  2  1  0
  4  3  1  0
  5  6  2  0
  7  8  1  0
  8 10  1  0
  9  8  2  0
 10 11  1  0
 12 11  1  0
 13 12  1  0
 14 13  1  6
 15 14  1  0
 15  5  1  0
 16 14  1  0
 17 16  2  0
 19 18  1  0
 20 19  1  0
 21 20  1  0
 22 21  1  6
 22 23  1  0
 23 16  1  0
 24 22  1  0
 24 26  1  0
 25 24  2  0
M  END
$$$$
