MMK.pdb
     RDKit          3D

 26 25  0  0  1  0  0  0  0  0999 V2000
    7.9607  -20.7362   20.9365 C   0  0  0  0  0  0  0  0  0  0  0  0
    6.9127  -20.2246   19.5493 S   0  0  0  0  0  0  0  0  0  0  0  0
    6.8589  -18.4312   19.3793 C   0  0  0  0  0  0  0  0  0  0  0  0
    7.6371  -17.8234   20.5243 C   0  0  0  0  0  0  0  0  0  0  0  0
    7.5148  -16.2993   20.5107 C   0  0  2  0  0  0  0  0  0  0  0  0
    8.3181  -15.8835   19.3515 N   0  0  0  0  0  0  0  0  0  0  0  0
    8.1507  -15.7140   21.7111 C   0  0  0  0  0  0  0  0  0  0  0  0
    9.3841  -15.5704   21.7758 O   0  0  0  0  0  0  0  0  0  0  0  0
    6.1817  -10.8217   26.1472 C   0  0  0  0  0  0  0  0  0  0  0  0
    6.6476  -12.2949   27.1019 S   0  0  0  0  0  0  0  0  0  0  0  0
    7.6675  -13.4286   26.1648 C   0  0  0  0  0  0  0  0  0  0  0  0
    7.1055  -13.8864   24.8743 C   0  0  0  0  0  0  0  0  0  0  0  0
    7.9609  -14.7828   24.0433 C   0  0  2  0  0  0  0  0  0  0  0  0
    7.3716  -15.2874   22.8495 N   0  0  0  0  0  0  0  0  0  0  0  0
    8.5944  -15.8658   24.8680 C   0  0  0  0  0  0  0  0  0  0  0  0
    7.9116  -16.8150   25.3337 O   0  0  0  0  0  0  0  0  0  0  0  0
    9.9808  -15.8820   25.1657 N   0  0  0  0  0  0  0  0  0  0  0  0
   10.6479  -17.0316   25.7757 C   0  0  1  0  0  0  0  0  0  0  0  0
   12.0308  -17.1958   25.2609 C   0  0  0  0  0  0  0  0  0  0  0  0
   12.7375  -18.3199   25.9639 C   0  0  0  0  0  0  0  0  0  0  0  0
   14.1886  -18.4060   25.4435 C   0  0  0  0  0  0  0  0  0  0  0  0
   14.8145  -19.6351   26.0646 C   0  0  0  0  0  0  0  0  0  0  0  0
   16.1586  -19.8324   25.5963 N   0  0  0  0  0  0  0  0  0  0  0  0
   10.6652  -16.8039   27.2347 C   0  0  0  0  0  0  0  0  0  0  0  0
   10.6686  -17.9277   28.0882 O   0  0  0  0  0  0  0  0  0  0  0  0
   10.6773  -15.7054   27.8157 O   0  0  0  0  0  0  0  0  0  0  0  0
  2  1  1  0
  3  2  1  0
  4  3  1  0
  4  5  1  0
  5  7  1  0
  5  6  1  6
  7 14  1  0
  8  7  2  0
 10  9  1  0
 11 10  1  0
 13 12  1  1
 12 11  1  0
 14 13  1  0
 15 17  1  0
 15 13  1  0
 16 15  2  0
 18 17  1  0
 18 24  1  0
 18 19  1  6
 20 19  1  0
 21 20  1  0
 22 21  1  0
 23 22  1  0
 24 25  1  0
 26 24  2  0
M  END
$$$$
