MMK.pdb
     RDKit          3D

 26 25  0  0  1  0  0  0  0  0999 V2000
    8.6545  -11.6721   19.4053 C   0  0  0  0  0  0  0  0  0  0  0  0
    7.2141  -12.5338   20.0884 S   0  0  0  0  0  0  0  0  0  0  0  0
    7.3620  -14.3217   19.9163 C   0  0  0  0  0  0  0  0  0  0  0  0
    8.8198  -14.6930   20.0688 C   0  0  0  0  0  0  0  0  0  0  0  0
    8.9823  -15.8440   21.0622 C   0  0  2  0  0  0  0  0  0  0  0  0
    7.6946  -16.5517   21.0077 N   0  0  0  0  0  0  0  0  0  0  0  0
    9.1348  -15.3270   22.4396 C   0  0  0  0  0  0  0  0  0  0  0  0
   10.1669  -14.7268   22.7867 O   0  0  0  0  0  0  0  0  0  0  0  0
    5.9086  -11.3038   26.1115 C   0  0  0  0  0  0  0  0  0  0  0  0
    6.3774  -12.5072   27.3885 S   0  0  0  0  0  0  0  0  0  0  0  0
    7.4952  -13.7628   26.7743 C   0  0  0  0  0  0  0  0  0  0  0  0
    7.3178  -14.1469   25.3559 C   0  0  0  0  0  0  0  0  0  0  0  0
    8.2761  -15.1462   24.8002 C   0  0  2  0  0  0  0  0  0  0  0  0
    8.0990  -15.4957   23.4313 N   0  0  0  0  0  0  0  0  0  0  0  0
    8.3947  -16.3529   25.6856 C   0  0  0  0  0  0  0  0  0  0  0  0
    7.4454  -17.1708   25.8044 O   0  0  0  0  0  0  0  0  0  0  0  0
    9.5680  -16.6376   26.4294 N   0  0  0  0  0  0  0  0  0  0  0  0
   10.0917  -17.9927   26.5973 C   0  0  1  0  0  0  0  0  0  0  0  0
   10.7476  -18.4811   25.3580 C   0  0  0  0  0  0  0  0  0  0  0  0
   11.1787  -19.9128   25.5048 C   0  0  0  0  0  0  0  0  0  0  0  0
   11.8376  -20.3777   24.1882 C   0  0  0  0  0  0  0  0  0  0  0  0
   12.1273  -21.8556   24.3303 C   0  0  0  0  0  0  0  0  0  0  0  0
   12.5280  -22.4342   23.0775 N   0  0  0  0  0  0  0  0  0  0  0  0
   11.0606  -17.9523   27.7111 C   0  0  0  0  0  0  0  0  0  0  0  0
   11.7059  -16.7296   27.9938 O   0  0  0  0  0  0  0  0  0  0  0  0
   11.3835  -18.8977   28.4503 O   0  0  0  0  0  0  0  0  0  0  0  0
  2  1  1  0
  3  2  1  0
  4  3  1  0
  4  5  1  0
  5  7  1  0
  5  6  1  1
  7 14  1  0
  8  7  2  0
 10  9  1  0
 11 10  1  0
 13 12  1  1
 12 11  1  0
 14 13  1  0
 15 17  1  0
 15 13  1  0
 16 15  2  0
 18 17  1  0
 18 24  1  0
 18 19  1  6
 20 19  1  0
 21 20  1  0
 22 21  1  0
 23 22  1  0
 24 25  1  0
 26 24  2  0
M  END
$$$$
