MMK.pdb
     RDKit          3D

 26 25  0  0  1  0  0  0  0  0999 V2000
    8.9877  -11.7291   19.0599 C   0  0  0  0  0  0  0  0  0  0  0  0
    7.4512  -11.9446   19.9962 S   0  0  0  0  0  0  0  0  0  0  0  0
    7.0938  -13.6845   20.3014 C   0  0  0  0  0  0  0  0  0  0  0  0
    8.2878  -14.4983   19.8561 C   0  0  0  0  0  0  0  0  0  0  0  0
    8.4636  -15.7295   20.7457 C   0  0  2  0  0  0  0  0  0  0  0  0
    7.1101  -16.2941   20.8514 N   0  0  0  0  0  0  0  0  0  0  0  0
    8.8756  -15.3330   22.1098 C   0  0  0  0  0  0  0  0  0  0  0  0
   10.0473  -14.9939   22.3508 O   0  0  0  0  0  0  0  0  0  0  0  0
    6.3407  -11.1976   26.4136 C   0  0  0  0  0  0  0  0  0  0  0  0
    6.8590  -12.5373   27.5251 S   0  0  0  0  0  0  0  0  0  0  0  0
    7.8490  -13.7763   26.6953 C   0  0  0  0  0  0  0  0  0  0  0  0
    7.4549  -14.0916   25.3039 C   0  0  0  0  0  0  0  0  0  0  0  0
    8.3292  -15.0370   24.5504 C   0  0  2  0  0  0  0  0  0  0  0  0
    7.9411  -15.3226   23.2106 N   0  0  0  0  0  0  0  0  0  0  0  0
    8.6096  -16.2826   25.3403 C   0  0  0  0  0  0  0  0  0  0  0  0
    7.6889  -17.0876   25.6377 O   0  0  0  0  0  0  0  0  0  0  0  0
    9.9111  -16.6201   25.7910 N   0  0  0  0  0  0  0  0  0  0  0  0
   10.2312  -17.9131   26.3946 C   0  0  1  0  0  0  0  0  0  0  0  0
   11.2002  -18.6759   25.5678 C   0  0  0  0  0  0  0  0  0  0  0  0
   11.5348  -19.9934   26.2078 C   0  0  0  0  0  0  0  0  0  0  0  0
   12.6027  -20.7110   25.3542 C   0  0  0  0  0  0  0  0  0  0  0  0
   12.8499  -22.0613   25.9894 C   0  0  0  0  0  0  0  0  0  0  0  0
   13.8775  -22.7871   25.2950 N   0  0  0  0  0  0  0  0  0  0  0  0
   10.7957  -17.6436   27.7323 C   0  0  0  0  0  0  0  0  0  0  0  0
   10.8778  -18.7105   28.6524 O   0  0  0  0  0  0  0  0  0  0  0  0
   11.2194  -16.5544   28.1549 O   0  0  0  0  0  0  0  0  0  0  0  0
  2  1  1  0
  3  2  1  0
  4  3  1  0
  4  5  1  0
  5  7  1  0
  5  6  1  1
  7 14  1  0
  8  7  2  0
 10  9  1  0
 11 10  1  0
 13 12  1  1
 12 11  1  0
 14 13  1  0
 15 17  1  0
 15 13  1  0
 16 15  2  0
 18 17  1  0
 18 24  1  0
 18 19  1  6
 20 19  1  0
 21 20  1  0
 22 21  1  0
 23 22  1  0
 24 25  1  0
 26 24  2  0
M  END
$$$$
