MMK.pdb
     RDKit          3D

 26 25  0  0  1  0  0  0  0  0999 V2000
    3.2182  -19.3088   22.8384 C   0  0  0  0  0  0  0  0  0  0  0  0
    2.9398  -19.2892   21.0478 S   0  0  0  0  0  0  0  0  0  0  0  0
    3.9857  -18.0752   20.2229 C   0  0  0  0  0  0  0  0  0  0  0  0
    5.0983  -17.6869   21.1703 C   0  0  0  0  0  0  0  0  0  0  0  0
    5.8799  -16.4919   20.6235 C   0  0  2  0  0  0  0  0  0  0  0  0
    6.6308  -17.0425   19.4856 N   0  0  0  0  0  0  0  0  0  0  0  0
    6.8744  -16.0221   21.6125 C   0  0  0  0  0  0  0  0  0  0  0  0
    8.0073  -16.5310   21.6715 O   0  0  0  0  0  0  0  0  0  0  0  0
    6.5860  -11.8389   27.8964 C   0  0  0  0  0  0  0  0  0  0  0  0
    7.4980  -11.4839   26.3663 S   0  0  0  0  0  0  0  0  0  0  0  0
    7.9644  -12.9687   25.4823 C   0  0  0  0  0  0  0  0  0  0  0  0
    7.1015  -13.3360   24.3372 C   0  0  0  0  0  0  0  0  0  0  0  0
    7.4603  -14.5761   23.5895 C   0  0  2  0  0  0  0  0  0  0  0  0
    6.5737  -14.9603   22.5438 N   0  0  0  0  0  0  0  0  0  0  0  0
    7.7722  -15.7134   24.5188 C   0  0  0  0  0  0  0  0  0  0  0  0
    6.8845  -16.2153   25.2565 O   0  0  0  0  0  0  0  0  0  0  0  0
    9.0680  -16.2808   24.6176 N   0  0  0  0  0  0  0  0  0  0  0  0
    9.3647  -17.4393   25.4594 C   0  0  1  0  0  0  0  0  0  0  0  0
   10.2027  -18.4336   24.7428 C   0  0  0  0  0  0  0  0  0  0  0  0
    9.4821  -18.9812   23.5435 C   0  0  0  0  0  0  0  0  0  0  0  0
   10.4069  -19.9782   22.8124 C   0  0  0  0  0  0  0  0  0  0  0  0
    9.6174  -20.5582   21.6598 C   0  0  0  0  0  0  0  0  0  0  0  0
   10.4189  -21.4554   20.8742 N   0  0  0  0  0  0  0  0  0  0  0  0
   10.0691  -16.9403   26.6577 C   0  0  0  0  0  0  0  0  0  0  0  0
   10.3157  -17.8428   27.7142 O   0  0  0  0  0  0  0  0  0  0  0  0
   10.4821  -15.7841   26.8498 O   0  0  0  0  0  0  0  0  0  0  0  0
  2  1  1  0
  3  2  1  0
  4  3  1  0
  4  5  1  0
  5  7  1  0
  5  6  1  6
  7 14  1  0
  8  7  2  0
 10  9  1  0
 11 10  1  0
 13 12  1  1
 12 11  1  0
 14 13  1  0
 15 17  1  0
 15 13  1  0
 16 15  2  0
 18 17  1  0
 18 24  1  0
 18 19  1  6
 20 19  1  0
 21 20  1  0
 22 21  1  0
 23 22  1  0
 24 25  1  0
 26 24  2  0
M  END
$$$$
