MMK.pdb
     RDKit          3D

 26 25  0  0  1  0  0  0  0  0999 V2000
    2.6409  -17.8781   20.0966 C   0  0  0  0  0  0  0  0  0  0  0  0
    2.4797  -18.9739   21.5309 S   0  0  0  0  0  0  0  0  0  0  0  0
    4.0295  -19.1162   22.4397 C   0  0  0  0  0  0  0  0  0  0  0  0
    4.9972  -18.0932   21.8888 C   0  0  0  0  0  0  0  0  0  0  0  0
    6.3516  -18.1991   22.5907 C   0  0  2  0  0  0  0  0  0  0  0  0
    6.0411  -18.8357   23.8792 N   0  0  0  0  0  0  0  0  0  0  0  0
    6.8906  -16.8547   22.8901 C   0  0  0  0  0  0  0  0  0  0  0  0
    7.6049  -16.2544   22.0682 O   0  0  0  0  0  0  0  0  0  0  0  0
    5.7729  -10.5811   26.1963 C   0  0  0  0  0  0  0  0  0  0  0  0
    6.6560  -11.8688   27.1240 S   0  0  0  0  0  0  0  0  0  0  0  0
    7.5183  -13.0178   26.0564 C   0  0  0  0  0  0  0  0  0  0  0  0
    6.7170  -14.1551   25.5512 C   0  0  0  0  0  0  0  0  0  0  0  0
    7.4027  -15.1122   24.6348 C   0  0  2  0  0  0  0  0  0  0  0  0
    6.6115  -16.1875   24.1399 N   0  0  0  0  0  0  0  0  0  0  0  0
    8.7116  -15.5813   25.2012 C   0  0  0  0  0  0  0  0  0  0  0  0
    9.4604  -14.8017   25.8461 O   0  0  0  0  0  0  0  0  0  0  0  0
    9.1740  -16.9127   25.0448 N   0  0  0  0  0  0  0  0  0  0  0  0
   10.4726  -17.3652   25.5426 C   0  0  1  0  0  0  0  0  0  0  0  0
   10.4244  -18.7828   25.9815 C   0  0  0  0  0  0  0  0  0  0  0  0
   11.7493  -19.2194   26.5394 C   0  0  0  0  0  0  0  0  0  0  0  0
   11.6904  -20.7302   26.8526 C   0  0  0  0  0  0  0  0  0  0  0  0
   12.3797  -20.9386   28.1829 C   0  0  0  0  0  0  0  0  0  0  0  0
   12.4116  -22.3288   28.5447 N   0  0  0  0  0  0  0  0  0  0  0  0
   11.4444  -17.1993   24.4432 C   0  0  0  0  0  0  0  0  0  0  0  0
   12.7907  -16.9343   24.7733 O   0  0  0  0  0  0  0  0  0  0  0  0
   11.2079  -17.2678   23.2251 O   0  0  0  0  0  0  0  0  0  0  0  0
  2  1  1  0
  3  2  1  0
  4  3  1  0
  4  5  1  0
  5  7  1  0
  5  6  1  1
  7 14  1  0
  8  7  2  0
 10  9  1  0
 11 10  1  0
 13 12  1  1
 12 11  1  0
 14 13  1  0
 15 17  1  0
 15 13  1  0
 16 15  2  0
 18 17  1  0
 18 24  1  0
 18 19  1  6
 20 19  1  0
 21 20  1  0
 22 21  1  0
 23 22  1  0
 24 25  1  0
 26 24  2  0
M  END
$$$$
