MMK.pdb
     RDKit          3D

 26 25  0  0  1  0  0  0  0  0999 V2000
    6.9552  -19.6883   20.3666 C   0  0  0  0  0  0  0  0  0  0  0  0
    6.5684  -18.7963   18.8372 S   0  0  0  0  0  0  0  0  0  0  0  0
    6.9334  -17.0372   18.9799 C   0  0  0  0  0  0  0  0  0  0  0  0
    7.6905  -16.8137   20.2695 C   0  0  0  0  0  0  0  0  0  0  0  0
    7.8625  -15.3190   20.5420 C   0  0  2  0  0  0  0  0  0  0  0  0
    8.8228  -14.8746   19.5211 N   0  0  0  0  0  0  0  0  0  0  0  0
    8.4974  -15.0984   21.8595 C   0  0  0  0  0  0  0  0  0  0  0  0
    9.7138  -15.2965   22.0245 O   0  0  0  0  0  0  0  0  0  0  0  0
    5.3951  -12.1713   27.2078 C   0  0  0  0  0  0  0  0  0  0  0  0
    6.7026  -11.3163   26.2814 S   0  0  0  0  0  0  0  0  0  0  0  0
    7.4169  -12.3377   24.9969 C   0  0  0  0  0  0  0  0  0  0  0  0
    7.5408  -13.7786   25.3121 C   0  0  0  0  0  0  0  0  0  0  0  0
    8.2656  -14.6281   24.3228 C   0  0  2  0  0  0  0  0  0  0  0  0
    7.7371  -14.6465   23.0009 N   0  0  0  0  0  0  0  0  0  0  0  0
    8.5158  -16.0093   24.8558 C   0  0  0  0  0  0  0  0  0  0  0  0
    7.8678  -17.0004   24.4292 O   0  0  0  0  0  0  0  0  0  0  0  0
    9.4842  -16.2738   25.8573 N   0  0  0  0  0  0  0  0  0  0  0  0
   10.3510  -17.4514   25.8315 C   0  0  1  0  0  0  0  0  0  0  0  0
   11.2683  -17.4277   24.6643 C   0  0  0  0  0  0  0  0  0  0  0  0
   12.2325  -18.5789   24.7133 C   0  0  0  0  0  0  0  0  0  0  0  0
   11.8610  -19.5940   23.6108 C   0  0  0  0  0  0  0  0  0  0  0  0
   12.8977  -20.6949   23.6486 C   0  0  0  0  0  0  0  0  0  0  0  0
   12.5489  -21.7740   22.7661 N   0  0  0  0  0  0  0  0  0  0  0  0
   11.1210  -17.4553   27.0916 C   0  0  0  0  0  0  0  0  0  0  0  0
   11.4312  -16.2160   27.6912 O   0  0  0  0  0  0  0  0  0  0  0  0
   11.5404  -18.4523   27.7036 O   0  0  0  0  0  0  0  0  0  0  0  0
  2  1  1  0
  3  2  1  0
  4  3  1  0
  4  5  1  0
  5  7  1  0
  5  6  1  6
  7 14  1  0
  8  7  2  0
 10  9  1  0
 11 10  1  0
 13 12  1  1
 12 11  1  0
 14 13  1  0
 15 17  1  0
 15 13  1  0
 16 15  2  0
 18 17  1  0
 18 24  1  0
 18 19  1  6
 20 19  1  0
 21 20  1  0
 22 21  1  0
 23 22  1  0
 24 25  1  0
 26 24  2  0
M  END
$$$$
