MMK.pdb
     RDKit          3D

 26 25  0  0  1  0  0  0  0  0999 V2000
    7.8442  -11.6911   19.4826 C   0  0  0  0  0  0  0  0  0  0  0  0
    7.1921  -13.1893   18.6988 S   0  0  0  0  0  0  0  0  0  0  0  0
    7.4826  -14.6524   19.7103 C   0  0  0  0  0  0  0  0  0  0  0  0
    8.6036  -14.3447   20.6772 C   0  0  0  0  0  0  0  0  0  0  0  0
    8.9356  -15.5722   21.5265 C   0  0  2  0  0  0  0  0  0  0  0  0
    7.7443  -16.4257   21.4076 N   0  0  0  0  0  0  0  0  0  0  0  0
    9.0625  -15.2012   22.9526 C   0  0  0  0  0  0  0  0  0  0  0  0
   10.0810  -14.6272   23.3759 O   0  0  0  0  0  0  0  0  0  0  0  0
    7.1466  -11.3047   27.6921 C   0  0  0  0  0  0  0  0  0  0  0  0
    5.8870  -12.1209   26.6693 S   0  0  0  0  0  0  0  0  0  0  0  0
    6.5968  -13.2334   25.4601 C   0  0  0  0  0  0  0  0  0  0  0  0
    6.9882  -14.5692   25.9635 C   0  0  0  0  0  0  0  0  0  0  0  0
    8.1500  -15.2291   25.2998 C   0  0  2  0  0  0  0  0  0  0  0  0
    8.0164  -15.4872   23.9060 N   0  0  0  0  0  0  0  0  0  0  0  0
    8.6109  -16.4379   26.0617 C   0  0  0  0  0  0  0  0  0  0  0  0
    8.7323  -16.4126   27.3142 O   0  0  0  0  0  0  0  0  0  0  0  0
    8.9316  -17.6625   25.4226 N   0  0  0  0  0  0  0  0  0  0  0  0
    9.3396  -18.8585   26.1587 C   0  0  1  0  0  0  0  0  0  0  0  0
    9.0354  -20.0970   25.3983 C   0  0  0  0  0  0  0  0  0  0  0  0
    7.5860  -20.1457   25.0054 C   0  0  0  0  0  0  0  0  0  0  0  0
    7.3440  -21.3930   24.1281 C   0  0  0  0  0  0  0  0  0  0  0  0
    5.8811  -21.3921   23.7431 C   0  0  0  0  0  0  0  0  0  0  0  0
    5.5707  -22.4825   22.8602 N   0  0  0  0  0  0  0  0  0  0  0  0
   10.7918  -18.7478   26.4028 C   0  0  0  0  0  0  0  0  0  0  0  0
   11.4074  -19.7105   27.2310 O   0  0  0  0  0  0  0  0  0  0  0  0
   11.5578  -17.8798   25.9507 O   0  0  0  0  0  0  0  0  0  0  0  0
  2  1  1  0
  3  2  1  0
  4  3  1  0
  4  5  1  0
  5  7  1  0
  5  6  1  1
  7 14  1  0
  8  7  2  0
 10  9  1  0
 11 10  1  0
 13 12  1  1
 12 11  1  0
 14 13  1  0
 15 17  1  0
 15 13  1  0
 16 15  2  0
 18 17  1  0
 18 24  1  0
 18 19  1  6
 20 19  1  0
 21 20  1  0
 22 21  1  0
 23 22  1  0
 24 25  1  0
 26 24  2  0
M  END
$$$$
