MMK.pdb
     RDKit          3D

 26 25  0  0  1  0  0  0  0  0999 V2000
    8.5300  -11.6876   19.0454 C   0  0  0  0  0  0  0  0  0  0  0  0
    7.4882  -12.9582   18.2811 S   0  0  0  0  0  0  0  0  0  0  0  0
    7.6594  -14.5493   19.1101 C   0  0  0  0  0  0  0  0  0  0  0  0
    8.8748  -14.4874   20.0075 C   0  0  0  0  0  0  0  0  0  0  0  0
    9.0186  -15.7803   20.8110 C   0  0  2  0  0  0  0  0  0  0  0  0
    7.7096  -16.4362   20.6757 N   0  0  0  0  0  0  0  0  0  0  0  0
    9.2083  -15.4836   22.2475 C   0  0  0  0  0  0  0  0  0  0  0  0
   10.3410  -15.2640   22.7110 O   0  0  0  0  0  0  0  0  0  0  0  0
    7.6543  -11.6281   28.5519 C   0  0  0  0  0  0  0  0  0  0  0  0
    6.9644  -12.1623   26.9590 S   0  0  0  0  0  0  0  0  0  0  0  0
    7.3819  -13.8567   26.5612 C   0  0  0  0  0  0  0  0  0  0  0  0
    7.1980  -14.2517   25.1467 C   0  0  0  0  0  0  0  0  0  0  0  0
    8.2448  -15.1295   24.5472 C   0  0  2  0  0  0  0  0  0  0  0  0
    8.0943  -15.4362   23.1650 N   0  0  0  0  0  0  0  0  0  0  0  0
    8.4842  -16.3555   25.3802 C   0  0  0  0  0  0  0  0  0  0  0  0
    7.6089  -17.2539   25.4855 O   0  0  0  0  0  0  0  0  0  0  0  0
    9.6946  -16.5698   26.0871 N   0  0  0  0  0  0  0  0  0  0  0  0
   10.0664  -17.8680   26.6485 C   0  0  1  0  0  0  0  0  0  0  0  0
   11.1487  -18.5122   25.8623 C   0  0  0  0  0  0  0  0  0  0  0  0
   11.5686  -19.8121   26.4879 C   0  0  0  0  0  0  0  0  0  0  0  0
   12.6868  -20.4448   25.6317 C   0  0  0  0  0  0  0  0  0  0  0  0
   13.0358  -21.7743   26.2631 C   0  0  0  0  0  0  0  0  0  0  0  0
   14.0680  -22.4499   25.5263 N   0  0  0  0  0  0  0  0  0  0  0  0
   10.5088  -17.6333   28.0378 C   0  0  0  0  0  0  0  0  0  0  0  0
   10.3981  -18.6922   28.9641 O   0  0  0  0  0  0  0  0  0  0  0  0
   10.9810  -16.5808   28.5000 O   0  0  0  0  0  0  0  0  0  0  0  0
  2  1  1  0
  3  2  1  0
  4  3  1  0
  4  5  1  0
  5  7  1  0
  5  6  1  1
  7 14  1  0
  8  7  2  0
 10  9  1  0
 11 10  1  0
 13 12  1  1
 12 11  1  0
 14 13  1  0
 15 17  1  0
 15 13  1  0
 16 15  2  0
 18 17  1  0
 18 24  1  0
 18 19  1  6
 20 19  1  0
 21 20  1  0
 22 21  1  0
 23 22  1  0
 24 25  1  0
 26 24  2  0
M  END
$$$$
