MMK.pdb
     RDKit          3D

 26 25  0  0  1  0  0  0  0  0999 V2000
    6.2947  -11.5138   25.3509 C   0  0  0  0  0  0  0  0  0  0  0  0
    5.3669  -13.0401   25.6570 S   0  0  0  0  0  0  0  0  0  0  0  0
    6.2965  -14.4992   25.1521 C   0  0  0  0  0  0  0  0  0  0  0  0
    6.5778  -14.3921   23.6703 C   0  0  0  0  0  0  0  0  0  0  0  0
    7.6300  -15.4170   23.2456 C   0  0  2  0  0  0  0  0  0  0  0  0
    7.1304  -16.6909   23.7836 N   0  0  0  0  0  0  0  0  0  0  0  0
    8.9230  -15.1433   23.9097 C   0  0  0  0  0  0  0  0  0  0  0  0
    9.7125  -14.3001   23.4496 O   0  0  0  0  0  0  0  0  0  0  0  0
   10.1730  -15.3107   30.6968 C   0  0  0  0  0  0  0  0  0  0  0  0
   11.1196  -14.1014   29.7271 S   0  0  0  0  0  0  0  0  0  0  0  0
   11.4364  -14.6559   28.0551 C   0  0  0  0  0  0  0  0  0  0  0  0
   10.2455  -15.0488   27.2688 C   0  0  0  0  0  0  0  0  0  0  0  0
   10.4775  -15.4857   25.8613 C   0  0  2  0  0  0  0  0  0  0  0  0
    9.3194  -15.8381   25.1118 N   0  0  0  0  0  0  0  0  0  0  0  0
   11.5520  -16.5308   25.7750 C   0  0  0  0  0  0  0  0  0  0  0  0
   12.6826  -16.3488   26.2974 O   0  0  0  0  0  0  0  0  0  0  0  0
   11.3578  -17.7674   25.1088 N   0  0  0  0  0  0  0  0  0  0  0  0
   12.4194  -18.7617   24.9562 C   0  0  1  0  0  0  0  0  0  0  0  0
   12.3020  -19.4914   23.6685 C   0  0  0  0  0  0  0  0  0  0  0  0
   12.2484  -20.9759   23.8934 C   0  0  0  0  0  0  0  0  0  0  0  0
   10.7866  -21.4534   23.7559 C   0  0  0  0  0  0  0  0  0  0  0  0
   10.7889  -22.9565   23.9262 C   0  0  0  0  0  0  0  0  0  0  0  0
    9.4524  -23.4755   24.0209 N   0  0  0  0  0  0  0  0  0  0  0  0
   13.7066  -18.0410   25.0242 C   0  0  0  0  0  0  0  0  0  0  0  0
   14.8144  -18.7009   25.5977 O   0  0  0  0  0  0  0  0  0  0  0  0
   13.9348  -16.8870   24.6235 O   0  0  0  0  0  0  0  0  0  0  0  0
  2  1  1  0
  3  2  1  0
  4  3  1  0
  4  5  1  0
  5  7  1  0
  5  6  1  1
  7 14  1  0
  8  7  2  0
 10  9  1  0
 11 10  1  0
 13 12  1  1
 12 11  1  0
 14 13  1  0
 15 17  1  0
 15 13  1  0
 16 15  2  0
 18 17  1  0
 18 24  1  0
 18 19  1  6
 20 19  1  0
 21 20  1  0
 22 21  1  0
 23 22  1  0
 24 25  1  0
 26 24  2  0
M  END
$$$$
