MMK.pdb
     RDKit          3D

 26 25  0  0  1  0  0  0  0  0999 V2000
    6.9236  -11.3768   19.1719 C   0  0  0  0  0  0  0  0  0  0  0  0
    7.5014  -12.6629   18.0334 S   0  0  0  0  0  0  0  0  0  0  0  0
    7.9677  -14.1682   18.9079 C   0  0  0  0  0  0  0  0  0  0  0  0
    8.1418  -13.8310   20.3715 C   0  0  0  0  0  0  0  0  0  0  0  0
    8.7079  -15.0274   21.1371 C   0  0  2  0  0  0  0  0  0  0  0  0
    7.6741  -16.0641   21.0015 N   0  0  0  0  0  0  0  0  0  0  0  0
    8.8240  -14.7169   22.5786 C   0  0  0  0  0  0  0  0  0  0  0  0
    8.4945  -13.6028   23.0214 O   0  0  0  0  0  0  0  0  0  0  0  0
    6.7715  -13.3531   27.9623 C   0  0  0  0  0  0  0  0  0  0  0  0
    7.1772  -12.4111   26.4634 S   0  0  0  0  0  0  0  0  0  0  0  0
    7.8254  -13.4453   25.1544 C   0  0  0  0  0  0  0  0  0  0  0  0
    8.1390  -14.8421   25.5307 C   0  0  0  0  0  0  0  0  0  0  0  0
    9.3621  -15.4474   24.9280 C   0  0  2  0  0  0  0  0  0  0  0  0
    9.3205  -15.6877   23.5252 N   0  0  0  0  0  0  0  0  0  0  0  0
    9.8232  -16.6504   25.6988 C   0  0  0  0  0  0  0  0  0  0  0  0
    9.1804  -17.7321   25.6660 O   0  0  0  0  0  0  0  0  0  0  0  0
   10.9945  -16.6380   26.4980 N   0  0  0  0  0  0  0  0  0  0  0  0
   11.4744  -17.8155   27.2206 C   0  0  1  0  0  0  0  0  0  0  0  0
   10.6235  -18.1160   28.3996 C   0  0  0  0  0  0  0  0  0  0  0  0
   10.9847  -19.4450   29.0001 C   0  0  0  0  0  0  0  0  0  0  0  0
   11.5283  -19.2212   30.4278 C   0  0  0  0  0  0  0  0  0  0  0  0
   11.9596  -20.5703   30.9589 C   0  0  0  0  0  0  0  0  0  0  0  0
   12.4044  -20.4793   32.3222 N   0  0  0  0  0  0  0  0  0  0  0  0
   11.4584  -18.9473   26.2721 C   0  0  0  0  0  0  0  0  0  0  0  0
   12.6768  -19.5998   25.9870 O   0  0  0  0  0  0  0  0  0  0  0  0
   10.4677  -19.4056   25.6781 O   0  0  0  0  0  0  0  0  0  0  0  0
  2  1  1  0
  3  2  1  0
  4  3  1  0
  4  5  1  0
  5  7  1  0
  5  6  1  1
  7 14  1  0
  8  7  2  0
 10  9  1  0
 11 10  1  0
 13 12  1  1
 12 11  1  0
 14 13  1  0
 15 17  1  0
 15 13  1  0
 16 15  2  0
 18 17  1  0
 18 24  1  0
 18 19  1  1
 20 19  1  0
 21 20  1  0
 22 21  1  0
 23 22  1  0
 24 25  1  0
 26 24  2  0
M  END
$$$$
