MMK.pdb
     RDKit          3D

 26 25  0  0  1  0  0  0  0  0999 V2000
    8.6659  -11.7221   19.0492 C   0  0  0  0  0  0  0  0  0  0  0  0
    7.1023  -12.4626   19.5887 S   0  0  0  0  0  0  0  0  0  0  0  0
    7.3727  -13.9000   20.6418 C   0  0  0  0  0  0  0  0  0  0  0  0
    8.5294  -14.6917   20.0747 C   0  0  0  0  0  0  0  0  0  0  0  0
    8.7651  -15.9627   20.8914 C   0  0  2  0  0  0  0  0  0  0  0  0
    7.4269  -16.5562   21.0288 N   0  0  0  0  0  0  0  0  0  0  0  0
    9.2328  -15.6281   22.2541 C   0  0  0  0  0  0  0  0  0  0  0  0
   10.4190  -15.3211   22.4657 O   0  0  0  0  0  0  0  0  0  0  0  0
    5.9970  -12.0138   26.6524 C   0  0  0  0  0  0  0  0  0  0  0  0
    7.5643  -12.4408   27.4649 S   0  0  0  0  0  0  0  0  0  0  0  0
    8.3088  -13.9219   26.7898 C   0  0  0  0  0  0  0  0  0  0  0  0
    7.9264  -14.2608   25.4006 C   0  0  0  0  0  0  0  0  0  0  0  0
    8.7521  -15.2890   24.7028 C   0  0  2  0  0  0  0  0  0  0  0  0
    8.3381  -15.6431   23.3873 N   0  0  0  0  0  0  0  0  0  0  0  0
    8.9881  -16.4922   25.5692 C   0  0  0  0  0  0  0  0  0  0  0  0
    8.0282  -17.1732   26.0156 O   0  0  0  0  0  0  0  0  0  0  0  0
   10.2892  -16.9258   25.9299 N   0  0  0  0  0  0  0  0  0  0  0  0
   10.5514  -18.2322   26.5327 C   0  0  1  0  0  0  0  0  0  0  0  0
   11.8577  -18.7836   26.0923 C   0  0  0  0  0  0  0  0  0  0  0  0
   12.1429  -20.0963   26.7651 C   0  0  0  0  0  0  0  0  0  0  0  0
   13.5204  -20.6133   26.2968 C   0  0  0  0  0  0  0  0  0  0  0  0
   13.7721  -21.9239   27.0089 C   0  0  0  0  0  0  0  0  0  0  0  0
   15.0697  -22.4527   26.6906 N   0  0  0  0  0  0  0  0  0  0  0  0
   10.5377  -18.0485   27.9979 C   0  0  0  0  0  0  0  0  0  0  0  0
   10.9873  -16.8183   28.5231 O   0  0  0  0  0  0  0  0  0  0  0  0
   10.1654  -18.8755   28.8475 O   0  0  0  0  0  0  0  0  0  0  0  0
  2  1  1  0
  3  2  1  0
  4  3  1  0
  4  5  1  0
  5  7  1  0
  5  6  1  1
  7 14  1  0
  8  7  2  0
 10  9  1  0
 11 10  1  0
 13 12  1  1
 12 11  1  0
 14 13  1  0
 15 17  1  0
 15 13  1  0
 16 15  2  0
 18 17  1  0
 18 24  1  0
 18 19  1  6
 20 19  1  0
 21 20  1  0
 22 21  1  0
 23 22  1  0
 24 25  1  0
 26 24  2  0
M  END
$$$$
