MMK.pdb
     RDKit          3D

 26 25  0  0  1  0  0  0  0  0999 V2000
    7.3755  -11.0628   26.6759 C   0  0  0  0  0  0  0  0  0  0  0  0
    6.3316  -12.1244   27.7091 S   0  0  0  0  0  0  0  0  0  0  0  0
    5.8235  -13.6159   26.8341 C   0  0  0  0  0  0  0  0  0  0  0  0
    7.0270  -14.1712   26.1065 C   0  0  0  0  0  0  0  0  0  0  0  0
    6.6321  -15.3765   25.2524 C   0  0  2  0  0  0  0  0  0  0  0  0
    6.3947  -16.4488   26.2300 N   0  0  0  0  0  0  0  0  0  0  0  0
    7.7637  -15.8072   24.4029 C   0  0  0  0  0  0  0  0  0  0  0  0
    8.3964  -16.8465   24.6591 O   0  0  0  0  0  0  0  0  0  0  0  0
    6.7887  -12.2600   18.5467 C   0  0  0  0  0  0  0  0  0  0  0  0
    8.3189  -13.0879   19.0679 S   0  0  0  0  0  0  0  0  0  0  0  0
    8.0991  -14.0754   20.5444 C   0  0  0  0  0  0  0  0  0  0  0  0
    9.3192  -14.7247   21.0742 C   0  0  0  0  0  0  0  0  0  0  0  0
    9.1786  -15.4974   22.3426 C   0  0  2  0  0  0  0  0  0  0  0  0
    8.1776  -15.0449   23.2485 N   0  0  0  0  0  0  0  0  0  0  0  0
   10.5046  -15.7048   23.0156 C   0  0  0  0  0  0  0  0  0  0  0  0
   11.0629  -14.7769   23.6571 O   0  0  0  0  0  0  0  0  0  0  0  0
   11.1956  -16.9422   22.9685 N   0  0  0  0  0  0  0  0  0  0  0  0
   12.4656  -17.1684   23.6574 C   0  0  1  0  0  0  0  0  0  0  0  0
   12.6019  -18.5789   24.1006 C   0  0  0  0  0  0  0  0  0  0  0  0
   11.6385  -18.8902   25.2108 C   0  0  0  0  0  0  0  0  0  0  0  0
   11.7492  -20.3882   25.5680 C   0  0  0  0  0  0  0  0  0  0  0  0
   10.8085  -20.6430   26.7249 C   0  0  0  0  0  0  0  0  0  0  0  0
   10.8530  -22.0168   27.1440 N   0  0  0  0  0  0  0  0  0  0  0  0
   13.5446  -16.8194   22.7114 C   0  0  0  0  0  0  0  0  0  0  0  0
   13.2811  -16.9181   21.3285 O   0  0  0  0  0  0  0  0  0  0  0  0
   14.6916  -16.4378   22.9996 O   0  0  0  0  0  0  0  0  0  0  0  0
  2  1  1  0
  3  2  1  0
  4  3  1  0
  4  5  1  0
  5  7  1  0
  5  6  1  1
  7 14  1  0
  8  7  2  0
 10  9  1  0
 11 10  1  0
 13 12  1  6
 12 11  1  0
 14 13  1  0
 15 17  1  0
 15 13  1  0
 16 15  2  0
 18 17  1  0
 18 24  1  0
 18 19  1  6
 20 19  1  0
 21 20  1  0
 22 21  1  0
 23 22  1  0
 24 25  1  0
 26 24  2  0
M  END
$$$$
