TEM.pdb
     RDKit          3D

 25 24  0  0  1  0  0  0  0  0999 V2000
    8.5097  -12.2625   18.4142 C   0  0  0  0  0  0  0  0  0  0  0  0
    8.6436  -13.0981   19.6509 C   0  0  1  0  0  0  0  0  0  0  0  0
    7.8430  -12.5975   20.6773 O   0  0  0  0  0  0  0  0  0  0  0  0
    8.1447  -14.5082   19.3185 C   0  0  2  0  0  0  0  0  0  0  0  0
    6.7319  -14.4576   19.0100 N   0  0  0  0  0  0  0  0  0  0  0  0
    8.3693  -15.4060   20.4751 C   0  0  0  0  0  0  0  0  0  0  0  0
    7.4470  -15.6102   21.3050 O   0  0  0  0  0  0  0  0  0  0  0  0
    9.6113  -16.0583   20.6874 N   0  0  0  0  0  0  0  0  0  0  0  0
    9.7571  -16.9299   21.8345 C   0  0  1  0  0  0  0  0  0  0  0  0
   11.0492  -17.7170   21.7603 C   0  0  0  0  0  0  0  0  0  0  0  0
   11.2737  -18.5824   22.9658 C   0  0  0  0  0  0  0  0  0  0  0  0
   12.4863  -19.4094   22.9056 C   0  0  0  0  0  0  0  0  0  0  0  0
   13.2194  -19.4505   21.8949 O   0  0  0  0  0  0  0  0  0  0  0  0
    9.8395  -16.0794   23.0760 C   0  0  0  0  0  0  0  0  0  0  0  0
   10.5988  -15.0843   23.1106 O   0  0  0  0  0  0  0  0  0  0  0  0
   12.9013  -20.2071   23.9771 O   0  0  0  0  0  0  0  0  0  0  0  0
    6.8858  -11.0420   26.5759 C   0  0  0  0  0  0  0  0  0  0  0  0
    6.2602  -12.7612   26.5560 S   0  0  0  0  0  0  0  0  0  0  0  0
    7.7483  -13.8337   26.6188 C   0  0  0  0  0  0  0  0  0  0  0  0
    7.8185  -14.6975   25.3919 C   0  0  0  0  0  0  0  0  0  0  0  0
    9.0678  -15.5250   25.3641 C   0  0  2  0  0  0  0  0  0  0  0  0
    9.0578  -16.4135   24.1910 N   0  0  0  0  0  0  0  0  0  0  0  0
    9.2124  -16.3365   26.5784 C   0  0  0  0  0  0  0  0  0  0  0  0
    9.1082  -15.7645   27.7153 O   0  0  0  0  0  0  0  0  0  0  0  0
    9.4527  -17.6879   26.6055 O   0  0  0  0  0  0  0  0  0  0  0  0
  2  1  1  6
  2  3  1  0
  4  2  1  0
  4  5  1  1
  6  4  1  0
  6  7  2  0
  8  6  1  0
  9  8  1  0
  9 14  1  0
  9 10  1  6
 11 10  1  0
 12 11  1  0
 13 12  2  0
 14 15  2  0
 14 22  1  0
 16 12  1  0
 18 17  1  0
 19 18  1  0
 20 19  1  0
 21 20  1  1
 22 21  1  0
 23 25  1  0
 23 21  1  0
 24 23  2  0
M  END
$$$$
