TEM.pdb
     RDKit          3D

 25 24  0  0  1  0  0  0  0  0999 V2000
    8.8268  -12.7045   20.3335 C   0  0  0  0  0  0  0  0  0  0  0  0
    7.7910  -13.3451   19.4606 C   0  0  1  0  0  0  0  0  0  0  0  0
    7.5754  -12.5884   18.3090 O   0  0  0  0  0  0  0  0  0  0  0  0
    8.3280  -14.7122   19.0241 C   0  0  2  0  0  0  0  0  0  0  0  0
    7.3621  -15.3537   18.1586 N   0  0  0  0  0  0  0  0  0  0  0  0
    8.5697  -15.5601   20.2144 C   0  0  0  0  0  0  0  0  0  0  0  0
    7.6175  -16.1814   20.7515 O   0  0  0  0  0  0  0  0  0  0  0  0
    9.8614  -15.7016   20.7841 N   0  0  0  0  0  0  0  0  0  0  0  0
   10.0298  -16.5712   21.9296 C   0  0  1  0  0  0  0  0  0  0  0  0
   11.3539  -17.3045   21.8673 C   0  0  0  0  0  0  0  0  0  0  0  0
   11.4120  -18.3070   20.7518 C   0  0  0  0  0  0  0  0  0  0  0  0
   12.5878  -19.1871   20.7835 C   0  0  0  0  0  0  0  0  0  0  0  0
   13.7538  -18.7447   20.8548 O   0  0  0  0  0  0  0  0  0  0  0  0
   10.0634  -15.7232   23.1750 C   0  0  0  0  0  0  0  0  0  0  0  0
   10.2968  -14.4954   23.0971 O   0  0  0  0  0  0  0  0  0  0  0  0
   12.4799  -20.5810   20.7357 O   0  0  0  0  0  0  0  0  0  0  0  0
    6.2836  -11.5543   27.0109 C   0  0  0  0  0  0  0  0  0  0  0  0
    6.7679  -12.5138   25.5303 S   0  0  0  0  0  0  0  0  0  0  0  0
    7.2472  -14.1745   26.1475 C   0  0  0  0  0  0  0  0  0  0  0  0
    7.9160  -14.9613   25.0566 C   0  0  0  0  0  0  0  0  0  0  0  0
    9.2338  -15.5202   25.5008 C   0  0  2  0  0  0  0  0  0  0  0  0
    9.8306  -16.3226   24.4211 N   0  0  0  0  0  0  0  0  0  0  0  0
    9.0963  -16.3564   26.6990 C   0  0  0  0  0  0  0  0  0  0  0  0
    9.0807  -15.7911   27.8440 O   0  0  0  0  0  0  0  0  0  0  0  0
    8.9772  -17.7241   26.7026 O   0  0  0  0  0  0  0  0  0  0  0  0
  2  1  1  1
  2  3  1  0
  4  2  1  0
  4  5  1  6
  6  4  1  0
  6  7  2  0
  8  6  1  0
  9  8  1  0
  9 14  1  0
  9 10  1  6
 11 10  1  0
 12 11  1  0
 13 12  2  0
 14 15  2  0
 14 22  1  0
 16 12  1  0
 18 17  1  0
 19 18  1  0
 20 19  1  0
 21 20  1  6
 22 21  1  0
 23 25  1  0
 23 21  1  0
 24 23  2  0
M  END
$$$$
