TEM.pdb
     RDKit          3D

 25 24  0  0  1  0  0  0  0  0999 V2000
    8.9905  -12.4913   20.1131 C   0  0  0  0  0  0  0  0  0  0  0  0
    7.9467  -13.1000   19.2268 C   0  0  1  0  0  0  0  0  0  0  0  0
    7.8017  -12.3625   18.0519 O   0  0  0  0  0  0  0  0  0  0  0  0
    8.4237  -14.5033   18.8384 C   0  0  2  0  0  0  0  0  0  0  0  0
    7.4715  -15.0991   17.9263 N   0  0  0  0  0  0  0  0  0  0  0  0
    8.5453  -15.3458   20.0506 C   0  0  0  0  0  0  0  0  0  0  0  0
    7.5612  -16.0151   20.4564 O   0  0  0  0  0  0  0  0  0  0  0  0
    9.7551  -15.4286   20.7875 N   0  0  0  0  0  0  0  0  0  0  0  0
    9.8639  -16.4105   21.8462 C   0  0  1  0  0  0  0  0  0  0  0  0
   11.1133  -17.2515   21.6832 C   0  0  0  0  0  0  0  0  0  0  0  0
   11.2762  -18.2693   22.7741 C   0  0  0  0  0  0  0  0  0  0  0  0
   12.4644  -19.1226   22.6396 C   0  0  0  0  0  0  0  0  0  0  0  0
   12.4724  -20.1533   21.9338 O   0  0  0  0  0  0  0  0  0  0  0  0
    9.9988  -15.6859   23.1608 C   0  0  0  0  0  0  0  0  0  0  0  0
   10.7776  -14.7112   23.2678 O   0  0  0  0  0  0  0  0  0  0  0  0
   13.6676  -18.8375   23.2937 O   0  0  0  0  0  0  0  0  0  0  0  0
    5.6083  -12.6785   26.1798 C   0  0  0  0  0  0  0  0  0  0  0  0
    7.2100  -12.2086   26.9290 S   0  0  0  0  0  0  0  0  0  0  0  0
    8.1915  -13.7568   27.0187 C   0  0  0  0  0  0  0  0  0  0  0  0
    8.1731  -14.4615   25.6922 C   0  0  0  0  0  0  0  0  0  0  0  0
    9.3488  -15.3771   25.5315 C   0  0  2  0  0  0  0  0  0  0  0  0
    9.2438  -16.1140   24.2621 N   0  0  0  0  0  0  0  0  0  0  0  0
    9.4475  -16.3380   26.6364 C   0  0  0  0  0  0  0  0  0  0  0  0
    9.1652  -17.5630   26.4121 O   0  0  0  0  0  0  0  0  0  0  0  0
    9.8273  -16.0344   27.9203 O   0  0  0  0  0  0  0  0  0  0  0  0
  2  1  1  1
  2  3  1  0
  4  2  1  0
  4  5  1  6
  6  4  1  0
  6  7  2  0
  8  6  1  0
  9  8  1  0
  9 14  1  0
  9 10  1  6
 11 10  1  0
 12 11  1  0
 13 12  2  0
 14 15  2  0
 14 22  1  0
 16 12  1  0
 18 17  1  0
 19 18  1  0
 20 19  1  0
 21 20  1  1
 22 21  1  0
 23 25  1  0
 23 21  1  0
 24 23  2  0
M  END
$$$$
