TEM.pdb
     RDKit          3D

 25 24  0  0  1  0  0  0  0  0999 V2000
    8.5795  -12.4235   18.4356 C   0  0  0  0  0  0  0  0  0  0  0  0
    8.7332  -13.2686   19.6635 C   0  0  1  0  0  0  0  0  0  0  0  0
    8.0923  -12.6808   20.7539 O   0  0  0  0  0  0  0  0  0  0  0  0
    8.0510  -14.6137   19.3936 C   0  0  2  0  0  0  0  0  0  0  0  0
    6.6746  -14.3859   19.0100 N   0  0  0  0  0  0  0  0  0  0  0  0
    8.0949  -15.4527   20.6136 C   0  0  0  0  0  0  0  0  0  0  0  0
    7.1528  -15.4085   21.4452 O   0  0  0  0  0  0  0  0  0  0  0  0
    9.1820  -16.3229   20.8860 N   0  0  0  0  0  0  0  0  0  0  0  0
    9.1386  -17.1458   22.0767 C   0  0  1  0  0  0  0  0  0  0  0  0
   10.2161  -18.2101   22.0434 C   0  0  0  0  0  0  0  0  0  0  0  0
   11.5976  -17.6447   22.1992 C   0  0  0  0  0  0  0  0  0  0  0  0
   12.6743  -18.6427   22.1481 C   0  0  0  0  0  0  0  0  0  0  0  0
   13.3997  -18.8964   23.1331 O   0  0  0  0  0  0  0  0  0  0  0  0
    9.4274  -16.2752   23.2725 C   0  0  0  0  0  0  0  0  0  0  0  0
   10.2517  -15.3365   23.1861 O   0  0  0  0  0  0  0  0  0  0  0  0
   12.9596  -19.3765   20.9918 O   0  0  0  0  0  0  0  0  0  0  0  0
    7.4620  -10.9431   27.6772 C   0  0  0  0  0  0  0  0  0  0  0  0
    6.9254  -12.1507   26.4119 S   0  0  0  0  0  0  0  0  0  0  0  0
    7.8015  -13.7132   26.8110 C   0  0  0  0  0  0  0  0  0  0  0  0
    7.7211  -14.6649   25.6516 C   0  0  0  0  0  0  0  0  0  0  0  0
    8.9129  -15.5718   25.5918 C   0  0  2  0  0  0  0  0  0  0  0  0
    8.7642  -16.5268   24.4820 N   0  0  0  0  0  0  0  0  0  0  0  0
    9.0958  -16.3163   26.8432 C   0  0  0  0  0  0  0  0  0  0  0  0
    8.9355  -17.5832   26.8331 O   0  0  0  0  0  0  0  0  0  0  0  0
    9.4343  -15.7632   28.0532 O   0  0  0  0  0  0  0  0  0  0  0  0
  2  1  1  6
  2  3  1  0
  4  2  1  0
  4  5  1  1
  6  4  1  0
  6  7  2  0
  8  6  1  0
  9  8  1  0
  9 14  1  0
  9 10  1  6
 11 10  1  0
 12 11  1  0
 13 12  2  0
 14 15  2  0
 14 22  1  0
 16 12  1  0
 18 17  1  0
 19 18  1  0
 20 19  1  0
 21 20  1  1
 22 21  1  0
 23 25  1  0
 23 21  1  0
 24 23  2  0
M  END
$$$$
