TEM.pdb
     RDKit          3D

 25 24  0  0  1  0  0  0  0  0999 V2000
    9.3213  -12.4801   20.0704 C   0  0  0  0  0  0  0  0  0  0  0  0
    7.9470  -12.8905   19.6364 C   0  0  1  0  0  0  0  0  0  0  0  0
    7.5439  -12.1665   18.5146 O   0  0  0  0  0  0  0  0  0  0  0  0
    8.0044  -14.3691   19.2389 C   0  0  2  0  0  0  0  0  0  0  0  0
    6.7375  -14.7603   18.6597 N   0  0  0  0  0  0  0  0  0  0  0  0
    8.2828  -15.1998   20.4333 C   0  0  0  0  0  0  0  0  0  0  0  0
    7.3496  -15.5162   21.2145 O   0  0  0  0  0  0  0  0  0  0  0  0
    9.5895  -15.6622   20.7366 N   0  0  0  0  0  0  0  0  0  0  0  0
    9.7572  -16.6506   21.7815 C   0  0  1  0  0  0  0  0  0  0  0  0
   11.1368  -17.2737   21.7260 C   0  0  0  0  0  0  0  0  0  0  0  0
   11.2653  -18.3079   20.6459 C   0  0  0  0  0  0  0  0  0  0  0  0
   12.6447  -18.5709   20.2144 C   0  0  0  0  0  0  0  0  0  0  0  0
   13.0495  -18.3010   19.0637 O   0  0  0  0  0  0  0  0  0  0  0  0
    9.6477  -15.9606   23.1169 C   0  0  0  0  0  0  0  0  0  0  0  0
   10.1236  -14.8133   23.2759 O   0  0  0  0  0  0  0  0  0  0  0  0
   13.5980  -19.1418   21.0641 O   0  0  0  0  0  0  0  0  0  0  0  0
    7.0135  -11.0693   26.7514 C   0  0  0  0  0  0  0  0  0  0  0  0
    6.4845  -12.7697   26.3318 S   0  0  0  0  0  0  0  0  0  0  0  0
    8.0231  -13.6847   25.9269 C   0  0  0  0  0  0  0  0  0  0  0  0
    7.7031  -15.1097   25.5757 C   0  0  0  0  0  0  0  0  0  0  0  0
    8.9391  -15.9534   25.4909 C   0  0  2  0  0  0  0  0  0  0  0  0
    9.0079  -16.6158   24.1787 N   0  0  0  0  0  0  0  0  0  0  0  0
    8.9770  -16.9737   26.5451 C   0  0  0  0  0  0  0  0  0  0  0  0
    8.7455  -18.1897   26.2315 O   0  0  0  0  0  0  0  0  0  0  0  0
    9.2478  -16.7360   27.8699 O   0  0  0  0  0  0  0  0  0  0  0  0
  2  1  1  6
  2  3  1  0
  4  2  1  0
  4  5  1  1
  6  4  1  0
  6  7  2  0
  8  6  1  0
  9  8  1  0
  9 14  1  0
  9 10  1  6
 11 10  1  0
 12 11  1  0
 13 12  2  0
 14 15  2  0
 14 22  1  0
 16 12  1  0
 18 17  1  0
 19 18  1  0
 20 19  1  0
 21 20  1  6
 22 21  1  0
 23 25  1  0
 23 21  1  0
 24 23  2  0
M  END
$$$$
