TEM.pdb
     RDKit          3D

 25 24  0  0  1  0  0  0  0  0999 V2000
    9.3388  -12.6388   19.7073 C   0  0  0  0  0  0  0  0  0  0  0  0
    8.2920  -13.1559   18.7681 C   0  0  1  0  0  0  0  0  0  0  0  0
    8.3223  -12.4605   17.5595 O   0  0  0  0  0  0  0  0  0  0  0  0
    8.6167  -14.6229   18.4680 C   0  0  2  0  0  0  0  0  0  0  0  0
    7.6429  -15.1497   17.5364 N   0  0  0  0  0  0  0  0  0  0  0  0
    8.5828  -15.4113   19.7215 C   0  0  0  0  0  0  0  0  0  0  0  0
    7.5121  -15.5179   20.3723 O   0  0  0  0  0  0  0  0  0  0  0  0
    9.7362  -16.0649   20.2273 N   0  0  0  0  0  0  0  0  0  0  0  0
    9.6372  -16.7940   21.4745 C   0  0  1  0  0  0  0  0  0  0  0  0
   10.8187  -17.7244   21.6572 C   0  0  0  0  0  0  0  0  0  0  0  0
   10.8158  -18.4140   22.9903 C   0  0  0  0  0  0  0  0  0  0  0  0
   11.9188  -19.3638   23.1879 C   0  0  0  0  0  0  0  0  0  0  0  0
   12.4958  -19.9280   22.2343 O   0  0  0  0  0  0  0  0  0  0  0  0
    9.6841  -15.8069   22.6124 C   0  0  0  0  0  0  0  0  0  0  0  0
   10.4763  -14.8378   22.5757 O   0  0  0  0  0  0  0  0  0  0  0  0
   12.3972  -19.7003   24.4586 O   0  0  0  0  0  0  0  0  0  0  0  0
    6.2212  -11.3587   27.7327 C   0  0  0  0  0  0  0  0  0  0  0  0
    6.0280  -12.5162   26.3291 S   0  0  0  0  0  0  0  0  0  0  0  0
    7.6267  -13.4076   26.1945 C   0  0  0  0  0  0  0  0  0  0  0  0
    7.6262  -14.2957   24.9831 C   0  0  0  0  0  0  0  0  0  0  0  0
    8.9164  -15.0452   24.8415 C   0  0  2  0  0  0  0  0  0  0  0  0
    8.8321  -15.9845   23.7118 N   0  0  0  0  0  0  0  0  0  0  0  0
    9.2513  -15.7909   26.0604 C   0  0  0  0  0  0  0  0  0  0  0  0
    9.1122  -17.0602   26.0616 O   0  0  0  0  0  0  0  0  0  0  0  0
    9.7143  -15.2362   27.2277 O   0  0  0  0  0  0  0  0  0  0  0  0
  2  1  1  1
  2  3  1  0
  4  2  1  0
  4  5  1  6
  6  4  1  0
  6  7  2  0
  8  6  1  0
  9  8  1  0
  9 14  1  0
  9 10  1  1
 11 10  1  0
 12 11  1  0
 13 12  2  0
 14 15  2  0
 14 22  1  0
 16 12  1  0
 18 17  1  0
 19 18  1  0
 20 19  1  0
 21 20  1  1
 22 21  1  0
 23 25  1  0
 23 21  1  0
 24 23  2  0
M  END
$$$$
