TEM.pdb
     RDKit          3D

 25 24  0  0  1  0  0  0  0  0999 V2000
    7.8768  -12.6068   24.3392 C   0  0  0  0  0  0  0  0  0  0  0  0
    6.9766  -13.1876   25.3871 C   0  0  1  0  0  0  0  0  0  0  0  0
    5.9520  -12.2980   25.7097 O   0  0  0  0  0  0  0  0  0  0  0  0
    6.3305  -14.4478   24.8021 C   0  0  2  0  0  0  0  0  0  0  0  0
    5.3186  -14.9362   25.7137 N   0  0  0  0  0  0  0  0  0  0  0  0
    7.3612  -15.4918   24.5976 C   0  0  0  0  0  0  0  0  0  0  0  0
    7.6558  -16.2805   25.5315 O   0  0  0  0  0  0  0  0  0  0  0  0
    8.0434  -15.6397   23.3623 N   0  0  0  0  0  0  0  0  0  0  0  0
    9.0543  -16.6691   23.2398 C   0  0  1  0  0  0  0  0  0  0  0  0
    9.6476  -16.6874   21.8460 C   0  0  0  0  0  0  0  0  0  0  0  0
   10.7316  -17.7134   21.6883 C   0  0  0  0  0  0  0  0  0  0  0  0
   11.2024  -17.8959   20.3088 C   0  0  0  0  0  0  0  0  0  0  0  0
   12.2151  -18.5725   20.0308 O   0  0  0  0  0  0  0  0  0  0  0  0
   10.1827  -16.3486   24.1859 C   0  0  0  0  0  0  0  0  0  0  0  0
   10.8140  -15.2729   24.0748 O   0  0  0  0  0  0  0  0  0  0  0  0
   10.5475  -17.3234   19.2133 O   0  0  0  0  0  0  0  0  0  0  0  0
    9.5995  -12.9578   28.4470 C   0  0  0  0  0  0  0  0  0  0  0  0
    9.9069  -14.4373   29.4784 S   0  0  0  0  0  0  0  0  0  0  0  0
   11.0279  -15.5066   28.4944 C   0  0  0  0  0  0  0  0  0  0  0  0
   10.3427  -15.9596   27.2368 C   0  0  0  0  0  0  0  0  0  0  0  0
   11.2466  -16.7925   26.3790 C   0  0  2  0  0  0  0  0  0  0  0  0
   10.5183  -17.2665   25.1914 N   0  0  0  0  0  0  0  0  0  0  0  0
   11.7779  -17.9497   27.1086 C   0  0  0  0  0  0  0  0  0  0  0  0
   12.5419  -17.7457   28.1113 O   0  0  0  0  0  0  0  0  0  0  0  0
   11.5210  -19.2641   26.8068 O   0  0  0  0  0  0  0  0  0  0  0  0
  2  1  1  6
  2  3  1  0
  4  2  1  0
  4  5  1  1
  6  4  1  0
  6  7  2  0
  8  6  1  0
  9  8  1  0
  9 14  1  0
  9 10  1  6
 11 10  1  0
 12 11  1  0
 13 12  2  0
 14 15  2  0
 14 22  1  0
 16 12  1  0
 18 17  1  0
 19 18  1  0
 20 19  1  0
 21 20  1  1
 22 21  1  0
 23 25  1  0
 23 21  1  0
 24 23  2  0
M  END
$$$$
