TEM.pdb
     RDKit          3D

 25 24  0  0  1  0  0  0  0  0999 V2000
    8.7487  -12.4678   20.7120 C   0  0  0  0  0  0  0  0  0  0  0  0
    7.9700  -12.8820   19.5005 C   0  0  1  0  0  0  0  0  0  0  0  0
    8.1284  -11.9572   18.4686 O   0  0  0  0  0  0  0  0  0  0  0  0
    8.5367  -14.2204   19.0156 C   0  0  2  0  0  0  0  0  0  0  0  0
    7.8471  -14.6255   17.8098 N   0  0  0  0  0  0  0  0  0  0  0  0
    8.3546  -15.2519   20.0630 C   0  0  0  0  0  0  0  0  0  0  0  0
    7.2698  -15.8821   20.1474 O   0  0  0  0  0  0  0  0  0  0  0  0
    9.3785  -15.5630   20.9947 N   0  0  0  0  0  0  0  0  0  0  0  0
    9.1385  -16.5974   21.9791 C   0  0  1  0  0  0  0  0  0  0  0  0
   10.1209  -17.7395   21.8204 C   0  0  0  0  0  0  0  0  0  0  0  0
   11.5249  -17.2696   21.5744 C   0  0  0  0  0  0  0  0  0  0  0  0
   12.4907  -18.3449   21.3120 C   0  0  0  0  0  0  0  0  0  0  0  0
   12.1537  -19.5458   21.2431 O   0  0  0  0  0  0  0  0  0  0  0  0
    9.3680  -16.0169   23.3509 C   0  0  0  0  0  0  0  0  0  0  0  0
   10.3355  -15.2494   23.5581 O   0  0  0  0  0  0  0  0  0  0  0  0
   13.8540  -18.0955   21.1216 O   0  0  0  0  0  0  0  0  0  0  0  0
    6.8911  -10.8300   25.9656 C   0  0  0  0  0  0  0  0  0  0  0  0
    6.4759  -12.5508   26.4281 S   0  0  0  0  0  0  0  0  0  0  0  0
    7.8829  -13.5762   25.8473 C   0  0  0  0  0  0  0  0  0  0  0  0
    7.6889  -15.0070   26.2614 C   0  0  0  0  0  0  0  0  0  0  0  0
    8.7922  -15.8873   25.7571 C   0  0  2  0  0  0  0  0  0  0  0  0
    8.4878  -16.3447   24.3920 N   0  0  0  0  0  0  0  0  0  0  0  0
    8.9953  -17.0568   26.6201 C   0  0  0  0  0  0  0  0  0  0  0  0
    9.3363  -16.8707   27.8366 O   0  0  0  0  0  0  0  0  0  0  0  0
    8.8463  -18.3650   26.2314 O   0  0  0  0  0  0  0  0  0  0  0  0
  2  1  1  1
  2  3  1  0
  4  2  1  0
  4  5  1  6
  6  4  1  0
  6  7  2  0
  8  6  1  0
  9  8  1  0
  9 14  1  0
  9 10  1  6
 11 10  1  0
 12 11  1  0
 13 12  2  0
 14 15  2  0
 14 22  1  0
 16 12  1  0
 18 17  1  0
 19 18  1  0
 20 19  1  0
 21 20  1  1
 22 21  1  0
 23 25  1  0
 23 21  1  0
 24 23  2  0
M  END
$$$$
