MIF.pdb
     RDKit          3D

 28 28  0  0  1  0  0  0  0  0999 V2000
   24.9530  -14.5026  -14.6119 C   0  0  0  0  0  0  0  0  0  0  0  0
   25.4277  -14.9368  -16.3072 S   0  0  0  0  0  0  0  0  0  0  0  0
   26.7276  -16.1721  -16.2167 C   0  0  0  0  0  0  0  0  0  0  0  0
   26.3896  -17.3040  -15.2551 C   0  0  0  0  0  0  0  0  0  0  0  0
   27.5533  -18.2603  -15.2913 C   0  0  2  0  0  0  0  0  0  0  0  0
   27.8162  -18.7410  -16.6301 N   0  0  0  0  0  0  0  0  0  0  0  0
   27.3899  -19.4140  -14.3938 C   0  0  0  0  0  0  0  0  0  0  0  0
   26.6906  -20.3688  -14.7844 O   0  0  0  0  0  0  0  0  0  0  0  0
   31.5095  -21.3899  -11.8409 C   0  0  0  0  0  0  0  0  0  0  0  0
   30.2160  -21.0555  -12.5928 C   0  0  0  0  0  0  0  0  0  0  0  0
   29.0553  -21.0025  -11.6408 C   0  0  2  0  0  0  0  0  0  0  0  0
   28.9082  -22.2326  -10.8040 C   0  0  0  0  0  0  0  0  0  0  0  0
   27.7463  -20.6647  -12.2940 C   0  0  2  0  0  0  0  0  0  0  0  0
   27.9875  -19.4915  -13.1106 N   0  0  0  0  0  0  0  0  0  0  0  0
   26.6538  -20.4191  -11.3145 C   0  0  0  0  0  0  0  0  0  0  0  0
   26.8717  -20.2181  -10.0952 O   0  0  0  0  0  0  0  0  0  0  0  0
   25.3150  -20.4109  -11.7704 N   0  0  0  0  0  0  0  0  0  0  0  0
   24.1903  -20.7799  -10.9165 C   0  0  1  0  0  0  0  0  0  0  0  0
   24.1082  -19.7159   -9.8506 C   0  0  0  0  0  0  0  0  0  0  0  0
   24.9699  -19.9590   -8.6867 C   0  0  0  0  0  0  0  0  0  0  0  0
   25.8920  -19.0392   -8.2121 C   0  0  0  0  0  0  0  0  0  0  0  0
   26.6936  -19.2667   -7.1153 C   0  0  0  0  0  0  0  0  0  0  0  0
   26.5980  -20.4464   -6.4426 C   0  0  0  0  0  0  0  0  0  0  0  0
   25.6895  -21.3818   -6.8912 C   0  0  0  0  0  0  0  0  0  0  0  0
   24.8839  -21.1647   -7.9857 C   0  0  0  0  0  0  0  0  0  0  0  0
   22.9325  -20.8121  -11.6665 C   0  0  0  0  0  0  0  0  0  0  0  0
   21.7554  -21.1924  -11.0389 O   0  0  0  0  0  0  0  0  0  0  0  0
   22.8559  -20.5064  -12.8808 O   0  0  0  0  0  0  0  0  0  0  0  0
  1  2  1  0
  3  2  1  0
  4  3  1  0
  5  6  1  6
  5  4  1  0
  7  8  2  0
  7  5  1  0
 10 11  1  0
 10  9  1  0
 11 12  1  6
 13 14  1  1
 13 11  1  0
 14  7  1  0
 15 13  1  0
 16 15  2  0
 17 15  1  0
 18 17  1  0
 18 19  1  1
 20 19  1  0
 21 20  2  0
 22 21  1  0
 23 22  2  0
 23 24  1  0
 24 25  2  0
 25 20  1  0
 26 27  1  0
 26 18  1  0
 28 26  2  0
M  END
$$$$
