MIF.pdb
     RDKit          3D

 28 28  0  0  1  0  0  0  0  0999 V2000
   23.6079  -15.4061  -14.6227 C   0  0  0  0  0  0  0  0  0  0  0  0
   25.3332  -14.8894  -14.8340 S   0  0  0  0  0  0  0  0  0  0  0  0
   26.3188  -16.3626  -15.1205 C   0  0  0  0  0  0  0  0  0  0  0  0
   26.0778  -17.4383  -14.0694 C   0  0  0  0  0  0  0  0  0  0  0  0
   26.8429  -18.6562  -14.5181 C   0  0  2  0  0  0  0  0  0  0  0  0
   26.2701  -19.2462  -15.7081 N   0  0  0  0  0  0  0  0  0  0  0  0
   26.9553  -19.6913  -13.4792 C   0  0  0  0  0  0  0  0  0  0  0  0
   25.9732  -20.4316  -13.2778 O   0  0  0  0  0  0  0  0  0  0  0  0
   31.1772  -22.9242  -10.4693 C   0  0  0  0  0  0  0  0  0  0  0  0
   29.6928  -22.5914  -10.6592 C   0  0  0  0  0  0  0  0  0  0  0  0
   29.5349  -21.3829  -11.5371 C   0  0  2  0  0  0  0  0  0  0  0  0
   30.4238  -20.2430  -11.1555 C   0  0  0  0  0  0  0  0  0  0  0  0
   28.1169  -20.9076  -11.6704 C   0  0  2  0  0  0  0  0  0  0  0  0
   28.1229  -19.8863  -12.6990 N   0  0  0  0  0  0  0  0  0  0  0  0
   27.5581  -20.3802  -10.3964 C   0  0  0  0  0  0  0  0  0  0  0  0
   28.2433  -19.7165   -9.5812 O   0  0  0  0  0  0  0  0  0  0  0  0
   26.2015  -20.6342  -10.0872 N   0  0  0  0  0  0  0  0  0  0  0  0
   25.7404  -20.9001   -8.7282 C   0  0  1  0  0  0  0  0  0  0  0  0
   26.0321  -19.6503   -7.9358 C   0  0  0  0  0  0  0  0  0  0  0  0
   26.9609  -19.8480   -6.8157 C   0  0  0  0  0  0  0  0  0  0  0  0
   27.0809  -21.0428   -6.1231 C   0  0  0  0  0  0  0  0  0  0  0  0
   27.9585  -21.2280   -5.0779 C   0  0  0  0  0  0  0  0  0  0  0  0
   28.7621  -20.2030   -4.6817 C   0  0  0  0  0  0  0  0  0  0  0  0
   28.6654  -19.0014   -5.3515 C   0  0  0  0  0  0  0  0  0  0  0  0
   27.7922  -18.8058   -6.3971 C   0  0  0  0  0  0  0  0  0  0  0  0
   24.3016  -21.1722   -8.6912 C   0  0  0  0  0  0  0  0  0  0  0  0
   23.5386  -21.0507   -9.8433 O   0  0  0  0  0  0  0  0  0  0  0  0
   23.7010  -21.5194   -7.6459 O   0  0  0  0  0  0  0  0  0  0  0  0
  1  2  1  0
  3  2  1  0
  4  3  1  0
  5  6  1  6
  5  4  1  0
  7  8  2  0
  7  5  1  0
 10 11  1  0
 10  9  1  0
 11 12  1  1
 13 14  1  6
 13 11  1  0
 14  7  1  0
 15 13  1  0
 16 15  2  0
 17 15  1  0
 18 17  1  0
 18 19  1  1
 20 19  1  0
 21 20  2  0
 22 21  1  0
 23 22  2  0
 23 24  1  0
 24 25  2  0
 25 20  1  0
 26 27  1  0
 26 18  1  0
 28 26  2  0
M  END
$$$$
