MIF.pdb
     RDKit          3D

 28 28  0  0  1  0  0  0  0  0999 V2000
   19.4906  -17.4945  -13.2547 C   0  0  0  0  0  0  0  0  0  0  0  0
   19.0254  -16.7029  -14.8184 S   0  0  0  0  0  0  0  0  0  0  0  0
   20.3134  -17.0545  -16.0189 C   0  0  0  0  0  0  0  0  0  0  0  0
   21.4143  -17.9400  -15.4499 C   0  0  0  0  0  0  0  0  0  0  0  0
   22.4934  -18.0114  -16.4989 C   0  0  2  0  0  0  0  0  0  0  0  0
   21.9896  -18.5113  -17.7593 N   0  0  0  0  0  0  0  0  0  0  0  0
   23.6509  -18.8228  -16.0924 C   0  0  0  0  0  0  0  0  0  0  0  0
   23.5482  -20.0635  -16.1482 O   0  0  0  0  0  0  0  0  0  0  0  0
   28.3323  -18.1936  -18.1050 C   0  0  0  0  0  0  0  0  0  0  0  0
   27.0411  -18.6984  -17.4506 C   0  0  0  0  0  0  0  0  0  0  0  0
   27.1753  -18.6935  -15.9545 C   0  0  2  0  0  0  0  0  0  0  0  0
   28.3697  -19.4419  -15.4562 C   0  0  0  0  0  0  0  0  0  0  0  0
   25.9421  -19.1513  -15.2306 C   0  0  2  0  0  0  0  0  0  0  0  0
   24.8730  -18.2630  -15.6419 N   0  0  0  0  0  0  0  0  0  0  0  0
   26.1011  -19.1476  -13.7513 C   0  0  0  0  0  0  0  0  0  0  0  0
   26.2287  -18.0902  -13.0878 O   0  0  0  0  0  0  0  0  0  0  0  0
   26.1094  -20.3820  -13.0609 N   0  0  0  0  0  0  0  0  0  0  0  0
   26.5186  -20.5004  -11.6649 C   0  0  1  0  0  0  0  0  0  0  0  0
   25.4494  -19.8095  -10.8560 C   0  0  0  0  0  0  0  0  0  0  0  0
   25.6938  -19.8075   -9.4080 C   0  0  0  0  0  0  0  0  0  0  0  0
   25.2667  -20.8164   -8.5587 C   0  0  0  0  0  0  0  0  0  0  0  0
   25.5041  -20.8159   -7.2020 C   0  0  0  0  0  0  0  0  0  0  0  0
   26.1907  -19.7848   -6.6373 C   0  0  0  0  0  0  0  0  0  0  0  0
   26.6284  -18.7657   -7.4569 C   0  0  0  0  0  0  0  0  0  0  0  0
   26.3967  -18.7565   -8.8134 C   0  0  0  0  0  0  0  0  0  0  0  0
   26.6119  -21.9015  -11.2480 C   0  0  0  0  0  0  0  0  0  0  0  0
   25.7397  -22.8448  -11.7712 O   0  0  0  0  0  0  0  0  0  0  0  0
   27.4609  -22.3103  -10.4199 O   0  0  0  0  0  0  0  0  0  0  0  0
  1  2  1  0
  3  2  1  0
  4  3  1  0
  5  6  1  6
  5  4  1  0
  7  8  2  0
  7  5  1  0
 10 11  1  0
 10  9  1  0
 11 12  1  6
 13 14  1  1
 13 11  1  0
 14  7  1  0
 15 13  1  0
 16 15  2  0
 17 15  1  0
 18 17  1  0
 18 19  1  1
 20 19  1  0
 21 20  2  0
 22 21  1  0
 23 22  2  0
 23 24  1  0
 24 25  2  0
 25 20  1  0
 26 27  1  0
 26 18  1  0
 28 26  2  0
M  END
$$$$
