MIF.pdb
     RDKit          3D

 28 28  0  0  1  0  0  0  0  0999 V2000
   19.9146  -19.4983  -10.7022 C   0  0  0  0  0  0  0  0  0  0  0  0
   19.4045  -19.3629  -12.4370 S   0  0  0  0  0  0  0  0  0  0  0  0
   20.7274  -20.0255  -13.4541 C   0  0  0  0  0  0  0  0  0  0  0  0
   21.9132  -20.5056  -12.6274 C   0  0  0  0  0  0  0  0  0  0  0  0
   22.9313  -21.0350  -13.6037 C   0  0  2  0  0  0  0  0  0  0  0  0
   22.4469  -22.2002  -14.3108 N   0  0  0  0  0  0  0  0  0  0  0  0
   24.2246  -21.3579  -12.9820 C   0  0  0  0  0  0  0  0  0  0  0  0
   24.3768  -22.4963  -12.4982 O   0  0  0  0  0  0  0  0  0  0  0  0
   29.3112  -21.8595  -12.1728 C   0  0  0  0  0  0  0  0  0  0  0  0
   28.8918  -20.4154  -11.8747 C   0  0  0  0  0  0  0  0  0  0  0  0
   27.6166  -20.0809  -12.5945 C   0  0  2  0  0  0  0  0  0  0  0  0
   27.3979  -18.6135  -12.7786 C   0  0  0  0  0  0  0  0  0  0  0  0
   26.3940  -20.7122  -11.9936 C   0  0  2  0  0  0  0  0  0  0  0  0
   25.3020  -20.4396  -12.9071 N   0  0  0  0  0  0  0  0  0  0  0  0
   26.0887  -20.2049  -10.6287 C   0  0  0  0  0  0  0  0  0  0  0  0
   25.4506  -19.1429  -10.4293 O   0  0  0  0  0  0  0  0  0  0  0  0
   26.5331  -20.9450   -9.5083 N   0  0  0  0  0  0  0  0  0  0  0  0
   26.6095  -20.3736   -8.1675 C   0  0  1  0  0  0  0  0  0  0  0  0
   27.5184  -21.2817   -7.3774 C   0  0  0  0  0  0  0  0  0  0  0  0
   27.9805  -20.7148   -6.1040 C   0  0  0  0  0  0  0  0  0  0  0  0
   29.1890  -20.0522   -5.9553 C   0  0  0  0  0  0  0  0  0  0  0  0
   29.6165  -19.5146   -4.7615 C   0  0  0  0  0  0  0  0  0  0  0  0
   28.8337  -19.6241   -3.6532 C   0  0  0  0  0  0  0  0  0  0  0  0
   27.6253  -20.2785   -3.7697 C   0  0  0  0  0  0  0  0  0  0  0  0
   27.1887  -20.8191   -4.9575 C   0  0  0  0  0  0  0  0  0  0  0  0
   27.1747  -19.0224   -8.1893 C   0  0  0  0  0  0  0  0  0  0  0  0
   28.3217  -18.7576   -8.9233 O   0  0  0  0  0  0  0  0  0  0  0  0
   26.6661  -18.0615   -7.5635 O   0  0  0  0  0  0  0  0  0  0  0  0
  1  2  1  0
  3  2  1  0
  4  3  1  0
  5  6  1  1
  5  4  1  0
  7  8  2  0
  7  5  1  0
 10 11  1  0
 10  9  1  0
 11 12  1  1
 13 14  1  6
 13 11  1  0
 14  7  1  0
 15 13  1  0
 16 15  2  0
 17 15  1  0
 18 17  1  0
 18 19  1  1
 20 19  1  0
 21 20  2  0
 22 21  1  0
 23 22  2  0
 23 24  1  0
 24 25  2  0
 25 20  1  0
 26 27  1  0
 26 18  1  0
 28 26  2  0
M  END
$$$$
