MIF.pdb
     RDKit          3D

 28 28  0  0  1  0  0  0  0  0999 V2000
   19.2933  -14.7012  -14.8991 C   0  0  0  0  0  0  0  0  0  0  0  0
   19.0848  -13.6718  -16.3773 S   0  0  0  0  0  0  0  0  0  0  0  0
   20.5612  -13.8467  -17.3838 C   0  0  0  0  0  0  0  0  0  0  0  0
   21.2404  -15.1965  -17.1922 C   0  0  0  0  0  0  0  0  0  0  0  0
   22.5562  -15.1229  -17.9225 C   0  0  2  0  0  0  0  0  0  0  0  0
   22.3758  -14.8906  -19.3388 N   0  0  0  0  0  0  0  0  0  0  0  0
   23.3947  -16.3171  -17.7380 C   0  0  0  0  0  0  0  0  0  0  0  0
   23.0296  -17.3808  -18.2750 O   0  0  0  0  0  0  0  0  0  0  0  0
   29.0904  -18.0938  -17.3249 C   0  0  0  0  0  0  0  0  0  0  0  0
   27.6243  -18.4909  -17.1172 C   0  0  0  0  0  0  0  0  0  0  0  0
   26.7555  -17.2678  -17.0440 C   0  0  2  0  0  0  0  0  0  0  0  0
   27.2442  -16.2411  -16.0734 C   0  0  0  0  0  0  0  0  0  0  0  0
   25.3053  -17.5646  -16.7927 C   0  0  2  0  0  0  0  0  0  0  0  0
   24.5936  -16.3160  -16.9815 N   0  0  0  0  0  0  0  0  0  0  0  0
   25.0526  -18.1246  -15.4378 C   0  0  0  0  0  0  0  0  0  0  0  0
   25.5625  -17.6383  -14.3994 O   0  0  0  0  0  0  0  0  0  0  0  0
   24.2050  -19.2496  -15.3094 N   0  0  0  0  0  0  0  0  0  0  0  0
   24.2330  -20.1274  -14.1437 C   0  0  1  0  0  0  0  0  0  0  0  0
   23.6363  -19.3336  -13.0084 C   0  0  0  0  0  0  0  0  0  0  0  0
   23.5159  -20.0781  -11.7484 C   0  0  0  0  0  0  0  0  0  0  0  0
   24.5757  -20.2892  -10.8802 C   0  0  0  0  0  0  0  0  0  0  0  0
   24.4582  -20.9813   -9.6952 C   0  0  0  0  0  0  0  0  0  0  0  0
   23.2518  -21.4965   -9.3313 C   0  0  0  0  0  0  0  0  0  0  0  0
   22.1782  -21.3031  -10.1750 C   0  0  0  0  0  0  0  0  0  0  0  0
   22.2846  -20.6132  -11.3610 C   0  0  0  0  0  0  0  0  0  0  0  0
   23.4353  -21.3366  -14.3608 C   0  0  0  0  0  0  0  0  0  0  0  0
   22.4482  -21.3559  -15.3353 O   0  0  0  0  0  0  0  0  0  0  0  0
   23.5982  -22.3881  -13.6962 O   0  0  0  0  0  0  0  0  0  0  0  0
  1  2  1  0
  3  2  1  0
  4  3  1  0
  5  6  1  6
  5  4  1  0
  7  8  2  0
  7  5  1  0
 10 11  1  0
 10  9  1  0
 11 12  1  1
 13 14  1  1
 13 11  1  0
 14  7  1  0
 15 13  1  0
 16 15  2  0
 17 15  1  0
 18 17  1  0
 18 19  1  1
 20 19  1  0
 21 20  2  0
 22 21  1  0
 23 22  2  0
 23 24  1  0
 24 25  2  0
 25 20  1  0
 26 27  1  0
 26 18  1  0
 28 26  2  0
M  END
$$$$
