MIF.pdb
     RDKit          3D

 28 28  0  0  1  0  0  0  0  0999 V2000
   22.0929   -1.6970  -16.6060 C   0  0  0  0  0  0  0  0  0  0  0  0
   21.7466   -2.1305  -18.3324 S   0  0  0  0  0  0  0  0  0  0  0  0
   21.9099   -3.9109  -18.4972 C   0  0  0  0  0  0  0  0  0  0  0  0
   21.1861   -4.6672  -17.3908 C   0  0  0  0  0  0  0  0  0  0  0  0
   21.4211   -6.1331  -17.6477 C   0  0  2  0  0  0  0  0  0  0  0  0
   20.8004   -6.5724  -18.8781 N   0  0  0  0  0  0  0  0  0  0  0  0
   20.9674   -6.9991  -16.5489 C   0  0  0  0  0  0  0  0  0  0  0  0
   19.7803   -7.3785  -16.5507 O   0  0  0  0  0  0  0  0  0  0  0  0
   20.2309  -11.1451  -13.8200 C   0  0  0  0  0  0  0  0  0  0  0  0
   21.5877  -10.5405  -13.4408 C   0  0  0  0  0  0  0  0  0  0  0  0
   22.0252   -9.5442  -14.4762 C   0  0  2  0  0  0  0  0  0  0  0  0
   23.4947   -9.2697  -14.4625 C   0  0  0  0  0  0  0  0  0  0  0  0
   21.2600   -8.2528  -14.4411 C   0  0  2  0  0  0  0  0  0  0  0  0
   21.8126   -7.4212  -15.4919 N   0  0  0  0  0  0  0  0  0  0  0  0
   21.3348   -7.5682  -13.1223 C   0  0  0  0  0  0  0  0  0  0  0  0
   22.4246   -7.2750  -12.5737 O   0  0  0  0  0  0  0  0  0  0  0  0
   20.1330   -7.2326  -12.4564 N   0  0  0  0  0  0  0  0  0  0  0  0
   20.1120   -6.5964  -11.1430 C   0  0  1  0  0  0  0  0  0  0  0  0
   20.1989   -5.1120  -11.3962 C   0  0  0  0  0  0  0  0  0  0  0  0
   19.0192   -4.5421  -12.0593 C   0  0  0  0  0  0  0  0  0  0  0  0
   18.8762   -4.4690  -13.4362 C   0  0  0  0  0  0  0  0  0  0  0  0
   17.7651   -3.9410  -14.0557 C   0  0  0  0  0  0  0  0  0  0  0  0
   16.7385   -3.4581  -13.3033 C   0  0  0  0  0  0  0  0  0  0  0  0
   16.8517   -3.5168  -11.9301 C   0  0  0  0  0  0  0  0  0  0  0  0
   17.9572   -4.0423  -11.3011 C   0  0  0  0  0  0  0  0  0  0  0  0
   18.8726   -6.8928  -10.4207 C   0  0  0  0  0  0  0  0  0  0  0  0
   18.7418   -6.5406   -9.0854 O   0  0  0  0  0  0  0  0  0  0  0  0
   17.8925   -7.4641  -10.9562 O   0  0  0  0  0  0  0  0  0  0  0  0
  1  2  1  0
  3  2  1  0
  4  3  1  0
  5  6  1  6
  5  4  1  0
  7  8  2  0
  7  5  1  0
 10 11  1  0
 10  9  1  0
 11 12  1  1
 13 14  1  6
 13 11  1  0
 14  7  1  0
 15 13  1  0
 16 15  2  0
 17 15  1  0
 18 17  1  0
 18 19  1  6
 20 19  1  0
 21 20  2  0
 22 21  1  0
 23 22  2  0
 23 24  1  0
 24 25  2  0
 25 20  1  0
 26 27  1  0
 26 18  1  0
 28 26  2  0
M  END
$$$$
