MIF.pdb
     RDKit          3D

 28 28  0  0  1  0  0  0  0  0999 V2000
   28.4165  -24.4549  -15.3722 C   0  0  0  0  0  0  0  0  0  0  0  0
   29.5640  -23.6112  -16.4945 S   0  0  0  0  0  0  0  0  0  0  0  0
   28.9379  -21.9526  -16.7787 C   0  0  0  0  0  0  0  0  0  0  0  0
   28.7470  -21.1723  -15.4846 C   0  0  0  0  0  0  0  0  0  0  0  0
   27.2719  -20.8885  -15.3677 C   0  0  2  0  0  0  0  0  0  0  0  0
   26.7802  -20.1143  -16.4862 N   0  0  0  0  0  0  0  0  0  0  0  0
   26.9053  -20.2061  -14.1174 C   0  0  0  0  0  0  0  0  0  0  0  0
   26.7961  -18.9648  -14.1350 O   0  0  0  0  0  0  0  0  0  0  0  0
   21.9152  -20.0857  -12.3966 C   0  0  0  0  0  0  0  0  0  0  0  0
   23.2808  -19.8146  -11.7546 C   0  0  0  0  0  0  0  0  0  0  0  0
   24.3704  -20.4929  -12.5349 C   0  0  2  0  0  0  0  0  0  0  0  0
   24.1045  -21.9390  -12.8055 C   0  0  0  0  0  0  0  0  0  0  0  0
   25.7398  -20.3234  -11.9430 C   0  0  2  0  0  0  0  0  0  0  0  0
   26.6713  -20.8903  -12.8980 N   0  0  0  0  0  0  0  0  0  0  0  0
   25.8813  -20.9690  -10.6101 C   0  0  0  0  0  0  0  0  0  0  0  0
   25.9291  -22.2144  -10.4639 O   0  0  0  0  0  0  0  0  0  0  0  0
   25.9656  -20.1514   -9.4591 N   0  0  0  0  0  0  0  0  0  0  0  0
   26.0472  -20.6991   -8.1087 C   0  0  1  0  0  0  0  0  0  0  0  0
   26.3055  -19.5258   -7.1967 C   0  0  0  0  0  0  0  0  0  0  0  0
   27.4999  -19.6668   -6.3543 C   0  0  0  0  0  0  0  0  0  0  0  0
   28.4728  -18.6864   -6.2360 C   0  0  0  0  0  0  0  0  0  0  0  0
   29.5884  -18.8181   -5.4390 C   0  0  0  0  0  0  0  0  0  0  0  0
   29.7724  -19.9586   -4.7188 C   0  0  0  0  0  0  0  0  0  0  0  0
   28.8215  -20.9526   -4.8161 C   0  0  0  0  0  0  0  0  0  0  0  0
   27.7033  -20.8312   -5.6092 C   0  0  0  0  0  0  0  0  0  0  0  0
   24.7961  -21.3518   -7.7158 C   0  0  0  0  0  0  0  0  0  0  0  0
   24.7900  -22.2920   -6.6958 O   0  0  0  0  0  0  0  0  0  0  0  0
   23.6962  -21.1021   -8.2650 O   0  0  0  0  0  0  0  0  0  0  0  0
  1  2  1  0
  3  2  1  0
  4  3  1  0
  5  6  1  6
  5  4  1  0
  7  8  2  0
  7  5  1  0
 10 11  1  0
 10  9  1  0
 11 12  1  1
 13 14  1  6
 13 11  1  0
 14  7  1  0
 15 13  1  0
 16 15  2  0
 17 15  1  0
 18 17  1  0
 18 19  1  1
 20 19  1  0
 21 20  2  0
 22 21  1  0
 23 22  2  0
 23 24  1  0
 24 25  2  0
 25 20  1  0
 26 27  1  0
 26 18  1  0
 28 26  2  0
M  END
$$$$
