MIF.pdb
     RDKit          3D

 28 28  0  0  1  0  0  0  0  0999 V2000
   21.7449  -14.3874  -13.9654 C   0  0  0  0  0  0  0  0  0  0  0  0
   21.8612  -14.7118  -15.7457 S   0  0  0  0  0  0  0  0  0  0  0  0
   22.4245  -16.4028  -15.9624 C   0  0  0  0  0  0  0  0  0  0  0  0
   22.8268  -17.0560  -14.6466 C   0  0  0  0  0  0  0  0  0  0  0  0
   23.3828  -18.4128  -14.9929 C   0  0  2  0  0  0  0  0  0  0  0  0
   22.5508  -19.1097  -15.9492 N   0  0  0  0  0  0  0  0  0  0  0  0
   23.5881  -19.2769  -13.8205 C   0  0  0  0  0  0  0  0  0  0  0  0
   22.5829  -19.6852  -13.2074 O   0  0  0  0  0  0  0  0  0  0  0  0
   24.9131  -23.7620  -14.5746 C   0  0  0  0  0  0  0  0  0  0  0  0
   24.4276  -22.4290  -13.9935 C   0  0  0  0  0  0  0  0  0  0  0  0
   25.3832  -21.9355  -12.9449 C   0  0  2  0  0  0  0  0  0  0  0  0
   25.7081  -22.9549  -11.9008 C   0  0  0  0  0  0  0  0  0  0  0  0
   24.9634  -20.6488  -12.2950 C   0  0  2  0  0  0  0  0  0  0  0  0
   24.8699  -19.6659  -13.3564 N   0  0  0  0  0  0  0  0  0  0  0  0
   25.9030  -20.2004  -11.2322 C   0  0  0  0  0  0  0  0  0  0  0  0
   27.0718  -19.8173  -11.4808 O   0  0  0  0  0  0  0  0  0  0  0  0
   25.4666  -20.2044   -9.8868 N   0  0  0  0  0  0  0  0  0  0  0  0
   26.3801  -20.3882   -8.7635 C   0  0  1  0  0  0  0  0  0  0  0  0
   26.4431  -19.0587   -8.0541 C   0  0  0  0  0  0  0  0  0  0  0  0
   27.3478  -19.0332   -6.8976 C   0  0  0  0  0  0  0  0  0  0  0  0
   27.2223  -19.8826   -5.8093 C   0  0  0  0  0  0  0  0  0  0  0  0
   28.0770  -19.8618   -4.7294 C   0  0  0  0  0  0  0  0  0  0  0  0
   29.1070  -18.9722   -4.7009 C   0  0  0  0  0  0  0  0  0  0  0  0
   29.2575  -18.1135   -5.7695 C   0  0  0  0  0  0  0  0  0  0  0  0
   28.4095  -18.1260   -6.8533 C   0  0  0  0  0  0  0  0  0  0  0  0
   25.8925  -21.4103   -7.8345 C   0  0  0  0  0  0  0  0  0  0  0  0
   26.7774  -22.0658   -6.9909 O   0  0  0  0  0  0  0  0  0  0  0  0
   24.6839  -21.7373   -7.7552 O   0  0  0  0  0  0  0  0  0  0  0  0
  1  2  1  0
  3  2  1  0
  4  3  1  0
  5  6  1  6
  5  4  1  0
  7  8  2  0
  7  5  1  0
 10 11  1  0
 10  9  1  0
 11 12  1  1
 13 14  1  6
 13 11  1  0
 14  7  1  0
 15 13  1  0
 16 15  2  0
 17 15  1  0
 18 17  1  0
 18 19  1  1
 20 19  1  0
 21 20  2  0
 22 21  1  0
 23 22  2  0
 23 24  1  0
 24 25  2  0
 25 20  1  0
 26 27  1  0
 26 18  1  0
 28 26  2  0
M  END
$$$$
