MIF.pdb
     RDKit          3D

 28 28  0  0  1  0  0  0  0  0999 V2000
   19.4826  -21.6061  -11.4624 C   0  0  0  0  0  0  0  0  0  0  0  0
   19.0894  -20.5592  -12.8899 S   0  0  0  0  0  0  0  0  0  0  0  0
   20.6301  -19.8901  -13.5240 C   0  0  0  0  0  0  0  0  0  0  0  0
   21.8505  -20.4736  -12.8239 C   0  0  0  0  0  0  0  0  0  0  0  0
   23.0540  -19.7843  -13.4127 C   0  0  2  0  0  0  0  0  0  0  0  0
   22.8848  -19.5128  -14.8234 N   0  0  0  0  0  0  0  0  0  0  0  0
   24.3076  -20.5283  -13.2172 C   0  0  0  0  0  0  0  0  0  0  0  0
   24.3918  -21.6754  -13.6970 O   0  0  0  0  0  0  0  0  0  0  0  0
   28.6455  -18.4138  -14.7223 C   0  0  0  0  0  0  0  0  0  0  0  0
   27.5144  -19.3694  -14.3254 C   0  0  0  0  0  0  0  0  0  0  0  0
   27.7419  -19.9040  -12.9402 C   0  0  2  0  0  0  0  0  0  0  0  0
   29.0619  -20.5846  -12.7683 C   0  0  0  0  0  0  0  0  0  0  0  0
   26.6373  -20.7891  -12.4395 C   0  0  2  0  0  0  0  0  0  0  0  0
   25.4203  -20.0049  -12.5117 N   0  0  0  0  0  0  0  0  0  0  0  0
   26.8718  -21.2864  -11.0571 C   0  0  0  0  0  0  0  0  0  0  0  0
   27.8400  -22.0276  -10.7605 O   0  0  0  0  0  0  0  0  0  0  0  0
   25.9710  -20.9119  -10.0331 N   0  0  0  0  0  0  0  0  0  0  0  0
   26.2954  -21.0350   -8.6154 C   0  0  1  0  0  0  0  0  0  0  0  0
   27.4607  -20.1090   -8.3713 C   0  0  0  0  0  0  0  0  0  0  0  0
   27.8946  -20.0403   -6.9701 C   0  0  0  0  0  0  0  0  0  0  0  0
   28.7211  -20.9826   -6.3780 C   0  0  0  0  0  0  0  0  0  0  0  0
   29.1329  -20.9116   -5.0656 C   0  0  0  0  0  0  0  0  0  0  0  0
   28.7231  -19.8743   -4.2850 C   0  0  0  0  0  0  0  0  0  0  0  0
   27.8997  -18.9208   -4.8459 C   0  0  0  0  0  0  0  0  0  0  0  0
   27.4825  -18.9821   -6.1559 C   0  0  0  0  0  0  0  0  0  0  0  0
   25.1705  -20.6316   -7.7685 C   0  0  0  0  0  0  0  0  0  0  0  0
   25.0523  -21.1321   -6.4801 O   0  0  0  0  0  0  0  0  0  0  0  0
   24.2805  -19.8352   -8.1525 O   0  0  0  0  0  0  0  0  0  0  0  0
  1  2  1  0
  3  2  1  0
  4  3  1  0
  5  6  1  6
  5  4  1  0
  7  8  2  0
  7  5  1  0
 10 11  1  0
 10  9  1  0
 11 12  1  6
 13 14  1  1
 13 11  1  0
 14  7  1  0
 15 13  1  0
 16 15  2  0
 17 15  1  0
 18 17  1  0
 18 19  1  1
 20 19  1  0
 21 20  2  0
 22 21  1  0
 23 22  2  0
 23 24  1  0
 24 25  2  0
 25 20  1  0
 26 27  1  0
 26 18  1  0
 28 26  2  0
M  END
$$$$
