MIF.pdb
     RDKit          3D

 28 28  0  0  1  0  0  0  0  0999 V2000
   28.0691  -25.9591  -15.9365 C   0  0  0  0  0  0  0  0  0  0  0  0
   29.5357  -25.1983  -16.6837 S   0  0  0  0  0  0  0  0  0  0  0  0
   29.0584  -23.5886  -17.3198 C   0  0  0  0  0  0  0  0  0  0  0  0
   27.9775  -22.9258  -16.4758 C   0  0  0  0  0  0  0  0  0  0  0  0
   27.6655  -21.6076  -17.1353 C   0  0  2  0  0  0  0  0  0  0  0  0
   28.8252  -20.7450  -17.1942 N   0  0  0  0  0  0  0  0  0  0  0  0
   26.5613  -20.8791  -16.4923 C   0  0  0  0  0  0  0  0  0  0  0  0
   26.7739  -20.3454  -15.3864 O   0  0  0  0  0  0  0  0  0  0  0  0
   24.2497  -17.0438  -18.8361 C   0  0  0  0  0  0  0  0  0  0  0  0
   24.8293  -18.0284  -17.8139 C   0  0  0  0  0  0  0  0  0  0  0  0
   23.7591  -18.9573  -17.3160 C   0  0  2  0  0  0  0  0  0  0  0  0
   22.5748  -18.2532  -16.7358 C   0  0  0  0  0  0  0  0  0  0  0  0
   24.2561  -20.0025  -16.3595 C   0  0  2  0  0  0  0  0  0  0  0  0
   25.2718  -20.7557  -17.0681 N   0  0  0  0  0  0  0  0  0  0  0  0
   23.1760  -20.8971  -15.8629 C   0  0  0  0  0  0  0  0  0  0  0  0
   22.6707  -21.8031  -16.5689 O   0  0  0  0  0  0  0  0  0  0  0  0
   22.6962  -20.7236  -14.5437 N   0  0  0  0  0  0  0  0  0  0  0  0
   21.5577  -21.4688  -14.0158 C   0  0  1  0  0  0  0  0  0  0  0  0
   21.5002  -21.1553  -12.5416 C   0  0  0  0  0  0  0  0  0  0  0  0
   20.7972  -19.9079  -12.2162 C   0  0  0  0  0  0  0  0  0  0  0  0
   19.4866  -19.8631  -11.7668 C   0  0  0  0  0  0  0  0  0  0  0  0
   18.8320  -18.6921  -11.4548 C   0  0  0  0  0  0  0  0  0  0  0  0
   19.4796  -17.5017  -11.5847 C   0  0  0  0  0  0  0  0  0  0  0  0
   20.7848  -17.5139  -12.0301 C   0  0  0  0  0  0  0  0  0  0  0  0
   21.4480  -18.6781  -12.3444 C   0  0  0  0  0  0  0  0  0  0  0  0
   20.3031  -21.0548  -14.6483 C   0  0  0  0  0  0  0  0  0  0  0  0
   19.1947  -21.8881  -14.6113 O   0  0  0  0  0  0  0  0  0  0  0  0
   20.1687  -19.9566  -15.2397 O   0  0  0  0  0  0  0  0  0  0  0  0
  1  2  1  0
  3  2  1  0
  4  3  1  0
  5  6  1  1
  5  4  1  0
  7  8  2  0
  7  5  1  0
 10 11  1  0
 10  9  1  0
 11 12  1  1
 13 14  1  6
 13 11  1  0
 14  7  1  0
 15 13  1  0
 16 15  2  0
 17 15  1  0
 18 17  1  0
 18 19  1  1
 20 19  1  0
 21 20  2  0
 22 21  1  0
 23 22  2  0
 23 24  1  0
 24 25  2  0
 25 20  1  0
 26 27  1  0
 26 18  1  0
 28 26  2  0
M  END
$$$$
