MIF.pdb
     RDKit          3D

 28 28  0  0  1  0  0  0  0  0999 V2000
   24.3612  -31.1537  -19.7213 C   0  0  0  0  0  0  0  0  0  0  0  0
   26.1156  -30.9306  -20.1221 S   0  0  0  0  0  0  0  0  0  0  0  0
   27.0614  -31.1805  -18.6166 C   0  0  0  0  0  0  0  0  0  0  0  0
   26.6723  -30.2030  -17.5152 C   0  0  0  0  0  0  0  0  0  0  0  0
   27.8388  -29.2654  -17.3412 C   0  0  2  0  0  0  0  0  0  0  0  0
   28.9126  -29.8731  -16.5863 N   0  0  0  0  0  0  0  0  0  0  0  0
   27.4734  -27.9891  -16.7080 C   0  0  0  0  0  0  0  0  0  0  0  0
   27.5323  -27.9108  -15.4656 O   0  0  0  0  0  0  0  0  0  0  0  0
   29.4594  -23.4983  -18.3256 C   0  0  0  0  0  0  0  0  0  0  0  0
   28.8618  -24.5456  -17.3788 C   0  0  0  0  0  0  0  0  0  0  0  0
   27.3613  -24.5048  -17.4325 C   0  0  2  0  0  0  0  0  0  0  0  0
   26.7791  -23.2051  -16.9777 C   0  0  0  0  0  0  0  0  0  0  0  0
   26.6948  -25.6452  -16.7187 C   0  0  2  0  0  0  0  0  0  0  0  0
   27.0590  -26.8483  -17.4406 N   0  0  0  0  0  0  0  0  0  0  0  0
   25.2166  -25.4967  -16.6383 C   0  0  0  0  0  0  0  0  0  0  0  0
   24.4712  -25.5997  -17.6426 O   0  0  0  0  0  0  0  0  0  0  0  0
   24.6230  -25.2287  -15.3828 N   0  0  0  0  0  0  0  0  0  0  0  0
   23.1882  -25.0172  -15.2195 C   0  0  1  0  0  0  0  0  0  0  0  0
   22.9409  -24.9583  -13.7328 C   0  0  0  0  0  0  0  0  0  0  0  0
   21.5414  -24.7124  -13.3624 C   0  0  0  0  0  0  0  0  0  0  0  0
   20.5689  -25.7001  -13.3481 C   0  0  0  0  0  0  0  0  0  0  0  0
   19.2585  -25.4684  -12.9927 C   0  0  0  0  0  0  0  0  0  0  0  0
   18.8686  -24.2148  -12.6324 C   0  0  0  0  0  0  0  0  0  0  0  0
   19.8138  -23.2106  -12.6372 C   0  0  0  0  0  0  0  0  0  0  0  0
   21.1255  -23.4314  -12.9904 C   0  0  0  0  0  0  0  0  0  0  0  0
   22.7561  -23.7590  -15.8326 C   0  0  0  0  0  0  0  0  0  0  0  0
   21.5173  -23.6734  -16.4510 O   0  0  0  0  0  0  0  0  0  0  0  0
   23.4630  -22.7227  -15.8308 O   0  0  0  0  0  0  0  0  0  0  0  0
  1  2  1  0
  3  2  1  0
  4  3  1  0
  5  6  1  1
  5  4  1  0
  7  8  2  0
  7  5  1  0
 10 11  1  0
 10  9  1  0
 11 12  1  1
 13 14  1  6
 13 11  1  0
 14  7  1  0
 15 13  1  0
 16 15  2  0
 17 15  1  0
 18 17  1  0
 18 19  1  1
 20 19  1  0
 21 20  2  0
 22 21  1  0
 23 22  2  0
 23 24  1  0
 24 25  2  0
 25 20  1  0
 26 27  1  0
 26 18  1  0
 28 26  2  0
M  END
$$$$
