MIF.pdb
     RDKit          3D

 28 28  0  0  1  0  0  0  0  0999 V2000
   22.2323  -14.3184  -14.5508 C   0  0  0  0  0  0  0  0  0  0  0  0
   23.6095  -13.3373  -15.2057 S   0  0  0  0  0  0  0  0  0  0  0  0
   24.8195  -14.4735  -15.8903 C   0  0  0  0  0  0  0  0  0  0  0  0
   24.5704  -15.9150  -15.4660 C   0  0  0  0  0  0  0  0  0  0  0  0
   25.6137  -16.7529  -16.1584 C   0  0  2  0  0  0  0  0  0  0  0  0
   25.4942  -16.6836  -17.5983 N   0  0  0  0  0  0  0  0  0  0  0  0
   25.5977  -18.1646  -15.7459 C   0  0  0  0  0  0  0  0  0  0  0  0
   24.6742  -18.8893  -16.1645 O   0  0  0  0  0  0  0  0  0  0  0  0
   29.0751  -19.8003  -16.5869 C   0  0  0  0  0  0  0  0  0  0  0  0
   28.1241  -20.9245  -16.1602 C   0  0  0  0  0  0  0  0  0  0  0  0
   27.7565  -20.7780  -14.7112 C   0  0  2  0  0  0  0  0  0  0  0  0
   27.8336  -22.0563  -13.9398 C   0  0  0  0  0  0  0  0  0  0  0  0
   26.4270  -20.1188  -14.4834 C   0  0  2  0  0  0  0  0  0  0  0  0
   26.5786  -18.7381  -14.8982 N   0  0  0  0  0  0  0  0  0  0  0  0
   25.9693  -20.2054  -13.0704 C   0  0  0  0  0  0  0  0  0  0  0  0
   26.7521  -20.0817  -12.0975 O   0  0  0  0  0  0  0  0  0  0  0  0
   24.5988  -20.4363  -12.8079 N   0  0  0  0  0  0  0  0  0  0  0  0
   24.1028  -20.8135  -11.4881 C   0  0  1  0  0  0  0  0  0  0  0  0
   24.2590  -19.5915  -10.6179 C   0  0  0  0  0  0  0  0  0  0  0  0
   25.0869  -19.8022   -9.4235 C   0  0  0  0  0  0  0  0  0  0  0  0
   24.9286  -20.8773   -8.5629 C   0  0  0  0  0  0  0  0  0  0  0  0
   25.7116  -21.0767   -7.4474 C   0  0  0  0  0  0  0  0  0  0  0  0
   26.6996  -20.1890   -7.1489 C   0  0  0  0  0  0  0  0  0  0  0  0
   26.8813  -19.1086   -7.9865 C   0  0  0  0  0  0  0  0  0  0  0  0
   26.1048  -18.9001   -9.1035 C   0  0  0  0  0  0  0  0  0  0  0  0
   22.6902  -21.1984  -11.5335 C   0  0  0  0  0  0  0  0  0  0  0  0
   21.9980  -21.1722  -12.7354 O   0  0  0  0  0  0  0  0  0  0  0  0
   22.0504  -21.5614  -10.5172 O   0  0  0  0  0  0  0  0  0  0  0  0
  1  2  1  0
  3  2  1  0
  4  3  1  0
  5  6  1  6
  5  4  1  0
  7  8  2  0
  7  5  1  0
 10 11  1  0
 10  9  1  0
 11 12  1  6
 13 14  1  1
 13 11  1  0
 14  7  1  0
 15 13  1  0
 16 15  2  0
 17 15  1  0
 18 17  1  0
 18 19  1  1
 20 19  1  0
 21 20  2  0
 22 21  1  0
 23 22  2  0
 23 24  1  0
 24 25  2  0
 25 20  1  0
 26 27  1  0
 26 18  1  0
 28 26  2  0
M  END
$$$$
