HVD.pdb
     RDKit          3D

 26 26  0  0  1  0  0  0  0  0999 V2000
    9.2511  -17.0765   16.0262 N   0  0  0  0  0  0  0  0  0  0  0  0
    8.3444  -17.0316   17.1433 C   0  0  1  0  0  0  0  0  0  0  0  0
    7.8751  -18.4429   17.5171 C   0  0  0  0  0  0  0  0  0  0  0  0
    6.8207  -18.8391   16.5713 C   0  0  0  0  0  0  0  0  0  0  0  0
    6.3445  -18.1284   15.4659 C   0  0  0  0  0  0  0  0  0  0  0  0
    5.3833  -18.8564   14.8857 N   0  0  0  0  0  0  0  0  0  0  0  0
    5.2376  -19.9959   15.5835 C   0  0  0  0  0  0  0  0  0  0  0  0
    6.1158  -19.9854   16.6133 N   0  0  0  0  0  0  0  0  0  0  0  0
    8.9340  -16.3268   18.3040 C   0  0  0  0  0  0  0  0  0  0  0  0
   10.1675  -16.4455   18.5900 O   0  0  0  0  0  0  0  0  0  0  0  0
    7.5834  -12.6321   19.6623 C   0  0  0  0  0  0  0  0  0  0  0  0
    7.9648  -13.5948   20.7332 C   0  0  1  0  0  0  0  0  0  0  0  0
    6.6837  -14.1193   21.3530 C   0  0  0  0  0  0  0  0  0  0  0  0
    8.8124  -14.7389   20.2668 C   0  0  2  0  0  0  0  0  0  0  0  0
    8.1972  -15.4757   19.1823 N   0  0  0  0  0  0  0  0  0  0  0  0
    9.2066  -15.6686   21.3333 C   0  0  0  0  0  0  0  0  0  0  0  0
    8.6465  -16.7754   21.5527 O   0  0  0  0  0  0  0  0  0  0  0  0
   10.2860  -15.3335   22.1954 N   0  0  0  0  0  0  0  0  0  0  0  0
   10.7129  -16.2621   23.2947 C   0  0  1  0  0  0  0  0  0  0  0  0
   12.1937  -16.1367   23.4476 C   0  0  0  0  0  0  0  0  0  0  0  0
   12.9719  -17.0867   22.7045 C   0  0  0  0  0  0  0  0  0  0  0  0
   12.4906  -18.0110   22.0330 O   0  0  0  0  0  0  0  0  0  0  0  0
    9.9168  -15.9660   24.4873 C   0  0  0  0  0  0  0  0  0  0  0  0
    9.3436  -14.8815   24.6378 O   0  0  0  0  0  0  0  0  0  0  0  0
   14.3758  -16.9988   22.7118 O   0  0  0  0  0  0  0  0  0  0  0  0
    9.7613  -16.9030   25.5290 O   0  0  0  0  0  0  0  0  0  0  0  0
  2  1  1  6
  3  2  1  0
  4  3  1  0
  5  4  2  0
  6  7  1  0
  6  5  1  0
  7  8  2  0
  8  4  1  0
  9  2  1  0
  9 10  2  0
 12 11  1  6
 12 14  1  0
 12 13  1  0
 14 15  1  6
 15  9  1  0
 16 14  1  0
 17 16  2  0
 18 16  1  0
 19 18  1  0
 19 20  1  1
 20 21  1  0
 21 22  2  0
 23 19  1  0
 24 23  2  0
 25 21  1  0
 26 23  1  0
M  END
$$$$
