HVD.pdb
     RDKit          3D

 26 26  0  0  1  0  0  0  0  0999 V2000
    9.6271  -17.7383   16.4915 N   0  0  0  0  0  0  0  0  0  0  0  0
    8.5509  -17.4713   17.4095 C   0  0  1  0  0  0  0  0  0  0  0  0
    7.9039  -18.7794   17.8807 C   0  0  0  0  0  0  0  0  0  0  0  0
    7.1159  -19.3267   16.7659 C   0  0  0  0  0  0  0  0  0  0  0  0
    6.9025  -18.7634   15.5046 C   0  0  0  0  0  0  0  0  0  0  0  0
    6.1248  -19.5963   14.8031 N   0  0  0  0  0  0  0  0  0  0  0  0
    5.8419  -20.6600   15.5745 C   0  0  0  0  0  0  0  0  0  0  0  0
    6.4474  -20.4953   16.7738 N   0  0  0  0  0  0  0  0  0  0  0  0
    8.9936  -16.6389   18.5508 C   0  0  0  0  0  0  0  0  0  0  0  0
   10.1084  -16.8483   19.1260 O   0  0  0  0  0  0  0  0  0  0  0  0
    6.4195  -13.8532   20.8080 C   0  0  0  0  0  0  0  0  0  0  0  0
    7.8334  -13.5552   20.4451 C   0  0  1  0  0  0  0  0  0  0  0  0
    8.4213  -12.7078   21.5571 C   0  0  0  0  0  0  0  0  0  0  0  0
    8.6857  -14.7669   20.2211 C   0  0  2  0  0  0  0  0  0  0  0  0
    8.2353  -15.5583   19.0949 N   0  0  0  0  0  0  0  0  0  0  0  0
    8.8291  -15.6274   21.4026 C   0  0  0  0  0  0  0  0  0  0  0  0
    7.9632  -16.4591   21.7840 O   0  0  0  0  0  0  0  0  0  0  0  0
   10.0073  -15.5460   22.1936 N   0  0  0  0  0  0  0  0  0  0  0  0
   10.1694  -16.3874   23.4260 C   0  0  1  0  0  0  0  0  0  0  0  0
   11.5445  -16.9708   23.4017 C   0  0  0  0  0  0  0  0  0  0  0  0
   11.7220  -18.0921   22.5232 C   0  0  0  0  0  0  0  0  0  0  0  0
   10.7934  -18.7039   21.9752 O   0  0  0  0  0  0  0  0  0  0  0  0
    9.8401  -15.5678   24.5938 C   0  0  0  0  0  0  0  0  0  0  0  0
    9.3862  -16.0615   25.6318 O   0  0  0  0  0  0  0  0  0  0  0  0
   13.0179  -18.5592   22.2388 O   0  0  0  0  0  0  0  0  0  0  0  0
   10.0235  -14.1700   24.5968 O   0  0  0  0  0  0  0  0  0  0  0  0
  2  1  1  6
  3  2  1  0
  4  3  1  0
  5  4  2  0
  6  7  1  0
  6  5  1  0
  7  8  2  0
  8  4  1  0
  9  2  1  0
  9 10  2  0
 12 11  1  1
 12 14  1  0
 12 13  1  0
 14 15  1  6
 15  9  1  0
 16 14  1  0
 17 16  2  0
 18 16  1  0
 19 18  1  0
 19 20  1  1
 20 21  1  0
 21 22  2  0
 23 19  1  0
 24 23  2  0
 25 21  1  0
 26 23  1  0
M  END
$$$$
