HVD.pdb
     RDKit          3D

 26 26  0  0  1  0  0  0  0  0999 V2000
    8.9373  -17.1830   16.9557 N   0  0  0  0  0  0  0  0  0  0  0  0
    8.2120  -17.3910   18.1816 C   0  0  1  0  0  0  0  0  0  0  0  0
    8.2778  -18.8630   18.6066 C   0  0  0  0  0  0  0  0  0  0  0  0
    7.2790  -19.6089   17.8260 C   0  0  0  0  0  0  0  0  0  0  0  0
    6.3899  -19.1131   16.8682 C   0  0  0  0  0  0  0  0  0  0  0  0
    5.6604  -20.1364   16.4084 N   0  0  0  0  0  0  0  0  0  0  0  0
    6.0569  -21.2547   17.0400 C   0  0  0  0  0  0  0  0  0  0  0  0
    7.0458  -20.9324   17.9061 N   0  0  0  0  0  0  0  0  0  0  0  0
    8.6802  -16.4901   19.2589 C   0  0  0  0  0  0  0  0  0  0  0  0
    9.9205  -16.3145   19.4786 O   0  0  0  0  0  0  0  0  0  0  0  0
    7.6984  -13.0875   22.8086 C   0  0  0  0  0  0  0  0  0  0  0  0
    7.3264  -13.8555   21.5875 C   0  0  1  0  0  0  0  0  0  0  0  0
    7.1957  -12.8643   20.4470 C   0  0  0  0  0  0  0  0  0  0  0  0
    8.2938  -14.9375   21.2156 C   0  0  2  0  0  0  0  0  0  0  0  0
    7.8117  -15.7578   20.1239 N   0  0  0  0  0  0  0  0  0  0  0  0
    8.6953  -15.7961   22.3376 C   0  0  0  0  0  0  0  0  0  0  0  0
    7.9908  -16.7307   22.8034 O   0  0  0  0  0  0  0  0  0  0  0  0
    9.9538  -15.5904   22.9656 N   0  0  0  0  0  0  0  0  0  0  0  0
   10.3467  -16.3761   24.1827 C   0  0  1  0  0  0  0  0  0  0  0  0
   11.8309  -16.2828   24.3255 C   0  0  0  0  0  0  0  0  0  0  0  0
   12.5905  -16.9795   23.3264 C   0  0  0  0  0  0  0  0  0  0  0  0
   12.1589  -17.9298   22.6574 O   0  0  0  0  0  0  0  0  0  0  0  0
    9.5606  -15.8939   25.3199 C   0  0  0  0  0  0  0  0  0  0  0  0
    9.1473  -14.7309   25.3824 O   0  0  0  0  0  0  0  0  0  0  0  0
   13.9152  -16.5902   23.0575 O   0  0  0  0  0  0  0  0  0  0  0  0
    9.2326  -16.7311   26.4056 O   0  0  0  0  0  0  0  0  0  0  0  0
  2  1  1  6
  3  2  1  0
  4  3  1  0
  5  4  2  0
  6  7  1  0
  6  5  1  0
  7  8  2  0
  8  4  1  0
  9  2  1  0
  9 10  2  0
 12 11  1  1
 12 14  1  0
 12 13  1  0
 14 15  1  6
 15  9  1  0
 16 14  1  0
 17 16  2  0
 18 16  1  0
 19 18  1  0
 19 20  1  1
 20 21  1  0
 21 22  2  0
 23 19  1  0
 24 23  2  0
 25 21  1  0
 26 23  1  0
M  END
$$$$
