HVD.pdb
     RDKit          3D

 26 26  0  0  1  0  0  0  0  0999 V2000
    9.3822  -15.5471   20.4818 N   0  0  0  0  0  0  0  0  0  0  0  0
    8.3189  -15.6655   21.4448 C   0  0  1  0  0  0  0  0  0  0  0  0
    7.7669  -17.0960   21.4690 C   0  0  0  0  0  0  0  0  0  0  0  0
    7.1049  -17.3520   20.1807 C   0  0  0  0  0  0  0  0  0  0  0  0
    7.6435  -17.2286   18.8968 C   0  0  0  0  0  0  0  0  0  0  0  0
    6.6939  -17.5593   18.0137 N   0  0  0  0  0  0  0  0  0  0  0  0
    5.5809  -17.8852   18.6930 C   0  0  0  0  0  0  0  0  0  0  0  0
    5.8319  -17.7586   20.0170 N   0  0  0  0  0  0  0  0  0  0  0  0
    8.7428  -15.2209   22.7917 C   0  0  0  0  0  0  0  0  0  0  0  0
    9.8581  -15.5824   23.2844 O   0  0  0  0  0  0  0  0  0  0  0  0
    6.0552  -13.2939   25.7550 C   0  0  0  0  0  0  0  0  0  0  0  0
    7.5014  -12.9752   25.5934 C   0  0  1  0  0  0  0  0  0  0  0  0
    8.0409  -12.5966   26.9593 C   0  0  0  0  0  0  0  0  0  0  0  0
    8.3208  -14.0860   25.0104 C   0  0  2  0  0  0  0  0  0  0  0  0
    7.9646  -14.3722   23.6362 N   0  0  0  0  0  0  0  0  0  0  0  0
    8.2954  -15.3271   25.7953 C   0  0  0  0  0  0  0  0  0  0  0  0
    7.3164  -16.1186   25.8397 O   0  0  0  0  0  0  0  0  0  0  0  0
    9.4302  -15.6940   26.5687 N   0  0  0  0  0  0  0  0  0  0  0  0
    9.4511  -16.9763   27.3484 C   0  0  1  0  0  0  0  0  0  0  0  0
   10.0453  -18.0317   26.4737 C   0  0  0  0  0  0  0  0  0  0  0  0
   11.3456  -17.7324   25.9446 C   0  0  0  0  0  0  0  0  0  0  0  0
   12.2555  -17.1929   26.5910 O   0  0  0  0  0  0  0  0  0  0  0  0
   10.1365  -16.7351   28.6196 C   0  0  0  0  0  0  0  0  0  0  0  0
   10.3319  -17.6397   29.4387 O   0  0  0  0  0  0  0  0  0  0  0  0
   11.6488  -18.0563   24.6097 O   0  0  0  0  0  0  0  0  0  0  0  0
   10.6109  -15.4569   28.9778 O   0  0  0  0  0  0  0  0  0  0  0  0
  2  1  1  6
  3  2  1  0
  4  3  1  0
  5  4  2  0
  6  7  1  0
  6  5  1  0
  7  8  2  0
  8  4  1  0
  9  2  1  0
  9 10  2  0
 12 11  1  1
 12 14  1  0
 12 13  1  0
 14 15  1  6
 15  9  1  0
 16 14  1  0
 17 16  2  0
 18 16  1  0
 19 18  1  0
 19 20  1  6
 20 21  1  0
 21 22  2  0
 23 19  1  0
 24 23  2  0
 25 21  1  0
 26 23  1  0
M  END
$$$$
