HVD.pdb
     RDKit          3D

 26 26  0  0  1  0  0  0  0  0999 V2000
    8.7643  -14.5605   20.5705 N   0  0  0  0  0  0  0  0  0  0  0  0
    8.0661  -15.2427   21.6284 C   0  0  1  0  0  0  0  0  0  0  0  0
    8.2306  -16.7615   21.4944 C   0  0  0  0  0  0  0  0  0  0  0  0
    7.6650  -17.1697   20.1995 C   0  0  0  0  0  0  0  0  0  0  0  0
    6.3174  -17.2704   19.8422 C   0  0  0  0  0  0  0  0  0  0  0  0
    6.2538  -17.6781   18.5693 N   0  0  0  0  0  0  0  0  0  0  0  0
    7.5084  -17.8371   18.1138 C   0  0  0  0  0  0  0  0  0  0  0  0
    8.3706  -17.5265   19.1098 N   0  0  0  0  0  0  0  0  0  0  0  0
    8.4861  -14.7637   22.9647 C   0  0  0  0  0  0  0  0  0  0  0  0
    9.7148  -14.7054   23.2877 O   0  0  0  0  0  0  0  0  0  0  0  0
    7.4591  -12.5051   27.2998 C   0  0  0  0  0  0  0  0  0  0  0  0
    7.0201  -13.0290   25.9761 C   0  0  1  0  0  0  0  0  0  0  0  0
    6.7151  -11.8356   25.0911 C   0  0  0  0  0  0  0  0  0  0  0  0
    8.0144  -13.9243   25.3017 C   0  0  2  0  0  0  0  0  0  0  0  0
    7.5808  -14.3364   23.9828 N   0  0  0  0  0  0  0  0  0  0  0  0
    8.3898  -15.1059   26.0890 C   0  0  0  0  0  0  0  0  0  0  0  0
    7.5994  -16.0406   26.3867 O   0  0  0  0  0  0  0  0  0  0  0  0
    9.7226  -15.2404   26.5644 N   0  0  0  0  0  0  0  0  0  0  0  0
   10.1405  -16.4416   27.3614 C   0  0  1  0  0  0  0  0  0  0  0  0
   11.5307  -16.8009   26.9489 C   0  0  0  0  0  0  0  0  0  0  0  0
   11.7282  -16.9766   25.5381 C   0  0  0  0  0  0  0  0  0  0  0  0
   10.9943  -17.6606   24.8099 O   0  0  0  0  0  0  0  0  0  0  0  0
    9.9486  -16.1452   28.7823 C   0  0  0  0  0  0  0  0  0  0  0  0
    9.7479  -14.9955   29.1888 O   0  0  0  0  0  0  0  0  0  0  0  0
   12.8135  -16.3487   24.9005 O   0  0  0  0  0  0  0  0  0  0  0  0
    9.9825  -17.1562   29.7641 O   0  0  0  0  0  0  0  0  0  0  0  0
  2  1  1  6
  3  2  1  0
  4  3  1  0
  5  4  2  0
  6  7  1  0
  6  5  1  0
  7  8  2  0
  8  4  1  0
  9  2  1  0
  9 10  2  0
 12 11  1  1
 12 14  1  0
 12 13  1  0
 14 15  1  6
 15  9  1  0
 16 14  1  0
 17 16  2  0
 18 16  1  0
 19 18  1  0
 19 20  1  1
 20 21  1  0
 21 22  2  0
 23 19  1  0
 24 23  2  0
 25 21  1  0
 26 23  1  0
M  END
$$$$
