HVD.pdb
     RDKit          3D

 26 26  0  0  1  0  0  0  0  0999 V2000
    7.2763  -14.8148   20.4737 N   0  0  0  0  0  0  0  0  0  0  0  0
    8.6232  -15.2551   20.7268 C   0  0  1  0  0  0  0  0  0  0  0  0
    9.6109  -14.5380   19.7985 C   0  0  0  0  0  0  0  0  0  0  0  0
    8.8795  -14.1102   18.5962 C   0  0  0  0  0  0  0  0  0  0  0  0
    7.6140  -13.5211   18.5227 C   0  0  0  0  0  0  0  0  0  0  0  0
    7.3340  -13.2965   17.2336 N   0  0  0  0  0  0  0  0  0  0  0  0
    8.3739  -13.7213   16.4955 C   0  0  0  0  0  0  0  0  0  0  0  0
    9.3181  -14.2185   17.3280 N   0  0  0  0  0  0  0  0  0  0  0  0
    8.9971  -15.0954   22.1503 C   0  0  0  0  0  0  0  0  0  0  0  0
   10.2034  -15.2219   22.5329 O   0  0  0  0  0  0  0  0  0  0  0  0
    7.3577  -12.3946   24.7066 C   0  0  0  0  0  0  0  0  0  0  0  0
    7.5503  -13.7307   25.3367 C   0  0  1  0  0  0  0  0  0  0  0  0
    6.1815  -14.3666   25.4862 C   0  0  0  0  0  0  0  0  0  0  0  0
    8.4603  -14.6492   24.5795 C   0  0  2  0  0  0  0  0  0  0  0  0
    8.0691  -14.7942   23.1927 N   0  0  0  0  0  0  0  0  0  0  0  0
    8.6175  -15.9761   25.1891 C   0  0  0  0  0  0  0  0  0  0  0  0
    7.7723  -16.9053   25.0938 O   0  0  0  0  0  0  0  0  0  0  0  0
    9.7857  -16.2700   25.9437 N   0  0  0  0  0  0  0  0  0  0  0  0
   10.0264  -17.6476   26.4886 C   0  0  1  0  0  0  0  0  0  0  0  0
   11.2212  -18.2112   25.7908 C   0  0  0  0  0  0  0  0  0  0  0  0
   11.6899  -19.4714   26.2933 C   0  0  0  0  0  0  0  0  0  0  0  0
   10.9953  -20.4956   26.3679 O   0  0  0  0  0  0  0  0  0  0  0  0
   10.1168  -17.5601   27.9474 C   0  0  0  0  0  0  0  0  0  0  0  0
   10.2399  -18.5651   28.6560 O   0  0  0  0  0  0  0  0  0  0  0  0
   13.0178  -19.5958   26.7402 O   0  0  0  0  0  0  0  0  0  0  0  0
   10.0682  -16.3236   28.6226 O   0  0  0  0  0  0  0  0  0  0  0  0
  2  1  1  1
  3  2  1  0
  4  3  1  0
  5  4  2  0
  6  7  1  0
  6  5  1  0
  7  8  2  0
  8  4  1  0
  9  2  1  0
  9 10  2  0
 12 11  1  6
 12 14  1  0
 12 13  1  0
 14 15  1  6
 15  9  1  0
 16 14  1  0
 17 16  2  0
 18 16  1  0
 19 18  1  0
 19 20  1  6
 20 21  1  0
 21 22  2  0
 23 19  1  0
 24 23  2  0
 25 21  1  0
 26 23  1  0
M  END
$$$$
