HVD.pdb
     RDKit          3D

 26 26  0  0  1  0  0  0  0  0999 V2000
    7.6706  -15.6900   19.5769 N   0  0  0  0  0  0  0  0  0  0  0  0
    9.0075  -15.1866   19.7533 C   0  0  1  0  0  0  0  0  0  0  0  0
    9.2162  -13.9059   18.9359 C   0  0  0  0  0  0  0  0  0  0  0  0
    8.7626  -14.1627   17.5606 C   0  0  0  0  0  0  0  0  0  0  0  0
    7.4684  -14.0469   17.0453 C   0  0  0  0  0  0  0  0  0  0  0  0
    7.5054  -14.3780   15.7493 N   0  0  0  0  0  0  0  0  0  0  0  0
    8.7718  -14.6969   15.4311 C   0  0  0  0  0  0  0  0  0  0  0  0
    9.5399  -14.5654   16.5377 N   0  0  0  0  0  0  0  0  0  0  0  0
    9.3356  -14.9820   21.1823 C   0  0  0  0  0  0  0  0  0  0  0  0
   10.4721  -14.5376   21.5404 O   0  0  0  0  0  0  0  0  0  0  0  0
    8.0021  -14.2115   25.8765 C   0  0  0  0  0  0  0  0  0  0  0  0
    7.6843  -14.4345   24.4382 C   0  0  1  0  0  0  0  0  0  0  0  0
    7.3228  -13.0900   23.8367 C   0  0  0  0  0  0  0  0  0  0  0  0
    8.7897  -15.0668   23.6487 C   0  0  2  0  0  0  0  0  0  0  0  0
    8.4362  -15.2554   22.2571 N   0  0  0  0  0  0  0  0  0  0  0  0
    9.2802  -16.3327   24.2090 C   0  0  0  0  0  0  0  0  0  0  0  0
    8.5996  -17.3906   24.2745 O   0  0  0  0  0  0  0  0  0  0  0  0
   10.6041  -16.4095   24.7210 N   0  0  0  0  0  0  0  0  0  0  0  0
   11.1108  -17.6669   25.3653 C   0  0  1  0  0  0  0  0  0  0  0  0
   12.5996  -17.6742   25.2413 C   0  0  0  0  0  0  0  0  0  0  0  0
   13.1073  -17.4931   23.9109 C   0  0  0  0  0  0  0  0  0  0  0  0
   14.0522  -16.7453   23.6197 O   0  0  0  0  0  0  0  0  0  0  0  0
   10.5796  -17.7365   26.7279 C   0  0  0  0  0  0  0  0  0  0  0  0
   10.2535  -18.8090   27.2482 O   0  0  0  0  0  0  0  0  0  0  0  0
   12.5232  -18.1912   22.8385 O   0  0  0  0  0  0  0  0  0  0  0  0
   10.4115  -16.5828   27.5203 O   0  0  0  0  0  0  0  0  0  0  0  0
  2  1  1  1
  3  2  1  0
  4  3  1  0
  5  4  2  0
  6  7  1  0
  6  5  1  0
  7  8  2  0
  8  4  1  0
  9  2  1  0
  9 10  2  0
 12 11  1  1
 12 14  1  0
 12 13  1  0
 14 15  1  6
 15  9  1  0
 16 14  1  0
 17 16  2  0
 18 16  1  0
 19 18  1  0
 19 20  1  1
 20 21  1  0
 21 22  2  0
 23 19  1  0
 24 23  2  0
 25 21  1  0
 26 23  1  0
M  END
$$$$
