HVD.pdb
     RDKit          3D

 26 26  0  0  1  0  0  0  0  0999 V2000
    7.3728  -17.0366   16.5753 N   0  0  0  0  0  0  0  0  0  0  0  0
    8.4346  -17.6038   17.3645 C   0  0  1  0  0  0  0  0  0  0  0  0
    9.5877  -18.0688   16.4669 C   0  0  0  0  0  0  0  0  0  0  0  0
    9.0206  -18.8762   15.3761 C   0  0  0  0  0  0  0  0  0  0  0  0
    8.2538  -20.0406   15.4762 C   0  0  0  0  0  0  0  0  0  0  0  0
    7.9496  -20.4461   14.2377 N   0  0  0  0  0  0  0  0  0  0  0  0
    8.4952  -19.5819   13.3647 C   0  0  0  0  0  0  0  0  0  0  0  0
    9.1496  -18.6228   14.0602 N   0  0  0  0  0  0  0  0  0  0  0  0
    8.9016  -16.6693   18.4134 C   0  0  0  0  0  0  0  0  0  0  0  0
   10.1416  -16.4808   18.6234 O   0  0  0  0  0  0  0  0  0  0  0  0
    7.9109  -13.2716   21.9739 C   0  0  0  0  0  0  0  0  0  0  0  0
    7.4744  -14.1260   20.8343 C   0  0  1  0  0  0  0  0  0  0  0  0
    7.0617  -13.2031   19.7037 C   0  0  0  0  0  0  0  0  0  0  0  0
    8.5110  -15.0940   20.3510 C   0  0  2  0  0  0  0  0  0  0  0  0
    8.0320  -15.9168   19.2598 N   0  0  0  0  0  0  0  0  0  0  0  0
    9.0716  -15.9498   21.4048 C   0  0  0  0  0  0  0  0  0  0  0  0
    8.5134  -16.9890   21.8467 O   0  0  0  0  0  0  0  0  0  0  0  0
   10.3237  -15.6171   21.9896 N   0  0  0  0  0  0  0  0  0  0  0  0
   10.9267  -16.4755   23.0631 C   0  0  1  0  0  0  0  0  0  0  0  0
   12.4055  -16.4978   22.8516 C   0  0  0  0  0  0  0  0  0  0  0  0
   13.1639  -17.1589   23.8754 C   0  0  0  0  0  0  0  0  0  0  0  0
   12.8204  -18.2144   24.4276 O   0  0  0  0  0  0  0  0  0  0  0  0
   10.4715  -15.9800   24.3636 C   0  0  0  0  0  0  0  0  0  0  0  0
   10.1717  -14.7946   24.5428 O   0  0  0  0  0  0  0  0  0  0  0  0
   14.3826  -16.6066   24.3096 O   0  0  0  0  0  0  0  0  0  0  0  0
   10.3507  -16.8294   25.4821 O   0  0  0  0  0  0  0  0  0  0  0  0
  2  1  1  6
  3  2  1  0
  4  3  1  0
  5  4  2  0
  6  7  1  0
  6  5  1  0
  7  8  2  0
  8  4  1  0
  9  2  1  0
  9 10  2  0
 12 11  1  1
 12 14  1  0
 12 13  1  0
 14 15  1  6
 15  9  1  0
 16 14  1  0
 17 16  2  0
 18 16  1  0
 19 18  1  0
 19 20  1  1
 20 21  1  0
 21 22  2  0
 23 19  1  0
 24 23  2  0
 25 21  1  0
 26 23  1  0
M  END
$$$$
