HVD.pdb
     RDKit          3D

 26 26  0  0  1  0  0  0  0  0999 V2000
    9.4233  -13.2646   21.0389 N   0  0  0  0  0  0  0  0  0  0  0  0
    8.3518  -13.8118   21.8291 C   0  0  1  0  0  0  0  0  0  0  0  0
    7.7915  -15.0814   21.1766 C   0  0  0  0  0  0  0  0  0  0  0  0
    7.4289  -14.7596   19.7880 C   0  0  0  0  0  0  0  0  0  0  0  0
    7.6667  -13.5724   19.0895 C   0  0  0  0  0  0  0  0  0  0  0  0
    7.1693  -13.7094   17.8548 N   0  0  0  0  0  0  0  0  0  0  0  0
    6.6290  -14.9357   17.7510 C   0  0  0  0  0  0  0  0  0  0  0  0
    6.7876  -15.5773   18.9322 N   0  0  0  0  0  0  0  0  0  0  0  0
    8.7676  -14.0550   23.2289 C   0  0  0  0  0  0  0  0  0  0  0  0
    9.9304  -14.4899   23.5048 O   0  0  0  0  0  0  0  0  0  0  0  0
    7.7126  -11.6435   26.3316 C   0  0  0  0  0  0  0  0  0  0  0  0
    7.6618  -13.0906   26.6818 C   0  0  1  0  0  0  0  0  0  0  0  0
    6.2009  -13.4916   26.7546 C   0  0  0  0  0  0  0  0  0  0  0  0
    8.3905  -13.9865   25.7272 C   0  0  2  0  0  0  0  0  0  0  0  0
    7.9296  -13.8316   24.3632 N   0  0  0  0  0  0  0  0  0  0  0  0
    8.3648  -15.4074   26.0981 C   0  0  0  0  0  0  0  0  0  0  0  0
    7.3556  -16.1525   25.9835 O   0  0  0  0  0  0  0  0  0  0  0  0
    9.5352  -16.0185   26.6247 N   0  0  0  0  0  0  0  0  0  0  0  0
    9.5205  -17.4479   27.0826 C   0  0  1  0  0  0  0  0  0  0  0  0
   10.7732  -18.0966   26.5910 C   0  0  0  0  0  0  0  0  0  0  0  0
   10.8785  -18.2308   25.1657 C   0  0  0  0  0  0  0  0  0  0  0  0
   10.0293  -17.8209   24.3609 O   0  0  0  0  0  0  0  0  0  0  0  0
    9.3127  -17.4686   28.5317 C   0  0  0  0  0  0  0  0  0  0  0  0
    9.4672  -16.4597   29.2286 O   0  0  0  0  0  0  0  0  0  0  0  0
   12.0030  -18.8623   24.6040 O   0  0  0  0  0  0  0  0  0  0  0  0
    8.9247  -18.6415   29.2106 O   0  0  0  0  0  0  0  0  0  0  0  0
  2  1  1  6
  3  2  1  0
  4  3  1  0
  5  4  2  0
  6  7  1  0
  6  5  1  0
  7  8  2  0
  8  4  1  0
  9  2  1  0
  9 10  2  0
 12 11  1  6
 12 14  1  0
 12 13  1  0
 14 15  1  6
 15  9  1  0
 16 14  1  0
 17 16  2  0
 18 16  1  0
 19 18  1  0
 19 20  1  1
 20 21  1  0
 21 22  2  0
 23 19  1  0
 24 23  2  0
 25 21  1  0
 26 23  1  0
M  END
$$$$
