HVD.pdb
     RDKit          3D

 26 26  0  0  1  0  0  0  0  0999 V2000
    9.2443  -15.0031   20.7537 N   0  0  0  0  0  0  0  0  0  0  0  0
    8.3294  -15.5172   21.7389 C   0  0  1  0  0  0  0  0  0  0  0  0
    8.3610  -17.0502   21.7596 C   0  0  0  0  0  0  0  0  0  0  0  0
    7.8707  -17.5348   20.4604 C   0  0  0  0  0  0  0  0  0  0  0  0
    7.0024  -16.8915   19.5738 C   0  0  0  0  0  0  0  0  0  0  0  0
    6.8221  -17.6898   18.5151 N   0  0  0  0  0  0  0  0  0  0  0  0
    7.5430  -18.8086   18.7025 C   0  0  0  0  0  0  0  0  0  0  0  0
    8.1837  -18.7139   19.8910 N   0  0  0  0  0  0  0  0  0  0  0  0
    8.5869  -14.9475   23.0808 C   0  0  0  0  0  0  0  0  0  0  0  0
    9.7537  -14.9543   23.5868 O   0  0  0  0  0  0  0  0  0  0  0  0
    7.0177  -12.4135   27.1123 C   0  0  0  0  0  0  0  0  0  0  0  0
    6.7739  -12.9611   25.7485 C   0  0  1  0  0  0  0  0  0  0  0  0
    6.6272  -11.7840   24.8034 C   0  0  0  0  0  0  0  0  0  0  0  0
    7.8422  -13.8861   25.2505 C   0  0  2  0  0  0  0  0  0  0  0  0
    7.5824  -14.3564   23.9056 N   0  0  0  0  0  0  0  0  0  0  0  0
    8.1037  -15.0316   26.1316 C   0  0  0  0  0  0  0  0  0  0  0  0
    7.4027  -16.0778   26.1624 O   0  0  0  0  0  0  0  0  0  0  0  0
    9.2108  -14.9958   27.0225 N   0  0  0  0  0  0  0  0  0  0  0  0
    9.6640  -16.2333   27.7408 C   0  0  1  0  0  0  0  0  0  0  0  0
   10.5176  -17.0193   26.7997 C   0  0  0  0  0  0  0  0  0  0  0  0
   11.1603  -18.1706   27.3671 C   0  0  0  0  0  0  0  0  0  0  0  0
   10.6303  -18.9322   28.1892 O   0  0  0  0  0  0  0  0  0  0  0  0
   10.2959  -15.8338   28.9997 C   0  0  0  0  0  0  0  0  0  0  0  0
   10.6638  -16.6635   29.8384 O   0  0  0  0  0  0  0  0  0  0  0  0
   12.4776  -18.4916   26.9925 O   0  0  0  0  0  0  0  0  0  0  0  0
   10.5188  -14.4799   29.3230 O   0  0  0  0  0  0  0  0  0  0  0  0
  2  1  1  6
  3  2  1  0
  4  3  1  0
  5  4  2  0
  6  7  1  0
  6  5  1  0
  7  8  2  0
  8  4  1  0
  9  2  1  0
  9 10  2  0
 12 11  1  1
 12 14  1  0
 12 13  1  0
 14 15  1  6
 15  9  1  0
 16 14  1  0
 17 16  2  0
 18 16  1  0
 19 18  1  0
 19 20  1  6
 20 21  1  0
 21 22  2  0
 23 19  1  0
 24 23  2  0
 25 21  1  0
 26 23  1  0
M  END
$$$$
