HVD.pdb
     RDKit          3D

 26 26  0  0  1  0  0  0  0  0999 V2000
    9.0753  -17.1841   16.4610 N   0  0  0  0  0  0  0  0  0  0  0  0
    8.2843  -17.1930   17.6636 C   0  0  1  0  0  0  0  0  0  0  0  0
    7.9690  -18.6308   18.0937 C   0  0  0  0  0  0  0  0  0  0  0  0
    7.0705  -19.2212   17.0900 C   0  0  0  0  0  0  0  0  0  0  0  0
    5.8276  -19.8263   17.2973 C   0  0  0  0  0  0  0  0  0  0  0  0
    5.3560  -20.2254   16.1103 N   0  0  0  0  0  0  0  0  0  0  0  0
    6.2540  -19.8946   15.1665 C   0  0  0  0  0  0  0  0  0  0  0  0
    7.3015  -19.2810   15.7650 N   0  0  0  0  0  0  0  0  0  0  0  0
    8.9291  -16.4259   18.7532 C   0  0  0  0  0  0  0  0  0  0  0  0
   10.1719  -16.5437   18.9961 O   0  0  0  0  0  0  0  0  0  0  0  0
    7.7962  -12.6359   20.0461 C   0  0  0  0  0  0  0  0  0  0  0  0
    8.1075  -13.6038   21.1350 C   0  0  1  0  0  0  0  0  0  0  0  0
    6.7910  -14.0361   21.7517 C   0  0  0  0  0  0  0  0  0  0  0  0
    8.8841  -14.8067   20.6935 C   0  0  2  0  0  0  0  0  0  0  0  0
    8.2387  -15.5119   19.6057 N   0  0  0  0  0  0  0  0  0  0  0  0
    9.1980  -15.7494   21.7751 C   0  0  0  0  0  0  0  0  0  0  0  0
    8.5203  -16.7780   22.0387 O   0  0  0  0  0  0  0  0  0  0  0  0
   10.3324  -15.5209   22.6006 N   0  0  0  0  0  0  0  0  0  0  0  0
   10.6723  -16.4585   23.7223 C   0  0  1  0  0  0  0  0  0  0  0  0
   12.1468  -16.3808   23.9499 C   0  0  0  0  0  0  0  0  0  0  0  0
   12.9630  -16.7274   22.8212 C   0  0  0  0  0  0  0  0  0  0  0  0
   12.6737  -17.6028   21.9924 O   0  0  0  0  0  0  0  0  0  0  0  0
    9.8269  -16.1319   24.8722 C   0  0  0  0  0  0  0  0  0  0  0  0
    9.2166  -15.0601   24.9512 O   0  0  0  0  0  0  0  0  0  0  0  0
   14.1787  -16.0536   22.6043 O   0  0  0  0  0  0  0  0  0  0  0  0
    9.6636  -17.0231   25.9521 O   0  0  0  0  0  0  0  0  0  0  0  0
  2  1  1  6
  3  2  1  0
  4  3  1  0
  5  4  2  0
  6  7  1  0
  6  5  1  0
  7  8  2  0
  8  4  1  0
  9  2  1  0
  9 10  2  0
 12 11  1  6
 12 14  1  0
 12 13  1  0
 14 15  1  6
 15  9  1  0
 16 14  1  0
 17 16  2  0
 18 16  1  0
 19 18  1  0
 19 20  1  1
 20 21  1  0
 21 22  2  0
 23 19  1  0
 24 23  2  0
 25 21  1  0
 26 23  1  0
M  END
$$$$
