HVD.pdb
     RDKit          3D

 26 26  0  0  1  0  0  0  0  0999 V2000
    9.1922  -16.2222   20.8749 N   0  0  0  0  0  0  0  0  0  0  0  0
    8.3302  -16.3226   22.0233 C   0  0  1  0  0  0  0  0  0  0  0  0
    8.0017  -17.7893   22.3274 C   0  0  0  0  0  0  0  0  0  0  0  0
    7.1116  -18.2873   21.2676 C   0  0  0  0  0  0  0  0  0  0  0  0
    6.7351  -17.6422   20.0862 C   0  0  0  0  0  0  0  0  0  0  0  0
    5.9129  -18.4548   19.4122 N   0  0  0  0  0  0  0  0  0  0  0  0
    5.7588  -19.5844   20.1242 C   0  0  0  0  0  0  0  0  0  0  0  0
    6.4912  -19.4820   21.2578 N   0  0  0  0  0  0  0  0  0  0  0  0
    8.9014  -15.6348   23.2032 C   0  0  0  0  0  0  0  0  0  0  0  0
   10.1501  -15.6648   23.4430 O   0  0  0  0  0  0  0  0  0  0  0  0
    6.4973  -13.5295   26.2786 C   0  0  0  0  0  0  0  0  0  0  0  0
    7.8902  -13.1811   25.8816 C   0  0  1  0  0  0  0  0  0  0  0  0
    8.5742  -12.5809   27.0949 C   0  0  0  0  0  0  0  0  0  0  0  0
    8.6938  -14.3330   25.3598 C   0  0  2  0  0  0  0  0  0  0  0  0
    8.1294  -14.8976   24.1515 N   0  0  0  0  0  0  0  0  0  0  0  0
    8.9226  -15.4001   26.3426 C   0  0  0  0  0  0  0  0  0  0  0  0
    8.0286  -16.1822   26.7620 O   0  0  0  0  0  0  0  0  0  0  0  0
   10.2243  -15.5950   26.8794 N   0  0  0  0  0  0  0  0  0  0  0  0
   10.5025  -16.7111   27.8438 C   0  0  1  0  0  0  0  0  0  0  0  0
   11.8861  -17.2081   27.5784 C   0  0  0  0  0  0  0  0  0  0  0  0
   12.0929  -17.7912   26.2832 C   0  0  0  0  0  0  0  0  0  0  0  0
   11.1838  -18.2151   25.5548 O   0  0  0  0  0  0  0  0  0  0  0  0
   10.2434  -16.2268   29.2010 C   0  0  0  0  0  0  0  0  0  0  0  0
   10.1218  -16.9989   30.1583 O   0  0  0  0  0  0  0  0  0  0  0  0
   13.3971  -17.9078   25.7690 O   0  0  0  0  0  0  0  0  0  0  0  0
   10.1186  -14.8525   29.4889 O   0  0  0  0  0  0  0  0  0  0  0  0
  2  1  1  6
  3  2  1  0
  4  3  1  0
  5  4  2  0
  6  7  1  0
  6  5  1  0
  7  8  2  0
  8  4  1  0
  9  2  1  0
  9 10  2  0
 12 11  1  1
 12 14  1  0
 12 13  1  0
 14 15  1  6
 15  9  1  0
 16 14  1  0
 17 16  2  0
 18 16  1  0
 19 18  1  0
 19 20  1  1
 20 21  1  0
 21 22  2  0
 23 19  1  0
 24 23  2  0
 25 21  1  0
 26 23  1  0
M  END
$$$$
