HVD.pdb
     RDKit          3D

 26 26  0  0  1  0  0  0  0  0999 V2000
    9.1897  -16.8720   15.9756 N   0  0  0  0  0  0  0  0  0  0  0  0
    8.2900  -17.0028   17.0916 C   0  0  1  0  0  0  0  0  0  0  0  0
    7.8939  -18.4697   17.2989 C   0  0  0  0  0  0  0  0  0  0  0  0
    7.1625  -18.9186   16.1044 C   0  0  0  0  0  0  0  0  0  0  0  0
    5.8391  -18.6406   15.7505 C   0  0  0  0  0  0  0  0  0  0  0  0
    5.5830  -19.2492   14.5866 N   0  0  0  0  0  0  0  0  0  0  0  0
    6.6936  -19.8980   14.1963 C   0  0  0  0  0  0  0  0  0  0  0  0
    7.6585  -19.6960   15.1236 N   0  0  0  0  0  0  0  0  0  0  0  0
    8.8524  -16.4093   18.3257 C   0  0  0  0  0  0  0  0  0  0  0  0
   10.0384  -16.6724   18.7023 O   0  0  0  0  0  0  0  0  0  0  0  0
    7.7914  -12.6889   19.7347 C   0  0  0  0  0  0  0  0  0  0  0  0
    8.0015  -13.6950   20.8131 C   0  0  1  0  0  0  0  0  0  0  0  0
    6.6387  -14.0565   21.3719 C   0  0  0  0  0  0  0  0  0  0  0  0
    8.7191  -14.9349   20.3744 C   0  0  2  0  0  0  0  0  0  0  0  0
    8.1395  -15.5153   19.1808 N   0  0  0  0  0  0  0  0  0  0  0  0
    8.8343  -15.9631   21.4168 C   0  0  0  0  0  0  0  0  0  0  0  0
    8.4218  -17.1470   21.2944 O   0  0  0  0  0  0  0  0  0  0  0  0
    9.4448  -15.6402   22.6592 N   0  0  0  0  0  0  0  0  0  0  0  0
   10.2991  -16.6402   23.3825 C   0  0  1  0  0  0  0  0  0  0  0  0
   11.3660  -17.0940   22.4404 C   0  0  0  0  0  0  0  0  0  0  0  0
   12.3265  -18.0071   22.9918 C   0  0  0  0  0  0  0  0  0  0  0  0
   12.3075  -18.4191   24.1609 O   0  0  0  0  0  0  0  0  0  0  0  0
   10.7615  -16.0364   24.6337 C   0  0  0  0  0  0  0  0  0  0  0  0
   11.0782  -14.8441   24.7060 O   0  0  0  0  0  0  0  0  0  0  0  0
   13.3739  -18.4906   22.1868 O   0  0  0  0  0  0  0  0  0  0  0  0
   10.8704  -16.7835   25.8242 O   0  0  0  0  0  0  0  0  0  0  0  0
  2  1  1  6
  3  2  1  0
  4  3  1  0
  5  4  2  0
  6  7  1  0
  6  5  1  0
  7  8  2  0
  8  4  1  0
  9  2  1  0
  9 10  2  0
 12 11  1  6
 12 14  1  0
 12 13  1  0
 14 15  1  6
 15  9  1  0
 16 14  1  0
 17 16  2  0
 18 16  1  0
 19 18  1  0
 19 20  1  6
 20 21  1  0
 21 22  2  0
 23 19  1  0
 24 23  2  0
 25 21  1  0
 26 23  1  0
M  END
$$$$
