HVD.pdb
     RDKit          3D

 26 26  0  0  1  0  0  0  0  0999 V2000
    8.8343  -17.4306   16.2448 N   0  0  0  0  0  0  0  0  0  0  0  0
    7.9790  -17.3415   17.3992 C   0  0  1  0  0  0  0  0  0  0  0  0
    7.4507  -18.7271   17.7900 C   0  0  0  0  0  0  0  0  0  0  0  0
    6.5016  -19.1629   16.7544 C   0  0  0  0  0  0  0  0  0  0  0  0
    6.7591  -19.9465   15.6258 C   0  0  0  0  0  0  0  0  0  0  0  0
    5.6113  -20.0997   14.9551 N   0  0  0  0  0  0  0  0  0  0  0  0
    4.6440  -19.4433   15.6183 C   0  0  0  0  0  0  0  0  0  0  0  0
    5.1879  -18.8709   16.7176 N   0  0  0  0  0  0  0  0  0  0  0  0
    8.6537  -16.6739   18.5352 C   0  0  0  0  0  0  0  0  0  0  0  0
    9.8674  -16.9249   18.8205 O   0  0  0  0  0  0  0  0  0  0  0  0
    7.7461  -12.8876   19.8876 C   0  0  0  0  0  0  0  0  0  0  0  0
    8.0296  -13.8575   20.9823 C   0  0  1  0  0  0  0  0  0  0  0  0
    6.7126  -14.1725   21.6654 C   0  0  0  0  0  0  0  0  0  0  0  0
    8.6883  -15.1260   20.5330 C   0  0  2  0  0  0  0  0  0  0  0  0
    8.0258  -15.7170   19.3889 N   0  0  0  0  0  0  0  0  0  0  0  0
    8.8371  -16.1332   21.5915 C   0  0  0  0  0  0  0  0  0  0  0  0
    8.4362  -17.3239   21.4993 O   0  0  0  0  0  0  0  0  0  0  0  0
    9.4693  -15.7805   22.8148 N   0  0  0  0  0  0  0  0  0  0  0  0
   10.5322  -16.6542   23.4145 C   0  0  1  0  0  0  0  0  0  0  0  0
   11.6297  -16.7911   22.4101 C   0  0  0  0  0  0  0  0  0  0  0  0
   12.7173  -17.6433   22.7990 C   0  0  0  0  0  0  0  0  0  0  0  0
   13.6918  -17.2707   23.4685 O   0  0  0  0  0  0  0  0  0  0  0  0
   10.9154  -16.0943   24.7120 C   0  0  0  0  0  0  0  0  0  0  0  0
   11.1149  -14.8848   24.8686 O   0  0  0  0  0  0  0  0  0  0  0  0
   12.7162  -18.9969   22.4162 O   0  0  0  0  0  0  0  0  0  0  0  0
   11.0776  -16.9057   25.8533 O   0  0  0  0  0  0  0  0  0  0  0  0
  2  1  1  6
  3  2  1  0
  4  3  1  0
  5  4  2  0
  6  7  1  0
  6  5  1  0
  7  8  2  0
  8  4  1  0
  9  2  1  0
  9 10  2  0
 12 11  1  6
 12 14  1  0
 12 13  1  0
 14 15  1  6
 15  9  1  0
 16 14  1  0
 17 16  2  0
 18 16  1  0
 19 18  1  0
 19 20  1  6
 20 21  1  0
 21 22  2  0
 23 19  1  0
 24 23  2  0
 25 21  1  0
 26 23  1  0
M  END
$$$$
