HVD.pdb
     RDKit          3D

 26 26  0  0  1  0  0  0  0  0999 V2000
    9.4969  -13.5815   20.8035 N   0  0  0  0  0  0  0  0  0  0  0  0
    8.2957  -13.9023   21.5289 C   0  0  1  0  0  0  0  0  0  0  0  0
    7.5872  -15.1069   20.8977 C   0  0  0  0  0  0  0  0  0  0  0  0
    7.3094  -14.7870   19.4892 C   0  0  0  0  0  0  0  0  0  0  0  0
    6.9198  -13.5594   18.9461 C   0  0  0  0  0  0  0  0  0  0  0  0
    6.7746  -13.7161   17.6251 N   0  0  0  0  0  0  0  0  0  0  0  0
    7.0578  -14.9937   17.3180 C   0  0  0  0  0  0  0  0  0  0  0  0
    7.3845  -15.6479   18.4569 N   0  0  0  0  0  0  0  0  0  0  0  0
    8.5623  -14.1184   22.9689 C   0  0  0  0  0  0  0  0  0  0  0  0
    9.6617  -14.6180   23.3679 O   0  0  0  0  0  0  0  0  0  0  0  0
    7.3294  -13.2148   27.7387 C   0  0  0  0  0  0  0  0  0  0  0  0
    6.9443  -13.2804   26.3011 C   0  0  1  0  0  0  0  0  0  0  0  0
    6.6953  -11.8604   25.8299 C   0  0  0  0  0  0  0  0  0  0  0  0
    7.9566  -13.9420   25.4165 C   0  0  2  0  0  0  0  0  0  0  0  0
    7.6404  -13.7968   24.0108 N   0  0  0  0  0  0  0  0  0  0  0  0
    8.1901  -15.3587   25.7257 C   0  0  0  0  0  0  0  0  0  0  0  0
    7.3415  -16.2727   25.5493 O   0  0  0  0  0  0  0  0  0  0  0  0
    9.4429  -15.7650   26.2607 N   0  0  0  0  0  0  0  0  0  0  0  0
    9.6709  -17.1812   26.7023 C   0  0  1  0  0  0  0  0  0  0  0  0
   11.0127  -17.6046   26.2000 C   0  0  0  0  0  0  0  0  0  0  0  0
   11.1149  -17.7648   24.7773 C   0  0  0  0  0  0  0  0  0  0  0  0
   10.1454  -17.7820   24.0049 O   0  0  0  0  0  0  0  0  0  0  0  0
    9.4762  -17.2522   28.1517 C   0  0  0  0  0  0  0  0  0  0  0  0
    9.5338  -16.2473   28.8689 O   0  0  0  0  0  0  0  0  0  0  0  0
   12.3794  -17.9150   24.1796 O   0  0  0  0  0  0  0  0  0  0  0  0
    9.2122  -18.4717   28.8077 O   0  0  0  0  0  0  0  0  0  0  0  0
  2  1  1  6
  3  2  1  0
  4  3  1  0
  5  4  2  0
  6  7  1  0
  6  5  1  0
  7  8  2  0
  8  4  1  0
  9  2  1  0
  9 10  2  0
 12 11  1  1
 12 14  1  0
 12 13  1  0
 14 15  1  6
 15  9  1  0
 16 14  1  0
 17 16  2  0
 18 16  1  0
 19 18  1  0
 19 20  1  1
 20 21  1  0
 21 22  2  0
 23 19  1  0
 24 23  2  0
 25 21  1  0
 26 23  1  0
M  END
$$$$
