HVD.pdb
     RDKit          3D

 26 26  0  0  1  0  0  0  0  0999 V2000
    7.8070  -14.4852   20.7656 N   0  0  0  0  0  0  0  0  0  0  0  0
    7.6858  -15.4417   21.8344 C   0  0  1  0  0  0  0  0  0  0  0  0
    8.2687  -16.7973   21.4169 C   0  0  0  0  0  0  0  0  0  0  0  0
    7.5215  -17.2738   20.2430 C   0  0  0  0  0  0  0  0  0  0  0  0
    6.2939  -17.9419   20.2172 C   0  0  0  0  0  0  0  0  0  0  0  0
    5.9820  -18.1899   18.9398 N   0  0  0  0  0  0  0  0  0  0  0  0
    6.9653  -17.7036   18.1631 C   0  0  0  0  0  0  0  0  0  0  0  0
    7.9059  -17.1439   18.9593 N   0  0  0  0  0  0  0  0  0  0  0  0
    8.2973  -14.9473   23.0887 C   0  0  0  0  0  0  0  0  0  0  0  0
    9.5553  -14.9912   23.2705 O   0  0  0  0  0  0  0  0  0  0  0  0
    7.9119  -12.5598   27.4747 C   0  0  0  0  0  0  0  0  0  0  0  0
    7.2856  -13.0878   26.2304 C   0  0  1  0  0  0  0  0  0  0  0  0
    6.8600  -11.8971   25.3928 C   0  0  0  0  0  0  0  0  0  0  0  0
    8.1701  -13.9894   25.4243 C   0  0  2  0  0  0  0  0  0  0  0  0
    7.5564  -14.3931   24.1762 N   0  0  0  0  0  0  0  0  0  0  0  0
    8.6389  -15.1770   26.1501 C   0  0  0  0  0  0  0  0  0  0  0  0
    7.9008  -16.1415   26.4845 O   0  0  0  0  0  0  0  0  0  0  0  0
   10.0081  -15.2823   26.5174 N   0  0  0  0  0  0  0  0  0  0  0  0
   10.5150  -16.4757   27.2735 C   0  0  1  0  0  0  0  0  0  0  0  0
   11.9051  -16.7559   26.8035 C   0  0  0  0  0  0  0  0  0  0  0  0
   12.0593  -16.8896   25.3827 C   0  0  0  0  0  0  0  0  0  0  0  0
   11.4415  -17.7089   24.6870 O   0  0  0  0  0  0  0  0  0  0  0  0
   10.3615  -16.2165   28.7063 C   0  0  0  0  0  0  0  0  0  0  0  0
   10.1826  -17.1291   29.5201 O   0  0  0  0  0  0  0  0  0  0  0  0
   12.9600  -16.0556   24.6956 O   0  0  0  0  0  0  0  0  0  0  0  0
   10.4098  -14.9106   29.2351 O   0  0  0  0  0  0  0  0  0  0  0  0
  2  1  1  6
  3  2  1  0
  4  3  1  0
  5  4  2  0
  6  7  1  0
  6  5  1  0
  7  8  2  0
  8  4  1  0
  9  2  1  0
  9 10  2  0
 12 11  1  1
 12 14  1  0
 12 13  1  0
 14 15  1  6
 15  9  1  0
 16 14  1  0
 17 16  2  0
 18 16  1  0
 19 18  1  0
 19 20  1  1
 20 21  1  0
 21 22  2  0
 23 19  1  0
 24 23  2  0
 25 21  1  0
 26 23  1  0
M  END
$$$$
