HVD.pdb
     RDKit          3D

 26 26  0  0  1  0  0  0  0  0999 V2000
    8.3397  -14.9837   20.5047 N   0  0  0  0  0  0  0  0  0  0  0  0
    7.8716  -15.6279   21.7038 C   0  0  1  0  0  0  0  0  0  0  0  0
    8.0949  -17.1431   21.6271 C   0  0  0  0  0  0  0  0  0  0  0  0
    7.3080  -17.6642   20.4990 C   0  0  0  0  0  0  0  0  0  0  0  0
    5.9474  -17.9836   20.4734 C   0  0  0  0  0  0  0  0  0  0  0  0
    5.6466  -18.4247   19.2464 N   0  0  0  0  0  0  0  0  0  0  0  0
    6.7647  -18.3946   18.5011 C   0  0  0  0  0  0  0  0  0  0  0  0
    7.7798  -17.9300   19.2664 N   0  0  0  0  0  0  0  0  0  0  0  0
    8.4866  -15.0461   22.9183 C   0  0  0  0  0  0  0  0  0  0  0  0
    9.7375  -15.1346   23.1306 O   0  0  0  0  0  0  0  0  0  0  0  0
    6.1420  -13.3964   26.2473 C   0  0  0  0  0  0  0  0  0  0  0  0
    7.5089  -12.9170   25.8992 C   0  0  1  0  0  0  0  0  0  0  0  0
    8.1886  -12.4995   27.1892 C   0  0  0  0  0  0  0  0  0  0  0  0
    8.3547  -13.9220   25.1782 C   0  0  2  0  0  0  0  0  0  0  0  0
    7.7570  -14.3538   23.9318 N   0  0  0  0  0  0  0  0  0  0  0  0
    8.7135  -15.0951   25.9857 C   0  0  0  0  0  0  0  0  0  0  0  0
    7.9576  -16.0850   26.1741 O   0  0  0  0  0  0  0  0  0  0  0  0
    9.9881  -15.1551   26.6121 N   0  0  0  0  0  0  0  0  0  0  0  0
   10.3763  -16.3300   27.4616 C   0  0  1  0  0  0  0  0  0  0  0  0
   11.7977  -16.6678   27.1497 C   0  0  0  0  0  0  0  0  0  0  0  0
   12.0606  -17.0227   25.7839 C   0  0  0  0  0  0  0  0  0  0  0  0
   13.0462  -16.6358   25.1390 O   0  0  0  0  0  0  0  0  0  0  0  0
   10.0848  -16.0079   28.8598 C   0  0  0  0  0  0  0  0  0  0  0  0
    9.9833  -14.8411   29.2542 O   0  0  0  0  0  0  0  0  0  0  0  0
   11.1667  -17.8625   25.0952 O   0  0  0  0  0  0  0  0  0  0  0  0
    9.9041  -17.0124   29.8322 O   0  0  0  0  0  0  0  0  0  0  0  0
  2  1  1  6
  3  2  1  0
  4  3  1  0
  5  4  2  0
  6  7  1  0
  6  5  1  0
  7  8  2  0
  8  4  1  0
  9  2  1  0
  9 10  2  0
 12 11  1  1
 12 14  1  0
 12 13  1  0
 14 15  1  6
 15  9  1  0
 16 14  1  0
 17 16  2  0
 18 16  1  0
 19 18  1  0
 19 20  1  1
 20 21  1  0
 21 22  2  0
 23 19  1  0
 24 23  2  0
 25 21  1  0
 26 23  1  0
M  END
$$$$
