HVD.pdb
     RDKit          3D

 26 26  0  0  1  0  0  0  0  0999 V2000
    9.7456  -14.1348   21.0289 N   0  0  0  0  0  0  0  0  0  0  0  0
    8.4798  -14.1008   21.7133 C   0  0  1  0  0  0  0  0  0  0  0  0
    7.4549  -14.9919   21.0012 C   0  0  0  0  0  0  0  0  0  0  0  0
    7.3085  -14.5063   19.6206 C   0  0  0  0  0  0  0  0  0  0  0  0
    7.4361  -13.1959   19.1510 C   0  0  0  0  0  0  0  0  0  0  0  0
    7.2214  -13.2045   17.8303 N   0  0  0  0  0  0  0  0  0  0  0  0
    6.9641  -14.4686   17.4526 C   0  0  0  0  0  0  0  0  0  0  0  0
    7.0174  -15.2639   18.5465 N   0  0  0  0  0  0  0  0  0  0  0  0
    8.6162  -14.4603   23.1429 C   0  0  0  0  0  0  0  0  0  0  0  0
    9.4191  -15.3719   23.5195 O   0  0  0  0  0  0  0  0  0  0  0  0
    7.5430  -11.7871   26.3297 C   0  0  0  0  0  0  0  0  0  0  0  0
    7.3083  -13.2478   26.5044 C   0  0  1  0  0  0  0  0  0  0  0  0
    5.8305  -13.5031   26.2780 C   0  0  0  0  0  0  0  0  0  0  0  0
    8.1222  -14.1204   25.5983 C   0  0  2  0  0  0  0  0  0  0  0  0
    7.8832  -13.8376   24.1983 N   0  0  0  0  0  0  0  0  0  0  0  0
    7.9608  -15.5592   25.8454 C   0  0  0  0  0  0  0  0  0  0  0  0
    6.9211  -16.2144   25.5689 O   0  0  0  0  0  0  0  0  0  0  0  0
    9.0247  -16.2958   26.4338 N   0  0  0  0  0  0  0  0  0  0  0  0
    8.8554  -17.7434   26.7924 C   0  0  1  0  0  0  0  0  0  0  0  0
    9.5427  -18.5559   25.7439 C   0  0  0  0  0  0  0  0  0  0  0  0
    9.6200  -19.9645   26.0089 C   0  0  0  0  0  0  0  0  0  0  0  0
    8.9205  -20.5577   26.8431 O   0  0  0  0  0  0  0  0  0  0  0  0
    9.3239  -17.9389   28.1658 C   0  0  0  0  0  0  0  0  0  0  0  0
    9.1997  -19.0202   28.7510 O   0  0  0  0  0  0  0  0  0  0  0  0
   10.5357  -20.7606   25.2975 O   0  0  0  0  0  0  0  0  0  0  0  0
    9.9423  -16.9030   28.8950 O   0  0  0  0  0  0  0  0  0  0  0  0
  2  1  1  6
  3  2  1  0
  4  3  1  0
  5  4  2  0
  6  7  1  0
  6  5  1  0
  7  8  2  0
  8  4  1  0
  9  2  1  0
  9 10  2  0
 12 11  1  6
 12 14  1  0
 12 13  1  0
 14 15  1  6
 15  9  1  0
 16 14  1  0
 17 16  2  0
 18 16  1  0
 19 18  1  0
 19 20  1  6
 20 21  1  0
 21 22  2  0
 23 19  1  0
 24 23  2  0
 25 21  1  0
 26 23  1  0
M  END
$$$$
