NAM.pdb
     RDKit          3D

 22 21  0  0  1  0  0  0  0  0999 V2000
   23.0783  -20.1978  -17.6918 N   0  0  0  0  0  0  0  0  0  0  0  0
   22.1181  -19.1516  -17.7149 C   0  0  0  0  0  0  0  0  0  0  0  0
   21.1294  -19.1924  -18.4703 O   0  0  0  0  0  0  0  0  0  0  0  0
   22.3321  -18.0211  -16.8176 C   0  0  0  0  0  0  0  0  0  0  0  0
   23.5853  -18.1377  -15.9987 C   0  0  2  0  0  0  0  0  0  0  0  0
   23.2185  -18.9416  -14.8236 N   0  0  0  0  0  0  0  0  0  0  0  0
   24.0013  -16.7817  -15.5361 C   0  0  0  0  0  0  0  0  0  0  0  0
   23.4345  -16.1226  -14.6490 O   0  0  0  0  0  0  0  0  0  0  0  0
   27.0992  -14.6956  -15.8830 C   0  0  0  0  0  0  0  0  0  0  0  0
   25.6232  -14.8856  -15.6408 C   0  0  2  0  0  0  0  0  0  0  0  0
   25.1486  -16.1465  -16.1397 N   0  0  0  0  0  0  0  0  0  0  0  0
   24.8175  -13.7747  -16.2306 C   0  0  0  0  0  0  0  0  0  0  0  0
   24.3085  -13.9159  -17.3602 O   0  0  0  0  0  0  0  0  0  0  0  0
   21.4893   -6.7546  -14.6446 C   0  0  0  0  0  0  0  0  0  0  0  0
   22.3998   -8.2348  -14.1391 S   0  0  0  0  0  0  0  0  0  0  0  0
   22.7791   -9.2932  -15.5339 C   0  0  0  0  0  0  0  0  0  0  0  0
   23.4788  -10.5305  -15.1026 C   0  0  0  0  0  0  0  0  0  0  0  0
   23.8288  -11.4573  -16.2044 C   0  0  2  0  0  0  0  0  0  0  0  0
   24.6067  -12.5529  -15.5485 N   0  0  0  0  0  0  0  0  0  0  0  0
   24.5723  -10.9949  -17.3501 C   0  0  0  0  0  0  0  0  0  0  0  0
   25.8122  -10.8509  -17.4337 O   0  0  0  0  0  0  0  0  0  0  0  0
   23.8746  -10.6539  -18.5340 O   0  0  0  0  0  0  0  0  0  0  0  0
  1  2  1  0
  2  3  2  0
  4  2  1  0
  4  5  1  0
  5  6  1  1
  7  5  1  0
  7 11  1  0
  8  7  2  0
 10  9  1  6
 10 11  1  0
 10 12  1  0
 12 13  2  0
 12 19  1  0
 14 15  1  0
 15 16  1  0
 17 16  1  0
 18 17  1  1
 19 18  1  0
 20 18  1  0
 20 22  1  0
 21 20  2  0
M  END
$$$$
