NAM.pdb
     RDKit          3D

 22 21  0  0  1  0  0  0  0  0999 V2000
   17.4246  -13.3571  -14.8701 N   0  0  0  0  0  0  0  0  0  0  0  0
   16.6858  -12.3051  -15.4740 C   0  0  0  0  0  0  0  0  0  0  0  0
   15.4574  -12.1929  -15.3062 O   0  0  0  0  0  0  0  0  0  0  0  0
   17.4210  -11.3553  -16.3025 C   0  0  0  0  0  0  0  0  0  0  0  0
   16.5368  -10.3625  -17.0006 C   0  0  2  0  0  0  0  0  0  0  0  0
   15.8866  -11.1066  -18.0893 N   0  0  0  0  0  0  0  0  0  0  0  0
   17.3786   -9.2850  -17.5974 C   0  0  0  0  0  0  0  0  0  0  0  0
   17.5684   -9.1153  -18.8131 O   0  0  0  0  0  0  0  0  0  0  0  0
   17.8651   -6.3896  -18.1908 C   0  0  0  0  0  0  0  0  0  0  0  0
   18.7437   -7.2171  -17.2871 C   0  0  2  0  0  0  0  0  0  0  0  0
   18.0445   -8.3420  -16.7307 N   0  0  0  0  0  0  0  0  0  0  0  0
   19.3354   -6.3973  -16.1875 C   0  0  0  0  0  0  0  0  0  0  0  0
   18.6285   -6.0729  -15.2128 O   0  0  0  0  0  0  0  0  0  0  0  0
   23.2156  -10.3732  -13.7194 C   0  0  0  0  0  0  0  0  0  0  0  0
   23.5963   -8.6187  -13.9479 S   0  0  0  0  0  0  0  0  0  0  0  0
   22.1290   -7.6611  -14.3214 C   0  0  0  0  0  0  0  0  0  0  0  0
   22.4722   -6.2666  -14.7010 C   0  0  0  0  0  0  0  0  0  0  0  0
   21.3046   -5.3966  -14.9753 C   0  0  2  0  0  0  0  0  0  0  0  0
   20.6840   -5.9692  -16.2093 N   0  0  0  0  0  0  0  0  0  0  0  0
   21.4702   -3.9771  -15.1664 C   0  0  0  0  0  0  0  0  0  0  0  0
   21.4220   -3.3536  -16.2500 O   0  0  0  0  0  0  0  0  0  0  0  0
   21.7155   -3.1530  -14.0415 O   0  0  0  0  0  0  0  0  0  0  0  0
  1  2  1  0
  2  3  2  0
  4  2  1  0
  4  5  1  0
  5  6  1  6
  7  5  1  0
  7 11  1  0
  8  7  2  0
 10  9  1  1
 10 11  1  0
 10 12  1  0
 12 13  2  0
 12 19  1  0
 14 15  1  0
 15 16  1  0
 17 16  1  0
 18 17  1  6
 19 18  1  0
 20 18  1  0
 20 22  1  0
 21 20  2  0
M  END
$$$$
