NAM.pdb
     RDKit          3D

 22 21  0  0  1  0  0  0  0  0999 V2000
   26.9231  -19.8837  -15.5533 N   0  0  0  0  0  0  0  0  0  0  0  0
   26.9558  -19.2732  -14.2714 C   0  0  0  0  0  0  0  0  0  0  0  0
   27.5013  -19.8283  -13.2999 O   0  0  0  0  0  0  0  0  0  0  0  0
   26.3241  -17.9653  -14.1323 C   0  0  0  0  0  0  0  0  0  0  0  0
   25.8818  -17.3736  -15.4396 C   0  0  2  0  0  0  0  0  0  0  0  0
   27.0713  -17.3858  -16.3036 N   0  0  0  0  0  0  0  0  0  0  0  0
   25.4643  -15.9575  -15.2250 C   0  0  0  0  0  0  0  0  0  0  0  0
   24.5364  -15.5886  -14.4864 O   0  0  0  0  0  0  0  0  0  0  0  0
   26.7521  -12.5431  -16.2016 C   0  0  0  0  0  0  0  0  0  0  0  0
   25.6878  -13.5462  -15.8350 C   0  0  2  0  0  0  0  0  0  0  0  0
   26.1666  -14.8985  -15.9103 N   0  0  0  0  0  0  0  0  0  0  0  0
   24.4683  -13.3953  -16.6844 C   0  0  0  0  0  0  0  0  0  0  0  0
   24.1361  -14.3185  -17.4540 O   0  0  0  0  0  0  0  0  0  0  0  0
   17.8605  -14.5813  -18.5091 C   0  0  0  0  0  0  0  0  0  0  0  0
   19.5864  -14.6884  -17.9749 S   0  0  0  0  0  0  0  0  0  0  0  0
   20.1029  -13.2190  -17.0898 C   0  0  0  0  0  0  0  0  0  0  0  0
   21.5494  -13.2665  -16.7552 C   0  0  0  0  0  0  0  0  0  0  0  0
   22.3635  -12.1999  -17.3838 C   0  0  2  0  0  0  0  0  0  0  0  0
   23.6652  -12.2306  -16.6489 N   0  0  0  0  0  0  0  0  0  0  0  0
   21.8939  -10.8371  -17.4201 C   0  0  0  0  0  0  0  0  0  0  0  0
   21.1169  -10.3316  -18.2603 O   0  0  0  0  0  0  0  0  0  0  0  0
   22.3267   -9.9310  -16.4218 O   0  0  0  0  0  0  0  0  0  0  0  0
  1  2  1  0
  2  3  2  0
  4  2  1  0
  4  5  1  0
  5  6  1  6
  7  5  1  0
  7 11  1  0
  8  7  2  0
 10  9  1  6
 10 11  1  0
 10 12  1  0
 12 13  2  0
 12 19  1  0
 14 15  1  0
 15 16  1  0
 17 16  1  0
 18 17  1  1
 19 18  1  0
 20 18  1  0
 20 22  1  0
 21 20  2  0
M  END
$$$$
