NAM.pdb
     RDKit          3D

 22 21  0  0  1  0  0  0  0  0999 V2000
   27.8602  -18.3228  -18.8331 N   0  0  0  0  0  0  0  0  0  0  0  0
   27.9788  -18.3360  -17.4179 C   0  0  0  0  0  0  0  0  0  0  0  0
   28.8697  -17.6922  -16.8335 O   0  0  0  0  0  0  0  0  0  0  0  0
   27.0147  -19.1350  -16.6688 C   0  0  0  0  0  0  0  0  0  0  0  0
   27.5978  -19.7828  -15.4461 C   0  0  2  0  0  0  0  0  0  0  0  0
   28.5080  -20.8244  -15.9444 N   0  0  0  0  0  0  0  0  0  0  0  0
   26.5075  -20.4375  -14.6661 C   0  0  0  0  0  0  0  0  0  0  0  0
   25.3666  -20.6787  -15.0937 O   0  0  0  0  0  0  0  0  0  0  0  0
   26.1320  -21.7225  -11.1083 C   0  0  0  0  0  0  0  0  0  0  0  0
   25.7159  -21.4729  -12.5359 C   0  0  2  0  0  0  0  0  0  0  0  0
   26.7534  -20.8393  -13.3015 N   0  0  0  0  0  0  0  0  0  0  0  0
   24.4644  -20.6611  -12.6142 C   0  0  0  0  0  0  0  0  0  0  0  0
   24.5218  -19.4251  -12.4597 O   0  0  0  0  0  0  0  0  0  0  0  0
   22.2077  -17.7460  -17.1318 C   0  0  0  0  0  0  0  0  0  0  0  0
   20.8772  -18.4608  -16.1346 S   0  0  0  0  0  0  0  0  0  0  0  0
   21.2669  -18.4354  -14.3862 C   0  0  0  0  0  0  0  0  0  0  0  0
   22.3428  -19.4046  -14.0551 C   0  0  0  0  0  0  0  0  0  0  0  0
   21.9900  -20.3809  -12.9979 C   0  0  2  0  0  0  0  0  0  0  0  0
   23.2004  -21.2479  -12.8603 N   0  0  0  0  0  0  0  0  0  0  0  0
   20.8343  -21.2320  -13.1348 C   0  0  0  0  0  0  0  0  0  0  0  0
   20.7994  -22.3779  -13.6356 O   0  0  0  0  0  0  0  0  0  0  0  0
   19.5788  -20.7717  -12.6692 O   0  0  0  0  0  0  0  0  0  0  0  0
  1  2  1  0
  2  3  2  0
  4  2  1  0
  4  5  1  0
  5  6  1  6
  7  5  1  0
  7 11  1  0
  8  7  2  0
 10  9  1  1
 10 11  1  0
 10 12  1  0
 12 13  2  0
 12 19  1  0
 14 15  1  0
 15 16  1  0
 17 16  1  0
 18 17  1  6
 19 18  1  0
 20 18  1  0
 20 22  1  0
 21 20  2  0
M  END
$$$$
