NAM.pdb
     RDKit          3D

 22 21  0  0  1  0  0  0  0  0999 V2000
   17.1855  -13.8008  -15.7416 N   0  0  0  0  0  0  0  0  0  0  0  0
   16.5090  -12.5632  -15.5748 C   0  0  0  0  0  0  0  0  0  0  0  0
   15.3153  -12.5161  -15.2247 O   0  0  0  0  0  0  0  0  0  0  0  0
   17.2661  -11.3423  -15.8297 C   0  0  0  0  0  0  0  0  0  0  0  0
   16.5084  -10.3271  -16.6360 C   0  0  2  0  0  0  0  0  0  0  0  0
   16.5585  -10.8057  -18.0252 N   0  0  0  0  0  0  0  0  0  0  0  0
   17.2097   -9.0125  -16.5603 C   0  0  0  0  0  0  0  0  0  0  0  0
   18.2770   -8.7363  -17.1323 O   0  0  0  0  0  0  0  0  0  0  0  0
   16.3883   -5.5907  -15.1711 C   0  0  0  0  0  0  0  0  0  0  0  0
   17.3009   -6.6755  -15.6847 C   0  0  2  0  0  0  0  0  0  0  0  0
   16.6385   -7.9474  -15.7707 N   0  0  0  0  0  0  0  0  0  0  0  0
   18.5330   -6.8042  -14.8499 C   0  0  0  0  0  0  0  0  0  0  0  0
   18.6659   -7.7891  -14.0966 O   0  0  0  0  0  0  0  0  0  0  0  0
   22.7145  -10.6294  -13.1915 C   0  0  0  0  0  0  0  0  0  0  0  0
   23.0771   -9.4546  -14.5197 S   0  0  0  0  0  0  0  0  0  0  0  0
   22.6501   -7.7764  -14.0607 C   0  0  0  0  0  0  0  0  0  0  0  0
   21.2882   -7.4144  -14.5304 C   0  0  0  0  0  0  0  0  0  0  0  0
   20.8265   -6.0713  -14.1077 C   0  0  2  0  0  0  0  0  0  0  0  0
   19.5681   -5.8399  -14.8814 N   0  0  0  0  0  0  0  0  0  0  0  0
   21.6750   -4.9160  -14.2635 C   0  0  0  0  0  0  0  0  0  0  0  0
   21.6127   -4.0538  -15.1679 O   0  0  0  0  0  0  0  0  0  0  0  0
   22.7051   -4.6838  -13.3203 O   0  0  0  0  0  0  0  0  0  0  0  0
  1  2  1  0
  2  3  2  0
  4  2  1  0
  4  5  1  0
  5  6  1  6
  7  5  1  0
  7 11  1  0
  8  7  2  0
 10  9  1  1
 10 11  1  0
 10 12  1  0
 12 13  2  0
 12 19  1  0
 14 15  1  0
 15 16  1  0
 17 16  1  0
 18 17  1  6
 19 18  1  0
 20 18  1  0
 20 22  1  0
 21 20  2  0
M  END
$$$$
