NAM.pdb
     RDKit          3D

 22 21  0  0  1  0  0  0  0  0999 V2000
   14.4732  -11.4782   -9.1647 N   0  0  0  0  0  0  0  0  0  0  0  0
   15.5933  -11.3984  -10.0342 C   0  0  0  0  0  0  0  0  0  0  0  0
   16.2370  -12.4126  -10.3609 O   0  0  0  0  0  0  0  0  0  0  0  0
   15.9653  -10.0790  -10.5337 C   0  0  0  0  0  0  0  0  0  0  0  0
   15.0585   -8.9819  -10.0555 C   0  0  2  0  0  0  0  0  0  0  0  0
   13.7935   -9.1676  -10.7814 N   0  0  0  0  0  0  0  0  0  0  0  0
   15.6367   -7.6608  -10.4380 C   0  0  0  0  0  0  0  0  0  0  0  0
   15.7553   -7.2408  -11.6008 O   0  0  0  0  0  0  0  0  0  0  0  0
   16.4992   -4.4676   -8.6751 C   0  0  0  0  0  0  0  0  0  0  0  0
   16.6872   -5.4997   -9.7580 C   0  0  2  0  0  0  0  0  0  0  0  0
   16.1086   -6.7670   -9.4072 N   0  0  0  0  0  0  0  0  0  0  0  0
   18.1286   -5.6824  -10.1049 C   0  0  0  0  0  0  0  0  0  0  0  0
   18.8395   -6.4322   -9.4067 O   0  0  0  0  0  0  0  0  0  0  0  0
   22.4073   -9.9699  -13.6903 C   0  0  0  0  0  0  0  0  0  0  0  0
   20.9256   -9.2149  -12.9759 S   0  0  0  0  0  0  0  0  0  0  0  0
   21.1647   -7.4732  -12.6312 C   0  0  0  0  0  0  0  0  0  0  0  0
   19.9697   -6.8795  -11.9784 C   0  0  0  0  0  0  0  0  0  0  0  0
   20.0902   -5.4359  -11.6669 C   0  0  2  0  0  0  0  0  0  0  0  0
   18.7260   -5.0295  -11.2092 N   0  0  0  0  0  0  0  0  0  0  0  0
   20.5313   -4.4984  -12.6697 C   0  0  0  0  0  0  0  0  0  0  0  0
   19.8152   -3.8824  -13.4900 O   0  0  0  0  0  0  0  0  0  0  0  0
   21.9123   -4.2065  -12.7819 O   0  0  0  0  0  0  0  0  0  0  0  0
  1  2  1  0
  2  3  2  0
  4  2  1  0
  4  5  1  0
  5  6  1  6
  7  5  1  0
  7 11  1  0
  8  7  2  0
 10  9  1  1
 10 11  1  0
 10 12  1  0
 12 13  2  0
 12 19  1  0
 14 15  1  0
 15 16  1  0
 17 16  1  0
 18 17  1  6
 19 18  1  0
 20 18  1  0
 20 22  1  0
 21 20  2  0
M  END
$$$$
