NAM.pdb
     RDKit          3D

 22 21  0  0  1  0  0  0  0  0999 V2000
   17.0506  -20.3654  -11.1965 N   0  0  0  0  0  0  0  0  0  0  0  0
   17.3798  -21.7397  -11.3376 C   0  0  0  0  0  0  0  0  0  0  0  0
   16.6148  -22.6365  -10.9374 O   0  0  0  0  0  0  0  0  0  0  0  0
   18.6531  -22.0654  -11.9713 C   0  0  0  0  0  0  0  0  0  0  0  0
   19.5010  -20.8606  -12.2619 C   0  0  2  0  0  0  0  0  0  0  0  0
   18.7723  -20.1005  -13.2880 N   0  0  0  0  0  0  0  0  0  0  0  0
   20.8064  -21.3014  -12.8340 C   0  0  0  0  0  0  0  0  0  0  0  0
   21.6265  -22.0383  -12.2621 O   0  0  0  0  0  0  0  0  0  0  0  0
   22.6683  -20.6969  -16.0932 C   0  0  0  0  0  0  0  0  0  0  0  0
   22.4876  -21.1807  -14.6767 C   0  0  2  0  0  0  0  0  0  0  0  0
   21.1881  -20.8604  -14.1546 N   0  0  0  0  0  0  0  0  0  0  0  0
   23.5430  -20.6404  -13.7680 C   0  0  0  0  0  0  0  0  0  0  0  0
   23.3993  -19.5101  -13.2612 O   0  0  0  0  0  0  0  0  0  0  0  0
   26.6705  -20.2901   -7.1983 C   0  0  0  0  0  0  0  0  0  0  0  0
   25.5814  -20.9179   -8.5004 S   0  0  0  0  0  0  0  0  0  0  0  0
   26.2452  -20.6032  -10.1343 C   0  0  0  0  0  0  0  0  0  0  0  0
   25.3009  -21.0344  -11.1968 C   0  0  0  0  0  0  0  0  0  0  0  0
   25.7609  -20.7623  -12.5788 C   0  0  2  0  0  0  0  0  0  0  0  0
   24.7141  -21.3710  -13.4559 N   0  0  0  0  0  0  0  0  0  0  0  0
   27.0527  -21.2171  -13.0299 C   0  0  0  0  0  0  0  0  0  0  0  0
   28.1633  -20.7021  -12.7722 O   0  0  0  0  0  0  0  0  0  0  0  0
   27.1310  -22.3650  -13.8551 O   0  0  0  0  0  0  0  0  0  0  0  0
  1  2  1  0
  2  3  2  0
  4  2  1  0
  4  5  1  0
  5  6  1  6
  7  5  1  0
  7 11  1  0
  8  7  2  0
 10  9  1  6
 10 11  1  0
 10 12  1  0
 12 13  2  0
 12 19  1  0
 14 15  1  0
 15 16  1  0
 17 16  1  0
 18 17  1  1
 19 18  1  0
 20 18  1  0
 20 22  1  0
 21 20  2  0
M  END
$$$$
