NAM.pdb
     RDKit          3D

 22 21  0  0  1  0  0  0  0  0999 V2000
   26.5475  -19.5747   -8.6807 N   0  0  0  0  0  0  0  0  0  0  0  0
   25.4201  -20.1911   -9.2857 C   0  0  0  0  0  0  0  0  0  0  0  0
   24.5860  -20.8249   -8.6133 O   0  0  0  0  0  0  0  0  0  0  0  0
   25.2729  -20.0548  -10.7310 C   0  0  0  0  0  0  0  0  0  0  0  0
   25.0202  -21.3589  -11.4311 C   0  0  2  0  0  0  0  0  0  0  0  0
   26.2705  -22.1230  -11.3109 N   0  0  0  0  0  0  0  0  0  0  0  0
   24.7577  -21.1008  -12.8769 C   0  0  0  0  0  0  0  0  0  0  0  0
   25.6015  -20.7067  -13.6986 O   0  0  0  0  0  0  0  0  0  0  0  0
   21.8171  -21.6498  -15.2110 C   0  0  0  0  0  0  0  0  0  0  0  0
   23.1761  -21.1351  -14.8093 C   0  0  2  0  0  0  0  0  0  0  0  0
   23.4316  -21.3126  -13.4067 N   0  0  0  0  0  0  0  0  0  0  0  0
   23.3551  -19.6983  -15.1763 C   0  0  0  0  0  0  0  0  0  0  0  0
   22.9396  -18.8099  -14.4061 O   0  0  0  0  0  0  0  0  0  0  0  0
   28.7604  -16.7726  -16.4581 C   0  0  0  0  0  0  0  0  0  0  0  0
   27.7294  -16.2453  -17.8490 S   0  0  0  0  0  0  0  0  0  0  0  0
   25.9838  -16.3307  -17.4552 C   0  0  0  0  0  0  0  0  0  0  0  0
   25.5855  -17.7020  -17.0460 C   0  0  0  0  0  0  0  0  0  0  0  0
   24.1552  -17.8480  -16.6878 C   0  0  2  0  0  0  0  0  0  0  0  0
   23.9859  -19.3012  -16.3792 N   0  0  0  0  0  0  0  0  0  0  0  0
   23.1192  -17.4556  -17.6107 C   0  0  0  0  0  0  0  0  0  0  0  0
   22.5366  -18.1864  -18.4424 O   0  0  0  0  0  0  0  0  0  0  0  0
   22.6752  -16.1111  -17.6192 O   0  0  0  0  0  0  0  0  0  0  0  0
  1  2  1  0
  2  3  2  0
  4  2  1  0
  4  5  1  0
  5  6  1  6
  7  5  1  0
  7 11  1  0
  8  7  2  0
 10  9  1  1
 10 11  1  0
 10 12  1  0
 12 13  2  0
 12 19  1  0
 14 15  1  0
 15 16  1  0
 17 16  1  0
 18 17  1  6
 19 18  1  0
 20 18  1  0
 20 22  1  0
 21 20  2  0
M  END
$$$$
