NAM.pdb
     RDKit          3D

 22 21  0  0  1  0  0  0  0  0999 V2000
   17.1613   -7.2914  -15.7016 N   0  0  0  0  0  0  0  0  0  0  0  0
   18.0140   -8.4207  -15.8223 C   0  0  0  0  0  0  0  0  0  0  0  0
   19.0257   -8.3977  -16.5474 O   0  0  0  0  0  0  0  0  0  0  0  0
   17.6609   -9.6153  -15.0626 C   0  0  0  0  0  0  0  0  0  0  0  0
   16.4320   -9.4437  -14.2170 C   0  0  2  0  0  0  0  0  0  0  0  0
   16.8568   -8.6479  -13.0560 N   0  0  0  0  0  0  0  0  0  0  0  0
   15.9727  -10.7791  -13.7358 C   0  0  0  0  0  0  0  0  0  0  0  0
   16.5092  -11.4368  -12.8291 O   0  0  0  0  0  0  0  0  0  0  0  0
   15.4307  -13.7598  -14.3146 C   0  0  0  0  0  0  0  0  0  0  0  0
   14.4081  -12.7136  -13.9499 C   0  0  2  0  0  0  0  0  0  0  0  0
   14.8166  -11.3938  -14.3438 N   0  0  0  0  0  0  0  0  0  0  0  0
   14.0958  -12.7297  -12.4893 C   0  0  0  0  0  0  0  0  0  0  0  0
   14.8895  -12.2034  -11.6843 O   0  0  0  0  0  0  0  0  0  0  0  0
   11.4280   -8.8666   -7.2842 C   0  0  0  0  0  0  0  0  0  0  0  0
   11.8434   -9.4298   -8.9533 S   0  0  0  0  0  0  0  0  0  0  0  0
   11.9914  -11.2131   -9.0379 C   0  0  0  0  0  0  0  0  0  0  0  0
   12.4531  -11.6571  -10.3781 C   0  0  0  0  0  0  0  0  0  0  0  0
   12.5451  -13.1267  -10.5434 C   0  0  2  0  0  0  0  0  0  0  0  0
   12.9192  -13.3264  -11.9772 N   0  0  0  0  0  0  0  0  0  0  0  0
   11.4182  -13.9753  -10.2451 C   0  0  0  0  0  0  0  0  0  0  0  0
   10.6108  -14.4685  -11.0637 O   0  0  0  0  0  0  0  0  0  0  0  0
   11.1505  -14.3193   -8.8980 O   0  0  0  0  0  0  0  0  0  0  0  0
  1  2  1  0
  2  3  2  0
  4  2  1  0
  4  5  1  0
  5  6  1  1
  7  5  1  0
  7 11  1  0
  8  7  2  0
 10  9  1  1
 10 11  1  0
 10 12  1  0
 12 13  2  0
 12 19  1  0
 14 15  1  0
 15 16  1  0
 17 16  1  0
 18 17  1  6
 19 18  1  0
 20 18  1  0
 20 22  1  0
 21 20  2  0
M  END
$$$$
