NAM.pdb
     RDKit          3D

 22 21  0  0  1  0  0  0  0  0999 V2000
   24.6234  -17.9852  -16.9317 N   0  0  0  0  0  0  0  0  0  0  0  0
   25.8435  -18.5384  -17.4033 C   0  0  0  0  0  0  0  0  0  0  0  0
   26.3766  -18.1373  -18.4544 O   0  0  0  0  0  0  0  0  0  0  0  0
   26.4537  -19.5990  -16.6085 C   0  0  0  0  0  0  0  0  0  0  0  0
   25.6961  -19.9139  -15.3508 C   0  0  2  0  0  0  0  0  0  0  0  0
   25.2723  -18.6153  -14.8069 N   0  0  0  0  0  0  0  0  0  0  0  0
   26.6141  -20.5633  -14.3703 C   0  0  0  0  0  0  0  0  0  0  0  0
   27.5191  -21.3638  -14.6584 O   0  0  0  0  0  0  0  0  0  0  0  0
   28.8204  -20.2259  -12.2733 C   0  0  0  0  0  0  0  0  0  0  0  0
   27.4366  -20.7691  -12.0214 C   0  0  2  0  0  0  0  0  0  0  0  0
   26.4758  -20.2672  -12.9642 N   0  0  0  0  0  0  0  0  0  0  0  0
   26.9742  -20.4835  -10.6300 C   0  0  0  0  0  0  0  0  0  0  0  0
   26.8083  -19.3021  -10.2669 O   0  0  0  0  0  0  0  0  0  0  0  0
   28.6364  -20.7464   -4.4937 C   0  0  0  0  0  0  0  0  0  0  0  0
   28.0917  -19.2824   -5.4078 S   0  0  0  0  0  0  0  0  0  0  0  0
   26.6910  -19.6400   -6.4661 C   0  0  0  0  0  0  0  0  0  0  0  0
   27.1225  -20.2420   -7.7537 C   0  0  0  0  0  0  0  0  0  0  0  0
   26.1451  -21.1794   -8.3548 C   0  0  2  0  0  0  0  0  0  0  0  0
   26.7136  -21.5146   -9.6965 N   0  0  0  0  0  0  0  0  0  0  0  0
   24.7657  -20.7970   -8.5282 C   0  0  0  0  0  0  0  0  0  0  0  0
   24.2825  -20.1328   -9.4718 O   0  0  0  0  0  0  0  0  0  0  0  0
   23.8132  -21.1888   -7.5566 O   0  0  0  0  0  0  0  0  0  0  0  0
  1  2  1  0
  2  3  2  0
  4  2  1  0
  4  5  1  0
  5  6  1  1
  7  5  1  0
  7 11  1  0
  8  7  2  0
 10  9  1  6
 10 11  1  0
 10 12  1  0
 12 13  2  0
 12 19  1  0
 14 15  1  0
 15 16  1  0
 17 16  1  0
 18 17  1  6
 19 18  1  0
 20 18  1  0
 20 22  1  0
 21 20  2  0
M  END
$$$$
