NAM.pdb
     RDKit          3D

 22 21  0  0  1  0  0  0  0  0999 V2000
   20.2671  -17.7035  -16.8037 N   0  0  0  0  0  0  0  0  0  0  0  0
   20.1918  -17.0896  -18.0823 C   0  0  0  0  0  0  0  0  0  0  0  0
   20.2351  -17.7607  -19.1299 O   0  0  0  0  0  0  0  0  0  0  0  0
   20.0613  -15.6370  -18.1252 C   0  0  0  0  0  0  0  0  0  0  0  0
   20.0954  -14.9941  -16.7686 C   0  0  2  0  0  0  0  0  0  0  0  0
   18.8415  -15.3890  -16.1104 N   0  0  0  0  0  0  0  0  0  0  0  0
   20.1037  -13.5104  -16.9250 C   0  0  0  0  0  0  0  0  0  0  0  0
   20.9985  -12.8542  -17.4831 O   0  0  0  0  0  0  0  0  0  0  0  0
   17.6441  -10.7113  -16.2283 C   0  0  0  0  0  0  0  0  0  0  0  0
   18.9919  -11.3061  -16.5490 C   0  0  2  0  0  0  0  0  0  0  0  0
   19.0045  -12.7350  -16.4010 N   0  0  0  0  0  0  0  0  0  0  0  0
   20.0757  -10.7036  -15.7160 C   0  0  0  0  0  0  0  0  0  0  0  0
   20.5042  -11.3227  -14.7219 O   0  0  0  0  0  0  0  0  0  0  0  0
   27.0948  -10.5948  -14.9459 C   0  0  0  0  0  0  0  0  0  0  0  0
   25.4388  -10.9554  -15.5810 S   0  0  0  0  0  0  0  0  0  0  0  0
   24.2367   -9.7449  -15.0341 C   0  0  0  0  0  0  0  0  0  0  0  0
   22.8956  -10.0098  -15.6154 C   0  0  0  0  0  0  0  0  0  0  0  0
   21.8719   -8.9872  -15.2963 C   0  0  2  0  0  0  0  0  0  0  0  0
   20.6421   -9.4418  -16.0151 N   0  0  0  0  0  0  0  0  0  0  0  0
   22.0939   -7.5974  -15.6094 C   0  0  0  0  0  0  0  0  0  0  0  0
   21.9684   -7.0489  -16.7268 O   0  0  0  0  0  0  0  0  0  0  0  0
   22.4982   -6.7138  -14.5795 O   0  0  0  0  0  0  0  0  0  0  0  0
  1  2  1  0
  2  3  2  0
  4  2  1  0
  4  5  1  0
  5  6  1  1
  7  5  1  0
  7 11  1  0
  8  7  2  0
 10  9  1  1
 10 11  1  0
 10 12  1  0
 12 13  2  0
 12 19  1  0
 14 15  1  0
 15 16  1  0
 17 16  1  0
 18 17  1  6
 19 18  1  0
 20 18  1  0
 20 22  1  0
 21 20  2  0
M  END
$$$$
