NAM.pdb
     RDKit          3D

 22 21  0  0  1  0  0  0  0  0999 V2000
   26.5254  -25.0279  -16.9136 N   0  0  0  0  0  0  0  0  0  0  0  0
   25.7965  -25.0388  -15.6948 C   0  0  0  0  0  0  0  0  0  0  0  0
   25.7553  -26.0502  -14.9701 O   0  0  0  0  0  0  0  0  0  0  0  0
   25.0937  -23.8164  -15.3196 C   0  0  0  0  0  0  0  0  0  0  0  0
   25.2953  -22.6895  -16.2913 C   0  0  2  0  0  0  0  0  0  0  0  0
   26.6946  -22.2693  -16.1273 N   0  0  0  0  0  0  0  0  0  0  0  0
   24.4093  -21.5492  -15.9164 C   0  0  0  0  0  0  0  0  0  0  0  0
   24.6808  -20.6787  -15.0731 O   0  0  0  0  0  0  0  0  0  0  0  0
   21.1857  -20.0601  -17.1942 C   0  0  0  0  0  0  0  0  0  0  0  0
   22.2158  -20.3765  -16.1396 C   0  0  2  0  0  0  0  0  0  0  0  0
   23.1246  -21.4068  -16.5594 N   0  0  0  0  0  0  0  0  0  0  0  0
   21.5812  -20.7616  -14.8433 C   0  0  0  0  0  0  0  0  0  0  0  0
   21.7970  -21.8926  -14.3644 O   0  0  0  0  0  0  0  0  0  0  0  0
   23.6134  -21.1825   -8.3051 C   0  0  0  0  0  0  0  0  0  0  0  0
   23.5455  -20.5721  -10.0075 S   0  0  0  0  0  0  0  0  0  0  0  0
   21.8726  -20.5687  -10.6485 C   0  0  0  0  0  0  0  0  0  0  0  0
   21.8282  -20.0745  -12.0486 C   0  0  0  0  0  0  0  0  0  0  0  0
   20.4843  -20.1062  -12.6718 C   0  0  2  0  0  0  0  0  0  0  0  0
   20.7342  -19.8816  -14.1287 N   0  0  0  0  0  0  0  0  0  0  0  0
   19.4498  -19.1982  -12.2426 C   0  0  0  0  0  0  0  0  0  0  0  0
   19.3493  -17.9841  -12.5274 O   0  0  0  0  0  0  0  0  0  0  0  0
   18.4114  -19.6790  -11.4087 O   0  0  0  0  0  0  0  0  0  0  0  0
  1  2  1  0
  2  3  2  0
  4  2  1  0
  4  5  1  0
  5  6  1  1
  7  5  1  0
  7 11  1  0
  8  7  2  0
 10  9  1  6
 10 11  1  0
 10 12  1  0
 12 13  2  0
 12 19  1  0
 14 15  1  0
 15 16  1  0
 17 16  1  0
 18 17  1  1
 19 18  1  0
 20 18  1  0
 20 22  1  0
 21 20  2  0
M  END
$$$$
