NAM.pdb
     RDKit          3D

 22 21  0  0  1  0  0  0  0  0999 V2000
   18.1884  -22.8779  -16.5987 N   0  0  0  0  0  0  0  0  0  0  0  0
   18.4644  -21.5159  -16.3059 C   0  0  0  0  0  0  0  0  0  0  0  0
   17.5814  -20.7508  -15.8761 O   0  0  0  0  0  0  0  0  0  0  0  0
   19.8265  -21.0421  -16.5279 C   0  0  0  0  0  0  0  0  0  0  0  0
   20.6529  -20.9922  -15.2752 C   0  0  2  0  0  0  0  0  0  0  0  0
   19.9529  -20.0651  -14.3742 N   0  0  0  0  0  0  0  0  0  0  0  0
   21.9960  -20.4249  -15.5914 C   0  0  0  0  0  0  0  0  0  0  0  0
   22.8641  -20.9825  -16.2829 O   0  0  0  0  0  0  0  0  0  0  0  0
   23.7015  -17.0850  -15.1212 C   0  0  0  0  0  0  0  0  0  0  0  0
   23.6557  -18.5747  -15.3493 C   0  0  2  0  0  0  0  0  0  0  0  0
   22.3585  -19.1270  -15.0735 N   0  0  0  0  0  0  0  0  0  0  0  0
   24.6900  -19.2906  -14.5436 C   0  0  0  0  0  0  0  0  0  0  0  0
   24.3337  -20.0924  -13.6576 O   0  0  0  0  0  0  0  0  0  0  0  0
   24.9916  -20.4216  -10.0364 C   0  0  0  0  0  0  0  0  0  0  0  0
   26.7693  -20.7615  -10.0396 S   0  0  0  0  0  0  0  0  0  0  0  0
   27.4455  -20.7598  -11.6986 C   0  0  0  0  0  0  0  0  0  0  0  0
   26.6498  -19.8969  -12.6089 C   0  0  0  0  0  0  0  0  0  0  0  0
   27.0672  -19.9485  -14.0297 C   0  0  2  0  0  0  0  0  0  0  0  0
   26.0758  -19.0916  -14.7497 N   0  0  0  0  0  0  0  0  0  0  0  0
   27.1685  -21.2081  -14.7241 C   0  0  0  0  0  0  0  0  0  0  0  0
   26.2282  -21.8819  -15.2005 O   0  0  0  0  0  0  0  0  0  0  0  0
   28.4450  -21.7901  -14.9156 O   0  0  0  0  0  0  0  0  0  0  0  0
  1  2  1  0
  2  3  2  0
  4  2  1  0
  4  5  1  0
  5  6  1  1
  7  5  1  0
  7 11  1  0
  8  7  2  0
 10  9  1  1
 10 11  1  0
 10 12  1  0
 12 13  2  0
 12 19  1  0
 14 15  1  0
 15 16  1  0
 17 16  1  0
 18 17  1  1
 19 18  1  0
 20 18  1  0
 20 22  1  0
 21 20  2  0
M  END
$$$$
