NAM.pdb
     RDKit          3D

 22 21  0  0  1  0  0  0  0  0999 V2000
   21.8351  -17.0650  -18.8995 N   0  0  0  0  0  0  0  0  0  0  0  0
   21.0494  -15.9970  -18.3905 C   0  0  0  0  0  0  0  0  0  0  0  0
   20.0677  -16.2049  -17.6537 O   0  0  0  0  0  0  0  0  0  0  0  0
   21.4351  -14.6401  -18.7634 C   0  0  0  0  0  0  0  0  0  0  0  0
   20.6890  -13.5783  -18.0079 C   0  0  2  0  0  0  0  0  0  0  0  0
   19.3348  -13.5610  -18.5800 N   0  0  0  0  0  0  0  0  0  0  0  0
   21.3276  -12.2532  -18.2573 C   0  0  0  0  0  0  0  0  0  0  0  0
   22.5092  -11.9683  -18.0016 O   0  0  0  0  0  0  0  0  0  0  0  0
   20.2469   -8.9847  -19.8569 C   0  0  0  0  0  0  0  0  0  0  0  0
   21.1270   -9.8866  -19.0291 C   0  0  2  0  0  0  0  0  0  0  0  0
   20.5477  -11.1877  -18.8410 N   0  0  0  0  0  0  0  0  0  0  0  0
   21.4482   -9.2812  -17.7018 C   0  0  0  0  0  0  0  0  0  0  0  0
   20.6990   -9.4983  -16.7288 O   0  0  0  0  0  0  0  0  0  0  0  0
   26.5169  -11.5771  -14.7765 C   0  0  0  0  0  0  0  0  0  0  0  0
   26.2074   -9.8631  -15.2684 S   0  0  0  0  0  0  0  0  0  0  0  0
   24.4576   -9.5300  -15.4603 C   0  0  0  0  0  0  0  0  0  0  0  0
   24.2118   -8.1132  -15.8329 C   0  0  0  0  0  0  0  0  0  0  0  0
   22.8054   -7.8015  -16.1797 C   0  0  2  0  0  0  0  0  0  0  0  0
   22.5839   -8.4607  -17.5033 N   0  0  0  0  0  0  0  0  0  0  0  0
   22.3527   -6.4355  -16.2706 C   0  0  0  0  0  0  0  0  0  0  0  0
   22.1995   -5.7621  -17.3137 O   0  0  0  0  0  0  0  0  0  0  0  0
   22.0331   -5.7336  -15.0832 O   0  0  0  0  0  0  0  0  0  0  0  0
  1  2  1  0
  2  3  2  0
  4  2  1  0
  4  5  1  0
  5  6  1  6
  7  5  1  0
  7 11  1  0
  8  7  2  0
 10  9  1  1
 10 11  1  0
 10 12  1  0
 12 13  2  0
 12 19  1  0
 14 15  1  0
 15 16  1  0
 17 16  1  0
 18 17  1  6
 19 18  1  0
 20 18  1  0
 20 22  1  0
 21 20  2  0
M  END
$$$$
