PDV.pdb
     RDKit          3D

 23 23  0  0  1  0  0  0  0  0999 V2000
    9.0372  -14.5903   19.0837 N   0  0  0  0  0  0  0  0  0  0  0  0
    8.1173  -14.6807   17.9770 C   0  0  0  0  0  0  0  0  0  0  0  0
    7.3335  -13.3909   17.9576 C   0  0  0  0  0  0  0  0  0  0  0  0
    7.4231  -12.9020   19.3619 C   0  0  0  0  0  0  0  0  0  0  0  0
    8.5220  -13.6352   20.0104 C   0  0  1  0  0  0  0  0  0  0  0  0
    8.1795  -14.2340   21.3245 C   0  0  0  0  0  0  0  0  0  0  0  0
    7.4666  -13.5453   22.0940 O   0  0  0  0  0  0  0  0  0  0  0  0
    8.6008  -15.5106   21.7531 N   0  0  0  0  0  0  0  0  0  0  0  0
    8.2512  -16.1266   23.0072 C   0  0  1  0  0  0  0  0  0  0  0  0
    8.9051  -17.4764   23.1015 C   0  0  0  0  0  0  0  0  0  0  0  0
    8.3789  -18.1900   24.2868 C   0  0  0  0  0  0  0  0  0  0  0  0
    7.3580  -17.8062   24.9074 O   0  0  0  0  0  0  0  0  0  0  0  0
    8.6853  -15.3012   24.1685 C   0  0  0  0  0  0  0  0  0  0  0  0
    9.9077  -15.0338   24.2599 O   0  0  0  0  0  0  0  0  0  0  0  0
    9.0254  -19.3384   24.7535 O   0  0  0  0  0  0  0  0  0  0  0  0
    7.2879  -11.8783   25.4016 C   0  0  0  0  0  0  0  0  0  0  0  0
    7.4170  -12.8352   26.5648 C   0  0  1  0  0  0  0  0  0  0  0  0
    6.0554  -13.3242   26.9367 C   0  0  0  0  0  0  0  0  0  0  0  0
    8.3612  -13.9928   26.2334 C   0  0  2  0  0  0  0  0  0  0  0  0
    7.8150  -14.8050   25.1644 N   0  0  0  0  0  0  0  0  0  0  0  0
    8.6181  -14.8081   27.4493 C   0  0  0  0  0  0  0  0  0  0  0  0
    9.2530  -14.2964   28.5666 O   0  0  0  0  0  0  0  0  0  0  0  0
    8.2472  -16.0299   27.4854 O   0  0  0  0  0  0  0  0  0  0  0  0
  1  5  1  0
  1  2  1  0
  2  3  1  0
  3  4  1  0
  5  6  1  1
  5  4  1  0
  6  7  2  0
  6  8  1  0
  8  9  1  0
  9 13  1  0
 10 11  1  0
  9 10  1  1
 11 15  1  0
 12 11  2  0
 13 14  2  0
 13 20  1  0
 17 18  1  6
 17 16  1  0
 19 21  1  0
 19 17  1  0
 19 20  1  6
 21 22  1  0
 23 21  2  0
M  END
$$$$
