PDV.pdb
     RDKit          3D

 23 23  0  0  1  0  0  0  0  0999 V2000
    8.1297  -14.7475   18.2524 N   0  0  0  0  0  0  0  0  0  0  0  0
    7.2924  -13.7251   17.6755 C   0  0  0  0  0  0  0  0  0  0  0  0
    7.7337  -12.4126   18.2764 C   0  0  0  0  0  0  0  0  0  0  0  0
    8.3695  -12.8096   19.5638 C   0  0  0  0  0  0  0  0  0  0  0  0
    8.6430  -14.2536   19.4889 C   0  0  1  0  0  0  0  0  0  0  0  0
    8.1762  -15.0363   20.6603 C   0  0  0  0  0  0  0  0  0  0  0  0
    7.4392  -16.0246   20.4260 O   0  0  0  0  0  0  0  0  0  0  0  0
    8.5063  -14.7404   21.9999 N   0  0  0  0  0  0  0  0  0  0  0  0
    8.3819  -15.6497   23.1098 C   0  0  1  0  0  0  0  0  0  0  0  0
    9.2361  -16.8611   22.8629 C   0  0  0  0  0  0  0  0  0  0  0  0
    9.0523  -17.8208   23.9748 C   0  0  0  0  0  0  0  0  0  0  0  0
    7.9976  -17.8742   24.6526 O   0  0  0  0  0  0  0  0  0  0  0  0
    8.8035  -15.0186   24.3913 C   0  0  0  0  0  0  0  0  0  0  0  0
   10.0258  -14.7776   24.5396 O   0  0  0  0  0  0  0  0  0  0  0  0
   10.0775  -18.7128   24.3030 O   0  0  0  0  0  0  0  0  0  0  0  0
    7.2654  -11.8109   25.5072 C   0  0  0  0  0  0  0  0  0  0  0  0
    7.4214  -12.6651   26.7448 C   0  0  1  0  0  0  0  0  0  0  0  0
    6.0740  -13.1599   27.1586 C   0  0  0  0  0  0  0  0  0  0  0  0
    8.3977  -13.8191   26.5073 C   0  0  2  0  0  0  0  0  0  0  0  0
    7.9216  -14.6774   25.4408 N   0  0  0  0  0  0  0  0  0  0  0  0
    8.5989  -14.5864   27.7643 C   0  0  0  0  0  0  0  0  0  0  0  0
    9.1986  -14.0362   28.8828 O   0  0  0  0  0  0  0  0  0  0  0  0
    8.2112  -15.8013   27.8363 O   0  0  0  0  0  0  0  0  0  0  0  0
  1  5  1  0
  1  2  1  0
  2  3  1  0
  3  4  1  0
  5  6  1  1
  5  4  1  0
  6  7  2  0
  6  8  1  0
  8  9  1  0
  9 13  1  0
 10 11  1  0
  9 10  1  6
 11 15  1  0
 12 11  2  0
 13 14  2  0
 13 20  1  0
 17 18  1  6
 17 16  1  0
 19 21  1  0
 19 17  1  0
 19 20  1  6
 21 22  1  0
 23 21  2  0
M  END
$$$$
