PDV.pdb
     RDKit          3D

 23 23  0  0  1  0  0  0  0  0999 V2000
    9.0448  -14.6033   18.7797 N   0  0  0  0  0  0  0  0  0  0  0  0
    8.0223  -14.4499   17.7747 C   0  0  0  0  0  0  0  0  0  0  0  0
    7.2764  -13.1798   18.1046 C   0  0  0  0  0  0  0  0  0  0  0  0
    7.5120  -13.0010   19.5647 C   0  0  0  0  0  0  0  0  0  0  0  0
    8.6463  -13.8631   19.9329 C   0  0  1  0  0  0  0  0  0  0  0  0
    8.4131  -14.7248   21.1185 C   0  0  0  0  0  0  0  0  0  0  0  0
    7.2508  -14.7378   21.5915 O   0  0  0  0  0  0  0  0  0  0  0  0
    9.4040  -15.5175   21.7355 N   0  0  0  0  0  0  0  0  0  0  0  0
    9.2511  -16.2231   22.9817 C   0  0  1  0  0  0  0  0  0  0  0  0
   10.3727  -17.2108   23.1388 C   0  0  0  0  0  0  0  0  0  0  0  0
   10.2261  -18.2786   22.1241 C   0  0  0  0  0  0  0  0  0  0  0  0
   10.9130  -18.3108   21.0745 O   0  0  0  0  0  0  0  0  0  0  0  0
    9.2621  -15.2955   24.1470 C   0  0  0  0  0  0  0  0  0  0  0  0
   10.2656  -14.5550   24.2838 O   0  0  0  0  0  0  0  0  0  0  0  0
    9.2939  -19.3022   22.3183 O   0  0  0  0  0  0  0  0  0  0  0  0
    7.1483  -12.5328   27.5665 C   0  0  0  0  0  0  0  0  0  0  0  0
    7.0602  -13.4628   26.3779 C   0  0  1  0  0  0  0  0  0  0  0  0
    6.7247  -12.6591   25.1643 C   0  0  0  0  0  0  0  0  0  0  0  0
    8.3566  -14.2535   26.1903 C   0  0  2  0  0  0  0  0  0  0  0  0
    8.2232  -15.1982   25.0992 N   0  0  0  0  0  0  0  0  0  0  0  0
    8.7237  -14.9426   27.4550 C   0  0  0  0  0  0  0  0  0  0  0  0
    9.1929  -14.2610   28.5635 O   0  0  0  0  0  0  0  0  0  0  0  0
    8.6094  -16.2117   27.5437 O   0  0  0  0  0  0  0  0  0  0  0  0
  1  5  1  0
  1  2  1  0
  2  3  1  0
  3  4  1  0
  5  6  1  1
  5  4  1  0
  6  7  2  0
  6  8  1  0
  8  9  1  0
  9 13  1  0
 10 11  1  0
  9 10  1  1
 11 15  1  0
 12 11  2  0
 13 14  2  0
 13 20  1  0
 17 18  1  6
 17 16  1  0
 19 21  1  0
 19 17  1  0
 19 20  1  6
 21 22  1  0
 23 21  2  0
M  END
$$$$
