PDV.pdb
     RDKit          3D

 23 23  0  0  1  0  0  0  0  0999 V2000
    8.1464  -14.8228   18.6138 N   0  0  0  0  0  0  0  0  0  0  0  0
    7.1585  -13.9210   18.0756 C   0  0  0  0  0  0  0  0  0  0  0  0
    7.5015  -12.5441   18.5901 C   0  0  0  0  0  0  0  0  0  0  0  0
    8.2796  -12.8146   19.8313 C   0  0  0  0  0  0  0  0  0  0  0  0
    8.7018  -14.2235   19.7838 C   0  0  1  0  0  0  0  0  0  0  0  0
    8.4202  -14.9988   21.0175 C   0  0  0  0  0  0  0  0  0  0  0  0
    7.2159  -15.1239   21.3474 O   0  0  0  0  0  0  0  0  0  0  0  0
    9.4097  -15.5941   21.8285 N   0  0  0  0  0  0  0  0  0  0  0  0
    9.1699  -16.2615   23.0820 C   0  0  1  0  0  0  0  0  0  0  0  0
   10.2294  -17.3037   23.3051 C   0  0  0  0  0  0  0  0  0  0  0  0
   10.1292  -18.3335   22.2465 C   0  0  0  0  0  0  0  0  0  0  0  0
    9.0971  -19.0263   22.0748 O   0  0  0  0  0  0  0  0  0  0  0  0
    9.1853  -15.3092   24.2271 C   0  0  0  0  0  0  0  0  0  0  0  0
   10.1830  -14.5564   24.3364 O   0  0  0  0  0  0  0  0  0  0  0  0
   11.2115  -18.5631   21.3920 O   0  0  0  0  0  0  0  0  0  0  0  0
    7.0935  -12.4122   27.5225 C   0  0  0  0  0  0  0  0  0  0  0  0
    6.9884  -13.4244   26.4046 C   0  0  1  0  0  0  0  0  0  0  0  0
    6.6257  -12.7101   25.1437 C   0  0  0  0  0  0  0  0  0  0  0  0
    8.2855  -14.2209   26.2487 C   0  0  2  0  0  0  0  0  0  0  0  0
    8.1565  -15.2014   25.1891 N   0  0  0  0  0  0  0  0  0  0  0  0
    8.6473  -14.8675   27.5371 C   0  0  0  0  0  0  0  0  0  0  0  0
    9.2671  -14.1802   28.5652 O   0  0  0  0  0  0  0  0  0  0  0  0
    8.3853  -16.1036   27.7235 O   0  0  0  0  0  0  0  0  0  0  0  0
  1  5  1  0
  1  2  1  0
  2  3  1  0
  3  4  1  0
  5  6  1  1
  5  4  1  0
  6  7  2  0
  6  8  1  0
  8  9  1  0
  9 13  1  0
 10 11  1  0
  9 10  1  1
 11 15  1  0
 12 11  2  0
 13 14  2  0
 13 20  1  0
 17 18  1  6
 17 16  1  0
 19 21  1  0
 19 17  1  0
 19 20  1  6
 21 22  1  0
 23 21  2  0
M  END
$$$$
