PDV.pdb
     RDKit          3D

 23 23  0  0  1  0  0  0  0  0999 V2000
    8.3598  -14.8027   18.7890 N   0  0  0  0  0  0  0  0  0  0  0  0
    7.2976  -14.3011   17.9529 C   0  0  0  0  0  0  0  0  0  0  0  0
    7.1071  -12.8489   18.3175 C   0  0  0  0  0  0  0  0  0  0  0  0
    7.6372  -12.7611   19.7069 C   0  0  0  0  0  0  0  0  0  0  0  0
    8.4473  -13.9668   19.9423 C   0  0  1  0  0  0  0  0  0  0  0  0
    8.1370  -14.6882   21.2017 C   0  0  0  0  0  0  0  0  0  0  0  0
    6.9744  -14.5618   21.6571 O   0  0  0  0  0  0  0  0  0  0  0  0
    9.0561  -15.4945   21.9060 N   0  0  0  0  0  0  0  0  0  0  0  0
    8.8057  -16.1328   23.1726 C   0  0  1  0  0  0  0  0  0  0  0  0
    9.6624  -17.3617   23.2920 C   0  0  0  0  0  0  0  0  0  0  0  0
    9.4000  -18.0128   24.5952 C   0  0  0  0  0  0  0  0  0  0  0  0
    8.2663  -18.0135   25.1330 O   0  0  0  0  0  0  0  0  0  0  0  0
    9.1043  -15.2270   24.3166 C   0  0  0  0  0  0  0  0  0  0  0  0
   10.2625  -14.7496   24.3858 O   0  0  0  0  0  0  0  0  0  0  0  0
   10.4377  -18.6588   25.2736 O   0  0  0  0  0  0  0  0  0  0  0  0
    7.7351  -11.9344   25.3936 C   0  0  0  0  0  0  0  0  0  0  0  0
    7.6871  -12.8444   26.5999 C   0  0  1  0  0  0  0  0  0  0  0  0
    6.2718  -13.2652   26.8268 C   0  0  0  0  0  0  0  0  0  0  0  0
    8.6134  -14.0499   26.4271 C   0  0  2  0  0  0  0  0  0  0  0  0
    8.1738  -14.8749   25.3195 N   0  0  0  0  0  0  0  0  0  0  0  0
    8.6747  -14.8335   27.6886 C   0  0  0  0  0  0  0  0  0  0  0  0
    9.2149  -14.3226   28.8551 O   0  0  0  0  0  0  0  0  0  0  0  0
    8.2171  -16.0256   27.7193 O   0  0  0  0  0  0  0  0  0  0  0  0
  1  5  1  0
  1  2  1  0
  2  3  1  0
  3  4  1  0
  5  6  1  1
  5  4  1  0
  6  7  2  0
  6  8  1  0
  8  9  1  0
  9 13  1  0
 10 11  1  0
  9 10  1  1
 11 15  1  0
 12 11  2  0
 13 14  2  0
 13 20  1  0
 17 18  1  6
 17 16  1  0
 19 21  1  0
 19 17  1  0
 19 20  1  6
 21 22  1  0
 23 21  2  0
M  END
$$$$
