PDV.pdb
     RDKit          3D

 23 23  0  0  1  0  0  0  0  0999 V2000
    9.1300  -14.8879   19.2171 N   0  0  0  0  0  0  0  0  0  0  0  0
    8.5124  -15.0060   17.9196 C   0  0  0  0  0  0  0  0  0  0  0  0
    7.8378  -13.6854   17.6381 C   0  0  0  0  0  0  0  0  0  0  0  0
    7.6028  -13.1130   18.9932 C   0  0  0  0  0  0  0  0  0  0  0  0
    8.4582  -13.8532   19.9344 C   0  0  1  0  0  0  0  0  0  0  0  0
    7.7625  -14.3510   21.1472 C   0  0  0  0  0  0  0  0  0  0  0  0
    7.0107  -13.5420   21.7431 O   0  0  0  0  0  0  0  0  0  0  0  0
    7.8937  -15.6583   21.6617 N   0  0  0  0  0  0  0  0  0  0  0  0
    7.3199  -16.1305   22.8954 C   0  0  1  0  0  0  0  0  0  0  0  0
    7.5759  -17.6047   23.0348 C   0  0  0  0  0  0  0  0  0  0  0  0
    6.9307  -18.0955   24.2733 C   0  0  0  0  0  0  0  0  0  0  0  0
    5.8123  -17.6798   24.6618 O   0  0  0  0  0  0  0  0  0  0  0  0
    7.8959  -15.4298   24.0767 C   0  0  0  0  0  0  0  0  0  0  0  0
    9.1466  -15.3804   24.1634 O   0  0  0  0  0  0  0  0  0  0  0  0
    7.5707  -19.0589   25.0587 O   0  0  0  0  0  0  0  0  0  0  0  0
    7.5377  -12.0388   27.6296 C   0  0  0  0  0  0  0  0  0  0  0  0
    6.8274  -12.9955   26.6992 C   0  0  1  0  0  0  0  0  0  0  0  0
    6.1203  -12.2050   25.6473 C   0  0  0  0  0  0  0  0  0  0  0  0
    7.8006  -14.0053   26.0874 C   0  0  2  0  0  0  0  0  0  0  0  0
    7.1295  -14.8229   25.0964 N   0  0  0  0  0  0  0  0  0  0  0  0
    8.4061  -14.8443   27.1545 C   0  0  0  0  0  0  0  0  0  0  0  0
    9.4323  -14.3908   27.9636 O   0  0  0  0  0  0  0  0  0  0  0  0
    7.9780  -16.0319   27.3490 O   0  0  0  0  0  0  0  0  0  0  0  0
  1  5  1  0
  1  2  1  0
  2  3  1  0
  3  4  1  0
  5  6  1  1
  5  4  1  0
  6  7  2  0
  6  8  1  0
  8  9  1  0
  9 13  1  0
 10 11  1  0
  9 10  1  1
 11 15  1  0
 12 11  2  0
 13 14  2  0
 13 20  1  0
 17 18  1  6
 17 16  1  0
 19 21  1  0
 19 17  1  0
 19 20  1  6
 21 22  1  0
 23 21  2  0
M  END
$$$$
