PDV.pdb
     RDKit          3D

 23 23  0  0  1  0  0  0  0  0999 V2000
    8.9916  -14.8210   19.2222 N   0  0  0  0  0  0  0  0  0  0  0  0
    8.1326  -14.9045   18.0671 C   0  0  0  0  0  0  0  0  0  0  0  0
    7.4686  -13.5568   17.9216 C   0  0  0  0  0  0  0  0  0  0  0  0
    7.5201  -12.9874   19.2973 C   0  0  0  0  0  0  0  0  0  0  0  0
    8.5105  -13.7676   20.0561 C   0  0  1  0  0  0  0  0  0  0  0  0
    8.0412  -14.2489   21.3793 C   0  0  0  0  0  0  0  0  0  0  0  0
    7.3387  -13.4583   22.0548 O   0  0  0  0  0  0  0  0  0  0  0  0
    8.3331  -15.5215   21.9143 N   0  0  0  0  0  0  0  0  0  0  0  0
    7.8342  -16.0351   23.1640 C   0  0  1  0  0  0  0  0  0  0  0  0
    8.2400  -17.4745   23.3115 C   0  0  0  0  0  0  0  0  0  0  0  0
    7.5983  -18.0395   24.5199 C   0  0  0  0  0  0  0  0  0  0  0  0
    7.5681  -17.4290   25.6157 O   0  0  0  0  0  0  0  0  0  0  0  0
    8.3601  -15.2670   24.3267 C   0  0  0  0  0  0  0  0  0  0  0  0
    9.6049  -15.1396   24.4169 O   0  0  0  0  0  0  0  0  0  0  0  0
    6.9957  -19.2998   24.4651 O   0  0  0  0  0  0  0  0  0  0  0  0
    7.3393  -11.7111   25.3730 C   0  0  0  0  0  0  0  0  0  0  0  0
    7.3707  -12.5945   26.5995 C   0  0  1  0  0  0  0  0  0  0  0  0
    5.9663  -12.9052   27.0025 C   0  0  0  0  0  0  0  0  0  0  0  0
    8.1809  -13.8682   26.3496 C   0  0  2  0  0  0  0  0  0  0  0  0
    7.5525  -14.6783   25.3251 N   0  0  0  0  0  0  0  0  0  0  0  0
    8.3389  -14.6311   27.6153 C   0  0  0  0  0  0  0  0  0  0  0  0
    9.0302  -14.1300   28.7036 O   0  0  0  0  0  0  0  0  0  0  0  0
    7.8251  -15.7954   27.7240 O   0  0  0  0  0  0  0  0  0  0  0  0
  1  5  1  0
  1  2  1  0
  2  3  1  0
  3  4  1  0
  5  6  1  1
  5  4  1  0
  6  7  2  0
  6  8  1  0
  8  9  1  0
  9 13  1  0
 10 11  1  0
  9 10  1  1
 11 15  1  0
 12 11  2  0
 13 14  2  0
 13 20  1  0
 17 18  1  6
 17 16  1  0
 19 21  1  0
 19 17  1  0
 19 20  1  6
 21 22  1  0
 23 21  2  0
M  END
$$$$
