PDV.pdb
     RDKit          3D

 23 23  0  0  1  0  0  0  0  0999 V2000
    9.4052  -14.2029   18.9187 N   0  0  0  0  0  0  0  0  0  0  0  0
    8.7607  -14.5146   17.6672 C   0  0  0  0  0  0  0  0  0  0  0  0
    7.5689  -13.5955   17.5520 C   0  0  0  0  0  0  0  0  0  0  0  0
    7.2602  -13.2386   18.9649 C   0  0  0  0  0  0  0  0  0  0  0  0
    8.4414  -13.5856   19.7711 C   0  0  1  0  0  0  0  0  0  0  0  0
    8.1511  -14.3857   20.9869 C   0  0  0  0  0  0  0  0  0  0  0  0
    7.1699  -14.0269   21.6821 O   0  0  0  0  0  0  0  0  0  0  0  0
    8.9002  -15.5074   21.4010 N   0  0  0  0  0  0  0  0  0  0  0  0
    8.7450  -16.1968   22.6560 C   0  0  1  0  0  0  0  0  0  0  0  0
    9.7027  -17.3535   22.7137 C   0  0  0  0  0  0  0  0  0  0  0  0
    9.5395  -18.0560   24.0063 C   0  0  0  0  0  0  0  0  0  0  0  0
    8.4137  -18.3334   24.4862 O   0  0  0  0  0  0  0  0  0  0  0  0
    9.0064  -15.2994   23.8156 C   0  0  0  0  0  0  0  0  0  0  0  0
   10.0871  -14.6621   23.8182 O   0  0  0  0  0  0  0  0  0  0  0  0
   10.6668  -18.4362   24.7408 O   0  0  0  0  0  0  0  0  0  0  0  0
    6.0423  -13.7871   26.4939 C   0  0  0  0  0  0  0  0  0  0  0  0
    7.3479  -13.1326   26.1032 C   0  0  1  0  0  0  0  0  0  0  0  0
    7.6963  -12.1065   27.1314 C   0  0  0  0  0  0  0  0  0  0  0  0
    8.4633  -14.1668   25.9377 C   0  0  2  0  0  0  0  0  0  0  0  0
    8.1220  -15.1224   24.9028 N   0  0  0  0  0  0  0  0  0  0  0  0
    8.7259  -14.8484   27.2321 C   0  0  0  0  0  0  0  0  0  0  0  0
    9.2531  -14.1869   28.3267 O   0  0  0  0  0  0  0  0  0  0  0  0
    8.4623  -16.0915   27.3608 O   0  0  0  0  0  0  0  0  0  0  0  0
  1  5  1  0
  1  2  1  0
  2  3  1  0
  3  4  1  0
  5  6  1  1
  5  4  1  0
  6  7  2  0
  6  8  1  0
  8  9  1  0
  9 13  1  0
 10 11  1  0
  9 10  1  6
 11 15  1  0
 12 11  2  0
 13 14  2  0
 13 20  1  0
 17 18  1  1
 17 16  1  0
 19 21  1  0
 19 17  1  0
 19 20  1  6
 21 22  1  0
 23 21  2  0
M  END
$$$$
