PDV.pdb
     RDKit          3D

 23 23  0  0  1  0  0  0  0  0999 V2000
    9.1853  -13.7290   19.4781 N   0  0  0  0  0  0  0  0  0  0  0  0
    8.7848  -14.2337   18.1882 C   0  0  0  0  0  0  0  0  0  0  0  0
    7.3704  -13.7600   17.9568 C   0  0  0  0  0  0  0  0  0  0  0  0
    6.8462  -13.5280   19.3318 C   0  0  0  0  0  0  0  0  0  0  0  0
    8.0052  -13.4667   20.2365 C   0  0  1  0  0  0  0  0  0  0  0  0
    7.8958  -14.3203   21.4457 C   0  0  0  0  0  0  0  0  0  0  0  0
    6.7985  -14.3050   22.0544 O   0  0  0  0  0  0  0  0  0  0  0  0
    8.9350  -15.1346   21.9436 N   0  0  0  0  0  0  0  0  0  0  0  0
    8.8896  -15.8874   23.1706 C   0  0  1  0  0  0  0  0  0  0  0  0
    9.9571  -16.9449   23.1491 C   0  0  0  0  0  0  0  0  0  0  0  0
    9.8205  -17.7984   24.3507 C   0  0  0  0  0  0  0  0  0  0  0  0
    8.7404  -17.9104   24.9796 O   0  0  0  0  0  0  0  0  0  0  0  0
    9.1003  -15.0174   24.3610 C   0  0  0  0  0  0  0  0  0  0  0  0
   10.2852  -14.7722   24.6923 O   0  0  0  0  0  0  0  0  0  0  0  0
   10.9218  -18.5178   24.8241 O   0  0  0  0  0  0  0  0  0  0  0  0
    7.0250  -11.7169   25.5585 C   0  0  0  0  0  0  0  0  0  0  0  0
    7.2628  -12.7188   26.6654 C   0  0  1  0  0  0  0  0  0  0  0  0
    5.9862  -13.4459   26.9361 C   0  0  0  0  0  0  0  0  0  0  0  0
    8.3971  -13.6828   26.3117 C   0  0  2  0  0  0  0  0  0  0  0  0
    8.0591  -14.4560   25.1333 N   0  0  0  0  0  0  0  0  0  0  0  0
    8.6953  -14.5685   27.4674 C   0  0  0  0  0  0  0  0  0  0  0  0
    8.5276  -15.9406   27.4148 O   0  0  0  0  0  0  0  0  0  0  0  0
    9.1237  -14.0649   28.5603 O   0  0  0  0  0  0  0  0  0  0  0  0
  1  5  1  0
  1  2  1  0
  2  3  1  0
  3  4  1  0
  5  6  1  1
  5  4  1  0
  6  7  2  0
  6  8  1  0
  8  9  1  0
  9 13  1  0
 10 11  1  0
  9 10  1  6
 11 15  1  0
 12 11  2  0
 13 14  2  0
 13 20  1  0
 17 18  1  6
 17 16  1  0
 19 21  1  0
 19 17  1  0
 19 20  1  6
 21 22  1  0
 23 21  2  0
M  END
$$$$
