PDV.pdb
     RDKit          3D

 23 23  0  0  1  0  0  0  0  0999 V2000
    9.2633  -14.3071   19.5600 N   0  0  0  0  0  0  0  0  0  0  0  0
    8.2562  -14.4014   18.5325 C   0  0  0  0  0  0  0  0  0  0  0  0
    7.2238  -13.3436   18.8381 C   0  0  0  0  0  0  0  0  0  0  0  0
    7.3778  -13.1121   20.3016 C   0  0  0  0  0  0  0  0  0  0  0  0
    8.6754  -13.6807   20.6995 C   0  0  1  0  0  0  0  0  0  0  0  0
    8.6264  -14.5716   21.8855 C   0  0  0  0  0  0  0  0  0  0  0  0
    7.6859  -14.3875   22.6958 O   0  0  0  0  0  0  0  0  0  0  0  0
    9.5589  -15.5965   22.1520 N   0  0  0  0  0  0  0  0  0  0  0  0
    9.5613  -16.4386   23.3204 C   0  0  1  0  0  0  0  0  0  0  0  0
   10.3812  -17.6685   23.0496 C   0  0  0  0  0  0  0  0  0  0  0  0
   10.2952  -18.5769   24.2151 C   0  0  0  0  0  0  0  0  0  0  0  0
    9.2056  -18.8656   24.7666 O   0  0  0  0  0  0  0  0  0  0  0  0
   10.1265  -15.7369   24.5063 C   0  0  0  0  0  0  0  0  0  0  0  0
   11.2603  -15.2147   24.3800 O   0  0  0  0  0  0  0  0  0  0  0  0
   11.4575  -19.1485   24.7413 O   0  0  0  0  0  0  0  0  0  0  0  0
    9.2774  -12.6579   26.2122 C   0  0  0  0  0  0  0  0  0  0  0  0
    9.3254  -13.7197   27.2873 C   0  0  1  0  0  0  0  0  0  0  0  0
    7.9266  -14.0999   27.6482 C   0  0  0  0  0  0  0  0  0  0  0  0
   10.1418  -14.9331   26.8376 C   0  0  2  0  0  0  0  0  0  0  0  0
    9.4722  -15.6235   25.7532 N   0  0  0  0  0  0  0  0  0  0  0  0
   10.3807  -15.8442   27.9874 C   0  0  0  0  0  0  0  0  0  0  0  0
   11.0766  -15.4497   29.1159 O   0  0  0  0  0  0  0  0  0  0  0  0
    9.9354  -17.0409   27.9533 O   0  0  0  0  0  0  0  0  0  0  0  0
  1  5  1  0
  1  2  1  0
  2  3  1  0
  3  4  1  0
  5  6  1  1
  5  4  1  0
  6  7  2  0
  6  8  1  0
  8  9  1  0
  9 13  1  0
 10 11  1  0
  9 10  1  6
 11 15  1  0
 12 11  2  0
 13 14  2  0
 13 20  1  0
 17 18  1  6
 17 16  1  0
 19 21  1  0
 19 17  1  0
 19 20  1  6
 21 22  1  0
 23 21  2  0
M  END
$$$$
