PDV.pdb
     RDKit          3D

 23 23  0  0  1  0  0  0  0  0999 V2000
    9.0139  -14.6926   18.7662 N   0  0  0  0  0  0  0  0  0  0  0  0
    8.0242  -14.6079   17.7211 C   0  0  0  0  0  0  0  0  0  0  0  0
    7.3534  -13.2635   17.8663 C   0  0  0  0  0  0  0  0  0  0  0  0
    7.5695  -12.9138   19.2981 C   0  0  0  0  0  0  0  0  0  0  0  0
    8.6392  -13.7883   19.8047 C   0  0  1  0  0  0  0  0  0  0  0  0
    8.3275  -14.4756   21.0825 C   0  0  0  0  0  0  0  0  0  0  0  0
    7.3648  -14.0251   21.7498 O   0  0  0  0  0  0  0  0  0  0  0  0
    9.0372  -15.5873   21.5838 N   0  0  0  0  0  0  0  0  0  0  0  0
    8.8000  -16.2247   22.8534 C   0  0  1  0  0  0  0  0  0  0  0  0
    9.7107  -17.4116   22.9957 C   0  0  0  0  0  0  0  0  0  0  0  0
    9.4180  -18.3815   21.9164 C   0  0  0  0  0  0  0  0  0  0  0  0
   10.2876  -18.7589   21.0943 O   0  0  0  0  0  0  0  0  0  0  0  0
    9.0416  -15.2956   23.9921 C   0  0  0  0  0  0  0  0  0  0  0  0
   10.1682  -14.7476   24.0589 O   0  0  0  0  0  0  0  0  0  0  0  0
    8.1314  -18.9126   21.7860 O   0  0  0  0  0  0  0  0  0  0  0  0
    5.9714  -13.4951   26.3477 C   0  0  0  0  0  0  0  0  0  0  0  0
    7.3253  -12.9077   26.0200 C   0  0  1  0  0  0  0  0  0  0  0  0
    7.6409  -11.8436   27.0199 C   0  0  0  0  0  0  0  0  0  0  0  0
    8.4087  -13.9876   25.9845 C   0  0  2  0  0  0  0  0  0  0  0  0
    8.0905  -14.9953   24.9925 N   0  0  0  0  0  0  0  0  0  0  0  0
    8.5722  -14.5935   27.3318 C   0  0  0  0  0  0  0  0  0  0  0  0
    9.0843  -13.8888   28.4063 O   0  0  0  0  0  0  0  0  0  0  0  0
    8.2335  -15.8095   27.5272 O   0  0  0  0  0  0  0  0  0  0  0  0
  1  5  1  0
  1  2  1  0
  2  3  1  0
  3  4  1  0
  5  6  1  1
  5  4  1  0
  6  7  2  0
  6  8  1  0
  8  9  1  0
  9 13  1  0
 10 11  1  0
  9 10  1  1
 11 15  1  0
 12 11  2  0
 13 14  2  0
 13 20  1  0
 17 18  1  1
 17 16  1  0
 19 21  1  0
 19 17  1  0
 19 20  1  6
 21 22  1  0
 23 21  2  0
M  END
$$$$
