PDV.pdb
     RDKit          3D

 23 23  0  0  1  0  0  0  0  0999 V2000
    8.9296  -14.9216   18.7739 N   0  0  0  0  0  0  0  0  0  0  0  0
    8.0239  -14.7514   17.6649 C   0  0  0  0  0  0  0  0  0  0  0  0
    7.5791  -13.3092   17.6852 C   0  0  0  0  0  0  0  0  0  0  0  0
    7.7747  -12.8992   19.1039 C   0  0  0  0  0  0  0  0  0  0  0  0
    8.6562  -13.8977   19.7296 C   0  0  1  0  0  0  0  0  0  0  0  0
    8.1679  -14.4336   21.0246 C   0  0  0  0  0  0  0  0  0  0  0  0
    7.2210  -13.8191   21.5728 O   0  0  0  0  0  0  0  0  0  0  0  0
    8.6962  -15.5742   21.6656 N   0  0  0  0  0  0  0  0  0  0  0  0
    8.2632  -16.0911   22.9383 C   0  0  1  0  0  0  0  0  0  0  0  0
    8.8829  -17.4408   23.1675 C   0  0  0  0  0  0  0  0  0  0  0  0
    8.1611  -18.4508   22.3613 C   0  0  0  0  0  0  0  0  0  0  0  0
    6.9117  -18.4538   22.2448 O   0  0  0  0  0  0  0  0  0  0  0  0
    8.6471  -15.1902   24.0604 C   0  0  0  0  0  0  0  0  0  0  0  0
    9.8677  -14.9379   24.2044 O   0  0  0  0  0  0  0  0  0  0  0  0
    8.8750  -19.4506   21.6940 O   0  0  0  0  0  0  0  0  0  0  0  0
    5.9199  -13.0947   26.7525 C   0  0  0  0  0  0  0  0  0  0  0  0
    7.2545  -12.5836   26.2595 C   0  0  1  0  0  0  0  0  0  0  0  0
    7.7936  -11.6111   27.2572 C   0  0  0  0  0  0  0  0  0  0  0  0
    8.2331  -13.7320   26.0055 C   0  0  2  0  0  0  0  0  0  0  0  0
    7.7316  -14.6072   24.9646 N   0  0  0  0  0  0  0  0  0  0  0  0
    8.4801  -14.4823   27.2645 C   0  0  0  0  0  0  0  0  0  0  0  0
    9.2071  -13.9519   28.3151 O   0  0  0  0  0  0  0  0  0  0  0  0
    8.0127  -15.6629   27.4030 O   0  0  0  0  0  0  0  0  0  0  0  0
  1  5  1  0
  1  2  1  0
  2  3  1  0
  3  4  1  0
  5  6  1  1
  5  4  1  0
  6  7  2  0
  6  8  1  0
  8  9  1  0
  9 13  1  0
 10 11  1  0
  9 10  1  1
 11 15  1  0
 12 11  2  0
 13 14  2  0
 13 20  1  0
 17 18  1  1
 17 16  1  0
 19 21  1  0
 19 17  1  0
 19 20  1  6
 21 22  1  0
 23 21  2  0
M  END
$$$$
