PDV.pdb
     RDKit          3D

 23 23  0  0  1  0  0  0  0  0999 V2000
    8.9994  -14.7157   18.9826 N   0  0  0  0  0  0  0  0  0  0  0  0
    8.0160  -14.6167   17.9329 C   0  0  0  0  0  0  0  0  0  0  0  0
    7.3279  -13.2845   18.1068 C   0  0  0  0  0  0  0  0  0  0  0  0
    7.5299  -12.9683   19.5485 C   0  0  0  0  0  0  0  0  0  0  0  0
    8.6066  -13.8423   20.0407 C   0  0  1  0  0  0  0  0  0  0  0  0
    8.2945  -14.5652   21.2987 C   0  0  0  0  0  0  0  0  0  0  0  0
    7.1753  -14.3406   21.8202 O   0  0  0  0  0  0  0  0  0  0  0  0
    9.1666  -15.4751   21.9330 N   0  0  0  0  0  0  0  0  0  0  0  0
    8.9397  -16.0927   23.2142 C   0  0  1  0  0  0  0  0  0  0  0  0
    9.8923  -17.2412   23.3921 C   0  0  0  0  0  0  0  0  0  0  0  0
    9.8107  -18.1285   22.2101 C   0  0  0  0  0  0  0  0  0  0  0  0
    8.7740  -18.7737   21.9210 O   0  0  0  0  0  0  0  0  0  0  0  0
    9.1344  -15.1302   24.3340 C   0  0  0  0  0  0  0  0  0  0  0  0
   10.2381  -14.5371   24.3980 O   0  0  0  0  0  0  0  0  0  0  0  0
   10.9169  -18.2709   21.3671 O   0  0  0  0  0  0  0  0  0  0  0  0
    7.2305  -12.0300   25.3901 C   0  0  0  0  0  0  0  0  0  0  0  0
    7.3974  -12.9089   26.6088 C   0  0  1  0  0  0  0  0  0  0  0  0
    6.0868  -13.5568   26.9156 C   0  0  0  0  0  0  0  0  0  0  0  0
    8.5043  -13.9450   26.4027 C   0  0  2  0  0  0  0  0  0  0  0  0
    8.1632  -14.8458   25.3196 N   0  0  0  0  0  0  0  0  0  0  0  0
    8.7486  -14.6913   27.6646 C   0  0  0  0  0  0  0  0  0  0  0  0
    9.2580  -14.0859   28.7992 O   0  0  0  0  0  0  0  0  0  0  0  0
    8.4853  -15.9397   27.7259 O   0  0  0  0  0  0  0  0  0  0  0  0
  1  5  1  0
  1  2  1  0
  2  3  1  0
  3  4  1  0
  5  6  1  1
  5  4  1  0
  6  7  2  0
  6  8  1  0
  8  9  1  0
  9 13  1  0
 10 11  1  0
  9 10  1  1
 11 15  1  0
 12 11  2  0
 13 14  2  0
 13 20  1  0
 17 18  1  6
 17 16  1  0
 19 21  1  0
 19 17  1  0
 19 20  1  6
 21 22  1  0
 23 21  2  0
M  END
$$$$
