PDV.pdb
     RDKit          3D

 23 23  0  0  1  0  0  0  0  0999 V2000
    9.3904  -14.2728   19.4505 N   0  0  0  0  0  0  0  0  0  0  0  0
    8.5264  -14.3710   18.3003 C   0  0  0  0  0  0  0  0  0  0  0  0
    7.3870  -13.4080   18.5298 C   0  0  0  0  0  0  0  0  0  0  0  0
    7.3431  -13.2596   20.0115 C   0  0  0  0  0  0  0  0  0  0  0  0
    8.6218  -13.7617   20.5389 C   0  0  1  0  0  0  0  0  0  0  0  0
    8.4962  -14.7271   21.6590 C   0  0  0  0  0  0  0  0  0  0  0  0
    7.4984  -14.5999   22.4094 O   0  0  0  0  0  0  0  0  0  0  0  0
    9.4167  -15.7626   21.9263 N   0  0  0  0  0  0  0  0  0  0  0  0
    9.4183  -16.5940   23.1024 C   0  0  1  0  0  0  0  0  0  0  0  0
   10.2761  -17.8037   22.8593 C   0  0  0  0  0  0  0  0  0  0  0  0
    9.8373  -18.4683   21.6116 C   0  0  0  0  0  0  0  0  0  0  0  0
    8.7265  -19.0428   21.5077 O   0  0  0  0  0  0  0  0  0  0  0  0
    9.9409  -15.8668   24.2926 C   0  0  0  0  0  0  0  0  0  0  0  0
   10.5414  -14.7844   24.0881 O   0  0  0  0  0  0  0  0  0  0  0  0
   10.6735  -18.4706   20.4912 O   0  0  0  0  0  0  0  0  0  0  0  0
    7.9989  -14.4163   26.9383 C   0  0  0  0  0  0  0  0  0  0  0  0
    9.4754  -14.1591   26.7397 C   0  0  1  0  0  0  0  0  0  0  0  0
    9.9545  -13.2532   27.8267 C   0  0  0  0  0  0  0  0  0  0  0  0
   10.2699  -15.4662   26.7034 C   0  0  2  0  0  0  0  0  0  0  0  0
    9.8040  -16.3153   25.6252 N   0  0  0  0  0  0  0  0  0  0  0  0
   10.1730  -16.1609   28.0138 C   0  0  0  0  0  0  0  0  0  0  0  0
   10.8443  -15.7201   29.1401 O   0  0  0  0  0  0  0  0  0  0  0  0
    9.4480  -17.2065   28.1268 O   0  0  0  0  0  0  0  0  0  0  0  0
  1  5  1  0
  1  2  1  0
  2  3  1  0
  3  4  1  0
  5  6  1  1
  5  4  1  0
  6  7  2  0
  6  8  1  0
  8  9  1  0
  9 13  1  0
 10 11  1  0
  9 10  1  6
 11 15  1  0
 12 11  2  0
 13 14  2  0
 13 20  1  0
 17 18  1  1
 17 16  1  0
 19 21  1  0
 19 17  1  0
 19 20  1  6
 21 22  1  0
 23 21  2  0
M  END
$$$$
