SIN.pdb
     RDKit          3D

 23 22  0  0  1  0  0  0  0  0999 V2000
   26.6234   -9.0887  -20.6426 O   0  0  0  0  0  0  0  0  0  0  0  0
   25.3837   -8.8867  -20.0939 C   0  0  0  0  0  0  0  0  0  0  0  0
   24.8940  -10.1738  -19.4722 C   0  0  2  0  0  0  0  0  0  0  0  0
   24.4534  -11.0708  -20.5583 N   0  0  0  0  0  0  0  0  0  0  0  0
   23.7734  -10.0142  -18.5478 C   0  0  0  0  0  0  0  0  0  0  0  0
   22.5918   -9.9804  -18.9968 O   0  0  0  0  0  0  0  0  0  0  0  0
   23.4194  -12.6323  -13.8990 C   0  0  0  0  0  0  0  0  0  0  0  0
   23.1247  -11.9571  -15.2088 C   0  0  0  0  0  0  0  0  0  0  0  0
   23.0443  -10.4753  -14.9772 C   0  0  2  0  0  0  0  0  0  0  0  0
   21.8483  -10.1828  -14.0675 C   0  0  0  0  0  0  0  0  0  0  0  0
   22.9058   -9.6888  -16.2706 C   0  0  2  0  0  0  0  0  0  0  0  0
   24.0264   -9.9010  -17.1431 N   0  0  0  0  0  0  0  0  0  0  0  0
   22.8299   -8.2562  -15.9176 C   0  0  0  0  0  0  0  0  0  0  0  0
   23.8368   -7.7258  -15.3725 O   0  0  0  0  0  0  0  0  0  0  0  0
   22.2427   -2.7904  -16.8787 N   0  0  0  0  0  0  0  0  0  0  0  0
   21.2940   -3.7258  -16.3842 C   0  0  0  0  0  0  0  0  0  0  0  0
   20.4539   -3.3333  -15.5361 O   0  0  0  0  0  0  0  0  0  0  0  0
   21.3374   -5.1135  -16.8865 C   0  0  0  0  0  0  0  0  0  0  0  0
   21.7895   -6.0296  -15.8118 C   0  0  2  0  0  0  0  0  0  0  0  0
   21.7138   -7.4216  -16.1414 N   0  0  0  0  0  0  0  0  0  0  0  0
   20.9723   -5.8153  -14.5955 C   0  0  0  0  0  0  0  0  0  0  0  0
   21.2735   -4.9111  -13.5863 O   0  0  0  0  0  0  0  0  0  0  0  0
   19.8936   -6.4763  -14.3875 O   0  0  0  0  0  0  0  0  0  0  0  0
  2  1  1  0
  3  2  1  0
  3  5  1  0
  3  4  1  6
  5 12  1  0
  5  6  2  0
  7  8  1  0
  8  9  1  0
  9 11  1  0
  9 10  1  1
 11 13  1  0
 11 12  1  6
 13 20  1  0
 13 14  2  0
 16 18  1  0
 16 15  1  0
 17 16  2  0
 19 18  1  6
 19 21  1  0
 20 19  1  0
 21 22  1  0
 23 21  2  0
M  END
$$$$
