SIN.pdb
     RDKit          3D

 23 22  0  0  1  0  0  0  0  0999 V2000
   22.4698  -12.0878  -21.0324 O   0  0  0  0  0  0  0  0  0  0  0  0
   21.8377  -12.7709  -20.0261 C   0  0  0  0  0  0  0  0  0  0  0  0
   22.8704  -13.4108  -19.1278 C   0  0  2  0  0  0  0  0  0  0  0  0
   22.3654  -14.7355  -18.7172 N   0  0  0  0  0  0  0  0  0  0  0  0
   23.1709  -12.6556  -17.9133 C   0  0  0  0  0  0  0  0  0  0  0  0
   22.3416  -12.6501  -16.9587 O   0  0  0  0  0  0  0  0  0  0  0  0
   28.1589  -12.1662  -15.7182 C   0  0  0  0  0  0  0  0  0  0  0  0
   26.6773  -12.3357  -15.9039 C   0  0  0  0  0  0  0  0  0  0  0  0
   26.0894  -11.0122  -16.3024 C   0  0  2  0  0  0  0  0  0  0  0  0
   26.2738  -10.0235  -15.1483 C   0  0  0  0  0  0  0  0  0  0  0  0
   24.6148  -11.1117  -16.6581 C   0  0  2  0  0  0  0  0  0  0  0  0
   24.4029  -11.9327  -17.8170 N   0  0  0  0  0  0  0  0  0  0  0  0
   24.1280   -9.7447  -16.9360 C   0  0  0  0  0  0  0  0  0  0  0  0
   24.5584   -9.1607  -17.9684 O   0  0  0  0  0  0  0  0  0  0  0  0
   21.7248   -5.3837  -17.2941 N   0  0  0  0  0  0  0  0  0  0  0  0
   21.2807   -6.4892  -18.0690 C   0  0  0  0  0  0  0  0  0  0  0  0
   20.5018   -6.2705  -19.0305 O   0  0  0  0  0  0  0  0  0  0  0  0
   21.7522   -7.8418  -17.7110 C   0  0  0  0  0  0  0  0  0  0  0  0
   22.7125   -7.7639  -16.5839 C   0  0  2  0  0  0  0  0  0  0  0  0
   23.2119   -9.0294  -16.1352 N   0  0  0  0  0  0  0  0  0  0  0  0
   22.0705   -7.1027  -15.4248 C   0  0  0  0  0  0  0  0  0  0  0  0
   21.8535   -7.6998  -14.1906 O   0  0  0  0  0  0  0  0  0  0  0  0
   21.6571   -5.8907  -15.4884 O   0  0  0  0  0  0  0  0  0  0  0  0
  2  1  1  0
  3  2  1  0
  3  5  1  0
  3  4  1  1
  5 12  1  0
  5  6  2  0
  7  8  1  0
  8  9  1  0
  9 11  1  0
  9 10  1  1
 11 13  1  0
 11 12  1  6
 13 20  1  0
 13 14  2  0
 16 18  1  0
 16 15  1  0
 17 16  2  0
 19 18  1  6
 19 21  1  0
 20 19  1  0
 21 22  1  0
 23 21  2  0
M  END
$$$$
