SIN.pdb
     RDKit          3D

 23 22  0  0  1  0  0  0  0  0999 V2000
   13.3583  -17.7292  -14.6487 O   0  0  0  0  0  0  0  0  0  0  0  0
   14.2530  -16.6922  -14.7022 C   0  0  0  0  0  0  0  0  0  0  0  0
   15.6428  -17.2395  -14.9304 C   0  0  2  0  0  0  0  0  0  0  0  0
   15.8654  -18.3424  -13.9752 N   0  0  0  0  0  0  0  0  0  0  0  0
   16.7173  -16.2670  -14.7419 C   0  0  0  0  0  0  0  0  0  0  0  0
   17.2807  -16.1678  -13.6142 O   0  0  0  0  0  0  0  0  0  0  0  0
   21.4867  -14.2903  -17.7094 C   0  0  0  0  0  0  0  0  0  0  0  0
   20.5319  -13.9855  -16.5896 C   0  0  0  0  0  0  0  0  0  0  0  0
   19.3255  -14.8684  -16.7342 C   0  0  2  0  0  0  0  0  0  0  0  0
   18.7122  -14.6419  -18.1185 C   0  0  0  0  0  0  0  0  0  0  0  0
   18.2787  -14.6067  -15.6635 C   0  0  2  0  0  0  0  0  0  0  0  0
   17.1219  -15.4393  -15.8379 N   0  0  0  0  0  0  0  0  0  0  0  0
   17.8764  -13.1889  -15.7676 C   0  0  0  0  0  0  0  0  0  0  0  0
   17.1379  -12.8516  -16.7335 O   0  0  0  0  0  0  0  0  0  0  0  0
   15.9992   -8.3263  -14.5440 N   0  0  0  0  0  0  0  0  0  0  0  0
   17.3298   -8.6303  -14.1479 C   0  0  0  0  0  0  0  0  0  0  0  0
   18.1663   -7.6940  -14.0953 O   0  0  0  0  0  0  0  0  0  0  0  0
   17.6698  -10.0285  -13.8171 C   0  0  0  0  0  0  0  0  0  0  0  0
   17.7610  -10.8366  -15.0569 C   0  0  2  0  0  0  0  0  0  0  0  0
   18.2527  -12.1688  -14.8676 N   0  0  0  0  0  0  0  0  0  0  0  0
   18.6567  -10.1654  -16.0266 C   0  0  0  0  0  0  0  0  0  0  0  0
   18.2651   -9.1698  -16.9110 O   0  0  0  0  0  0  0  0  0  0  0  0
   19.8983  -10.4724  -16.1161 O   0  0  0  0  0  0  0  0  0  0  0  0
  2  1  1  0
  3  2  1  0
  3  5  1  0
  3  4  1  1
  5 12  1  0
  5  6  2  0
  7  8  1  0
  8  9  1  0
  9 11  1  0
  9 10  1  6
 11 13  1  0
 11 12  1  6
 13 20  1  0
 13 14  2  0
 16 18  1  0
 16 15  1  0
 17 16  2  0
 19 18  1  1
 19 21  1  0
 20 19  1  0
 21 22  1  0
 23 21  2  0
M  END
$$$$
