SIN.pdb
     RDKit          3D

 23 22  0  0  1  0  0  0  0  0999 V2000
   42.7869   -8.4032   -3.6420 O   0  0  0  0  0  0  0  0  0  0  0  0
   43.0121   -8.2436   -4.9846 C   0  0  0  0  0  0  0  0  0  0  0  0
   42.7552   -9.5517   -5.6958 C   0  0  2  0  0  0  0  0  0  0  0  0
   44.0495  -10.0793   -6.1700 N   0  0  0  0  0  0  0  0  0  0  0  0
   41.8678   -9.4504   -6.8525 C   0  0  0  0  0  0  0  0  0  0  0  0
   42.3595   -9.2851   -8.0057 O   0  0  0  0  0  0  0  0  0  0  0  0
   37.4708  -12.0462   -6.3227 C   0  0  0  0  0  0  0  0  0  0  0  0
   38.4433  -11.6203   -7.3863 C   0  0  0  0  0  0  0  0  0  0  0  0
   38.2811  -10.1459   -7.6219 C   0  0  2  0  0  0  0  0  0  0  0  0
   37.3940   -9.9381   -8.8521 C   0  0  0  0  0  0  0  0  0  0  0  0
   39.6104   -9.4375   -7.8261 C   0  0  2  0  0  0  0  0  0  0  0  0
   40.4512   -9.5427   -6.6668 N   0  0  0  0  0  0  0  0  0  0  0  0
   39.3226   -8.0124   -8.0893 C   0  0  0  0  0  0  0  0  0  0  0  0
   38.6452   -7.3769   -7.2353 O   0  0  0  0  0  0  0  0  0  0  0  0
   41.0482   -2.7137  -10.1907 N   0  0  0  0  0  0  0  0  0  0  0  0
   40.2956   -3.6072   -9.3815 C   0  0  0  0  0  0  0  0  0  0  0  0
   39.3240   -3.1488   -8.7295 O   0  0  0  0  0  0  0  0  0  0  0  0
   40.6875   -5.0302   -9.3420 C   0  0  0  0  0  0  0  0  0  0  0  0
   39.4796   -5.8899   -9.3229 C   0  0  2  0  0  0  0  0  0  0  0  0
   39.7465   -7.2942   -9.2281 N   0  0  0  0  0  0  0  0  0  0  0  0
   38.6894   -5.6695  -10.5558 C   0  0  0  0  0  0  0  0  0  0  0  0
   37.6858   -4.7208  -10.6962 O   0  0  0  0  0  0  0  0  0  0  0  0
   38.8877   -6.3673  -11.6130 O   0  0  0  0  0  0  0  0  0  0  0  0
  2  1  1  0
  3  2  1  0
  3  5  1  0
  3  4  1  6
  5 12  1  0
  5  6  2  0
  7  8  1  0
  8  9  1  0
  9 11  1  0
  9 10  1  6
 11 13  1  0
 11 12  1  1
 13 20  1  0
 13 14  2  0
 16 18  1  0
 16 15  1  0
 17 16  2  0
 19 18  1  6
 19 21  1  0
 20 19  1  0
 21 22  1  0
 23 21  2  0
M  END
$$$$
