SIN.pdb
     RDKit          3D

 23 22  0  0  1  0  0  0  0  0999 V2000
   26.5176  -19.4141  -16.4395 O   0  0  0  0  0  0  0  0  0  0  0  0
   27.6927  -19.3988  -15.7341 C   0  0  0  0  0  0  0  0  0  0  0  0
   27.8507  -20.7062  -14.9933 C   0  0  2  0  0  0  0  0  0  0  0  0
   28.1322  -21.7644  -15.9828 N   0  0  0  0  0  0  0  0  0  0  0  0
   26.6753  -21.1169  -14.2281 C   0  0  0  0  0  0  0  0  0  0  0  0
   25.8688  -21.9561  -14.7224 O   0  0  0  0  0  0  0  0  0  0  0  0
   26.6448  -20.3613   -8.7044 C   0  0  0  0  0  0  0  0  0  0  0  0
   26.5306  -21.0747  -10.0221 C   0  0  0  0  0  0  0  0  0  0  0  0
   25.3295  -20.5449  -10.7519 C   0  0  2  0  0  0  0  0  0  0  0  0
   24.0655  -21.0192  -10.0300 C   0  0  0  0  0  0  0  0  0  0  0  0
   25.2851  -20.9909  -12.2044 C   0  0  2  0  0  0  0  0  0  0  0  0
   26.4519  -20.5662  -12.9255 N   0  0  0  0  0  0  0  0  0  0  0  0
   24.0864  -20.3870  -12.8218 C   0  0  0  0  0  0  0  0  0  0  0  0
   24.0366  -19.1295  -12.9138 O   0  0  0  0  0  0  0  0  0  0  0  0
   20.1001  -22.9397  -15.3364 N   0  0  0  0  0  0  0  0  0  0  0  0
   21.4121  -22.3971  -15.2752 C   0  0  0  0  0  0  0  0  0  0  0  0
   22.3825  -23.1894  -15.1770 O   0  0  0  0  0  0  0  0  0  0  0  0
   21.5769  -20.9308  -15.3291 C   0  0  0  0  0  0  0  0  0  0  0  0
   21.9186  -20.4077  -13.9845 C   0  0  2  0  0  0  0  0  0  0  0  0
   22.9801  -21.1062  -13.3230 N   0  0  0  0  0  0  0  0  0  0  0  0
   20.7284  -20.4718  -13.1056 C   0  0  0  0  0  0  0  0  0  0  0  0
   20.6541  -21.1928  -11.9218 O   0  0  0  0  0  0  0  0  0  0  0  0
   19.6486  -19.8428  -13.3922 O   0  0  0  0  0  0  0  0  0  0  0  0
  2  1  1  0
  3  2  1  0
  3  5  1  0
  3  4  1  6
  5 12  1  0
  5  6  2  0
  7  8  1  0
  8  9  1  0
  9 11  1  0
  9 10  1  1
 11 13  1  0
 11 12  1  6
 13 20  1  0
 13 14  2  0
 16 18  1  0
 16 15  1  0
 17 16  2  0
 19 18  1  6
 19 21  1  0
 20 19  1  0
 21 22  1  0
 23 21  2  0
M  END
$$$$
