SIN.pdb
     RDKit          3D

 23 22  0  0  1  0  0  0  0  0999 V2000
   16.5602   -9.6320  -19.3348 O   0  0  0  0  0  0  0  0  0  0  0  0
   17.0161   -9.1654  -18.1293 C   0  0  0  0  0  0  0  0  0  0  0  0
   17.6139  -10.3082  -17.3421 C   0  0  2  0  0  0  0  0  0  0  0  0
   16.5079  -11.1186  -16.7959 N   0  0  0  0  0  0  0  0  0  0  0  0
   18.4577   -9.8984  -16.2216 C   0  0  0  0  0  0  0  0  0  0  0  0
   17.9859   -9.9034  -15.0484 O   0  0  0  0  0  0  0  0  0  0  0  0
   22.9219  -10.7842  -13.1605 C   0  0  0  0  0  0  0  0  0  0  0  0
   22.6823   -9.5635  -14.0036 C   0  0  0  0  0  0  0  0  0  0  0  0
   21.8477   -9.9557  -15.1892 C   0  0  2  0  0  0  0  0  0  0  0  0
   22.7056   -9.8492  -16.4526 C   0  0  0  0  0  0  0  0  0  0  0  0
   20.6066   -9.0914  -15.3411 C   0  0  2  0  0  0  0  0  0  0  0  0
   19.8108   -9.4986  -16.4648 N   0  0  0  0  0  0  0  0  0  0  0  0
   21.0534   -7.6976  -15.5423 C   0  0  0  0  0  0  0  0  0  0  0  0
   21.7687   -7.4440  -16.5503 O   0  0  0  0  0  0  0  0  0  0  0  0
   17.7482   -4.5172  -15.8317 N   0  0  0  0  0  0  0  0  0  0  0  0
   19.1399   -4.4966  -16.1188 C   0  0  0  0  0  0  0  0  0  0  0  0
   19.5075   -4.6734  -17.3074 O   0  0  0  0  0  0  0  0  0  0  0  0
   20.0897   -4.2698  -15.0114 C   0  0  0  0  0  0  0  0  0  0  0  0
   21.1644   -5.2908  -15.0459 C   0  0  2  0  0  0  0  0  0  0  0  0
   20.7438   -6.6138  -14.6926 N   0  0  0  0  0  0  0  0  0  0  0  0
   22.2501   -4.9056  -14.1153 C   0  0  0  0  0  0  0  0  0  0  0  0
   23.0019   -3.7427  -14.2110 O   0  0  0  0  0  0  0  0  0  0  0  0
   22.5790   -5.6495  -13.1242 O   0  0  0  0  0  0  0  0  0  0  0  0
  2  1  1  0
  3  2  1  0
  3  5  1  0
  3  4  1  1
  5 12  1  0
  5  6  2  0
  7  8  1  0
  8  9  1  0
  9 11  1  0
  9 10  1  6
 11 13  1  0
 11 12  1  6
 13 20  1  0
 13 14  2  0
 16 18  1  0
 16 15  1  0
 17 16  2  0
 19 18  1  1
 19 21  1  0
 20 19  1  0
 21 22  1  0
 23 21  2  0
M  END
$$$$
