SIN.pdb
     RDKit          3D

 23 22  0  0  1  0  0  0  0  0999 V2000
   17.1059   -7.8829  -17.6141 O   0  0  0  0  0  0  0  0  0  0  0  0
   16.3234   -8.7122  -16.8534 C   0  0  0  0  0  0  0  0  0  0  0  0
   17.1962   -9.7394  -16.1707 C   0  0  2  0  0  0  0  0  0  0  0  0
   16.3244  -10.6349  -15.3856 N   0  0  0  0  0  0  0  0  0  0  0  0
   18.1926   -9.1808  -15.2593 C   0  0  0  0  0  0  0  0  0  0  0  0
   17.8652   -8.8986  -14.0710 O   0  0  0  0  0  0  0  0  0  0  0  0
   22.9910  -11.3045  -14.5899 C   0  0  0  0  0  0  0  0  0  0  0  0
   21.6549  -10.6302  -14.4535 C   0  0  0  0  0  0  0  0  0  0  0  0
   21.8031   -9.1881  -14.8466 C   0  0  2  0  0  0  0  0  0  0  0  0
   22.8170   -8.5241  -13.9114 C   0  0  0  0  0  0  0  0  0  0  0  0
   20.4867   -8.4300  -14.7928 C   0  0  2  0  0  0  0  0  0  0  0  0
   19.5298   -8.9620  -15.7219 N   0  0  0  0  0  0  0  0  0  0  0  0
   20.7670   -7.0211  -15.1380 C   0  0  0  0  0  0  0  0  0  0  0  0
   21.1758   -6.7665  -16.3043 O   0  0  0  0  0  0  0  0  0  0  0  0
   19.0900   -1.2781  -14.9268 N   0  0  0  0  0  0  0  0  0  0  0  0
   20.0281   -2.3329  -15.0907 C   0  0  0  0  0  0  0  0  0  0  0  0
   21.1160   -2.0810  -15.6669 O   0  0  0  0  0  0  0  0  0  0  0  0
   19.6840   -3.6744  -14.5787 C   0  0  0  0  0  0  0  0  0  0  0  0
   20.8355   -4.5934  -14.7464 C   0  0  2  0  0  0  0  0  0  0  0  0
   20.6141   -5.9238  -14.2633 N   0  0  0  0  0  0  0  0  0  0  0  0
   22.0153   -4.0520  -14.0337 C   0  0  0  0  0  0  0  0  0  0  0  0
   22.9486   -3.1865  -14.5874 O   0  0  0  0  0  0  0  0  0  0  0  0
   22.2611   -4.3597  -12.8135 O   0  0  0  0  0  0  0  0  0  0  0  0
  2  1  1  0
  3  2  1  0
  3  5  1  0
  3  4  1  1
  5 12  1  0
  5  6  2  0
  7  8  1  0
  8  9  1  0
  9 11  1  0
  9 10  1  1
 11 13  1  0
 11 12  1  6
 13 20  1  0
 13 14  2  0
 16 18  1  0
 16 15  1  0
 17 16  2  0
 19 18  1  1
 19 21  1  0
 20 19  1  0
 21 22  1  0
 23 21  2  0
M  END
$$$$
