SIN.pdb
     RDKit          3D

 23 22  0  0  1  0  0  0  0  0999 V2000
   28.2134  -21.0745  -16.4600 O   0  0  0  0  0  0  0  0  0  0  0  0
   27.0301  -21.7469  -16.6231 C   0  0  0  0  0  0  0  0  0  0  0  0
   26.8480  -22.7256  -15.4865 C   0  0  2  0  0  0  0  0  0  0  0  0
   26.6259  -24.0655  -16.0644 N   0  0  0  0  0  0  0  0  0  0  0  0
   25.7197  -22.4308  -14.6057 C   0  0  0  0  0  0  0  0  0  0  0  0
   24.6222  -23.0367  -14.7707 O   0  0  0  0  0  0  0  0  0  0  0  0
   26.5984  -20.8010   -9.5036 C   0  0  0  0  0  0  0  0  0  0  0  0
   25.9018  -21.5503  -10.6043 C   0  0  0  0  0  0  0  0  0  0  0  0
   25.1014  -20.5736  -11.4175 C   0  0  2  0  0  0  0  0  0  0  0  0
   23.8379  -20.2016  -10.6373 C   0  0  0  0  0  0  0  0  0  0  0  0
   24.7154  -21.1263  -12.7799 C   0  0  2  0  0  0  0  0  0  0  0  0
   25.8712  -21.4609  -13.5635 N   0  0  0  0  0  0  0  0  0  0  0  0
   23.9379  -20.0844  -13.4819 C   0  0  0  0  0  0  0  0  0  0  0  0
   24.5573  -19.0746  -13.9167 O   0  0  0  0  0  0  0  0  0  0  0  0
   21.5079  -19.0274  -18.2526 N   0  0  0  0  0  0  0  0  0  0  0  0
   22.0599  -18.5249  -17.0433 C   0  0  0  0  0  0  0  0  0  0  0  0
   22.0344  -17.2843  -16.8450 O   0  0  0  0  0  0  0  0  0  0  0  0
   22.6376  -19.4795  -16.0764 C   0  0  0  0  0  0  0  0  0  0  0  0
   21.9740  -19.3328  -14.7586 C   0  0  2  0  0  0  0  0  0  0  0  0
   22.5455  -20.1240  -13.7099 N   0  0  0  0  0  0  0  0  0  0  0  0
   20.5465  -19.7099  -14.8728 C   0  0  0  0  0  0  0  0  0  0  0  0
   19.4992  -18.8130  -15.0325 O   0  0  0  0  0  0  0  0  0  0  0  0
   20.1711  -20.9351  -14.8292 O   0  0  0  0  0  0  0  0  0  0  0  0
  2  1  1  0
  3  2  1  0
  3  5  1  0
  3  4  1  6
  5 12  1  0
  5  6  2  0
  7  8  1  0
  8  9  1  0
  9 11  1  0
  9 10  1  1
 11 13  1  0
 11 12  1  6
 13 20  1  0
 13 14  2  0
 16 18  1  0
 16 15  1  0
 17 16  2  0
 19 18  1  6
 19 21  1  0
 20 19  1  0
 21 22  1  0
 23 21  2  0
M  END
$$$$
