SIN.pdb
     RDKit          3D

 23 22  0  0  1  0  0  0  0  0999 V2000
   15.5740   -9.8370  -16.5626 O   0  0  0  0  0  0  0  0  0  0  0  0
   16.5613   -9.1816  -15.8739 C   0  0  0  0  0  0  0  0  0  0  0  0
   17.5087  -10.1925  -15.2709 C   0  0  2  0  0  0  0  0  0  0  0  0
   16.7839  -10.9319  -14.2192 N   0  0  0  0  0  0  0  0  0  0  0  0
   18.7055   -9.6158  -14.6620 C   0  0  0  0  0  0  0  0  0  0  0  0
   18.6585   -9.1884  -13.4728 O   0  0  0  0  0  0  0  0  0  0  0  0
   23.6897  -11.6583  -14.8752 C   0  0  0  0  0  0  0  0  0  0  0  0
   22.3642  -11.0269  -14.5544 C   0  0  0  0  0  0  0  0  0  0  0  0
   22.3457   -9.6362  -15.1215 C   0  0  2  0  0  0  0  0  0  0  0  0
   23.5301   -8.8543  -14.5478 C   0  0  0  0  0  0  0  0  0  0  0  0
   21.0519   -8.8986  -14.8168 C   0  0  2  0  0  0  0  0  0  0  0  0
   19.9190   -9.5441  -15.4183 N   0  0  0  0  0  0  0  0  0  0  0  0
   21.1772   -7.5310  -15.3615 C   0  0  0  0  0  0  0  0  0  0  0  0
   21.5540   -7.4020  -16.5588 O   0  0  0  0  0  0  0  0  0  0  0  0
   17.4759   -4.3316  -14.5864 N   0  0  0  0  0  0  0  0  0  0  0  0
   18.6163   -4.5551  -15.4044 C   0  0  0  0  0  0  0  0  0  0  0  0
   18.4549   -5.1281  -16.5111 O   0  0  0  0  0  0  0  0  0  0  0  0
   19.9366   -4.1060  -14.9194 C   0  0  0  0  0  0  0  0  0  0  0  0
   20.9823   -5.0791  -15.3168 C   0  0  2  0  0  0  0  0  0  0  0  0
   20.9078   -6.3436  -14.6475 N   0  0  0  0  0  0  0  0  0  0  0  0
   22.3229   -4.5110  -15.0463 C   0  0  0  0  0  0  0  0  0  0  0  0
   23.0344   -3.7041  -15.9234 O   0  0  0  0  0  0  0  0  0  0  0  0
   22.9366   -4.7365  -13.9434 O   0  0  0  0  0  0  0  0  0  0  0  0
  2  1  1  0
  3  2  1  0
  3  5  1  0
  3  4  1  1
  5 12  1  0
  5  6  2  0
  7  8  1  0
  8  9  1  0
  9 11  1  0
  9 10  1  1
 11 13  1  0
 11 12  1  6
 13 20  1  0
 13 14  2  0
 16 18  1  0
 16 15  1  0
 17 16  2  0
 19 18  1  1
 19 21  1  0
 20 19  1  0
 21 22  1  0
 23 21  2  0
M  END
$$$$
