SIN.pdb
     RDKit          3D

 23 22  0  0  1  0  0  0  0  0999 V2000
   18.0431  -14.8978  -19.2582 O   0  0  0  0  0  0  0  0  0  0  0  0
   18.3093  -14.2156  -18.0996 C   0  0  0  0  0  0  0  0  0  0  0  0
   19.4723  -14.8679  -17.3889 C   0  0  2  0  0  0  0  0  0  0  0  0
   18.9965  -16.1306  -16.7911 N   0  0  0  0  0  0  0  0  0  0  0  0
   20.0580  -14.0642  -16.3181 C   0  0  0  0  0  0  0  0  0  0  0  0
   19.4799  -14.0012  -15.1952 O   0  0  0  0  0  0  0  0  0  0  0  0
   25.1856  -14.3859  -15.0294 C   0  0  0  0  0  0  0  0  0  0  0  0
   23.6890  -14.2508  -15.0451 C   0  0  0  0  0  0  0  0  0  0  0  0
   23.3396  -12.8207  -15.3427 C   0  0  2  0  0  0  0  0  0  0  0  0
   23.8971  -11.9345  -14.2258 C   0  0  0  0  0  0  0  0  0  0  0  0
   21.8409  -12.5999  -15.4689 C   0  0  2  0  0  0  0  0  0  0  0  0
   21.2822  -13.3594  -16.5518 N   0  0  0  0  0  0  0  0  0  0  0  0
   21.6200  -11.1609  -15.7205 C   0  0  0  0  0  0  0  0  0  0  0  0
   22.2562  -10.6199  -16.6664 O   0  0  0  0  0  0  0  0  0  0  0  0
   18.1630   -6.4633  -16.2592 N   0  0  0  0  0  0  0  0  0  0  0  0
   19.2026   -6.9664  -15.4310 C   0  0  0  0  0  0  0  0  0  0  0  0
   20.0626   -6.1604  -14.9954 O   0  0  0  0  0  0  0  0  0  0  0  0
   19.2266   -8.4096  -15.1202 C   0  0  0  0  0  0  0  0  0  0  0  0
   20.5822   -8.9595  -15.3622 C   0  0  2  0  0  0  0  0  0  0  0  0
   20.7474  -10.3312  -14.9838 N   0  0  0  0  0  0  0  0  0  0  0  0
   21.5841   -8.1675  -14.6127 C   0  0  0  0  0  0  0  0  0  0  0  0
   22.2759   -7.0770  -15.1219 O   0  0  0  0  0  0  0  0  0  0  0  0
   21.8899   -8.4485  -13.3997 O   0  0  0  0  0  0  0  0  0  0  0  0
  2  1  1  0
  3  2  1  0
  3  5  1  0
  3  4  1  1
  5 12  1  0
  5  6  2  0
  7  8  1  0
  8  9  1  0
  9 11  1  0
  9 10  1  1
 11 13  1  0
 11 12  1  6
 13 20  1  0
 13 14  2  0
 16 18  1  0
 16 15  1  0
 17 16  2  0
 19 18  1  1
 19 21  1  0
 20 19  1  0
 21 22  1  0
 23 21  2  0
M  END
$$$$
