SIN.pdb
     RDKit          3D

 23 22  0  0  1  0  0  0  0  0999 V2000
   26.4871  -19.9385  -17.2085 O   0  0  0  0  0  0  0  0  0  0  0  0
   27.5164  -19.6876  -16.3388 C   0  0  0  0  0  0  0  0  0  0  0  0
   27.8776  -20.9598  -15.6079 C   0  0  2  0  0  0  0  0  0  0  0  0
   28.1371  -22.0095  -16.6124 N   0  0  0  0  0  0  0  0  0  0  0  0
   26.8414  -21.4571  -14.7054 C   0  0  0  0  0  0  0  0  0  0  0  0
   26.0658  -22.3786  -15.0906 O   0  0  0  0  0  0  0  0  0  0  0  0
   25.0114  -20.9787   -8.8155 C   0  0  0  0  0  0  0  0  0  0  0  0
   24.7349  -21.4398  -10.2188 C   0  0  0  0  0  0  0  0  0  0  0  0
   25.8355  -20.9437  -11.1124 C   0  0  2  0  0  0  0  0  0  0  0  0
   25.8981  -19.4172  -11.0159 C   0  0  0  0  0  0  0  0  0  0  0  0
   25.6407  -21.3556  -12.5625 C   0  0  2  0  0  0  0  0  0  0  0  0
   26.7181  -20.8970  -13.3936 N   0  0  0  0  0  0  0  0  0  0  0  0
   24.3754  -20.7548  -13.0326 C   0  0  0  0  0  0  0  0  0  0  0  0
   24.3963  -19.5526  -13.4153 O   0  0  0  0  0  0  0  0  0  0  0  0
   19.6617  -20.8094  -16.4482 N   0  0  0  0  0  0  0  0  0  0  0  0
   20.5857  -20.2245  -15.5406 C   0  0  0  0  0  0  0  0  0  0  0  0
   20.3980  -19.0354  -15.1801 O   0  0  0  0  0  0  0  0  0  0  0  0
   21.7223  -21.0369  -15.0630 C   0  0  0  0  0  0  0  0  0  0  0  0
   21.9901  -20.7463  -13.6339 C   0  0  2  0  0  0  0  0  0  0  0  0
   23.1318  -21.4198  -13.0904 N   0  0  0  0  0  0  0  0  0  0  0  0
   20.8163  -21.1306  -12.8169 C   0  0  0  0  0  0  0  0  0  0  0  0
   19.5928  -20.4750  -12.8280 O   0  0  0  0  0  0  0  0  0  0  0  0
   20.8555  -22.1308  -12.0157 O   0  0  0  0  0  0  0  0  0  0  0  0
  2  1  1  0
  3  2  1  0
  3  5  1  0
  3  4  1  6
  5 12  1  0
  5  6  2  0
  7  8  1  0
  8  9  1  0
  9 11  1  0
  9 10  1  6
 11 13  1  0
 11 12  1  6
 13 20  1  0
 13 14  2  0
 16 18  1  0
 16 15  1  0
 17 16  2  0
 19 18  1  6
 19 21  1  0
 20 19  1  0
 21 22  1  0
 23 21  2  0
M  END
$$$$
