SIN.pdb
     RDKit          3D

 23 22  0  0  1  0  0  0  0  0999 V2000
   16.7300  -10.4909  -19.0697 O   0  0  0  0  0  0  0  0  0  0  0  0
   17.1720  -10.0077  -17.8655 C   0  0  0  0  0  0  0  0  0  0  0  0
   18.0173  -11.0578  -17.1830 C   0  0  2  0  0  0  0  0  0  0  0  0
   17.1135  -12.0700  -16.6025 N   0  0  0  0  0  0  0  0  0  0  0  0
   18.8638  -10.5501  -16.1053 C   0  0  0  0  0  0  0  0  0  0  0  0
   18.3672  -10.3541  -14.9590 O   0  0  0  0  0  0  0  0  0  0  0  0
   23.7702  -12.3136  -14.8423 C   0  0  0  0  0  0  0  0  0  0  0  0
   22.3662  -11.7776  -14.8500 C   0  0  0  0  0  0  0  0  0  0  0  0
   22.4106  -10.3218  -15.2171 C   0  0  2  0  0  0  0  0  0  0  0  0
   23.2451   -9.5755  -14.1730 C   0  0  0  0  0  0  0  0  0  0  0  0
   21.0266   -9.6991  -15.3039 C   0  0  2  0  0  0  0  0  0  0  0  0
   20.2474  -10.2832  -16.3592 N   0  0  0  0  0  0  0  0  0  0  0  0
   21.2007   -8.2564  -15.5705 C   0  0  0  0  0  0  0  0  0  0  0  0
   21.8120   -7.9171  -16.6209 O   0  0  0  0  0  0  0  0  0  0  0  0
   20.0246   -2.5447  -14.5265 N   0  0  0  0  0  0  0  0  0  0  0  0
   20.1348   -3.6042  -15.4673 C   0  0  0  0  0  0  0  0  0  0  0  0
   20.5291   -3.3330  -16.6292 O   0  0  0  0  0  0  0  0  0  0  0  0
   19.7817   -4.9726  -15.0396 C   0  0  0  0  0  0  0  0  0  0  0  0
   20.9745   -5.8507  -15.1088 C   0  0  2  0  0  0  0  0  0  0  0  0
   20.7355   -7.2142  -14.7400 N   0  0  0  0  0  0  0  0  0  0  0  0
   22.0334   -5.3272  -14.2157 C   0  0  0  0  0  0  0  0  0  0  0  0
   23.0317   -4.4434  -14.6016 O   0  0  0  0  0  0  0  0  0  0  0  0
   22.0998   -5.6699  -12.9820 O   0  0  0  0  0  0  0  0  0  0  0  0
  2  1  1  0
  3  2  1  0
  3  5  1  0
  3  4  1  1
  5 12  1  0
  5  6  2  0
  7  8  1  0
  8  9  1  0
  9 11  1  0
  9 10  1  1
 11 13  1  0
 11 12  1  6
 13 20  1  0
 13 14  2  0
 16 18  1  0
 16 15  1  0
 17 16  2  0
 19 18  1  1
 19 21  1  0
 20 19  1  0
 21 22  1  0
 23 21  2  0
M  END
$$$$
