SIN.pdb
     RDKit          3D

 23 22  0  0  1  0  0  0  0  0999 V2000
   19.0137  -24.3807   -9.1351 O   0  0  0  0  0  0  0  0  0  0  0  0
   20.0147  -23.9866   -8.2857 C   0  0  0  0  0  0  0  0  0  0  0  0
   19.8401  -22.5241   -7.9483 C   0  0  2  0  0  0  0  0  0  0  0  0
   18.4218  -22.1709   -8.1535 N   0  0  0  0  0  0  0  0  0  0  0  0
   20.6450  -21.6132   -8.7595 C   0  0  0  0  0  0  0  0  0  0  0  0
   20.0728  -20.7540   -9.4896 O   0  0  0  0  0  0  0  0  0  0  0  0
   26.0557  -20.5651   -7.5310 C   0  0  0  0  0  0  0  0  0  0  0  0
   24.5942  -20.3682   -7.8199 C   0  0  0  0  0  0  0  0  0  0  0  0
   24.3117  -20.8500   -9.2142 C   0  0  2  0  0  0  0  0  0  0  0  0
   25.0863  -19.9759  -10.2040 C   0  0  0  0  0  0  0  0  0  0  0  0
   22.8306  -20.8165   -9.5547 C   0  0  2  0  0  0  0  0  0  0  0  0
   22.0733  -21.7022   -8.7157 N   0  0  0  0  0  0  0  0  0  0  0  0
   22.6853  -21.2391  -10.9629 C   0  0  0  0  0  0  0  0  0  0  0  0
   22.5387  -22.4696  -11.2005 O   0  0  0  0  0  0  0  0  0  0  0  0
   20.9251  -21.3908  -15.6385 N   0  0  0  0  0  0  0  0  0  0  0  0
   20.0265  -21.1571  -14.5626 C   0  0  0  0  0  0  0  0  0  0  0  0
   18.7963  -21.3112  -14.7674 O   0  0  0  0  0  0  0  0  0  0  0  0
   20.5760  -20.7444  -13.2559 C   0  0  0  0  0  0  0  0  0  0  0  0
   22.0579  -20.7728  -13.2954 C   0  0  2  0  0  0  0  0  0  0  0  0
   22.6965  -20.3726  -12.0771 N   0  0  0  0  0  0  0  0  0  0  0  0
   22.5468  -19.8775  -14.3689 C   0  0  0  0  0  0  0  0  0  0  0  0
   22.6821  -20.2379  -15.7025 O   0  0  0  0  0  0  0  0  0  0  0  0
   22.8904  -18.6662  -14.1271 O   0  0  0  0  0  0  0  0  0  0  0  0
  2  1  1  0
  3  2  1  0
  3  5  1  0
  3  4  1  6
  5 12  1  0
  5  6  2  0
  7  8  1  0
  8  9  1  0
  9 11  1  0
  9 10  1  6
 11 13  1  0
 11 12  1  1
 13 20  1  0
 13 14  2  0
 16 18  1  0
 16 15  1  0
 17 16  2  0
 19 18  1  1
 19 21  1  0
 20 19  1  0
 21 22  1  0
 23 21  2  0
M  END
$$$$
