NKN.pdb
     RDKit          3D

 26 25  0  0  1  0  0  0  0  0999 V2000
   29.0413  -21.1121  -18.4029 N   0  0  0  0  0  0  0  0  0  0  0  0
   27.7352  -20.5941  -18.4924 C   0  0  0  0  0  0  0  0  0  0  0  0
   27.3439  -20.0993  -19.5726 O   0  0  0  0  0  0  0  0  0  0  0  0
   26.8205  -20.6231  -17.3388 C   0  0  0  0  0  0  0  0  0  0  0  0
   27.4756  -21.1464  -16.0902 C   0  0  2  0  0  0  0  0  0  0  0  0
   28.2450  -22.3467  -16.3494 N   0  0  0  0  0  0  0  0  0  0  0  0
   26.4423  -21.3538  -15.0593 C   0  0  0  0  0  0  0  0  0  0  0  0
   25.2613  -21.7086  -15.3325 O   0  0  0  0  0  0  0  0  0  0  0  0
   26.7538  -21.1575  -13.7097 N   0  0  0  0  0  0  0  0  0  0  0  0
   25.7513  -21.1805  -12.6433 C   0  0  1  0  0  0  0  0  0  0  0  0
   26.3187  -20.7072  -11.3586 C   0  0  0  0  0  0  0  0  0  0  0  0
   25.3317  -20.8287  -10.2357 C   0  0  0  0  0  0  0  0  0  0  0  0
   25.9718  -20.4410   -8.9008 C   0  0  0  0  0  0  0  0  0  0  0  0
   24.8918  -20.6041   -7.8508 C   0  0  0  0  0  0  0  0  0  0  0  0
   25.4520  -20.3421   -6.5396 N   0  0  0  0  0  0  0  0  0  0  0  0
   24.5469  -20.4685  -13.0747 C   0  0  0  0  0  0  0  0  0  0  0  0
   24.4545  -19.2474  -13.3296 O   0  0  0  0  0  0  0  0  0  0  0  0
   22.6998  -20.7872  -17.0986 N   0  0  0  0  0  0  0  0  0  0  0  0
   22.2648  -20.1210  -15.8988 C   0  0  0  0  0  0  0  0  0  0  0  0
   22.4831  -18.8920  -15.7716 O   0  0  0  0  0  0  0  0  0  0  0  0
   21.5693  -20.8773  -14.8303 C   0  0  0  0  0  0  0  0  0  0  0  0
   22.0930  -20.5351  -13.4718 C   0  0  2  0  0  0  0  0  0  0  0  0
   23.3354  -21.2180  -13.2299 N   0  0  0  0  0  0  0  0  0  0  0  0
   21.0839  -20.8365  -12.4239 C   0  0  0  0  0  0  0  0  0  0  0  0
   21.0904  -22.0739  -11.7960 O   0  0  0  0  0  0  0  0  0  0  0  0
   20.2101  -20.0129  -12.0718 O   0  0  0  0  0  0  0  0  0  0  0  0
  2  1  1  0
  2  3  2  0
  4  5  1  0
  4  2  1  0
  5  7  1  0
  5  6  1  6
  7  8  2  0
  9 10  1  0
  9  7  1  0
 11 12  1  0
 10 11  1  1
 13 14  1  0
 13 12  1  0
 15 14  1  0
 16 17  2  0
 16 10  1  0
 18 19  1  0
 19 20  2  0
 19 21  1  0
 22 21  1  6
 22 24  1  0
 22 23  1  0
 23 16  1  0
 24 25  1  0
 26 24  2  0
M  END
$$$$
