NKN.pdb
     RDKit          3D

 26 25  0  0  1  0  0  0  0  0999 V2000
   25.3210  -20.7615   -7.7452 N   0  0  0  0  0  0  0  0  0  0  0  0
   26.4471  -20.0236   -8.1573 C   0  0  0  0  0  0  0  0  0  0  0  0
   27.2329  -19.5707   -7.2958 O   0  0  0  0  0  0  0  0  0  0  0  0
   26.7180  -19.7745   -9.5830 C   0  0  0  0  0  0  0  0  0  0  0  0
   25.6724  -20.3688  -10.4862 C   0  0  2  0  0  0  0  0  0  0  0  0
   25.5156  -21.7921  -10.2632 N   0  0  0  0  0  0  0  0  0  0  0  0
   26.0146  -20.0543  -11.8852 C   0  0  0  0  0  0  0  0  0  0  0  0
   26.1972  -18.8749  -12.2989 O   0  0  0  0  0  0  0  0  0  0  0  0
   26.1507  -21.0867  -12.8194 N   0  0  0  0  0  0  0  0  0  0  0  0
   26.2336  -20.8570  -14.2627 C   0  0  1  0  0  0  0  0  0  0  0  0
   27.2300  -21.7529  -14.8957 C   0  0  0  0  0  0  0  0  0  0  0  0
   27.4100  -21.4445  -16.3525 C   0  0  0  0  0  0  0  0  0  0  0  0
   28.5255  -22.2991  -16.9586 C   0  0  0  0  0  0  0  0  0  0  0  0
   28.6845  -21.8328  -18.3913 C   0  0  0  0  0  0  0  0  0  0  0  0
   29.8943  -22.4023  -18.9512 N   0  0  0  0  0  0  0  0  0  0  0  0
   24.8964  -20.9197  -14.8559 C   0  0  0  0  0  0  0  0  0  0  0  0
   24.1261  -21.9051  -14.8540 O   0  0  0  0  0  0  0  0  0  0  0  0
   21.3881  -20.6435  -12.7717 N   0  0  0  0  0  0  0  0  0  0  0  0
   21.5420  -20.5815  -14.2017 C   0  0  0  0  0  0  0  0  0  0  0  0
   21.1894  -21.5658  -14.8952 O   0  0  0  0  0  0  0  0  0  0  0  0
   22.1089  -19.3716  -14.8439 C   0  0  0  0  0  0  0  0  0  0  0  0
   23.0282  -19.7164  -15.9721 C   0  0  2  0  0  0  0  0  0  0  0  0
   24.3906  -19.7506  -15.5124 N   0  0  0  0  0  0  0  0  0  0  0  0
   22.8515  -18.7733  -17.1064 C   0  0  0  0  0  0  0  0  0  0  0  0
   21.6386  -18.7228  -17.7785 O   0  0  0  0  0  0  0  0  0  0  0  0
   23.7609  -18.0062  -17.4940 O   0  0  0  0  0  0  0  0  0  0  0  0
  2  1  1  0
  2  3  2  0
  4  5  1  0
  4  2  1  0
  5  7  1  0
  5  6  1  6
  7  8  2  0
  9 10  1  0
  9  7  1  0
 11 12  1  0
 10 11  1  6
 13 14  1  0
 13 12  1  0
 15 14  1  0
 16 17  2  0
 16 10  1  0
 18 19  1  0
 19 20  2  0
 19 21  1  0
 22 21  1  1
 22 24  1  0
 22 23  1  0
 23 16  1  0
 24 25  1  0
 26 24  2  0
M  END
$$$$
