NKN.pdb
     RDKit          3D

 26 25  0  0  1  0  0  0  0  0999 V2000
   28.2153  -21.0690  -14.9212 N   0  0  0  0  0  0  0  0  0  0  0  0
   27.8045  -20.6629  -16.2052 C   0  0  0  0  0  0  0  0  0  0  0  0
   28.5967  -20.7739  -17.1669 O   0  0  0  0  0  0  0  0  0  0  0  0
   26.4600  -20.1095  -16.4382 C   0  0  0  0  0  0  0  0  0  0  0  0
   25.6403  -20.0237  -15.1801 C   0  0  2  0  0  0  0  0  0  0  0  0
   25.8752  -21.1564  -14.3072 N   0  0  0  0  0  0  0  0  0  0  0  0
   24.2189  -19.8813  -15.5445 C   0  0  0  0  0  0  0  0  0  0  0  0
   23.8353  -19.3049  -16.6009 O   0  0  0  0  0  0  0  0  0  0  0  0
   23.2277  -20.3979  -14.7032 N   0  0  0  0  0  0  0  0  0  0  0  0
   21.7956  -20.2716  -14.9788 C   0  0  1  0  0  0  0  0  0  0  0  0
   21.0101  -21.2777  -14.2258 C   0  0  0  0  0  0  0  0  0  0  0  0
   19.5681  -21.2807  -14.6385 C   0  0  0  0  0  0  0  0  0  0  0  0
   18.8201  -22.4552  -14.0033 C   0  0  0  0  0  0  0  0  0  0  0  0
   17.4032  -22.3919  -14.5361 C   0  0  0  0  0  0  0  0  0  0  0  0
   16.6378  -23.5004  -14.0004 N   0  0  0  0  0  0  0  0  0  0  0  0
   21.3674  -18.8869  -14.7716 C   0  0  0  0  0  0  0  0  0  0  0  0
   21.4443  -18.2348  -13.7069 O   0  0  0  0  0  0  0  0  0  0  0  0
   19.3164  -14.2473  -15.6742 N   0  0  0  0  0  0  0  0  0  0  0  0
   20.4925  -14.5088  -16.4620 C   0  0  0  0  0  0  0  0  0  0  0  0
   21.0507  -13.5559  -17.0575 O   0  0  0  0  0  0  0  0  0  0  0  0
   21.0350  -15.8845  -16.5673 C   0  0  0  0  0  0  0  0  0  0  0  0
   20.2890  -16.8473  -15.6995 C   0  0  2  0  0  0  0  0  0  0  0  0
   20.7987  -18.1800  -15.8807 N   0  0  0  0  0  0  0  0  0  0  0  0
   18.8284  -16.7742  -15.9614 C   0  0  0  0  0  0  0  0  0  0  0  0
   18.0139  -16.0271  -15.1223 O   0  0  0  0  0  0  0  0  0  0  0  0
   18.2846  -17.3651  -16.9210 O   0  0  0  0  0  0  0  0  0  0  0  0
  2  1  1  0
  2  3  2  0
  4  5  1  0
  4  2  1  0
  5  7  1  0
  5  6  1  1
  7  8  2  0
  9 10  1  0
  9  7  1  0
 11 12  1  0
 10 11  1  1
 13 14  1  0
 13 12  1  0
 15 14  1  0
 16 17  2  0
 16 10  1  0
 18 19  1  0
 19 20  2  0
 19 21  1  0
 22 21  1  6
 22 24  1  0
 22 23  1  0
 23 16  1  0
 24 25  1  0
 26 24  2  0
M  END
$$$$
