NKN.pdb
     RDKit          3D

 26 25  0  0  1  0  0  0  0  0999 V2000
   19.4091  -10.8488  -12.9123 N   0  0  0  0  0  0  0  0  0  0  0  0
   19.6911   -9.4868  -13.1309 C   0  0  0  0  0  0  0  0  0  0  0  0
   20.7466   -9.1654  -13.7203 O   0  0  0  0  0  0  0  0  0  0  0  0
   18.7675   -8.4328  -12.6790 C   0  0  0  0  0  0  0  0  0  0  0  0
   17.5614   -8.9821  -11.9679 C   0  0  2  0  0  0  0  0  0  0  0  0
   16.7572   -9.8157  -12.8388 N   0  0  0  0  0  0  0  0  0  0  0  0
   16.7923   -7.8619  -11.3961 C   0  0  0  0  0  0  0  0  0  0  0  0
   16.2788   -6.9498  -12.1031 O   0  0  0  0  0  0  0  0  0  0  0  0
   16.6052   -7.7784  -10.0122 N   0  0  0  0  0  0  0  0  0  0  0  0
   15.6939   -6.8217   -9.3820 C   0  0  1  0  0  0  0  0  0  0  0  0
   14.7966   -7.4904   -8.4104 C   0  0  0  0  0  0  0  0  0  0  0  0
   13.5711   -8.0446   -9.0744 C   0  0  0  0  0  0  0  0  0  0  0  0
   12.6438   -8.7018   -8.0495 C   0  0  0  0  0  0  0  0  0  0  0  0
   11.4693   -9.2512   -8.8331 C   0  0  0  0  0  0  0  0  0  0  0  0
   10.5449   -9.8991   -7.9235 N   0  0  0  0  0  0  0  0  0  0  0  0
   16.4527   -5.6960   -8.8337 C   0  0  0  0  0  0  0  0  0  0  0  0
   17.3892   -5.7612   -8.0071 O   0  0  0  0  0  0  0  0  0  0  0  0
   18.0714   -0.9647   -7.7525 N   0  0  0  0  0  0  0  0  0  0  0  0
   18.0653   -1.1981   -9.1731 C   0  0  0  0  0  0  0  0  0  0  0  0
   18.5801   -0.3427   -9.9329 O   0  0  0  0  0  0  0  0  0  0  0  0
   17.4591   -2.4318   -9.7285 C   0  0  0  0  0  0  0  0  0  0  0  0
   16.7602   -3.2334   -8.6770 C   0  0  2  0  0  0  0  0  0  0  0  0
   16.1122   -4.3735   -9.2677 N   0  0  0  0  0  0  0  0  0  0  0  0
   15.8049   -2.3886   -7.9147 C   0  0  0  0  0  0  0  0  0  0  0  0
   16.2775   -1.5197   -6.9414 O   0  0  0  0  0  0  0  0  0  0  0  0
   14.5695   -2.4222   -8.1107 O   0  0  0  0  0  0  0  0  0  0  0  0
  2  1  1  0
  2  3  2  0
  4  5  1  0
  4  2  1  0
  5  7  1  0
  5  6  1  6
  7  8  2  0
  9 10  1  0
  9  7  1  0
 11 12  1  0
 10 11  1  1
 13 14  1  0
 13 12  1  0
 15 14  1  0
 16 17  2  0
 16 10  1  0
 18 19  1  0
 19 20  2  0
 19 21  1  0
 22 21  1  6
 22 24  1  0
 22 23  1  0
 23 16  1  0
 24 25  1  0
 26 24  2  0
M  END
$$$$
