NKN.pdb
     RDKit          3D

 26 25  0  0  1  0  0  0  0  0999 V2000
   28.1372  -20.0620  -12.9113 N   0  0  0  0  0  0  0  0  0  0  0  0
   27.7561  -21.0694  -13.8180 C   0  0  0  0  0  0  0  0  0  0  0  0
   28.6344  -21.6574  -14.4870 O   0  0  0  0  0  0  0  0  0  0  0  0
   26.3432  -21.4445  -13.9943 C   0  0  0  0  0  0  0  0  0  0  0  0
   25.4255  -20.7136  -13.0531 C   0  0  2  0  0  0  0  0  0  0  0  0
   25.5697  -21.1825  -11.6896 N   0  0  0  0  0  0  0  0  0  0  0  0
   24.0411  -20.8349  -13.5450 C   0  0  0  0  0  0  0  0  0  0  0  0
   23.7367  -20.7479  -14.7677 O   0  0  0  0  0  0  0  0  0  0  0  0
   22.9965  -21.0571  -12.6414 N   0  0  0  0  0  0  0  0  0  0  0  0
   21.5962  -21.1834  -13.0490 C   0  0  1  0  0  0  0  0  0  0  0  0
   20.7961  -21.8891  -12.0204 C   0  0  0  0  0  0  0  0  0  0  0  0
   19.3887  -22.1313  -12.4792 C   0  0  0  0  0  0  0  0  0  0  0  0
   18.6200  -22.9777  -11.4619 C   0  0  0  0  0  0  0  0  0  0  0  0
   17.2742  -23.2758  -12.0909 C   0  0  0  0  0  0  0  0  0  0  0  0
   16.4932  -24.0989  -11.1885 N   0  0  0  0  0  0  0  0  0  0  0  0
   21.0688  -19.8737  -13.4364 C   0  0  0  0  0  0  0  0  0  0  0  0
   21.3640  -18.7709  -12.9253 O   0  0  0  0  0  0  0  0  0  0  0  0
   21.9424  -16.3276  -17.1993 N   0  0  0  0  0  0  0  0  0  0  0  0
   20.9555  -17.3757  -17.1974 C   0  0  0  0  0  0  0  0  0  0  0  0
   19.9705  -17.2857  -17.9694 O   0  0  0  0  0  0  0  0  0  0  0  0
   21.1023  -18.5435  -16.2961 C   0  0  0  0  0  0  0  0  0  0  0  0
   19.9935  -18.6200  -15.2954 C   0  0  2  0  0  0  0  0  0  0  0  0
   20.1164  -19.8157  -14.5056 N   0  0  0  0  0  0  0  0  0  0  0  0
   18.6697  -18.5336  -15.9643 C   0  0  0  0  0  0  0  0  0  0  0  0
   18.1230  -19.6615  -16.5596 O   0  0  0  0  0  0  0  0  0  0  0  0
   18.0093  -17.4722  -16.0187 O   0  0  0  0  0  0  0  0  0  0  0  0
  2  1  1  0
  2  3  2  0
  4  5  1  0
  4  2  1  0
  5  7  1  0
  5  6  1  1
  7  8  2  0
  9 10  1  0
  9  7  1  0
 11 12  1  0
 10 11  1  1
 13 14  1  0
 13 12  1  0
 15 14  1  0
 16 17  2  0
 16 10  1  0
 18 19  1  0
 19 20  2  0
 19 21  1  0
 22 21  1  6
 22 24  1  0
 22 23  1  0
 23 16  1  0
 24 25  1  0
 26 24  2  0
M  END
$$$$
