NKN.pdb
     RDKit          3D

 26 25  0  0  1  0  0  0  0  0999 V2000
   19.9853  -21.3045  -12.6261 N   0  0  0  0  0  0  0  0  0  0  0  0
   19.7926  -20.0635  -13.2625 C   0  0  0  0  0  0  0  0  0  0  0  0
   18.7007  -19.4680  -13.1285 O   0  0  0  0  0  0  0  0  0  0  0  0
   20.8517  -19.4526  -14.0831 C   0  0  0  0  0  0  0  0  0  0  0  0
   22.0242  -20.3700  -14.2965 C   0  0  2  0  0  0  0  0  0  0  0  0
   22.5624  -20.8552  -13.0416 N   0  0  0  0  0  0  0  0  0  0  0  0
   23.0366  -19.6708  -15.1086 C   0  0  0  0  0  0  0  0  0  0  0  0
   23.4458  -18.5060  -14.8420 O   0  0  0  0  0  0  0  0  0  0  0  0
   23.5877  -20.3000  -16.2299 N   0  0  0  0  0  0  0  0  0  0  0  0
   24.6268  -19.6909  -17.0619 C   0  0  1  0  0  0  0  0  0  0  0  0
   25.4107  -20.7194  -17.7857 C   0  0  0  0  0  0  0  0  0  0  0  0
   26.0104  -21.7245  -16.8477 C   0  0  0  0  0  0  0  0  0  0  0  0
   26.7003  -22.8506  -17.6212 C   0  0  0  0  0  0  0  0  0  0  0  0
   27.1975  -23.8345  -16.5819 C   0  0  0  0  0  0  0  0  0  0  0  0
   27.8519  -24.9452  -17.2451 N   0  0  0  0  0  0  0  0  0  0  0  0
   24.0394  -18.6595  -17.9192 C   0  0  0  0  0  0  0  0  0  0  0  0
   22.8351  -18.5552  -18.2406 O   0  0  0  0  0  0  0  0  0  0  0  0
   21.8288  -14.5536  -19.7253 N   0  0  0  0  0  0  0  0  0  0  0  0
   22.9486  -14.5002  -18.8223 C   0  0  0  0  0  0  0  0  0  0  0  0
   23.4770  -13.3900  -18.5726 O   0  0  0  0  0  0  0  0  0  0  0  0
   23.4687  -15.7398  -18.1973 C   0  0  0  0  0  0  0  0  0  0  0  0
   24.3479  -16.5098  -19.1304 C   0  0  2  0  0  0  0  0  0  0  0  0
   24.9050  -17.6540  -18.4604 N   0  0  0  0  0  0  0  0  0  0  0  0
   25.4045  -15.6368  -19.7038 C   0  0  0  0  0  0  0  0  0  0  0  0
   26.6738  -15.6312  -19.1430 O   0  0  0  0  0  0  0  0  0  0  0  0
   25.2028  -14.8907  -20.6879 O   0  0  0  0  0  0  0  0  0  0  0  0
  2  1  1  0
  2  3  2  0
  4  5  1  0
  4  2  1  0
  5  7  1  0
  5  6  1  1
  7  8  2  0
  9 10  1  0
  9  7  1  0
 11 12  1  0
 10 11  1  6
 13 14  1  0
 13 12  1  0
 15 14  1  0
 16 17  2  0
 16 10  1  0
 18 19  1  0
 19 20  2  0
 19 21  1  0
 22 21  1  1
 22 24  1  0
 22 23  1  0
 23 16  1  0
 24 25  1  0
 26 24  2  0
M  END
$$$$
