NKN.pdb
     RDKit          3D

 26 25  0  0  1  0  0  0  0  0999 V2000
   27.0162  -23.0709  -16.6005 N   0  0  0  0  0  0  0  0  0  0  0  0
   26.2682  -23.8507  -17.5031 C   0  0  0  0  0  0  0  0  0  0  0  0
   26.5869  -23.8646  -18.7126 O   0  0  0  0  0  0  0  0  0  0  0  0
   25.1176  -24.6506  -17.0509 C   0  0  0  0  0  0  0  0  0  0  0  0
   24.8941  -24.5604  -15.5663 C   0  0  2  0  0  0  0  0  0  0  0  0
   25.8834  -25.3183  -14.8268 N   0  0  0  0  0  0  0  0  0  0  0  0
   23.5166  -24.9897  -15.2633 C   0  0  0  0  0  0  0  0  0  0  0  0
   22.5357  -24.7310  -16.0158 O   0  0  0  0  0  0  0  0  0  0  0  0
   23.2530  -25.7181  -14.0984 N   0  0  0  0  0  0  0  0  0  0  0  0
   21.9113  -26.1608  -13.7154 C   0  0  1  0  0  0  0  0  0  0  0  0
   21.9481  -27.0023  -12.4961 C   0  0  0  0  0  0  0  0  0  0  0  0
   20.5842  -27.5040  -12.1246 C   0  0  0  0  0  0  0  0  0  0  0  0
   20.6611  -28.4709  -10.9407 C   0  0  0  0  0  0  0  0  0  0  0  0
   19.2375  -28.9038  -10.6553 C   0  0  0  0  0  0  0  0  0  0  0  0
   19.2386  -29.8916   -9.5942 N   0  0  0  0  0  0  0  0  0  0  0  0
   21.0103  -25.0098  -13.6326 C   0  0  0  0  0  0  0  0  0  0  0  0
   21.2182  -23.9442  -13.0113 O   0  0  0  0  0  0  0  0  0  0  0  0
   17.7760  -20.9901  -15.2180 N   0  0  0  0  0  0  0  0  0  0  0  0
   17.6309  -22.3468  -15.6770 C   0  0  0  0  0  0  0  0  0  0  0  0
   16.5269  -22.7166  -16.1445 O   0  0  0  0  0  0  0  0  0  0  0  0
   18.7703  -23.2920  -15.5978 C   0  0  0  0  0  0  0  0  0  0  0  0
   18.8420  -23.9706  -14.2670 C   0  0  2  0  0  0  0  0  0  0  0  0
   19.7558  -25.0799  -14.3216 N   0  0  0  0  0  0  0  0  0  0  0  0
   17.4909  -24.3898  -13.8129 C   0  0  0  0  0  0  0  0  0  0  0  0
   17.1199  -25.7245  -13.8930 O   0  0  0  0  0  0  0  0  0  0  0  0
   16.6533  -23.5824  -13.3521 O   0  0  0  0  0  0  0  0  0  0  0  0
  2  1  1  0
  2  3  2  0
  4  5  1  0
  4  2  1  0
  5  7  1  0
  5  6  1  1
  7  8  2  0
  9 10  1  0
  9  7  1  0
 11 12  1  0
 10 11  1  1
 13 14  1  0
 13 12  1  0
 15 14  1  0
 16 17  2  0
 16 10  1  0
 18 19  1  0
 19 20  2  0
 19 21  1  0
 22 21  1  6
 22 24  1  0
 22 23  1  0
 23 16  1  0
 24 25  1  0
 26 24  2  0
M  END
$$$$
