NKN.pdb
     RDKit          3D

 26 25  0  0  1  0  0  0  0  0999 V2000
   17.6284  -22.0276  -11.7994 N   0  0  0  0  0  0  0  0  0  0  0  0
   17.6573  -20.6202  -11.8227 C   0  0  0  0  0  0  0  0  0  0  0  0
   16.5831  -19.9829  -11.7535 O   0  0  0  0  0  0  0  0  0  0  0  0
   18.9279  -19.8833  -11.9271 C   0  0  0  0  0  0  0  0  0  0  0  0
   20.1272  -20.7908  -11.9399 C   0  0  2  0  0  0  0  0  0  0  0  0
   20.6242  -21.0435  -10.6023 N   0  0  0  0  0  0  0  0  0  0  0  0
   21.1568  -20.2100  -12.8208 C   0  0  0  0  0  0  0  0  0  0  0  0
   21.4853  -18.9910  -12.7822 O   0  0  0  0  0  0  0  0  0  0  0  0
   21.8173  -21.0200  -13.7507 N   0  0  0  0  0  0  0  0  0  0  0  0
   22.8703  -20.5264  -14.6397 C   0  0  1  0  0  0  0  0  0  0  0  0
   24.0602  -21.4092  -14.6093 C   0  0  0  0  0  0  0  0  0  0  0  0
   25.1227  -20.9444  -15.5606 C   0  0  0  0  0  0  0  0  0  0  0  0
   26.3657  -21.8325  -15.4683 C   0  0  0  0  0  0  0  0  0  0  0  0
   27.3518  -21.2861  -16.4806 C   0  0  0  0  0  0  0  0  0  0  0  0
   28.5796  -22.0545  -16.4193 N   0  0  0  0  0  0  0  0  0  0  0  0
   22.3239  -20.2886  -15.9771 C   0  0  0  0  0  0  0  0  0  0  0  0
   21.6280  -21.0814  -16.6492 O   0  0  0  0  0  0  0  0  0  0  0  0
   23.8489  -15.9181  -18.6014 N   0  0  0  0  0  0  0  0  0  0  0  0
   22.9583  -16.4635  -17.6105 C   0  0  0  0  0  0  0  0  0  0  0  0
   23.1962  -16.2535  -16.3966 O   0  0  0  0  0  0  0  0  0  0  0  0
   21.7778  -17.2614  -18.0199 C   0  0  0  0  0  0  0  0  0  0  0  0
   22.0249  -18.7309  -17.8923 C   0  0  2  0  0  0  0  0  0  0  0  0
   22.5962  -19.0305  -16.6067 N   0  0  0  0  0  0  0  0  0  0  0  0
   22.8786  -19.2228  -19.0042 C   0  0  0  0  0  0  0  0  0  0  0  0
   22.3595  -19.3028  -20.2887 O   0  0  0  0  0  0  0  0  0  0  0  0
   24.0672  -19.5762  -18.8369 O   0  0  0  0  0  0  0  0  0  0  0  0
  2  1  1  0
  2  3  2  0
  4  5  1  0
  4  2  1  0
  5  7  1  0
  5  6  1  1
  7  8  2  0
  9 10  1  0
  9  7  1  0
 11 12  1  0
 10 11  1  6
 13 14  1  0
 13 12  1  0
 15 14  1  0
 16 17  2  0
 16 10  1  0
 18 19  1  0
 19 20  2  0
 19 21  1  0
 22 21  1  6
 22 24  1  0
 22 23  1  0
 23 16  1  0
 24 25  1  0
 26 24  2  0
M  END
$$$$
