NKN.pdb
     RDKit          3D

 26 25  0  0  1  0  0  0  0  0999 V2000
   28.9975  -11.2601  -16.4103 N   0  0  0  0  0  0  0  0  0  0  0  0
   27.7181  -11.6973  -16.0177 C   0  0  0  0  0  0  0  0  0  0  0  0
   27.5678  -12.8716  -15.6138 O   0  0  0  0  0  0  0  0  0  0  0  0
   26.5528  -10.7988  -16.0735 C   0  0  0  0  0  0  0  0  0  0  0  0
   25.4462  -11.3346  -16.9398 C   0  0  2  0  0  0  0  0  0  0  0  0
   25.8645  -11.4758  -18.3200 N   0  0  0  0  0  0  0  0  0  0  0  0
   24.2643  -10.4650  -16.7976 C   0  0  0  0  0  0  0  0  0  0  0  0
   24.1823   -9.3246  -17.3344 O   0  0  0  0  0  0  0  0  0  0  0  0
   23.1686  -10.8948  -16.0414 N   0  0  0  0  0  0  0  0  0  0  0  0
   21.9025  -10.1631  -15.9757 C   0  0  1  0  0  0  0  0  0  0  0  0
   20.7663  -11.0737  -15.6998 C   0  0  0  0  0  0  0  0  0  0  0  0
   19.4564  -10.3430  -15.6919 C   0  0  0  0  0  0  0  0  0  0  0  0
   18.2860  -11.3202  -15.5602 C   0  0  0  0  0  0  0  0  0  0  0  0
   17.0253  -10.4850  -15.6527 C   0  0  0  0  0  0  0  0  0  0  0  0
   15.8713  -11.3267  -15.4049 N   0  0  0  0  0  0  0  0  0  0  0  0
   22.0222   -9.0407  -15.0432 C   0  0  0  0  0  0  0  0  0  0  0  0
   22.2399   -9.1138  -13.8136 O   0  0  0  0  0  0  0  0  0  0  0  0
   23.2260   -3.5618  -16.3954 N   0  0  0  0  0  0  0  0  0  0  0  0
   22.8014   -4.9314  -16.2670 C   0  0  0  0  0  0  0  0  0  0  0  0
   22.2191   -5.4813  -17.2328 O   0  0  0  0  0  0  0  0  0  0  0  0
   23.0492   -5.6797  -15.0115 C   0  0  0  0  0  0  0  0  0  0  0  0
   21.9101   -6.5852  -14.6665 C   0  0  2  0  0  0  0  0  0  0  0  0
   21.8804   -7.7118  -15.5601 N   0  0  0  0  0  0  0  0  0  0  0  0
   20.6233   -5.8427  -14.6708 C   0  0  0  0  0  0  0  0  0  0  0  0
   19.6472   -6.1601  -15.6047 O   0  0  0  0  0  0  0  0  0  0  0  0
   20.3704   -4.9261  -13.8574 O   0  0  0  0  0  0  0  0  0  0  0  0
  2  1  1  0
  2  3  2  0
  4  5  1  0
  4  2  1  0
  5  7  1  0
  5  6  1  6
  7  8  2  0
  9 10  1  0
  9  7  1  0
 11 12  1  0
 10 11  1  1
 13 14  1  0
 13 12  1  0
 15 14  1  0
 16 17  2  0
 16 10  1  0
 18 19  1  0
 19 20  2  0
 19 21  1  0
 22 21  1  6
 22 24  1  0
 22 23  1  0
 23 16  1  0
 24 25  1  0
 26 24  2  0
M  END
$$$$
