NKN.pdb
     RDKit          3D

 26 25  0  0  1  0  0  0  0  0999 V2000
   26.8159  -16.3007  -21.1777 N   0  0  0  0  0  0  0  0  0  0  0  0
   25.8603  -16.0123  -20.1849 C   0  0  0  0  0  0  0  0  0  0  0  0
   25.6913  -14.8273  -19.8214 O   0  0  0  0  0  0  0  0  0  0  0  0
   25.0557  -17.0787  -19.5655 C   0  0  0  0  0  0  0  0  0  0  0  0
   25.0948  -17.0384  -18.0626 C   0  0  2  0  0  0  0  0  0  0  0  0
   26.4500  -17.1304  -17.5575 N   0  0  0  0  0  0  0  0  0  0  0  0
   24.2250  -18.1044  -17.5330 C   0  0  0  0  0  0  0  0  0  0  0  0
   23.0473  -18.2983  -17.9463 O   0  0  0  0  0  0  0  0  0  0  0  0
   24.6971  -18.9557  -16.5283 N   0  0  0  0  0  0  0  0  0  0  0  0
   23.8796  -20.0036  -15.9148 C   0  0  1  0  0  0  0  0  0  0  0  0
   24.7139  -21.1374  -15.4515 C   0  0  0  0  0  0  0  0  0  0  0  0
   24.2730  -22.4369  -16.0571 C   0  0  0  0  0  0  0  0  0  0  0  0
   25.0162  -23.6153  -15.4236 C   0  0  0  0  0  0  0  0  0  0  0  0
   24.5344  -24.8567  -16.1462 C   0  0  0  0  0  0  0  0  0  0  0  0
   25.2942  -26.0041  -15.6903 N   0  0  0  0  0  0  0  0  0  0  0  0
   23.0156  -19.4240  -14.8846 C   0  0  0  0  0  0  0  0  0  0  0  0
   23.3825  -18.9347  -13.7935 O   0  0  0  0  0  0  0  0  0  0  0  0
   18.9702  -17.6779  -12.3236 N   0  0  0  0  0  0  0  0  0  0  0  0
   18.8519  -17.3116  -13.7107 C   0  0  0  0  0  0  0  0  0  0  0  0
   17.9708  -16.4849  -14.0491 O   0  0  0  0  0  0  0  0  0  0  0  0
   19.7586  -17.9034  -14.7234 C   0  0  0  0  0  0  0  0  0  0  0  0
   20.7143  -18.8798  -14.1152 C   0  0  2  0  0  0  0  0  0  0  0  0
   21.6023  -19.4000  -15.1200 N   0  0  0  0  0  0  0  0  0  0  0  0
   19.9852  -19.9638  -13.4077 C   0  0  0  0  0  0  0  0  0  0  0  0
   19.7022  -19.8357  -12.0552 O   0  0  0  0  0  0  0  0  0  0  0  0
   19.6058  -21.0085  -13.9824 O   0  0  0  0  0  0  0  0  0  0  0  0
  2  1  1  0
  2  3  2  0
  4  5  1  0
  4  2  1  0
  5  7  1  0
  5  6  1  6
  7  8  2  0
  9 10  1  0
  9  7  1  0
 11 12  1  0
 10 11  1  1
 13 14  1  0
 13 12  1  0
 15 14  1  0
 16 17  2  0
 16 10  1  0
 18 19  1  0
 19 20  2  0
 19 21  1  0
 22 21  1  6
 22 24  1  0
 22 23  1  0
 23 16  1  0
 24 25  1  0
 26 24  2  0
M  END
$$$$
