NKN.pdb
     RDKit          3D

 26 25  0  0  1  0  0  0  0  0999 V2000
   21.4161  -13.8883  -17.5943 N   0  0  0  0  0  0  0  0  0  0  0  0
   21.1171  -13.1064  -18.7263 C   0  0  0  0  0  0  0  0  0  0  0  0
   20.9124  -13.6693  -19.8244 O   0  0  0  0  0  0  0  0  0  0  0  0
   21.0409  -11.6382  -18.6428 C   0  0  0  0  0  0  0  0  0  0  0  0
   21.2866  -11.1212  -17.2520 C   0  0  2  0  0  0  0  0  0  0  0  0
   21.2009  -12.1770  -16.2631 N   0  0  0  0  0  0  0  0  0  0  0  0
   20.3469  -10.0187  -16.9789 C   0  0  0  0  0  0  0  0  0  0  0  0
   20.1943   -9.0373  -17.7593 O   0  0  0  0  0  0  0  0  0  0  0  0
   19.5753  -10.0323  -15.8120 N   0  0  0  0  0  0  0  0  0  0  0  0
   18.7382   -8.9079  -15.3904 C   0  0  1  0  0  0  0  0  0  0  0  0
   17.5682   -9.3698  -14.6069 C   0  0  0  0  0  0  0  0  0  0  0  0
   16.5840  -10.1122  -15.4613 C   0  0  0  0  0  0  0  0  0  0  0  0
   15.4696  -10.7217  -14.6077 C   0  0  0  0  0  0  0  0  0  0  0  0
   14.5693  -11.4768  -15.5642 C   0  0  0  0  0  0  0  0  0  0  0  0
   13.5586  -12.1922  -14.8103 N   0  0  0  0  0  0  0  0  0  0  0  0
   19.5591   -7.8984  -14.7191 C   0  0  0  0  0  0  0  0  0  0  0  0
   20.6014   -8.1046  -14.0589 O   0  0  0  0  0  0  0  0  0  0  0  0
   22.6067   -4.3889  -13.0308 N   0  0  0  0  0  0  0  0  0  0  0  0
   22.2783   -4.5255  -14.4258 C   0  0  0  0  0  0  0  0  0  0  0  0
   22.7629   -3.7109  -15.2479 O   0  0  0  0  0  0  0  0  0  0  0  0
   21.3807   -5.6133  -14.8827 C   0  0  0  0  0  0  0  0  0  0  0  0
   20.0099   -5.4894  -14.2977 C   0  0  2  0  0  0  0  0  0  0  0  0
   19.1543   -6.5267  -14.8083 N   0  0  0  0  0  0  0  0  0  0  0  0
   19.4478   -4.1370  -14.5474 C   0  0  0  0  0  0  0  0  0  0  0  0
   19.6697   -3.1182  -13.6317 O   0  0  0  0  0  0  0  0  0  0  0  0
   18.7700   -3.8651  -15.5634 O   0  0  0  0  0  0  0  0  0  0  0  0
  2  1  1  0
  2  3  2  0
  4  5  1  0
  4  2  1  0
  5  7  1  0
  5  6  1  1
  7  8  2  0
  9 10  1  0
  9  7  1  0
 11 12  1  0
 10 11  1  1
 13 14  1  0
 13 12  1  0
 15 14  1  0
 16 17  2  0
 16 10  1  0
 18 19  1  0
 19 20  2  0
 19 21  1  0
 22 21  1  6
 22 24  1  0
 22 23  1  0
 23 16  1  0
 24 25  1  0
 26 24  2  0
M  END
$$$$
