NKN.pdb
     RDKit          3D

 26 25  0  0  1  0  0  0  0  0999 V2000
   20.9834  -12.8601  -20.7511 N   0  0  0  0  0  0  0  0  0  0  0  0
   21.7043  -11.7704  -20.2266 C   0  0  0  0  0  0  0  0  0  0  0  0
   22.7446  -11.3869  -20.8057 O   0  0  0  0  0  0  0  0  0  0  0  0
   21.2575  -11.0730  -19.0091 C   0  0  0  0  0  0  0  0  0  0  0  0
   22.2253  -10.0144  -18.5569 C   0  0  2  0  0  0  0  0  0  0  0  0
   23.3990  -10.5907  -17.9320 N   0  0  0  0  0  0  0  0  0  0  0  0
   21.5219   -9.0719  -17.6679 C   0  0  0  0  0  0  0  0  0  0  0  0
   20.4776   -8.4512  -18.0137 O   0  0  0  0  0  0  0  0  0  0  0  0
   22.0080   -8.8343  -16.3778 N   0  0  0  0  0  0  0  0  0  0  0  0
   21.3855   -7.8918  -15.4467 C   0  0  1  0  0  0  0  0  0  0  0  0
   21.4280   -8.3999  -14.0553 C   0  0  0  0  0  0  0  0  0  0  0  0
   20.2111   -9.2109  -13.7213 C   0  0  0  0  0  0  0  0  0  0  0  0
   18.9801   -8.3137  -13.5726 C   0  0  0  0  0  0  0  0  0  0  0  0
   17.8029   -9.2433  -13.3591 C   0  0  0  0  0  0  0  0  0  0  0  0
   16.5740   -8.4743  -13.3730 N   0  0  0  0  0  0  0  0  0  0  0  0
   21.9635   -6.5584  -15.6249 C   0  0  0  0  0  0  0  0  0  0  0  0
   23.1311   -6.2091  -15.3437 O   0  0  0  0  0  0  0  0  0  0  0  0
   22.4211   -1.7820  -18.9826 N   0  0  0  0  0  0  0  0  0  0  0  0
   21.7534   -2.2218  -17.7854 C   0  0  0  0  0  0  0  0  0  0  0  0
   21.5499   -1.3957  -16.8633 O   0  0  0  0  0  0  0  0  0  0  0  0
   21.3133   -3.6306  -17.6458 C   0  0  0  0  0  0  0  0  0  0  0  0
   21.6376   -4.1861  -16.2956 C   0  0  2  0  0  0  0  0  0  0  0  0
   21.1333   -5.5277  -16.1742 N   0  0  0  0  0  0  0  0  0  0  0  0
   21.1188   -3.3017  -15.2205 C   0  0  0  0  0  0  0  0  0  0  0  0
   21.9266   -2.2993  -14.7024 O   0  0  0  0  0  0  0  0  0  0  0  0
   19.9656   -3.4180  -14.7489 O   0  0  0  0  0  0  0  0  0  0  0  0
  2  1  1  0
  2  3  2  0
  4  5  1  0
  4  2  1  0
  5  7  1  0
  5  6  1  1
  7  8  2  0
  9 10  1  0
  9  7  1  0
 11 12  1  0
 10 11  1  1
 13 14  1  0
 13 12  1  0
 15 14  1  0
 16 17  2  0
 16 10  1  0
 18 19  1  0
 19 20  2  0
 19 21  1  0
 22 21  1  6
 22 24  1  0
 22 23  1  0
 23 16  1  0
 24 25  1  0
 26 24  2  0
M  END
$$$$
