NKN.pdb
     RDKit          3D

 26 25  0  0  1  0  0  0  0  0999 V2000
   25.1894  -11.9142  -14.9704 N   0  0  0  0  0  0  0  0  0  0  0  0
   23.8777  -12.4139  -14.8609 C   0  0  0  0  0  0  0  0  0  0  0  0
   22.9978  -11.7135  -14.3131 O   0  0  0  0  0  0  0  0  0  0  0  0
   23.5212  -13.7454  -15.3787 C   0  0  0  0  0  0  0  0  0  0  0  0
   24.7007  -14.4812  -15.9528 C   0  0  2  0  0  0  0  0  0  0  0  0
   25.1568  -13.8825  -17.1912 N   0  0  0  0  0  0  0  0  0  0  0  0
   24.3449  -15.9027  -16.1142 C   0  0  0  0  0  0  0  0  0  0  0  0
   23.2742  -16.2842  -16.6650 O   0  0  0  0  0  0  0  0  0  0  0  0
   25.2120  -16.8964  -15.6475 N   0  0  0  0  0  0  0  0  0  0  0  0
   24.9541  -18.3280  -15.8114 C   0  0  1  0  0  0  0  0  0  0  0  0
   26.2126  -19.1099  -15.7833 C   0  0  0  0  0  0  0  0  0  0  0  0
   25.9797  -20.5520  -16.1240 C   0  0  0  0  0  0  0  0  0  0  0  0
   27.2970  -21.3311  -16.1336 C   0  0  0  0  0  0  0  0  0  0  0  0
   26.9538  -22.7363  -16.5842 C   0  0  0  0  0  0  0  0  0  0  0  0
   28.1062  -23.5961  -16.3985 N   0  0  0  0  0  0  0  0  0  0  0  0
   23.9440  -18.7671  -14.8467 C   0  0  0  0  0  0  0  0  0  0  0  0
   24.0329  -18.7167  -13.6001 O   0  0  0  0  0  0  0  0  0  0  0  0
   19.3223  -18.8917  -12.1411 N   0  0  0  0  0  0  0  0  0  0  0  0
   19.4661  -19.1924  -13.5415 C   0  0  0  0  0  0  0  0  0  0  0  0
   18.5819  -19.8764  -14.1113 O   0  0  0  0  0  0  0  0  0  0  0  0
   20.6422  -18.7003  -14.2981 C   0  0  0  0  0  0  0  0  0  0  0  0
   21.6974  -19.7511  -14.4363 C   0  0  2  0  0  0  0  0  0  0  0  0
   22.7190  -19.3146  -15.3498 N   0  0  0  0  0  0  0  0  0  0  0  0
   21.1024  -21.0476  -14.8515 C   0  0  0  0  0  0  0  0  0  0  0  0
   20.4929  -21.8606  -13.9065 O   0  0  0  0  0  0  0  0  0  0  0  0
   21.1241  -21.4515  -16.0356 O   0  0  0  0  0  0  0  0  0  0  0  0
  2  1  1  0
  2  3  2  0
  4  5  1  0
  4  2  1  0
  5  7  1  0
  5  6  1  6
  7  8  2  0
  9 10  1  0
  9  7  1  0
 11 12  1  0
 10 11  1  1
 13 14  1  0
 13 12  1  0
 15 14  1  0
 16 17  2  0
 16 10  1  0
 18 19  1  0
 19 20  2  0
 19 21  1  0
 22 21  1  6
 22 24  1  0
 22 23  1  0
 23 16  1  0
 24 25  1  0
 26 24  2  0
M  END
$$$$
