NKN.pdb
     RDKit          3D

 26 25  0  0  1  0  0  0  0  0999 V2000
   28.8736  -21.9932  -10.3203 N   0  0  0  0  0  0  0  0  0  0  0  0
   28.8905  -20.6332  -10.6843 C   0  0  0  0  0  0  0  0  0  0  0  0
   29.8992  -19.9407  -10.4240 O   0  0  0  0  0  0  0  0  0  0  0  0
   27.7435  -20.0098  -11.3655 C   0  0  0  0  0  0  0  0  0  0  0  0
   26.5823  -20.9515  -11.5293 C   0  0  2  0  0  0  0  0  0  0  0  0
   26.9774  -22.1836  -12.1817 N   0  0  0  0  0  0  0  0  0  0  0  0
   25.5011  -20.2560  -12.2508 C   0  0  0  0  0  0  0  0  0  0  0  0
   24.9188  -19.2323  -11.7945 O   0  0  0  0  0  0  0  0  0  0  0  0
   25.0798  -20.7268  -13.4990 N   0  0  0  0  0  0  0  0  0  0  0  0
   23.9889  -20.1160  -14.2605 C   0  0  1  0  0  0  0  0  0  0  0  0
   24.4261  -19.7449  -15.6270 C   0  0  0  0  0  0  0  0  0  0  0  0
   25.5488  -18.7506  -15.6015 C   0  0  0  0  0  0  0  0  0  0  0  0
   25.9793  -18.3755  -17.0215 C   0  0  0  0  0  0  0  0  0  0  0  0
   27.1359  -17.4086  -16.8712 C   0  0  0  0  0  0  0  0  0  0  0  0
   27.6569  -17.0741  -18.1820 N   0  0  0  0  0  0  0  0  0  0  0  0
   22.8048  -20.9758  -14.2136 C   0  0  0  0  0  0  0  0  0  0  0  0
   22.7932  -22.2243  -14.1394 O   0  0  0  0  0  0  0  0  0  0  0  0
   18.8816  -22.1937  -10.6137 N   0  0  0  0  0  0  0  0  0  0  0  0
   19.4245  -22.3903  -11.9324 C   0  0  0  0  0  0  0  0  0  0  0  0
   18.9198  -23.2674  -12.6741 O   0  0  0  0  0  0  0  0  0  0  0  0
   20.5633  -21.5675  -12.4057 C   0  0  0  0  0  0  0  0  0  0  0  0
   20.3543  -21.0744  -13.8021 C   0  0  2  0  0  0  0  0  0  0  0  0
   21.5141  -20.3547  -14.2555 N   0  0  0  0  0  0  0  0  0  0  0  0
   19.1218  -20.2499  -13.8935 C   0  0  0  0  0  0  0  0  0  0  0  0
   17.9657  -20.7954  -14.4333 O   0  0  0  0  0  0  0  0  0  0  0  0
   19.0732  -19.0631  -13.5000 O   0  0  0  0  0  0  0  0  0  0  0  0
  2  1  1  0
  2  3  2  0
  4  5  1  0
  4  2  1  0
  5  7  1  0
  5  6  1  6
  7  8  2  0
  9 10  1  0
  9  7  1  0
 11 12  1  0
 10 11  1  6
 13 14  1  0
 13 12  1  0
 15 14  1  0
 16 17  2  0
 16 10  1  0
 18 19  1  0
 19 20  2  0
 19 21  1  0
 22 21  1  1
 22 24  1  0
 22 23  1  0
 23 16  1  0
 24 25  1  0
 26 24  2  0
M  END
$$$$
