NKN.pdb
     RDKit          3D

 26 25  0  0  1  0  0  0  0  0999 V2000
   14.6121  -11.8360  -16.5470 N   0  0  0  0  0  0  0  0  0  0  0  0
   14.7244  -10.5893  -15.9025 C   0  0  0  0  0  0  0  0  0  0  0  0
   13.7036   -9.8823  -15.7512 O   0  0  0  0  0  0  0  0  0  0  0  0
   16.0207  -10.1010  -15.4030 C   0  0  0  0  0  0  0  0  0  0  0  0
   17.1512  -11.0489  -15.6956 C   0  0  2  0  0  0  0  0  0  0  0  0
   17.0243  -12.2838  -14.9480 N   0  0  0  0  0  0  0  0  0  0  0  0
   18.4297  -10.3633  -15.4339 C   0  0  0  0  0  0  0  0  0  0  0  0
   18.7681   -9.9554  -14.2873 O   0  0  0  0  0  0  0  0  0  0  0  0
   19.3294  -10.1406  -16.4818 N   0  0  0  0  0  0  0  0  0  0  0  0
   20.6531   -9.5457  -16.2901 C   0  0  1  0  0  0  0  0  0  0  0  0
   21.6327  -10.0832  -17.2636 C   0  0  0  0  0  0  0  0  0  0  0  0
   22.2315  -11.3761  -16.7947 C   0  0  0  0  0  0  0  0  0  0  0  0
   23.0293  -12.0472  -17.9151 C   0  0  0  0  0  0  0  0  0  0  0  0
   23.4341  -13.4090  -17.3887 C   0  0  0  0  0  0  0  0  0  0  0  0
   24.1023  -14.1517  -18.4392 N   0  0  0  0  0  0  0  0  0  0  0  0
   20.5472   -8.0855  -16.2775 C   0  0  0  0  0  0  0  0  0  0  0  0
   19.8517   -7.3824  -17.0434 O   0  0  0  0  0  0  0  0  0  0  0  0
   20.5984   -3.1482  -13.4765 N   0  0  0  0  0  0  0  0  0  0  0  0
   21.7276   -3.9161  -13.9321 C   0  0  0  0  0  0  0  0  0  0  0  0
   22.7613   -3.3135  -14.3095 O   0  0  0  0  0  0  0  0  0  0  0  0
   21.6683   -5.3973  -13.9545 C   0  0  0  0  0  0  0  0  0  0  0  0
   21.2883   -5.9211  -15.3028 C   0  0  2  0  0  0  0  0  0  0  0  0
   21.3047   -7.3593  -15.3017 N   0  0  0  0  0  0  0  0  0  0  0  0
   22.1715   -5.3595  -16.3573 C   0  0  0  0  0  0  0  0  0  0  0  0
   21.7553   -4.2572  -17.0903 O   0  0  0  0  0  0  0  0  0  0  0  0
   23.2955   -5.8410  -16.6230 O   0  0  0  0  0  0  0  0  0  0  0  0
  2  1  1  0
  2  3  2  0
  4  5  1  0
  4  2  1  0
  5  7  1  0
  5  6  1  1
  7  8  2  0
  9 10  1  0
  9  7  1  0
 11 12  1  0
 10 11  1  6
 13 14  1  0
 13 12  1  0
 15 14  1  0
 16 17  2  0
 16 10  1  0
 18 19  1  0
 19 20  2  0
 19 21  1  0
 22 21  1  1
 22 24  1  0
 22 23  1  0
 23 16  1  0
 24 25  1  0
 26 24  2  0
M  END
$$$$
