NKN.pdb
     RDKit          3D

 26 25  0  0  1  0  0  0  0  0999 V2000
   25.5318  -13.9065  -15.9764 N   0  0  0  0  0  0  0  0  0  0  0  0
   25.9583  -12.5648  -15.9769 C   0  0  0  0  0  0  0  0  0  0  0  0
   27.1613  -12.3030  -15.7557 O   0  0  0  0  0  0  0  0  0  0  0  0
   25.0154  -11.4631  -16.2327 C   0  0  0  0  0  0  0  0  0  0  0  0
   23.6204  -11.9463  -16.5199 C   0  0  2  0  0  0  0  0  0  0  0  0
   23.5619  -12.7249  -17.7407 N   0  0  0  0  0  0  0  0  0  0  0  0
   22.7096  -10.7874  -16.5492 C   0  0  0  0  0  0  0  0  0  0  0  0
   22.7178   -9.9310  -17.4776 O   0  0  0  0  0  0  0  0  0  0  0  0
   21.7835  -10.6014  -15.5173 N   0  0  0  0  0  0  0  0  0  0  0  0
   20.7378   -9.5777  -15.5526 C   0  0  1  0  0  0  0  0  0  0  0  0
   19.4404  -10.1146  -15.0785 C   0  0  0  0  0  0  0  0  0  0  0  0
   18.7949  -10.9976  -16.1049 C   0  0  0  0  0  0  0  0  0  0  0  0
   17.5287  -11.6505  -15.5457 C   0  0  0  0  0  0  0  0  0  0  0  0
   17.0522  -12.6240  -16.6044 C   0  0  0  0  0  0  0  0  0  0  0  0
   15.9499  -13.4051  -16.0785 N   0  0  0  0  0  0  0  0  0  0  0  0
   21.1915   -8.3759  -14.8500 C   0  0  0  0  0  0  0  0  0  0  0  0
   21.6574   -8.3223  -13.6904 O   0  0  0  0  0  0  0  0  0  0  0  0
   23.1498   -3.5800  -14.1461 N   0  0  0  0  0  0  0  0  0  0  0  0
   22.2586   -3.5811  -15.2766 C   0  0  0  0  0  0  0  0  0  0  0  0
   21.8371   -2.4859  -15.7206 O   0  0  0  0  0  0  0  0  0  0  0  0
   21.8457   -4.8583  -15.9059 C   0  0  0  0  0  0  0  0  0  0  0  0
   21.5658   -5.9178  -14.8882 C   0  0  2  0  0  0  0  0  0  0  0  0
   21.1061   -7.1188  -15.5324 N   0  0  0  0  0  0  0  0  0  0  0  0
   20.5986   -5.4321  -13.8704 C   0  0  0  0  0  0  0  0  0  0  0  0
   21.0630   -4.9157  -12.6690 O   0  0  0  0  0  0  0  0  0  0  0  0
   19.3602   -5.4663  -14.0460 O   0  0  0  0  0  0  0  0  0  0  0  0
  2  1  1  0
  2  3  2  0
  4  5  1  0
  4  2  1  0
  5  7  1  0
  5  6  1  6
  7  8  2  0
  9 10  1  0
  9  7  1  0
 11 12  1  0
 10 11  1  1
 13 14  1  0
 13 12  1  0
 15 14  1  0
 16 17  2  0
 16 10  1  0
 18 19  1  0
 19 20  2  0
 19 21  1  0
 22 21  1  6
 22 24  1  0
 22 23  1  0
 23 16  1  0
 24 25  1  0
 26 24  2  0
M  END
$$$$
