KNH.pdb
     RDKit          3D

 28 28  0  0  1  0  0  0  0  0999 V2000
   27.9131  -21.1311  -16.1691 N   0  0  0  0  0  0  0  0  0  0  0  0
   27.5426  -20.4302  -14.9323 C   0  0  1  0  0  0  0  0  0  0  0  0
   27.7033  -18.9541  -15.1814 C   0  0  0  0  0  0  0  0  0  0  0  0
   28.1761  -18.6135  -16.5545 C   0  0  0  0  0  0  0  0  0  0  0  0
   27.1009  -17.9064  -17.3481 C   0  0  0  0  0  0  0  0  0  0  0  0
   27.5985  -17.5221  -18.7151 C   0  0  0  0  0  0  0  0  0  0  0  0
   26.4784  -16.8435  -19.3861 N   0  0  0  0  0  0  0  0  0  0  0  0
   26.1874  -20.8096  -14.4950 C   0  0  0  0  0  0  0  0  0  0  0  0
   25.5386  -21.6432  -15.1661 O   0  0  0  0  0  0  0  0  0  0  0  0
   25.7850  -22.4206  -10.6093 N   0  0  0  0  0  0  0  0  0  0  0  0
   25.5554  -21.0113  -10.5706 C   0  0  0  0  0  0  0  0  0  0  0  0
   26.3725  -20.3143   -9.9123 O   0  0  0  0  0  0  0  0  0  0  0  0
   24.4311  -20.3508  -11.2510 C   0  0  0  0  0  0  0  0  0  0  0  0
   24.4214  -20.7226  -12.7165 C   0  0  2  0  0  0  0  0  0  0  0  0
   25.6331  -20.2315  -13.3266 N   0  0  0  0  0  0  0  0  0  0  0  0
   23.2403  -20.0675  -13.3496 C   0  0  0  0  0  0  0  0  0  0  0  0
   23.1909  -18.8087  -13.3772 O   0  0  0  0  0  0  0  0  0  0  0  0
   22.2114  -20.8717  -13.9000 N   0  0  0  0  0  0  0  0  0  0  0  0
   21.0314  -20.2782  -14.5247 C   0  0  1  0  0  0  0  0  0  0  0  0
   20.7732  -20.8628  -15.8653 C   0  0  0  0  0  0  0  0  0  0  0  0
   21.8372  -20.4903  -16.8155 C   0  0  0  0  0  0  0  0  0  0  0  0
   22.2904  -19.1868  -17.0364 C   0  0  0  0  0  0  0  0  0  0  0  0
   23.2490  -19.2593  -17.9579 N   0  0  0  0  0  0  0  0  0  0  0  0
   23.4252  -20.5289  -18.3290 C   0  0  0  0  0  0  0  0  0  0  0  0
   22.5647  -21.2802  -17.6329 N   0  0  0  0  0  0  0  0  0  0  0  0
   19.8847  -20.2856  -13.6012 C   0  0  0  0  0  0  0  0  0  0  0  0
   18.6868  -19.6484  -13.8851 O   0  0  0  0  0  0  0  0  0  0  0  0
   19.9409  -20.8780  -12.4959 O   0  0  0  0  0  0  0  0  0  0  0  0
  2  1  1  6
  3  2  1  0
  3  4  1  0
  4  5  1  0
  5  6  1  0
  7  6  1  0
  8  9  2  0
  8  2  1  0
 10 11  1  0
 11 12  2  0
 11 13  1  0
 14 13  1  1
 14 15  1  0
 15  8  1  0
 16 17  2  0
 16 14  1  0
 18 16  1  0
 19 20  1  6
 19 18  1  0
 20 21  1  0
 21 25  1  0
 21 22  2  0
 22 23  1  0
 24 23  1  0
 25 24  2  0
 26 19  1  0
 27 26  1  0
 28 26  2  0
M  END
$$$$
