KNH.pdb
     RDKit          3D

 28 28  0  0  1  0  0  0  0  0999 V2000
   14.0261  -22.5601   -6.7057 N   0  0  0  0  0  0  0  0  0  0  0  0
   13.1189  -23.6457   -6.3101 C   0  0  1  0  0  0  0  0  0  0  0  0
   12.7474  -24.4038   -7.5567 C   0  0  0  0  0  0  0  0  0  0  0  0
   13.4202  -23.9132   -8.7941 C   0  0  0  0  0  0  0  0  0  0  0  0
   12.9211  -24.6444  -10.0198 C   0  0  0  0  0  0  0  0  0  0  0  0
   13.6361  -24.1788  -11.2591 C   0  0  0  0  0  0  0  0  0  0  0  0
   13.1330  -25.0116  -12.3630 N   0  0  0  0  0  0  0  0  0  0  0  0
   13.7277  -24.4900   -5.2668 C   0  0  0  0  0  0  0  0  0  0  0  0
   13.0962  -25.4805   -4.8353 O   0  0  0  0  0  0  0  0  0  0  0  0
   16.6590  -26.4998   -5.9635 N   0  0  0  0  0  0  0  0  0  0  0  0
   17.5733  -25.6904   -5.2223 C   0  0  0  0  0  0  0  0  0  0  0  0
   18.7697  -25.6680   -5.6159 O   0  0  0  0  0  0  0  0  0  0  0  0
   17.1886  -24.8980   -4.0444 C   0  0  0  0  0  0  0  0  0  0  0  0
   15.6996  -25.0111   -3.8074 C   0  0  2  0  0  0  0  0  0  0  0  0
   15.0141  -24.1759   -4.7636 N   0  0  0  0  0  0  0  0  0  0  0  0
   15.4156  -24.5275   -2.4253 C   0  0  0  0  0  0  0  0  0  0  0  0
   15.5047  -23.2933   -2.1873 O   0  0  0  0  0  0  0  0  0  0  0  0
   15.0553  -25.4616   -1.4223 N   0  0  0  0  0  0  0  0  0  0  0  0
   14.7143  -25.0327   -0.0678 C   0  0  1  0  0  0  0  0  0  0  0  0
   13.6932  -23.9543   -0.0794 C   0  0  0  0  0  0  0  0  0  0  0  0
   12.3856  -24.4725   -0.5214 C   0  0  0  0  0  0  0  0  0  0  0  0
   12.1764  -25.7322   -1.0893 C   0  0  0  0  0  0  0  0  0  0  0  0
   10.8745  -25.8288   -1.3521 N   0  0  0  0  0  0  0  0  0  0  0  0
   10.2538  -24.7065   -0.9839 C   0  0  0  0  0  0  0  0  0  0  0  0
   11.1745  -23.8788   -0.4773 N   0  0  0  0  0  0  0  0  0  0  0  0
   14.4024  -26.1883    0.7895 C   0  0  0  0  0  0  0  0  0  0  0  0
   14.1058  -26.0655    2.1380 O   0  0  0  0  0  0  0  0  0  0  0  0
   14.3919  -27.3569    0.3310 O   0  0  0  0  0  0  0  0  0  0  0  0
  2  1  1  6
  3  2  1  0
  3  4  1  0
  4  5  1  0
  5  6  1  0
  7  6  1  0
  8  9  2  0
  8  2  1  0
 10 11  1  0
 11 12  2  0
 11 13  1  0
 14 13  1  6
 14 15  1  0
 15  8  1  0
 16 17  2  0
 16 14  1  0
 18 16  1  0
 19 20  1  6
 19 18  1  0
 20 21  1  0
 21 25  1  0
 21 22  2  0
 22 23  1  0
 24 23  1  0
 25 24  2  0
 26 19  1  0
 27 26  1  0
 28 26  2  0
M  END
$$$$
