KNH.pdb
     RDKit          3D

 28 28  0  0  1  0  0  0  0  0999 V2000
   19.6528  -15.6477  -17.0868 N   0  0  0  0  0  0  0  0  0  0  0  0
   18.8604  -15.5259  -18.3178 C   0  0  1  0  0  0  0  0  0  0  0  0
   18.2282  -16.8660  -18.5852 C   0  0  0  0  0  0  0  0  0  0  0  0
   19.2015  -17.9912  -18.6906 C   0  0  0  0  0  0  0  0  0  0  0  0
   18.5170  -19.2756  -19.1003 C   0  0  0  0  0  0  0  0  0  0  0  0
   19.5198  -20.3662  -19.3625 C   0  0  0  0  0  0  0  0  0  0  0  0
   18.7426  -21.5654  -19.7137 N   0  0  0  0  0  0  0  0  0  0  0  0
   17.8858  -14.4254  -18.2129 C   0  0  0  0  0  0  0  0  0  0  0  0
   16.6680  -14.6942  -18.1084 O   0  0  0  0  0  0  0  0  0  0  0  0
   15.5512   -9.9398  -17.7045 N   0  0  0  0  0  0  0  0  0  0  0  0
   15.7457  -10.9287  -16.6924 C   0  0  0  0  0  0  0  0  0  0  0  0
   15.0103  -10.8584  -15.6720 O   0  0  0  0  0  0  0  0  0  0  0  0
   16.7454  -12.0034  -16.7858 C   0  0  0  0  0  0  0  0  0  0  0  0
   17.4275  -11.9610  -18.1346 C   0  0  2  0  0  0  0  0  0  0  0  0
   18.3318  -13.0810  -18.2313 N   0  0  0  0  0  0  0  0  0  0  0  0
   18.1973  -10.6864  -18.2210 C   0  0  0  0  0  0  0  0  0  0  0  0
   19.2010  -10.5355  -17.4742 O   0  0  0  0  0  0  0  0  0  0  0  0
   17.7834   -9.6849  -19.1343 N   0  0  0  0  0  0  0  0  0  0  0  0
   18.5432   -8.4489  -19.3065 C   0  0  1  0  0  0  0  0  0  0  0  0
   18.2498   -7.8072  -20.6134 C   0  0  0  0  0  0  0  0  0  0  0  0
   19.0979   -6.6189  -20.8183 C   0  0  0  0  0  0  0  0  0  0  0  0
   20.1636   -6.2465  -19.9944 C   0  0  0  0  0  0  0  0  0  0  0  0
   20.6767   -5.1283  -20.5038 N   0  0  0  0  0  0  0  0  0  0  0  0
   19.9981   -4.7758  -21.5973 C   0  0  0  0  0  0  0  0  0  0  0  0
   19.0351   -5.6842  -21.7899 N   0  0  0  0  0  0  0  0  0  0  0  0
   18.4050   -7.5754  -18.1292 C   0  0  0  0  0  0  0  0  0  0  0  0
   19.4493   -6.8095  -17.6348 O   0  0  0  0  0  0  0  0  0  0  0  0
   17.3177   -7.4840  -17.5086 O   0  0  0  0  0  0  0  0  0  0  0  0
  2  1  1  1
  3  2  1  0
  3  4  1  0
  4  5  1  0
  5  6  1  0
  7  6  1  0
  8  9  2  0
  8  2  1  0
 10 11  1  0
 11 12  2  0
 11 13  1  0
 14 13  1  1
 14 15  1  0
 15  8  1  0
 16 17  2  0
 16 14  1  0
 18 16  1  0
 19 20  1  6
 19 18  1  0
 20 21  1  0
 21 25  1  0
 21 22  2  0
 22 23  1  0
 24 23  1  0
 25 24  2  0
 26 19  1  0
 27 26  1  0
 28 26  2  0
M  END
$$$$
