KNH.pdb
     RDKit          3D

 28 28  0  0  1  0  0  0  0  0999 V2000
   32.4101  -29.2199  -20.0279 N   0  0  0  0  0  0  0  0  0  0  0  0
   32.0916  -30.1529  -18.9387 C   0  0  1  0  0  0  0  0  0  0  0  0
   33.3871  -30.5296  -18.2703 C   0  0  0  0  0  0  0  0  0  0  0  0
   34.2977  -31.3501  -19.1202 C   0  0  0  0  0  0  0  0  0  0  0  0
   35.5410  -30.5783  -19.5006 C   0  0  0  0  0  0  0  0  0  0  0  0
   36.4763  -31.4245  -20.3209 C   0  0  0  0  0  0  0  0  0  0  0  0
   37.5971  -30.5504  -20.7014 N   0  0  0  0  0  0  0  0  0  0  0  0
   31.1006  -29.5709  -18.0163 C   0  0  0  0  0  0  0  0  0  0  0  0
   30.8445  -30.1596  -16.9421 O   0  0  0  0  0  0  0  0  0  0  0  0
   32.0194  -25.0501  -17.7591 N   0  0  0  0  0  0  0  0  0  0  0  0
   30.9919  -25.7245  -17.0311 C   0  0  0  0  0  0  0  0  0  0  0  0
   31.1970  -25.9298  -15.8053 O   0  0  0  0  0  0  0  0  0  0  0  0
   29.7312  -26.1807  -17.6359 C   0  0  0  0  0  0  0  0  0  0  0  0
   29.5700  -27.6707  -17.4364 C   0  0  2  0  0  0  0  0  0  0  0  0
   30.4496  -28.3579  -18.3505 N   0  0  0  0  0  0  0  0  0  0  0  0
   28.1537  -28.0253  -17.7417 C   0  0  0  0  0  0  0  0  0  0  0  0
   27.8103  -28.1554  -18.9471 O   0  0  0  0  0  0  0  0  0  0  0  0
   27.2370  -28.2056  -16.6761 N   0  0  0  0  0  0  0  0  0  0  0  0
   25.8248  -28.4860  -16.9243 C   0  0  1  0  0  0  0  0  0  0  0  0
   25.4683  -29.8735  -16.5323 C   0  0  0  0  0  0  0  0  0  0  0  0
   24.0547  -30.1598  -16.8377 C   0  0  0  0  0  0  0  0  0  0  0  0
   23.4861  -30.1044  -18.1132 C   0  0  0  0  0  0  0  0  0  0  0  0
   22.2006  -30.4257  -17.9801 N   0  0  0  0  0  0  0  0  0  0  0  0
   21.9276  -30.6793  -16.6988 C   0  0  0  0  0  0  0  0  0  0  0  0
   23.0576  -30.5174  -16.0015 N   0  0  0  0  0  0  0  0  0  0  0  0
   24.9690  -27.4303  -16.3577 C   0  0  0  0  0  0  0  0  0  0  0  0
   23.6377  -27.2720  -16.7099 O   0  0  0  0  0  0  0  0  0  0  0  0
   25.4137  -26.6112  -15.5168 O   0  0  0  0  0  0  0  0  0  0  0  0
  2  1  1  6
  3  2  1  0
  3  4  1  0
  4  5  1  0
  5  6  1  0
  7  6  1  0
  8  9  2  0
  8  2  1  0
 10 11  1  0
 11 12  2  0
 11 13  1  0
 14 13  1  6
 14 15  1  0
 15  8  1  0
 16 17  2  0
 16 14  1  0
 18 16  1  0
 19 20  1  1
 19 18  1  0
 20 21  1  0
 21 25  1  0
 21 22  2  0
 22 23  1  0
 24 23  1  0
 25 24  2  0
 26 19  1  0
 27 26  1  0
 28 26  2  0
M  END
$$$$
