KNH.pdb
     RDKit          3D

 28 28  0  0  1  0  0  0  0  0999 V2000
   13.7077  -20.4083    2.4572 N   0  0  0  0  0  0  0  0  0  0  0  0
   14.8793  -21.2703    2.6635 C   0  0  1  0  0  0  0  0  0  0  0  0
   15.4417  -21.6040    1.3074 C   0  0  0  0  0  0  0  0  0  0  0  0
   14.4558  -22.2155    0.3700 C   0  0  0  0  0  0  0  0  0  0  0  0
   14.9825  -22.2370   -1.0470 C   0  0  0  0  0  0  0  0  0  0  0  0
   13.9664  -22.8125   -1.9959 C   0  0  0  0  0  0  0  0  0  0  0  0
   14.5400  -22.6802   -3.3445 N   0  0  0  0  0  0  0  0  0  0  0  0
   15.8546  -20.6307    3.5644 C   0  0  0  0  0  0  0  0  0  0  0  0
   16.9773  -21.1596    3.7256 O   0  0  0  0  0  0  0  0  0  0  0  0
   17.2792  -16.9157    3.1569 N   0  0  0  0  0  0  0  0  0  0  0  0
   16.4305  -16.4578    4.2106 C   0  0  0  0  0  0  0  0  0  0  0  0
   16.0895  -15.2454    4.1875 O   0  0  0  0  0  0  0  0  0  0  0  0
   15.9466  -17.3205    5.2992 C   0  0  0  0  0  0  0  0  0  0  0  0
   16.4410  -18.7352    5.0982 C   0  0  2  0  0  0  0  0  0  0  0  0
   15.5161  -19.4306    4.2366 N   0  0  0  0  0  0  0  0  0  0  0  0
   16.4820  -19.4021    6.4317 C   0  0  0  0  0  0  0  0  0  0  0  0
   15.4393  -19.9684    6.8558 O   0  0  0  0  0  0  0  0  0  0  0  0
   17.6840  -19.3822    7.1822 N   0  0  0  0  0  0  0  0  0  0  0  0
   17.7543  -19.9543    8.5248 C   0  0  1  0  0  0  0  0  0  0  0  0
   18.2179  -21.3649    8.4917 C   0  0  0  0  0  0  0  0  0  0  0  0
   17.0824  -22.2879    8.3116 C   0  0  0  0  0  0  0  0  0  0  0  0
   15.7440  -21.8979    8.2134 C   0  0  0  0  0  0  0  0  0  0  0  0
   15.0257  -23.0085    8.0587 N   0  0  0  0  0  0  0  0  0  0  0  0
   15.8317  -24.0720    8.0539 C   0  0  0  0  0  0  0  0  0  0  0  0
   17.0860  -23.6335    8.2081 N   0  0  0  0  0  0  0  0  0  0  0  0
   18.4938  -19.0679    9.4387 C   0  0  0  0  0  0  0  0  0  0  0  0
   18.6576  -19.3460   10.7868 O   0  0  0  0  0  0  0  0  0  0  0  0
   19.0173  -18.0019    9.0323 O   0  0  0  0  0  0  0  0  0  0  0  0
  2  1  1  6
  3  2  1  0
  3  4  1  0
  4  5  1  0
  5  6  1  0
  7  6  1  0
  8  9  2  0
  8  2  1  0
 10 11  1  0
 11 12  2  0
 11 13  1  0
 14 13  1  1
 14 15  1  0
 15  8  1  0
 16 17  2  0
 16 14  1  0
 18 16  1  0
 19 20  1  6
 19 18  1  0
 20 21  1  0
 21 25  1  0
 21 22  2  0
 22 23  1  0
 24 23  1  0
 25 24  2  0
 26 19  1  0
 27 26  1  0
 28 26  2  0
M  END
$$$$
