KNH.pdb
     RDKit          3D

 28 28  0  0  1  0  0  0  0  0999 V2000
   16.5963  -11.0373  -13.5133 N   0  0  0  0  0  0  0  0  0  0  0  0
   17.6285  -10.0209  -13.7573 C   0  0  1  0  0  0  0  0  0  0  0  0
   17.7685   -9.8648  -15.2482 C   0  0  0  0  0  0  0  0  0  0  0  0
   18.3930  -11.0354  -15.9297 C   0  0  0  0  0  0  0  0  0  0  0  0
   18.3784  -10.8706  -17.4325 C   0  0  0  0  0  0  0  0  0  0  0  0
   19.1250  -11.9882  -18.1091 C   0  0  0  0  0  0  0  0  0  0  0  0
   18.9977  -11.7526  -19.5561 N   0  0  0  0  0  0  0  0  0  0  0  0
   17.3068   -8.7625  -13.0611 C   0  0  0  0  0  0  0  0  0  0  0  0
   16.1769   -8.2478  -13.2180 O   0  0  0  0  0  0  0  0  0  0  0  0
   17.9285   -4.3900  -10.3223 N   0  0  0  0  0  0  0  0  0  0  0  0
   18.1890   -5.5746   -9.5680 C   0  0  0  0  0  0  0  0  0  0  0  0
   18.2805   -5.4507   -8.3177 O   0  0  0  0  0  0  0  0  0  0  0  0
   18.3519   -6.9054  -10.1728 C   0  0  0  0  0  0  0  0  0  0  0  0
   18.0877   -6.8348  -11.6598 C   0  0  2  0  0  0  0  0  0  0  0  0
   18.2723   -8.1491  -12.2256 N   0  0  0  0  0  0  0  0  0  0  0  0
   19.0737   -5.8887  -12.2579 C   0  0  0  0  0  0  0  0  0  0  0  0
   20.2038   -6.3299  -12.5983 O   0  0  0  0  0  0  0  0  0  0  0  0
   18.7168   -4.5277  -12.4269 N   0  0  0  0  0  0  0  0  0  0  0  0
   19.4645   -3.6489  -13.3233 C   0  0  1  0  0  0  0  0  0  0  0  0
   19.7395   -4.3069  -14.6261 C   0  0  0  0  0  0  0  0  0  0  0  0
   20.5530   -3.4360  -15.4940 C   0  0  0  0  0  0  0  0  0  0  0  0
   21.7220   -2.7807  -15.0975 C   0  0  0  0  0  0  0  0  0  0  0  0
   22.1618   -2.0975  -16.1526 N   0  0  0  0  0  0  0  0  0  0  0  0
   21.3400   -2.2839  -17.1873 C   0  0  0  0  0  0  0  0  0  0  0  0
   20.3587   -3.0999  -16.7866 N   0  0  0  0  0  0  0  0  0  0  0  0
   18.8349   -2.3206  -13.4074 C   0  0  0  0  0  0  0  0  0  0  0  0
   17.4686   -2.1448  -13.5616 O   0  0  0  0  0  0  0  0  0  0  0  0
   19.5182   -1.2695  -13.3435 O   0  0  0  0  0  0  0  0  0  0  0  0
  2  1  1  6
  3  2  1  0
  3  4  1  0
  4  5  1  0
  5  6  1  0
  7  6  1  0
  8  9  2  0
  8  2  1  0
 10 11  1  0
 11 12  2  0
 11 13  1  0
 14 13  1  1
 14 15  1  0
 15  8  1  0
 16 17  2  0
 16 14  1  0
 18 16  1  0
 19 20  1  6
 19 18  1  0
 20 21  1  0
 21 25  1  0
 21 22  2  0
 22 23  1  0
 24 23  1  0
 25 24  2  0
 26 19  1  0
 27 26  1  0
 28 26  2  0
M  END
$$$$
