KNH.pdb
     RDKit          3D

 28 28  0  0  1  0  0  0  0  0999 V2000
   20.6239  -15.7571  -18.6557 N   0  0  0  0  0  0  0  0  0  0  0  0
   20.1693  -14.7676  -17.6697 C   0  0  1  0  0  0  0  0  0  0  0  0
   20.5855  -15.2587  -16.3086 C   0  0  0  0  0  0  0  0  0  0  0  0
   20.2961  -16.7013  -16.0641 C   0  0  0  0  0  0  0  0  0  0  0  0
   20.8947  -17.1698  -14.7572 C   0  0  0  0  0  0  0  0  0  0  0  0
   20.7062  -18.6512  -14.5731 C   0  0  0  0  0  0  0  0  0  0  0  0
   21.4161  -19.0066  -13.3342 N   0  0  0  0  0  0  0  0  0  0  0  0
   20.6820  -13.4244  -17.9932 C   0  0  0  0  0  0  0  0  0  0  0  0
   21.6854  -13.3140  -18.7329 O   0  0  0  0  0  0  0  0  0  0  0  0
   20.2780  -11.2467  -20.5197 N   0  0  0  0  0  0  0  0  0  0  0  0
   19.3283  -10.4202  -19.8449 C   0  0  0  0  0  0  0  0  0  0  0  0
   18.4308   -9.8849  -20.5483 O   0  0  0  0  0  0  0  0  0  0  0  0
   19.3506  -10.1711  -18.3955 C   0  0  0  0  0  0  0  0  0  0  0  0
   20.4876  -10.9353  -17.7557 C   0  0  2  0  0  0  0  0  0  0  0  0
   20.0397  -12.2763  -17.4679 N   0  0  0  0  0  0  0  0  0  0  0  0
   20.8488  -10.2439  -16.4844 C   0  0  0  0  0  0  0  0  0  0  0  0
   20.1332  -10.4402  -15.4660 O   0  0  0  0  0  0  0  0  0  0  0  0
   21.9794   -9.3900  -16.4545 N   0  0  0  0  0  0  0  0  0  0  0  0
   22.3252   -8.6240  -15.2593 C   0  0  1  0  0  0  0  0  0  0  0  0
   23.7866   -8.3724  -15.1780 C   0  0  0  0  0  0  0  0  0  0  0  0
   24.5302   -9.6360  -15.0230 C   0  0  0  0  0  0  0  0  0  0  0  0
   23.9447  -10.9023  -14.9399 C   0  0  0  0  0  0  0  0  0  0  0  0
   24.9362  -11.7811  -14.8064 N   0  0  0  0  0  0  0  0  0  0  0  0
   26.1085  -11.1438  -14.8006 C   0  0  0  0  0  0  0  0  0  0  0  0
   25.8619   -9.8356  -14.9325 N   0  0  0  0  0  0  0  0  0  0  0  0
   21.4711   -7.4316  -15.1306 C   0  0  0  0  0  0  0  0  0  0  0  0
   21.2467   -6.7948  -13.9200 O   0  0  0  0  0  0  0  0  0  0  0  0
   20.8968   -6.9297  -16.1276 O   0  0  0  0  0  0  0  0  0  0  0  0
  2  1  1  6
  3  2  1  0
  3  4  1  0
  4  5  1  0
  5  6  1  0
  7  6  1  0
  8  9  2  0
  8  2  1  0
 10 11  1  0
 11 12  2  0
 11 13  1  0
 14 13  1  1
 14 15  1  0
 15  8  1  0
 16 17  2  0
 16 14  1  0
 18 16  1  0
 19 20  1  6
 19 18  1  0
 20 21  1  0
 21 25  1  0
 21 22  2  0
 22 23  1  0
 24 23  1  0
 25 24  2  0
 26 19  1  0
 27 26  1  0
 28 26  2  0
M  END
$$$$
