KNH.pdb
     RDKit          3D

 28 28  0  0  1  0  0  0  0  0999 V2000
   25.8221  -21.6743  -13.1569 N   0  0  0  0  0  0  0  0  0  0  0  0
   25.3970  -20.3186  -12.7831 C   0  0  1  0  0  0  0  0  0  0  0  0
   26.3170  -19.8390  -11.6921 C   0  0  0  0  0  0  0  0  0  0  0  0
   26.2431  -20.6379  -10.4347 C   0  0  0  0  0  0  0  0  0  0  0  0
   24.8517  -20.6088   -9.8441 C   0  0  0  0  0  0  0  0  0  0  0  0
   24.8041  -21.3382   -8.5289 C   0  0  0  0  0  0  0  0  0  0  0  0
   23.4063  -21.2762   -8.0732 N   0  0  0  0  0  0  0  0  0  0  0  0
   25.3654  -19.4311  -13.9592 C   0  0  0  0  0  0  0  0  0  0  0  0
   24.9969  -18.2432  -13.8198 O   0  0  0  0  0  0  0  0  0  0  0  0
   28.2354  -18.0007  -15.8034 N   0  0  0  0  0  0  0  0  0  0  0  0
   28.1448  -18.9612  -16.8567 C   0  0  0  0  0  0  0  0  0  0  0  0
   29.2216  -19.3110  -17.4090 O   0  0  0  0  0  0  0  0  0  0  0  0
   26.8769  -19.5482  -17.3162 C   0  0  0  0  0  0  0  0  0  0  0  0
   25.7449  -19.1058  -16.4168 C   0  0  2  0  0  0  0  0  0  0  0  0
   25.7494  -19.9259  -15.2298 N   0  0  0  0  0  0  0  0  0  0  0  0
   24.4651  -19.3028  -17.1571 C   0  0  0  0  0  0  0  0  0  0  0  0
   24.0824  -20.4787  -17.3990 O   0  0  0  0  0  0  0  0  0  0  0  0
   23.7175  -18.1706  -17.5666 N   0  0  0  0  0  0  0  0  0  0  0  0
   22.3245  -17.9904  -17.1644 C   0  0  1  0  0  0  0  0  0  0  0  0
   22.1555  -18.1570  -15.6983 C   0  0  0  0  0  0  0  0  0  0  0  0
   21.5236  -19.4518  -15.3852 C   0  0  0  0  0  0  0  0  0  0  0  0
   21.0890  -20.3790  -16.3363 C   0  0  0  0  0  0  0  0  0  0  0  0
   20.5789  -21.4116  -15.6678 N   0  0  0  0  0  0  0  0  0  0  0  0
   20.6667  -21.1890  -14.3550 C   0  0  0  0  0  0  0  0  0  0  0  0
   21.2426  -19.9941  -14.1818 N   0  0  0  0  0  0  0  0  0  0  0  0
   21.7686  -16.7485  -17.7270 C   0  0  0  0  0  0  0  0  0  0  0  0
   20.4600  -16.6448  -18.1723 O   0  0  0  0  0  0  0  0  0  0  0  0
   22.4662  -15.7102  -17.8318 O   0  0  0  0  0  0  0  0  0  0  0  0
  2  1  1  6
  3  2  1  0
  3  4  1  0
  4  5  1  0
  5  6  1  0
  7  6  1  0
  8  9  2  0
  8  2  1  0
 10 11  1  0
 11 12  2  0
 11 13  1  0
 14 13  1  6
 14 15  1  0
 15  8  1  0
 16 17  2  0
 16 14  1  0
 18 16  1  0
 19 20  1  1
 19 18  1  0
 20 21  1  0
 21 25  1  0
 21 22  2  0
 22 23  1  0
 24 23  1  0
 25 24  2  0
 26 19  1  0
 27 26  1  0
 28 26  2  0
M  END
$$$$
