KNH.pdb
     RDKit          3D

 28 28  0  0  1  0  0  0  0  0999 V2000
  131.6614-1003.9096 -350.7592 N   0  0  0  0  0  0  0  0  0  0  0  0
  132.9329-1004.5797 -351.0626 C   0  0  1  0  0  0  0  0  0  0  0  0
  132.8442-1005.9847 -350.5283 C   0  0  0  0  0  0  0  0  0  0  0  0
  133.6731-1006.2304 -349.3128 C   0  0  0  0  0  0  0  0  0  0  0  0
  134.7506-1007.2569 -349.5785 C   0  0  0  0  0  0  0  0  0  0  0  0
  136.0619-1006.8384 -348.9709 C   0  0  0  0  0  0  0  0  0  0  0  0
  136.2799-1005.4422 -349.3820 N   0  0  0  0  0  0  0  0  0  0  0  0
  133.2341-1004.5157 -352.5037 C   0  0  0  0  0  0  0  0  0  0  0  0
  133.1929-1003.4105 -353.0890 O   0  0  0  0  0  0  0  0  0  0  0  0
  132.3686-1007.3990 -356.7745 N   0  0  0  0  0  0  0  0  0  0  0  0
  132.5515-1005.9937 -356.5942 C   0  0  0  0  0  0  0  0  0  0  0  0
  132.8299-1005.3152 -357.6182 O   0  0  0  0  0  0  0  0  0  0  0  0
  132.4321-1005.3175 -355.2935 C   0  0  0  0  0  0  0  0  0  0  0  0
  132.6766-1006.3027 -354.1727 C   0  0  2  0  0  0  0  0  0  0  0  0
  133.5654-1005.6978 -353.2106 N   0  0  0  0  0  0  0  0  0  0  0  0
  133.3208-1007.5143 -354.7575 C   0  0  0  0  0  0  0  0  0  0  0  0
  134.3732-1007.3708 -355.4355 O   0  0  0  0  0  0  0  0  0  0  0  0
  132.7370-1008.7867 -354.5373 N   0  0  0  0  0  0  0  0  0  0  0  0
  133.5582-1009.9824 -354.3614 C   0  0  1  0  0  0  0  0  0  0  0  0
  134.4116-1009.8829 -353.1497 C   0  0  0  0  0  0  0  0  0  0  0  0
  133.7866-1009.0140 -352.1360 C   0  0  0  0  0  0  0  0  0  0  0  0
  134.2334-1007.7343 -351.7957 C   0  0  0  0  0  0  0  0  0  0  0  0
  133.4161-1007.2757 -350.8497 N   0  0  0  0  0  0  0  0  0  0  0  0
  132.4836-1008.1896 -350.5749 C   0  0  0  0  0  0  0  0  0  0  0  0
  132.7086-1009.2500 -351.3589 N   0  0  0  0  0  0  0  0  0  0  0  0
  132.7415-1011.2034 -354.4599 C   0  0  0  0  0  0  0  0  0  0  0  0
  131.3588-1011.1772 -354.5552 O   0  0  0  0  0  0  0  0  0  0  0  0
  133.2686-1012.3426 -354.4607 O   0  0  0  0  0  0  0  0  0  0  0  0
  2  1  1  6
  3  2  1  0
  3  4  1  0
  4  5  1  0
  5  6  1  0
  7  6  1  0
  8  9  2  0
  8  2  1  0
 10 11  1  0
 11 12  2  0
 11 13  1  0
 14 13  1  6
 14 15  1  0
 15  8  1  0
 16 17  2  0
 16 14  1  0
 18 16  1  0
 19 20  1  1
 19 18  1  0
 20 21  1  0
 21 25  1  0
 21 22  2  0
 22 23  1  0
 24 23  1  0
 25 24  2  0
 26 19  1  0
 27 26  1  0
 28 26  2  0
M  END
$$$$
