KNH.pdb
     RDKit          3D

 28 28  0  0  1  0  0  0  0  0999 V2000
   20.7226  -11.7808  -16.9761 N   0  0  0  0  0  0  0  0  0  0  0  0
   19.5916  -11.0871  -17.6068 C   0  0  1  0  0  0  0  0  0  0  0  0
   18.4089  -12.0179  -17.5669 C   0  0  0  0  0  0  0  0  0  0  0  0
   18.7248  -13.4249  -17.9483 C   0  0  0  0  0  0  0  0  0  0  0  0
   17.4854  -14.2908  -17.9362 C   0  0  0  0  0  0  0  0  0  0  0  0
   17.7968  -15.6917  -18.3885 C   0  0  0  0  0  0  0  0  0  0  0  0
   16.5711  -16.4768  -18.1724 N   0  0  0  0  0  0  0  0  0  0  0  0
   19.3403   -9.7875  -16.9589 C   0  0  0  0  0  0  0  0  0  0  0  0
   18.1711   -9.4814  -16.6342 O   0  0  0  0  0  0  0  0  0  0  0  0
   19.3063   -8.8384  -13.7378 N   0  0  0  0  0  0  0  0  0  0  0  0
   20.5472   -8.1319  -13.7038 C   0  0  0  0  0  0  0  0  0  0  0  0
   21.1201   -8.0310  -12.5865 O   0  0  0  0  0  0  0  0  0  0  0  0
   21.1735   -7.5292  -14.8903 C   0  0  0  0  0  0  0  0  0  0  0  0
   20.2361   -7.6190  -16.0733 C   0  0  2  0  0  0  0  0  0  0  0  0
   20.4166   -8.9007  -16.7106 N   0  0  0  0  0  0  0  0  0  0  0  0
   20.5939   -6.5299  -17.0276 C   0  0  0  0  0  0  0  0  0  0  0  0
   21.6479   -6.6458  -17.7083 O   0  0  0  0  0  0  0  0  0  0  0  0
   19.7454   -5.4008  -17.1436 N   0  0  0  0  0  0  0  0  0  0  0  0
   20.0639   -4.2971  -18.0465 C   0  0  1  0  0  0  0  0  0  0  0  0
   18.8384   -3.5823  -18.4857 C   0  0  0  0  0  0  0  0  0  0  0  0
   18.1182   -4.3555  -19.5138 C   0  0  0  0  0  0  0  0  0  0  0  0
   17.4828   -5.5805  -19.2927 C   0  0  0  0  0  0  0  0  0  0  0  0
   16.9510   -5.9579  -20.4537 N   0  0  0  0  0  0  0  0  0  0  0  0
   17.2138   -5.0445  -21.3903 C   0  0  0  0  0  0  0  0  0  0  0  0
   17.9255   -4.0670  -20.8180 N   0  0  0  0  0  0  0  0  0  0  0  0
   21.1251   -3.4447  -17.4851 C   0  0  0  0  0  0  0  0  0  0  0  0
   21.6795   -3.6612  -16.2331 O   0  0  0  0  0  0  0  0  0  0  0  0
   21.5828   -2.4663  -18.1245 O   0  0  0  0  0  0  0  0  0  0  0  0
  2  1  1  1
  3  2  1  0
  3  4  1  0
  4  5  1  0
  5  6  1  0
  7  6  1  0
  8  9  2  0
  8  2  1  0
 10 11  1  0
 11 12  2  0
 11 13  1  0
 14 13  1  1
 14 15  1  0
 15  8  1  0
 16 17  2  0
 16 14  1  0
 18 16  1  0
 19 20  1  1
 19 18  1  0
 20 21  1  0
 21 25  1  0
 21 22  2  0
 22 23  1  0
 24 23  1  0
 25 24  2  0
 26 19  1  0
 27 26  1  0
 28 26  2  0
M  END
$$$$
