KNH.pdb
     RDKit          3D

 28 28  0  0  1  0  0  0  0  0999 V2000
   19.4900  -14.7934  -20.2270 N   0  0  0  0  0  0  0  0  0  0  0  0
   20.1029  -14.1436  -19.0608 C   0  0  1  0  0  0  0  0  0  0  0  0
   21.3137  -14.9512  -18.6754 C   0  0  0  0  0  0  0  0  0  0  0  0
   21.3279  -16.3352  -19.2310 C   0  0  0  0  0  0  0  0  0  0  0  0
   22.6017  -17.0630  -18.8655 C   0  0  0  0  0  0  0  0  0  0  0  0
   22.6718  -18.4072  -19.5380 C   0  0  0  0  0  0  0  0  0  0  0  0
   23.9292  -19.0271  -19.0907 N   0  0  0  0  0  0  0  0  0  0  0  0
   20.4038  -12.7284  -19.3410 C   0  0  0  0  0  0  0  0  0  0  0  0
   20.3883  -12.3222  -20.5247 O   0  0  0  0  0  0  0  0  0  0  0  0
   19.0386   -7.3414  -19.2502 N   0  0  0  0  0  0  0  0  0  0  0  0
   19.9988   -8.3895  -19.3906 C   0  0  0  0  0  0  0  0  0  0  0  0
   21.1355   -8.0717  -19.8307 O   0  0  0  0  0  0  0  0  0  0  0  0
   19.7257   -9.7944  -19.0514 C   0  0  0  0  0  0  0  0  0  0  0  0
   20.9681  -10.4409  -18.4816 C   0  0  2  0  0  0  0  0  0  0  0  0
   20.7064  -11.8448  -18.2760 N   0  0  0  0  0  0  0  0  0  0  0  0
   21.2668   -9.7899  -17.1732 C   0  0  0  0  0  0  0  0  0  0  0  0
   20.5050  -10.0205  -16.1963 O   0  0  0  0  0  0  0  0  0  0  0  0
   22.3916   -8.9350  -17.0629 N   0  0  0  0  0  0  0  0  0  0  0  0
   22.7299   -8.2787  -15.8021 C   0  0  1  0  0  0  0  0  0  0  0  0
   24.2003   -8.1736  -15.6207 C   0  0  0  0  0  0  0  0  0  0  0  0
   24.8177   -9.5101  -15.5427 C   0  0  0  0  0  0  0  0  0  0  0  0
   24.1125  -10.7167  -15.5399 C   0  0  0  0  0  0  0  0  0  0  0  0
   25.0138  -11.6937  -15.4588 N   0  0  0  0  0  0  0  0  0  0  0  0
   26.2418  -11.1739  -15.4104 C   0  0  0  0  0  0  0  0  0  0  0  0
   26.1232   -9.8424  -15.4615 N   0  0  0  0  0  0  0  0  0  0  0  0
   21.9827   -7.0198  -15.6448 C   0  0  0  0  0  0  0  0  0  0  0  0
   21.4778   -6.5927  -14.4265 O   0  0  0  0  0  0  0  0  0  0  0  0
   21.7642   -6.2641  -16.6230 O   0  0  0  0  0  0  0  0  0  0  0  0
  2  1  1  6
  3  2  1  0
  3  4  1  0
  4  5  1  0
  5  6  1  0
  7  6  1  0
  8  9  2  0
  8  2  1  0
 10 11  1  0
 11 12  2  0
 11 13  1  0
 14 13  1  1
 14 15  1  0
 15  8  1  0
 16 17  2  0
 16 14  1  0
 18 16  1  0
 19 20  1  6
 19 18  1  0
 20 21  1  0
 21 25  1  0
 21 22  2  0
 22 23  1  0
 24 23  1  0
 25 24  2  0
 26 19  1  0
 27 26  1  0
 28 26  2  0
M  END
$$$$
