KNH.pdb
     RDKit          3D

 28 28  0  0  1  0  0  0  0  0999 V2000
   27.9429  -22.2383  -16.3394 N   0  0  0  0  0  0  0  0  0  0  0  0
   27.5431  -21.0692  -15.5447 C   0  0  1  0  0  0  0  0  0  0  0  0
   27.2535  -19.9457  -16.5042 C   0  0  0  0  0  0  0  0  0  0  0  0
   28.3955  -19.5940  -17.3968 C   0  0  0  0  0  0  0  0  0  0  0  0
   28.0433  -18.4470  -18.3167 C   0  0  0  0  0  0  0  0  0  0  0  0
   29.1943  -18.1038  -19.2229 C   0  0  0  0  0  0  0  0  0  0  0  0
   28.7718  -16.9272  -19.9989 N   0  0  0  0  0  0  0  0  0  0  0  0
   26.4110  -21.3937  -14.6589 C   0  0  0  0  0  0  0  0  0  0  0  0
   25.5531  -22.2213  -15.0403 O   0  0  0  0  0  0  0  0  0  0  0  0
   24.6016  -20.7944   -8.7476 N   0  0  0  0  0  0  0  0  0  0  0  0
   24.5064  -20.9713  -10.1618 C   0  0  0  0  0  0  0  0  0  0  0  0
   23.3868  -21.3189  -10.6229 O   0  0  0  0  0  0  0  0  0  0  0  0
   25.6335  -20.7701  -11.0850 C   0  0  0  0  0  0  0  0  0  0  0  0
   25.1811  -20.9896  -12.5110 C   0  0  2  0  0  0  0  0  0  0  0  0
   26.3029  -20.7706  -13.3913 N   0  0  0  0  0  0  0  0  0  0  0  0
   24.1077  -19.9983  -12.8109 C   0  0  0  0  0  0  0  0  0  0  0  0
   24.4412  -18.8335  -13.1570 O   0  0  0  0  0  0  0  0  0  0  0  0
   22.7500  -20.3890  -12.7000 N   0  0  0  0  0  0  0  0  0  0  0  0
   21.7208  -19.8258  -13.5710 C   0  0  1  0  0  0  0  0  0  0  0  0
   22.1005  -19.9345  -15.0027 C   0  0  0  0  0  0  0  0  0  0  0  0
   21.0817  -19.3097  -15.8660 C   0  0  0  0  0  0  0  0  0  0  0  0
   19.9354  -18.6567  -15.4046 C   0  0  0  0  0  0  0  0  0  0  0  0
   19.2715  -18.2316  -16.4779 N   0  0  0  0  0  0  0  0  0  0  0  0
   19.9310  -18.5781  -17.5849 C   0  0  0  0  0  0  0  0  0  0  0  0
   21.0350  -19.2355  -17.2127 N   0  0  0  0  0  0  0  0  0  0  0  0
   20.3907  -20.3563  -13.2285 C   0  0  0  0  0  0  0  0  0  0  0  0
   19.2542  -19.5640  -13.1838 O   0  0  0  0  0  0  0  0  0  0  0  0
   20.2228  -21.5700  -12.9557 O   0  0  0  0  0  0  0  0  0  0  0  0
  2  1  1  6
  3  2  1  0
  3  4  1  0
  4  5  1  0
  5  6  1  0
  7  6  1  0
  8  9  2  0
  8  2  1  0
 10 11  1  0
 11 12  2  0
 11 13  1  0
 14 13  1  1
 14 15  1  0
 15  8  1  0
 16 17  2  0
 16 14  1  0
 18 16  1  0
 19 20  1  6
 19 18  1  0
 20 21  1  0
 21 25  1  0
 21 22  2  0
 22 23  1  0
 24 23  1  0
 25 24  2  0
 26 19  1  0
 27 26  1  0
 28 26  2  0
M  END
$$$$
