KNH.pdb
     RDKit          3D

 28 28  0  0  1  0  0  0  0  0999 V2000
   27.3380  -23.7514  -16.4021 N   0  0  0  0  0  0  0  0  0  0  0  0
   26.3083  -23.3186  -17.3564 C   0  0  1  0  0  0  0  0  0  0  0  0
   25.1304  -24.2438  -17.2039 C   0  0  0  0  0  0  0  0  0  0  0  0
   25.4475  -25.6818  -17.4408 C   0  0  0  0  0  0  0  0  0  0  0  0
   24.2270  -26.5538  -17.2520 C   0  0  0  0  0  0  0  0  0  0  0  0
   24.5596  -28.0066  -17.4590 C   0  0  0  0  0  0  0  0  0  0  0  0
   23.3003  -28.7472  -17.2833 N   0  0  0  0  0  0  0  0  0  0  0  0
   25.9701  -21.8975  -17.1612 C   0  0  0  0  0  0  0  0  0  0  0  0
   26.1221  -21.3819  -16.0311 O   0  0  0  0  0  0  0  0  0  0  0  0
   24.4360  -17.0370  -18.1624 N   0  0  0  0  0  0  0  0  0  0  0  0
   25.5704  -17.4904  -18.9026 C   0  0  0  0  0  0  0  0  0  0  0  0
   26.2440  -16.6181  -19.5126 O   0  0  0  0  0  0  0  0  0  0  0  0
   25.9789  -18.9010  -18.9832 C   0  0  0  0  0  0  0  0  0  0  0  0
   25.0853  -19.7503  -18.1079 C   0  0  2  0  0  0  0  0  0  0  0  0
   25.4788  -21.1314  -18.2467 N   0  0  0  0  0  0  0  0  0  0  0  0
   23.6810  -19.5794  -18.5808 C   0  0  0  0  0  0  0  0  0  0  0  0
   23.3836  -19.9679  -19.7420 O   0  0  0  0  0  0  0  0  0  0  0  0
   22.7241  -18.9888  -17.7184 N   0  0  0  0  0  0  0  0  0  0  0  0
   21.3066  -19.3326  -17.8027 C   0  0  1  0  0  0  0  0  0  0  0  0
   21.0006  -20.0776  -19.0506 C   0  0  0  0  0  0  0  0  0  0  0  0
   19.5497  -20.2998  -19.1884 C   0  0  0  0  0  0  0  0  0  0  0  0
   18.5859  -19.8761  -18.2691 C   0  0  0  0  0  0  0  0  0  0  0  0
   17.4020  -20.2609  -18.7419 N   0  0  0  0  0  0  0  0  0  0  0  0
   17.5637  -20.9005  -19.9018 C   0  0  0  0  0  0  0  0  0  0  0  0
   18.8730  -20.9247  -20.1748 N   0  0  0  0  0  0  0  0  0  0  0  0
   20.8421  -19.9678  -16.5583 C   0  0  0  0  0  0  0  0  0  0  0  0
   19.6322  -20.6374  -16.4623 O   0  0  0  0  0  0  0  0  0  0  0  0
   21.5314  -19.9303  -15.5099 O   0  0  0  0  0  0  0  0  0  0  0  0
  2  1  1  1
  3  2  1  0
  3  4  1  0
  4  5  1  0
  5  6  1  0
  7  6  1  0
  8  9  2  0
  8  2  1  0
 10 11  1  0
 11 12  2  0
 11 13  1  0
 14 13  1  6
 14 15  1  0
 15  8  1  0
 16 17  2  0
 16 14  1  0
 18 16  1  0
 19 20  1  6
 19 18  1  0
 20 21  1  0
 21 25  1  0
 21 22  2  0
 22 23  1  0
 24 23  1  0
 25 24  2  0
 26 19  1  0
 27 26  1  0
 28 26  2  0
M  END
$$$$
