KNH.pdb
     RDKit          3D

 28 28  0  0  1  0  0  0  0  0999 V2000
   23.4296  -22.0566  -15.5252 N   0  0  0  0  0  0  0  0  0  0  0  0
   23.8379  -20.9387  -14.6640 C   0  0  1  0  0  0  0  0  0  0  0  0
   25.2422  -20.5575  -15.0502 C   0  0  0  0  0  0  0  0  0  0  0  0
   26.1853  -21.7094  -15.1421 C   0  0  0  0  0  0  0  0  0  0  0  0
   26.0871  -22.3965  -16.4853 C   0  0  0  0  0  0  0  0  0  0  0  0
   27.1288  -23.4735  -16.6224 C   0  0  0  0  0  0  0  0  0  0  0  0
   26.7511  -24.2647  -17.8042 N   0  0  0  0  0  0  0  0  0  0  0  0
   22.8788  -19.8234  -14.7546 C   0  0  0  0  0  0  0  0  0  0  0  0
   23.0365  -18.8197  -14.0240 O   0  0  0  0  0  0  0  0  0  0  0  0
   23.2572  -17.9383  -18.2710 N   0  0  0  0  0  0  0  0  0  0  0  0
   22.2204  -17.5428  -17.3716 C   0  0  0  0  0  0  0  0  0  0  0  0
   22.4232  -16.5095  -16.6803 O   0  0  0  0  0  0  0  0  0  0  0  0
   20.9525  -18.2727  -17.2194 C   0  0  0  0  0  0  0  0  0  0  0  0
   20.8379  -18.8256  -15.8168 C   0  0  2  0  0  0  0  0  0  0  0  0
   21.7931  -19.8956  -15.6616 N   0  0  0  0  0  0  0  0  0  0  0  0
   19.4556  -19.3588  -15.6440 C   0  0  0  0  0  0  0  0  0  0  0  0
   18.4809  -18.6156  -15.9362 O   0  0  0  0  0  0  0  0  0  0  0  0
   19.2751  -20.6781  -15.1591 N   0  0  0  0  0  0  0  0  0  0  0  0
   17.9452  -21.2071  -14.8651 C   0  0  1  0  0  0  0  0  0  0  0  0
   17.8599  -22.6601  -15.1609 C   0  0  0  0  0  0  0  0  0  0  0  0
   17.9636  -22.9088  -16.6104 C   0  0  0  0  0  0  0  0  0  0  0  0
   17.5972  -21.9981  -17.6053 C   0  0  0  0  0  0  0  0  0  0  0  0
   17.8369  -22.5846  -18.7766 N   0  0  0  0  0  0  0  0  0  0  0  0
   18.3314  -23.8079  -18.5777 C   0  0  0  0  0  0  0  0  0  0  0  0
   18.4089  -24.0065  -17.2571 N   0  0  0  0  0  0  0  0  0  0  0  0
   17.5050  -20.8104  -13.5173 C   0  0  0  0  0  0  0  0  0  0  0  0
   16.2027  -20.9772  -13.0724 O   0  0  0  0  0  0  0  0  0  0  0  0
   18.3017  -20.2933  -12.6965 O   0  0  0  0  0  0  0  0  0  0  0  0
  2  1  1  6
  3  2  1  0
  3  4  1  0
  4  5  1  0
  5  6  1  0
  7  6  1  0
  8  9  2  0
  8  2  1  0
 10 11  1  0
 11 12  2  0
 11 13  1  0
 14 13  1  6
 14 15  1  0
 15  8  1  0
 16 17  2  0
 16 14  1  0
 18 16  1  0
 19 20  1  1
 19 18  1  0
 20 21  1  0
 21 25  1  0
 21 22  2  0
 22 23  1  0
 24 23  1  0
 25 24  2  0
 26 19  1  0
 27 26  1  0
 28 26  2  0
M  END
$$$$
