LHP.pdb
     RDKit          3D

 26 27  0  0  1  0  0  0  0  0999 V2000
    7.7283  -12.3979   19.0239 C   0  0  0  0  0  0  0  0  0  0  0  0
    8.2299  -13.6895   19.6329 C   0  0  1  0  0  0  0  0  0  0  0  0
    9.0620  -13.2866   20.8430 C   0  0  0  0  0  0  0  0  0  0  0  0
    7.1167  -14.5756   20.0744 C   0  0  0  0  0  0  0  0  0  0  0  0
    7.5851  -15.7917   20.8164 C   0  0  2  0  0  0  0  0  0  0  0  0
    6.9523  -16.9872   20.2481 N   0  0  0  0  0  0  0  0  0  0  0  0
    7.2776  -15.7765   22.2454 C   0  0  0  0  0  0  0  0  0  0  0  0
    6.0663  -15.8414   22.6301 O   0  0  0  0  0  0  0  0  0  0  0  0
    8.3027  -15.6906   23.2279 N   0  0  0  0  0  0  0  0  0  0  0  0
    7.9896  -16.1208   24.6092 C   0  0  1  0  0  0  0  0  0  0  0  0
    7.7016  -17.5839   24.5830 C   0  0  0  0  0  0  0  0  0  0  0  0
    7.6060  -18.3004   25.8408 C   0  0  0  0  0  0  0  0  0  0  0  0
    7.1993  -17.9809   27.0883 C   0  0  0  0  0  0  0  0  0  0  0  0
    7.2301  -19.0815   27.9005 N   0  0  0  0  0  0  0  0  0  0  0  0
    7.6598  -20.0729   27.1251 C   0  0  0  0  0  0  0  0  0  0  0  0
    7.8949  -19.6521   25.8920 N   0  0  0  0  0  0  0  0  0  0  0  0
    9.1155  -15.7635   25.5004 C   0  0  0  0  0  0  0  0  0  0  0  0
   10.1806  -16.4377   25.4572 O   0  0  0  0  0  0  0  0  0  0  0  0
    9.1299  -14.6837   26.4572 N   0  0  0  0  0  0  0  0  0  0  0  0
    8.2090  -13.5944   26.6065 C   0  0  0  0  0  0  0  0  0  0  0  0
    8.7248  -12.7259   27.7660 C   0  0  0  0  0  0  0  0  0  0  0  0
    9.4727  -13.7391   28.5740 C   0  0  0  0  0  0  0  0  0  0  0  0
   10.1625  -14.5565   27.5021 C   0  0  1  0  0  0  0  0  0  0  0  0
   10.4853  -15.8946   28.1031 C   0  0  0  0  0  0  0  0  0  0  0  0
    9.7905  -16.8885   27.8491 O   0  0  0  0  0  0  0  0  0  0  0  0
   11.5695  -16.0157   28.9481 O   0  0  0  0  0  0  0  0  0  0  0  0
  2  3  1  1
  2  1  1  0
  4  2  1  0
  5  4  1  0
  5  6  1  6
  7  8  2  0
  7  5  1  0
  9  7  1  0
 10  9  1  0
 10 11  1  6
 11 12  1  0
 12 13  2  0
 12 16  1  0
 13 14  1  0
 14 15  1  0
 16 15  2  0
 17 18  2  0
 17 10  1  0
 19 17  1  0
 20 19  1  0
 21 20  1  0
 22 23  1  0
 22 21  1  0
 23 19  1  0
 24 26  1  0
 23 24  1  1
 25 24  2  0
M  END
$$$$
