LHP.pdb
     RDKit          3D

 26 27  0  0  1  0  0  0  0  0999 V2000
    7.8533  -12.4028   18.1688 C   0  0  0  0  0  0  0  0  0  0  0  0
    8.3060  -13.7439   18.7046 C   0  0  1  0  0  0  0  0  0  0  0  0
    9.7726  -13.5726   19.0773 C   0  0  0  0  0  0  0  0  0  0  0  0
    7.5371  -14.1587   19.9112 C   0  0  0  0  0  0  0  0  0  0  0  0
    7.9485  -15.4984   20.4452 C   0  0  2  0  0  0  0  0  0  0  0  0
    7.4456  -16.5549   19.5601 N   0  0  0  0  0  0  0  0  0  0  0  0
    7.4507  -15.7857   21.7892 C   0  0  0  0  0  0  0  0  0  0  0  0
    6.3998  -16.4885   21.9352 O   0  0  0  0  0  0  0  0  0  0  0  0
    8.1130  -15.2981   22.9499 N   0  0  0  0  0  0  0  0  0  0  0  0
    7.6573  -15.7798   24.2733 C   0  0  1  0  0  0  0  0  0  0  0  0
    7.9038  -17.2492   24.3397 C   0  0  0  0  0  0  0  0  0  0  0  0
    7.7535  -17.9265   25.6138 C   0  0  0  0  0  0  0  0  0  0  0  0
    8.5937  -18.5676   26.4545 C   0  0  0  0  0  0  0  0  0  0  0  0
    7.9353  -18.9538   27.5900 N   0  0  0  0  0  0  0  0  0  0  0  0
    6.6839  -18.5350   27.4248 C   0  0  0  0  0  0  0  0  0  0  0  0
    6.5322  -17.9185   26.2630 N   0  0  0  0  0  0  0  0  0  0  0  0
    8.3541  -15.0226   25.3366 C   0  0  0  0  0  0  0  0  0  0  0  0
    9.5569  -15.2911   25.6047 O   0  0  0  0  0  0  0  0  0  0  0  0
    7.7845  -13.9663   26.1377 N   0  0  0  0  0  0  0  0  0  0  0  0
    6.5108  -13.3195   26.0094 C   0  0  0  0  0  0  0  0  0  0  0  0
    6.4387  -12.2475   27.1095 C   0  0  0  0  0  0  0  0  0  0  0  0
    7.3502  -12.8327   28.1418 C   0  0  0  0  0  0  0  0  0  0  0  0
    8.4816  -13.3786   27.2964 C   0  0  1  0  0  0  0  0  0  0  0  0
    9.1675  -14.4419   28.1058 C   0  0  0  0  0  0  0  0  0  0  0  0
    8.9272  -15.6415   27.9109 O   0  0  0  0  0  0  0  0  0  0  0  0
   10.0759  -14.0752   29.0777 O   0  0  0  0  0  0  0  0  0  0  0  0
  2  3  1  1
  2  1  1  0
  4  2  1  0
  5  4  1  0
  5  6  1  6
  7  8  2  0
  7  5  1  0
  9  7  1  0
 10  9  1  0
 10 11  1  1
 11 12  1  0
 12 13  2  0
 12 16  1  0
 13 14  1  0
 14 15  1  0
 16 15  2  0
 17 18  2  0
 17 10  1  0
 19 17  1  0
 20 19  1  0
 21 20  1  0
 22 23  1  0
 22 21  1  0
 23 19  1  0
 24 26  1  0
 23 24  1  1
 25 24  2  0
M  END
$$$$
