LHP.pdb
     RDKit          3D

 26 27  0  0  1  0  0  0  0  0999 V2000
    7.8242  -12.1206   18.8605 C   0  0  0  0  0  0  0  0  0  0  0  0
    8.2019  -13.5545   19.1636 C   0  0  1  0  0  0  0  0  0  0  0  0
    9.5019  -13.4871   19.9541 C   0  0  0  0  0  0  0  0  0  0  0  0
    7.1669  -14.2513   19.9776 C   0  0  0  0  0  0  0  0  0  0  0  0
    7.6331  -15.5643   20.5322 C   0  0  2  0  0  0  0  0  0  0  0  0
    7.0726  -16.6607   19.7344 N   0  0  0  0  0  0  0  0  0  0  0  0
    7.2463  -15.7983   21.9223 C   0  0  0  0  0  0  0  0  0  0  0  0
    6.0159  -15.9263   22.2211 O   0  0  0  0  0  0  0  0  0  0  0  0
    8.2143  -15.8878   22.9608 N   0  0  0  0  0  0  0  0  0  0  0  0
    7.7440  -16.1573   24.3382 C   0  0  1  0  0  0  0  0  0  0  0  0
    7.9914  -17.5973   24.6371 C   0  0  0  0  0  0  0  0  0  0  0  0
    7.6485  -18.1076   25.9511 C   0  0  0  0  0  0  0  0  0  0  0  0
    7.0782  -17.5812   27.0563 C   0  0  0  0  0  0  0  0  0  0  0  0
    6.9003  -18.5451   28.0108 N   0  0  0  0  0  0  0  0  0  0  0  0
    7.3696  -19.6638   27.4660 C   0  0  0  0  0  0  0  0  0  0  0  0
    7.8240  -19.4486   26.2411 N   0  0  0  0  0  0  0  0  0  0  0  0
    8.4277  -15.2405   25.2772 C   0  0  0  0  0  0  0  0  0  0  0  0
    9.6599  -15.3872   25.5027 O   0  0  0  0  0  0  0  0  0  0  0  0
    7.8137  -14.1512   25.9971 N   0  0  0  0  0  0  0  0  0  0  0  0
    6.4749  -13.6454   25.9037 C   0  0  0  0  0  0  0  0  0  0  0  0
    6.3747  -12.4579   26.8756 C   0  0  0  0  0  0  0  0  0  0  0  0
    7.4141  -12.8254   27.8872 C   0  0  0  0  0  0  0  0  0  0  0  0
    8.5303  -13.3640   27.0173 C   0  0  1  0  0  0  0  0  0  0  0  0
    9.3782  -14.2521   27.8824 C   0  0  0  0  0  0  0  0  0  0  0  0
    9.2830  -15.4853   27.8113 O   0  0  0  0  0  0  0  0  0  0  0  0
   10.2734  -13.6849   28.7661 O   0  0  0  0  0  0  0  0  0  0  0  0
  2  3  1  1
  2  1  1  0
  4  2  1  0
  5  4  1  0
  5  6  1  6
  7  8  2  0
  7  5  1  0
  9  7  1  0
 10  9  1  0
 10 11  1  1
 11 12  1  0
 12 13  2  0
 12 16  1  0
 13 14  1  0
 14 15  1  0
 16 15  2  0
 17 18  2  0
 17 10  1  0
 19 17  1  0
 20 19  1  0
 21 20  1  0
 22 23  1  0
 22 21  1  0
 23 19  1  0
 24 26  1  0
 23 24  1  1
 25 24  2  0
M  END
$$$$
