LHP.pdb
     RDKit          3D

 26 27  0  0  1  0  0  0  0  0999 V2000
    7.6176  -12.2782   18.6031 C   0  0  0  0  0  0  0  0  0  0  0  0
    8.1078  -13.6344   19.0624 C   0  0  1  0  0  0  0  0  0  0  0  0
    9.5251  -13.4160   19.5751 C   0  0  0  0  0  0  0  0  0  0  0  0
    7.2696  -14.1966   20.1581 C   0  0  0  0  0  0  0  0  0  0  0  0
    7.7468  -15.5326   20.6443 C   0  0  2  0  0  0  0  0  0  0  0  0
    7.1936  -16.5911   19.7922 N   0  0  0  0  0  0  0  0  0  0  0  0
    7.3640  -15.8404   22.0211 C   0  0  0  0  0  0  0  0  0  0  0  0
    6.2433  -16.3966   22.2542 O   0  0  0  0  0  0  0  0  0  0  0  0
    8.2157  -15.5336   23.1183 N   0  0  0  0  0  0  0  0  0  0  0  0
    7.8309  -16.0179   24.4631 C   0  0  1  0  0  0  0  0  0  0  0  0
    7.8675  -17.5087   24.4449 C   0  0  0  0  0  0  0  0  0  0  0  0
    7.6713  -18.2282   25.6892 C   0  0  0  0  0  0  0  0  0  0  0  0
    8.4827  -18.8863   26.5449 C   0  0  0  0  0  0  0  0  0  0  0  0
    7.7811  -19.3163   27.6380 N   0  0  0  0  0  0  0  0  0  0  0  0
    6.5327  -18.9066   27.4321 C   0  0  0  0  0  0  0  0  0  0  0  0
    6.4233  -18.2549   26.2849 N   0  0  0  0  0  0  0  0  0  0  0  0
    8.7337  -15.4242   25.4742 C   0  0  0  0  0  0  0  0  0  0  0  0
    9.8998  -15.8844   25.6129 O   0  0  0  0  0  0  0  0  0  0  0  0
    8.4131  -14.3311   26.3596 N   0  0  0  0  0  0  0  0  0  0  0  0
    7.2600  -13.4782   26.3640 C   0  0  0  0  0  0  0  0  0  0  0  0
    7.4542  -12.4664   27.5056 C   0  0  0  0  0  0  0  0  0  0  0  0
    8.3316  -13.2452   28.4343 C   0  0  0  0  0  0  0  0  0  0  0  0
    9.2865  -13.9256   27.4763 C   0  0  1  0  0  0  0  0  0  0  0  0
    9.8448  -15.1269   28.1843 C   0  0  0  0  0  0  0  0  0  0  0  0
    9.4216  -16.2642   27.9343 O   0  0  0  0  0  0  0  0  0  0  0  0
   10.8412  -14.9590   29.1240 O   0  0  0  0  0  0  0  0  0  0  0  0
  2  3  1  1
  2  1  1  0
  4  2  1  0
  5  4  1  0
  5  6  1  6
  7  8  2  0
  7  5  1  0
  9  7  1  0
 10  9  1  0
 10 11  1  6
 11 12  1  0
 12 13  2  0
 12 16  1  0
 13 14  1  0
 14 15  1  0
 16 15  2  0
 17 18  2  0
 17 10  1  0
 19 17  1  0
 20 19  1  0
 21 20  1  0
 22 23  1  0
 22 21  1  0
 23 19  1  0
 24 26  1  0
 23 24  1  1
 25 24  2  0
M  END
$$$$
