LHP.pdb
     RDKit          3D

 26 27  0  0  1  0  0  0  0  0999 V2000
    9.6913  -12.9079   19.7219 C   0  0  0  0  0  0  0  0  0  0  0  0
    8.3598  -13.3489   20.2903 C   0  0  1  0  0  0  0  0  0  0  0  0
    7.3585  -12.2713   19.8961 C   0  0  0  0  0  0  0  0  0  0  0  0
    7.9157  -14.6590   19.7375 C   0  0  0  0  0  0  0  0  0  0  0  0
    8.2778  -15.8243   20.6093 C   0  0  2  0  0  0  0  0  0  0  0  0
    7.8276  -17.0691   19.9765 N   0  0  0  0  0  0  0  0  0  0  0  0
    7.6866  -15.7789   21.9454 C   0  0  0  0  0  0  0  0  0  0  0  0
    6.4216  -15.8246   22.0766 O   0  0  0  0  0  0  0  0  0  0  0  0
    8.4916  -15.6844   23.1143 N   0  0  0  0  0  0  0  0  0  0  0  0
    7.8329  -15.8154   24.4334 C   0  0  1  0  0  0  0  0  0  0  0  0
    8.0192  -17.2178   24.9053 C   0  0  0  0  0  0  0  0  0  0  0  0
    7.2037  -18.2661   24.3217 C   0  0  0  0  0  0  0  0  0  0  0  0
    5.8764  -18.4951   24.2248 C   0  0  0  0  0  0  0  0  0  0  0  0
    5.6352  -19.6148   23.4764 N   0  0  0  0  0  0  0  0  0  0  0  0
    6.8369  -20.0593   23.1199 C   0  0  0  0  0  0  0  0  0  0  0  0
    7.7980  -19.2862   23.6010 N   0  0  0  0  0  0  0  0  0  0  0  0
    8.3919  -14.8081   25.3621 C   0  0  0  0  0  0  0  0  0  0  0  0
    9.6244  -14.8252   25.6293 O   0  0  0  0  0  0  0  0  0  0  0  0
    7.6505  -13.7641   26.0272 N   0  0  0  0  0  0  0  0  0  0  0  0
    6.3154  -13.3030   25.7785 C   0  0  0  0  0  0  0  0  0  0  0  0
    6.0479  -12.1508   26.7611 C   0  0  0  0  0  0  0  0  0  0  0  0
    6.9654  -12.5131   27.8861 C   0  0  0  0  0  0  0  0  0  0  0  0
    8.2021  -12.9845   27.1506 C   0  0  1  0  0  0  0  0  0  0  0  0
    8.9685  -13.8689   28.0921 C   0  0  0  0  0  0  0  0  0  0  0  0
    8.8603  -15.1018   28.0343 O   0  0  0  0  0  0  0  0  0  0  0  0
    9.8026  -13.2987   29.0319 O   0  0  0  0  0  0  0  0  0  0  0  0
  2  3  1  6
  2  1  1  0
  4  2  1  0
  5  4  1  0
  5  6  1  6
  7  8  2  0
  7  5  1  0
  9  7  1  0
 10  9  1  0
 10 11  1  1
 11 12  1  0
 12 13  2  0
 12 16  1  0
 13 14  1  0
 14 15  1  0
 16 15  2  0
 17 18  2  0
 17 10  1  0
 19 17  1  0
 20 19  1  0
 21 20  1  0
 22 23  1  0
 22 21  1  0
 23 19  1  0
 24 26  1  0
 23 24  1  1
 25 24  2  0
M  END
$$$$
