LHP.pdb
     RDKit          3D

 26 27  0  0  1  0  0  0  0  0999 V2000
    7.6869  -12.2010   18.5129 C   0  0  0  0  0  0  0  0  0  0  0  0
    8.0932  -13.6103   18.8860 C   0  0  1  0  0  0  0  0  0  0  0  0
    9.5536  -13.5268   19.3097 C   0  0  0  0  0  0  0  0  0  0  0  0
    7.2841  -14.1517   20.0136 C   0  0  0  0  0  0  0  0  0  0  0  0
    7.7225  -15.5155   20.4572 C   0  0  2  0  0  0  0  0  0  0  0  0
    7.1319  -16.5309   19.5780 N   0  0  0  0  0  0  0  0  0  0  0  0
    7.3384  -15.8519   21.8268 C   0  0  0  0  0  0  0  0  0  0  0  0
    6.1400  -16.1988   22.0781 O   0  0  0  0  0  0  0  0  0  0  0  0
    8.2739  -15.8026   22.8973 N   0  0  0  0  0  0  0  0  0  0  0  0
    7.7948  -16.1100   24.2637 C   0  0  1  0  0  0  0  0  0  0  0  0
    8.0992  -17.5419   24.5484 C   0  0  0  0  0  0  0  0  0  0  0  0
    7.8105  -18.0690   25.8687 C   0  0  0  0  0  0  0  0  0  0  0  0
    8.5612  -18.4954   26.9072 C   0  0  0  0  0  0  0  0  0  0  0  0
    7.7676  -18.8140   27.9752 N   0  0  0  0  0  0  0  0  0  0  0  0
    6.5248  -18.5719   27.5683 C   0  0  0  0  0  0  0  0  0  0  0  0
    6.5048  -18.1269   26.3215 N   0  0  0  0  0  0  0  0  0  0  0  0
    8.4243  -15.1773   25.2247 C   0  0  0  0  0  0  0  0  0  0  0  0
    9.6486  -15.3020   25.5009 O   0  0  0  0  0  0  0  0  0  0  0  0
    7.7634  -14.0951   25.9130 N   0  0  0  0  0  0  0  0  0  0  0  0
    6.4048  -13.6485   25.8035 C   0  0  0  0  0  0  0  0  0  0  0  0
    6.2525  -12.4397   26.7418 C   0  0  0  0  0  0  0  0  0  0  0  0
    7.3036  -12.7353   27.7650 C   0  0  0  0  0  0  0  0  0  0  0  0
    8.4436  -13.2506   26.9121 C   0  0  1  0  0  0  0  0  0  0  0  0
    9.3256  -14.0782   27.8029 C   0  0  0  0  0  0  0  0  0  0  0  0
   10.1373  -13.5402   28.5688 O   0  0  0  0  0  0  0  0  0  0  0  0
    9.2283  -15.4541   27.7657 O   0  0  0  0  0  0  0  0  0  0  0  0
  2  3  1  1
  2  1  1  0
  4  2  1  0
  5  4  1  0
  5  6  1  6
  7  8  2  0
  7  5  1  0
  9  7  1  0
 10  9  1  0
 10 11  1  1
 11 12  1  0
 12 13  2  0
 12 16  1  0
 13 14  1  0
 14 15  1  0
 16 15  2  0
 17 18  2  0
 17 10  1  0
 19 17  1  0
 20 19  1  0
 21 20  1  0
 22 23  1  0
 22 21  1  0
 23 19  1  0
 24 26  1  0
 23 24  1  1
 25 24  2  0
M  END
$$$$
