LHP.pdb
     RDKit          3D

 26 27  0  0  1  0  0  0  0  0999 V2000
    7.7562  -12.3025   18.4501 C   0  0  0  0  0  0  0  0  0  0  0  0
    8.2100  -13.6661   18.9248 C   0  0  1  0  0  0  0  0  0  0  0  0
    9.6345  -13.4809   19.4305 C   0  0  0  0  0  0  0  0  0  0  0  0
    7.3601  -14.1911   20.0299 C   0  0  0  0  0  0  0  0  0  0  0  0
    7.7653  -15.5593   20.4913 C   0  0  2  0  0  0  0  0  0  0  0  0
    7.1502  -16.5714   19.6252 N   0  0  0  0  0  0  0  0  0  0  0  0
    7.3732  -15.8685   21.8651 C   0  0  0  0  0  0  0  0  0  0  0  0
    6.1756  -16.2195   22.1148 O   0  0  0  0  0  0  0  0  0  0  0  0
    8.2998  -15.7877   22.9413 N   0  0  0  0  0  0  0  0  0  0  0  0
    7.8046  -16.0325   24.3146 C   0  0  1  0  0  0  0  0  0  0  0  0
    8.0291  -17.4712   24.6367 C   0  0  0  0  0  0  0  0  0  0  0  0
    7.7217  -17.9448   25.9730 C   0  0  0  0  0  0  0  0  0  0  0  0
    6.5923  -18.3166   26.6135 C   0  0  0  0  0  0  0  0  0  0  0  0
    6.8811  -18.7759   27.8695 N   0  0  0  0  0  0  0  0  0  0  0  0
    8.2029  -18.6786   27.9791 C   0  0  0  0  0  0  0  0  0  0  0  0
    8.7426  -18.1893   26.8736 N   0  0  0  0  0  0  0  0  0  0  0  0
    8.4849  -15.1115   25.2519 C   0  0  0  0  0  0  0  0  0  0  0  0
    9.7018  -15.2938   25.5290 O   0  0  0  0  0  0  0  0  0  0  0  0
    7.8838  -13.9799   25.9152 N   0  0  0  0  0  0  0  0  0  0  0  0
    6.5878  -13.3983   25.7170 C   0  0  0  0  0  0  0  0  0  0  0  0
    6.4850  -12.1955   26.6697 C   0  0  0  0  0  0  0  0  0  0  0  0
    7.4220  -12.6109   27.7598 C   0  0  0  0  0  0  0  0  0  0  0  0
    8.5667  -13.2237   26.9809 C   0  0  1  0  0  0  0  0  0  0  0  0
    9.2935  -14.1493   27.9142 C   0  0  0  0  0  0  0  0  0  0  0  0
    9.0952  -15.3717   27.8774 O   0  0  0  0  0  0  0  0  0  0  0  0
   10.1925  -13.6292   28.8227 O   0  0  0  0  0  0  0  0  0  0  0  0
  2  3  1  1
  2  1  1  0
  4  2  1  0
  5  4  1  0
  5  6  1  6
  7  8  2  0
  7  5  1  0
  9  7  1  0
 10  9  1  0
 10 11  1  1
 11 12  1  0
 12 13  2  0
 12 16  1  0
 13 14  1  0
 14 15  1  0
 16 15  2  0
 17 18  2  0
 17 10  1  0
 19 17  1  0
 20 19  1  0
 21 20  1  0
 22 23  1  0
 22 21  1  0
 23 19  1  0
 24 26  1  0
 23 24  1  1
 25 24  2  0
M  END
$$$$
