LHP.pdb
     RDKit          3D

 26 27  0  0  1  0  0  0  0  0999 V2000
    7.6278  -12.2792   18.3165 C   0  0  0  0  0  0  0  0  0  0  0  0
    8.1823  -13.5666   18.8871 C   0  0  1  0  0  0  0  0  0  0  0  0
    9.5467  -13.2151   19.4652 C   0  0  0  0  0  0  0  0  0  0  0  0
    7.3197  -14.1239   19.9662 C   0  0  0  0  0  0  0  0  0  0  0  0
    7.8899  -15.3548   20.6054 C   0  0  2  0  0  0  0  0  0  0  0  0
    7.5845  -16.5253   19.7752 N   0  0  0  0  0  0  0  0  0  0  0  0
    7.3738  -15.6275   21.9455 C   0  0  0  0  0  0  0  0  0  0  0  0
    6.2471  -16.2035   22.0817 O   0  0  0  0  0  0  0  0  0  0  0  0
    8.1008  -15.2644   23.1130 N   0  0  0  0  0  0  0  0  0  0  0  0
    7.6117  -15.7477   24.4238 C   0  0  1  0  0  0  0  0  0  0  0  0
    7.7163  -17.2354   24.4357 C   0  0  0  0  0  0  0  0  0  0  0  0
    7.3813  -17.9502   25.6528 C   0  0  0  0  0  0  0  0  0  0  0  0
    6.8260  -17.6065   26.8349 C   0  0  0  0  0  0  0  0  0  0  0  0
    6.6485  -18.7116   27.6218 N   0  0  0  0  0  0  0  0  0  0  0  0
    7.1029  -19.7301   26.8973 C   0  0  0  0  0  0  0  0  0  0  0  0
    7.5476  -19.3217   25.7190 N   0  0  0  0  0  0  0  0  0  0  0  0
    8.3867  -15.0996   25.5049 C   0  0  0  0  0  0  0  0  0  0  0  0
    9.5834  -15.4445   25.7047 O   0  0  0  0  0  0  0  0  0  0  0  0
    7.9035  -14.0735   26.3968 N   0  0  0  0  0  0  0  0  0  0  0  0
    6.6217  -13.4309   26.4271 C   0  0  0  0  0  0  0  0  0  0  0  0
    6.6651  -12.3956   27.5633 C   0  0  0  0  0  0  0  0  0  0  0  0
    7.6838  -13.0081   28.4721 C   0  0  0  0  0  0  0  0  0  0  0  0
    8.7194  -13.5192   27.4928 C   0  0  1  0  0  0  0  0  0  0  0  0
    9.4912  -14.6037   28.1885 C   0  0  0  0  0  0  0  0  0  0  0  0
    9.2697  -15.7977   27.9429 O   0  0  0  0  0  0  0  0  0  0  0  0
   10.4583  -14.2633   29.1121 O   0  0  0  0  0  0  0  0  0  0  0  0
  2  3  1  1
  2  1  1  0
  4  2  1  0
  5  4  1  0
  5  6  1  6
  7  8  2  0
  7  5  1  0
  9  7  1  0
 10  9  1  0
 10 11  1  6
 11 12  1  0
 12 13  2  0
 12 16  1  0
 13 14  1  0
 14 15  1  0
 16 15  2  0
 17 18  2  0
 17 10  1  0
 19 17  1  0
 20 19  1  0
 21 20  1  0
 22 23  1  0
 22 21  1  0
 23 19  1  0
 24 26  1  0
 23 24  1  1
 25 24  2  0
M  END
$$$$
