LHP.pdb
     RDKit          3D

 26 27  0  0  1  0  0  0  0  0999 V2000
    7.0164  -11.2703   27.5803 C   0  0  0  0  0  0  0  0  0  0  0  0
    6.3474  -12.1809   26.5734 C   0  0  1  0  0  0  0  0  0  0  0  0
    6.2944  -11.3961   25.2693 C   0  0  0  0  0  0  0  0  0  0  0  0
    7.1104  -13.4420   26.3579 C   0  0  0  0  0  0  0  0  0  0  0  0
    6.3750  -14.4445   25.5193 C   0  0  2  0  0  0  0  0  0  0  0  0
    5.4035  -15.1624   26.3520 N   0  0  0  0  0  0  0  0  0  0  0  0
    7.2347  -15.4477   24.8939 C   0  0  0  0  0  0  0  0  0  0  0  0
    7.4869  -16.5330   25.5087 O   0  0  0  0  0  0  0  0  0  0  0  0
    7.8031  -15.2443   23.6058 N   0  0  0  0  0  0  0  0  0  0  0  0
    8.6369  -16.3221   23.0278 C   0  0  1  0  0  0  0  0  0  0  0  0
    8.6200  -16.1735   21.5440 C   0  0  0  0  0  0  0  0  0  0  0  0
    9.3195  -17.1537   20.7350 C   0  0  0  0  0  0  0  0  0  0  0  0
    9.9943  -18.2942   20.9956 C   0  0  0  0  0  0  0  0  0  0  0  0
   10.3896  -18.8952   19.8318 N   0  0  0  0  0  0  0  0  0  0  0  0
    9.9420  -18.1024   18.8624 C   0  0  0  0  0  0  0  0  0  0  0  0
    9.2994  -17.0552   19.3555 N   0  0  0  0  0  0  0  0  0  0  0  0
    9.9973  -16.2522   23.6058 C   0  0  0  0  0  0  0  0  0  0  0  0
   10.6687  -15.1909   23.4885 O   0  0  0  0  0  0  0  0  0  0  0  0
   10.6716  -17.3105   24.3179 N   0  0  0  0  0  0  0  0  0  0  0  0
   10.1457  -18.5543   24.8011 C   0  0  0  0  0  0  0  0  0  0  0  0
   11.2981  -19.2832   25.5121 C   0  0  0  0  0  0  0  0  0  0  0  0
   12.4827  -18.7194   24.7925 C   0  0  0  0  0  0  0  0  0  0  0  0
   12.1066  -17.2593   24.6530 C   0  0  1  0  0  0  0  0  0  0  0  0
   12.9051  -16.7025   23.5092 C   0  0  0  0  0  0  0  0  0  0  0  0
   14.0588  -16.2864   23.6840 O   0  0  0  0  0  0  0  0  0  0  0  0
   12.3444  -16.6552   22.2492 O   0  0  0  0  0  0  0  0  0  0  0  0
  2  3  1  6
  2  1  1  0
  4  2  1  0
  5  4  1  0
  5  6  1  1
  7  8  2  0
  7  5  1  0
  9  7  1  0
 10  9  1  0
 10 11  1  6
 11 12  1  0
 12 13  2  0
 12 16  1  0
 13 14  1  0
 14 15  1  0
 16 15  2  0
 17 18  2  0
 17 10  1  0
 19 17  1  0
 20 19  1  0
 21 20  1  0
 22 23  1  0
 22 21  1  0
 23 19  1  0
 24 26  1  0
 23 24  1  6
 25 24  2  0
M  END
$$$$
