LHP.pdb
     RDKit          3D

 26 27  0  0  1  0  0  0  0  0999 V2000
    7.6615  -12.1382   18.8360 C   0  0  0  0  0  0  0  0  0  0  0  0
    8.1418  -13.5285   19.1922 C   0  0  1  0  0  0  0  0  0  0  0  0
    9.4573  -13.3394   19.9357 C   0  0  0  0  0  0  0  0  0  0  0  0
    7.1796  -14.2506   20.0708 C   0  0  0  0  0  0  0  0  0  0  0  0
    7.6905  -15.5787   20.5445 C   0  0  2  0  0  0  0  0  0  0  0  0
    7.1486  -16.6445   19.6943 N   0  0  0  0  0  0  0  0  0  0  0  0
    7.3315  -15.9005   21.9244 C   0  0  0  0  0  0  0  0  0  0  0  0
    6.1272  -16.1969   22.2096 O   0  0  0  0  0  0  0  0  0  0  0  0
    8.2983  -15.8922   22.9679 N   0  0  0  0  0  0  0  0  0  0  0  0
    7.8432  -16.1668   24.3494 C   0  0  1  0  0  0  0  0  0  0  0  0
    8.1289  -17.5986   24.6536 C   0  0  0  0  0  0  0  0  0  0  0  0
    7.8172  -18.1083   25.9756 C   0  0  0  0  0  0  0  0  0  0  0  0
    8.5469  -18.5860   27.0067 C   0  0  0  0  0  0  0  0  0  0  0  0
    7.7431  -18.8535   28.0811 N   0  0  0  0  0  0  0  0  0  0  0  0
    6.5156  -18.5284   27.6855 C   0  0  0  0  0  0  0  0  0  0  0  0
    6.5145  -18.0803   26.4396 N   0  0  0  0  0  0  0  0  0  0  0  0
    8.5090  -15.2284   25.2799 C   0  0  0  0  0  0  0  0  0  0  0  0
    9.7376  -15.3669   25.5289 O   0  0  0  0  0  0  0  0  0  0  0  0
    7.8805  -14.1257   25.9660 N   0  0  0  0  0  0  0  0  0  0  0  0
    6.5503  -13.6094   25.8210 C   0  0  0  0  0  0  0  0  0  0  0  0
    6.4275  -12.4101   26.7756 C   0  0  0  0  0  0  0  0  0  0  0  0
    7.4281  -12.7751   27.8265 C   0  0  0  0  0  0  0  0  0  0  0  0
    8.5686  -13.3332   27.0016 C   0  0  1  0  0  0  0  0  0  0  0  0
    9.3782  -14.2187   27.9052 C   0  0  0  0  0  0  0  0  0  0  0  0
    9.2733  -15.4517   27.8455 O   0  0  0  0  0  0  0  0  0  0  0  0
   10.2487  -13.6493   28.8119 O   0  0  0  0  0  0  0  0  0  0  0  0
  2  3  1  1
  2  1  1  0
  4  2  1  0
  5  4  1  0
  5  6  1  6
  7  8  2  0
  7  5  1  0
  9  7  1  0
 10  9  1  0
 10 11  1  1
 11 12  1  0
 12 13  2  0
 12 16  1  0
 13 14  1  0
 14 15  1  0
 16 15  2  0
 17 18  2  0
 17 10  1  0
 19 17  1  0
 20 19  1  0
 21 20  1  0
 22 23  1  0
 22 21  1  0
 23 19  1  0
 24 26  1  0
 23 24  1  1
 25 24  2  0
M  END
$$$$
