LHP.pdb
     RDKit          3D

 26 27  0  0  1  0  0  0  0  0999 V2000
    8.1641  -12.1871   18.4452 C   0  0  0  0  0  0  0  0  0  0  0  0
    8.6393  -13.5134   18.9981 C   0  0  1  0  0  0  0  0  0  0  0  0
    9.9142  -13.2110   19.7743 C   0  0  0  0  0  0  0  0  0  0  0  0
    7.6414  -14.1338   19.9137 C   0  0  0  0  0  0  0  0  0  0  0  0
    8.1628  -15.3462   20.6258 C   0  0  2  0  0  0  0  0  0  0  0  0
    7.8806  -16.5439   19.8267 N   0  0  0  0  0  0  0  0  0  0  0  0
    7.5795  -15.5606   21.9488 C   0  0  0  0  0  0  0  0  0  0  0  0
    6.3361  -15.8095   22.0565 O   0  0  0  0  0  0  0  0  0  0  0  0
    8.3686  -15.4988   23.1308 N   0  0  0  0  0  0  0  0  0  0  0  0
    7.7201  -15.8071   24.4252 C   0  0  1  0  0  0  0  0  0  0  0  0
    7.8551  -17.2717   24.6719 C   0  0  0  0  0  0  0  0  0  0  0  0
    7.0333  -18.1886   23.9048 C   0  0  0  0  0  0  0  0  0  0  0  0
    7.2106  -18.9055   22.7741 C   0  0  0  0  0  0  0  0  0  0  0  0
    6.1214  -19.6972   22.5313 N   0  0  0  0  0  0  0  0  0  0  0  0
    5.2826  -19.4502   23.5335 C   0  0  0  0  0  0  0  0  0  0  0  0
    5.7859  -18.5591   24.3735 N   0  0  0  0  0  0  0  0  0  0  0  0
    8.3299  -14.9776   25.4882 C   0  0  0  0  0  0  0  0  0  0  0  0
    9.5072  -15.2221   25.8689 O   0  0  0  0  0  0  0  0  0  0  0  0
    7.6986  -13.8734   26.1692 N   0  0  0  0  0  0  0  0  0  0  0  0
    6.4434  -13.2373   25.8917 C   0  0  0  0  0  0  0  0  0  0  0  0
    6.2821  -12.0979   26.9116 C   0  0  0  0  0  0  0  0  0  0  0  0
    7.0994  -12.6155   28.0531 C   0  0  0  0  0  0  0  0  0  0  0  0
    8.2966  -13.2127   27.3439 C   0  0  1  0  0  0  0  0  0  0  0  0
    8.9061  -14.2218   28.2746 C   0  0  0  0  0  0  0  0  0  0  0  0
    8.6669  -15.4305   28.1447 O   0  0  0  0  0  0  0  0  0  0  0  0
    9.7423  -13.7948   29.2858 O   0  0  0  0  0  0  0  0  0  0  0  0
  2  3  1  1
  2  1  1  0
  4  2  1  0
  5  4  1  0
  5  6  1  6
  7  8  2  0
  7  5  1  0
  9  7  1  0
 10  9  1  0
 10 11  1  1
 11 12  1  0
 12 13  2  0
 12 16  1  0
 13 14  1  0
 14 15  1  0
 16 15  2  0
 17 18  2  0
 17 10  1  0
 19 17  1  0
 20 19  1  0
 21 20  1  0
 22 23  1  0
 22 21  1  0
 23 19  1  0
 24 26  1  0
 23 24  1  1
 25 24  2  0
M  END
$$$$
