LHP.pdb
     RDKit          3D

 26 27  0  0  1  0  0  0  0  0999 V2000
    9.5346  -13.1292   19.8930 C   0  0  0  0  0  0  0  0  0  0  0  0
    8.0701  -13.4795   20.0445 C   0  0  1  0  0  0  0  0  0  0  0  0
    7.2996  -12.3749   19.3335 C   0  0  0  0  0  0  0  0  0  0  0  0
    7.7357  -14.7912   19.4226 C   0  0  0  0  0  0  0  0  0  0  0  0
    8.1513  -15.9663   20.2566 C   0  0  2  0  0  0  0  0  0  0  0  0
    7.7199  -17.2078   19.6045 N   0  0  0  0  0  0  0  0  0  0  0  0
    7.5925  -15.9694   21.6072 C   0  0  0  0  0  0  0  0  0  0  0  0
    6.3744  -16.2927   21.7846 O   0  0  0  0  0  0  0  0  0  0  0  0
    8.3778  -15.6183   22.7401 N   0  0  0  0  0  0  0  0  0  0  0  0
    7.8536  -15.9422   24.0860 C   0  0  1  0  0  0  0  0  0  0  0  0
    8.1639  -17.3729   24.3703 C   0  0  0  0  0  0  0  0  0  0  0  0
    7.8385  -17.9127   25.6769 C   0  0  0  0  0  0  0  0  0  0  0  0
    8.5217  -18.0941   26.8276 C   0  0  0  0  0  0  0  0  0  0  0  0
    7.6950  -18.5725   27.8072 N   0  0  0  0  0  0  0  0  0  0  0  0
    6.5000  -18.6761   27.2326 C   0  0  0  0  0  0  0  0  0  0  0  0
    6.5405  -18.2935   25.9657 N   0  0  0  0  0  0  0  0  0  0  0  0
    8.4375  -15.0104   25.0762 C   0  0  0  0  0  0  0  0  0  0  0  0
    9.6559  -15.1150   25.3850 O   0  0  0  0  0  0  0  0  0  0  0  0
    7.7365  -13.9506   25.7596 N   0  0  0  0  0  0  0  0  0  0  0  0
    6.3787  -13.5158   25.6032 C   0  0  0  0  0  0  0  0  0  0  0  0
    6.1739  -12.3297   26.5603 C   0  0  0  0  0  0  0  0  0  0  0  0
    7.1849  -12.6369   27.6198 C   0  0  0  0  0  0  0  0  0  0  0  0
    8.3651  -13.1214   26.8043 C   0  0  1  0  0  0  0  0  0  0  0  0
    9.2186  -13.9592   27.7130 C   0  0  0  0  0  0  0  0  0  0  0  0
   10.0225  -13.4310   28.4937 O   0  0  0  0  0  0  0  0  0  0  0  0
    9.1037  -15.3338   27.6757 O   0  0  0  0  0  0  0  0  0  0  0  0
  2  3  1  6
  2  1  1  0
  4  2  1  0
  5  4  1  0
  5  6  1  6
  7  8  2  0
  7  5  1  0
  9  7  1  0
 10  9  1  0
 10 11  1  1
 11 12  1  0
 12 13  2  0
 12 16  1  0
 13 14  1  0
 14 15  1  0
 16 15  2  0
 17 18  2  0
 17 10  1  0
 19 17  1  0
 20 19  1  0
 21 20  1  0
 22 23  1  0
 22 21  1  0
 23 19  1  0
 24 26  1  0
 23 24  1  1
 25 24  2  0
M  END
$$$$
