CNT.pdb
     RDKit          3D

 22 21  0  0  1  0  0  0  0  0999 V2000
   18.5003  -15.3274  -16.8453 N   0  0  0  0  0  0  0  0  0  0  0  0
   18.4606  -13.9662  -17.3211 C   0  0  1  0  0  0  0  0  0  0  0  0
   17.0557  -13.4015  -17.3409 C   0  0  0  0  0  0  0  0  0  0  0  0
   16.0787  -14.4813  -18.4400 S   0  0  0  0  0  0  0  0  0  0  0  0
   19.4144  -13.1348  -16.5779 C   0  0  0  0  0  0  0  0  0  0  0  0
   19.2534  -12.9607  -15.3457 O   0  0  0  0  0  0  0  0  0  0  0  0
   24.2847  -11.4654  -14.6446 N   0  0  0  0  0  0  0  0  0  0  0  0
   23.6763  -11.0189  -15.8339 C   0  0  0  0  0  0  0  0  0  0  0  0
   23.8195   -9.7956  -16.1757 O   0  0  0  0  0  0  0  0  0  0  0  0
   22.8742  -11.9308  -16.7114 C   0  0  0  0  0  0  0  0  0  0  0  0
   21.4444  -11.6537  -16.4181 C   0  0  2  0  0  0  0  0  0  0  0  0
   20.5455  -12.4897  -17.1732 N   0  0  0  0  0  0  0  0  0  0  0  0
   21.0541  -10.2195  -16.5480 C   0  0  0  0  0  0  0  0  0  0  0  0
   21.0049   -9.6849  -17.6852 O   0  0  0  0  0  0  0  0  0  0  0  0
   18.5816   -8.3253  -13.8433 C   0  0  0  0  0  0  0  0  0  0  0  0
   18.8604   -7.8505  -15.2551 C   0  0  1  0  0  0  0  0  0  0  0  0
   18.5772   -6.4988  -15.4070 O   0  0  0  0  0  0  0  0  0  0  0  0
   20.3088   -8.0445  -15.5977 C   0  0  2  0  0  0  0  0  0  0  0  0
   20.7360   -9.4335  -15.4267 N   0  0  0  0  0  0  0  0  0  0  0  0
   21.2027   -7.1339  -14.8478 C   0  0  0  0  0  0  0  0  0  0  0  0
   21.1202   -5.7793  -15.0251 O   0  0  0  0  0  0  0  0  0  0  0  0
   22.0341   -7.6102  -14.0530 O   0  0  0  0  0  0  0  0  0  0  0  0
  2  1  1  1
  2  3  1  0
  2  5  1  0
  3  4  1  0
  5  6  2  0
  5 12  1  0
  7  8  1  0
  8 10  1  0
  9  8  2  0
 11 10  1  6
 11 13  1  0
 12 11  1  0
 13 19  1  0
 13 14  2  0
 16 15  1  1
 17 16  1  0
 18 16  1  0
 18 20  1  0
 18 19  1  1
 20 21  1  0
 22 20  2  0
M  END
$$$$
