CNT.pdb
     RDKit          3D

 22 21  0  0  1  0  0  0  0  0999 V2000
   31.9043  -28.1079  -18.1480 N   0  0  0  0  0  0  0  0  0  0  0  0
   32.5570  -29.3724  -18.3844 C   0  0  1  0  0  0  0  0  0  0  0  0
   34.0555  -29.2278  -18.5476 C   0  0  0  0  0  0  0  0  0  0  0  0
   34.3173  -28.1466  -19.9936 S   0  0  0  0  0  0  0  0  0  0  0  0
   32.1722  -30.3482  -17.3584 C   0  0  0  0  0  0  0  0  0  0  0  0
   31.6899  -29.9454  -16.2722 O   0  0  0  0  0  0  0  0  0  0  0  0
   28.8308  -30.8438  -15.2403 N   0  0  0  0  0  0  0  0  0  0  0  0
   29.5434  -32.0159  -15.5605 C   0  0  0  0  0  0  0  0  0  0  0  0
   29.8017  -32.8519  -14.6287 O   0  0  0  0  0  0  0  0  0  0  0  0
   30.0016  -32.3158  -16.9552 C   0  0  0  0  0  0  0  0  0  0  0  0
   31.4327  -32.7027  -16.8584 C   0  0  2  0  0  0  0  0  0  0  0  0
   32.3117  -31.7651  -17.5105 N   0  0  0  0  0  0  0  0  0  0  0  0
   31.7282  -34.0937  -17.3098 C   0  0  0  0  0  0  0  0  0  0  0  0
   31.7147  -34.3696  -18.5366 O   0  0  0  0  0  0  0  0  0  0  0  0
   33.3346  -38.6789  -16.3881 C   0  0  0  0  0  0  0  0  0  0  0  0
   33.0027  -37.3078  -15.8348 C   0  0  1  0  0  0  0  0  0  0  0  0
   34.1453  -36.6253  -15.4359 O   0  0  0  0  0  0  0  0  0  0  0  0
   32.3243  -36.4704  -16.8795 C   0  0  2  0  0  0  0  0  0  0  0  0
   32.0244  -35.1217  -16.3977 N   0  0  0  0  0  0  0  0  0  0  0  0
   31.1036  -37.1077  -17.4221 C   0  0  0  0  0  0  0  0  0  0  0  0
   31.1975  -38.1900  -18.2544 O   0  0  0  0  0  0  0  0  0  0  0  0
   29.9870  -36.6500  -17.1162 O   0  0  0  0  0  0  0  0  0  0  0  0
  2  1  1  1
  2  3  1  0
  2  5  1  0
  3  4  1  0
  5  6  2  0
  5 12  1  0
  7  8  1  0
  8 10  1  0
  9  8  2  0
 11 10  1  6
 11 13  1  0
 12 11  1  0
 13 19  1  0
 13 14  2  0
 16 15  1  6
 17 16  1  0
 18 16  1  0
 18 20  1  0
 18 19  1  1
 20 21  1  0
 22 20  2  0
M  END
$$$$
