CNT.pdb
     RDKit          3D

 22 21  0  0  1  0  0  0  0  0999 V2000
   26.5641  -18.0577  -18.2460 N   0  0  0  0  0  0  0  0  0  0  0  0
   26.5663  -19.2559  -17.4426 C   0  0  1  0  0  0  0  0  0  0  0  0
   27.8749  -19.4564  -16.7075 C   0  0  0  0  0  0  0  0  0  0  0  0
   28.7161  -17.8376  -16.6960 S   0  0  0  0  0  0  0  0  0  0  0  0
   25.3916  -19.2865  -16.5639 C   0  0  0  0  0  0  0  0  0  0  0  0
   24.8410  -18.2095  -16.2300 O   0  0  0  0  0  0  0  0  0  0  0  0
   20.7012  -19.6887  -14.5411 N   0  0  0  0  0  0  0  0  0  0  0  0
   21.3328  -20.9133  -14.8332 C   0  0  0  0  0  0  0  0  0  0  0  0
   20.9410  -21.9673  -14.2253 O   0  0  0  0  0  0  0  0  0  0  0  0
   22.4418  -21.0206  -15.8350 C   0  0  0  0  0  0  0  0  0  0  0  0
   23.6607  -20.4810  -15.1790 C   0  0  2  0  0  0  0  0  0  0  0  0
   24.8128  -20.4889  -16.0449 N   0  0  0  0  0  0  0  0  0  0  0  0
   23.9895  -21.1157  -13.8695 C   0  0  0  0  0  0  0  0  0  0  0  0
   24.1211  -22.3642  -13.7946 O   0  0  0  0  0  0  0  0  0  0  0  0
   26.7979  -20.7635  -11.4117 C   0  0  0  0  0  0  0  0  0  0  0  0
   25.5162  -20.4886  -10.6515 C   0  0  1  0  0  0  0  0  0  0  0  0
   25.3110  -19.1268  -10.4675 O   0  0  0  0  0  0  0  0  0  0  0  0
   24.3334  -21.0203  -11.4074 C   0  0  2  0  0  0  0  0  0  0  0  0
   24.1587  -20.3554  -12.6991 N   0  0  0  0  0  0  0  0  0  0  0  0
   23.0790  -20.9631  -10.6240 C   0  0  0  0  0  0  0  0  0  0  0  0
   22.9465  -21.6908   -9.4724 O   0  0  0  0  0  0  0  0  0  0  0  0
   22.1414  -20.2473  -11.0218 O   0  0  0  0  0  0  0  0  0  0  0  0
  2  1  1  1
  2  3  1  0
  2  5  1  0
  3  4  1  0
  5  6  2  0
  5 12  1  0
  7  8  1  0
  8 10  1  0
  9  8  2  0
 11 10  1  6
 11 13  1  0
 12 11  1  0
 13 19  1  0
 13 14  2  0
 16 15  1  6
 17 16  1  0
 18 16  1  0
 18 20  1  0
 18 19  1  6
 20 21  1  0
 22 20  2  0
M  END
$$$$
