CNT.pdb
     RDKit          3D

 22 21  0  0  1  0  0  0  0  0999 V2000
   13.4925  -13.3269  -11.5795 N   0  0  0  0  0  0  0  0  0  0  0  0
   12.9689  -11.9867  -11.4760 C   0  0  1  0  0  0  0  0  0  0  0  0
   11.8546  -11.8786  -10.4564 C   0  0  0  0  0  0  0  0  0  0  0  0
   10.4555  -12.8478  -11.1133 S   0  0  0  0  0  0  0  0  0  0  0  0
   14.0566  -11.0264  -11.2571 C   0  0  0  0  0  0  0  0  0  0  0  0
   14.7477  -11.1026  -10.2125 O   0  0  0  0  0  0  0  0  0  0  0  0
   17.7982  -10.3612  -11.6439 N   0  0  0  0  0  0  0  0  0  0  0  0
   17.6073   -9.6342  -12.8352 C   0  0  0  0  0  0  0  0  0  0  0  0
   18.5359   -9.6392  -13.7136 O   0  0  0  0  0  0  0  0  0  0  0  0
   16.3521   -8.8627  -13.1072 C   0  0  0  0  0  0  0  0  0  0  0  0
   15.4714   -9.0538  -11.9259 C   0  0  2  0  0  0  0  0  0  0  0  0
   14.3953   -9.9798  -12.1736 N   0  0  0  0  0  0  0  0  0  0  0  0
   14.9440   -7.7882  -11.3377 C   0  0  0  0  0  0  0  0  0  0  0  0
   14.0734   -7.1252  -11.9574 O   0  0  0  0  0  0  0  0  0  0  0  0
   16.3308   -6.1881   -7.5724 C   0  0  0  0  0  0  0  0  0  0  0  0
   14.8802   -6.1157   -8.0047 C   0  0  1  0  0  0  0  0  0  0  0  0
   14.2667   -4.9550   -7.5497 O   0  0  0  0  0  0  0  0  0  0  0  0
   14.7782   -6.1170   -9.5023 C   0  0  2  0  0  0  0  0  0  0  0  0
   15.3941   -7.3035  -10.0971 N   0  0  0  0  0  0  0  0  0  0  0  0
   15.3284   -4.8876  -10.1159 C   0  0  0  0  0  0  0  0  0  0  0  0
   16.4651   -4.9407  -10.8763 O   0  0  0  0  0  0  0  0  0  0  0  0
   14.7490   -3.8009   -9.9339 O   0  0  0  0  0  0  0  0  0  0  0  0
  2  1  1  1
  2  3  1  0
  2  5  1  0
  3  4  1  0
  5  6  2  0
  5 12  1  0
  7  8  1  0
  8 10  1  0
  9  8  2  0
 11 10  1  6
 11 13  1  0
 12 11  1  0
 13 19  1  0
 13 14  2  0
 16 15  1  6
 17 16  1  0
 18 16  1  0
 18 20  1  0
 18 19  1  6
 20 21  1  0
 22 20  2  0
M  END
$$$$
