CNT.pdb
     RDKit          3D

 22 21  0  0  1  0  0  0  0  0999 V2000
   23.1733  -10.9557  -16.7084 N   0  0  0  0  0  0  0  0  0  0  0  0
   22.3232   -9.9464  -17.2911 C   0  0  1  0  0  0  0  0  0  0  0  0
   21.1274  -10.5401  -18.0057 C   0  0  0  0  0  0  0  0  0  0  0  0
   21.7865  -11.4942  -19.4141 S   0  0  0  0  0  0  0  0  0  0  0  0
   21.9633   -8.9373  -16.2885 C   0  0  0  0  0  0  0  0  0  0  0  0
   21.3647   -9.2901  -15.2436 O   0  0  0  0  0  0  0  0  0  0  0  0
   22.0389   -5.1812  -12.6165 N   0  0  0  0  0  0  0  0  0  0  0  0
   22.3013   -4.7819  -13.9415 C   0  0  0  0  0  0  0  0  0  0  0  0
   22.0153   -3.5862  -14.2912 O   0  0  0  0  0  0  0  0  0  0  0  0
   22.9088   -5.7095  -14.9493 C   0  0  0  0  0  0  0  0  0  0  0  0
   21.8061   -6.5654  -15.4580 C   0  0  2  0  0  0  0  0  0  0  0  0
   22.2527   -7.5412  -16.4199 N   0  0  0  0  0  0  0  0  0  0  0  0
   20.6331   -5.8109  -15.9881 C   0  0  0  0  0  0  0  0  0  0  0  0
   20.6735   -5.3251  -17.1474 O   0  0  0  0  0  0  0  0  0  0  0  0
   15.8728   -4.8614  -16.1563 C   0  0  0  0  0  0  0  0  0  0  0  0
   17.0229   -5.5964  -15.4981 C   0  0  1  0  0  0  0  0  0  0  0  0
   17.1315   -6.9010  -15.9637 O   0  0  0  0  0  0  0  0  0  0  0  0
   18.3234   -4.9074  -15.7929 C   0  0  2  0  0  0  0  0  0  0  0  0
   19.4679   -5.6207  -15.2249 N   0  0  0  0  0  0  0  0  0  0  0  0
   18.3329   -3.4913  -15.3626 C   0  0  0  0  0  0  0  0  0  0  0  0
   18.0654   -2.4921  -16.2588 O   0  0  0  0  0  0  0  0  0  0  0  0
   18.5883   -3.2142  -14.1761 O   0  0  0  0  0  0  0  0  0  0  0  0
  2  1  1  1
  2  3  1  0
  2  5  1  0
  3  4  1  0
  5  6  2  0
  5 12  1  0
  7  8  1  0
  8 10  1  0
  9  8  2  0
 11 10  1  6
 11 13  1  0
 12 11  1  0
 13 19  1  0
 13 14  2  0
 16 15  1  6
 17 16  1  0
 18 16  1  0
 18 20  1  0
 18 19  1  1
 20 21  1  0
 22 20  2  0
M  END
$$$$
