CNT.pdb
     RDKit          3D

 22 21  0  0  1  0  0  0  0  0999 V2000
   23.1377  -12.2463  -17.7394 N   0  0  0  0  0  0  0  0  0  0  0  0
   23.4663  -11.5085  -16.5441 C   0  0  1  0  0  0  0  0  0  0  0  0
   24.9338  -11.1415  -16.4765 C   0  0  0  0  0  0  0  0  0  0  0  0
   25.8348  -12.6788  -16.0851 S   0  0  0  0  0  0  0  0  0  0  0  0
   22.5683  -10.3586  -16.3878 C   0  0  0  0  0  0  0  0  0  0  0  0
   22.4577   -9.5290  -17.3229 O   0  0  0  0  0  0  0  0  0  0  0  0
   19.0473  -10.4215  -16.4778 N   0  0  0  0  0  0  0  0  0  0  0  0
   18.8231  -10.2071  -15.1038 C   0  0  0  0  0  0  0  0  0  0  0  0
   17.8547  -10.8188  -14.5364 O   0  0  0  0  0  0  0  0  0  0  0  0
   19.6846   -9.2925  -14.2875 C   0  0  0  0  0  0  0  0  0  0  0  0
   20.8834   -8.9903  -15.1113 C   0  0  2  0  0  0  0  0  0  0  0  0
   21.7887  -10.1070  -15.2135 N   0  0  0  0  0  0  0  0  0  0  0  0
   21.6198   -7.7591  -14.7017 C   0  0  0  0  0  0  0  0  0  0  0  0
   22.3931   -7.7930  -13.7106 O   0  0  0  0  0  0  0  0  0  0  0  0
   23.4013   -5.1687  -17.1813 C   0  0  0  0  0  0  0  0  0  0  0  0
   22.5428   -4.4610  -16.1525 C   0  0  1  0  0  0  0  0  0  0  0  0
   21.3210   -4.0695  -16.6858 O   0  0  0  0  0  0  0  0  0  0  0  0
   22.2535   -5.3713  -14.9946 C   0  0  2  0  0  0  0  0  0  0  0  0
   21.4760   -6.5444  -15.3948 N   0  0  0  0  0  0  0  0  0  0  0  0
   21.5931   -4.6745  -13.8681 C   0  0  0  0  0  0  0  0  0  0  0  0
   22.2277   -3.6511  -13.2176 O   0  0  0  0  0  0  0  0  0  0  0  0
   20.4532   -5.0279  -13.5140 O   0  0  0  0  0  0  0  0  0  0  0  0
  2  1  1  6
  2  3  1  0
  2  5  1  0
  3  4  1  0
  5  6  2  0
  5 12  1  0
  7  8  1  0
  8 10  1  0
  9  8  2  0
 11 10  1  1
 11 13  1  0
 12 11  1  0
 13 19  1  0
 13 14  2  0
 16 15  1  6
 17 16  1  0
 18 16  1  0
 18 20  1  0
 18 19  1  6
 20 21  1  0
 22 20  2  0
M  END
$$$$
