CNT.pdb
     RDKit          3D

 22 21  0  0  1  0  0  0  0  0999 V2000
   17.8657  -10.5966  -16.2500 N   0  0  0  0  0  0  0  0  0  0  0  0
   17.9340   -9.1980  -16.5969 C   0  0  1  0  0  0  0  0  0  0  0  0
   16.6097   -8.6615  -17.0982 C   0  0  0  0  0  0  0  0  0  0  0  0
   16.2641   -9.5209  -18.6699 S   0  0  0  0  0  0  0  0  0  0  0  0
   18.4969   -8.4210  -15.4867 C   0  0  0  0  0  0  0  0  0  0  0  0
   17.8613   -8.3340  -14.4082 O   0  0  0  0  0  0  0  0  0  0  0  0
   20.0157   -8.5798  -11.7069 N   0  0  0  0  0  0  0  0  0  0  0  0
   20.6640   -8.8052  -12.9370 C   0  0  0  0  0  0  0  0  0  0  0  0
   20.6686   -9.9881  -13.4214 O   0  0  0  0  0  0  0  0  0  0  0  0
   21.3408   -7.7050  -13.6961 C   0  0  0  0  0  0  0  0  0  0  0  0
   20.2750   -6.9809  -14.4357 C   0  0  2  0  0  0  0  0  0  0  0  0
   19.7526   -7.7355  -15.5467 N   0  0  0  0  0  0  0  0  0  0  0  0
   20.6521   -5.6050  -14.8724 C   0  0  0  0  0  0  0  0  0  0  0  0
   21.3712   -5.4471  -15.8919 O   0  0  0  0  0  0  0  0  0  0  0  0
   19.9943   -0.7216  -14.7390 C   0  0  0  0  0  0  0  0  0  0  0  0
   19.6285   -2.0758  -14.1659 C   0  0  1  0  0  0  0  0  0  0  0  0
   18.3504   -2.4657  -14.5467 O   0  0  0  0  0  0  0  0  0  0  0  0
   20.5806   -3.1276  -14.6559 C   0  0  2  0  0  0  0  0  0  0  0  0
   20.2260   -4.4625  -14.1727 N   0  0  0  0  0  0  0  0  0  0  0  0
   21.9917   -2.8199  -14.3322 C   0  0  0  0  0  0  0  0  0  0  0  0
   22.8101   -2.2501  -15.2696 O   0  0  0  0  0  0  0  0  0  0  0  0
   22.4310   -3.0851  -13.1980 O   0  0  0  0  0  0  0  0  0  0  0  0
  2  1  1  1
  2  3  1  0
  2  5  1  0
  3  4  1  0
  5  6  2  0
  5 12  1  0
  7  8  1  0
  8 10  1  0
  9  8  2  0
 11 10  1  6
 11 13  1  0
 12 11  1  0
 13 19  1  0
 13 14  2  0
 16 15  1  6
 17 16  1  0
 18 16  1  0
 18 20  1  0
 18 19  1  1
 20 21  1  0
 22 20  2  0
M  END
$$$$
