CNT.pdb
     RDKit          3D

 22 21  0  0  1  0  0  0  0  0999 V2000
   15.1592  -12.4766  -14.0005 N   0  0  0  0  0  0  0  0  0  0  0  0
   14.8485  -11.0679  -13.9860 C   0  0  1  0  0  0  0  0  0  0  0  0
   13.4995  -10.7800  -13.3614 C   0  0  0  0  0  0  0  0  0  0  0  0
   12.2507  -11.5429  -14.4508 S   0  0  0  0  0  0  0  0  0  0  0  0
   15.9473  -10.3064  -13.3811 C   0  0  0  0  0  0  0  0  0  0  0  0
   16.3427  -10.6022  -12.2275 O   0  0  0  0  0  0  0  0  0  0  0  0
   20.7056   -8.0269  -12.5834 N   0  0  0  0  0  0  0  0  0  0  0  0
   19.7934   -7.3921  -13.4489 C   0  0  0  0  0  0  0  0  0  0  0  0
   19.8179   -6.1173  -13.5398 O   0  0  0  0  0  0  0  0  0  0  0  0
   18.8026   -8.1615  -14.2682 C   0  0  0  0  0  0  0  0  0  0  0  0
   17.6482   -8.4498  -13.3785 C   0  0  2  0  0  0  0  0  0  0  0  0
   16.6186   -9.2203  -14.0290 N   0  0  0  0  0  0  0  0  0  0  0  0
   17.0606   -7.2468  -12.7201 C   0  0  0  0  0  0  0  0  0  0  0  0
   16.0848   -6.6570  -13.2505 O   0  0  0  0  0  0  0  0  0  0  0  0
   16.7153   -4.2451   -8.7902 C   0  0  0  0  0  0  0  0  0  0  0  0
   17.3415   -5.4770   -9.4121 C   0  0  1  0  0  0  0  0  0  0  0  0
   16.9710   -6.6354   -8.7404 O   0  0  0  0  0  0  0  0  0  0  0  0
   16.8993   -5.6271  -10.8386 C   0  0  2  0  0  0  0  0  0  0  0  0
   17.5681   -6.7420  -11.5101 N   0  0  0  0  0  0  0  0  0  0  0  0
   17.0587   -4.3821  -11.6229 C   0  0  0  0  0  0  0  0  0  0  0  0
   16.0605   -3.4462  -11.6492 O   0  0  0  0  0  0  0  0  0  0  0  0
   18.1101   -4.1920  -12.2618 O   0  0  0  0  0  0  0  0  0  0  0  0
  2  1  1  1
  2  3  1  0
  2  5  1  0
  3  4  1  0
  5  6  2  0
  5 12  1  0
  7  8  1  0
  8 10  1  0
  9  8  2  0
 11 10  1  6
 11 13  1  0
 12 11  1  0
 13 19  1  0
 13 14  2  0
 16 15  1  1
 17 16  1  0
 18 16  1  0
 18 20  1  0
 18 19  1  6
 20 21  1  0
 22 20  2  0
M  END
$$$$
