CNT.pdb
     RDKit          3D

 22 21  0  0  1  0  0  0  0  0999 V2000
   20.2243  -15.6323  -16.6090 N   0  0  0  0  0  0  0  0  0  0  0  0
   19.8894  -14.3464  -17.1706 C   0  0  1  0  0  0  0  0  0  0  0  0
   18.3952  -14.1537  -17.3229 C   0  0  0  0  0  0  0  0  0  0  0  0
   17.7926  -15.5506  -18.3298 S   0  0  0  0  0  0  0  0  0  0  0  0
   20.5437  -13.2711  -16.4165 C   0  0  0  0  0  0  0  0  0  0  0  0
   20.3859  -13.2033  -15.1734 O   0  0  0  0  0  0  0  0  0  0  0  0
   24.5478  -12.6033  -14.7295 N   0  0  0  0  0  0  0  0  0  0  0  0
   24.0990  -12.4276  -16.0531 C   0  0  0  0  0  0  0  0  0  0  0  0
   24.2193  -13.3977  -16.8766 O   0  0  0  0  0  0  0  0  0  0  0  0
   23.4815  -11.1460  -16.5231 C   0  0  0  0  0  0  0  0  0  0  0  0
   22.0272  -11.2445  -16.2357 C   0  0  2  0  0  0  0  0  0  0  0  0
   21.3707  -12.2656  -17.0125 N   0  0  0  0  0  0  0  0  0  0  0  0
   21.2877   -9.9531  -16.3428 C   0  0  0  0  0  0  0  0  0  0  0  0
   20.9961   -9.4910  -17.4754 O   0  0  0  0  0  0  0  0  0  0  0  0
   17.9027   -9.0971  -15.0994 C   0  0  0  0  0  0  0  0  0  0  0  0
   18.8438   -8.0476  -14.5435 C   0  0  1  0  0  0  0  0  0  0  0  0
   19.1982   -8.3214  -13.2282 O   0  0  0  0  0  0  0  0  0  0  0  0
   20.1109   -8.0006  -15.3468 C   0  0  2  0  0  0  0  0  0  0  0  0
   20.9010   -9.2239  -15.2047 N   0  0  0  0  0  0  0  0  0  0  0  0
   20.9398   -6.8129  -15.0419 C   0  0  0  0  0  0  0  0  0  0  0  0
   20.4438   -5.5522  -15.2369 O   0  0  0  0  0  0  0  0  0  0  0  0
   22.0957   -6.9689  -14.6069 O   0  0  0  0  0  0  0  0  0  0  0  0
  2  1  1  1
  2  3  1  0
  2  5  1  0
  3  4  1  0
  5  6  2  0
  5 12  1  0
  7  8  1  0
  8 10  1  0
  9  8  2  0
 11 10  1  6
 11 13  1  0
 12 11  1  0
 13 19  1  0
 13 14  2  0
 16 15  1  6
 17 16  1  0
 18 16  1  0
 18 20  1  0
 18 19  1  1
 20 21  1  0
 22 20  2  0
M  END
$$$$
