CNT.pdb
     RDKit          3D

 22 21  0  0  1  0  0  0  0  0999 V2000
   15.3329  -13.6432  -16.8294 N   0  0  0  0  0  0  0  0  0  0  0  0
   15.9902  -13.0439  -15.6937 C   0  0  1  0  0  0  0  0  0  0  0  0
   17.0198  -13.9629  -15.0704 C   0  0  0  0  0  0  0  0  0  0  0  0
   16.0949  -15.1661  -14.0579 S   0  0  0  0  0  0  0  0  0  0  0  0
   16.5233  -11.7233  -16.0473 C   0  0  0  0  0  0  0  0  0  0  0  0
   17.0834  -11.5601  -17.1583 O   0  0  0  0  0  0  0  0  0  0  0  0
   16.6673   -6.5053  -17.1456 N   0  0  0  0  0  0  0  0  0  0  0  0
   16.6874   -6.9251  -15.8012 C   0  0  0  0  0  0  0  0  0  0  0  0
   17.3000   -6.2044  -14.9414 O   0  0  0  0  0  0  0  0  0  0  0  0
   16.0106   -8.1824  -15.3473 C   0  0  0  0  0  0  0  0  0  0  0  0
   16.9728   -9.2905  -15.5788 C   0  0  2  0  0  0  0  0  0  0  0  0
   16.4493  -10.5766  -15.1931 N   0  0  0  0  0  0  0  0  0  0  0  0
   18.3201   -9.0746  -14.9752 C   0  0  0  0  0  0  0  0  0  0  0  0
   18.4929   -9.2684  -13.7448 O   0  0  0  0  0  0  0  0  0  0  0  0
   21.7577  -10.4888  -16.0424 C   0  0  0  0  0  0  0  0  0  0  0  0
   21.8494   -8.9795  -15.9438 C   0  0  1  0  0  0  0  0  0  0  0  0
   21.7695   -8.3780  -17.1937 O   0  0  0  0  0  0  0  0  0  0  0  0
   20.7211   -8.4383  -15.1149 C   0  0  2  0  0  0  0  0  0  0  0  0
   19.4186   -8.6547  -15.7456 N   0  0  0  0  0  0  0  0  0  0  0  0
   20.8963   -7.0096  -14.7703 C   0  0  0  0  0  0  0  0  0  0  0  0
   20.0044   -6.0734  -15.2188 O   0  0  0  0  0  0  0  0  0  0  0  0
   21.8647   -6.6638  -14.0685 O   0  0  0  0  0  0  0  0  0  0  0  0
  2  1  1  6
  2  3  1  0
  2  5  1  0
  3  4  1  0
  5  6  2  0
  5 12  1  0
  7  8  1  0
  8 10  1  0
  9  8  2  0
 11 10  1  1
 11 13  1  0
 12 11  1  0
 13 19  1  0
 13 14  2  0
 16 15  1  6
 17 16  1  0
 18 16  1  0
 18 20  1  0
 18 19  1  6
 20 21  1  0
 22 20  2  0
M  END
$$$$
