CNT.pdb
     RDKit          3D

 22 21  0  0  1  0  0  0  0  0999 V2000
   14.4296  -13.2835  -12.2682 N   0  0  0  0  0  0  0  0  0  0  0  0
   13.9071  -12.3217  -11.3286 C   0  0  1  0  0  0  0  0  0  0  0  0
   13.1942  -12.9785  -10.1652 C   0  0  0  0  0  0  0  0  0  0  0  0
   11.5758  -13.5352  -10.7969 S   0  0  0  0  0  0  0  0  0  0  0  0
   14.9578  -11.3841  -10.9163 C   0  0  0  0  0  0  0  0  0  0  0  0
   16.1074  -11.8174  -10.6606 O   0  0  0  0  0  0  0  0  0  0  0  0
   18.6249   -7.3542  -11.8980 N   0  0  0  0  0  0  0  0  0  0  0  0
   18.0564   -8.2857  -11.0075 C   0  0  0  0  0  0  0  0  0  0  0  0
   18.4551   -8.2973   -9.7931 O   0  0  0  0  0  0  0  0  0  0  0  0
   16.9983   -9.2563  -11.4355 C   0  0  0  0  0  0  0  0  0  0  0  0
   15.8470   -9.0624  -10.5168 C   0  0  2  0  0  0  0  0  0  0  0  0
   14.7609   -9.9724  -10.7801 N   0  0  0  0  0  0  0  0  0  0  0  0
   15.3445   -7.6595  -10.4441 C   0  0  0  0  0  0  0  0  0  0  0  0
   14.7322   -7.1624  -11.4237 O   0  0  0  0  0  0  0  0  0  0  0  0
   14.3239   -3.5901   -7.8231 C   0  0  0  0  0  0  0  0  0  0  0  0
   15.0050   -4.9434   -7.8564 C   0  0  1  0  0  0  0  0  0  0  0  0
   14.3697   -5.8579   -7.0253 O   0  0  0  0  0  0  0  0  0  0  0  0
   14.9791   -5.5099   -9.2461 C   0  0  2  0  0  0  0  0  0  0  0  0
   15.5357   -6.8620   -9.3022 N   0  0  0  0  0  0  0  0  0  0  0  0
   15.6484   -4.6352  -10.2348 C   0  0  0  0  0  0  0  0  0  0  0  0
   14.9567   -3.6267  -10.8493 O   0  0  0  0  0  0  0  0  0  0  0  0
   16.8486   -4.8247  -10.5058 O   0  0  0  0  0  0  0  0  0  0  0  0
  2  1  1  6
  2  3  1  0
  2  5  1  0
  3  4  1  0
  5  6  2  0
  5 12  1  0
  7  8  1  0
  8 10  1  0
  9  8  2  0
 11 10  1  6
 11 13  1  0
 12 11  1  0
 13 19  1  0
 13 14  2  0
 16 15  1  6
 17 16  1  0
 18 16  1  0
 18 20  1  0
 18 19  1  1
 20 21  1  0
 22 20  2  0
M  END
$$$$
