CNT.pdb
     RDKit          3D

 22 21  0  0  1  0  0  0  0  0999 V2000
   14.0134  -10.2905  -10.2515 N   0  0  0  0  0  0  0  0  0  0  0  0
   15.4317  -10.3355  -10.5112 C   0  0  1  0  0  0  0  0  0  0  0  0
   15.7840  -11.2902  -11.6326 C   0  0  0  0  0  0  0  0  0  0  0  0
   15.6319  -12.9739  -10.9467 S   0  0  0  0  0  0  0  0  0  0  0  0
   15.9604   -8.9811  -10.7088 C   0  0  0  0  0  0  0  0  0  0  0  0
   15.4059   -8.2153  -11.5338 O   0  0  0  0  0  0  0  0  0  0  0  0
   15.6198   -4.6266   -9.3752 N   0  0  0  0  0  0  0  0  0  0  0  0
   16.1209   -5.8580   -8.9097 C   0  0  0  0  0  0  0  0  0  0  0  0
   15.3198   -6.6676   -8.3296 O   0  0  0  0  0  0  0  0  0  0  0  0
   17.5571   -6.2503   -9.0778 C   0  0  0  0  0  0  0  0  0  0  0  0
   17.6187   -7.1383  -10.2673 C   0  0  2  0  0  0  0  0  0  0  0  0
   17.0946   -8.4560  -10.0102 N   0  0  0  0  0  0  0  0  0  0  0  0
   18.9661   -7.2287  -10.9014 C   0  0  0  0  0  0  0  0  0  0  0  0
   19.9272   -7.7259  -10.2607 O   0  0  0  0  0  0  0  0  0  0  0  0
   20.2740   -8.9104  -14.0350 C   0  0  0  0  0  0  0  0  0  0  0  0
   20.5913   -7.4316  -14.1287 C   0  0  1  0  0  0  0  0  0  0  0  0
   19.6703   -6.7587  -14.9221 O   0  0  0  0  0  0  0  0  0  0  0  0
   20.5542   -6.7996  -12.7677 C   0  0  2  0  0  0  0  0  0  0  0  0
   19.2022   -6.7694  -12.2090 N   0  0  0  0  0  0  0  0  0  0  0  0
   21.1511   -5.4454  -12.7475 C   0  0  0  0  0  0  0  0  0  0  0  0
   22.5003   -5.2795  -12.9057 O   0  0  0  0  0  0  0  0  0  0  0  0
   20.4150   -4.4549  -12.5837 O   0  0  0  0  0  0  0  0  0  0  0  0
  2  1  1  6
  2  3  1  0
  2  5  1  0
  3  4  1  0
  5  6  2  0
  5 12  1  0
  7  8  1  0
  8 10  1  0
  9  8  2  0
 11 10  1  1
 11 13  1  0
 12 11  1  0
 13 19  1  0
 13 14  2  0
 16 15  1  1
 17 16  1  0
 18 16  1  0
 18 20  1  0
 18 19  1  6
 20 21  1  0
 22 20  2  0
M  END
$$$$
