GNW.pdb
     RDKit          3D

 27 28  0  0  1  0  0  0  0  0999 V2000
   12.4378  -18.2733   19.0774 N   0  0  0  0  0  0  0  0  0  0  0  0
   11.1033  -18.5329   19.5880 C   0  0  0  0  0  0  0  0  0  0  0  0
   10.6216  -17.3643   20.4066 C   0  0  0  0  0  0  0  0  0  0  0  0
   11.4273  -16.4350   20.6576 O   0  0  0  0  0  0  0  0  0  0  0  0
    7.8860  -14.1700   20.1273 N   0  0  0  0  0  0  0  0  0  0  0  0
    6.9081  -15.0297   20.7076 C   0  0  0  0  0  0  0  0  0  0  0  0
    5.7113  -14.7603   20.4400 O   0  0  0  0  0  0  0  0  0  0  0  0
    7.3287  -16.1602   21.5681 C   0  0  0  0  0  0  0  0  0  0  0  0
    8.8288  -16.2712   21.6924 C   0  0  2  0  0  0  0  0  0  0  0  0
    9.2781  -17.3694   20.8556 N   0  0  0  0  0  0  0  0  0  0  0  0
    9.2313  -16.4827   23.1122 C   0  0  0  0  0  0  0  0  0  0  0  0
    9.3053  -17.6581   23.5459 O   0  0  0  0  0  0  0  0  0  0  0  0
    9.5076  -15.3288   23.8890 N   0  0  0  0  0  0  0  0  0  0  0  0
   10.0145  -15.4672   25.2332 C   0  0  1  0  0  0  0  0  0  0  0  0
    8.9189  -16.1929   26.0143 C   0  0  0  0  0  0  0  0  0  0  0  0
    7.7311  -15.3069   26.0577 C   0  0  0  0  0  0  0  0  0  0  0  0
    6.4114  -15.5939   25.7447 C   0  0  0  0  0  0  0  0  0  0  0  0
    5.6664  -14.4914   25.9275 N   0  0  0  0  0  0  0  0  0  0  0  0
    6.4827  -13.5211   26.3464 C   0  0  0  0  0  0  0  0  0  0  0  0
    6.2410  -12.1969   26.6803 C   0  0  0  0  0  0  0  0  0  0  0  0
    7.2559  -11.3696   27.0932 C   0  0  0  0  0  0  0  0  0  0  0  0
    8.5527  -11.8246   27.1913 C   0  0  0  0  0  0  0  0  0  0  0  0
    8.7964  -13.1477   26.8581 C   0  0  0  0  0  0  0  0  0  0  0  0
    7.7799  -13.9681   26.4467 C   0  0  0  0  0  0  0  0  0  0  0  0
   11.2588  -16.2690   25.2441 C   0  0  0  0  0  0  0  0  0  0  0  0
   11.7189  -16.7920   24.2071 O   0  0  0  0  0  0  0  0  0  0  0  0
   11.9295  -16.4430   26.4370 O   0  0  0  0  0  0  0  0  0  0  0  0
  1  2  1  0
  2  3  1  0
  3 10  1  0
  3  4  2  0
  6  8  1  0
  6  5  1  0
  7  6  2  0
  9  8  1  1
 10  9  1  0
 11  9  1  0
 11 13  1  0
 12 11  2  0
 14 13  1  0
 14 15  1  1
 14 25  1  0
 16 15  1  0
 16 17  2  0
 18 17  1  0
 19 24  2  0
 19 18  1  0
 20 19  1  0
 21 22  1  0
 21 20  2  0
 22 23  2  0
 23 24  1  0
 24 16  1  0
 25 27  1  0
 26 25  2  0
M  END
$$$$
