GNW.pdb
     RDKit          3D

 27 28  0  0  1  0  0  0  0  0999 V2000
    7.5124  -19.2367   18.7225 N   0  0  0  0  0  0  0  0  0  0  0  0
    7.2218  -18.0586   19.5202 C   0  0  0  0  0  0  0  0  0  0  0  0
    8.4111  -17.1351   19.5389 C   0  0  0  0  0  0  0  0  0  0  0  0
    9.4848  -17.5290   19.0214 O   0  0  0  0  0  0  0  0  0  0  0  0
    6.7387  -12.8877   18.7618 N   0  0  0  0  0  0  0  0  0  0  0  0
    8.0926  -13.3314   18.7139 C   0  0  0  0  0  0  0  0  0  0  0  0
    8.5682  -13.5226   17.5678 O   0  0  0  0  0  0  0  0  0  0  0  0
    8.8515  -13.5398   19.9694 C   0  0  0  0  0  0  0  0  0  0  0  0
    9.3863  -14.9451   20.1005 C   0  0  2  0  0  0  0  0  0  0  0  0
    8.2611  -15.8618   20.1415 N   0  0  0  0  0  0  0  0  0  0  0  0
   10.2308  -15.0817   21.3215 C   0  0  0  0  0  0  0  0  0  0  0  0
   11.1994  -14.2978   21.4715 O   0  0  0  0  0  0  0  0  0  0  0  0
    9.8806  -16.1000   22.2443 N   0  0  0  0  0  0  0  0  0  0  0  0
    9.4006  -15.7492   23.5594 C   0  0  1  0  0  0  0  0  0  0  0  0
    8.1245  -14.9392   23.3301 C   0  0  0  0  0  0  0  0  0  0  0  0
    7.4450  -14.7847   24.6385 C   0  0  0  0  0  0  0  0  0  0  0  0
    6.9186  -15.7582   25.4734 C   0  0  0  0  0  0  0  0  0  0  0  0
    6.3943  -15.1687   26.5603 N   0  0  0  0  0  0  0  0  0  0  0  0
    6.5775  -13.8523   26.4299 C   0  0  0  0  0  0  0  0  0  0  0  0
    6.2337  -12.7904   27.2531 C   0  0  0  0  0  0  0  0  0  0  0  0
    6.5295  -11.4954   26.9063 C   0  0  0  0  0  0  0  0  0  0  0  0
    7.1791  -11.2027   25.7271 C   0  0  0  0  0  0  0  0  0  0  0  0
    7.5236  -12.2625   24.9030 C   0  0  0  0  0  0  0  0  0  0  0  0
    7.2259  -13.5522   25.2543 C   0  0  0  0  0  0  0  0  0  0  0  0
    9.0933  -16.9646   24.3466 C   0  0  0  0  0  0  0  0  0  0  0  0
    8.7836  -16.9100   25.5556 O   0  0  0  0  0  0  0  0  0  0  0  0
    9.1514  -18.1945   23.7243 O   0  0  0  0  0  0  0  0  0  0  0  0
  1  2  1  0
  2  3  1  0
  3 10  1  0
  3  4  2  0
  6  8  1  0
  6  5  1  0
  7  6  2  0
  9  8  1  1
 10  9  1  0
 11  9  1  0
 11 13  1  0
 12 11  2  0
 14 13  1  0
 14 15  1  6
 14 25  1  0
 16 15  1  0
 16 17  2  0
 18 17  1  0
 19 24  2  0
 19 18  1  0
 20 19  1  0
 21 22  1  0
 21 20  2  0
 22 23  2  0
 23 24  1  0
 24 16  1  0
 25 27  1  0
 26 25  2  0
M  END
$$$$
