GNW.pdb
     RDKit          3D

 27 28  0  0  1  0  0  0  0  0999 V2000
    5.1555  -19.4900   22.6446 N   0  0  0  0  0  0  0  0  0  0  0  0
    5.3305  -18.0492   22.6935 C   0  0  0  0  0  0  0  0  0  0  0  0
    6.4928  -17.6355   21.8300 C   0  0  0  0  0  0  0  0  0  0  0  0
    7.2662  -18.5251   21.3985 O   0  0  0  0  0  0  0  0  0  0  0  0
    9.1252  -15.3596   18.3220 N   0  0  0  0  0  0  0  0  0  0  0  0
    8.1222  -14.4216   18.7044 C   0  0  0  0  0  0  0  0  0  0  0  0
    7.9096  -13.4843   17.8965 O   0  0  0  0  0  0  0  0  0  0  0  0
    7.4014  -14.5858   19.9885 C   0  0  0  0  0  0  0  0  0  0  0  0
    7.7759  -15.8584   20.7083 C   0  0  2  0  0  0  0  0  0  0  0  0
    6.6584  -16.2578   21.5450 N   0  0  0  0  0  0  0  0  0  0  0  0
    9.0101  -15.6664   21.5221 C   0  0  0  0  0  0  0  0  0  0  0  0
   10.1030  -15.5073   20.9257 O   0  0  0  0  0  0  0  0  0  0  0  0
    8.8674  -15.6762   22.9330 N   0  0  0  0  0  0  0  0  0  0  0  0
   10.0361  -15.6182   23.7778 C   0  0  1  0  0  0  0  0  0  0  0  0
    9.8118  -14.4280   24.7107 C   0  0  0  0  0  0  0  0  0  0  0  0
    8.4444  -14.5436   25.2715 C   0  0  0  0  0  0  0  0  0  0  0  0
    7.6244  -15.6579   25.3602 C   0  0  0  0  0  0  0  0  0  0  0  0
    6.4662  -15.3063   25.9421 N   0  0  0  0  0  0  0  0  0  0  0  0
    6.5373  -14.0022   26.2207 C   0  0  0  0  0  0  0  0  0  0  0  0
    5.6300  -13.1386   26.8159 C   0  0  0  0  0  0  0  0  0  0  0  0
    5.9269  -11.8113   27.0028 C   0  0  0  0  0  0  0  0  0  0  0  0
    7.1379  -11.2879   26.6057 C   0  0  0  0  0  0  0  0  0  0  0  0
    8.0462  -12.1492   26.0107 C   0  0  0  0  0  0  0  0  0  0  0  0
    7.7443  -13.4724   25.8269 C   0  0  0  0  0  0  0  0  0  0  0  0
   10.1732  -16.8618   24.5688 C   0  0  0  0  0  0  0  0  0  0  0  0
    9.2624  -17.7150   24.6249 O   0  0  0  0  0  0  0  0  0  0  0  0
   11.3435  -17.0838   25.2648 O   0  0  0  0  0  0  0  0  0  0  0  0
  1  2  1  0
  2  3  1  0
  3 10  1  0
  3  4  2  0
  6  8  1  0
  6  5  1  0
  7  6  2  0
  9  8  1  1
 10  9  1  0
 11  9  1  0
 11 13  1  0
 12 11  2  0
 14 13  1  0
 14 15  1  1
 14 25  1  0
 16 15  1  0
 16 17  2  0
 18 17  1  0
 19 24  2  0
 19 18  1  0
 20 19  1  0
 21 22  1  0
 21 20  2  0
 22 23  2  0
 23 24  1  0
 24 16  1  0
 25 27  1  0
 26 25  2  0
M  END
$$$$
