GNW.pdb
     RDKit          3D

 27 28  0  0  1  0  0  0  0  0999 V2000
    7.7326  -12.5120   18.3240 N   0  0  0  0  0  0  0  0  0  0  0  0
    8.8465  -13.3260   18.7771 C   0  0  0  0  0  0  0  0  0  0  0  0
    8.3952  -14.2724   19.8580 C   0  0  0  0  0  0  0  0  0  0  0  0
    7.2641  -14.0985   20.3738 O   0  0  0  0  0  0  0  0  0  0  0  0
   10.6859  -16.8127   19.3252 N   0  0  0  0  0  0  0  0  0  0  0  0
    9.8334  -17.8617   19.7778 C   0  0  0  0  0  0  0  0  0  0  0  0
    9.9919  -18.9768   19.2230 O   0  0  0  0  0  0  0  0  0  0  0  0
    8.8355  -17.6020   20.8419 C   0  0  0  0  0  0  0  0  0  0  0  0
    8.8737  -16.1783   21.3416 C   0  0  2  0  0  0  0  0  0  0  0  0
    9.2713  -15.3172   20.2423 N   0  0  0  0  0  0  0  0  0  0  0  0
    9.8119  -16.0428   22.4922 C   0  0  0  0  0  0  0  0  0  0  0  0
   11.0237  -15.8184   22.2546 O   0  0  0  0  0  0  0  0  0  0  0  0
    9.2679  -16.1776   23.7949 N   0  0  0  0  0  0  0  0  0  0  0  0
   10.1326  -16.1173   24.9487 C   0  0  1  0  0  0  0  0  0  0  0  0
    9.7973  -14.7992   25.6469 C   0  0  0  0  0  0  0  0  0  0  0  0
    8.3208  -14.6887   25.7206 C   0  0  0  0  0  0  0  0  0  0  0  0
    7.3574  -15.6653   25.5208 C   0  0  0  0  0  0  0  0  0  0  0  0
    6.1402  -15.1231   25.6885 N   0  0  0  0  0  0  0  0  0  0  0  0
    6.3139  -13.8333   25.9879 C   0  0  0  0  0  0  0  0  0  0  0  0
    5.4042  -12.8215   26.2565 C   0  0  0  0  0  0  0  0  0  0  0  0
    5.8220  -11.5458   26.5445 C   0  0  0  0  0  0  0  0  0  0  0  0
    7.1611  -11.2235   26.5774 C   0  0  0  0  0  0  0  0  0  0  0  0
    8.0719  -12.2332   26.3092 C   0  0  0  0  0  0  0  0  0  0  0  0
    7.6491  -13.5039   26.0225 C   0  0  0  0  0  0  0  0  0  0  0  0
    9.8700  -17.2534   25.8605 C   0  0  0  0  0  0  0  0  0  0  0  0
   10.5171  -17.4188   26.9163 O   0  0  0  0  0  0  0  0  0  0  0  0
    8.8800  -18.1565   25.5326 O   0  0  0  0  0  0  0  0  0  0  0  0
  1  2  1  0
  2  3  1  0
  3 10  1  0
  3  4  2  0
  6  8  1  0
  6  5  1  0
  7  6  2  0
  9  8  1  6
 10  9  1  0
 11  9  1  0
 11 13  1  0
 12 11  2  0
 14 13  1  0
 14 15  1  1
 14 25  1  0
 16 15  1  0
 16 17  2  0
 18 17  1  0
 19 24  2  0
 19 18  1  0
 20 19  1  0
 21 22  1  0
 21 20  2  0
 22 23  2  0
 23 24  1  0
 24 16  1  0
 25 27  1  0
 26 25  2  0
M  END
$$$$
