GNW.pdb
     RDKit          3D

 27 28  0  0  1  0  0  0  0  0999 V2000
    9.5805  -18.9846   19.5316 N   0  0  0  0  0  0  0  0  0  0  0  0
    9.2808  -18.0017   18.5055 C   0  0  0  0  0  0  0  0  0  0  0  0
    9.6179  -16.6179   18.9944 C   0  0  0  0  0  0  0  0  0  0  0  0
   10.8089  -16.2284   18.9188 O   0  0  0  0  0  0  0  0  0  0  0  0
    8.3759  -12.3747   17.0955 N   0  0  0  0  0  0  0  0  0  0  0  0
    7.9191  -13.5368   17.7833 C   0  0  0  0  0  0  0  0  0  0  0  0
    7.5984  -14.5125   17.0611 O   0  0  0  0  0  0  0  0  0  0  0  0
    7.8451  -13.5438   19.2632 C   0  0  0  0  0  0  0  0  0  0  0  0
    8.8745  -14.4497   19.8938 C   0  0  2  0  0  0  0  0  0  0  0  0
    8.5717  -15.8191   19.5181 N   0  0  0  0  0  0  0  0  0  0  0  0
    8.8852  -14.2928   21.3763 C   0  0  0  0  0  0  0  0  0  0  0  0
    9.0604  -13.1466   21.8568 O   0  0  0  0  0  0  0  0  0  0  0  0
    8.6945  -15.4620   22.1558 N   0  0  0  0  0  0  0  0  0  0  0  0
    8.8830  -15.4155   23.5859 C   0  0  1  0  0  0  0  0  0  0  0  0
    7.5364  -15.8106   24.1923 C   0  0  0  0  0  0  0  0  0  0  0  0
    7.4577  -15.2147   25.5474 C   0  0  0  0  0  0  0  0  0  0  0  0
    7.5570  -15.8331   26.7842 C   0  0  0  0  0  0  0  0  0  0  0  0
    7.4276  -14.9085   27.7497 N   0  0  0  0  0  0  0  0  0  0  0  0
    7.2500  -13.7274   27.1524 C   0  0  0  0  0  0  0  0  0  0  0  0
    7.0661  -12.4540   27.6700 C   0  0  0  0  0  0  0  0  0  0  0  0
    6.9007  -11.3675   26.8471 C   0  0  0  0  0  0  0  0  0  0  0  0
    6.9113  -11.5022   25.4760 C   0  0  0  0  0  0  0  0  0  0  0  0
    7.0948  -12.7740   24.9566 C   0  0  0  0  0  0  0  0  0  0  0  0
    7.2593  -13.8540   25.7825 C   0  0  0  0  0  0  0  0  0  0  0  0
    9.9285  -16.3745   24.0082 C   0  0  0  0  0  0  0  0  0  0  0  0
   10.1799  -17.4100   23.3561 O   0  0  0  0  0  0  0  0  0  0  0  0
   10.6463  -16.1152   25.1574 O   0  0  0  0  0  0  0  0  0  0  0  0
  1  2  1  0
  2  3  1  0
  3 10  1  0
  3  4  2  0
  6  8  1  0
  6  5  1  0
  7  6  2  0
  9  8  1  6
 10  9  1  0
 11  9  1  0
 11 13  1  0
 12 11  2  0
 14 13  1  0
 14 15  1  1
 14 25  1  0
 16 15  1  0
 16 17  2  0
 18 17  1  0
 19 24  2  0
 19 18  1  0
 20 19  1  0
 21 22  1  0
 21 20  2  0
 22 23  2  0
 23 24  1  0
 24 16  1  0
 25 27  1  0
 26 25  2  0
M  END
$$$$
