GNW.pdb
     RDKit          3D

 27 28  0  0  1  0  0  0  0  0999 V2000
    6.9053  -19.6118   20.1129 N   0  0  0  0  0  0  0  0  0  0  0  0
    6.7049  -18.3321   20.7694 C   0  0  0  0  0  0  0  0  0  0  0  0
    7.8685  -17.4168   20.4941 C   0  0  0  0  0  0  0  0  0  0  0  0
    8.8967  -17.8980   19.9584 O   0  0  0  0  0  0  0  0  0  0  0  0
    7.9453  -12.2926   18.5102 N   0  0  0  0  0  0  0  0  0  0  0  0
    8.0997  -13.6074   19.0388 C   0  0  0  0  0  0  0  0  0  0  0  0
    7.8972  -14.5503   18.2349 O   0  0  0  0  0  0  0  0  0  0  0  0
    8.4779  -13.7983   20.4587 C   0  0  0  0  0  0  0  0  0  0  0  0
    8.9249  -15.2084   20.7582 C   0  0  2  0  0  0  0  0  0  0  0  0
    7.7470  -16.0520   20.8540 N   0  0  0  0  0  0  0  0  0  0  0  0
    9.7211  -15.2585   22.0175 C   0  0  0  0  0  0  0  0  0  0  0  0
   10.8243  -14.6611   22.0537 O   0  0  0  0  0  0  0  0  0  0  0  0
    9.1740  -15.9862   23.1049 N   0  0  0  0  0  0  0  0  0  0  0  0
    9.9408  -16.1627   24.3147 C   0  0  1  0  0  0  0  0  0  0  0  0
    9.7304  -14.8844   25.1265 C   0  0  0  0  0  0  0  0  0  0  0  0
    8.2893  -14.7929   25.4617 C   0  0  0  0  0  0  0  0  0  0  0  0
    7.3070  -15.7681   25.3825 C   0  0  0  0  0  0  0  0  0  0  0  0
    6.1370  -15.2476   25.7873 N   0  0  0  0  0  0  0  0  0  0  0  0
    6.3585  -13.9729   26.1182 C   0  0  0  0  0  0  0  0  0  0  0  0
    5.5084  -12.9854   26.5930 C   0  0  0  0  0  0  0  0  0  0  0  0
    5.9684  -11.7217   26.8695 C   0  0  0  0  0  0  0  0  0  0  0  0
    7.2923  -11.3877   26.6853 C   0  0  0  0  0  0  0  0  0  0  0  0
    8.1437  -12.3732   26.2108 C   0  0  0  0  0  0  0  0  0  0  0  0
    7.6789  -13.6319   25.9368 C   0  0  0  0  0  0  0  0  0  0  0  0
    9.4525  -17.3329   25.0786 C   0  0  0  0  0  0  0  0  0  0  0  0
    8.4209  -17.9556   24.7489 O   0  0  0  0  0  0  0  0  0  0  0  0
   10.1596  -17.7470   26.1885 O   0  0  0  0  0  0  0  0  0  0  0  0
  1  2  1  0
  2  3  1  0
  3 10  1  0
  3  4  2  0
  6  8  1  0
  6  5  1  0
  7  6  2  0
  9  8  1  1
 10  9  1  0
 11  9  1  0
 11 13  1  0
 12 11  2  0
 14 13  1  0
 14 15  1  1
 14 25  1  0
 16 15  1  0
 16 17  2  0
 18 17  1  0
 19 24  2  0
 19 18  1  0
 20 19  1  0
 21 22  1  0
 21 20  2  0
 22 23  2  0
 23 24  1  0
 24 16  1  0
 25 27  1  0
 26 25  2  0
M  END
$$$$
