GNW.pdb
     RDKit          3D

 27 28  0  0  1  0  0  0  0  0999 V2000
    6.0481  -15.1209   20.0532 N   0  0  0  0  0  0  0  0  0  0  0  0
    7.4110  -14.7465   20.3866 C   0  0  0  0  0  0  0  0  0  0  0  0
    8.0355  -15.7888   21.2762 C   0  0  0  0  0  0  0  0  0  0  0  0
    7.2817  -16.5819   21.8915 O   0  0  0  0  0  0  0  0  0  0  0  0
   10.8940  -19.3831   20.3082 N   0  0  0  0  0  0  0  0  0  0  0  0
   11.1343  -17.9782   20.3317 C   0  0  0  0  0  0  0  0  0  0  0  0
   11.1541  -17.4051   19.2147 O   0  0  0  0  0  0  0  0  0  0  0  0
   11.3425  -17.2810   21.6225 C   0  0  0  0  0  0  0  0  0  0  0  0
   10.0502  -16.8168   22.2491 C   0  0  2  0  0  0  0  0  0  0  0  0
    9.4481  -15.8248   21.3764 N   0  0  0  0  0  0  0  0  0  0  0  0
   10.2893  -16.2561   23.6096 C   0  0  0  0  0  0  0  0  0  0  0  0
   11.0623  -15.2742   23.7262 O   0  0  0  0  0  0  0  0  0  0  0  0
    9.6201  -16.8757   24.6956 N   0  0  0  0  0  0  0  0  0  0  0  0
    9.8899  -16.4502   26.0480 C   0  0  1  0  0  0  0  0  0  0  0  0
    8.5731  -16.6229   26.8051 C   0  0  0  0  0  0  0  0  0  0  0  0
    7.5738  -15.7186   26.1876 C   0  0  0  0  0  0  0  0  0  0  0  0
    6.5017  -16.0278   25.3649 C   0  0  0  0  0  0  0  0  0  0  0  0
    5.8584  -14.8954   25.0367 N   0  0  0  0  0  0  0  0  0  0  0  0
    6.4977  -13.8847   25.6309 C   0  0  0  0  0  0  0  0  0  0  0  0
    6.2599  -12.5184   25.6284 C   0  0  0  0  0  0  0  0  0  0  0  0
    7.0662  -11.6537   26.3263 C   0  0  0  0  0  0  0  0  0  0  0  0
    8.1418  -12.1115   27.0553 C   0  0  0  0  0  0  0  0  0  0  0  0
    8.3812  -13.4767   27.0592 C   0  0  0  0  0  0  0  0  0  0  0  0
    7.5734  -14.3343   26.3610 C   0  0  0  0  0  0  0  0  0  0  0  0
   10.9407  -17.2925   26.6625 C   0  0  0  0  0  0  0  0  0  0  0  0
   11.4101  -18.2943   26.0824 O   0  0  0  0  0  0  0  0  0  0  0  0
   11.4148  -16.9594   27.9145 O   0  0  0  0  0  0  0  0  0  0  0  0
  1  2  1  0
  2  3  1  0
  3 10  1  0
  3  4  2  0
  6  8  1  0
  6  5  1  0
  7  6  2  0
  9  8  1  6
 10  9  1  0
 11  9  1  0
 11 13  1  0
 12 11  2  0
 14 13  1  0
 14 15  1  1
 14 25  1  0
 16 15  1  0
 16 17  2  0
 18 17  1  0
 19 24  2  0
 19 18  1  0
 20 19  1  0
 21 22  1  0
 21 20  2  0
 22 23  2  0
 23 24  1  0
 24 16  1  0
 25 27  1  0
 26 25  2  0
M  END
$$$$
