GNW.pdb
     RDKit          3D

 27 28  0  0  1  0  0  0  0  0999 V2000
    7.5359  -13.3355   18.6519 N   0  0  0  0  0  0  0  0  0  0  0  0
    8.5143  -13.1713   19.7125 C   0  0  0  0  0  0  0  0  0  0  0  0
    8.5933  -14.4220   20.5474 C   0  0  0  0  0  0  0  0  0  0  0  0
    7.5324  -14.8913   21.0270 O   0  0  0  0  0  0  0  0  0  0  0  0
    9.9632  -18.6986   19.3085 N   0  0  0  0  0  0  0  0  0  0  0  0
   10.7030  -17.5097   19.5756 C   0  0  0  0  0  0  0  0  0  0  0  0
   11.0666  -16.8511   18.5704 O   0  0  0  0  0  0  0  0  0  0  0  0
   10.9998  -17.1169   20.9731 C   0  0  0  0  0  0  0  0  0  0  0  0
    9.9431  -16.2142   21.5617 C   0  0  2  0  0  0  0  0  0  0  0  0
    9.8652  -15.0112   20.7524 N   0  0  0  0  0  0  0  0  0  0  0  0
   10.2558  -15.8832   22.9812 C   0  0  0  0  0  0  0  0  0  0  0  0
   11.2022  -15.0936   23.2184 O   0  0  0  0  0  0  0  0  0  0  0  0
    9.4547  -16.4889   23.9824 N   0  0  0  0  0  0  0  0  0  0  0  0
    9.7514  -16.2672   25.3773 C   0  0  1  0  0  0  0  0  0  0  0  0
    8.4597  -16.5876   26.1296 C   0  0  0  0  0  0  0  0  0  0  0  0
    7.4437  -15.5837   25.7330 C   0  0  0  0  0  0  0  0  0  0  0  0
    6.3353  -15.7343   24.9140 C   0  0  0  0  0  0  0  0  0  0  0  0
    5.6891  -14.5601   24.8282 N   0  0  0  0  0  0  0  0  0  0  0  0
    6.3618  -13.6773   25.5709 C   0  0  0  0  0  0  0  0  0  0  0  0
    6.1365  -12.3338   25.8307 C   0  0  0  0  0  0  0  0  0  0  0  0
    6.9790  -11.6138   26.6411 C   0  0  0  0  0  0  0  0  0  0  0  0
    8.0800  -12.1997   27.2264 C   0  0  0  0  0  0  0  0  0  0  0  0
    8.3070  -13.5424   26.9680 C   0  0  0  0  0  0  0  0  0  0  0  0
    7.4630  -14.2553   26.1587 C   0  0  0  0  0  0  0  0  0  0  0  0
   10.8370  -17.1652   25.8313 C   0  0  0  0  0  0  0  0  0  0  0  0
   11.3007  -18.0660   25.1005 O   0  0  0  0  0  0  0  0  0  0  0  0
   11.3513  -17.0007   27.1009 O   0  0  0  0  0  0  0  0  0  0  0  0
  1  2  1  0
  2  3  1  0
  3 10  1  0
  3  4  2  0
  6  8  1  0
  6  5  1  0
  7  6  2  0
  9  8  1  6
 10  9  1  0
 11  9  1  0
 11 13  1  0
 12 11  2  0
 14 13  1  0
 14 15  1  1
 14 25  1  0
 16 15  1  0
 16 17  2  0
 18 17  1  0
 19 24  2  0
 19 18  1  0
 20 19  1  0
 21 22  1  0
 21 20  2  0
 22 23  2  0
 23 24  1  0
 24 16  1  0
 25 27  1  0
 26 25  2  0
M  END
$$$$
