GNW.pdb
     RDKit          3D

 27 28  0  0  1  0  0  0  0  0999 V2000
-855002.0000251461.4531 6845.1655 N   0  0  0  0  0  0  0  0  0  0  0  0
-855001.0000251460.8438 6845.8091 C   0  0  0  0  0  0  0  0  0  0  0  0
-854999.6875251461.7500 6845.6392 C   0  0  0  0  0  0  0  0  0  0  0  0
-854998.6250251461.2031 6845.1636 O   0  0  0  0  0  0  0  0  0  0  0  0
-855000.1875251462.5312 6843.9360 N   0  0  0  0  0  0  0  0  0  0  0  0
-854999.0000251463.1562 6843.4468 C   0  0  0  0  0  0  0  0  0  0  0  0
-854998.5625251462.7031 6842.4038 O   0  0  0  0  0  0  0  0  0  0  0  0
-854998.3125251464.2031 6844.3413 C   0  0  0  0  0  0  0  0  0  0  0  0
-854998.5625251463.9375 6845.8013 C   0  0  2  0  0  0  0  0  0  0  0  0
-854999.7500251463.0938 6845.9702 N   0  0  0  0  0  0  0  0  0  0  0  0
-854998.6250251465.2344 6846.5513 C   0  0  0  0  0  0  0  0  0  0  0  0
-854999.9375251465.5938 6846.8267 O   0  0  0  0  0  0  0  0  0  0  0  0
-854997.5000251465.9688 6846.8696 N   0  0  0  0  0  0  0  0  0  0  0  0
-854996.2500251465.2344 6847.1431 C   0  0  1  0  0  0  0  0  0  0  0  0
-854996.5625251463.8281 6846.6685 C   0  0  0  0  0  0  0  0  0  0  0  0
-854995.2500251462.9688 6847.0835 C   0  0  0  0  0  0  0  0  0  0  0  0
-854995.2500251461.9844 6848.0239 C   0  0  0  0  0  0  0  0  0  0  0  0
-854994.0625251461.5312 6848.1040 N   0  0  0  0  0  0  0  0  0  0  0  0
-854993.3125251462.2344 6847.2280 C   0  0  0  0  0  0  0  0  0  0  0  0
-854992.1250251462.1875 6846.8804 C   0  0  0  0  0  0  0  0  0  0  0  0
-854991.3750251462.9844 6845.9478 C   0  0  0  0  0  0  0  0  0  0  0  0
-854992.1250251463.9531 6845.3013 C   0  0  0  0  0  0  0  0  0  0  0  0
-854993.5000251464.0000 6845.6226 C   0  0  0  0  0  0  0  0  0  0  0  0
-854994.0000251463.1562 6846.5728 C   0  0  0  0  0  0  0  0  0  0  0  0
-854995.2500251465.8125 6846.4019 C   0  0  0  0  0  0  0  0  0  0  0  0
-854995.4375251466.2812 6845.2300 O   0  0  0  0  0  0  0  0  0  0  0  0
-854993.8750251465.8906 6847.0640 O   0  0  0  0  0  0  0  0  0  0  0  0
  1  2  1  0
  2  3  1  0
  3 10  1  0
  3  4  2  0
  6  8  1  0
  6  5  1  0
  7  6  2  0
  9  8  1  6
 10  9  1  0
 11  9  1  0
 11 13  1  0
 12 11  2  0
 14 13  1  0
 14 15  1  6
 14 25  1  0
 16 15  1  0
 16 17  2  0
 18 17  1  0
 19 24  2  0
 19 18  1  0
 20 19  1  0
 21 22  1  0
 21 20  2  0
 22 23  2  0
 23 24  1  0
 24 16  1  0
 25 27  1  0
 26 25  2  0
M  END
$$$$
