GNW.pdb
     RDKit          3D

 27 28  0  0  1  0  0  0  0  0999 V2000
   10.0177  -19.8624   19.3598 N   0  0  0  0  0  0  0  0  0  0  0  0
    9.5603  -19.4526   20.6758 C   0  0  0  0  0  0  0  0  0  0  0  0
   10.0464  -18.0618   20.9872 C   0  0  0  0  0  0  0  0  0  0  0  0
   11.2807  -17.8361   20.9537 O   0  0  0  0  0  0  0  0  0  0  0  0
    6.5600  -14.2094   22.6733 N   0  0  0  0  0  0  0  0  0  0  0  0
    7.1374  -15.0979   21.7198 C   0  0  0  0  0  0  0  0  0  0  0  0
    6.4811  -16.1389   21.4707 O   0  0  0  0  0  0  0  0  0  0  0  0
    8.4365  -14.7684   21.0879 C   0  0  0  0  0  0  0  0  0  0  0  0
    9.5419  -15.7079   21.5043 C   0  0  2  0  0  0  0  0  0  0  0  0
    9.0844  -17.0713   21.3042 N   0  0  0  0  0  0  0  0  0  0  0  0
    9.9291  -15.4780   22.9254 C   0  0  0  0  0  0  0  0  0  0  0  0
   10.6357  -14.4778   23.2002 O   0  0  0  0  0  0  0  0  0  0  0  0
    9.4685  -16.4150   23.8852 N   0  0  0  0  0  0  0  0  0  0  0  0
   10.0972  -16.4890   25.1821 C   0  0  1  0  0  0  0  0  0  0  0  0
    9.8039  -15.1503   25.8596 C   0  0  0  0  0  0  0  0  0  0  0  0
    8.3373  -14.9370   25.8250 C   0  0  0  0  0  0  0  0  0  0  0  0
    7.3218  -15.8587   25.6227 C   0  0  0  0  0  0  0  0  0  0  0  0
    6.1379  -15.2265   25.6718 N   0  0  0  0  0  0  0  0  0  0  0  0
    6.3831  -13.9336   25.8993 C   0  0  0  0  0  0  0  0  0  0  0  0
    5.5323  -12.8476   26.0399 C   0  0  0  0  0  0  0  0  0  0  0  0
    6.0202  -11.5858   26.2736 C   0  0  0  0  0  0  0  0  0  0  0  0
    7.3740  -11.3518   26.3773 C   0  0  0  0  0  0  0  0  0  0  0  0
    8.2261  -12.4359   26.2371 C   0  0  0  0  0  0  0  0  0  0  0  0
    7.7334  -13.6922   26.0040 C   0  0  0  0  0  0  0  0  0  0  0  0
    9.5236  -17.5959   25.9802 C   0  0  0  0  0  0  0  0  0  0  0  0
    8.5023  -18.2158   25.6150 O   0  0  0  0  0  0  0  0  0  0  0  0
   10.1370  -17.9525   27.1633 O   0  0  0  0  0  0  0  0  0  0  0  0
  1  2  1  0
  2  3  1  0
  3 10  1  0
  3  4  2  0
  6  8  1  0
  6  5  1  0
  7  6  2  0
  9  8  1  1
 10  9  1  0
 11  9  1  0
 11 13  1  0
 12 11  2  0
 14 13  1  0
 14 15  1  1
 14 25  1  0
 16 15  1  0
 16 17  2  0
 18 17  1  0
 19 24  2  0
 19 18  1  0
 20 19  1  0
 21 22  1  0
 21 20  2  0
 22 23  2  0
 23 24  1  0
 24 16  1  0
 25 27  1  0
 26 25  2  0
M  END
$$$$
