FHT.pdb
     RDKit          3D

 29 30  0  0  1  0  0  0  0  0999 V2000
    5.3788  -17.1611   23.8521 N   0  0  0  0  0  0  0  0  0  0  0  0
    6.2272  -16.0315   24.1738 C   0  0  1  0  0  0  0  0  0  0  0  0
    6.1168  -15.7954   25.6582 C   0  0  0  0  0  0  0  0  0  0  0  0
    6.4025  -14.3607   25.8965 C   0  0  0  0  0  0  0  0  0  0  0  0
    7.6504  -13.8929   26.1927 C   0  0  0  0  0  0  0  0  0  0  0  0
    7.8623  -12.5361   26.4076 C   0  0  0  0  0  0  0  0  0  0  0  0
    6.7925  -11.6666   26.3175 C   0  0  0  0  0  0  0  0  0  0  0  0
    5.5280  -12.1130   26.0210 C   0  0  0  0  0  0  0  0  0  0  0  0
    5.3468  -13.4773   25.8109 C   0  0  0  0  0  0  0  0  0  0  0  0
    7.5796  -16.3016   23.7086 C   0  0  0  0  0  0  0  0  0  0  0  0
    8.0706  -17.4538   23.8480 O   0  0  0  0  0  0  0  0  0  0  0  0
    8.4249  -15.3407   23.0875 N   0  0  0  0  0  0  0  0  0  0  0  0
    9.6934  -15.7042   22.4775 C   0  0  1  0  0  0  0  0  0  0  0  0
   10.1218  -14.6707   21.4587 C   0  0  0  0  0  0  0  0  0  0  0  0
    9.0339  -14.4322   20.4876 C   0  0  0  0  0  0  0  0  0  0  0  0
    8.0897  -15.3429   20.0466 C   0  0  0  0  0  0  0  0  0  0  0  0
    7.2580  -14.7333   19.1506 N   0  0  0  0  0  0  0  0  0  0  0  0
    7.6792  -13.4715   19.0397 C   0  0  0  0  0  0  0  0  0  0  0  0
    8.7370  -13.2971   19.8379 N   0  0  0  0  0  0  0  0  0  0  0  0
   10.7157  -15.9553   23.5250 C   0  0  0  0  0  0  0  0  0  0  0  0
   11.6871  -15.1853   23.7296 O   0  0  0  0  0  0  0  0  0  0  0  0
   10.4630  -16.6404   27.3229 C   0  0  0  0  0  0  0  0  0  0  0  0
   10.9758  -17.8871   26.6457 C   0  0  1  0  0  0  0  0  0  0  0  0
    9.8952  -18.7402   26.4735 O   0  0  0  0  0  0  0  0  0  0  0  0
   11.5976  -17.5026   25.3215 C   0  0  2  0  0  0  0  0  0  0  0  0
   10.5934  -17.1327   24.3463 N   0  0  0  0  0  0  0  0  0  0  0  0
   12.4082  -18.6060   24.7999 C   0  0  0  0  0  0  0  0  0  0  0  0
   12.0410  -19.1705   23.7229 O   0  0  0  0  0  0  0  0  0  0  0  0
   13.5445  -19.0095   25.4795 O   0  0  0  0  0  0  0  0  0  0  0  0
  2  3  1  0
  2  1  1  1
  4  3  1  0
  4  9  1  0
  5  4  2  0
  6  5  1  0
  6  7  2  0
  7  8  1  0
  8  9  2  0
 10  2  1  0
 11 10  2  0
 12 10  1  0
 13 12  1  0
 14 15  1  0
 13 14  1  6
 15 19  1  0
 16 15  2  0
 16 17  1  0
 17 18  1  0
 19 18  2  0
 20 13  1  0
 20 21  2  0
 23 22  1  6
 23 25  1  0
 24 23  1  0
 25 26  1  6
 26 20  1  0
 27 25  1  0
 28 27  2  0
 29 27  1  0
M  END
$$$$
