FHT.pdb
     RDKit          3D

 29 30  0  0  1  0  0  0  0  0999 V2000
    7.3301  -15.2681   20.9322 N   0  0  0  0  0  0  0  0  0  0  0  0
    7.7207  -14.6835   22.1991 C   0  0  1  0  0  0  0  0  0  0  0  0
    6.4567  -14.3117   22.9307 C   0  0  0  0  0  0  0  0  0  0  0  0
    6.8591  -13.7188   24.2281 C   0  0  0  0  0  0  0  0  0  0  0  0
    7.4413  -12.4882   24.3317 C   0  0  0  0  0  0  0  0  0  0  0  0
    7.7997  -11.9801   25.5748 C   0  0  0  0  0  0  0  0  0  0  0  0
    7.5588  -12.7373   26.7049 C   0  0  0  0  0  0  0  0  0  0  0  0
    6.9746  -13.9777   26.6265 C   0  0  0  0  0  0  0  0  0  0  0  0
    6.6266  -14.4601   25.3677 C   0  0  0  0  0  0  0  0  0  0  0  0
    8.5744  -15.6201   22.9148 C   0  0  0  0  0  0  0  0  0  0  0  0
    8.2044  -16.8155   23.0638 O   0  0  0  0  0  0  0  0  0  0  0  0
    9.8367  -15.2888   23.4810 N   0  0  0  0  0  0  0  0  0  0  0  0
   10.7027  -16.2898   24.0820 C   0  0  1  0  0  0  0  0  0  0  0  0
   12.1603  -15.9563   23.8501 C   0  0  0  0  0  0  0  0  0  0  0  0
   12.4659  -15.9886   22.4047 C   0  0  0  0  0  0  0  0  0  0  0  0
   11.9209  -16.8312   21.4516 C   0  0  0  0  0  0  0  0  0  0  0  0
   12.4642  -16.5446   20.2315 N   0  0  0  0  0  0  0  0  0  0  0  0
   13.3276  -15.5452   20.4260 C   0  0  0  0  0  0  0  0  0  0  0  0
   13.3250  -15.2177   21.7219 N   0  0  0  0  0  0  0  0  0  0  0  0
   10.3626  -16.4713   25.5162 C   0  0  0  0  0  0  0  0  0  0  0  0
   10.5188  -15.5673   26.3746 O   0  0  0  0  0  0  0  0  0  0  0  0
    7.0522  -17.8494   26.9256 C   0  0  0  0  0  0  0  0  0  0  0  0
    8.1588  -18.7398   27.4342 C   0  0  1  0  0  0  0  0  0  0  0  0
    8.1581  -19.8884   26.6558 O   0  0  0  0  0  0  0  0  0  0  0  0
    9.4716  -17.9961   27.3274 C   0  0  2  0  0  0  0  0  0  0  0  0
    9.8296  -17.7381   25.9484 N   0  0  0  0  0  0  0  0  0  0  0  0
   10.5414  -18.7548   27.9805 C   0  0  0  0  0  0  0  0  0  0  0  0
   11.5575  -19.0834   27.2926 O   0  0  0  0  0  0  0  0  0  0  0  0
   10.4292  -19.0961   29.3172 O   0  0  0  0  0  0  0  0  0  0  0  0
  2  3  1  0
  2  1  1  6
  4  3  1  0
  4  9  1  0
  5  4  2  0
  6  5  1  0
  6  7  2  0
  7  8  1  0
  8  9  2  0
 10  2  1  0
 11 10  2  0
 12 10  1  0
 13 12  1  0
 14 15  1  0
 13 14  1  1
 15 19  1  0
 16 15  2  0
 16 17  1  0
 17 18  1  0
 19 18  2  0
 20 13  1  0
 20 21  2  0
 23 22  1  6
 23 25  1  0
 24 23  1  0
 25 26  1  6
 26 20  1  0
 27 25  1  0
 28 27  2  0
 29 27  1  0
M  END
$$$$
