FHT.pdb
     RDKit          3D

 29 30  0  0  1  0  0  0  0  0999 V2000
    6.0839  -17.3501   25.3456 N   0  0  0  0  0  0  0  0  0  0  0  0
    6.5236  -16.0084   25.0202 C   0  0  1  0  0  0  0  0  0  0  0  0
    7.5113  -15.5904   26.0790 C   0  0  0  0  0  0  0  0  0  0  0  0
    7.1715  -14.2023   26.4722 C   0  0  0  0  0  0  0  0  0  0  0  0
    7.2308  -13.7622   27.7632 C   0  0  0  0  0  0  0  0  0  0  0  0
    6.9004  -12.4490   28.0765 C   0  0  0  0  0  0  0  0  0  0  0  0
    6.5107  -11.5944   27.0633 C   0  0  0  0  0  0  0  0  0  0  0  0
    6.4432  -12.0134   25.7573 C   0  0  0  0  0  0  0  0  0  0  0  0
    6.7803  -13.3343   25.4743 C   0  0  0  0  0  0  0  0  0  0  0  0
    7.0553  -15.9950   23.6654 C   0  0  0  0  0  0  0  0  0  0  0  0
    7.4924  -17.0608   23.1545 O   0  0  0  0  0  0  0  0  0  0  0  0
    7.1261  -14.8392   22.8391 N   0  0  0  0  0  0  0  0  0  0  0  0
    7.7103  -14.8731   21.5084 C   0  0  1  0  0  0  0  0  0  0  0  0
    7.4665  -13.5720   20.7752 C   0  0  0  0  0  0  0  0  0  0  0  0
    8.0021  -13.6547   19.4005 C   0  0  0  0  0  0  0  0  0  0  0  0
    7.2796  -13.7580   18.2246 C   0  0  0  0  0  0  0  0  0  0  0  0
    8.1428  -13.8091   17.1670 N   0  0  0  0  0  0  0  0  0  0  0  0
    9.3739  -13.7387   17.6784 C   0  0  0  0  0  0  0  0  0  0  0  0
    9.2847  -13.6469   19.0089 N   0  0  0  0  0  0  0  0  0  0  0  0
    9.1462  -15.2438   21.5854 C   0  0  0  0  0  0  0  0  0  0  0  0
    9.9652  -14.6519   22.3320 O   0  0  0  0  0  0  0  0  0  0  0  0
   10.9595  -18.4272   22.5239 C   0  0  0  0  0  0  0  0  0  0  0  0
   11.1864  -18.1991   21.0500 C   0  0  1  0  0  0  0  0  0  0  0  0
   10.2562  -18.9661   20.3632 O   0  0  0  0  0  0  0  0  0  0  0  0
   11.0203  -16.7252   20.7530 C   0  0  2  0  0  0  0  0  0  0  0  0
    9.6276  -16.3297   20.7700 N   0  0  0  0  0  0  0  0  0  0  0  0
   11.6096  -16.3982   19.4520 C   0  0  0  0  0  0  0  0  0  0  0  0
   10.8376  -16.0287   18.5134 O   0  0  0  0  0  0  0  0  0  0  0  0
   12.9782  -16.4958   19.2696 O   0  0  0  0  0  0  0  0  0  0  0  0
  2  3  1  0
  2  1  1  1
  4  3  1  0
  4  9  1  0
  5  4  2  0
  6  5  1  0
  6  7  2  0
  7  8  1  0
  8  9  2  0
 10  2  1  0
 11 10  2  0
 12 10  1  0
 13 12  1  0
 14 15  1  0
 13 14  1  1
 15 19  1  0
 16 15  2  0
 16 17  1  0
 17 18  1  0
 19 18  2  0
 20 13  1  0
 20 21  2  0
 23 22  1  1
 23 25  1  0
 24 23  1  0
 25 26  1  6
 26 20  1  0
 27 25  1  0
 28 27  2  0
 29 27  1  0
M  END
$$$$
