FHT.pdb
     RDKit          3D

 29 30  0  0  1  0  0  0  0  0999 V2000
    6.3919  -16.0489   21.6615 N   0  0  0  0  0  0  0  0  0  0  0  0
    6.9734  -15.3141   22.7666 C   0  0  1  0  0  0  0  0  0  0  0  0
    5.8568  -14.9840   23.7234 C   0  0  0  0  0  0  0  0  0  0  0  0
    6.4360  -14.1486   24.8020 C   0  0  0  0  0  0  0  0  0  0  0  0
    6.2864  -14.4409   26.1271 C   0  0  0  0  0  0  0  0  0  0  0  0
    6.8507  -13.6221   27.0981 C   0  0  0  0  0  0  0  0  0  0  0  0
    7.5657  -12.5074   26.7041 C   0  0  0  0  0  0  0  0  0  0  0  0
    7.7301  -12.1924   25.3776 C   0  0  0  0  0  0  0  0  0  0  0  0
    7.1532  -13.0314   24.4280 C   0  0  0  0  0  0  0  0  0  0  0  0
    8.0500  -16.1009   23.3500 C   0  0  0  0  0  0  0  0  0  0  0  0
    7.8584  -17.3155   23.6258 O   0  0  0  0  0  0  0  0  0  0  0  0
    9.3470  -15.5971   23.6460 N   0  0  0  0  0  0  0  0  0  0  0  0
   10.4134  -16.4493   24.1456 C   0  0  1  0  0  0  0  0  0  0  0  0
   11.7641  -15.9695   23.6605 C   0  0  0  0  0  0  0  0  0  0  0  0
   11.9419  -16.3088   22.2333 C   0  0  0  0  0  0  0  0  0  0  0  0
   11.0654  -17.0091   21.4229 C   0  0  0  0  0  0  0  0  0  0  0  0
   11.5954  -17.1133   20.1682 N   0  0  0  0  0  0  0  0  0  0  0  0
   12.7755  -16.4903   20.2019 C   0  0  0  0  0  0  0  0  0  0  0  0
   12.9773  -16.0129   21.4339 N   0  0  0  0  0  0  0  0  0  0  0  0
   10.3285  -16.5682   25.6235 C   0  0  0  0  0  0  0  0  0  0  0  0
   10.6240  -15.6276   26.4022 O   0  0  0  0  0  0  0  0  0  0  0  0
    7.3897  -18.1752   27.7264 C   0  0  0  0  0  0  0  0  0  0  0  0
    8.6729  -18.9134   28.0174 C   0  0  1  0  0  0  0  0  0  0  0  0
    8.6504  -20.0902   27.2828 O   0  0  0  0  0  0  0  0  0  0  0  0
    9.8406  -18.0352   27.6258 C   0  0  2  0  0  0  0  0  0  0  0  0
    9.8884  -17.8151   26.1955 N   0  0  0  0  0  0  0  0  0  0  0  0
   11.1006  -18.6332   28.0746 C   0  0  0  0  0  0  0  0  0  0  0  0
   11.9924  -18.8887   27.2069 O   0  0  0  0  0  0  0  0  0  0  0  0
   11.2959  -18.9060   29.4175 O   0  0  0  0  0  0  0  0  0  0  0  0
  2  3  1  0
  2  1  1  6
  4  3  1  0
  4  9  1  0
  5  4  2  0
  6  5  1  0
  6  7  2  0
  7  8  1  0
  8  9  2  0
 10  2  1  0
 11 10  2  0
 12 10  1  0
 13 12  1  0
 14 15  1  0
 13 14  1  1
 15 19  1  0
 16 15  2  0
 16 17  1  0
 17 18  1  0
 19 18  2  0
 20 13  1  0
 20 21  2  0
 23 22  1  6
 23 25  1  0
 24 23  1  0
 25 26  1  6
 26 20  1  0
 27 25  1  0
 28 27  2  0
 29 27  1  0
M  END
$$$$
