FHT.pdb
     RDKit          3D

 29 30  0  0  1  0  0  0  0  0999 V2000
    7.6319  -16.2873   25.8237 N   0  0  0  0  0  0  0  0  0  0  0  0
    6.8381  -16.3669   24.6142 C   0  0  1  0  0  0  0  0  0  0  0  0
    5.8352  -15.2428   24.6605 C   0  0  0  0  0  0  0  0  0  0  0  0
    6.4725  -14.1161   25.3824 C   0  0  0  0  0  0  0  0  0  0  0  0
    7.2552  -13.1859   24.7611 C   0  0  0  0  0  0  0  0  0  0  0  0
    7.8294  -12.1490   25.4871 C   0  0  0  0  0  0  0  0  0  0  0  0
    7.5972  -12.0721   26.8468 C   0  0  0  0  0  0  0  0  0  0  0  0
    6.8137  -12.9955   27.4944 C   0  0  0  0  0  0  0  0  0  0  0  0
    6.2522  -14.0227   26.7407 C   0  0  0  0  0  0  0  0  0  0  0  0
    7.7225  -16.3342   23.4588 C   0  0  0  0  0  0  0  0  0  0  0  0
    7.3153  -16.7658   22.3470 O   0  0  0  0  0  0  0  0  0  0  0  0
    9.0557  -15.8384   23.4785 N   0  0  0  0  0  0  0  0  0  0  0  0
    9.9304  -15.9223   22.3205 C   0  0  1  0  0  0  0  0  0  0  0  0
   10.2252  -14.5472   21.7620 C   0  0  0  0  0  0  0  0  0  0  0  0
    9.2259  -14.1910   20.7334 C   0  0  0  0  0  0  0  0  0  0  0  0
    8.2148  -14.9933   20.2340 C   0  0  0  0  0  0  0  0  0  0  0  0
    7.5059  -14.2960   19.2973 N   0  0  0  0  0  0  0  0  0  0  0  0
    8.0669  -13.0873   19.2191 C   0  0  0  0  0  0  0  0  0  0  0  0
    9.0908  -13.0297   20.0763 N   0  0  0  0  0  0  0  0  0  0  0  0
   11.1538  -16.6955   22.6538 C   0  0  0  0  0  0  0  0  0  0  0  0
   11.8876  -16.4224   23.6364 O   0  0  0  0  0  0  0  0  0  0  0  0
   11.5141  -20.5525   23.0612 C   0  0  0  0  0  0  0  0  0  0  0  0
   12.3857  -20.0995   21.9162 C   0  0  1  0  0  0  0  0  0  0  0  0
   11.6901  -20.3478   20.7416 O   0  0  0  0  0  0  0  0  0  0  0  0
   12.6856  -18.6265   22.0843 C   0  0  2  0  0  0  0  0  0  0  0  0
   11.5206  -17.8093   21.8169 N   0  0  0  0  0  0  0  0  0  0  0  0
   13.7823  -18.2257   21.1992 C   0  0  0  0  0  0  0  0  0  0  0  0
   13.5408  -17.3842   20.2788 O   0  0  0  0  0  0  0  0  0  0  0  0
   15.0454  -18.7627   21.3779 O   0  0  0  0  0  0  0  0  0  0  0  0
  2  3  1  0
  2  1  1  1
  4  3  1  0
  4  9  1  0
  5  4  2  0
  6  5  1  0
  6  7  2  0
  7  8  1  0
  8  9  2  0
 10  2  1  0
 11 10  2  0
 12 10  1  0
 13 12  1  0
 14 15  1  0
 13 14  1  1
 15 19  1  0
 16 15  2  0
 16 17  1  0
 17 18  1  0
 19 18  2  0
 20 13  1  0
 20 21  2  0
 23 22  1  1
 23 25  1  0
 24 23  1  0
 25 26  1  6
 26 20  1  0
 27 25  1  0
 28 27  2  0
 29 27  1  0
M  END
$$$$
