FHT.pdb
     RDKit          3D

 29 30  0  0  1  0  0  0  0  0999 V2000
    7.5668  -17.5235   19.4288 N   0  0  0  0  0  0  0  0  0  0  0  0
    7.9492  -16.4346   20.3048 C   0  0  1  0  0  0  0  0  0  0  0  0
    6.6861  -15.7188   20.7091 C   0  0  0  0  0  0  0  0  0  0  0  0
    7.0799  -14.6080   21.6078 C   0  0  0  0  0  0  0  0  0  0  0  0
    7.0163  -14.6978   22.9686 C   0  0  0  0  0  0  0  0  0  0  0  0
    7.3979  -13.6243   23.7648 C   0  0  0  0  0  0  0  0  0  0  0  0
    7.8427  -12.4643   23.1603 C   0  0  0  0  0  0  0  0  0  0  0  0
    7.9156  -12.3498   21.7937 C   0  0  0  0  0  0  0  0  0  0  0  0
    7.5266  -13.4418   21.0225 C   0  0  0  0  0  0  0  0  0  0  0  0
    8.7203  -16.9657   21.4191 C   0  0  0  0  0  0  0  0  0  0  0  0
    8.2892  -17.9617   22.0597 O   0  0  0  0  0  0  0  0  0  0  0  0
    9.9642  -16.4369   21.8626 N   0  0  0  0  0  0  0  0  0  0  0  0
   10.7021  -17.0192   22.9716 C   0  0  1  0  0  0  0  0  0  0  0  0
   12.1701  -16.6604   22.8949 C   0  0  0  0  0  0  0  0  0  0  0  0
   12.8357  -17.4622   21.8473 C   0  0  0  0  0  0  0  0  0  0  0  0
   12.4023  -18.6604   21.3070 C   0  0  0  0  0  0  0  0  0  0  0  0
   13.2976  -19.0813   20.3651 N   0  0  0  0  0  0  0  0  0  0  0  0
   14.2649  -18.1623   20.3236 C   0  0  0  0  0  0  0  0  0  0  0  0
   13.9852  -17.2001   21.2082 N   0  0  0  0  0  0  0  0  0  0  0  0
   10.0724  -16.6437   24.2631 C   0  0  0  0  0  0  0  0  0  0  0  0
    9.9538  -15.4524   24.6441 O   0  0  0  0  0  0  0  0  0  0  0  0
    6.7268  -17.0113   25.4035 C   0  0  0  0  0  0  0  0  0  0  0  0
    7.4918  -17.8408   26.4048 C   0  0  1  0  0  0  0  0  0  0  0  0
    7.3548  -19.1706   26.0332 O   0  0  0  0  0  0  0  0  0  0  0  0
    8.9406  -17.4063   26.3932 C   0  0  2  0  0  0  0  0  0  0  0  0
    9.5733  -17.6876   25.1216 N   0  0  0  0  0  0  0  0  0  0  0  0
    9.6803  -18.0707   27.4693 C   0  0  0  0  0  0  0  0  0  0  0  0
    9.2924  -17.8987   28.6665 O   0  0  0  0  0  0  0  0  0  0  0  0
   10.7741  -18.8636   27.1680 O   0  0  0  0  0  0  0  0  0  0  0  0
  2  3  1  0
  2  1  1  6
  4  3  1  0
  4  9  1  0
  5  4  2  0
  6  5  1  0
  6  7  2  0
  7  8  1  0
  8  9  2  0
 10  2  1  0
 11 10  2  0
 12 10  1  0
 13 12  1  0
 14 15  1  0
 13 14  1  1
 15 19  1  0
 16 15  2  0
 16 17  1  0
 17 18  1  0
 19 18  2  0
 20 13  1  0
 20 21  2  0
 23 22  1  6
 23 25  1  0
 24 23  1  0
 25 26  1  6
 26 20  1  0
 27 25  1  0
 28 27  2  0
 29 27  1  0
M  END
$$$$
