FHT.pdb
     RDKit          3D

 29 30  0  0  1  0  0  0  0  0999 V2000
    7.4821  -17.8388   19.0073 N   0  0  0  0  0  0  0  0  0  0  0  0
    7.9777  -16.8257   19.9169 C   0  0  1  0  0  0  0  0  0  0  0  0
    6.7815  -16.0929   20.4676 C   0  0  0  0  0  0  0  0  0  0  0  0
    7.1596  -14.6649   20.5888 C   0  0  0  0  0  0  0  0  0  0  0  0
    7.4983  -13.8942   19.5140 C   0  0  0  0  0  0  0  0  0  0  0  0
    7.8456  -12.5592   19.6849 C   0  0  0  0  0  0  0  0  0  0  0  0
    7.8435  -12.0223   20.9579 C   0  0  0  0  0  0  0  0  0  0  0  0
    7.5066  -12.7771   22.0546 C   0  0  0  0  0  0  0  0  0  0  0  0
    7.1633  -14.1111   21.8520 C   0  0  0  0  0  0  0  0  0  0  0  0
    8.8114  -17.4581   20.9284 C   0  0  0  0  0  0  0  0  0  0  0  0
    8.3342  -18.3763   21.6477 O   0  0  0  0  0  0  0  0  0  0  0  0
   10.1683  -17.1153   21.1835 N   0  0  0  0  0  0  0  0  0  0  0  0
   10.9305  -17.7215   22.2628 C   0  0  1  0  0  0  0  0  0  0  0  0
   12.4089  -17.7380   21.9407 C   0  0  0  0  0  0  0  0  0  0  0  0
   12.6643  -18.5985   20.7669 C   0  0  0  0  0  0  0  0  0  0  0  0
   12.3228  -19.9311   20.6146 C   0  0  0  0  0  0  0  0  0  0  0  0
   12.7332  -20.3650   19.3861 N   0  0  0  0  0  0  0  0  0  0  0  0
   13.3165  -19.3223   18.7907 C   0  0  0  0  0  0  0  0  0  0  0  0
   13.2730  -18.2727   19.6171 N   0  0  0  0  0  0  0  0  0  0  0  0
   10.6178  -17.0545   23.5523 C   0  0  0  0  0  0  0  0  0  0  0  0
   11.2432  -16.0479   23.9697 O   0  0  0  0  0  0  0  0  0  0  0  0
    7.3714  -15.6302   24.9387 C   0  0  0  0  0  0  0  0  0  0  0  0
    7.7596  -16.7812   25.8333 C   0  0  1  0  0  0  0  0  0  0  0  0
    7.0016  -17.8785   25.4503 O   0  0  0  0  0  0  0  0  0  0  0  0
    9.2405  -17.0452   25.6742 C   0  0  2  0  0  0  0  0  0  0  0  0
    9.5508  -17.5804   24.3651 N   0  0  0  0  0  0  0  0  0  0  0  0
    9.7067  -17.9721   26.7086 C   0  0  0  0  0  0  0  0  0  0  0  0
   10.2725  -19.0498   26.3455 O   0  0  0  0  0  0  0  0  0  0  0  0
    9.5257  -17.6627   28.0456 O   0  0  0  0  0  0  0  0  0  0  0  0
  2  3  1  0
  2  1  1  6
  4  3  1  0
  4  9  1  0
  5  4  2  0
  6  5  1  0
  6  7  2  0
  7  8  1  0
  8  9  2  0
 10  2  1  0
 11 10  2  0
 12 10  1  0
 13 12  1  0
 14 15  1  0
 13 14  1  6
 15 19  1  0
 16 15  2  0
 16 17  1  0
 17 18  1  0
 19 18  2  0
 20 13  1  0
 20 21  2  0
 23 22  1  6
 23 25  1  0
 24 23  1  0
 25 26  1  6
 26 20  1  0
 27 25  1  0
 28 27  2  0
 29 27  1  0
M  END
$$$$
