FHT.pdb
     RDKit          3D

 29 30  0  0  1  0  0  0  0  0999 V2000
    8.6580  -15.5637   15.6997 N   0  0  0  0  0  0  0  0  0  0  0  0
    8.8010  -14.7371   16.8811 C   0  0  1  0  0  0  0  0  0  0  0  0
    7.4868  -14.7758   17.6179 C   0  0  0  0  0  0  0  0  0  0  0  0
    7.6914  -14.0899   18.9158 C   0  0  0  0  0  0  0  0  0  0  0  0
    7.7806  -14.7598   20.1020 C   0  0  0  0  0  0  0  0  0  0  0  0
    7.9723  -14.0661   21.2910 C   0  0  0  0  0  0  0  0  0  0  0  0
    8.0714  -12.6885   21.2565 C   0  0  0  0  0  0  0  0  0  0  0  0
    7.9848  -11.9922   20.0759 C   0  0  0  0  0  0  0  0  0  0  0  0
    7.7927  -12.7145   18.9013 C   0  0  0  0  0  0  0  0  0  0  0  0
    9.9383  -15.2067   17.6584 C   0  0  0  0  0  0  0  0  0  0  0  0
   10.1208  -16.4437   17.8150 O   0  0  0  0  0  0  0  0  0  0  0  0
   10.8960  -14.3573   18.2788 N   0  0  0  0  0  0  0  0  0  0  0  0
   12.1461  -14.8650   18.8201 C   0  0  1  0  0  0  0  0  0  0  0  0
   13.3284  -14.1028   18.2625 C   0  0  0  0  0  0  0  0  0  0  0  0
   14.5714  -14.8772   18.4589 C   0  0  0  0  0  0  0  0  0  0  0  0
   14.6910  -16.1489   18.9920 C   0  0  0  0  0  0  0  0  0  0  0  0
   16.0079  -16.5118   19.0035 N   0  0  0  0  0  0  0  0  0  0  0  0
   16.6888  -15.4857   18.4881 C   0  0  0  0  0  0  0  0  0  0  0  0
   15.8288  -14.5148   18.1654 N   0  0  0  0  0  0  0  0  0  0  0  0
   12.0993  -14.8728   20.3044 C   0  0  0  0  0  0  0  0  0  0  0  0
   12.2245  -13.8320   20.9969 O   0  0  0  0  0  0  0  0  0  0  0  0
    9.4933  -16.4891   22.6994 C   0  0  0  0  0  0  0  0  0  0  0  0
   10.8296  -17.1473   22.9383 C   0  0  1  0  0  0  0  0  0  0  0  0
   10.8223  -18.3587   22.2617 O   0  0  0  0  0  0  0  0  0  0  0  0
   11.9219  -16.2327   22.4301 C   0  0  2  0  0  0  0  0  0  0  0  0
   11.9020  -16.1265   20.9862 N   0  0  0  0  0  0  0  0  0  0  0  0
   13.2342  -16.7127   22.8708 C   0  0  0  0  0  0  0  0  0  0  0  0
   13.4797  -16.7454   24.1166 O   0  0  0  0  0  0  0  0  0  0  0  0
   14.1714  -17.1168   21.9358 O   0  0  0  0  0  0  0  0  0  0  0  0
  2  3  1  0
  2  1  1  6
  4  3  1  0
  4  9  1  0
  5  4  2  0
  6  5  1  0
  6  7  2  0
  7  8  1  0
  8  9  2  0
 10  2  1  0
 11 10  2  0
 12 10  1  0
 13 12  1  0
 14 15  1  0
 13 14  1  1
 15 19  1  0
 16 15  2  0
 16 17  1  0
 17 18  1  0
 19 18  2  0
 20 13  1  0
 20 21  2  0
 23 22  1  6
 23 25  1  0
 24 23  1  0
 25 26  1  6
 26 20  1  0
 27 25  1  0
 28 27  2  0
 29 27  1  0
M  END
$$$$
