FHT.pdb
     RDKit          3D

 29 30  0  0  1  0  0  0  0  0999 V2000
    5.5033  -17.8180   24.4286 N   0  0  0  0  0  0  0  0  0  0  0  0
    6.1891  -16.5589   24.6382 C   0  0  1  0  0  0  0  0  0  0  0  0
    5.7322  -16.0146   25.9672 C   0  0  0  0  0  0  0  0  0  0  0  0
    6.4191  -14.7168   26.1691 C   0  0  0  0  0  0  0  0  0  0  0  0
    6.9832  -14.3541   27.3583 C   0  0  0  0  0  0  0  0  0  0  0  0
    7.6151  -13.1235   27.4927 C   0  0  0  0  0  0  0  0  0  0  0  0
    7.6649  -12.2716   26.4062 C   0  0  0  0  0  0  0  0  0  0  0  0
    7.1050  -12.6138   25.1998 C   0  0  0  0  0  0  0  0  0  0  0  0
    6.4789  -13.8530   25.0956 C   0  0  0  0  0  0  0  0  0  0  0  0
    7.6251  -16.7746   24.5402 C   0  0  0  0  0  0  0  0  0  0  0  0
    8.1674  -17.6908   25.2145 O   0  0  0  0  0  0  0  0  0  0  0  0
    8.5002  -16.0116   23.7182 N   0  0  0  0  0  0  0  0  0  0  0  0
    9.9205  -16.3047   23.6178 C   0  0  1  0  0  0  0  0  0  0  0  0
   10.4702  -15.8732   22.2757 C   0  0  0  0  0  0  0  0  0  0  0  0
   11.8851  -16.2807   22.1506 C   0  0  0  0  0  0  0  0  0  0  0  0
   12.5962  -17.1109   22.9995 C   0  0  0  0  0  0  0  0  0  0  0  0
   13.8753  -17.2403   22.5379 N   0  0  0  0  0  0  0  0  0  0  0  0
   13.9538  -16.5052   21.4264 C   0  0  0  0  0  0  0  0  0  0  0  0
   12.7659  -15.9357   21.2000 N   0  0  0  0  0  0  0  0  0  0  0  0
   10.6509  -15.7153   24.7687 C   0  0  0  0  0  0  0  0  0  0  0  0
   11.2134  -14.5930   24.7180 O   0  0  0  0  0  0  0  0  0  0  0  0
   10.0752  -13.9864   27.5064 C   0  0  0  0  0  0  0  0  0  0  0  0
   10.5663  -15.2665   28.1357 C   0  0  1  0  0  0  0  0  0  0  0  0
    9.4504  -16.0262   28.4563 O   0  0  0  0  0  0  0  0  0  0  0  0
   11.4624  -15.9826   27.1497 C   0  0  2  0  0  0  0  0  0  0  0  0
   10.7208  -16.4586   26.0008 N   0  0  0  0  0  0  0  0  0  0  0  0
   12.1388  -17.1078   27.8003 C   0  0  0  0  0  0  0  0  0  0  0  0
   11.9287  -18.2792   27.3562 O   0  0  0  0  0  0  0  0  0  0  0  0
   12.9835  -16.8792   28.8727 O   0  0  0  0  0  0  0  0  0  0  0  0
  2  3  1  0
  2  1  1  1
  4  3  1  0
  4  9  1  0
  5  4  2  0
  6  5  1  0
  6  7  2  0
  7  8  1  0
  8  9  2  0
 10  2  1  0
 11 10  2  0
 12 10  1  0
 13 12  1  0
 14 15  1  0
 13 14  1  6
 15 19  1  0
 16 15  2  0
 16 17  1  0
 17 18  1  0
 19 18  2  0
 20 13  1  0
 20 21  2  0
 23 22  1  6
 23 25  1  0
 24 23  1  0
 25 26  1  6
 26 20  1  0
 27 25  1  0
 28 27  2  0
 29 27  1  0
M  END
$$$$
