FHT.pdb
     RDKit          3D

 29 30  0  0  1  0  0  0  0  0999 V2000
    5.5216  -17.1764   24.1196 N   0  0  0  0  0  0  0  0  0  0  0  0
    6.3926  -16.0485   24.3814 C   0  0  1  0  0  0  0  0  0  0  0  0
    6.4515  -15.8642   25.8760 C   0  0  0  0  0  0  0  0  0  0  0  0
    6.6752  -14.4214   26.1316 C   0  0  0  0  0  0  0  0  0  0  0  0
    7.9162  -13.8871   26.3271 C   0  0  0  0  0  0  0  0  0  0  0  0
    8.0687  -12.5260   26.5636 C   0  0  0  0  0  0  0  0  0  0  0  0
    6.9469  -11.7204   26.5983 C   0  0  0  0  0  0  0  0  0  0  0  0
    5.6881  -12.2342   26.4047 C   0  0  0  0  0  0  0  0  0  0  0  0
    5.5670  -13.6012   26.1699 C   0  0  0  0  0  0  0  0  0  0  0  0
    7.6847  -16.2867   23.7552 C   0  0  0  0  0  0  0  0  0  0  0  0
    8.1898  -17.4409   23.7828 O   0  0  0  0  0  0  0  0  0  0  0  0
    8.4537  -15.2914   23.0907 N   0  0  0  0  0  0  0  0  0  0  0  0
    9.6976  -15.6027   22.4058 C   0  0  1  0  0  0  0  0  0  0  0  0
   10.1017  -14.4789   21.4766 C   0  0  0  0  0  0  0  0  0  0  0  0
    9.0287  -14.2207   20.4939 C   0  0  0  0  0  0  0  0  0  0  0  0
    8.7194  -14.9726   19.3740 C   0  0  0  0  0  0  0  0  0  0  0  0
    7.6614  -14.4021   18.7249 N   0  0  0  0  0  0  0  0  0  0  0  0
    7.3234  -13.3195   19.4289 C   0  0  0  0  0  0  0  0  0  0  0  0
    8.1406  -13.2158   20.4815 N   0  0  0  0  0  0  0  0  0  0  0  0
   10.7518  -15.9596   23.3891 C   0  0  0  0  0  0  0  0  0  0  0  0
   11.3696  -15.1026   24.0690 O   0  0  0  0  0  0  0  0  0  0  0  0
   10.6021  -18.4712   26.3484 C   0  0  0  0  0  0  0  0  0  0  0  0
   11.6181  -18.9579   25.3449 C   0  0  1  0  0  0  0  0  0  0  0  0
   10.9966  -19.9154   24.5562 O   0  0  0  0  0  0  0  0  0  0  0  0
   12.0929  -17.7813   24.5213 C   0  0  2  0  0  0  0  0  0  0  0  0
   11.0852  -17.3487   23.5759 N   0  0  0  0  0  0  0  0  0  0  0  0
   13.3247  -18.1244   23.8061 C   0  0  0  0  0  0  0  0  0  0  0  0
   14.3663  -18.3851   24.4847 O   0  0  0  0  0  0  0  0  0  0  0  0
   13.3332  -18.1582   22.4223 O   0  0  0  0  0  0  0  0  0  0  0  0
  2  3  1  0
  2  1  1  1
  4  3  1  0
  4  9  1  0
  5  4  2  0
  6  5  1  0
  6  7  2  0
  7  8  1  0
  8  9  2  0
 10  2  1  0
 11 10  2  0
 12 10  1  0
 13 12  1  0
 14 15  1  0
 13 14  1  1
 15 19  1  0
 16 15  2  0
 16 17  1  0
 17 18  1  0
 19 18  2  0
 20 13  1  0
 20 21  2  0
 23 22  1  1
 23 25  1  0
 24 23  1  0
 25 26  1  6
 26 20  1  0
 27 25  1  0
 28 27  2  0
 29 27  1  0
M  END
$$$$
