FHT.pdb
     RDKit          3D

 29 30  0  0  1  0  0  0  0  0999 V2000
    7.7269  -15.0625   19.0025 N   0  0  0  0  0  0  0  0  0  0  0  0
    7.9412  -14.5159   20.3271 C   0  0  1  0  0  0  0  0  0  0  0  0
    6.6409  -13.8986   20.7738 C   0  0  0  0  0  0  0  0  0  0  0  0
    6.8194  -13.4704   22.1815 C   0  0  0  0  0  0  0  0  0  0  0  0
    6.4793  -14.2571   23.2442 C   0  0  0  0  0  0  0  0  0  0  0  0
    6.6677  -13.8053   24.5450 C   0  0  0  0  0  0  0  0  0  0  0  0
    7.2040  -12.5484   24.7485 C   0  0  0  0  0  0  0  0  0  0  0  0
    7.5539  -11.7386   23.6960 C   0  0  0  0  0  0  0  0  0  0  0  0
    7.3535  -12.2185   22.4046 C   0  0  0  0  0  0  0  0  0  0  0  0
    8.4384  -15.5664   21.2032 C   0  0  0  0  0  0  0  0  0  0  0  0
    7.9952  -16.7403   21.0862 O   0  0  0  0  0  0  0  0  0  0  0  0
    9.4175  -15.3738   22.2170 N   0  0  0  0  0  0  0  0  0  0  0  0
   10.0453  -16.4874   22.9091 C   0  0  1  0  0  0  0  0  0  0  0  0
   11.5286  -16.5425   22.6153 C   0  0  0  0  0  0  0  0  0  0  0  0
   12.0974  -17.8154   23.1049 C   0  0  0  0  0  0  0  0  0  0  0  0
   12.2532  -18.9922   22.3933 C   0  0  0  0  0  0  0  0  0  0  0  0
   12.8172  -19.9378   23.2020 N   0  0  0  0  0  0  0  0  0  0  0  0
   13.0062  -19.3577   24.3894 C   0  0  0  0  0  0  0  0  0  0  0  0
   12.5759  -18.0938   24.3264 N   0  0  0  0  0  0  0  0  0  0  0  0
    9.7356  -16.4325   24.3605 C   0  0  0  0  0  0  0  0  0  0  0  0
   10.0052  -15.4378   25.0790 O   0  0  0  0  0  0  0  0  0  0  0  0
    6.3624  -17.4385   26.0581 C   0  0  0  0  0  0  0  0  0  0  0  0
    7.4622  -18.2799   26.6569 C   0  0  1  0  0  0  0  0  0  0  0  0
    7.3970  -19.5321   26.0628 O   0  0  0  0  0  0  0  0  0  0  0  0
    8.7907  -17.6069   26.3921 C   0  0  2  0  0  0  0  0  0  0  0  0
    9.0979  -17.5674   24.9777 N   0  0  0  0  0  0  0  0  0  0  0  0
    9.8642  -18.2985   27.1103 C   0  0  0  0  0  0  0  0  0  0  0  0
    9.7509  -18.4528   28.3660 O   0  0  0  0  0  0  0  0  0  0  0  0
   10.9684  -18.7658   26.4187 O   0  0  0  0  0  0  0  0  0  0  0  0
  2  3  1  0
  2  1  1  6
  4  3  1  0
  4  9  1  0
  5  4  2  0
  6  5  1  0
  6  7  2  0
  7  8  1  0
  8  9  2  0
 10  2  1  0
 11 10  2  0
 12 10  1  0
 13 12  1  0
 14 15  1  0
 13 14  1  1
 15 19  1  0
 16 15  2  0
 16 17  1  0
 17 18  1  0
 19 18  2  0
 20 13  1  0
 20 21  2  0
 23 22  1  6
 23 25  1  0
 24 23  1  0
 25 26  1  6
 26 20  1  0
 27 25  1  0
 28 27  2  0
 29 27  1  0
M  END
$$$$
