FHT.pdb
     RDKit          3D

 29 30  0  0  1  0  0  0  0  0999 V2000
    5.5982  -17.6081   23.4093 N   0  0  0  0  0  0  0  0  0  0  0  0
    6.4486  -16.5223   23.8533 C   0  0  1  0  0  0  0  0  0  0  0  0
    6.0302  -16.1697   25.2576 C   0  0  0  0  0  0  0  0  0  0  0  0
    6.6961  -14.8922   25.6059 C   0  0  0  0  0  0  0  0  0  0  0  0
    6.5731  -13.7621   24.8499 C   0  0  0  0  0  0  0  0  0  0  0  0
    7.2205  -12.5901   25.2229 C   0  0  0  0  0  0  0  0  0  0  0  0
    7.9908  -12.5840   26.3698 C   0  0  0  0  0  0  0  0  0  0  0  0
    8.1300  -13.7079   27.1467 C   0  0  0  0  0  0  0  0  0  0  0  0
    7.4696  -14.8667   26.7476 C   0  0  0  0  0  0  0  0  0  0  0  0
    7.8418  -16.9234   23.7257 C   0  0  0  0  0  0  0  0  0  0  0  0
    8.2083  -18.0537   24.1455 O   0  0  0  0  0  0  0  0  0  0  0  0
    8.8620  -16.1189   23.1464 N   0  0  0  0  0  0  0  0  0  0  0  0
   10.2373  -16.5759   23.0317 C   0  0  1  0  0  0  0  0  0  0  0  0
   10.9870  -15.7832   21.9832 C   0  0  0  0  0  0  0  0  0  0  0  0
   10.5225  -16.1600   20.6320 C   0  0  0  0  0  0  0  0  0  0  0  0
    9.6148  -17.1520   20.3043 C   0  0  0  0  0  0  0  0  0  0  0  0
    9.4525  -17.1858   18.9483 N   0  0  0  0  0  0  0  0  0  0  0  0
   10.2436  -16.2343   18.4477 C   0  0  0  0  0  0  0  0  0  0  0  0
   10.8787  -15.6262   19.4544 N   0  0  0  0  0  0  0  0  0  0  0  0
   10.8975  -16.5621   24.3619 C   0  0  0  0  0  0  0  0  0  0  0  0
   11.1770  -15.5013   24.9744 O   0  0  0  0  0  0  0  0  0  0  0  0
    9.4011  -17.9911   27.1090 C   0  0  0  0  0  0  0  0  0  0  0  0
   10.7416  -17.3365   27.3337 C   0  0  1  0  0  0  0  0  0  0  0  0
   11.1209  -17.6054   28.6410 O   0  0  0  0  0  0  0  0  0  0  0  0
   11.7327  -17.9000   26.3397 C   0  0  2  0  0  0  0  0  0  0  0  0
   11.2348  -17.8177   24.9826 N   0  0  0  0  0  0  0  0  0  0  0  0
   12.0451  -19.2937   26.6662 C   0  0  0  0  0  0  0  0  0  0  0  0
   11.8328  -20.1841   25.7855 O   0  0  0  0  0  0  0  0  0  0  0  0
   12.5590  -19.6129   27.9111 O   0  0  0  0  0  0  0  0  0  0  0  0
  2  3  1  0
  2  1  1  1
  4  3  1  0
  4  9  1  0
  5  4  2  0
  6  5  1  0
  6  7  2  0
  7  8  1  0
  8  9  2  0
 10  2  1  0
 11 10  2  0
 12 10  1  0
 13 12  1  0
 14 15  1  0
 13 14  1  6
 15 19  1  0
 16 15  2  0
 16 17  1  0
 17 18  1  0
 19 18  2  0
 20 13  1  0
 20 21  2  0
 23 22  1  6
 23 25  1  0
 24 23  1  0
 25 26  1  6
 26 20  1  0
 27 25  1  0
 28 27  2  0
 29 27  1  0
M  END
$$$$
