FHT.pdb
     RDKit          3D

 29 30  0  0  1  0  0  0  0  0999 V2000
    7.3849  -15.3366   20.9385 N   0  0  0  0  0  0  0  0  0  0  0  0
    7.7711  -14.7969   22.2265 C   0  0  1  0  0  0  0  0  0  0  0  0
    6.5068  -14.3987   22.9438 C   0  0  0  0  0  0  0  0  0  0  0  0
    6.9096  -13.7158   24.1960 C   0  0  0  0  0  0  0  0  0  0  0  0
    7.6489  -12.5681   24.2095 C   0  0  0  0  0  0  0  0  0  0  0  0
    7.9996  -11.9692   25.4137 C   0  0  0  0  0  0  0  0  0  0  0  0
    7.5898  -12.5512   26.5978 C   0  0  0  0  0  0  0  0  0  0  0  0
    6.8455  -13.7053   26.6103 C   0  0  0  0  0  0  0  0  0  0  0  0
    6.5097  -14.2820   25.3884 C   0  0  0  0  0  0  0  0  0  0  0  0
    8.5779  -15.7798   22.9344 C   0  0  0  0  0  0  0  0  0  0  0  0
    8.1628  -16.9642   23.0490 O   0  0  0  0  0  0  0  0  0  0  0  0
    9.8410  -15.5075   23.5294 N   0  0  0  0  0  0  0  0  0  0  0  0
   10.6773  -16.5579   24.0867 C   0  0  1  0  0  0  0  0  0  0  0  0
   12.1410  -16.2888   23.8134 C   0  0  0  0  0  0  0  0  0  0  0  0
   12.4089  -16.3591   22.3619 C   0  0  0  0  0  0  0  0  0  0  0  0
   11.9596  -17.3195   21.4724 C   0  0  0  0  0  0  0  0  0  0  0  0
   12.4249  -17.0295   20.2213 N   0  0  0  0  0  0  0  0  0  0  0  0
   13.1472  -15.9126   20.3346 C   0  0  0  0  0  0  0  0  0  0  0  0
   13.1346  -15.5173   21.6114 N   0  0  0  0  0  0  0  0  0  0  0  0
   10.3741  -16.7477   25.5280 C   0  0  0  0  0  0  0  0  0  0  0  0
   10.5170  -15.8369   26.3815 O   0  0  0  0  0  0  0  0  0  0  0  0
    8.0025  -19.4812   28.8765 C   0  0  0  0  0  0  0  0  0  0  0  0
    8.4157  -19.3289   27.4336 C   0  0  1  0  0  0  0  0  0  0  0  0
    7.2864  -18.9644   26.7147 O   0  0  0  0  0  0  0  0  0  0  0  0
    9.4965  -18.2744   27.3442 C   0  0  2  0  0  0  0  0  0  0  0  0
    9.8944  -18.0311   25.9734 N   0  0  0  0  0  0  0  0  0  0  0  0
   10.6648  -18.6743   28.1328 C   0  0  0  0  0  0  0  0  0  0  0  0
   11.4463  -19.5537   27.6538 O   0  0  0  0  0  0  0  0  0  0  0  0
   10.8945  -18.0956   29.3690 O   0  0  0  0  0  0  0  0  0  0  0  0
  2  3  1  0
  2  1  1  6
  4  3  1  0
  4  9  1  0
  5  4  2  0
  6  5  1  0
  6  7  2  0
  7  8  1  0
  8  9  2  0
 10  2  1  0
 11 10  2  0
 12 10  1  0
 13 12  1  0
 14 15  1  0
 13 14  1  1
 15 19  1  0
 16 15  2  0
 16 17  1  0
 17 18  1  0
 19 18  2  0
 20 13  1  0
 20 21  2  0
 23 22  1  1
 23 25  1  0
 24 23  1  0
 25 26  1  6
 26 20  1  0
 27 25  1  0
 28 27  2  0
 29 27  1  0
M  END
$$$$
