FHT.pdb
     RDKit          3D

 29 30  0  0  1  0  0  0  0  0999 V2000
    5.6952  -16.7909   24.5281 N   0  0  0  0  0  0  0  0  0  0  0  0
    6.6879  -15.7354   24.5322 C   0  0  1  0  0  0  0  0  0  0  0  0
    7.1323  -15.5426   25.9593 C   0  0  0  0  0  0  0  0  0  0  0  0
    6.9620  -14.1059   26.2813 C   0  0  0  0  0  0  0  0  0  0  0  0
    7.8722  -13.1533   25.9235 C   0  0  0  0  0  0  0  0  0  0  0  0
    7.6628  -11.8191   26.2519 C   0  0  0  0  0  0  0  0  0  0  0  0
    6.5204  -11.4694   26.9458 C   0  0  0  0  0  0  0  0  0  0  0  0
    5.5902  -12.4092   27.3167 C   0  0  0  0  0  0  0  0  0  0  0  0
    5.8275  -13.7375   26.9737 C   0  0  0  0  0  0  0  0  0  0  0  0
    7.7603  -16.0842   23.6121 C   0  0  0  0  0  0  0  0  0  0  0  0
    8.0958  -17.2908   23.4711 O   0  0  0  0  0  0  0  0  0  0  0  0
    8.4884  -15.1450   22.8302 N   0  0  0  0  0  0  0  0  0  0  0  0
    9.5543  -15.5492   21.9281 C   0  0  1  0  0  0  0  0  0  0  0  0
    9.9335  -14.4197   20.9954 C   0  0  0  0  0  0  0  0  0  0  0  0
    8.8777  -14.2213   19.9809 C   0  0  0  0  0  0  0  0  0  0  0  0
    7.7571  -15.0066   19.7731 C   0  0  0  0  0  0  0  0  0  0  0  0
    7.0279  -14.4890   18.7404 N   0  0  0  0  0  0  0  0  0  0  0  0
    7.6840  -13.4058   18.3181 C   0  0  0  0  0  0  0  0  0  0  0  0
    8.7850  -13.2507   19.0601 N   0  0  0  0  0  0  0  0  0  0  0  0
   10.7049  -16.0866   22.6981 C   0  0  0  0  0  0  0  0  0  0  0  0
   10.8545  -15.8886   23.9297 O   0  0  0  0  0  0  0  0  0  0  0  0
   11.3080  -17.9629   24.7287 C   0  0  0  0  0  0  0  0  0  0  0  0
   12.0255  -18.6881   23.6173 C   0  0  1  0  0  0  0  0  0  0  0  0
   11.0812  -19.4439   22.9375 O   0  0  0  0  0  0  0  0  0  0  0  0
   12.6791  -17.6683   22.7113 C   0  0  2  0  0  0  0  0  0  0  0  0
   11.6969  -16.8706   22.0075 N   0  0  0  0  0  0  0  0  0  0  0  0
   13.5572  -18.3336   21.7454 C   0  0  0  0  0  0  0  0  0  0  0  0
   13.2383  -18.3034   20.5163 O   0  0  0  0  0  0  0  0  0  0  0  0
   14.7035  -18.9750   22.1818 O   0  0  0  0  0  0  0  0  0  0  0  0
  2  3  1  0
  2  1  1  1
  4  3  1  0
  4  9  1  0
  5  4  2  0
  6  5  1  0
  6  7  2  0
  7  8  1  0
  8  9  2  0
 10  2  1  0
 11 10  2  0
 12 10  1  0
 13 12  1  0
 14 15  1  0
 13 14  1  1
 15 19  1  0
 16 15  2  0
 16 17  1  0
 17 18  1  0
 19 18  2  0
 20 13  1  0
 20 21  2  0
 23 22  1  1
 23 25  1  0
 24 23  1  0
 25 26  1  6
 26 20  1  0
 27 25  1  0
 28 27  2  0
 29 27  1  0
M  END
$$$$
