FHT.pdb
     RDKit          3D

 29 30  0  0  1  0  0  0  0  0999 V2000
    7.3752  -17.6969   19.6793 N   0  0  0  0  0  0  0  0  0  0  0  0
    8.1205  -16.7664   20.5028 C   0  0  1  0  0  0  0  0  0  0  0  0
    7.1180  -15.9002   21.2213 C   0  0  0  0  0  0  0  0  0  0  0  0
    7.2911  -14.5176   20.7160 C   0  0  0  0  0  0  0  0  0  0  0  0
    6.6667  -14.0553   19.5934 C   0  0  0  0  0  0  0  0  0  0  0  0
    6.8652  -12.7485   19.1635 C   0  0  0  0  0  0  0  0  0  0  0  0
    7.7034  -11.9231   19.8880 C   0  0  0  0  0  0  0  0  0  0  0  0
    8.3427  -12.3649   21.0203 C   0  0  0  0  0  0  0  0  0  0  0  0
    8.1243  -13.6787   21.4261 C   0  0  0  0  0  0  0  0  0  0  0  0
    9.0084  -17.5118   21.3827 C   0  0  0  0  0  0  0  0  0  0  0  0
    8.5495  -18.4546   22.0817 O   0  0  0  0  0  0  0  0  0  0  0  0
   10.4007  -17.2573   21.5259 N   0  0  0  0  0  0  0  0  0  0  0  0
   11.1874  -17.8377   22.6017 C   0  0  1  0  0  0  0  0  0  0  0  0
   12.6669  -17.7655   22.2922 C   0  0  0  0  0  0  0  0  0  0  0  0
   12.9968  -18.6697   21.1710 C   0  0  0  0  0  0  0  0  0  0  0  0
   12.1141  -19.2639   20.2861 C   0  0  0  0  0  0  0  0  0  0  0  0
   12.8132  -20.0279   19.3952 N   0  0  0  0  0  0  0  0  0  0  0  0
   14.1019  -19.9086   19.7225 C   0  0  0  0  0  0  0  0  0  0  0  0
   14.2060  -19.0987   20.7807 N   0  0  0  0  0  0  0  0  0  0  0  0
   10.8275  -17.2112   23.8992 C   0  0  0  0  0  0  0  0  0  0  0  0
   11.3112  -16.1185   24.2873 O   0  0  0  0  0  0  0  0  0  0  0  0
    7.8679  -15.7461   25.1956 C   0  0  0  0  0  0  0  0  0  0  0  0
    8.0561  -16.9442   26.0928 C   0  0  1  0  0  0  0  0  0  0  0  0
    7.2247  -17.9502   25.6216 O   0  0  0  0  0  0  0  0  0  0  0  0
    9.5099  -17.3598   26.0536 C   0  0  2  0  0  0  0  0  0  0  0  0
    9.8823  -17.8816   24.7553 N   0  0  0  0  0  0  0  0  0  0  0  0
    9.7803  -18.3651   27.0846 C   0  0  0  0  0  0  0  0  0  0  0  0
   10.2319  -19.4962   26.7237 O   0  0  0  0  0  0  0  0  0  0  0  0
    9.5428  -18.0701   28.4159 O   0  0  0  0  0  0  0  0  0  0  0  0
  2  3  1  0
  2  1  1  1
  4  3  1  0
  4  9  1  0
  5  4  2  0
  6  5  1  0
  6  7  2  0
  7  8  1  0
  8  9  2  0
 10  2  1  0
 11 10  2  0
 12 10  1  0
 13 12  1  0
 14 15  1  0
 13 14  1  6
 15 19  1  0
 16 15  2  0
 16 17  1  0
 17 18  1  0
 19 18  2  0
 20 13  1  0
 20 21  2  0
 23 22  1  6
 23 25  1  0
 24 23  1  0
 25 26  1  6
 26 20  1  0
 27 25  1  0
 28 27  2  0
 29 27  1  0
M  END
$$$$
