STN.pdb
     RDKit          3D

 22 21  0  0  1  0  0  0  0  0999 V2000
   -1.8281  -20.7392   25.0683 O   0  0  0  0  0  0  0  0  0  0  0  0
   -0.8084  -19.8682   24.7277 C   0  0  0  0  0  0  0  0  0  0  0  0
   -0.7034  -19.6993   23.2149 C   0  0  2  0  0  0  0  0  0  0  0  0
   -1.7982  -20.4204   22.6307 N   0  0  0  0  0  0  0  0  0  0  0  0
    0.5835  -20.1767   22.7009 C   0  0  0  0  0  0  0  0  0  0  0  0
    0.7365  -21.3402   22.2559 O   0  0  0  0  0  0  0  0  0  0  0  0
    2.4327  -19.3770   19.7473 C   0  0  0  0  0  0  0  0  0  0  0  0
    3.3585  -19.0634   20.8667 C   0  0  1  0  0  0  0  0  0  0  0  0
    3.4196  -17.6805   21.0187 O   0  0  0  0  0  0  0  0  0  0  0  0
    3.0133  -19.7451   22.1616 C   0  0  2  0  0  0  0  0  0  0  0  0
    1.7360  -19.3209   22.6858 N   0  0  0  0  0  0  0  0  0  0  0  0
    4.0955  -19.6549   23.1677 C   0  0  0  0  0  0  0  0  0  0  0  0
    3.9703  -18.7947   24.0768 O   0  0  0  0  0  0  0  0  0  0  0  0
    9.6385  -21.5723   24.8493 N   0  0  0  0  0  0  0  0  0  0  0  0
    8.2804  -21.2959   25.2469 C   0  0  0  0  0  0  0  0  0  0  0  0
    8.1240  -20.8646   26.4009 O   0  0  0  0  0  0  0  0  0  0  0  0
    7.1511  -21.5115   24.3421 C   0  0  0  0  0  0  0  0  0  0  0  0
    6.3432  -20.2991   24.1325 C   0  0  2  0  0  0  0  0  0  0  0  0
    5.2604  -20.4657   23.1814 N   0  0  0  0  0  0  0  0  0  0  0  0
    7.1841  -19.1730   23.6872 C   0  0  0  0  0  0  0  0  0  0  0  0
    7.5643  -19.0615   22.3198 O   0  0  0  0  0  0  0  0  0  0  0  0
    7.6321  -18.2499   24.3976 O   0  0  0  0  0  0  0  0  0  0  0  0
  1  2  1  0
  2  3  1  0
  3  5  1  0
  3  4  1  6
  5 11  1  0
  6  5  2  0
  8  9  1  0
  8  7  1  6
 10 11  1  1
 10 12  1  0
 10  8  1  0
 12 19  1  0
 12 13  2  0
 15 14  1  0
 15 16  2  0
 17 15  1  0
 18 17  1  6
 18 20  1  0
 19 18  1  0
 20 22  2  0
 20 21  1  0
M  END
$$$$
