STN.pdb
     RDKit          3D

 22 21  0  0  1  0  0  0  0  0999 V2000
   12.2667  -13.4769   19.0102 O   0  0  0  0  0  0  0  0  0  0  0  0
   11.0745  -13.2344   19.6690 C   0  0  0  0  0  0  0  0  0  0  0  0
    9.9615  -14.1447   19.1580 C   0  0  2  0  0  0  0  0  0  0  0  0
    9.4475  -13.5523   17.9562 N   0  0  0  0  0  0  0  0  0  0  0  0
    8.9041  -14.3264   20.1566 C   0  0  0  0  0  0  0  0  0  0  0  0
    7.8990  -13.5769   20.2112 O   0  0  0  0  0  0  0  0  0  0  0  0
    6.3967  -16.8843   20.6774 C   0  0  0  0  0  0  0  0  0  0  0  0
    7.1881  -16.8505   21.9348 C   0  0  1  0  0  0  0  0  0  0  0  0
    8.0174  -17.9688   21.9681 O   0  0  0  0  0  0  0  0  0  0  0  0
    7.9672  -15.5808   22.1390 C   0  0  2  0  0  0  0  0  0  0  0  0
    8.9770  -15.3834   21.1254 N   0  0  0  0  0  0  0  0  0  0  0  0
    8.5095  -15.4507   23.5102 C   0  0  0  0  0  0  0  0  0  0  0  0
    9.7598  -15.4825   23.6436 O   0  0  0  0  0  0  0  0  0  0  0  0
    5.9340  -12.4334   26.5611 N   0  0  0  0  0  0  0  0  0  0  0  0
    7.2414  -13.0413   26.5744 C   0  0  0  0  0  0  0  0  0  0  0  0
    8.1884  -12.3122   26.2371 O   0  0  0  0  0  0  0  0  0  0  0  0
    7.4406  -14.4376   26.9631 C   0  0  0  0  0  0  0  0  0  0  0  0
    8.2849  -15.1831   26.0155 C   0  0  2  0  0  0  0  0  0  0  0  0
    7.7241  -15.2929   24.6819 N   0  0  0  0  0  0  0  0  0  0  0  0
    8.5683  -16.5413   26.5140 C   0  0  0  0  0  0  0  0  0  0  0  0
    9.2443  -16.7214   27.7537 O   0  0  0  0  0  0  0  0  0  0  0  0
    8.2740  -17.6177   25.9550 O   0  0  0  0  0  0  0  0  0  0  0  0
  1  2  1  0
  2  3  1  0
  3  5  1  0
  3  4  1  6
  5 11  1  0
  6  5  2  0
  8  9  1  0
  8  7  1  6
 10 11  1  6
 10 12  1  0
 10  8  1  0
 12 19  1  0
 12 13  2  0
 15 14  1  0
 15 16  2  0
 17 15  1  0
 18 17  1  1
 18 20  1  0
 19 18  1  0
 20 22  2  0
 20 21  1  0
M  END
$$$$
