STN.pdb
     RDKit          3D

 22 21  0  0  1  0  0  0  0  0999 V2000
    9.4324  -11.9029   17.8514 O   0  0  0  0  0  0  0  0  0  0  0  0
    9.0537  -12.5511   19.0136 C   0  0  0  0  0  0  0  0  0  0  0  0
    8.3185  -13.8532   18.7097 C   0  0  2  0  0  0  0  0  0  0  0  0
    7.0015  -13.5017   18.2609 N   0  0  0  0  0  0  0  0  0  0  0  0
    8.2648  -14.7349   19.8794 C   0  0  0  0  0  0  0  0  0  0  0  0
    7.3855  -14.6168   20.7669 O   0  0  0  0  0  0  0  0  0  0  0  0
   10.3410  -18.5575   19.8724 C   0  0  0  0  0  0  0  0  0  0  0  0
    9.1236  -18.1646   20.6288 C   0  0  1  0  0  0  0  0  0  0  0  0
    8.9344  -19.0716   21.6684 O   0  0  0  0  0  0  0  0  0  0  0  0
    9.1401  -16.7473   21.1305 C   0  0  2  0  0  0  0  0  0  0  0  0
    9.2293  -15.7830   20.0589 N   0  0  0  0  0  0  0  0  0  0  0  0
   10.1564  -16.5193   22.1824 C   0  0  0  0  0  0  0  0  0  0  0  0
   11.2692  -16.0570   21.8216 O   0  0  0  0  0  0  0  0  0  0  0  0
   11.4869  -15.8671   28.1559 N   0  0  0  0  0  0  0  0  0  0  0  0
   11.6721  -15.7228   26.7333 C   0  0  0  0  0  0  0  0  0  0  0  0
   12.8116  -15.4018   26.3586 O   0  0  0  0  0  0  0  0  0  0  0  0
   10.5794  -15.9422   25.7854 C   0  0  0  0  0  0  0  0  0  0  0  0
   11.0118  -16.6337   24.5602 C   0  0  2  0  0  0  0  0  0  0  0  0
    9.9675  -16.7832   23.5642 N   0  0  0  0  0  0  0  0  0  0  0  0
   11.5541  -17.9694   24.8692 C   0  0  0  0  0  0  0  0  0  0  0  0
   10.6725  -19.0596   25.1157 O   0  0  0  0  0  0  0  0  0  0  0  0
   12.7589  -18.2856   24.9472 O   0  0  0  0  0  0  0  0  0  0  0  0
  1  2  1  0
  2  3  1  0
  3  5  1  0
  3  4  1  1
  5 11  1  0
  6  5  2  0
  8  9  1  0
  8  7  1  1
 10 11  1  6
 10 12  1  0
 10  8  1  0
 12 19  1  0
 12 13  2  0
 15 14  1  0
 15 16  2  0
 17 15  1  0
 18 17  1  1
 18 20  1  0
 19 18  1  0
 20 22  2  0
 20 21  1  0
M  END
$$$$
