STN.pdb
     RDKit          3D

 22 21  0  0  1  0  0  0  0  0999 V2000
    1.1435  -25.6934   22.4949 O   0  0  0  0  0  0  0  0  0  0  0  0
    1.7702  -24.4661   22.6194 C   0  0  0  0  0  0  0  0  0  0  0  0
    1.6761  -23.6600   21.3273 C   0  0  2  0  0  0  0  0  0  0  0  0
    1.7281  -24.5948   20.2396 N   0  0  0  0  0  0  0  0  0  0  0  0
    2.7476  -22.6650   21.2261 C   0  0  0  0  0  0  0  0  0  0  0  0
    3.8473  -22.9190   20.6773 O   0  0  0  0  0  0  0  0  0  0  0  0
    2.4211  -18.9171   19.9315 C   0  0  0  0  0  0  0  0  0  0  0  0
    3.0282  -18.9791   21.2866 C   0  0  1  0  0  0  0  0  0  0  0  0
    2.0808  -18.5606   22.2175 O   0  0  0  0  0  0  0  0  0  0  0  0
    3.5974  -20.3235   21.6462 C   0  0  2  0  0  0  0  0  0  0  0  0
    2.5796  -21.3422   21.7581 N   0  0  0  0  0  0  0  0  0  0  0  0
    4.4833  -20.2769   22.8312 C   0  0  0  0  0  0  0  0  0  0  0  0
    3.9547  -20.4650   23.9569 O   0  0  0  0  0  0  0  0  0  0  0  0
    9.5324  -21.5642   25.4289 N   0  0  0  0  0  0  0  0  0  0  0  0
    8.1338  -21.2326   25.5419 C   0  0  0  0  0  0  0  0  0  0  0  0
    7.7438  -20.8766   26.6658 O   0  0  0  0  0  0  0  0  0  0  0  0
    7.2260  -21.3112   24.3972 C   0  0  0  0  0  0  0  0  0  0  0  0
    6.7241  -19.9950   23.9705 C   0  0  2  0  0  0  0  0  0  0  0  0
    5.8816  -20.0363   22.7900 N   0  0  0  0  0  0  0  0  0  0  0  0
    7.8364  -19.0615   23.7153 C   0  0  0  0  0  0  0  0  0  0  0  0
    8.3946  -18.3051   24.7843 O   0  0  0  0  0  0  0  0  0  0  0  0
    8.3838  -18.8358   22.6167 O   0  0  0  0  0  0  0  0  0  0  0  0
  1  2  1  0
  2  3  1  0
  3  5  1  0
  3  4  1  6
  5 11  1  0
  6  5  2  0
  8  9  1  0
  8  7  1  6
 10 11  1  1
 10 12  1  0
 10  8  1  0
 12 19  1  0
 12 13  2  0
 15 14  1  0
 15 16  2  0
 17 15  1  0
 18 17  1  6
 18 20  1  0
 19 18  1  0
 20 22  2  0
 20 21  1  0
M  END
$$$$
