STN.pdb
     RDKit          3D

 22 21  0  0  1  0  0  0  0  0999 V2000
   -6.2232  -23.7249   22.2173 O   0  0  0  0  0  0  0  0  0  0  0  0
   -6.2310  -24.7945   23.0950 C   0  0  0  0  0  0  0  0  0  0  0  0
   -4.8302  -25.0916   23.6221 C   0  0  2  0  0  0  0  0  0  0  0  0
   -4.0558  -25.5792   22.5166 N   0  0  0  0  0  0  0  0  0  0  0  0
   -4.8556  -26.0594   24.7226 C   0  0  0  0  0  0  0  0  0  0  0  0
   -4.7365  -27.2940   24.5311 O   0  0  0  0  0  0  0  0  0  0  0  0
   -2.4852  -26.9719   26.9629 C   0  0  0  0  0  0  0  0  0  0  0  0
   -3.5918  -26.5366   27.8544 C   0  0  1  0  0  0  0  0  0  0  0  0
   -3.2769  -25.2837   28.3743 O   0  0  0  0  0  0  0  0  0  0  0  0
   -4.9461  -26.5375   27.2014 C   0  0  2  0  0  0  0  0  0  0  0  0
   -5.0201  -25.6279   26.0819 N   0  0  0  0  0  0  0  0  0  0  0  0
   -6.0517  -26.3386   28.1654 C   0  0  0  0  0  0  0  0  0  0  0  0
   -6.5020  -25.1716   28.2971 O   0  0  0  0  0  0  0  0  0  0  0  0
   -9.9874  -29.9624   29.0488 N   0  0  0  0  0  0  0  0  0  0  0  0
   -9.4583  -28.6315   29.2152 C   0  0  0  0  0  0  0  0  0  0  0  0
   -9.8762  -27.7723   28.4219 O   0  0  0  0  0  0  0  0  0  0  0  0
   -8.4845  -28.3118   30.2592 C   0  0  0  0  0  0  0  0  0  0  0  0
   -7.6702  -27.1274   29.9422 C   0  0  2  0  0  0  0  0  0  0  0  0
   -6.6392  -27.3656   28.9496 N   0  0  0  0  0  0  0  0  0  0  0  0
   -7.0314  -26.5840   31.1548 C   0  0  0  0  0  0  0  0  0  0  0  0
   -7.8297  -26.1565   32.2532 O   0  0  0  0  0  0  0  0  0  0  0  0
   -5.8074  -26.4423   31.3536 O   0  0  0  0  0  0  0  0  0  0  0  0
  1  2  1  0
  2  3  1  0
  3  5  1  0
  3  4  1  6
  5 11  1  0
  6  5  2  0
  8  9  1  0
  8  7  1  6
 10 11  1  6
 10 12  1  0
 10  8  1  0
 12 19  1  0
 12 13  2  0
 15 14  1  0
 15 16  2  0
 17 15  1  0
 18 17  1  1
 18 20  1  0
 19 18  1  0
 20 22  2  0
 20 21  1  0
M  END
$$$$
