STN.pdb
     RDKit          3D

 22 21  0  0  1  0  0  0  0  0999 V2000
    9.3273  -19.2197   18.6515 O   0  0  0  0  0  0  0  0  0  0  0  0
    8.1367  -18.6840   18.1933 C   0  0  0  0  0  0  0  0  0  0  0  0
    8.3196  -17.2442   17.7222 C   0  0  2  0  0  0  0  0  0  0  0  0
    9.1727  -17.2807   16.5687 N   0  0  0  0  0  0  0  0  0  0  0  0
    8.8829  -16.3935   18.7745 C   0  0  0  0  0  0  0  0  0  0  0  0
   10.0843  -16.0308   18.7705 O   0  0  0  0  0  0  0  0  0  0  0  0
    7.3934  -13.0505   20.3055 C   0  0  0  0  0  0  0  0  0  0  0  0
    7.6780  -14.0431   21.3743 C   0  0  1  0  0  0  0  0  0  0  0  0
    6.4684  -14.5425   21.8505 O   0  0  0  0  0  0  0  0  0  0  0  0
    8.6048  -15.1508   20.9561 C   0  0  2  0  0  0  0  0  0  0  0  0
    8.0717  -15.9351   19.8667 N   0  0  0  0  0  0  0  0  0  0  0  0
    9.0509  -15.9895   22.0913 C   0  0  0  0  0  0  0  0  0  0  0  0
    8.6397  -17.1776   22.1299 O   0  0  0  0  0  0  0  0  0  0  0  0
   11.8866  -16.3654   27.4473 N   0  0  0  0  0  0  0  0  0  0  0  0
   11.8902  -16.7919   26.0700 C   0  0  0  0  0  0  0  0  0  0  0  0
   12.2600  -17.9583   25.8583 O   0  0  0  0  0  0  0  0  0  0  0  0
   11.4813  -15.9010   24.9839 C   0  0  0  0  0  0  0  0  0  0  0  0
   10.2994  -16.3887   24.2548 C   0  0  2  0  0  0  0  0  0  0  0  0
    9.9064  -15.5524   23.1362 N   0  0  0  0  0  0  0  0  0  0  0  0
    9.1423  -16.5319   25.1572 C   0  0  0  0  0  0  0  0  0  0  0  0
    9.0059  -17.6956   25.9658 O   0  0  0  0  0  0  0  0  0  0  0  0
    8.2116  -15.7150   25.3124 O   0  0  0  0  0  0  0  0  0  0  0  0
  1  2  1  0
  2  3  1  0
  3  5  1  0
  3  4  1  6
  5 11  1  0
  6  5  2  0
  8  9  1  0
  8  7  1  6
 10 11  1  6
 10 12  1  0
 10  8  1  0
 12 19  1  0
 12 13  2  0
 15 14  1  0
 15 16  2  0
 17 15  1  0
 18 17  1  1
 18 20  1  0
 19 18  1  0
 20 22  2  0
 20 21  1  0
M  END
$$$$
