STN.pdb
     RDKit          3D

 22 21  0  0  1  0  0  0  0  0999 V2000
   14.2307  -16.4639   19.5760 O   0  0  0  0  0  0  0  0  0  0  0  0
   13.1571  -15.5939   19.5067 C   0  0  0  0  0  0  0  0  0  0  0  0
   11.8416  -16.3469   19.3314 C   0  0  2  0  0  0  0  0  0  0  0  0
   11.3957  -16.1141   17.9873 N   0  0  0  0  0  0  0  0  0  0  0  0
   10.8350  -15.9206   20.3078 C   0  0  0  0  0  0  0  0  0  0  0  0
   10.1359  -14.8915   20.1426 O   0  0  0  0  0  0  0  0  0  0  0  0
    7.6570  -17.1570   21.1622 C   0  0  0  0  0  0  0  0  0  0  0  0
    8.4016  -17.1910   22.4480 C   0  0  1  0  0  0  0  0  0  0  0  0
    8.7361  -18.5125   22.7329 O   0  0  0  0  0  0  0  0  0  0  0  0
    9.6098  -16.2968   22.4846 C   0  0  2  0  0  0  0  0  0  0  0  0
   10.6054  -16.6734   21.5084 N   0  0  0  0  0  0  0  0  0  0  0  0
   10.1778  -16.1495   23.8437 C   0  0  0  0  0  0  0  0  0  0  0  0
   11.3036  -16.6670   24.0597 O   0  0  0  0  0  0  0  0  0  0  0  0
   10.0619  -13.1222   29.2315 N   0  0  0  0  0  0  0  0  0  0  0  0
   10.0771  -14.3366   28.4543 C   0  0  0  0  0  0  0  0  0  0  0  0
   10.6442  -15.3122   28.9726 O   0  0  0  0  0  0  0  0  0  0  0  0
    9.4593  -14.4146   27.1303 C   0  0  0  0  0  0  0  0  0  0  0  0
   10.0746  -15.4369   26.2685 C   0  0  2  0  0  0  0  0  0  0  0  0
    9.5467  -15.4689   24.9175 N   0  0  0  0  0  0  0  0  0  0  0  0
    9.9304  -16.7814   26.8560 C   0  0  0  0  0  0  0  0  0  0  0  0
   11.0500  -17.4230   27.4571 O   0  0  0  0  0  0  0  0  0  0  0  0
    8.8905  -17.4703   26.8962 O   0  0  0  0  0  0  0  0  0  0  0  0
  1  2  1  0
  2  3  1  0
  3  5  1  0
  3  4  1  6
  5 11  1  0
  6  5  2  0
  8  9  1  0
  8  7  1  6
 10 11  1  6
 10 12  1  0
 10  8  1  0
 12 19  1  0
 12 13  2  0
 15 14  1  0
 15 16  2  0
 17 15  1  0
 18 17  1  1
 18 20  1  0
 19 18  1  0
 20 22  2  0
 20 21  1  0
M  END
$$$$
