STN.pdb
     RDKit          3D

 22 21  0  0  1  0  0  0  0  0999 V2000
    9.4212  -17.7855   15.5000 O   0  0  0  0  0  0  0  0  0  0  0  0
    8.2244  -17.1298   15.2720 C   0  0  0  0  0  0  0  0  0  0  0  0
    8.4351  -15.6268   15.1135 C   0  0  2  0  0  0  0  0  0  0  0  0
    9.1021  -15.4221   13.8594 N   0  0  0  0  0  0  0  0  0  0  0  0
    9.2070  -15.0642   16.2253 C   0  0  0  0  0  0  0  0  0  0  0  0
   10.4070  -14.7190   16.0999 O   0  0  0  0  0  0  0  0  0  0  0  0
    7.5015  -12.5345   18.9542 C   0  0  0  0  0  0  0  0  0  0  0  0
    8.3701  -13.5689   19.5742 C   0  0  1  0  0  0  0  0  0  0  0  0
    7.5611  -14.4929   20.2308 O   0  0  0  0  0  0  0  0  0  0  0  0
    9.3082  -14.2435   18.6122 C   0  0  2  0  0  0  0  0  0  0  0  0
    8.6130  -14.8832   17.5197 N   0  0  0  0  0  0  0  0  0  0  0  0
   10.2665  -15.1517   19.2817 C   0  0  0  0  0  0  0  0  0  0  0  0
   10.1324  -16.3859   19.0793 O   0  0  0  0  0  0  0  0  0  0  0  0
   14.3188  -14.0121   18.7139 N   0  0  0  0  0  0  0  0  0  0  0  0
   14.1302  -15.2583   19.4142 C   0  0  0  0  0  0  0  0  0  0  0  0
   14.4283  -16.2890   18.7890 O   0  0  0  0  0  0  0  0  0  0  0  0
   13.6169  -15.3054   20.7835 C   0  0  0  0  0  0  0  0  0  0  0  0
   12.1876  -15.6506   20.8498 C   0  0  2  0  0  0  0  0  0  0  0  0
   11.3225  -14.7329   20.1326 N   0  0  0  0  0  0  0  0  0  0  0  0
   11.7259  -15.7283   22.2478 C   0  0  0  0  0  0  0  0  0  0  0  0
   12.3601  -16.6165   23.1619 O   0  0  0  0  0  0  0  0  0  0  0  0
   10.7948  -15.0765   22.7633 O   0  0  0  0  0  0  0  0  0  0  0  0
  1  2  1  0
  2  3  1  0
  3  5  1  0
  3  4  1  6
  5 11  1  0
  6  5  2  0
  8  9  1  0
  8  7  1  6
 10 11  1  6
 10 12  1  0
 10  8  1  0
 12 19  1  0
 12 13  2  0
 15 14  1  0
 15 16  2  0
 17 15  1  0
 18 17  1  1
 18 20  1  0
 19 18  1  0
 20 22  2  0
 20 21  1  0
M  END
$$$$
