STN.pdb
     RDKit          3D

 22 21  0  0  1  0  0  0  0  0999 V2000
    0.4966  -26.7442   29.7657 O   0  0  0  0  0  0  0  0  0  0  0  0
   -0.6149  -26.0081   29.3952 C   0  0  0  0  0  0  0  0  0  0  0  0
   -0.8812  -26.1190   27.8969 C   0  0  2  0  0  0  0  0  0  0  0  0
    0.2341  -25.5184   27.2224 N   0  0  0  0  0  0  0  0  0  0  0  0
   -2.1423  -25.4751   27.5180 C   0  0  0  0  0  0  0  0  0  0  0  0
   -2.2137  -24.2525   27.2440 O   0  0  0  0  0  0  0  0  0  0  0  0
   -4.7870  -26.9777   24.8898 C   0  0  0  0  0  0  0  0  0  0  0  0
   -5.4270  -26.5919   26.1743 C   0  0  1  0  0  0  0  0  0  0  0  0
   -5.7437  -27.7508   26.8787 O   0  0  0  0  0  0  0  0  0  0  0  0
   -4.6109  -25.6451   27.0099 C   0  0  2  0  0  0  0  0  0  0  0  0
   -3.3627  -26.2276   27.4446 N   0  0  0  0  0  0  0  0  0  0  0  0
   -5.3790  -25.0541   28.1289 C   0  0  0  0  0  0  0  0  0  0  0  0
   -5.3322  -25.6444   29.2386 O   0  0  0  0  0  0  0  0  0  0  0  0
   -8.1205  -22.1115   31.3808 N   0  0  0  0  0  0  0  0  0  0  0  0
   -7.6754  -21.2791   30.2909 C   0  0  0  0  0  0  0  0  0  0  0  0
   -7.9248  -20.0666   30.3898 O   0  0  0  0  0  0  0  0  0  0  0  0
   -6.9699  -21.8318   29.1345 C   0  0  0  0  0  0  0  0  0  0  0  0
   -6.8790  -23.3006   29.1650 C   0  0  2  0  0  0  0  0  0  0  0  0
   -6.1619  -23.8734   28.0414 N   0  0  0  0  0  0  0  0  0  0  0  0
   -8.2189  -23.9130   29.2223 C   0  0  0  0  0  0  0  0  0  0  0  0
   -8.6688  -24.7492   28.1617 O   0  0  0  0  0  0  0  0  0  0  0  0
   -9.0595  -23.7845   30.1358 O   0  0  0  0  0  0  0  0  0  0  0  0
  1  2  1  0
  2  3  1  0
  3  5  1  0
  3  4  1  6
  5 11  1  0
  6  5  2  0
  8  9  1  0
  8  7  1  6
 10 11  1  1
 10 12  1  0
 10  8  1  0
 12 19  1  0
 12 13  2  0
 15 14  1  0
 15 16  2  0
 17 15  1  0
 18 17  1  6
 18 20  1  0
 19 18  1  0
 20 22  2  0
 20 21  1  0
M  END
$$$$
