STN.pdb
     RDKit          3D

 22 21  0  0  1  0  0  0  0  0999 V2000
    8.3501  -18.5213   15.2636 O   0  0  0  0  0  0  0  0  0  0  0  0
    9.2540  -17.6365   15.8243 C   0  0  0  0  0  0  0  0  0  0  0  0
    8.6834  -16.2227   15.8856 C   0  0  2  0  0  0  0  0  0  0  0  0
    9.0254  -15.5736   14.6522 N   0  0  0  0  0  0  0  0  0  0  0  0
    9.1952  -15.4776   17.0393 C   0  0  0  0  0  0  0  0  0  0  0  0
   10.3150  -14.9111   17.0271 O   0  0  0  0  0  0  0  0  0  0  0  0
    7.1282  -12.9172   19.2903 C   0  0  0  0  0  0  0  0  0  0  0  0
    7.8296  -13.9197   20.1339 C   0  0  1  0  0  0  0  0  0  0  0  0
    6.8818  -14.7806   20.6815 O   0  0  0  0  0  0  0  0  0  0  0  0
    8.9137  -14.6771   19.4186 C   0  0  2  0  0  0  0  0  0  0  0  0
    8.4256  -15.3647   18.2460 N   0  0  0  0  0  0  0  0  0  0  0  0
    9.6844  -15.5671   20.3161 C   0  0  0  0  0  0  0  0  0  0  0  0
    9.6624  -16.7998   20.0673 O   0  0  0  0  0  0  0  0  0  0  0  0
   14.0846  -16.3150   24.3736 N   0  0  0  0  0  0  0  0  0  0  0  0
   13.2933  -16.7602   23.2534 C   0  0  0  0  0  0  0  0  0  0  0  0
   13.2303  -17.9882   23.0804 O   0  0  0  0  0  0  0  0  0  0  0  0
   12.6041  -15.8183   22.3712 C   0  0  0  0  0  0  0  0  0  0  0  0
   11.1489  -16.0340   22.3249 C   0  0  2  0  0  0  0  0  0  0  0  0
   10.4442  -15.1322   21.4333 N   0  0  0  0  0  0  0  0  0  0  0  0
   10.5535  -15.9186   23.6688 C   0  0  0  0  0  0  0  0  0  0  0  0
    9.4864  -15.0056   23.9020 O   0  0  0  0  0  0  0  0  0  0  0  0
   10.8848  -16.5566   24.6889 O   0  0  0  0  0  0  0  0  0  0  0  0
  1  2  1  0
  2  3  1  0
  3  5  1  0
  3  4  1  6
  5 11  1  0
  6  5  2  0
  8  9  1  0
  8  7  1  6
 10 11  1  6
 10 12  1  0
 10  8  1  0
 12 19  1  0
 12 13  2  0
 15 14  1  0
 15 16  2  0
 17 15  1  0
 18 17  1  1
 18 20  1  0
 19 18  1  0
 20 22  2  0
 20 21  1  0
M  END
$$$$
