STN.pdb
     RDKit          3D

 22 21  0  0  1  0  0  0  0  0999 V2000
   10.5140  -17.7138   16.1110 O   0  0  0  0  0  0  0  0  0  0  0  0
    9.3381  -17.2416   15.5554 C   0  0  0  0  0  0  0  0  0  0  0  0
    9.3418  -15.7189   15.4570 C   0  0  2  0  0  0  0  0  0  0  0  0
   10.1254  -15.3702   14.3063 N   0  0  0  0  0  0  0  0  0  0  0  0
    9.8734  -15.0952   16.6722 C   0  0  0  0  0  0  0  0  0  0  0  0
   11.0598  -14.6944   16.7549 O   0  0  0  0  0  0  0  0  0  0  0  0
    7.6168  -12.6795   19.1304 C   0  0  0  0  0  0  0  0  0  0  0  0
    8.4273  -13.6882   19.8614 C   0  0  1  0  0  0  0  0  0  0  0  0
    7.5712  -14.6608   20.3719 O   0  0  0  0  0  0  0  0  0  0  0  0
    9.5321  -14.3001   19.0455 C   0  0  2  0  0  0  0  0  0  0  0  0
    9.0469  -14.9155   17.8322 N   0  0  0  0  0  0  0  0  0  0  0  0
   10.3965  -15.2077   19.8332 C   0  0  0  0  0  0  0  0  0  0  0  0
   10.2829  -16.4426   19.6229 O   0  0  0  0  0  0  0  0  0  0  0  0
   14.7813  -13.9769   19.9797 N   0  0  0  0  0  0  0  0  0  0  0  0
   14.2035  -15.2213   20.4234 C   0  0  0  0  0  0  0  0  0  0  0  0
   14.2963  -16.1793   19.6387 O   0  0  0  0  0  0  0  0  0  0  0  0
   13.5456  -15.3477   21.7240 C   0  0  0  0  0  0  0  0  0  0  0  0
   12.1217  -15.7041   21.6153 C   0  0  2  0  0  0  0  0  0  0  0  0
   11.3414  -14.7874   20.8054 N   0  0  0  0  0  0  0  0  0  0  0  0
   11.4957  -15.7961   22.9470 C   0  0  0  0  0  0  0  0  0  0  0  0
   10.3427  -15.0182   23.2504 O   0  0  0  0  0  0  0  0  0  0  0  0
   11.8694  -16.5111   23.8992 O   0  0  0  0  0  0  0  0  0  0  0  0
  1  2  1  0
  2  3  1  0
  3  5  1  0
  3  4  1  6
  5 11  1  0
  6  5  2  0
  8  9  1  0
  8  7  1  6
 10 11  1  6
 10 12  1  0
 10  8  1  0
 12 19  1  0
 12 13  2  0
 15 14  1  0
 15 16  2  0
 17 15  1  0
 18 17  1  1
 18 20  1  0
 19 18  1  0
 20 22  2  0
 20 21  1  0
M  END
$$$$
