STN.pdb
     RDKit          3D

 22 21  0  0  1  0  0  0  0  0999 V2000
   10.1373  -17.7473   15.4028 O   0  0  0  0  0  0  0  0  0  0  0  0
    8.8333  -17.3455   15.1738 C   0  0  0  0  0  0  0  0  0  0  0  0
    8.7580  -15.8544   14.8586 C   0  0  2  0  0  0  0  0  0  0  0  0
    9.4356  -15.6502   13.6100 N   0  0  0  0  0  0  0  0  0  0  0  0
    9.3497  -15.0411   15.9248 C   0  0  0  0  0  0  0  0  0  0  0  0
   10.5402  -14.6463   15.8832 O   0  0  0  0  0  0  0  0  0  0  0  0
    7.1575  -14.1765   19.7128 C   0  0  0  0  0  0  0  0  0  0  0  0
    8.1424  -13.2798   19.0535 C   0  0  1  0  0  0  0  0  0  0  0  0
    8.7439  -12.4875   20.0281 O   0  0  0  0  0  0  0  0  0  0  0  0
    9.1659  -13.9968   18.2175 C   0  0  2  0  0  0  0  0  0  0  0  0
    8.5805  -14.6587   17.0750 N   0  0  0  0  0  0  0  0  0  0  0  0
   10.0305  -14.8985   19.0116 C   0  0  0  0  0  0  0  0  0  0  0  0
    9.8057  -16.1336   18.9329 O   0  0  0  0  0  0  0  0  0  0  0  0
   14.2356  -13.5776   18.8594 N   0  0  0  0  0  0  0  0  0  0  0  0
   13.9787  -14.8598   19.4669 C   0  0  0  0  0  0  0  0  0  0  0  0
   14.3560  -15.8549   18.8270 O   0  0  0  0  0  0  0  0  0  0  0  0
   13.3115  -14.9811   20.7632 C   0  0  0  0  0  0  0  0  0  0  0  0
   11.8991  -15.3787   20.6476 C   0  0  2  0  0  0  0  0  0  0  0  0
   11.0916  -14.4726   19.8527 N   0  0  0  0  0  0  0  0  0  0  0  0
   11.2760  -15.5121   21.9771 C   0  0  0  0  0  0  0  0  0  0  0  0
   11.8175  -16.4175   22.9329 O   0  0  0  0  0  0  0  0  0  0  0  0
   10.2749  -14.8965   22.3969 O   0  0  0  0  0  0  0  0  0  0  0  0
  1  2  1  0
  2  3  1  0
  3  5  1  0
  3  4  1  6
  5 11  1  0
  6  5  2  0
  8  9  1  0
  8  7  1  1
 10 11  1  6
 10 12  1  0
 10  8  1  0
 12 19  1  0
 12 13  2  0
 15 14  1  0
 15 16  2  0
 17 15  1  0
 18 17  1  1
 18 20  1  0
 19 18  1  0
 20 22  2  0
 20 21  1  0
M  END
$$$$
