STN.pdb
     RDKit          3D

 22 21  0  0  1  0  0  0  0  0999 V2000
    9.7758  -11.3180   17.6677 O   0  0  0  0  0  0  0  0  0  0  0  0
    9.3261  -12.0483   18.7533 C   0  0  0  0  0  0  0  0  0  0  0  0
    8.9186  -13.4605   18.3433 C   0  0  2  0  0  0  0  0  0  0  0  0
    7.6810  -13.3529   17.6249 N   0  0  0  0  0  0  0  0  0  0  0  0
    8.7863  -14.3480   19.5022 C   0  0  0  0  0  0  0  0  0  0  0  0
    7.7713  -14.3385   20.2402 O   0  0  0  0  0  0  0  0  0  0  0  0
    8.2197  -17.8033   19.6965 C   0  0  0  0  0  0  0  0  0  0  0  0
    9.4738  -17.6190   20.4723 C   0  0  1  0  0  0  0  0  0  0  0  0
   10.5409  -18.0872   19.7097 O   0  0  0  0  0  0  0  0  0  0  0  0
    9.7078  -16.2093   20.9401 C   0  0  2  0  0  0  0  0  0  0  0  0
    9.8268  -15.2762   19.8441 N   0  0  0  0  0  0  0  0  0  0  0  0
   10.8284  -16.0987   21.9010 C   0  0  0  0  0  0  0  0  0  0  0  0
   11.9253  -15.6656   21.4637 O   0  0  0  0  0  0  0  0  0  0  0  0
    9.2613  -17.4858   26.0151 N   0  0  0  0  0  0  0  0  0  0  0  0
   10.6978  -17.5938   25.9534 C   0  0  0  0  0  0  0  0  0  0  0  0
   11.1755  -18.7089   26.2188 O   0  0  0  0  0  0  0  0  0  0  0  0
   11.5440  -16.4544   25.5983 C   0  0  0  0  0  0  0  0  0  0  0  0
   11.8981  -16.4248   24.1699 C   0  0  2  0  0  0  0  0  0  0  0  0
   10.7557  -16.4445   23.2757 N   0  0  0  0  0  0  0  0  0  0  0  0
   12.7819  -17.5517   23.8200 C   0  0  0  0  0  0  0  0  0  0  0  0
   14.1269  -17.5770   24.2858 O   0  0  0  0  0  0  0  0  0  0  0  0
   12.4844  -18.5457   23.1263 O   0  0  0  0  0  0  0  0  0  0  0  0
  1  2  1  0
  2  3  1  0
  3  5  1  0
  3  4  1  1
  5 11  1  0
  6  5  2  0
  8  9  1  0
  8  7  1  6
 10 11  1  6
 10 12  1  0
 10  8  1  0
 12 19  1  0
 12 13  2  0
 15 14  1  0
 15 16  2  0
 17 15  1  0
 18 17  1  1
 18 20  1  0
 19 18  1  0
 20 22  2  0
 20 21  1  0
M  END
$$$$
