STN.pdb
     RDKit          3D

 22 21  0  0  1  0  0  0  0  0999 V2000
    8.1175  -19.3080   18.1858 O   0  0  0  0  0  0  0  0  0  0  0  0
    7.4054  -18.3535   17.4814 C   0  0  0  0  0  0  0  0  0  0  0  0
    8.3086  -17.2127   17.0218 C   0  0  2  0  0  0  0  0  0  0  0  0
    9.3571  -17.7936   16.2327 N   0  0  0  0  0  0  0  0  0  0  0  0
    8.8509  -16.4565   18.1542 C   0  0  0  0  0  0  0  0  0  0  0  0
   10.0355  -16.5940   18.5451 O   0  0  0  0  0  0  0  0  0  0  0  0
    6.3526  -13.9048   20.8407 C   0  0  0  0  0  0  0  0  0  0  0  0
    7.6612  -13.5233   20.2485 C   0  0  1  0  0  0  0  0  0  0  0  0
    8.2852  -12.6134   21.0983 O   0  0  0  0  0  0  0  0  0  0  0  0
    8.5586  -14.6881   19.9342 C   0  0  2  0  0  0  0  0  0  0  0  0
    8.0375  -15.5157   18.8714 N   0  0  0  0  0  0  0  0  0  0  0  0
    8.9264  -15.4734   21.1339 C   0  0  0  0  0  0  0  0  0  0  0  0
    8.2808  -16.5302   21.3542 O   0  0  0  0  0  0  0  0  0  0  0  0
   12.1092  -17.4375   21.7346 N   0  0  0  0  0  0  0  0  0  0  0  0
   12.5989  -16.5735   22.7799 C   0  0  0  0  0  0  0  0  0  0  0  0
   13.8324  -16.5180   22.9122 O   0  0  0  0  0  0  0  0  0  0  0  0
   11.6939  -15.8061   23.6357 C   0  0  0  0  0  0  0  0  0  0  0  0
   10.2852  -15.9107   23.2221 C   0  0  2  0  0  0  0  0  0  0  0  0
    9.9514  -15.1223   22.0508 N   0  0  0  0  0  0  0  0  0  0  0  0
    9.3809  -15.5197   24.3189 C   0  0  0  0  0  0  0  0  0  0  0  0
    9.3370  -16.2868   25.5173 O   0  0  0  0  0  0  0  0  0  0  0  0
    8.6024  -14.5443   24.3322 O   0  0  0  0  0  0  0  0  0  0  0  0
  1  2  1  0
  2  3  1  0
  3  5  1  0
  3  4  1  1
  5 11  1  0
  6  5  2  0
  8  9  1  0
  8  7  1  1
 10 11  1  6
 10 12  1  0
 10  8  1  0
 12 19  1  0
 12 13  2  0
 15 14  1  0
 15 16  2  0
 17 15  1  0
 18 17  1  1
 18 20  1  0
 19 18  1  0
 20 22  2  0
 20 21  1  0
M  END
$$$$
