PWR.pdb
     RDKit          3D

 33 35  0  0  1  0  0  0  0  0999 V2000
   31.8156  -21.4702  -11.5582 N   0  0  0  0  0  0  0  0  0  0  0  0
   33.1043  -21.2838  -10.9145 C   0  0  0  0  0  0  0  0  0  0  0  0
   32.9884  -22.0785   -9.6046 C   0  0  0  0  0  0  0  0  0  0  0  0
   32.2711  -23.3084  -10.1177 C   0  0  0  0  0  0  0  0  0  0  0  0
   31.2744  -22.7043  -11.0780 C   0  0  1  0  0  0  0  0  0  0  0  0
   30.0247  -22.4243  -10.2815 C   0  0  0  0  0  0  0  0  0  0  0  0
   29.4234  -23.3790   -9.7238 O   0  0  0  0  0  0  0  0  0  0  0  0
   29.5547  -21.0941  -10.1784 N   0  0  0  0  0  0  0  0  0  0  0  0
   28.3753  -20.7222   -9.4332 C   0  0  1  0  0  0  0  0  0  0  0  0
   28.6576  -19.6164   -8.4890 C   0  0  0  0  0  0  0  0  0  0  0  0
   27.7693  -19.7760   -7.2959 C   0  0  0  0  0  0  0  0  0  0  0  0
   26.4327  -20.0997   -7.2637 C   0  0  0  0  0  0  0  0  0  0  0  0
   25.9766  -20.1513   -5.9979 N   0  0  0  0  0  0  0  0  0  0  0  0
   27.0135  -19.8610   -5.1864 C   0  0  0  0  0  0  0  0  0  0  0  0
   27.1346  -19.7672   -3.8212 C   0  0  0  0  0  0  0  0  0  0  0  0
   28.3386  -19.4462   -3.2316 C   0  0  0  0  0  0  0  0  0  0  0  0
   29.4394  -19.2155   -4.0223 C   0  0  0  0  0  0  0  0  0  0  0  0
   29.3343  -19.3055   -5.3876 C   0  0  0  0  0  0  0  0  0  0  0  0
   28.1286  -19.6259   -5.9592 C   0  0  0  0  0  0  0  0  0  0  0  0
   27.1855  -20.4939  -10.2983 C   0  0  0  0  0  0  0  0  0  0  0  0
   27.0525  -19.3816  -10.8393 O   0  0  0  0  0  0  0  0  0  0  0  0
   23.0830  -24.5156  -16.0159 N   0  0  0  0  0  0  0  0  0  0  0  0
   23.2331  -23.1451  -16.4953 C   0  0  0  0  0  0  0  0  0  0  0  0
   22.5094  -22.7769  -17.4415 N   0  0  0  0  0  0  0  0  0  0  0  0
   24.1832  -22.3010  -15.8763 N   0  0  0  0  0  0  0  0  0  0  0  0
   24.8676  -22.5202  -14.6473 C   0  0  0  0  0  0  0  0  0  0  0  0
   24.0673  -22.6939  -13.4141 C   0  0  0  0  0  0  0  0  0  0  0  0
   24.9522  -22.7475  -12.1753 C   0  0  0  0  0  0  0  0  0  0  0  0
   25.2278  -21.4040  -11.5989 C   0  0  2  0  0  0  0  0  0  0  0  0
   26.2169  -21.4981  -10.5158 N   0  0  0  0  0  0  0  0  0  0  0  0
   24.0343  -20.6701  -11.1300 C   0  0  0  0  0  0  0  0  0  0  0  0
   23.3559  -19.8293  -12.0331 O   0  0  0  0  0  0  0  0  0  0  0  0
   23.5606  -20.7272   -9.9825 O   0  0  0  0  0  0  0  0  0  0  0  0
  1  2  1  0
  3  2  1  0
  4  5  1  0
  4  3  1  0
  5  1  1  0
  5  6  1  1
  6  7  2  0
  8  6  1  0
  9  8  1  0
  9 10  1  6
 11 10  1  0
 12 11  2  0
 13 14  1  0
 13 12  1  0
 14 19  2  0
 15 16  2  0
 15 14  1  0
 16 17  1  0
 17 18  2  0
 19 18  1  0
 19 11  1  0
 20  9  1  0
 20 21  2  0
 22 23  1  0
 23 25  1  0
 24 23  2  0
 25 26  1  0
 26 27  1  0
 28 27  1  0
 29 30  1  0
 29 28  1  1
 30 20  1  0
 31 29  1  0
 32 31  1  0
 33 31  2  0
M  END
$$$$
