PWR.pdb
     RDKit          3D

 33 35  0  0  1  0  0  0  0  0999 V2000
   27.7294  -19.7397  -16.6439 N   0  0  0  0  0  0  0  0  0  0  0  0
   29.1813  -19.7132  -16.6816 C   0  0  0  0  0  0  0  0  0  0  0  0
   29.5972  -21.0689  -16.0902 C   0  0  0  0  0  0  0  0  0  0  0  0
   28.5739  -21.9611  -16.7588 C   0  0  0  0  0  0  0  0  0  0  0  0
   27.3276  -21.1122  -16.6794 C   0  0  1  0  0  0  0  0  0  0  0  0
   26.6476  -21.4664  -15.3806 C   0  0  0  0  0  0  0  0  0  0  0  0
   26.2127  -22.6354  -15.2124 O   0  0  0  0  0  0  0  0  0  0  0  0
   26.5129  -20.4767  -14.3789 N   0  0  0  0  0  0  0  0  0  0  0  0
   25.8980  -20.7215  -13.0958 C   0  0  1  0  0  0  0  0  0  0  0  0
   26.6707  -20.0974  -11.9971 C   0  0  0  0  0  0  0  0  0  0  0  0
   26.2012  -20.6780  -10.7007 C   0  0  0  0  0  0  0  0  0  0  0  0
   25.5098  -21.8484  -10.4899 C   0  0  0  0  0  0  0  0  0  0  0  0
   25.2637  -22.0370   -9.1796 N   0  0  0  0  0  0  0  0  0  0  0  0
   25.7933  -20.9885   -8.5177 C   0  0  0  0  0  0  0  0  0  0  0  0
   25.8446  -20.6524   -7.1867 C   0  0  0  0  0  0  0  0  0  0  0  0
   26.4621  -19.4939   -6.7660 C   0  0  0  0  0  0  0  0  0  0  0  0
   27.0377  -18.6584   -7.6938 C   0  0  0  0  0  0  0  0  0  0  0  0
   26.9948  -18.9804   -9.0271 C   0  0  0  0  0  0  0  0  0  0  0  0
   26.3762  -20.1374   -9.4297 C   0  0  0  0  0  0  0  0  0  0  0  0
   24.4442  -20.4021  -13.0743 C   0  0  0  0  0  0  0  0  0  0  0  0
   24.0907  -19.2380  -13.3347 O   0  0  0  0  0  0  0  0  0  0  0  0
   16.7145  -24.2490  -13.5821 N   0  0  0  0  0  0  0  0  0  0  0  0
   18.0567  -24.8159  -13.6688 C   0  0  0  0  0  0  0  0  0  0  0  0
   18.2518  -25.7256  -14.4989 N   0  0  0  0  0  0  0  0  0  0  0  0
   19.0690  -24.3184  -12.8167 N   0  0  0  0  0  0  0  0  0  0  0  0
   18.9870  -23.2089  -11.9284 C   0  0  0  0  0  0  0  0  0  0  0  0
   19.7488  -21.9829  -12.2568 C   0  0  0  0  0  0  0  0  0  0  0  0
   21.2465  -22.2542  -12.3193 C   0  0  0  0  0  0  0  0  0  0  0  0
   22.0437  -21.0424  -12.6498 C   0  0  2  0  0  0  0  0  0  0  0  0
   23.4699  -21.3773  -12.7687 N   0  0  0  0  0  0  0  0  0  0  0  0
   21.8676  -19.9077  -11.7202 C   0  0  0  0  0  0  0  0  0  0  0  0
   20.8499  -18.9695  -11.9788 O   0  0  0  0  0  0  0  0  0  0  0  0
   22.5519  -19.6985  -10.7041 O   0  0  0  0  0  0  0  0  0  0  0  0
  1  2  1  0
  3  2  1  0
  4  5  1  0
  4  3  1  0
  5  1  1  0
  5  6  1  1
  6  7  2  0
  8  6  1  0
  9  8  1  0
  9 10  1  1
 11 10  1  0
 12 11  2  0
 13 14  1  0
 13 12  1  0
 14 19  2  0
 15 16  2  0
 15 14  1  0
 16 17  1  0
 17 18  2  0
 19 18  1  0
 19 11  1  0
 20  9  1  0
 20 21  2  0
 22 23  1  0
 23 25  1  0
 24 23  2  0
 25 26  1  0
 26 27  1  0
 28 27  1  0
 29 30  1  0
 29 28  1  1
 30 20  1  0
 31 29  1  0
 32 31  1  0
 33 31  2  0
M  END
$$$$
