PWR.pdb
     RDKit          3D

 33 35  0  0  1  0  0  0  0  0999 V2000
   27.1886  -18.8513  -13.2635 N   0  0  0  0  0  0  0  0  0  0  0  0
   28.4616  -18.1628  -13.1398 C   0  0  0  0  0  0  0  0  0  0  0  0
   29.4786  -19.2916  -12.9115 C   0  0  0  0  0  0  0  0  0  0  0  0
   28.9581  -20.3059  -13.9069 C   0  0  0  0  0  0  0  0  0  0  0  0
   27.4647  -20.1772  -13.7241 C   0  0  1  0  0  0  0  0  0  0  0  0
   27.0750  -21.1675  -12.6554 C   0  0  0  0  0  0  0  0  0  0  0  0
   27.3548  -22.3845  -12.8124 O   0  0  0  0  0  0  0  0  0  0  0  0
   26.4030  -20.7072  -11.4989 N   0  0  0  0  0  0  0  0  0  0  0  0
   25.4533  -21.5050  -10.7598 C   0  0  1  0  0  0  0  0  0  0  0  0
   25.9803  -21.8771   -9.4265 C   0  0  0  0  0  0  0  0  0  0  0  0
   26.3135  -20.6221   -8.6835 C   0  0  0  0  0  0  0  0  0  0  0  0
   25.9275  -19.3329   -8.9687 C   0  0  0  0  0  0  0  0  0  0  0  0
   26.4268  -18.4665   -8.0670 N   0  0  0  0  0  0  0  0  0  0  0  0
   27.1468  -19.1824   -7.1798 C   0  0  0  0  0  0  0  0  0  0  0  0
   27.8701  -18.8342   -6.0650 C   0  0  0  0  0  0  0  0  0  0  0  0
   28.5292  -19.7852   -5.3157 C   0  0  0  0  0  0  0  0  0  0  0  0
   28.4628  -21.1068   -5.6892 C   0  0  0  0  0  0  0  0  0  0  0  0
   27.7443  -21.4703   -6.8004 C   0  0  0  0  0  0  0  0  0  0  0  0
   27.0937  -20.5114   -7.5358 C   0  0  0  0  0  0  0  0  0  0  0  0
   24.0890  -20.9101  -10.7297 C   0  0  0  0  0  0  0  0  0  0  0  0
   23.9765  -19.6806  -10.8829 O   0  0  0  0  0  0  0  0  0  0  0  0
   16.5725  -23.2848   -7.3411 N   0  0  0  0  0  0  0  0  0  0  0  0
   17.7757  -24.1112   -7.3543 C   0  0  0  0  0  0  0  0  0  0  0  0
   17.9292  -24.9306   -6.4272 N   0  0  0  0  0  0  0  0  0  0  0  0
   18.7085  -23.9497   -8.4041 N   0  0  0  0  0  0  0  0  0  0  0  0
   18.6550  -23.0136   -9.4754 C   0  0  0  0  0  0  0  0  0  0  0  0
   19.7776  -22.0626   -9.6395 C   0  0  0  0  0  0  0  0  0  0  0  0
   20.6300  -22.4068  -10.8542 C   0  0  0  0  0  0  0  0  0  0  0  0
   21.6486  -21.3674  -11.1632 C   0  0  2  0  0  0  0  0  0  0  0  0
   22.9346  -21.6993  -10.5336 N   0  0  0  0  0  0  0  0  0  0  0  0
   21.2565  -19.9868  -10.8128 C   0  0  0  0  0  0  0  0  0  0  0  0
   20.5716  -19.2119  -11.7684 O   0  0  0  0  0  0  0  0  0  0  0  0
   21.4805  -19.4306   -9.7242 O   0  0  0  0  0  0  0  0  0  0  0  0
  1  2  1  0
  3  2  1  0
  4  5  1  0
  4  3  1  0
  5  1  1  0
  5  6  1  1
  6  7  2  0
  8  6  1  0
  9  8  1  0
  9 10  1  1
 11 10  1  0
 12 11  2  0
 13 14  1  0
 13 12  1  0
 14 19  2  0
 15 16  2  0
 15 14  1  0
 16 17  1  0
 17 18  2  0
 19 18  1  0
 19 11  1  0
 20  9  1  0
 20 21  2  0
 22 23  1  0
 23 25  1  0
 24 23  2  0
 25 26  1  0
 26 27  1  0
 28 27  1  0
 29 30  1  0
 29 28  1  1
 30 20  1  0
 31 29  1  0
 32 31  1  0
 33 31  2  0
M  END
$$$$
