PWR.pdb
     RDKit          3D

 33 35  0  0  1  0  0  0  0  0999 V2000
   27.7584  -19.2296  -14.4270 N   0  0  0  0  0  0  0  0  0  0  0  0
   29.2067  -19.1257  -14.4693 C   0  0  0  0  0  0  0  0  0  0  0  0
   29.6954  -20.5324  -14.0912 C   0  0  0  0  0  0  0  0  0  0  0  0
   28.7074  -21.3639  -14.8804 C   0  0  0  0  0  0  0  0  0  0  0  0
   27.4228  -20.5995  -14.6664 C   0  0  1  0  0  0  0  0  0  0  0  0
   26.7783  -21.1780  -13.4316 C   0  0  0  0  0  0  0  0  0  0  0  0
   26.3829  -22.3727  -13.4460 O   0  0  0  0  0  0  0  0  0  0  0  0
   26.6316  -20.3650  -12.2834 N   0  0  0  0  0  0  0  0  0  0  0  0
   25.6830  -20.6390  -11.2300 C   0  0  1  0  0  0  0  0  0  0  0  0
   26.0899  -20.0029   -9.9558 C   0  0  0  0  0  0  0  0  0  0  0  0
   27.3910  -20.6018   -9.5237 C   0  0  0  0  0  0  0  0  0  0  0  0
   28.2643  -21.3687  -10.2597 C   0  0  0  0  0  0  0  0  0  0  0  0
   29.3345  -21.7254   -9.5245 N   0  0  0  0  0  0  0  0  0  0  0  0
   29.1717  -21.1938   -8.2962 C   0  0  0  0  0  0  0  0  0  0  0  0
   29.9343  -21.2282   -7.1540 C   0  0  0  0  0  0  0  0  0  0  0  0
   29.5282  -20.5845   -6.0046 C   0  0  0  0  0  0  0  0  0  0  0  0
   28.3387  -19.8950   -5.9992 C   0  0  0  0  0  0  0  0  0  0  0  0
   27.5659  -19.8514   -7.1323 C   0  0  0  0  0  0  0  0  0  0  0  0
   27.9842  -20.4975   -8.2685 C   0  0  0  0  0  0  0  0  0  0  0  0
   24.2749  -20.3615  -11.6254 C   0  0  0  0  0  0  0  0  0  0  0  0
   23.9906  -19.2238  -12.0409 O   0  0  0  0  0  0  0  0  0  0  0  0
   16.7753  -23.0541  -15.3293 N   0  0  0  0  0  0  0  0  0  0  0  0
   17.8898  -22.6576  -16.1846 C   0  0  0  0  0  0  0  0  0  0  0  0
   17.6295  -22.2933  -17.3483 N   0  0  0  0  0  0  0  0  0  0  0  0
   19.2040  -22.7041  -15.6660 N   0  0  0  0  0  0  0  0  0  0  0  0
   19.6023  -23.0421  -14.3416 C   0  0  0  0  0  0  0  0  0  0  0  0
   20.0208  -21.9533  -13.4301 C   0  0  0  0  0  0  0  0  0  0  0  0
   21.4573  -22.1392  -12.9584 C   0  0  0  0  0  0  0  0  0  0  0  0
   21.8916  -21.0951  -11.9916 C   0  0  2  0  0  0  0  0  0  0  0  0
   23.2675  -21.3473  -11.5404 N   0  0  0  0  0  0  0  0  0  0  0  0
   21.0025  -20.9174  -10.8251 C   0  0  0  0  0  0  0  0  0  0  0  0
   19.7096  -20.3983  -11.0293 O   0  0  0  0  0  0  0  0  0  0  0  0
   21.2970  -21.1907   -9.6491 O   0  0  0  0  0  0  0  0  0  0  0  0
  1  2  1  0
  3  2  1  0
  4  5  1  0
  4  3  1  0
  5  1  1  0
  5  6  1  1
  6  7  2  0
  8  6  1  0
  9  8  1  0
  9 10  1  1
 11 10  1  0
 12 11  2  0
 13 14  1  0
 13 12  1  0
 14 19  2  0
 15 16  2  0
 15 14  1  0
 16 17  1  0
 17 18  2  0
 19 18  1  0
 19 11  1  0
 20  9  1  0
 20 21  2  0
 22 23  1  0
 23 25  1  0
 24 23  2  0
 25 26  1  0
 26 27  1  0
 28 27  1  0
 29 30  1  0
 29 28  1  1
 30 20  1  0
 31 29  1  0
 32 31  1  0
 33 31  2  0
M  END
$$$$
