PWR.pdb
     RDKit          3D

 33 35  0  0  1  0  0  0  0  0999 V2000
   27.7790  -19.1220  -14.7343 N   0  0  0  0  0  0  0  0  0  0  0  0
   29.1709  -18.7413  -14.9006 C   0  0  0  0  0  0  0  0  0  0  0  0
   29.9569  -19.9472  -14.3633 C   0  0  0  0  0  0  0  0  0  0  0  0
   29.1280  -21.0703  -14.9482 C   0  0  0  0  0  0  0  0  0  0  0  0
   27.7239  -20.5514  -14.7490 C   0  0  1  0  0  0  0  0  0  0  0  0
   27.2694  -21.0468  -13.3989 C   0  0  0  0  0  0  0  0  0  0  0  0
   26.9384  -22.2537  -13.2656 O   0  0  0  0  0  0  0  0  0  0  0  0
   27.2248  -20.1440  -12.3109 N   0  0  0  0  0  0  0  0  0  0  0  0
   26.7461  -20.5039  -10.9971 C   0  0  1  0  0  0  0  0  0  0  0  0
   27.5731  -19.8903   -9.9326 C   0  0  0  0  0  0  0  0  0  0  0  0
   26.9675  -20.2325   -8.6081 C   0  0  0  0  0  0  0  0  0  0  0  0
   25.7586  -20.8371   -8.3526 C   0  0  0  0  0  0  0  0  0  0  0  0
   25.5580  -20.9802   -7.0288 N   0  0  0  0  0  0  0  0  0  0  0  0
   26.6373  -20.4690   -6.4028 C   0  0  0  0  0  0  0  0  0  0  0  0
   26.9779  -20.3450   -5.0777 C   0  0  0  0  0  0  0  0  0  0  0  0
   28.1714  -19.7689   -4.6982 C   0  0  0  0  0  0  0  0  0  0  0  0
   29.0379  -19.3095   -5.6617 C   0  0  0  0  0  0  0  0  0  0  0  0
   28.7118  -19.4263   -6.9895 C   0  0  0  0  0  0  0  0  0  0  0  0
   27.5198  -20.0022   -7.3510 C   0  0  0  0  0  0  0  0  0  0  0  0
   25.2826  -20.2892  -10.8296 C   0  0  0  0  0  0  0  0  0  0  0  0
   24.8751  -19.1332  -10.6166 O   0  0  0  0  0  0  0  0  0  0  0  0
   20.2216  -22.8639  -16.5756 N   0  0  0  0  0  0  0  0  0  0  0  0
   19.8448  -23.5512  -15.3442 C   0  0  0  0  0  0  0  0  0  0  0  0
   18.6617  -23.9266  -15.2258 N   0  0  0  0  0  0  0  0  0  0  0  0
   20.8242  -23.7592  -14.3463 N   0  0  0  0  0  0  0  0  0  0  0  0
   22.2034  -23.4098  -14.3985 C   0  0  0  0  0  0  0  0  0  0  0  0
   22.6524  -22.1956  -13.6805 C   0  0  0  0  0  0  0  0  0  0  0  0
   22.5443  -22.3659  -12.1705 C   0  0  0  0  0  0  0  0  0  0  0  0
   22.9930  -21.1647  -11.4163 C   0  0  2  0  0  0  0  0  0  0  0  0
   24.3583  -21.3539  -10.9057 N   0  0  0  0  0  0  0  0  0  0  0  0
   22.0969  -20.7473  -10.3183 C   0  0  0  0  0  0  0  0  0  0  0  0
   20.9375  -20.0117  -10.6303 O   0  0  0  0  0  0  0  0  0  0  0  0
   22.2756  -20.9915   -9.1129 O   0  0  0  0  0  0  0  0  0  0  0  0
  1  2  1  0
  3  2  1  0
  4  5  1  0
  4  3  1  0
  5  1  1  0
  5  6  1  1
  6  7  2  0
  8  6  1  0
  9  8  1  0
  9 10  1  1
 11 10  1  0
 12 11  2  0
 13 14  1  0
 13 12  1  0
 14 19  2  0
 15 16  2  0
 15 14  1  0
 16 17  1  0
 17 18  2  0
 19 18  1  0
 19 11  1  0
 20  9  1  0
 20 21  2  0
 22 23  1  0
 23 25  1  0
 24 23  2  0
 25 26  1  0
 26 27  1  0
 28 27  1  0
 29 30  1  0
 29 28  1  1
 30 20  1  0
 31 29  1  0
 32 31  1  0
 33 31  2  0
M  END
$$$$
