PWR.pdb
     RDKit          3D

 33 35  0  0  1  0  0  0  0  0999 V2000
   26.9227  -21.1865  -16.5270 N   0  0  0  0  0  0  0  0  0  0  0  0
   28.2976  -20.8311  -16.8328 C   0  0  0  0  0  0  0  0  0  0  0  0
   29.1268  -21.6242  -15.8110 C   0  0  0  0  0  0  0  0  0  0  0  0
   28.3797  -22.9399  -15.8458 C   0  0  0  0  0  0  0  0  0  0  0  0
   26.9439  -22.4762  -15.9085 C   0  0  1  0  0  0  0  0  0  0  0  0
   26.4687  -22.3531  -14.4823 C   0  0  0  0  0  0  0  0  0  0  0  0
   26.6525  -23.3115  -13.6875 O   0  0  0  0  0  0  0  0  0  0  0  0
   25.8262  -21.1628  -14.0686 N   0  0  0  0  0  0  0  0  0  0  0  0
   25.3819  -20.9273  -12.7152 C   0  0  1  0  0  0  0  0  0  0  0  0
   26.0159  -19.7188  -12.1396 C   0  0  0  0  0  0  0  0  0  0  0  0
   27.1655  -20.1504  -11.2849 C   0  0  0  0  0  0  0  0  0  0  0  0
   28.4055  -20.5940  -11.6821 C   0  0  0  0  0  0  0  0  0  0  0  0
   29.1775  -20.8913  -10.6197 N   0  0  0  0  0  0  0  0  0  0  0  0
   28.4479  -20.6445   -9.5130 C   0  0  0  0  0  0  0  0  0  0  0  0
   28.7156  -20.7637   -8.1709 C   0  0  0  0  0  0  0  0  0  0  0  0
   27.7703  -20.4365   -7.2224 C   0  0  0  0  0  0  0  0  0  0  0  0
   26.5366  -19.9823   -7.6248 C   0  0  0  0  0  0  0  0  0  0  0  0
   26.2541  -19.8577   -8.9619 C   0  0  0  0  0  0  0  0  0  0  0  0
   27.2060  -20.1877   -9.8938 C   0  0  0  0  0  0  0  0  0  0  0  0
   23.9006  -20.9632  -12.5720 C   0  0  0  0  0  0  0  0  0  0  0  0
   23.2067  -20.4692  -13.4789 O   0  0  0  0  0  0  0  0  0  0  0  0
   16.7565  -24.3304   -8.9809 N   0  0  0  0  0  0  0  0  0  0  0  0
   17.9377  -25.1710   -9.1508 C   0  0  0  0  0  0  0  0  0  0  0  0
   17.7615  -26.3700   -9.4443 N   0  0  0  0  0  0  0  0  0  0  0  0
   19.2187  -24.5994   -8.9757 N   0  0  0  0  0  0  0  0  0  0  0  0
   19.5333  -23.2300   -8.7465 C   0  0  0  0  0  0  0  0  0  0  0  0
   19.9012  -22.3860   -9.9056 C   0  0  0  0  0  0  0  0  0  0  0  0
   21.4124  -22.2923  -10.0729 C   0  0  0  0  0  0  0  0  0  0  0  0
   21.8178  -21.4752  -11.2482 C   0  0  2  0  0  0  0  0  0  0  0  0
   23.2731  -21.5375  -11.4450 N   0  0  0  0  0  0  0  0  0  0  0  0
   21.3734  -20.0667  -11.2113 C   0  0  0  0  0  0  0  0  0  0  0  0
   20.1243  -19.7338  -11.7697 O   0  0  0  0  0  0  0  0  0  0  0  0
   22.0161  -19.1232  -10.7203 O   0  0  0  0  0  0  0  0  0  0  0  0
  1  2  1  0
  3  2  1  0
  4  5  1  0
  4  3  1  0
  5  1  1  0
  5  6  1  1
  6  7  2  0
  8  6  1  0
  9  8  1  0
  9 10  1  6
 11 10  1  0
 12 11  2  0
 13 14  1  0
 13 12  1  0
 14 19  2  0
 15 16  2  0
 15 14  1  0
 16 17  1  0
 17 18  2  0
 19 18  1  0
 19 11  1  0
 20  9  1  0
 20 21  2  0
 22 23  1  0
 23 25  1  0
 24 23  2  0
 25 26  1  0
 26 27  1  0
 28 27  1  0
 29 30  1  0
 29 28  1  1
 30 20  1  0
 31 29  1  0
 32 31  1  0
 33 31  2  0
M  END
$$$$
