PWR.pdb
     RDKit          3D

 33 35  0  0  1  0  0  0  0  0999 V2000
   27.3200  -25.8110  -18.0766 N   0  0  0  0  0  0  0  0  0  0  0  0
   28.7636  -25.8203  -17.9161 C   0  0  0  0  0  0  0  0  0  0  0  0
   28.9738  -26.1204  -16.4240 C   0  0  0  0  0  0  0  0  0  0  0  0
   27.9174  -27.1864  -16.2292 C   0  0  0  0  0  0  0  0  0  0  0  0
   26.7716  -26.6358  -17.0444 C   0  0  1  0  0  0  0  0  0  0  0  0
   25.9489  -25.7844  -16.1100 C   0  0  0  0  0  0  0  0  0  0  0  0
   25.6728  -26.2204  -14.9622 O   0  0  0  0  0  0  0  0  0  0  0  0
   25.5047  -24.5135  -16.5441 N   0  0  0  0  0  0  0  0  0  0  0  0
   24.7028  -23.6302  -15.7310 C   0  0  1  0  0  0  0  0  0  0  0  0
   24.8850  -22.2147  -16.1273 C   0  0  0  0  0  0  0  0  0  0  0  0
   24.1183  -21.3548  -15.1729 C   0  0  0  0  0  0  0  0  0  0  0  0
   24.3082  -21.2027  -13.8190 C   0  0  0  0  0  0  0  0  0  0  0  0
   23.4172  -20.3376  -13.2985 N   0  0  0  0  0  0  0  0  0  0  0  0
   22.6329  -19.9136  -14.3100 C   0  0  0  0  0  0  0  0  0  0  0  0
   21.5734  -19.0411  -14.3689 C   0  0  0  0  0  0  0  0  0  0  0  0
   20.9309  -18.7775  -15.5597 C   0  0  0  0  0  0  0  0  0  0  0  0
   21.3566  -19.3980  -16.7104 C   0  0  0  0  0  0  0  0  0  0  0  0
   22.4136  -20.2721  -16.6677 C   0  0  0  0  0  0  0  0  0  0  0  0
   23.0426  -20.5239  -15.4742 C   0  0  0  0  0  0  0  0  0  0  0  0
   23.2796  -24.0560  -15.6346 C   0  0  0  0  0  0  0  0  0  0  0  0
   22.6651  -24.3073  -16.6868 O   0  0  0  0  0  0  0  0  0  0  0  0
   16.8973  -25.1092  -10.9251 N   0  0  0  0  0  0  0  0  0  0  0  0
   16.8907  -26.5552  -11.1241 C   0  0  0  0  0  0  0  0  0  0  0  0
   15.7950  -27.1468  -11.0591 N   0  0  0  0  0  0  0  0  0  0  0  0
   18.1127  -27.2194  -11.3772 N   0  0  0  0  0  0  0  0  0  0  0  0
   19.3863  -26.6303  -11.6176 C   0  0  0  0  0  0  0  0  0  0  0  0
   19.5449  -25.7452  -12.7934 C   0  0  0  0  0  0  0  0  0  0  0  0
   21.0033  -25.3651  -13.0155 C   0  0  0  0  0  0  0  0  0  0  0  0
   21.2263  -24.6366  -14.2933 C   0  0  2  0  0  0  0  0  0  0  0  0
   22.6197  -24.1795  -14.3925 N   0  0  0  0  0  0  0  0  0  0  0  0
   20.3060  -23.5064  -14.5353 C   0  0  0  0  0  0  0  0  0  0  0  0
   19.0212  -23.7741  -15.0456 O   0  0  0  0  0  0  0  0  0  0  0  0
   20.5668  -22.3097  -14.3248 O   0  0  0  0  0  0  0  0  0  0  0  0
  1  2  1  0
  3  2  1  0
  4  5  1  0
  4  3  1  0
  5  1  1  0
  5  6  1  1
  6  7  2  0
  8  6  1  0
  9  8  1  0
  9 10  1  6
 11 10  1  0
 12 11  2  0
 13 14  1  0
 13 12  1  0
 14 19  2  0
 15 16  2  0
 15 14  1  0
 16 17  1  0
 17 18  2  0
 19 18  1  0
 19 11  1  0
 20  9  1  0
 20 21  2  0
 22 23  1  0
 23 25  1  0
 24 23  2  0
 25 26  1  0
 26 27  1  0
 28 27  1  0
 29 30  1  0
 29 28  1  1
 30 20  1  0
 31 29  1  0
 32 31  1  0
 33 31  2  0
M  END
$$$$
