CFR.pdb
     RDKit          3D

 29 29  0  0  1  0  0  0  0  0999 V2000
    5.6558  -19.4593   21.1328 N   0  0  0  0  0  0  0  0  0  0  0  0
    5.5572  -19.3294   22.5735 C   0  0  1  0  0  0  0  0  0  0  0  0
    6.1486  -20.5874   23.1788 C   0  0  0  0  0  0  0  0  0  0  0  0
    7.9487  -20.4425   23.0923 S   0  0  0  0  0  0  0  0  0  0  0  0
    6.3139  -18.1136   22.9676 C   0  0  0  0  0  0  0  0  0  0  0  0
    7.1702  -17.6665   22.1629 O   0  0  0  0  0  0  0  0  0  0  0  0
    6.1161  -17.4492   24.1875 N   0  0  0  0  0  0  0  0  0  0  0  0
    6.8981  -16.2522   24.5681 C   0  0  1  0  0  0  0  0  0  0  0  0
    6.1651  -15.4972   25.6058 C   0  0  0  0  0  0  0  0  0  0  0  0
    6.7270  -14.2276   26.0545 C   0  0  0  0  0  0  0  0  0  0  0  0
    7.2919  -13.9711   27.2753 C   0  0  0  0  0  0  0  0  0  0  0  0
    7.7662  -12.7057   27.5652 C   0  0  0  0  0  0  0  0  0  0  0  0
    7.7029  -11.6593   26.6736 C   0  0  0  0  0  0  0  0  0  0  0  0
    7.1386  -11.9012   25.4420 C   0  0  0  0  0  0  0  0  0  0  0  0
    6.6675  -13.1580   25.1553 C   0  0  0  0  0  0  0  0  0  0  0  0
    8.2619  -16.6735   24.9232 C   0  0  0  0  0  0  0  0  0  0  0  0
    8.4471  -17.7752   25.5620 O   0  0  0  0  0  0  0  0  0  0  0  0
   11.1239  -22.4817   25.3591 N   0  0  0  0  0  0  0  0  0  0  0  0
    9.9252  -22.1378   24.6600 C   0  0  0  0  0  0  0  0  0  0  0  0
    8.8954  -22.8927   24.7993 N   0  0  0  0  0  0  0  0  0  0  0  0
    9.9272  -20.9764   23.8433 N   0  0  0  0  0  0  0  0  0  0  0  0
   11.1533  -20.2305   23.7095 C   0  0  0  0  0  0  0  0  0  0  0  0
   11.0834  -18.9957   24.6154 C   0  0  0  0  0  0  0  0  0  0  0  0
   10.6597  -17.8197   23.7956 C   0  0  0  0  0  0  0  0  0  0  0  0
   10.7057  -16.5572   24.6451 C   0  0  2  0  0  0  0  0  0  0  0  0
    9.3901  -15.9043   24.5715 N   0  0  0  0  0  0  0  0  0  0  0  0
   11.7571  -15.6625   24.1696 C   0  0  0  0  0  0  0  0  0  0  0  0
   11.5427  -14.4334   23.5763 O   0  0  0  0  0  0  0  0  0  0  0  0
   12.9626  -16.0056   24.2900 O   0  0  0  0  0  0  0  0  0  0  0  0
  2  3  1  0
  2  1  1  6
  4  3  1  0
  5  2  1  0
  6  5  2  0
  7  5  1  0
  8  7  1  0
  9 10  1  0
  8  9  1  1
 10 15  2  0
 11 12  2  0
 11 10  1  0
 12 13  1  0
 13 14  2  0
 15 14  1  0
 16  8  1  0
 16 17  2  0
 19 20  2  0
 19 18  1  0
 21 19  1  0
 22 21  1  0
 23 22  1  0
 24 23  1  0
 25 24  1  6
 25 26  1  0
 26 16  1  0
 27 25  1  0
 28 27  1  0
 29 27  2  0
M  END
$$$$
