CFR.pdb
     RDKit          3D

 29 29  0  0  1  0  0  0  0  0999 V2000
    5.1190  -21.0836   23.8839 N   0  0  0  0  0  0  0  0  0  0  0  0
    5.8880  -20.4983   24.9648 C   0  0  1  0  0  0  0  0  0  0  0  0
    7.2373  -21.1894   24.9806 C   0  0  0  0  0  0  0  0  0  0  0  0
    8.1029  -20.7353   23.4595 S   0  0  0  0  0  0  0  0  0  0  0  0
    6.0112  -19.0435   24.6915 C   0  0  0  0  0  0  0  0  0  0  0  0
    5.4181  -18.5814   23.6838 O   0  0  0  0  0  0  0  0  0  0  0  0
    6.7539  -18.1714   25.5017 N   0  0  0  0  0  0  0  0  0  0  0  0
    6.7906  -16.7120   25.2609 C   0  0  1  0  0  0  0  0  0  0  0  0
    6.9086  -16.0046   26.5531 C   0  0  0  0  0  0  0  0  0  0  0  0
    7.0935  -14.5575   26.5275 C   0  0  0  0  0  0  0  0  0  0  0  0
    8.2861  -13.8861   26.5753 C   0  0  0  0  0  0  0  0  0  0  0  0
    8.3022  -12.5042   26.5626 C   0  0  0  0  0  0  0  0  0  0  0  0
    7.1579  -11.7421   26.5024 C   0  0  0  0  0  0  0  0  0  0  0  0
    5.9514  -12.4019   26.4531 C   0  0  0  0  0  0  0  0  0  0  0  0
    5.9364  -13.7743   26.4661 C   0  0  0  0  0  0  0  0  0  0  0  0
    7.8411  -16.4236   24.2725 C   0  0  0  0  0  0  0  0  0  0  0  0
    8.9455  -17.0837   24.2991 O   0  0  0  0  0  0  0  0  0  0  0  0
    7.7609  -13.4390   15.8561 N   0  0  0  0  0  0  0  0  0  0  0  0
    7.9948  -14.3878   16.8996 C   0  0  0  0  0  0  0  0  0  0  0  0
    8.4680  -15.5402   16.5865 N   0  0  0  0  0  0  0  0  0  0  0  0
    7.6938  -14.0131   18.2355 N   0  0  0  0  0  0  0  0  0  0  0  0
    8.7001  -13.3194   18.9997 C   0  0  0  0  0  0  0  0  0  0  0  0
    9.2376  -14.2622   20.0824 C   0  0  0  0  0  0  0  0  0  0  0  0
    8.2497  -14.3230   21.2026 C   0  0  0  0  0  0  0  0  0  0  0  0
    8.7066  -15.3428   22.2364 C   0  0  2  0  0  0  0  0  0  0  0  0
    7.6705  -15.4415   23.2753 N   0  0  0  0  0  0  0  0  0  0  0  0
    9.9859  -14.9423   22.8149 C   0  0  0  0  0  0  0  0  0  0  0  0
   11.2254  -15.2762   22.3040 O   0  0  0  0  0  0  0  0  0  0  0  0
    9.9995  -14.2416   23.8610 O   0  0  0  0  0  0  0  0  0  0  0  0
  2  3  1  0
  2  1  1  6
  4  3  1  0
  5  2  1  0
  6  5  2  0
  7  5  1  0
  8  7  1  0
  9 10  1  0
  8  9  1  1
 10 15  2  0
 11 12  2  0
 11 10  1  0
 12 13  1  0
 13 14  2  0
 15 14  1  0
 16  8  1  0
 16 17  2  0
 19 20  2  0
 19 18  1  0
 21 19  1  0
 22 21  1  0
 23 22  1  0
 24 23  1  0
 25 24  1  6
 25 26  1  0
 26 16  1  0
 27 25  1  0
 28 27  1  0
 29 27  2  0
M  END
$$$$
