CFR.pdb
     RDKit          3D

 29 29  0  0  1  0  0  0  0  0999 V2000
    8.0727  -12.4209   18.1514 N   0  0  0  0  0  0  0  0  0  0  0  0
    7.5620  -13.5891   18.8419 C   0  0  1  0  0  0  0  0  0  0  0  0
    8.0465  -14.8075   18.0807 C   0  0  0  0  0  0  0  0  0  0  0  0
    7.5135  -16.2727   18.9962 S   0  0  0  0  0  0  0  0  0  0  0  0
    8.0877  -13.5553   20.2306 C   0  0  0  0  0  0  0  0  0  0  0  0
    9.2846  -13.2089   20.3988 O   0  0  0  0  0  0  0  0  0  0  0  0
    7.3136  -13.8903   21.3518 N   0  0  0  0  0  0  0  0  0  0  0  0
    7.8262  -13.7509   22.7328 C   0  0  1  0  0  0  0  0  0  0  0  0
    6.8513  -12.9914   23.5433 C   0  0  0  0  0  0  0  0  0  0  0  0
    7.1022  -12.8646   24.9751 C   0  0  0  0  0  0  0  0  0  0  0  0
    6.5827  -13.6521   25.9677 C   0  0  0  0  0  0  0  0  0  0  0  0
    6.8977  -13.3965   27.2889 C   0  0  0  0  0  0  0  0  0  0  0  0
    7.7267  -12.3685   27.6761 C   0  0  0  0  0  0  0  0  0  0  0  0
    8.2575  -11.5684   26.6904 C   0  0  0  0  0  0  0  0  0  0  0  0
    7.9437  -11.8228   25.3786 C   0  0  0  0  0  0  0  0  0  0  0  0
    8.1826  -15.0848   23.2402 C   0  0  0  0  0  0  0  0  0  0  0  0
    7.4038  -16.0848   23.0179 O   0  0  0  0  0  0  0  0  0  0  0  0
   12.0185  -15.5798   19.4665 N   0  0  0  0  0  0  0  0  0  0  0  0
   13.2271  -15.2803   20.1690 C   0  0  0  0  0  0  0  0  0  0  0  0
   14.0603  -14.4614   19.6352 N   0  0  0  0  0  0  0  0  0  0  0  0
   13.4516  -15.9015   21.4257 N   0  0  0  0  0  0  0  0  0  0  0  0
   12.5150  -16.8996   21.8779 C   0  0  0  0  0  0  0  0  0  0  0  0
   11.6270  -16.2882   22.9677 C   0  0  0  0  0  0  0  0  0  0  0  0
   10.6252  -17.3089   23.4023 C   0  0  0  0  0  0  0  0  0  0  0  0
    9.6539  -16.6859   24.3954 C   0  0  2  0  0  0  0  0  0  0  0  0
    9.3726  -15.3090   23.9626 N   0  0  0  0  0  0  0  0  0  0  0  0
   10.2218  -16.7020   25.7404 C   0  0  0  0  0  0  0  0  0  0  0  0
   10.5056  -17.8425   26.4667 O   0  0  0  0  0  0  0  0  0  0  0  0
   10.4827  -15.6123   26.3148 O   0  0  0  0  0  0  0  0  0  0  0  0
  2  3  1  0
  2  1  1  6
  4  3  1  0
  5  2  1  0
  6  5  2  0
  7  5  1  0
  8  7  1  0
  9 10  1  0
  8  9  1  1
 10 15  2  0
 11 12  2  0
 11 10  1  0
 12 13  1  0
 13 14  2  0
 15 14  1  0
 16  8  1  0
 16 17  2  0
 19 20  2  0
 19 18  1  0
 21 19  1  0
 22 21  1  0
 23 22  1  0
 24 23  1  0
 25 24  1  6
 25 26  1  0
 26 16  1  0
 27 25  1  0
 28 27  1  0
 29 27  2  0
M  END
$$$$
