CFR.pdb
     RDKit          3D

 29 29  0  0  1  0  0  0  0  0999 V2000
    8.6935  -12.4511   19.5007 N   0  0  0  0  0  0  0  0  0  0  0  0
    7.8743  -13.4329   20.1841 C   0  0  1  0  0  0  0  0  0  0  0  0
    7.8356  -14.6712   19.3102 C   0  0  0  0  0  0  0  0  0  0  0  0
    6.7144  -14.3340   17.9323 S   0  0  0  0  0  0  0  0  0  0  0  0
    8.5024  -13.7021   21.5029 C   0  0  0  0  0  0  0  0  0  0  0  0
    9.6908  -13.3298   21.6760 O   0  0  0  0  0  0  0  0  0  0  0  0
    7.8331  -14.3479   22.5534 N   0  0  0  0  0  0  0  0  0  0  0  0
    8.4756  -14.5940   23.8633 C   0  0  1  0  0  0  0  0  0  0  0  0
    7.4338  -14.7293   24.9028 C   0  0  0  0  0  0  0  0  0  0  0  0
    6.9608  -13.5157   25.5605 C   0  0  0  0  0  0  0  0  0  0  0  0
    7.6299  -12.3247   25.6547 C   0  0  0  0  0  0  0  0  0  0  0  0
    7.0591  -11.2628   26.3305 C   0  0  0  0  0  0  0  0  0  0  0  0
    5.8226  -11.3342   26.9305 C   0  0  0  0  0  0  0  0  0  0  0  0
    5.1371  -12.5242   26.8441 C   0  0  0  0  0  0  0  0  0  0  0  0
    5.7051  -13.5783   26.1731 C   0  0  0  0  0  0  0  0  0  0  0  0
    9.4001  -15.7302   23.7288 C   0  0  0  0  0  0  0  0  0  0  0  0
   10.0072  -16.1894   24.7664 O   0  0  0  0  0  0  0  0  0  0  0  0
   15.1561  -16.3457   17.8149 N   0  0  0  0  0  0  0  0  0  0  0  0
   14.5405  -15.8240   18.9950 C   0  0  0  0  0  0  0  0  0  0  0  0
   14.9942  -14.7296   19.4913 N   0  0  0  0  0  0  0  0  0  0  0  0
   13.4546  -16.5392   19.5650 N   0  0  0  0  0  0  0  0  0  0  0  0
   13.7435  -17.6422   20.4470 C   0  0  0  0  0  0  0  0  0  0  0  0
   12.4224  -18.2813   20.8902 C   0  0  0  0  0  0  0  0  0  0  0  0
   11.3967  -17.2059   21.0512 C   0  0  0  0  0  0  0  0  0  0  0  0
   10.7281  -17.3327   22.4130 C   0  0  2  0  0  0  0  0  0  0  0  0
    9.6375  -16.3487   22.4842 N   0  0  0  0  0  0  0  0  0  0  0  0
   11.7000  -17.1090   23.4794 C   0  0  0  0  0  0  0  0  0  0  0  0
   12.1552  -15.8706   23.8891 O   0  0  0  0  0  0  0  0  0  0  0  0
   12.1843  -18.0966   24.0922 O   0  0  0  0  0  0  0  0  0  0  0  0
  2  3  1  0
  2  1  1  6
  4  3  1  0
  5  2  1  0
  6  5  2  0
  7  5  1  0
  8  7  1  0
  9 10  1  0
  8  9  1  1
 10 15  2  0
 11 12  2  0
 11 10  1  0
 12 13  1  0
 13 14  2  0
 15 14  1  0
 16  8  1  0
 16 17  2  0
 19 20  2  0
 19 18  1  0
 21 19  1  0
 22 21  1  0
 23 22  1  0
 24 23  1  0
 25 24  1  6
 25 26  1  0
 26 16  1  0
 27 25  1  0
 28 27  1  0
 29 27  2  0
M  END
$$$$
