CFR.pdb
     RDKit          3D

 29 29  0  0  1  0  0  0  0  0999 V2000
   10.3609  -16.6861   19.8490 N   0  0  0  0  0  0  0  0  0  0  0  0
    9.3056  -17.0246   20.7839 C   0  0  1  0  0  0  0  0  0  0  0  0
    9.5618  -18.4426   21.2554 C   0  0  0  0  0  0  0  0  0  0  0  0
    9.1567  -19.5554   19.8892 S   0  0  0  0  0  0  0  0  0  0  0  0
    9.3650  -16.0475   21.9010 C   0  0  0  0  0  0  0  0  0  0  0  0
   10.4864  -15.5653   22.2024 O   0  0  0  0  0  0  0  0  0  0  0  0
    8.2346  -15.6436   22.6273 N   0  0  0  0  0  0  0  0  0  0  0  0
    8.3182  -14.6672   23.7358 C   0  0  1  0  0  0  0  0  0  0  0  0
    7.0007  -14.0245   23.9236 C   0  0  0  0  0  0  0  0  0  0  0  0
    6.8310  -13.1305   25.0642 C   0  0  0  0  0  0  0  0  0  0  0  0
    6.0558  -13.3566   26.1702 C   0  0  0  0  0  0  0  0  0  0  0  0
    5.9782  -12.4020   27.1666 C   0  0  0  0  0  0  0  0  0  0  0  0
    6.6538  -11.2043   27.1111 C   0  0  0  0  0  0  0  0  0  0  0  0
    7.4377  -10.9623   26.0064 C   0  0  0  0  0  0  0  0  0  0  0  0
    7.5138  -11.9108   25.0172 C   0  0  0  0  0  0  0  0  0  0  0  0
    8.8781  -15.3418   24.9169 C   0  0  0  0  0  0  0  0  0  0  0  0
    8.6657  -14.8603   26.0913 O   0  0  0  0  0  0  0  0  0  0  0  0
    7.2773  -23.4108   27.2365 N   0  0  0  0  0  0  0  0  0  0  0  0
    6.2613  -22.4142   27.1009 C   0  0  0  0  0  0  0  0  0  0  0  0
    5.0764  -22.7864   26.7733 N   0  0  0  0  0  0  0  0  0  0  0  0
    6.6079  -21.0575   27.3352 N   0  0  0  0  0  0  0  0  0  0  0  0
    7.4497  -20.3862   26.3767 C   0  0  0  0  0  0  0  0  0  0  0  0
    7.8777  -19.0327   26.9553 C   0  0  0  0  0  0  0  0  0  0  0  0
    8.0812  -18.0700   25.8301 C   0  0  0  0  0  0  0  0  0  0  0  0
    9.5019  -17.5244   25.8707 C   0  0  2  0  0  0  0  0  0  0  0  0
    9.6411  -16.5220   24.8037 N   0  0  0  0  0  0  0  0  0  0  0  0
   10.4671  -18.6061   25.6964 C   0  0  0  0  0  0  0  0  0  0  0  0
   11.2400  -18.8038   24.5685 O   0  0  0  0  0  0  0  0  0  0  0  0
   10.6317  -19.4434   26.6224 O   0  0  0  0  0  0  0  0  0  0  0  0
  2  3  1  0
  2  1  1  6
  4  3  1  0
  5  2  1  0
  6  5  2  0
  7  5  1  0
  8  7  1  0
  9 10  1  0
  8  9  1  1
 10 15  2  0
 11 12  2  0
 11 10  1  0
 12 13  1  0
 13 14  2  0
 15 14  1  0
 16  8  1  0
 16 17  2  0
 19 20  2  0
 19 18  1  0
 21 19  1  0
 22 21  1  0
 23 22  1  0
 24 23  1  0
 25 24  1  6
 25 26  1  0
 26 16  1  0
 27 25  1  0
 28 27  1  0
 29 27  2  0
M  END
$$$$
