CFR.pdb
     RDKit          3D

 29 29  0  0  1  0  0  0  0  0999 V2000
    4.6655  -20.5784   23.2461 N   0  0  0  0  0  0  0  0  0  0  0  0
    5.2701  -20.2183   24.5138 C   0  0  1  0  0  0  0  0  0  0  0  0
    6.3281  -21.2607   24.8182 C   0  0  0  0  0  0  0  0  0  0  0  0
    7.8018  -20.8416   23.8583 S   0  0  0  0  0  0  0  0  0  0  0  0
    5.8537  -18.8608   24.3634 C   0  0  0  0  0  0  0  0  0  0  0  0
    5.8983  -18.3636   23.2094 O   0  0  0  0  0  0  0  0  0  0  0  0
    6.3526  -18.1167   25.4433 N   0  0  0  0  0  0  0  0  0  0  0  0
    6.8763  -16.7429   25.2779 C   0  0  1  0  0  0  0  0  0  0  0  0
    6.4845  -15.9249   26.4447 C   0  0  0  0  0  0  0  0  0  0  0  0
    6.8441  -14.5108   26.4418 C   0  0  0  0  0  0  0  0  0  0  0  0
    6.0579  -13.4696   26.0258 C   0  0  0  0  0  0  0  0  0  0  0  0
    6.5458  -12.1771   26.0637 C   0  0  0  0  0  0  0  0  0  0  0  0
    7.8107  -11.8664   26.5080 C   0  0  0  0  0  0  0  0  0  0  0  0
    8.6130  -12.9017   26.9301 C   0  0  0  0  0  0  0  0  0  0  0  0
    8.1276  -14.1850   26.8917 C   0  0  0  0  0  0  0  0  0  0  0  0
    8.3192  -16.8185   25.0019 C   0  0  0  0  0  0  0  0  0  0  0  0
    9.0363  -17.7177   25.5789 O   0  0  0  0  0  0  0  0  0  0  0  0
    7.4795  -13.9416   18.4847 N   0  0  0  0  0  0  0  0  0  0  0  0
    8.5561  -13.0421   18.7599 C   0  0  0  0  0  0  0  0  0  0  0  0
    8.4713  -11.8341   18.3314 N   0  0  0  0  0  0  0  0  0  0  0  0
    9.6706  -13.5247   19.4952 N   0  0  0  0  0  0  0  0  0  0  0  0
    9.6623  -14.8966   19.9373 C   0  0  0  0  0  0  0  0  0  0  0  0
    9.9013  -14.9309   21.4512 C   0  0  0  0  0  0  0  0  0  0  0  0
    9.8908  -16.3538   21.9089 C   0  0  0  0  0  0  0  0  0  0  0  0
   10.1515  -16.4139   23.4075 C   0  0  2  0  0  0  0  0  0  0  0  0
    8.9491  -15.9324   24.1040 N   0  0  0  0  0  0  0  0  0  0  0  0
   11.3135  -15.6007   23.7545 C   0  0  0  0  0  0  0  0  0  0  0  0
   11.3020  -14.5400   24.6396 O   0  0  0  0  0  0  0  0  0  0  0  0
   12.4267  -15.8543   23.2236 O   0  0  0  0  0  0  0  0  0  0  0  0
  2  3  1  0
  2  1  1  6
  4  3  1  0
  5  2  1  0
  6  5  2  0
  7  5  1  0
  8  7  1  0
  9 10  1  0
  8  9  1  1
 10 15  2  0
 11 12  2  0
 11 10  1  0
 12 13  1  0
 13 14  2  0
 15 14  1  0
 16  8  1  0
 16 17  2  0
 19 20  2  0
 19 18  1  0
 21 19  1  0
 22 21  1  0
 23 22  1  0
 24 23  1  0
 25 24  1  6
 25 26  1  0
 26 16  1  0
 27 25  1  0
 28 27  1  0
 29 27  2  0
M  END
$$$$
