CFR.pdb
     RDKit          3D

 29 29  0  0  1  0  0  0  0  0999 V2000
    7.1315  -14.1396   20.0487 N   0  0  0  0  0  0  0  0  0  0  0  0
    6.7969  -15.2313   20.9424 C   0  0  1  0  0  0  0  0  0  0  0  0
    7.0593  -16.5220   20.1915 C   0  0  0  0  0  0  0  0  0  0  0  0
    6.6272  -17.8918   21.2897 S   0  0  0  0  0  0  0  0  0  0  0  0
    7.6557  -15.1043   22.1475 C   0  0  0  0  0  0  0  0  0  0  0  0
    8.7923  -14.5850   22.0085 O   0  0  0  0  0  0  0  0  0  0  0  0
    7.2569  -15.5347   23.4220 N   0  0  0  0  0  0  0  0  0  0  0  0
    8.1031  -15.3390   24.6198 C   0  0  1  0  0  0  0  0  0  0  0  0
    7.2595  -14.8942   25.7488 C   0  0  0  0  0  0  0  0  0  0  0  0
    7.0969  -13.4595   25.9587 C   0  0  0  0  0  0  0  0  0  0  0  0
    8.0477  -12.4933   25.7643 C   0  0  0  0  0  0  0  0  0  0  0  0
    7.7510  -11.1691   26.0261 C   0  0  0  0  0  0  0  0  0  0  0  0
    6.5213  -10.7529   26.4828 C   0  0  0  0  0  0  0  0  0  0  0  0
    5.5547  -11.7117   26.6826 C   0  0  0  0  0  0  0  0  0  0  0  0
    5.8505  -13.0266   26.4227 C   0  0  0  0  0  0  0  0  0  0  0  0
    8.8881  -16.5620   24.8474 C   0  0  0  0  0  0  0  0  0  0  0  0
    8.2879  -17.6703   25.1071 O   0  0  0  0  0  0  0  0  0  0  0  0
   15.6100  -18.1925   21.2878 N   0  0  0  0  0  0  0  0  0  0  0  0
   14.6896  -19.0625   20.6246 C   0  0  0  0  0  0  0  0  0  0  0  0
   15.1483  -19.9053   19.7706 N   0  0  0  0  0  0  0  0  0  0  0  0
   13.3095  -18.9559   20.9405 N   0  0  0  0  0  0  0  0  0  0  0  0
   12.9008  -17.9832   21.9226 C   0  0  0  0  0  0  0  0  0  0  0  0
   12.3330  -18.7188   23.1419 C   0  0  0  0  0  0  0  0  0  0  0  0
   12.3366  -17.7878   24.3114 C   0  0  0  0  0  0  0  0  0  0  0  0
   10.9869  -17.8389   25.0136 C   0  0  2  0  0  0  0  0  0  0  0  0
   10.2964  -16.5621   24.7779 N   0  0  0  0  0  0  0  0  0  0  0  0
   11.1661  -18.0765   26.4431 C   0  0  0  0  0  0  0  0  0  0  0  0
   11.5419  -19.2816   27.0046 O   0  0  0  0  0  0  0  0  0  0  0  0
   10.9685  -17.1356   27.2561 O   0  0  0  0  0  0  0  0  0  0  0  0
  2  3  1  0
  2  1  1  6
  4  3  1  0
  5  2  1  0
  6  5  2  0
  7  5  1  0
  8  7  1  0
  9 10  1  0
  8  9  1  1
 10 15  2  0
 11 12  2  0
 11 10  1  0
 12 13  1  0
 13 14  2  0
 15 14  1  0
 16  8  1  0
 16 17  2  0
 19 20  2  0
 19 18  1  0
 21 19  1  0
 22 21  1  0
 23 22  1  0
 24 23  1  0
 25 24  1  6
 25 26  1  0
 26 16  1  0
 27 25  1  0
 28 27  1  0
 29 27  2  0
M  END
$$$$
