CFR.pdb
     RDKit          3D

 29 29  0  0  1  0  0  0  0  0999 V2000
    6.2484  -18.0959   19.8281 N   0  0  0  0  0  0  0  0  0  0  0  0
    6.0063  -18.3608   21.2329 C   0  0  1  0  0  0  0  0  0  0  0  0
    6.4343  -19.7906   21.4998 C   0  0  0  0  0  0  0  0  0  0  0  0
    5.1760  -20.8798   20.7931 S   0  0  0  0  0  0  0  0  0  0  0  0
    6.8050  -17.3852   22.0179 C   0  0  0  0  0  0  0  0  0  0  0  0
    7.9302  -17.0487   21.5690 O   0  0  0  0  0  0  0  0  0  0  0  0
    6.3621  -16.8285   23.2273 N   0  0  0  0  0  0  0  0  0  0  0  0
    7.1556  -15.8239   23.9691 C   0  0  1  0  0  0  0  0  0  0  0  0
    6.2517  -15.0009   24.7995 C   0  0  0  0  0  0  0  0  0  0  0  0
    6.8432  -13.9501   25.6210 C   0  0  0  0  0  0  0  0  0  0  0  0
    7.5407  -14.1210   26.7870 C   0  0  0  0  0  0  0  0  0  0  0  0
    8.0271  -13.0217   27.4689 C   0  0  0  0  0  0  0  0  0  0  0  0
    7.8470  -11.7291   27.0321 C   0  0  0  0  0  0  0  0  0  0  0  0
    7.1487  -11.5406   25.8615 C   0  0  0  0  0  0  0  0  0  0  0  0
    6.6657  -12.6330   25.1853 C   0  0  0  0  0  0  0  0  0  0  0  0
    8.2372  -16.5147   24.6879 C   0  0  0  0  0  0  0  0  0  0  0  0
    8.0382  -17.6918   25.1686 O   0  0  0  0  0  0  0  0  0  0  0  0
   14.8242  -17.4557   20.6636 N   0  0  0  0  0  0  0  0  0  0  0  0
   15.1005  -18.4628   21.6400 C   0  0  0  0  0  0  0  0  0  0  0  0
   16.2498  -19.0362   21.6219 N   0  0  0  0  0  0  0  0  0  0  0  0
   14.0919  -18.7833   22.5863 N   0  0  0  0  0  0  0  0  0  0  0  0
   12.8823  -17.9992   22.5961 C   0  0  0  0  0  0  0  0  0  0  0  0
   12.9199  -17.0453   23.7956 C   0  0  0  0  0  0  0  0  0  0  0  0
   11.6678  -16.2289   23.8018 C   0  0  0  0  0  0  0  0  0  0  0  0
   10.6788  -16.8116   24.8018 C   0  0  2  0  0  0  0  0  0  0  0  0
    9.5066  -15.9256   24.8600 N   0  0  0  0  0  0  0  0  0  0  0  0
   11.3004  -16.9381   26.1169 C   0  0  0  0  0  0  0  0  0  0  0  0
   12.2357  -17.8945   26.4622 O   0  0  0  0  0  0  0  0  0  0  0  0
   10.9817  -16.1337   27.0317 O   0  0  0  0  0  0  0  0  0  0  0  0
  2  3  1  0
  2  1  1  6
  4  3  1  0
  5  2  1  0
  6  5  2  0
  7  5  1  0
  8  7  1  0
  9 10  1  0
  8  9  1  1
 10 15  2  0
 11 12  2  0
 11 10  1  0
 12 13  1  0
 13 14  2  0
 15 14  1  0
 16  8  1  0
 16 17  2  0
 19 20  2  0
 19 18  1  0
 21 19  1  0
 22 21  1  0
 23 22  1  0
 24 23  1  0
 25 24  1  6
 25 26  1  0
 26 16  1  0
 27 25  1  0
 28 27  1  0
 29 27  2  0
M  END
$$$$
