CFR.pdb
     RDKit          3D

 29 29  0  0  1  0  0  0  0  0999 V2000
    9.9038  -17.0067   19.2159 N   0  0  0  0  0  0  0  0  0  0  0  0
    8.6061  -16.7234   19.7973 C   0  0  1  0  0  0  0  0  0  0  0  0
    7.8613  -18.0404   19.8951 C   0  0  0  0  0  0  0  0  0  0  0  0
    8.9914  -19.3490   19.3663 S   0  0  0  0  0  0  0  0  0  0  0  0
    8.8356  -16.1136   21.1320 C   0  0  0  0  0  0  0  0  0  0  0  0
    9.9439  -16.3174   21.6898 O   0  0  0  0  0  0  0  0  0  0  0  0
    7.8781  -15.3277   21.7908 N   0  0  0  0  0  0  0  0  0  0  0  0
    8.1041  -14.7843   23.1483 C   0  0  1  0  0  0  0  0  0  0  0  0
    7.0744  -13.7670   23.4470 C   0  0  0  0  0  0  0  0  0  0  0  0
    7.0256  -13.2180   24.7979 C   0  0  0  0  0  0  0  0  0  0  0  0
    6.2424  -13.6598   25.8307 C   0  0  0  0  0  0  0  0  0  0  0  0
    6.2904  -13.0226   27.0562 C   0  0  0  0  0  0  0  0  0  0  0  0
    7.1025  -11.9401   27.3065 C   0  0  0  0  0  0  0  0  0  0  0  0
    7.8962  -11.4843   26.2790 C   0  0  0  0  0  0  0  0  0  0  0  0
    7.8475  -12.1176   25.0622 C   0  0  0  0  0  0  0  0  0  0  0  0
    8.1932  -15.9056   24.0961 C   0  0  0  0  0  0  0  0  0  0  0  0
    7.3785  -16.8966   23.9957 O   0  0  0  0  0  0  0  0  0  0  0  0
   11.8379  -18.6711   20.7709 N   0  0  0  0  0  0  0  0  0  0  0  0
   12.9828  -18.7301   21.6250 C   0  0  0  0  0  0  0  0  0  0  0  0
   14.1495  -18.6498   21.0938 N   0  0  0  0  0  0  0  0  0  0  0  0
   12.7783  -18.8742   23.0226 N   0  0  0  0  0  0  0  0  0  0  0  0
   11.4412  -19.1203   23.5014 C   0  0  0  0  0  0  0  0  0  0  0  0
   11.0885  -18.0616   24.5525 C   0  0  0  0  0  0  0  0  0  0  0  0
    9.6920  -18.3013   25.0286 C   0  0  0  0  0  0  0  0  0  0  0  0
    9.2533  -17.1575   25.9324 C   0  0  2  0  0  0  0  0  0  0  0  0
    9.1636  -15.9358   25.1187 N   0  0  0  0  0  0  0  0  0  0  0  0
   10.2019  -16.9831   27.0285 C   0  0  0  0  0  0  0  0  0  0  0  0
   10.9293  -15.8339   27.2711 O   0  0  0  0  0  0  0  0  0  0  0  0
   10.4002  -17.9322   27.8319 O   0  0  0  0  0  0  0  0  0  0  0  0
  2  3  1  0
  2  1  1  1
  4  3  1  0
  5  2  1  0
  6  5  2  0
  7  5  1  0
  8  7  1  0
  9 10  1  0
  8  9  1  1
 10 15  2  0
 11 12  2  0
 11 10  1  0
 12 13  1  0
 13 14  2  0
 15 14  1  0
 16  8  1  0
 16 17  2  0
 19 20  2  0
 19 18  1  0
 21 19  1  0
 22 21  1  0
 23 22  1  0
 24 23  1  0
 25 24  1  6
 25 26  1  0
 26 16  1  0
 27 25  1  0
 28 27  1  0
 29 27  2  0
M  END
$$$$
