CFR.pdb
     RDKit          3D

 29 29  0  0  1  0  0  0  0  0999 V2000
    7.2228  -18.5294   21.0407 N   0  0  0  0  0  0  0  0  0  0  0  0
    8.1834  -17.6110   20.4609 C   0  0  1  0  0  0  0  0  0  0  0  0
    7.5542  -17.0367   19.2066 C   0  0  0  0  0  0  0  0  0  0  0  0
    6.3160  -18.2188   18.6248 S   0  0  0  0  0  0  0  0  0  0  0  0
    8.4671  -16.5606   21.4720 C   0  0  0  0  0  0  0  0  0  0  0  0
    9.4485  -15.8006   21.2720 O   0  0  0  0  0  0  0  0  0  0  0  0
    7.6945  -16.3819   22.6294 N   0  0  0  0  0  0  0  0  0  0  0  0
    8.0675  -15.4130   23.6835 C   0  0  1  0  0  0  0  0  0  0  0  0
    6.8424  -14.8292   24.2688 C   0  0  0  0  0  0  0  0  0  0  0  0
    6.9949  -13.8320   25.3230 C   0  0  0  0  0  0  0  0  0  0  0  0
    6.8719  -12.4750   25.1867 C   0  0  0  0  0  0  0  0  0  0  0  0
    7.0654  -11.6504   26.2789 C   0  0  0  0  0  0  0  0  0  0  0  0
    7.3826  -12.1267   27.5304 C   0  0  0  0  0  0  0  0  0  0  0  0
    7.5091  -13.4883   27.6839 C   0  0  0  0  0  0  0  0  0  0  0  0
    7.3172  -14.3063   26.5986 C   0  0  0  0  0  0  0  0  0  0  0  0
    8.9796  -16.0737   24.6297 C   0  0  0  0  0  0  0  0  0  0  0  0
    8.7602  -17.2896   24.9894 O   0  0  0  0  0  0  0  0  0  0  0  0
   16.5758  -16.6633   25.9658 N   0  0  0  0  0  0  0  0  0  0  0  0
   16.4801  -16.1272   24.6439 C   0  0  0  0  0  0  0  0  0  0  0  0
   17.4462  -15.4044   24.2035 N   0  0  0  0  0  0  0  0  0  0  0  0
   15.3213  -16.4186   23.8772 N   0  0  0  0  0  0  0  0  0  0  0  0
   14.3642  -17.3583   24.4053 C   0  0  0  0  0  0  0  0  0  0  0  0
   13.6067  -16.6967   25.5623 C   0  0  0  0  0  0  0  0  0  0  0  0
   12.4831  -15.8858   25.0017 C   0  0  0  0  0  0  0  0  0  0  0  0
   11.1851  -16.2461   25.7109 C   0  0  2  0  0  0  0  0  0  0  0  0
   10.1092  -15.4125   25.1542 N   0  0  0  0  0  0  0  0  0  0  0  0
   11.3157  -16.0334   27.1495 C   0  0  0  0  0  0  0  0  0  0  0  0
   12.0069  -16.8612   28.0130 O   0  0  0  0  0  0  0  0  0  0  0  0
   10.7670  -15.0313   27.6789 O   0  0  0  0  0  0  0  0  0  0  0  0
  2  3  1  0
  2  1  1  1
  4  3  1  0
  5  2  1  0
  6  5  2  0
  7  5  1  0
  8  7  1  0
  9 10  1  0
  8  9  1  1
 10 15  2  0
 11 12  2  0
 11 10  1  0
 12 13  1  0
 13 14  2  0
 15 14  1  0
 16  8  1  0
 16 17  2  0
 19 20  2  0
 19 18  1  0
 21 19  1  0
 22 21  1  0
 23 22  1  0
 24 23  1  0
 25 24  1  6
 25 26  1  0
 26 16  1  0
 27 25  1  0
 28 27  1  0
 29 27  2  0
M  END
$$$$
