CFR.pdb
     RDKit          3D

 29 29  0  0  1  0  0  0  0  0999 V2000
   10.2904  -16.2572   19.1525 N   0  0  0  0  0  0  0  0  0  0  0  0
    8.9878  -16.2732   19.7890 C   0  0  1  0  0  0  0  0  0  0  0  0
    8.4940  -17.7065   19.7641 C   0  0  0  0  0  0  0  0  0  0  0  0
    7.8033  -18.0191   18.1228 S   0  0  0  0  0  0  0  0  0  0  0  0
    9.1592  -15.7678   21.1751 C   0  0  0  0  0  0  0  0  0  0  0  0
   10.2545  -15.9892   21.7513 O   0  0  0  0  0  0  0  0  0  0  0  0
    8.1609  -15.0609   21.8624 N   0  0  0  0  0  0  0  0  0  0  0  0
    8.3277  -14.6285   23.2675 C   0  0  1  0  0  0  0  0  0  0  0  0
    7.3766  -13.5359   23.5605 C   0  0  0  0  0  0  0  0  0  0  0  0
    7.3150  -13.0295   24.9275 C   0  0  0  0  0  0  0  0  0  0  0  0
    8.1932  -12.1589   25.5157 C   0  0  0  0  0  0  0  0  0  0  0  0
    8.0154  -11.7828   26.8336 C   0  0  0  0  0  0  0  0  0  0  0  0
    6.9779  -12.2444   27.6110 C   0  0  0  0  0  0  0  0  0  0  0  0
    6.0862  -13.1196   27.0343 C   0  0  0  0  0  0  0  0  0  0  0  0
    6.2640  -13.4928   25.7255 C   0  0  0  0  0  0  0  0  0  0  0  0
    8.2363  -15.8104   24.1384 C   0  0  0  0  0  0  0  0  0  0  0  0
    7.1575  -16.5117   24.1568 O   0  0  0  0  0  0  0  0  0  0  0  0
   14.5594  -20.5532   22.7749 N   0  0  0  0  0  0  0  0  0  0  0  0
   13.7854  -19.3598   22.9182 C   0  0  0  0  0  0  0  0  0  0  0  0
   14.3983  -18.2316   22.9546 N   0  0  0  0  0  0  0  0  0  0  0  0
   12.3735  -19.4757   23.0133 N   0  0  0  0  0  0  0  0  0  0  0  0
   11.7846  -19.6730   24.3140 C   0  0  0  0  0  0  0  0  0  0  0  0
   10.4727  -18.8835   24.3889 C   0  0  0  0  0  0  0  0  0  0  0  0
   10.3668  -18.2514   25.7393 C   0  0  0  0  0  0  0  0  0  0  0  0
    9.1107  -17.3941   25.8088 C   0  0  2  0  0  0  0  0  0  0  0  0
    9.3117  -16.2124   24.9569 N   0  0  0  0  0  0  0  0  0  0  0  0
    8.8397  -17.0001   27.1883 C   0  0  0  0  0  0  0  0  0  0  0  0
    8.1786  -17.7782   28.1190 O   0  0  0  0  0  0  0  0  0  0  0  0
    9.2200  -15.8707   27.5951 O   0  0  0  0  0  0  0  0  0  0  0  0
  2  3  1  0
  2  1  1  1
  4  3  1  0
  5  2  1  0
  6  5  2  0
  7  5  1  0
  8  7  1  0
  9 10  1  0
  8  9  1  1
 10 15  2  0
 11 12  2  0
 11 10  1  0
 12 13  1  0
 13 14  2  0
 15 14  1  0
 16  8  1  0
 16 17  2  0
 19 20  2  0
 19 18  1  0
 21 19  1  0
 22 21  1  0
 23 22  1  0
 24 23  1  0
 25 24  1  1
 25 26  1  0
 26 16  1  0
 27 25  1  0
 28 27  1  0
 29 27  2  0
M  END
$$$$
