CFR.pdb
     RDKit          3D

 29 29  0  0  1  0  0  0  0  0999 V2000
    7.0672  -15.2116   19.9160 N   0  0  0  0  0  0  0  0  0  0  0  0
    8.2980  -14.4560   20.0442 C   0  0  1  0  0  0  0  0  0  0  0  0
    8.0014  -13.0371   19.6000 C   0  0  0  0  0  0  0  0  0  0  0  0
    7.3513  -13.1155   17.9147 S   0  0  0  0  0  0  0  0  0  0  0  0
    8.7162  -14.5174   21.4680 C   0  0  0  0  0  0  0  0  0  0  0  0
    9.8437  -14.0510   21.7711 O   0  0  0  0  0  0  0  0  0  0  0  0
    7.9148  -15.0682   22.4795 N   0  0  0  0  0  0  0  0  0  0  0  0
    8.3716  -15.1600   23.8838 C   0  0  1  0  0  0  0  0  0  0  0  0
    7.2283  -14.9167   24.7882 C   0  0  0  0  0  0  0  0  0  0  0  0
    7.2393  -13.7006   25.5943 C   0  0  0  0  0  0  0  0  0  0  0  0
    8.1694  -13.3554   26.5382 C   0  0  0  0  0  0  0  0  0  0  0  0
    8.0357  -12.1724   27.2401 C   0  0  0  0  0  0  0  0  0  0  0  0
    6.9937  -11.2961   27.0398 C   0  0  0  0  0  0  0  0  0  0  0  0
    6.0509  -11.6282   26.0941 C   0  0  0  0  0  0  0  0  0  0  0  0
    6.1844  -12.8035   25.3979 C   0  0  0  0  0  0  0  0  0  0  0  0
    9.0755  -16.4384   24.0679 C   0  0  0  0  0  0  0  0  0  0  0  0
    8.5471  -17.5295   23.6364 O   0  0  0  0  0  0  0  0  0  0  0  0
   13.9854  -15.1099   20.0745 N   0  0  0  0  0  0  0  0  0  0  0  0
   14.8632  -14.8877   21.1808 C   0  0  0  0  0  0  0  0  0  0  0  0
   15.7308  -13.9444   21.0960 N   0  0  0  0  0  0  0  0  0  0  0  0
   14.7359  -15.7200   22.3239 N   0  0  0  0  0  0  0  0  0  0  0  0
   13.7898  -16.8067   22.2829 C   0  0  0  0  0  0  0  0  0  0  0  0
   12.9044  -16.7403   23.5326 C   0  0  0  0  0  0  0  0  0  0  0  0
   11.9332  -17.8759   23.4963 C   0  0  0  0  0  0  0  0  0  0  0  0
   11.0176  -17.8086   24.7108 C   0  0  2  0  0  0  0  0  0  0  0  0
   10.3337  -16.5068   24.7006 N   0  0  0  0  0  0  0  0  0  0  0  0
   11.7885  -17.9809   25.9388 C   0  0  0  0  0  0  0  0  0  0  0  0
   12.4528  -19.1368   26.3013 O   0  0  0  0  0  0  0  0  0  0  0  0
   11.8736  -17.0258   26.7549 O   0  0  0  0  0  0  0  0  0  0  0  0
  2  3  1  0
  2  1  1  1
  4  3  1  0
  5  2  1  0
  6  5  2  0
  7  5  1  0
  8  7  1  0
  9 10  1  0
  8  9  1  1
 10 15  2  0
 11 12  2  0
 11 10  1  0
 12 13  1  0
 13 14  2  0
 15 14  1  0
 16  8  1  0
 16 17  2  0
 19 20  2  0
 19 18  1  0
 21 19  1  0
 22 21  1  0
 23 22  1  0
 24 23  1  0
 25 24  1  6
 25 26  1  0
 26 16  1  0
 27 25  1  0
 28 27  1  0
 29 27  2  0
M  END
$$$$
