DDD.pdb
     RDKit          3D

 25 24  0  0  1  0  0  0  0  0999 V2000
    7.5177  -13.3401   15.1372 N   0  0  0  0  0  0  0  0  0  0  0  0
    8.1295  -14.5299   15.7081 C   0  0  1  0  0  0  0  0  0  0  0  0
    9.1763  -15.0329   14.7292 C   0  0  0  0  0  0  0  0  0  0  0  0
    8.4697  -15.4482   13.4931 C   0  0  0  0  0  0  0  0  0  0  0  0
    8.7165  -14.8627   12.4177 O   0  0  0  0  0  0  0  0  0  0  0  0
    8.7363  -14.2397   17.0267 C   0  0  0  0  0  0  0  0  0  0  0  0
    9.6028  -13.3478   17.1409 O   0  0  0  0  0  0  0  0  0  0  0  0
    7.5425  -16.4768   13.5253 O   0  0  0  0  0  0  0  0  0  0  0  0
    8.3358  -14.9729   18.1655 N   0  0  0  0  0  0  0  0  0  0  0  0
    8.8580  -14.6803   19.4796 C   0  0  1  0  0  0  0  0  0  0  0  0
    7.8424  -14.8302   20.5778 C   0  0  0  0  0  0  0  0  0  0  0  0
    8.3913  -14.4258   21.8942 C   0  0  0  0  0  0  0  0  0  0  0  0
    7.6803  -14.5463   22.9049 O   0  0  0  0  0  0  0  0  0  0  0  0
   10.0821  -15.4809   19.7444 C   0  0  0  0  0  0  0  0  0  0  0  0
   10.0255  -16.7235   19.5727 O   0  0  0  0  0  0  0  0  0  0  0  0
    9.6645  -13.9234   22.0092 O   0  0  0  0  0  0  0  0  0  0  0  0
   11.2957  -14.9123   20.1769 N   0  0  0  0  0  0  0  0  0  0  0  0
   12.4887  -15.7476   20.3940 C   0  0  1  0  0  0  0  0  0  0  0  0
   13.7186  -14.8863   20.2618 C   0  0  0  0  0  0  0  0  0  0  0  0
   13.9988  -14.5177   18.8868 C   0  0  0  0  0  0  0  0  0  0  0  0
   14.1107  -15.4343   18.0135 O   0  0  0  0  0  0  0  0  0  0  0  0
   12.4213  -16.1878   21.8307 C   0  0  0  0  0  0  0  0  0  0  0  0
   11.5086  -15.8107   22.6130 O   0  0  0  0  0  0  0  0  0  0  0  0
   14.1480  -13.1990   18.5060 O   0  0  0  0  0  0  0  0  0  0  0  0
   13.3957  -17.0335   22.2999 O   0  0  0  0  0  0  0  0  0  0  0  0
  2  1  1  6
  2  6  1  0
  3  2  1  0
  4  3  1  0
  5  4  2  0
  6  7  2  0
  8  4  1  0
  9  6  1  0
  9 10  1  0
 10 14  1  0
 10 11  1  1
 12 11  1  0
 13 12  2  0
 14 17  1  0
 15 14  2  0
 16 12  1  0
 17 18  1  0
 18 19  1  1
 19 20  1  0
 20 24  1  0
 21 20  2  0
 22 25  1  0
 22 18  1  0
 23 22  2  0
M  END
$$$$
