DDD.pdb
     RDKit          3D

 25 24  0  0  1  0  0  0  0  0999 V2000
   11.2347  -19.0089   19.1759 N   0  0  0  0  0  0  0  0  0  0  0  0
   11.0760  -17.5878   18.9094 C   0  0  1  0  0  0  0  0  0  0  0  0
    9.7806  -17.3982   18.1394 C   0  0  0  0  0  0  0  0  0  0  0  0
    9.8591  -18.2371   16.9188 C   0  0  0  0  0  0  0  0  0  0  0  0
   10.8916  -18.9041   16.6967 O   0  0  0  0  0  0  0  0  0  0  0  0
   11.0623  -16.8057   20.1660 C   0  0  0  0  0  0  0  0  0  0  0  0
   10.9831  -15.5598   20.1340 O   0  0  0  0  0  0  0  0  0  0  0  0
    8.7986  -18.2844   16.0290 O   0  0  0  0  0  0  0  0  0  0  0  0
   11.1385  -17.4678   21.4113 N   0  0  0  0  0  0  0  0  0  0  0  0
   11.1959  -16.7393   22.6567 C   0  0  1  0  0  0  0  0  0  0  0  0
   10.1841  -17.1982   23.6695 C   0  0  0  0  0  0  0  0  0  0  0  0
   10.2346  -16.3829   24.9066 C   0  0  0  0  0  0  0  0  0  0  0  0
   10.6333  -15.2091   24.8373 O   0  0  0  0  0  0  0  0  0  0  0  0
   12.5766  -16.7552   23.2070 C   0  0  0  0  0  0  0  0  0  0  0  0
   12.8154  -16.0626   24.2269 O   0  0  0  0  0  0  0  0  0  0  0  0
    9.8501  -16.9045   26.1177 O   0  0  0  0  0  0  0  0  0  0  0  0
   13.6232  -17.5074   22.6397 N   0  0  0  0  0  0  0  0  0  0  0  0
   15.0203  -17.2929   23.0525 C   0  0  1  0  0  0  0  0  0  0  0  0
   15.3627  -15.8354   22.8780 C   0  0  0  0  0  0  0  0  0  0  0  0
   16.2070  -15.5931   21.7232 C   0  0  0  0  0  0  0  0  0  0  0  0
   16.5810  -16.5800   21.0151 O   0  0  0  0  0  0  0  0  0  0  0  0
   15.0554  -17.5716   24.5301 C   0  0  0  0  0  0  0  0  0  0  0  0
   14.0096  -17.7009   25.2205 O   0  0  0  0  0  0  0  0  0  0  0  0
   16.6139  -14.3198   21.3775 O   0  0  0  0  0  0  0  0  0  0  0  0
   16.2785  -17.6883   25.1427 O   0  0  0  0  0  0  0  0  0  0  0  0
  2  1  1  1
  2  6  1  0
  3  2  1  0
  4  3  1  0
  5  4  2  0
  6  7  2  0
  8  4  1  0
  9  6  1  0
  9 10  1  0
 10 14  1  0
 10 11  1  1
 12 11  1  0
 13 12  2  0
 14 17  1  0
 15 14  2  0
 16 12  1  0
 17 18  1  0
 18 19  1  1
 19 20  1  0
 20 24  1  0
 21 20  2  0
 22 25  1  0
 22 18  1  0
 23 22  2  0
M  END
$$$$
