DDD.pdb
     RDKit          3D

 25 24  0  0  1  0  0  0  0  0999 V2000
    9.4115  -16.0828   17.5398 N   0  0  0  0  0  0  0  0  0  0  0  0
    9.9830  -14.7461   17.5871 C   0  0  1  0  0  0  0  0  0  0  0  0
    8.8566  -13.7484   17.3804 C   0  0  0  0  0  0  0  0  0  0  0  0
    8.2013  -14.0746   16.0904 C   0  0  0  0  0  0  0  0  0  0  0  0
    8.6266  -15.0317   15.4097 O   0  0  0  0  0  0  0  0  0  0  0  0
   10.6729  -14.5040   18.8741 C   0  0  0  0  0  0  0  0  0  0  0  0
   11.2113  -13.4010   19.1047 O   0  0  0  0  0  0  0  0  0  0  0  0
    7.1258  -13.3273   15.6396 O   0  0  0  0  0  0  0  0  0  0  0  0
   10.7248  -15.5231   19.8506 N   0  0  0  0  0  0  0  0  0  0  0  0
   11.5951  -15.4309   20.9992 C   0  0  1  0  0  0  0  0  0  0  0  0
   11.1467  -16.2705   22.1629 C   0  0  0  0  0  0  0  0  0  0  0  0
    9.8750  -15.7750   22.7416 C   0  0  0  0  0  0  0  0  0  0  0  0
    8.8015  -16.1437   22.2385 O   0  0  0  0  0  0  0  0  0  0  0  0
   13.0003  -15.7243   20.6136 C   0  0  0  0  0  0  0  0  0  0  0  0
   13.2672  -16.8709   20.1766 O   0  0  0  0  0  0  0  0  0  0  0  0
    9.8690  -14.9206   23.8171 O   0  0  0  0  0  0  0  0  0  0  0  0
   14.0402  -14.7802   20.7156 N   0  0  0  0  0  0  0  0  0  0  0  0
   15.4283  -15.1435   20.3849 C   0  0  1  0  0  0  0  0  0  0  0  0
   16.0886  -13.9750   19.6988 C   0  0  0  0  0  0  0  0  0  0  0  0
   15.7220  -13.8676   18.2991 C   0  0  0  0  0  0  0  0  0  0  0  0
   15.3184  -14.9054   17.6863 O   0  0  0  0  0  0  0  0  0  0  0  0
   16.1277  -15.3218   21.7046 C   0  0  0  0  0  0  0  0  0  0  0  0
   17.3400  -15.6537   21.7897 O   0  0  0  0  0  0  0  0  0  0  0  0
   15.8028  -12.6689   17.6188 O   0  0  0  0  0  0  0  0  0  0  0  0
   15.4102  -15.1126   22.8562 O   0  0  0  0  0  0  0  0  0  0  0  0
  2  1  1  1
  2  6  1  0
  3  2  1  0
  4  3  1  0
  5  4  2  0
  6  7  2  0
  8  4  1  0
  9  6  1  0
  9 10  1  0
 10 14  1  0
 10 11  1  1
 12 11  1  0
 13 12  2  0
 14 17  1  0
 15 14  2  0
 16 12  1  0
 17 18  1  0
 18 19  1  6
 19 20  1  0
 20 24  1  0
 21 20  2  0
 22 25  1  0
 22 18  1  0
 23 22  2  0
M  END
$$$$
