DDD.pdb
     RDKit          3D

 25 24  0  0  1  0  0  0  0  0999 V2000
   12.6732  -19.5176   18.8154 N   0  0  0  0  0  0  0  0  0  0  0  0
   13.6161  -18.4204   18.6640 C   0  0  1  0  0  0  0  0  0  0  0  0
   13.1237  -17.5333   17.5338 C   0  0  0  0  0  0  0  0  0  0  0  0
   13.4259  -18.2259   16.2575 C   0  0  0  0  0  0  0  0  0  0  0  0
   13.4420  -19.4744   16.2246 O   0  0  0  0  0  0  0  0  0  0  0  0
   13.7472  -17.6498   19.9210 C   0  0  0  0  0  0  0  0  0  0  0  0
   14.4764  -16.6371   19.9682 O   0  0  0  0  0  0  0  0  0  0  0  0
   13.6887  -17.4986   15.1083 O   0  0  0  0  0  0  0  0  0  0  0  0
   13.0449  -18.0579   21.0765 N   0  0  0  0  0  0  0  0  0  0  0  0
   13.1138  -17.3112   22.3105 C   0  0  1  0  0  0  0  0  0  0  0  0
   11.8602  -17.3961   23.1360 C   0  0  0  0  0  0  0  0  0  0  0  0
   10.7765  -16.5512   22.5798 C   0  0  0  0  0  0  0  0  0  0  0  0
   11.0452  -15.7507   21.6695 O   0  0  0  0  0  0  0  0  0  0  0  0
   14.3175  -17.7019   23.0901 C   0  0  0  0  0  0  0  0  0  0  0  0
   14.5976  -18.9231   23.1744 O   0  0  0  0  0  0  0  0  0  0  0  0
    9.4907  -16.6411   23.0545 O   0  0  0  0  0  0  0  0  0  0  0  0
   15.1535  -16.7700   23.7349 N   0  0  0  0  0  0  0  0  0  0  0  0
   16.3005  -17.2143   24.5443 C   0  0  1  0  0  0  0  0  0  0  0  0
   17.3064  -16.0944   24.6219 C   0  0  0  0  0  0  0  0  0  0  0  0
   17.9395  -15.8211   23.3454 C   0  0  0  0  0  0  0  0  0  0  0  0
   18.5966  -14.7427   23.2016 O   0  0  0  0  0  0  0  0  0  0  0  0
   15.7647  -17.4116   25.9358 C   0  0  0  0  0  0  0  0  0  0  0  0
   16.4381  -17.9563   26.8506 O   0  0  0  0  0  0  0  0  0  0  0  0
   17.8439  -16.7012   22.2858 O   0  0  0  0  0  0  0  0  0  0  0  0
   14.4915  -16.9782   26.2116 O   0  0  0  0  0  0  0  0  0  0  0  0
  2  1  1  1
  2  6  1  0
  3  2  1  0
  4  3  1  0
  5  4  2  0
  6  7  2  0
  8  4  1  0
  9  6  1  0
  9 10  1  0
 10 14  1  0
 10 11  1  1
 12 11  1  0
 13 12  2  0
 14 17  1  0
 15 14  2  0
 16 12  1  0
 17 18  1  0
 18 19  1  1
 19 20  1  0
 20 24  1  0
 21 20  2  0
 22 25  1  0
 22 18  1  0
 23 22  2  0
M  END
$$$$
