DDD.pdb
     RDKit          3D

 25 24  0  0  1  0  0  0  0  0999 V2000
   14.2886  -15.3312   16.2412 N   0  0  0  0  0  0  0  0  0  0  0  0
   14.9896  -14.7731   17.3870 C   0  0  1  0  0  0  0  0  0  0  0  0
   15.6250  -13.4633   16.9538 C   0  0  0  0  0  0  0  0  0  0  0  0
   16.5945  -13.7719   15.8746 C   0  0  0  0  0  0  0  0  0  0  0  0
   16.5275  -14.8703   15.2838 O   0  0  0  0  0  0  0  0  0  0  0  0
   14.0692  -14.5616   18.5268 C   0  0  0  0  0  0  0  0  0  0  0  0
   14.4953  -14.0983   19.6054 O   0  0  0  0  0  0  0  0  0  0  0  0
   17.5684  -12.8527   15.5206 O   0  0  0  0  0  0  0  0  0  0  0  0
   12.7001  -14.8839   18.3986 N   0  0  0  0  0  0  0  0  0  0  0  0
   11.7914  -14.7974   19.5175 C   0  0  1  0  0  0  0  0  0  0  0  0
   10.3513  -15.0082   19.1409 C   0  0  0  0  0  0  0  0  0  0  0  0
    9.4495  -14.8588   20.3080 C   0  0  0  0  0  0  0  0  0  0  0  0
    9.9449  -14.6647   21.4298 O   0  0  0  0  0  0  0  0  0  0  0  0
   12.2182  -15.7129   20.6079 C   0  0  0  0  0  0  0  0  0  0  0  0
   12.1485  -16.9499   20.4036 O   0  0  0  0  0  0  0  0  0  0  0  0
    8.0853  -14.9323   20.1659 O   0  0  0  0  0  0  0  0  0  0  0  0
   12.6946  -15.2586   21.8529 N   0  0  0  0  0  0  0  0  0  0  0  0
   13.0602  -16.2088   22.9166 C   0  0  1  0  0  0  0  0  0  0  0  0
   14.3003  -15.7092   23.6127 C   0  0  0  0  0  0  0  0  0  0  0  0
   15.4866  -15.8096   22.7836 C   0  0  0  0  0  0  0  0  0  0  0  0
   15.6891  -16.8771   22.1241 O   0  0  0  0  0  0  0  0  0  0  0  0
   11.9436  -16.1433   23.9222 C   0  0  0  0  0  0  0  0  0  0  0  0
   10.9984  -15.3153   23.8325 O   0  0  0  0  0  0  0  0  0  0  0  0
   16.3989  -14.7770   22.6956 O   0  0  0  0  0  0  0  0  0  0  0  0
   11.9624  -17.0235   24.9756 O   0  0  0  0  0  0  0  0  0  0  0  0
  2  1  1  6
  2  6  1  0
  3  2  1  0
  4  3  1  0
  5  4  2  0
  6  7  2  0
  8  4  1  0
  9  6  1  0
  9 10  1  0
 10 14  1  0
 10 11  1  6
 12 11  1  0
 13 12  2  0
 14 17  1  0
 15 14  2  0
 16 12  1  0
 17 18  1  0
 18 19  1  1
 19 20  1  0
 20 24  1  0
 21 20  2  0
 22 25  1  0
 22 18  1  0
 23 22  2  0
M  END
$$$$
