DDD.pdb
     RDKit          3D

 25 24  0  0  1  0  0  0  0  0999 V2000
    8.2684  -17.0413   16.6635 N   0  0  0  0  0  0  0  0  0  0  0  0
    7.8067  -18.0631   17.5900 C   0  0  1  0  0  0  0  0  0  0  0  0
    7.0990  -19.1390   16.7847 C   0  0  0  0  0  0  0  0  0  0  0  0
    6.2581  -18.4580   15.7704 C   0  0  0  0  0  0  0  0  0  0  0  0
    6.5354  -17.2899   15.4260 O   0  0  0  0  0  0  0  0  0  0  0  0
    8.9334  -18.6358   18.3604 C   0  0  0  0  0  0  0  0  0  0  0  0
    8.7325  -19.5454   19.1921 O   0  0  0  0  0  0  0  0  0  0  0  0
    5.1728  -19.1079   15.2061 O   0  0  0  0  0  0  0  0  0  0  0  0
   10.2455  -18.1543   18.1570 N   0  0  0  0  0  0  0  0  0  0  0  0
   11.3708  -18.6817   18.8924 C   0  0  1  0  0  0  0  0  0  0  0  0
   12.6033  -18.8707   18.0526 C   0  0  0  0  0  0  0  0  0  0  0  0
   13.7192  -19.4530   18.8358 C   0  0  0  0  0  0  0  0  0  0  0  0
   13.5101  -20.4712   19.5148 O   0  0  0  0  0  0  0  0  0  0  0  0
   11.6424  -17.8524   20.0956 C   0  0  0  0  0  0  0  0  0  0  0  0
   11.8110  -16.6181   19.9381 O   0  0  0  0  0  0  0  0  0  0  0  0
   14.9700  -18.8855   18.8207 O   0  0  0  0  0  0  0  0  0  0  0  0
   11.7189  -18.3850   21.3970 N   0  0  0  0  0  0  0  0  0  0  0  0
   11.9554  -17.5130   22.5597 C   0  0  1  0  0  0  0  0  0  0  0  0
   11.3817  -18.1712   23.7883 C   0  0  0  0  0  0  0  0  0  0  0  0
   11.6046  -17.3961   24.9944 C   0  0  0  0  0  0  0  0  0  0  0  0
   11.7277  -18.0040   26.1037 O   0  0  0  0  0  0  0  0  0  0  0  0
   13.4476  -17.4773   22.7449 C   0  0  0  0  0  0  0  0  0  0  0  0
   14.1875  -18.4611   22.4770 O   0  0  0  0  0  0  0  0  0  0  0  0
   11.6841  -16.0180   24.9659 O   0  0  0  0  0  0  0  0  0  0  0  0
   14.0177  -16.3242   23.2246 O   0  0  0  0  0  0  0  0  0  0  0  0
  2  1  1  6
  2  6  1  0
  3  2  1  0
  4  3  1  0
  5  4  2  0
  6  7  2  0
  8  4  1  0
  9  6  1  0
  9 10  1  0
 10 14  1  0
 10 11  1  6
 12 11  1  0
 13 12  2  0
 14 17  1  0
 15 14  2  0
 16 12  1  0
 17 18  1  0
 18 19  1  1
 19 20  1  0
 20 24  1  0
 21 20  2  0
 22 25  1  0
 22 18  1  0
 23 22  2  0
M  END
$$$$
