DDD.pdb
     RDKit          3D

 25 24  0  0  1  0  0  0  0  0999 V2000
    9.5598  -18.0461   17.9986 N   0  0  0  0  0  0  0  0  0  0  0  0
    9.7687  -16.6230   17.7819 C   0  0  1  0  0  0  0  0  0  0  0  0
    8.4663  -16.0319   17.2706 C   0  0  0  0  0  0  0  0  0  0  0  0
    8.2129  -16.6041   15.9260 C   0  0  0  0  0  0  0  0  0  0  0  0
    8.0053  -17.8302   15.8089 O   0  0  0  0  0  0  0  0  0  0  0  0
   10.2010  -15.9496   19.0272 C   0  0  0  0  0  0  0  0  0  0  0  0
   10.4983  -14.7368   19.0191 O   0  0  0  0  0  0  0  0  0  0  0  0
    8.2052  -15.7897   14.8056 O   0  0  0  0  0  0  0  0  0  0  0  0
   10.2787  -16.6787   20.2343 N   0  0  0  0  0  0  0  0  0  0  0  0
   10.8433  -16.1050   21.4332 C   0  0  1  0  0  0  0  0  0  0  0  0
   10.1332  -16.5206   22.6914 C   0  0  0  0  0  0  0  0  0  0  0  0
   10.7710  -15.9448   23.8994 C   0  0  0  0  0  0  0  0  0  0  0  0
   11.2413  -14.7972   23.8419 O   0  0  0  0  0  0  0  0  0  0  0  0
   12.3026  -16.3785   21.5049 C   0  0  0  0  0  0  0  0  0  0  0  0
   12.7280  -17.4543   21.0167 O   0  0  0  0  0  0  0  0  0  0  0  0
   10.8482  -16.6581   25.0707 O   0  0  0  0  0  0  0  0  0  0  0  0
   13.2246  -15.4909   22.0925 N   0  0  0  0  0  0  0  0  0  0  0  0
   14.6725  -15.7511   22.0289 C   0  0  1  0  0  0  0  0  0  0  0  0
   15.3908  -14.4529   21.7629 C   0  0  0  0  0  0  0  0  0  0  0  0
   16.8246  -14.6248   21.6232 C   0  0  0  0  0  0  0  0  0  0  0  0
   17.5984  -14.0390   22.4439 O   0  0  0  0  0  0  0  0  0  0  0  0
   15.0684  -16.1888   23.4125 C   0  0  0  0  0  0  0  0  0  0  0  0
   14.2871  -16.1104   24.3977 O   0  0  0  0  0  0  0  0  0  0  0  0
   17.3668  -15.4057   20.6220 O   0  0  0  0  0  0  0  0  0  0  0  0
   16.3317  -16.6922   23.6005 O   0  0  0  0  0  0  0  0  0  0  0  0
  2  1  1  1
  2  6  1  0
  3  2  1  0
  4  3  1  0
  5  4  2  0
  6  7  2  0
  8  4  1  0
  9  6  1  0
  9 10  1  0
 10 14  1  0
 10 11  1  1
 12 11  1  0
 13 12  2  0
 14 17  1  0
 15 14  2  0
 16 12  1  0
 17 18  1  0
 18 19  1  1
 19 20  1  0
 20 24  1  0
 21 20  2  0
 22 25  1  0
 22 18  1  0
 23 22  2  0
M  END
$$$$
