DDD.pdb
     RDKit          3D

 25 24  0  0  1  0  0  0  0  0999 V2000
   12.0871  -17.7839   21.6720 N   0  0  0  0  0  0  0  0  0  0  0  0
   10.9325  -16.9799   22.0407 C   0  0  1  0  0  0  0  0  0  0  0  0
    9.8545  -17.2021   20.9940 C   0  0  0  0  0  0  0  0  0  0  0  0
   10.3562  -16.6515   19.7115 C   0  0  0  0  0  0  0  0  0  0  0  0
   11.3933  -17.1265   19.2026 O   0  0  0  0  0  0  0  0  0  0  0  0
   10.4398  -17.3376   23.3899 C   0  0  0  0  0  0  0  0  0  0  0  0
    9.4028  -16.8106   23.8441 O   0  0  0  0  0  0  0  0  0  0  0  0
    9.6836  -15.6192   19.0787 O   0  0  0  0  0  0  0  0  0  0  0  0
   11.1429  -18.2804   24.1719 N   0  0  0  0  0  0  0  0  0  0  0  0
   10.6940  -18.6591   25.4911 C   0  0  1  0  0  0  0  0  0  0  0  0
   11.0444  -20.0728   25.8633 C   0  0  0  0  0  0  0  0  0  0  0  0
   10.5131  -20.4385   27.1980 C   0  0  0  0  0  0  0  0  0  0  0  0
    9.3167  -20.2214   27.4492 O   0  0  0  0  0  0  0  0  0  0  0  0
   11.1743  -17.6842   26.5051 C   0  0  0  0  0  0  0  0  0  0  0  0
   12.3759  -17.3230   26.4564 O   0  0  0  0  0  0  0  0  0  0  0  0
   11.3199  -21.0087   28.1523 O   0  0  0  0  0  0  0  0  0  0  0  0
   10.3476  -17.1504   27.5125 N   0  0  0  0  0  0  0  0  0  0  0  0
   10.8671  -16.1649   28.4754 C   0  0  1  0  0  0  0  0  0  0  0  0
    9.8051  -15.1265   28.7321 C   0  0  0  0  0  0  0  0  0  0  0  0
    9.6976  -14.1581   27.6572 C   0  0  0  0  0  0  0  0  0  0  0  0
   10.5018  -14.2345   26.6760 O   0  0  0  0  0  0  0  0  0  0  0  0
   11.0576  -16.9165   29.7643 C   0  0  0  0  0  0  0  0  0  0  0  0
   10.6112  -18.0811   29.9421 O   0  0  0  0  0  0  0  0  0  0  0  0
    8.7464  -13.1574   27.6757 O   0  0  0  0  0  0  0  0  0  0  0  0
   11.7460  -16.3029   30.7813 O   0  0  0  0  0  0  0  0  0  0  0  0
  2  1  1  6
  2  6  1  0
  3  2  1  0
  4  3  1  0
  5  4  2  0
  6  7  2  0
  8  4  1  0
  9  6  1  0
  9 10  1  0
 10 14  1  0
 10 11  1  1
 12 11  1  0
 13 12  2  0
 14 17  1  0
 15 14  2  0
 16 12  1  0
 17 18  1  0
 18 19  1  1
 19 20  1  0
 20 24  1  0
 21 20  2  0
 22 25  1  0
 22 18  1  0
 23 22  2  0
M  END
$$$$
