DDD.pdb
     RDKit          3D

 25 24  0  0  1  0  0  0  0  0999 V2000
    9.2811  -18.5408   18.3354 N   0  0  0  0  0  0  0  0  0  0  0  0
    9.6782  -17.1420   18.2966 C   0  0  1  0  0  0  0  0  0  0  0  0
    8.4957  -16.3342   17.7905 C   0  0  0  0  0  0  0  0  0  0  0  0
    8.2676  -16.7140   16.3751 C   0  0  0  0  0  0  0  0  0  0  0  0
    8.2638  -17.9215   16.0556 O   0  0  0  0  0  0  0  0  0  0  0  0
   10.1070  -16.6699   19.6323 C   0  0  0  0  0  0  0  0  0  0  0  0
   10.5047  -15.4966   19.7901 O   0  0  0  0  0  0  0  0  0  0  0  0
    8.0596  -15.7413   15.4111 O   0  0  0  0  0  0  0  0  0  0  0  0
   10.0675  -17.5475   20.7382 N   0  0  0  0  0  0  0  0  0  0  0  0
   10.5461  -17.1496   22.0412 C   0  0  1  0  0  0  0  0  0  0  0  0
    9.8276  -17.8224   23.1775 C   0  0  0  0  0  0  0  0  0  0  0  0
   10.3214  -17.3550   24.4948 C   0  0  0  0  0  0  0  0  0  0  0  0
   11.2734  -17.9495   25.0257 O   0  0  0  0  0  0  0  0  0  0  0  0
   12.0187  -17.3295   22.1332 C   0  0  0  0  0  0  0  0  0  0  0  0
   12.5369  -18.2933   21.5173 O   0  0  0  0  0  0  0  0  0  0  0  0
    9.7442  -16.2827   25.1304 O   0  0  0  0  0  0  0  0  0  0  0  0
   12.8544  -16.4731   22.8756 N   0  0  0  0  0  0  0  0  0  0  0  0
   14.3160  -16.6517   22.8732 C   0  0  1  0  0  0  0  0  0  0  0  0
   14.9652  -15.3586   22.4509 C   0  0  0  0  0  0  0  0  0  0  0  0
   16.4004  -15.4828   22.2786 C   0  0  0  0  0  0  0  0  0  0  0  0
   16.8791  -16.5882   21.8730 O   0  0  0  0  0  0  0  0  0  0  0  0
   14.7005  -16.8799   24.3093 C   0  0  0  0  0  0  0  0  0  0  0  0
   15.8569  -17.2442   24.6516 O   0  0  0  0  0  0  0  0  0  0  0  0
   17.2561  -14.4326   22.5456 O   0  0  0  0  0  0  0  0  0  0  0  0
   13.7488  -16.6813   25.2785 O   0  0  0  0  0  0  0  0  0  0  0  0
  2  1  1  1
  2  6  1  0
  3  2  1  0
  4  3  1  0
  5  4  2  0
  6  7  2  0
  8  4  1  0
  9  6  1  0
  9 10  1  0
 10 14  1  0
 10 11  1  1
 12 11  1  0
 13 12  2  0
 14 17  1  0
 15 14  2  0
 16 12  1  0
 17 18  1  0
 18 19  1  1
 19 20  1  0
 20 24  1  0
 21 20  2  0
 22 25  1  0
 22 18  1  0
 23 22  2  0
M  END
$$$$
