DDD.pdb
     RDKit          3D

 25 24  0  0  1  0  0  0  0  0999 V2000
    9.6699  -14.1805   17.8242 N   0  0  0  0  0  0  0  0  0  0  0  0
    8.7058  -13.6821   18.7927 C   0  0  1  0  0  0  0  0  0  0  0  0
    7.4149  -13.3769   18.0528 C   0  0  0  0  0  0  0  0  0  0  0  0
    7.6121  -13.7587   16.6332 C   0  0  0  0  0  0  0  0  0  0  0  0
    8.7310  -14.1664   16.2561 O   0  0  0  0  0  0  0  0  0  0  0  0
    8.4746  -14.6669   19.8733 C   0  0  0  0  0  0  0  0  0  0  0  0
    7.8422  -14.3416   20.8998 O   0  0  0  0  0  0  0  0  0  0  0  0
    6.5671  -13.6662   15.7288 O   0  0  0  0  0  0  0  0  0  0  0  0
    8.9697  -15.9836   19.7472 N   0  0  0  0  0  0  0  0  0  0  0  0
    8.8269  -16.9536   20.8074 C   0  0  1  0  0  0  0  0  0  0  0  0
    8.3275  -18.2910   20.3362 C   0  0  0  0  0  0  0  0  0  0  0  0
    7.0874  -18.1640   19.5338 C   0  0  0  0  0  0  0  0  0  0  0  0
    6.1154  -17.5636   20.0200 O   0  0  0  0  0  0  0  0  0  0  0  0
   10.0927  -17.0751   21.5769 C   0  0  0  0  0  0  0  0  0  0  0  0
   10.2738  -18.1140   22.2586 O   0  0  0  0  0  0  0  0  0  0  0  0
    7.0002  -18.6976   18.2711 O   0  0  0  0  0  0  0  0  0  0  0  0
   11.0927  -16.0834   21.5764 N   0  0  0  0  0  0  0  0  0  0  0  0
   12.3122  -16.2370   22.3872 C   0  0  1  0  0  0  0  0  0  0  0  0
   13.3128  -15.1909   21.9671 C   0  0  0  0  0  0  0  0  0  0  0  0
   13.7886  -15.3842   20.6102 C   0  0  0  0  0  0  0  0  0  0  0  0
   13.8426  -16.5630   20.1381 O   0  0  0  0  0  0  0  0  0  0  0  0
   11.9074  -15.9067   23.7977 C   0  0  0  0  0  0  0  0  0  0  0  0
   10.8303  -15.3139   24.0725 O   0  0  0  0  0  0  0  0  0  0  0  0
   14.1846  -14.3214   19.8228 O   0  0  0  0  0  0  0  0  0  0  0  0
   12.7497  -16.2689   24.8195 O   0  0  0  0  0  0  0  0  0  0  0  0
  2  1  1  6
  2  6  1  0
  3  2  1  0
  4  3  1  0
  5  4  2  0
  6  7  2  0
  8  4  1  0
  9  6  1  0
  9 10  1  0
 10 14  1  0
 10 11  1  6
 12 11  1  0
 13 12  2  0
 14 17  1  0
 15 14  2  0
 16 12  1  0
 17 18  1  0
 18 19  1  6
 19 20  1  0
 20 24  1  0
 21 20  2  0
 22 25  1  0
 22 18  1  0
 23 22  2  0
M  END
$$$$
