DDD.pdb
     RDKit          3D

 25 24  0  0  1  0  0  0  0  0999 V2000
    9.5650  -12.9419   17.3777 N   0  0  0  0  0  0  0  0  0  0  0  0
    8.3744  -13.0046   18.2109 C   0  0  1  0  0  0  0  0  0  0  0  0
    7.1740  -13.1869   17.2982 C   0  0  0  0  0  0  0  0  0  0  0  0
    7.5092  -14.2563   16.3267 C   0  0  0  0  0  0  0  0  0  0  0  0
    8.6206  -14.8223   16.3948 O   0  0  0  0  0  0  0  0  0  0  0  0
    8.4646  -14.1100   19.1912 C   0  0  0  0  0  0  0  0  0  0  0  0
    7.5435  -14.3032   20.0121 O   0  0  0  0  0  0  0  0  0  0  0  0
    6.6005  -14.6285   15.3499 O   0  0  0  0  0  0  0  0  0  0  0  0
    9.5969  -14.9542   19.2020 N   0  0  0  0  0  0  0  0  0  0  0  0
    9.7507  -16.0061   20.1793 C   0  0  1  0  0  0  0  0  0  0  0  0
    8.9544  -17.2416   19.8640 C   0  0  0  0  0  0  0  0  0  0  0  0
    9.1486  -18.2975   20.8862 C   0  0  0  0  0  0  0  0  0  0  0  0
    8.7144  -18.1103   22.0343 O   0  0  0  0  0  0  0  0  0  0  0  0
   11.1892  -16.3139   20.3920 C   0  0  0  0  0  0  0  0  0  0  0  0
   11.7425  -17.1268   19.6111 O   0  0  0  0  0  0  0  0  0  0  0  0
    9.7974  -19.4696   20.5828 O   0  0  0  0  0  0  0  0  0  0  0  0
   11.9556  -15.7386   21.4240 N   0  0  0  0  0  0  0  0  0  0  0  0
   13.3870  -16.0520   21.5694 C   0  0  1  0  0  0  0  0  0  0  0  0
   14.1886  -14.7996   21.3226 C   0  0  0  0  0  0  0  0  0  0  0  0
   14.6383  -14.6846   19.9480 C   0  0  0  0  0  0  0  0  0  0  0  0
   14.5519  -15.6970   19.1845 O   0  0  0  0  0  0  0  0  0  0  0  0
   13.5799  -16.4107   23.0174 C   0  0  0  0  0  0  0  0  0  0  0  0
   12.6685  -16.2751   23.8765 O   0  0  0  0  0  0  0  0  0  0  0  0
   15.1578  -13.5056   19.4517 O   0  0  0  0  0  0  0  0  0  0  0  0
   14.7993  -16.9046   23.4098 O   0  0  0  0  0  0  0  0  0  0  0  0
  2  1  1  6
  2  6  1  0
  3  2  1  0
  4  3  1  0
  5  4  2  0
  6  7  2  0
  8  4  1  0
  9  6  1  0
  9 10  1  0
 10 14  1  0
 10 11  1  6
 12 11  1  0
 13 12  2  0
 14 17  1  0
 15 14  2  0
 16 12  1  0
 17 18  1  0
 18 19  1  1
 19 20  1  0
 20 24  1  0
 21 20  2  0
 22 25  1  0
 22 18  1  0
 23 22  2  0
M  END
$$$$
