DDD.pdb
     RDKit          3D

 25 24  0  0  1  0  0  0  0  0999 V2000
   11.3702  -19.2267   17.6884 N   0  0  0  0  0  0  0  0  0  0  0  0
   11.1382  -17.7918   17.7443 C   0  0  1  0  0  0  0  0  0  0  0  0
   10.2724  -17.4115   16.5557 C   0  0  0  0  0  0  0  0  0  0  0  0
   10.8597  -18.0494   15.3523 C   0  0  0  0  0  0  0  0  0  0  0  0
   11.8439  -18.8082   15.4773 O   0  0  0  0  0  0  0  0  0  0  0  0
   10.4883  -17.4037   19.0163 C   0  0  0  0  0  0  0  0  0  0  0  0
   10.2714  -16.2011   19.2738 O   0  0  0  0  0  0  0  0  0  0  0  0
   10.3246  -17.8091   14.0975 O   0  0  0  0  0  0  0  0  0  0  0  0
   10.1089  -18.3957   19.9473 N   0  0  0  0  0  0  0  0  0  0  0  0
    9.4276  -18.0631   21.1763 C   0  0  1  0  0  0  0  0  0  0  0  0
    8.3233  -19.0199   21.5301 C   0  0  0  0  0  0  0  0  0  0  0  0
    7.4292  -19.2794   20.3765 C   0  0  0  0  0  0  0  0  0  0  0  0
    7.0935  -18.3299   19.6503 O   0  0  0  0  0  0  0  0  0  0  0  0
   10.4026  -17.9076   22.2874 C   0  0  0  0  0  0  0  0  0  0  0  0
    9.9551  -17.7479   23.4498 O   0  0  0  0  0  0  0  0  0  0  0  0
    6.9709  -20.5452   20.1033 O   0  0  0  0  0  0  0  0  0  0  0  0
   11.7977  -17.9310   22.0969 N   0  0  0  0  0  0  0  0  0  0  0  0
   12.7202  -17.7898   23.2358 C   0  0  1  0  0  0  0  0  0  0  0  0
   14.0213  -18.4716   22.8978 C   0  0  0  0  0  0  0  0  0  0  0  0
   14.9502  -18.4892   24.0122 C   0  0  0  0  0  0  0  0  0  0  0  0
   14.5668  -18.0490   25.1411 O   0  0  0  0  0  0  0  0  0  0  0  0
   13.0169  -16.3188   23.3393 C   0  0  0  0  0  0  0  0  0  0  0  0
   12.9698  -15.5463   22.3452 O   0  0  0  0  0  0  0  0  0  0  0  0
   16.2373  -18.9696   23.8752 O   0  0  0  0  0  0  0  0  0  0  0  0
   13.3510  -15.8059   24.5682 O   0  0  0  0  0  0  0  0  0  0  0  0
  2  1  1  1
  2  6  1  0
  3  2  1  0
  4  3  1  0
  5  4  2  0
  6  7  2  0
  8  4  1  0
  9  6  1  0
  9 10  1  0
 10 14  1  0
 10 11  1  1
 12 11  1  0
 13 12  2  0
 14 17  1  0
 15 14  2  0
 16 12  1  0
 17 18  1  0
 18 19  1  6
 19 20  1  0
 20 24  1  0
 21 20  2  0
 22 25  1  0
 22 18  1  0
 23 22  2  0
M  END
$$$$
