DDD.pdb
     RDKit          3D

 25 24  0  0  1  0  0  0  0  0999 V2000
    9.4606  -18.8044   15.6568 N   0  0  0  0  0  0  0  0  0  0  0  0
    9.0923  -17.5079   16.2039 C   0  0  1  0  0  0  0  0  0  0  0  0
    7.6834  -17.1864   15.7365 C   0  0  0  0  0  0  0  0  0  0  0  0
    7.7562  -16.8533   14.2930 C   0  0  0  0  0  0  0  0  0  0  0  0
    8.6887  -17.3150   13.6020 O   0  0  0  0  0  0  0  0  0  0  0  0
    9.1707  -17.5087   17.6820 C   0  0  0  0  0  0  0  0  0  0  0  0
    8.9988  -16.4517   18.3244 O   0  0  0  0  0  0  0  0  0  0  0  0
    6.8001  -16.0376   13.7108 O   0  0  0  0  0  0  0  0  0  0  0  0
    9.4408  -18.7096   18.3747 N   0  0  0  0  0  0  0  0  0  0  0  0
    9.4867  -18.7607   19.8171 C   0  0  1  0  0  0  0  0  0  0  0  0
    9.0404  -20.0783   20.3870 C   0  0  0  0  0  0  0  0  0  0  0  0
    7.7616  -20.5316   19.7896 C   0  0  0  0  0  0  0  0  0  0  0  0
    7.7190  -20.7745   18.5728 O   0  0  0  0  0  0  0  0  0  0  0  0
   10.8340  -18.3722   20.3100 C   0  0  0  0  0  0  0  0  0  0  0  0
   11.6749  -19.2821   20.5143 O   0  0  0  0  0  0  0  0  0  0  0  0
    6.6332  -20.6846   20.5578 O   0  0  0  0  0  0  0  0  0  0  0  0
   11.2084  -17.0372   20.5571 N   0  0  0  0  0  0  0  0  0  0  0  0
   11.5755  -16.5918   21.9117 C   0  0  1  0  0  0  0  0  0  0  0  0
   10.3793  -16.7427   22.8162 C   0  0  0  0  0  0  0  0  0  0  0  0
   10.6521  -16.3273   24.1793 C   0  0  0  0  0  0  0  0  0  0  0  0
   11.8368  -15.9938   24.4965 O   0  0  0  0  0  0  0  0  0  0  0  0
   12.6099  -17.5708   22.3956 C   0  0  0  0  0  0  0  0  0  0  0  0
   12.3563  -18.7918   22.5742 O   0  0  0  0  0  0  0  0  0  0  0  0
    9.6588  -16.2875   25.1374 O   0  0  0  0  0  0  0  0  0  0  0  0
   13.8771  -17.1078   22.6500 O   0  0  0  0  0  0  0  0  0  0  0  0
  2  1  1  1
  2  6  1  0
  3  2  1  0
  4  3  1  0
  5  4  2  0
  6  7  2  0
  8  4  1  0
  9  6  1  0
  9 10  1  0
 10 14  1  0
 10 11  1  6
 12 11  1  0
 13 12  2  0
 14 17  1  0
 15 14  2  0
 16 12  1  0
 17 18  1  0
 18 19  1  1
 19 20  1  0
 20 24  1  0
 21 20  2  0
 22 25  1  0
 22 18  1  0
 23 22  2  0
M  END
$$$$
