DDD.pdb
     RDKit          3D

 25 24  0  0  1  0  0  0  0  0999 V2000
    9.7558  -14.4131   16.3442 N   0  0  0  0  0  0  0  0  0  0  0  0
   10.0202  -15.7791   16.7683 C   0  0  1  0  0  0  0  0  0  0  0  0
    9.9770  -16.6676   15.5372 C   0  0  0  0  0  0  0  0  0  0  0  0
    8.8298  -16.2262   14.7072 C   0  0  0  0  0  0  0  0  0  0  0  0
    8.7536  -15.0320   14.3492 O   0  0  0  0  0  0  0  0  0  0  0  0
   11.3302  -15.8842   17.4493 C   0  0  0  0  0  0  0  0  0  0  0  0
   11.7412  -16.9890   17.8615 O   0  0  0  0  0  0  0  0  0  0  0  0
    7.8480  -17.1271   14.3291 O   0  0  0  0  0  0  0  0  0  0  0  0
   12.1240  -14.7310   17.6361 N   0  0  0  0  0  0  0  0  0  0  0  0
   13.4443  -14.8035   18.2164 C   0  0  1  0  0  0  0  0  0  0  0  0
   14.4147  -13.8167   17.6293 C   0  0  0  0  0  0  0  0  0  0  0  0
   15.8042  -14.0799   18.0739 C   0  0  0  0  0  0  0  0  0  0  0  0
   16.4649  -13.1502   18.5644 O   0  0  0  0  0  0  0  0  0  0  0  0
   13.3700  -14.6930   19.6968 C   0  0  0  0  0  0  0  0  0  0  0  0
   13.4407  -13.5489   20.2094 O   0  0  0  0  0  0  0  0  0  0  0  0
   16.3653  -15.3276   17.9509 O   0  0  0  0  0  0  0  0  0  0  0  0
   13.2247  -15.8070   20.5461 N   0  0  0  0  0  0  0  0  0  0  0  0
   13.2750  -15.6553   22.0098 C   0  0  1  0  0  0  0  0  0  0  0  0
   12.1928  -16.5043   22.6261 C   0  0  0  0  0  0  0  0  0  0  0  0
   12.1737  -16.4225   24.0746 C   0  0  0  0  0  0  0  0  0  0  0  0
   12.9406  -15.5917   24.6551 O   0  0  0  0  0  0  0  0  0  0  0  0
   14.5883  -16.2521   22.4359 C   0  0  0  0  0  0  0  0  0  0  0  0
   15.2379  -17.0499   21.7089 O   0  0  0  0  0  0  0  0  0  0  0  0
   11.3460  -17.2244   24.8349 O   0  0  0  0  0  0  0  0  0  0  0  0
   15.0918  -15.9089   23.6661 O   0  0  0  0  0  0  0  0  0  0  0  0
  2  1  1  6
  2  6  1  0
  3  2  1  0
  4  3  1  0
  5  4  2  0
  6  7  2  0
  8  4  1  0
  9  6  1  0
  9 10  1  0
 10 14  1  0
 10 11  1  6
 12 11  1  0
 13 12  2  0
 14 17  1  0
 15 14  2  0
 16 12  1  0
 17 18  1  0
 18 19  1  1
 19 20  1  0
 20 24  1  0
 21 20  2  0
 22 25  1  0
 22 18  1  0
 23 22  2  0
M  END
$$$$
