DDD.pdb
     RDKit          3D

 25 24  0  0  1  0  0  0  0  0999 V2000
    9.8258  -17.4705   21.1743 N   0  0  0  0  0  0  0  0  0  0  0  0
   10.8575  -17.4897   22.1995 C   0  0  1  0  0  0  0  0  0  0  0  0
   11.6706  -16.2135   22.0684 C   0  0  0  0  0  0  0  0  0  0  0  0
   12.3717  -16.2620   20.7623 C   0  0  0  0  0  0  0  0  0  0  0  0
   12.9765  -17.3024   20.4276 O   0  0  0  0  0  0  0  0  0  0  0  0
   10.2664  -17.6023   23.5518 C   0  0  0  0  0  0  0  0  0  0  0  0
    9.3253  -16.8563   23.8942 O   0  0  0  0  0  0  0  0  0  0  0  0
   12.3586  -15.1653   19.9164 O   0  0  0  0  0  0  0  0  0  0  0  0
   10.7660  -18.5580   24.4640 N   0  0  0  0  0  0  0  0  0  0  0  0
   10.2558  -18.6619   25.8108 C   0  0  1  0  0  0  0  0  0  0  0  0
   10.4563  -20.0183   26.4274 C   0  0  0  0  0  0  0  0  0  0  0  0
    9.8038  -20.1216   27.7545 C   0  0  0  0  0  0  0  0  0  0  0  0
    9.0321  -19.2191   28.1171 O   0  0  0  0  0  0  0  0  0  0  0  0
   10.8109  -17.5785   26.6637 C   0  0  0  0  0  0  0  0  0  0  0  0
   12.0491  -17.3728   26.6284 O   0  0  0  0  0  0  0  0  0  0  0  0
   10.0400  -21.1930   28.5810 O   0  0  0  0  0  0  0  0  0  0  0  0
   10.0157  -16.7766   27.5051 N   0  0  0  0  0  0  0  0  0  0  0  0
   10.6070  -15.6731   28.2802 C   0  0  1  0  0  0  0  0  0  0  0  0
    9.5753  -14.5874   28.4491 C   0  0  0  0  0  0  0  0  0  0  0  0
    9.3709  -13.8159   27.2375 C   0  0  0  0  0  0  0  0  0  0  0  0
   10.1308  -14.0223   26.2399 O   0  0  0  0  0  0  0  0  0  0  0  0
   10.8724  -16.2346   29.6502 C   0  0  0  0  0  0  0  0  0  0  0  0
   11.4290  -15.5653   30.5608 O   0  0  0  0  0  0  0  0  0  0  0  0
    8.3747  -12.8645   27.1435 O   0  0  0  0  0  0  0  0  0  0  0  0
   10.4899  -17.5272   29.9103 O   0  0  0  0  0  0  0  0  0  0  0  0
  2  1  1  6
  2  6  1  0
  3  2  1  0
  4  3  1  0
  5  4  2  0
  6  7  2  0
  8  4  1  0
  9  6  1  0
  9 10  1  0
 10 14  1  0
 10 11  1  1
 12 11  1  0
 13 12  2  0
 14 17  1  0
 15 14  2  0
 16 12  1  0
 17 18  1  0
 18 19  1  1
 19 20  1  0
 20 24  1  0
 21 20  2  0
 22 25  1  0
 22 18  1  0
 23 22  2  0
M  END
$$$$
