FDH.pdb
     RDKit          3D

 30 31  0  0  1  0  0  0  0  0999 V2000
    7.4519  -16.1178   25.9713 N   0  0  0  0  0  0  0  0  0  0  0  0
    6.5876  -15.8782   24.8340 C   0  0  1  0  0  0  0  0  0  0  0  0
    6.7433  -14.4943   24.2745 C   0  0  0  0  0  0  0  0  0  0  0  0
    6.8457  -13.4529   25.3161 C   0  0  0  0  0  0  0  0  0  0  0  0
    5.7256  -13.1443   26.0615 C   0  0  0  0  0  0  0  0  0  0  0  0
    5.7904  -12.1770   27.0405 C   0  0  0  0  0  0  0  0  0  0  0  0
    6.9746  -11.5077   27.2854 C   0  0  0  0  0  0  0  0  0  0  0  0
    8.0710  -11.8281   26.5368 C   0  0  0  0  0  0  0  0  0  0  0  0
    8.0337  -12.7905   25.5524 C   0  0  0  0  0  0  0  0  0  0  0  0
    6.9296  -16.8384   23.7407 C   0  0  0  0  0  0  0  0  0  0  0  0
    6.1097  -16.8637   22.7673 O   0  0  0  0  0  0  0  0  0  0  0  0
    8.0761  -17.6407   23.8083 N   0  0  0  0  0  0  0  0  0  0  0  0
    8.3633  -18.5912   22.7711 C   0  0  1  0  0  0  0  0  0  0  0  0
    8.4505  -18.0080   21.3983 C   0  0  0  0  0  0  0  0  0  0  0  0
    8.6931  -19.0755   20.4084 C   0  0  0  0  0  0  0  0  0  0  0  0
    9.6895  -19.1369   19.6514 O   0  0  0  0  0  0  0  0  0  0  0  0
    9.6036  -19.3759   23.0848 C   0  0  0  0  0  0  0  0  0  0  0  0
   10.3682  -19.7013   22.1437 O   0  0  0  0  0  0  0  0  0  0  0  0
    7.7365  -20.1083   20.2994 O   0  0  0  0  0  0  0  0  0  0  0  0
    9.9384  -19.7608   24.4107 N   0  0  0  0  0  0  0  0  0  0  0  0
   10.9919  -19.0612   25.1604 C   0  0  1  0  0  0  0  0  0  0  0  0
   10.6891  -17.5589   25.0873 C   0  0  0  0  0  0  0  0  0  0  0  0
   11.4869  -16.9424   24.0024 C   0  0  0  0  0  0  0  0  0  0  0  0
   12.4457  -17.5662   23.2335 C   0  0  0  0  0  0  0  0  0  0  0  0
   12.9251  -16.6576   22.3707 N   0  0  0  0  0  0  0  0  0  0  0  0
   12.2991  -15.4980   22.5779 C   0  0  0  0  0  0  0  0  0  0  0  0
   11.4226  -15.6867   23.5783 N   0  0  0  0  0  0  0  0  0  0  0  0
   10.9163  -19.5058   26.5721 C   0  0  0  0  0  0  0  0  0  0  0  0
   11.9421  -19.4834   27.3312 O   0  0  0  0  0  0  0  0  0  0  0  0
    9.7396  -19.9630   27.1309 O   0  0  0  0  0  0  0  0  0  0  0  0
  2  1  1  1
  2 10  1  0
  3  2  1  0
  3  4  1  0
  4  5  2  0
  4  9  1  0
  5  6  1  0
  6  7  2  0
  8  7  1  0
  9  8  2  0
 10 11  2  0
 12 10  1  0
 12 13  1  0
 13 17  1  0
 13 14  1  6
 14 15  1  0
 15 16  2  0
 17 18  2  0
 19 15  1  0
 20 21  1  0
 20 17  1  0
 21 28  1  0
 21 22  1  1
 23 22  1  0
 24 23  2  0
 25 24  1  0
 26 25  1  0
 26 27  2  0
 27 23  1  0
 28 29  2  0
 28 30  1  0
M  END
$$$$
