FDH.pdb
     RDKit          3D

 30 31  0  0  1  0  0  0  0  0999 V2000
    6.4357  -16.9003   24.6269 N   0  0  0  0  0  0  0  0  0  0  0  0
    7.6592  -16.1976   24.2993 C   0  0  1  0  0  0  0  0  0  0  0  0
    8.1218  -15.2995   25.4091 C   0  0  0  0  0  0  0  0  0  0  0  0
    7.4039  -14.0101   25.4527 C   0  0  0  0  0  0  0  0  0  0  0  0
    6.4010  -13.8376   26.3854 C   0  0  0  0  0  0  0  0  0  0  0  0
    5.7132  -12.6454   26.4500 C   0  0  0  0  0  0  0  0  0  0  0  0
    6.0199  -11.6130   25.5839 C   0  0  0  0  0  0  0  0  0  0  0  0
    7.0154  -11.8042   24.6687 C   0  0  0  0  0  0  0  0  0  0  0  0
    7.7184  -12.9854   24.5826 C   0  0  0  0  0  0  0  0  0  0  0  0
    8.7488  -17.1900   24.0498 C   0  0  0  0  0  0  0  0  0  0  0  0
    8.4645  -18.3929   24.3539 O   0  0  0  0  0  0  0  0  0  0  0  0
    9.9842  -16.7970   23.5189 N   0  0  0  0  0  0  0  0  0  0  0  0
   11.0801  -17.7229   23.4589 C   0  0  1  0  0  0  0  0  0  0  0  0
   12.1998  -17.3057   22.5621 C   0  0  0  0  0  0  0  0  0  0  0  0
   11.6631  -16.6694   21.3433 C   0  0  0  0  0  0  0  0  0  0  0  0
   12.0671  -15.5841   20.8650 O   0  0  0  0  0  0  0  0  0  0  0  0
   11.5995  -18.0359   24.8318 C   0  0  0  0  0  0  0  0  0  0  0  0
   12.6908  -18.6470   24.9413 O   0  0  0  0  0  0  0  0  0  0  0  0
   10.6168  -17.3253   20.6589 O   0  0  0  0  0  0  0  0  0  0  0  0
   10.8962  -17.6629   26.0085 N   0  0  0  0  0  0  0  0  0  0  0  0
   11.4403  -17.9566   27.3424 C   0  0  1  0  0  0  0  0  0  0  0  0
   10.4403  -17.4215   28.3758 C   0  0  0  0  0  0  0  0  0  0  0  0
   10.2503  -15.9661   28.1775 C   0  0  0  0  0  0  0  0  0  0  0  0
   10.8945  -15.1735   27.2520 C   0  0  0  0  0  0  0  0  0  0  0  0
   10.4362  -13.9218   27.4039 N   0  0  0  0  0  0  0  0  0  0  0  0
    9.5347  -13.9121   28.3871 C   0  0  0  0  0  0  0  0  0  0  0  0
    9.4311  -15.1686   28.8509 N   0  0  0  0  0  0  0  0  0  0  0  0
   11.5406  -19.4289   27.4777 C   0  0  0  0  0  0  0  0  0  0  0  0
   11.1149  -20.2104   26.5628 O   0  0  0  0  0  0  0  0  0  0  0  0
   12.0961  -20.0228   28.5934 O   0  0  0  0  0  0  0  0  0  0  0  0
  2  1  1  1
  2 10  1  0
  3  2  1  0
  3  4  1  0
  4  5  2  0
  4  9  1  0
  5  6  1  0
  6  7  2  0
  8  7  1  0
  9  8  2  0
 10 11  2  0
 12 10  1  0
 12 13  1  0
 13 17  1  0
 13 14  1  6
 14 15  1  0
 15 16  2  0
 17 18  2  0
 19 15  1  0
 20 21  1  0
 20 17  1  0
 21 28  1  0
 21 22  1  1
 23 22  1  0
 24 23  2  0
 25 24  1  0
 26 25  1  0
 26 27  2  0
 27 23  1  0
 28 29  2  0
 28 30  1  0
M  END
$$$$
