FDH.pdb
     RDKit          3D

 30 31  0  0  1  0  0  0  0  0999 V2000
    6.1231  -16.6286   24.6288 N   0  0  0  0  0  0  0  0  0  0  0  0
    7.1267  -15.7057   24.1400 C   0  0  1  0  0  0  0  0  0  0  0  0
    7.8088  -14.9576   25.2479 C   0  0  0  0  0  0  0  0  0  0  0  0
    7.0930  -13.7301   25.6488 C   0  0  0  0  0  0  0  0  0  0  0  0
    7.5874  -12.9843   26.7000 C   0  0  0  0  0  0  0  0  0  0  0  0
    6.9410  -11.8340   27.0969 C   0  0  0  0  0  0  0  0  0  0  0  0
    5.7942  -11.4165   26.4483 C   0  0  0  0  0  0  0  0  0  0  0  0
    5.3218  -12.1687   25.4109 C   0  0  0  0  0  0  0  0  0  0  0  0
    5.9481  -13.3222   24.9938 C   0  0  0  0  0  0  0  0  0  0  0  0
    8.1825  -16.4660   23.4042 C   0  0  0  0  0  0  0  0  0  0  0  0
    7.7784  -17.0897   22.3706 O   0  0  0  0  0  0  0  0  0  0  0  0
    9.5131  -16.4744   23.8425 N   0  0  0  0  0  0  0  0  0  0  0  0
   10.5455  -17.0516   23.0284 C   0  0  1  0  0  0  0  0  0  0  0  0
   10.6888  -16.4358   21.6747 C   0  0  0  0  0  0  0  0  0  0  0  0
    9.9893  -17.2572   20.6675 C   0  0  0  0  0  0  0  0  0  0  0  0
   10.0583  -18.5057   20.5887 O   0  0  0  0  0  0  0  0  0  0  0  0
   11.8642  -17.0494   23.7452 C   0  0  0  0  0  0  0  0  0  0  0  0
   12.7789  -16.2977   23.3276 O   0  0  0  0  0  0  0  0  0  0  0  0
    9.1802  -16.5954   19.7183 O   0  0  0  0  0  0  0  0  0  0  0  0
   12.1087  -17.8697   24.8791 N   0  0  0  0  0  0  0  0  0  0  0  0
   12.1308  -17.3022   26.2351 C   0  0  1  0  0  0  0  0  0  0  0  0
   10.9449  -16.3354   26.3494 C   0  0  0  0  0  0  0  0  0  0  0  0
   10.9590  -15.6854   27.6801 C   0  0  0  0  0  0  0  0  0  0  0  0
   11.8462  -15.9343   28.7050 C   0  0  0  0  0  0  0  0  0  0  0  0
   11.5114  -15.1374   29.7311 N   0  0  0  0  0  0  0  0  0  0  0  0
   10.4522  -14.4071   29.3784 C   0  0  0  0  0  0  0  0  0  0  0  0
   10.1253  -14.7525   28.1220 N   0  0  0  0  0  0  0  0  0  0  0  0
   11.9471  -18.4151   27.1962 C   0  0  0  0  0  0  0  0  0  0  0  0
   12.7080  -18.5475   28.2124 O   0  0  0  0  0  0  0  0  0  0  0  0
   10.9500  -19.3570   27.0397 O   0  0  0  0  0  0  0  0  0  0  0  0
  2  1  1  1
  2 10  1  0
  3  2  1  0
  3  4  1  0
  4  5  2  0
  4  9  1  0
  5  6  1  0
  6  7  2  0
  8  7  1  0
  9  8  2  0
 10 11  2  0
 12 10  1  0
 12 13  1  0
 13 17  1  0
 13 14  1  6
 14 15  1  0
 15 16  2  0
 17 18  2  0
 19 15  1  0
 20 21  1  0
 20 17  1  0
 21 28  1  0
 21 22  1  6
 23 22  1  0
 24 23  2  0
 25 24  1  0
 26 25  1  0
 26 27  2  0
 27 23  1  0
 28 29  2  0
 28 30  1  0
M  END
$$$$
