FDH.pdb
     RDKit          3D

 30 31  0  0  1  0  0  0  0  0999 V2000
    8.5182  -17.2602   20.1333 N   0  0  0  0  0  0  0  0  0  0  0  0
    9.6603  -16.5864   20.7161 C   0  0  1  0  0  0  0  0  0  0  0  0
    9.2648  -15.4152   21.5671 C   0  0  0  0  0  0  0  0  0  0  0  0
    8.5814  -14.3485   20.8089 C   0  0  0  0  0  0  0  0  0  0  0  0
    9.3446  -13.4302   20.1163 C   0  0  0  0  0  0  0  0  0  0  0  0
    8.7351  -12.4234   19.3997 C   0  0  0  0  0  0  0  0  0  0  0  0
    7.3571  -12.3233   19.3672 C   0  0  0  0  0  0  0  0  0  0  0  0
    6.6205  -13.2418   20.0592 C   0  0  0  0  0  0  0  0  0  0  0  0
    7.2040  -14.2578   20.7832 C   0  0  0  0  0  0  0  0  0  0  0  0
   10.4033  -17.5406   21.5945 C   0  0  0  0  0  0  0  0  0  0  0  0
    9.6944  -18.4619   22.1133 O   0  0  0  0  0  0  0  0  0  0  0  0
   11.7806  -17.4073   21.8136 N   0  0  0  0  0  0  0  0  0  0  0  0
   12.4483  -18.2317   22.7812 C   0  0  1  0  0  0  0  0  0  0  0  0
   13.9398  -18.1533   22.7432 C   0  0  0  0  0  0  0  0  0  0  0  0
   14.4277  -18.4346   21.3788 C   0  0  0  0  0  0  0  0  0  0  0  0
   13.9207  -19.2708   20.5955 O   0  0  0  0  0  0  0  0  0  0  0  0
   11.9460  -17.9533   24.1678 C   0  0  0  0  0  0  0  0  0  0  0  0
   12.2527  -16.8661   24.7158 O   0  0  0  0  0  0  0  0  0  0  0  0
   15.5483  -17.7127   20.9136 O   0  0  0  0  0  0  0  0  0  0  0  0
   11.1360  -18.8796   24.8778 N   0  0  0  0  0  0  0  0  0  0  0  0
   10.6600  -18.5847   26.2372 C   0  0  1  0  0  0  0  0  0  0  0  0
    9.1519  -18.8650   26.2682 C   0  0  0  0  0  0  0  0  0  0  0  0
    8.4297  -17.7823   25.5612 C   0  0  0  0  0  0  0  0  0  0  0  0
    8.9707  -16.6026   25.0971 C   0  0  0  0  0  0  0  0  0  0  0  0
    7.9811  -15.9042   24.5203 N   0  0  0  0  0  0  0  0  0  0  0  0
    6.8512  -16.6075   24.6108 C   0  0  0  0  0  0  0  0  0  0  0  0
    7.1403  -17.7534   25.2495 N   0  0  0  0  0  0  0  0  0  0  0  0
   11.3472  -19.5093   27.1694 C   0  0  0  0  0  0  0  0  0  0  0  0
   12.1082  -20.4401   26.7410 O   0  0  0  0  0  0  0  0  0  0  0  0
   11.1981  -19.4093   28.5382 O   0  0  0  0  0  0  0  0  0  0  0  0
  2  1  1  1
  2 10  1  0
  3  2  1  0
  3  4  1  0
  4  5  2  0
  4  9  1  0
  5  6  1  0
  6  7  2  0
  8  7  1  0
  9  8  2  0
 10 11  2  0
 12 10  1  0
 12 13  1  0
 13 17  1  0
 13 14  1  1
 14 15  1  0
 15 16  2  0
 17 18  2  0
 19 15  1  0
 20 21  1  0
 20 17  1  0
 21 28  1  0
 21 22  1  6
 23 22  1  0
 24 23  2  0
 25 24  1  0
 26 25  1  0
 26 27  2  0
 27 23  1  0
 28 29  2  0
 28 30  1  0
M  END
$$$$
