FDH.pdb
     RDKit          3D

 30 31  0  0  1  0  0  0  0  0999 V2000
    5.5855  -16.5783   24.0842 N   0  0  0  0  0  0  0  0  0  0  0  0
    6.8578  -15.8886   24.1443 C   0  0  1  0  0  0  0  0  0  0  0  0
    7.2621  -15.5483   25.5489 C   0  0  0  0  0  0  0  0  0  0  0  0
    7.1655  -14.1061   25.8497 C   0  0  0  0  0  0  0  0  0  0  0  0
    5.9387  -13.5799   26.2013 C   0  0  0  0  0  0  0  0  0  0  0  0
    5.8175  -12.2376   26.4876 C   0  0  0  0  0  0  0  0  0  0  0  0
    6.9202  -11.4067   26.4257 C   0  0  0  0  0  0  0  0  0  0  0  0
    8.1246  -11.9472   26.0758 C   0  0  0  0  0  0  0  0  0  0  0  0
    8.2736  -13.2851   25.7848 C   0  0  0  0  0  0  0  0  0  0  0  0
    7.9253  -16.7680   23.5773 C   0  0  0  0  0  0  0  0  0  0  0  0
    7.6018  -17.9916   23.4409 O   0  0  0  0  0  0  0  0  0  0  0  0
    9.1822  -16.2562   23.2299 N   0  0  0  0  0  0  0  0  0  0  0  0
   10.0978  -17.0389   22.4484 C   0  0  1  0  0  0  0  0  0  0  0  0
   11.0496  -16.2401   21.6188 C   0  0  0  0  0  0  0  0  0  0  0  0
   11.9436  -17.1403   20.8646 C   0  0  0  0  0  0  0  0  0  0  0  0
   13.1902  -17.1767   20.9848 O   0  0  0  0  0  0  0  0  0  0  0  0
   10.8467  -18.0143   23.3088 C   0  0  0  0  0  0  0  0  0  0  0  0
   11.2939  -19.0641   22.7853 O   0  0  0  0  0  0  0  0  0  0  0  0
   11.3596  -18.0297   19.9366 O   0  0  0  0  0  0  0  0  0  0  0  0
   11.0647  -17.7868   24.6941 N   0  0  0  0  0  0  0  0  0  0  0  0
   11.3802  -18.8972   25.6045 C   0  0  1  0  0  0  0  0  0  0  0  0
   11.4895  -20.1713   24.7567 C   0  0  0  0  0  0  0  0  0  0  0  0
   12.9154  -20.5303   24.5790 C   0  0  0  0  0  0  0  0  0  0  0  0
   13.9471  -19.6669   24.2792 C   0  0  0  0  0  0  0  0  0  0  0  0
   15.0728  -20.3932   24.2064 N   0  0  0  0  0  0  0  0  0  0  0  0
   14.7749  -21.6706   24.4496 C   0  0  0  0  0  0  0  0  0  0  0  0
   13.4525  -21.7397   24.6757 N   0  0  0  0  0  0  0  0  0  0  0  0
   12.6936  -18.6130   26.2292 C   0  0  0  0  0  0  0  0  0  0  0  0
   13.3993  -17.6134   25.8662 O   0  0  0  0  0  0  0  0  0  0  0  0
   13.2143  -19.4110   27.2283 O   0  0  0  0  0  0  0  0  0  0  0  0
  2  1  1  1
  2 10  1  0
  3  2  1  0
  3  4  1  0
  4  5  2  0
  4  9  1  0
  5  6  1  0
  6  7  2  0
  8  7  1  0
  9  8  2  0
 10 11  2  0
 12 10  1  0
 12 13  1  0
 13 17  1  0
 13 14  1  1
 14 15  1  0
 15 16  2  0
 17 18  2  0
 19 15  1  0
 20 21  1  0
 20 17  1  0
 21 28  1  0
 21 22  1  6
 23 22  1  0
 24 23  2  0
 25 24  1  0
 26 25  1  0
 26 27  2  0
 27 23  1  0
 28 29  2  0
 28 30  1  0
M  END
$$$$
