FDH.pdb
     RDKit          3D

 30 31  0  0  1  0  0  0  0  0999 V2000
    5.9961  -16.8334   24.6330 N   0  0  0  0  0  0  0  0  0  0  0  0
    7.1514  -15.9613   24.5817 C   0  0  1  0  0  0  0  0  0  0  0  0
    7.3027  -15.1329   25.8240 C   0  0  0  0  0  0  0  0  0  0  0  0
    6.7857  -13.7581   25.6740 C   0  0  0  0  0  0  0  0  0  0  0  0
    7.5520  -12.8285   25.0001 C   0  0  0  0  0  0  0  0  0  0  0  0
    7.0960  -11.5376   24.8443 C   0  0  0  0  0  0  0  0  0  0  0  0
    5.8700  -11.1617   25.3598 C   0  0  0  0  0  0  0  0  0  0  0  0
    5.1276  -12.0967   26.0230 C   0  0  0  0  0  0  0  0  0  0  0  0
    5.5595  -13.3934   26.1930 C   0  0  0  0  0  0  0  0  0  0  0  0
    8.3900  -16.7872   24.4472 C   0  0  0  0  0  0  0  0  0  0  0  0
    8.3165  -17.9568   24.9443 O   0  0  0  0  0  0  0  0  0  0  0  0
    9.5350  -16.2852   23.8149 N   0  0  0  0  0  0  0  0  0  0  0  0
   10.7155  -17.0938   23.6947 C   0  0  1  0  0  0  0  0  0  0  0  0
   11.6167  -16.7162   22.5645 C   0  0  0  0  0  0  0  0  0  0  0  0
   12.7459  -17.6629   22.4785 C   0  0  0  0  0  0  0  0  0  0  0  0
   12.6695  -18.8914   22.7124 O   0  0  0  0  0  0  0  0  0  0  0  0
   11.4817  -17.1274   24.9848 C   0  0  0  0  0  0  0  0  0  0  0  0
   11.9164  -16.0492   25.4589 O   0  0  0  0  0  0  0  0  0  0  0  0
   14.0095  -17.1553   22.1057 O   0  0  0  0  0  0  0  0  0  0  0  0
   11.7297  -18.3387   25.6845 N   0  0  0  0  0  0  0  0  0  0  0  0
   12.2471  -18.3274   27.0606 C   0  0  1  0  0  0  0  0  0  0  0  0
   11.1272  -17.8046   27.9696 C   0  0  0  0  0  0  0  0  0  0  0  0
   11.3710  -16.3794   28.2905 C   0  0  0  0  0  0  0  0  0  0  0  0
   12.4169  -15.6041   27.8378 C   0  0  0  0  0  0  0  0  0  0  0  0
   12.2664  -14.3780   28.3611 N   0  0  0  0  0  0  0  0  0  0  0  0
   11.1685  -14.3674   29.1188 C   0  0  0  0  0  0  0  0  0  0  0  0
   10.6312  -15.5975   29.0664 N   0  0  0  0  0  0  0  0  0  0  0  0
   12.5681  -19.7245   27.4364 C   0  0  0  0  0  0  0  0  0  0  0  0
   13.0782  -20.0063   28.5720 O   0  0  0  0  0  0  0  0  0  0  0  0
   12.3322  -20.7826   26.5815 O   0  0  0  0  0  0  0  0  0  0  0  0
  2  1  1  1
  2 10  1  0
  3  2  1  0
  3  4  1  0
  4  5  2  0
  4  9  1  0
  5  6  1  0
  6  7  2  0
  8  7  1  0
  9  8  2  0
 10 11  2  0
 12 10  1  0
 12 13  1  0
 13 17  1  0
 13 14  1  6
 14 15  1  0
 15 16  2  0
 17 18  2  0
 19 15  1  0
 20 21  1  0
 20 17  1  0
 21 28  1  0
 21 22  1  1
 23 22  1  0
 24 23  2  0
 25 24  1  0
 26 25  1  0
 26 27  2  0
 27 23  1  0
 28 29  2  0
 28 30  1  0
M  END
$$$$
