FDH.pdb
     RDKit          3D

 30 31  0  0  1  0  0  0  0  0999 V2000
    6.0927  -16.7845   25.1855 N   0  0  0  0  0  0  0  0  0  0  0  0
    6.6936  -16.5769   23.8841 C   0  0  1  0  0  0  0  0  0  0  0  0
    6.6880  -15.1340   23.4713 C   0  0  0  0  0  0  0  0  0  0  0  0
    7.0071  -14.2102   24.5779 C   0  0  0  0  0  0  0  0  0  0  0  0
    7.9988  -13.2679   24.3937 C   0  0  0  0  0  0  0  0  0  0  0  0
    8.3188  -12.3922   25.4083 C   0  0  0  0  0  0  0  0  0  0  0  0
    7.6518  -12.4485   26.6174 C   0  0  0  0  0  0  0  0  0  0  0  0
    6.6740  -13.3882   26.7791 C   0  0  0  0  0  0  0  0  0  0  0  0
    6.3344  -14.2753   25.7818 C   0  0  0  0  0  0  0  0  0  0  0  0
    8.1204  -17.0210   23.9206 C   0  0  0  0  0  0  0  0  0  0  0  0
    8.3977  -17.8753   24.8227 O   0  0  0  0  0  0  0  0  0  0  0  0
    9.0634  -16.5171   23.0155 N   0  0  0  0  0  0  0  0  0  0  0  0
   10.4279  -16.9620   23.0605 C   0  0  1  0  0  0  0  0  0  0  0  0
   11.2672  -16.5153   21.9080 C   0  0  0  0  0  0  0  0  0  0  0  0
   10.8247  -17.1844   20.6691 C   0  0  0  0  0  0  0  0  0  0  0  0
   10.5600  -18.4051   20.5701 O   0  0  0  0  0  0  0  0  0  0  0  0
   11.0783  -16.5817   24.3585 C   0  0  0  0  0  0  0  0  0  0  0  0
   11.0545  -15.3790   24.7179 O   0  0  0  0  0  0  0  0  0  0  0  0
   10.6868  -16.3986   19.5043 O   0  0  0  0  0  0  0  0  0  0  0  0
   11.7185  -17.5383   25.1912 N   0  0  0  0  0  0  0  0  0  0  0  0
   11.8598  -17.3116   26.6370 C   0  0  1  0  0  0  0  0  0  0  0  0
   10.4495  -17.1403   27.2164 C   0  0  0  0  0  0  0  0  0  0  0  0
   10.3076  -15.7811   27.7874 C   0  0  0  0  0  0  0  0  0  0  0  0
   11.2625  -14.7872   27.7860 C   0  0  0  0  0  0  0  0  0  0  0  0
   10.7334  -13.7183   28.4002 N   0  0  0  0  0  0  0  0  0  0  0  0
    9.4895  -14.0147   28.7802 C   0  0  0  0  0  0  0  0  0  0  0  0
    9.2425  -15.2790   28.3991 N   0  0  0  0  0  0  0  0  0  0  0  0
   12.4860  -18.5183   27.2267 C   0  0  0  0  0  0  0  0  0  0  0  0
   12.9094  -18.5257   28.4308 O   0  0  0  0  0  0  0  0  0  0  0  0
   12.6410  -19.6859   26.5064 O   0  0  0  0  0  0  0  0  0  0  0  0
  2  1  1  1
  2 10  1  0
  3  2  1  0
  3  4  1  0
  4  5  2  0
  4  9  1  0
  5  6  1  0
  6  7  2  0
  8  7  1  0
  9  8  2  0
 10 11  2  0
 12 10  1  0
 12 13  1  0
 13 17  1  0
 13 14  1  6
 14 15  1  0
 15 16  2  0
 17 18  2  0
 19 15  1  0
 20 21  1  0
 20 17  1  0
 21 28  1  0
 21 22  1  1
 23 22  1  0
 24 23  2  0
 25 24  1  0
 26 25  1  0
 26 27  2  0
 27 23  1  0
 28 29  2  0
 28 30  1  0
M  END
$$$$
