FDH.pdb
     RDKit          3D

 30 31  0  0  1  0  0  0  0  0999 V2000
   10.2731  -15.6059   21.5377 N   0  0  0  0  0  0  0  0  0  0  0  0
    9.5650  -15.3210   22.7687 C   0  0  1  0  0  0  0  0  0  0  0  0
    8.0907  -15.1383   22.5554 C   0  0  0  0  0  0  0  0  0  0  0  0
    7.7709  -14.0956   21.5602 C   0  0  0  0  0  0  0  0  0  0  0  0
    7.1956  -14.4718   20.3631 C   0  0  0  0  0  0  0  0  0  0  0  0
    6.8860  -13.5212   19.4149 C   0  0  0  0  0  0  0  0  0  0  0  0
    7.1475  -12.1850   19.6524 C   0  0  0  0  0  0  0  0  0  0  0  0
    7.7170  -11.8341   20.8430 C   0  0  0  0  0  0  0  0  0  0  0  0
    8.0365  -12.7636   21.8078 C   0  0  0  0  0  0  0  0  0  0  0  0
    9.7366  -16.4651   23.7152 C   0  0  0  0  0  0  0  0  0  0  0  0
    8.9484  -16.4627   24.7148 O   0  0  0  0  0  0  0  0  0  0  0  0
   10.7032  -17.4547   23.4939 N   0  0  0  0  0  0  0  0  0  0  0  0
   10.9224  -18.4901   24.4643 C   0  0  1  0  0  0  0  0  0  0  0  0
   11.8603  -19.5670   24.0252 C   0  0  0  0  0  0  0  0  0  0  0  0
   11.4031  -20.1476   22.7475 C   0  0  0  0  0  0  0  0  0  0  0  0
   10.2265  -20.5015   22.5024 O   0  0  0  0  0  0  0  0  0  0  0  0
   11.3656  -17.9153   25.7780 C   0  0  0  0  0  0  0  0  0  0  0  0
   12.4030  -17.2088   25.8103 O   0  0  0  0  0  0  0  0  0  0  0  0
   12.3554  -20.3207   21.7197 O   0  0  0  0  0  0  0  0  0  0  0  0
   10.6493  -18.1452   26.9831 N   0  0  0  0  0  0  0  0  0  0  0  0
   11.1987  -17.7319   28.2826 C   0  0  1  0  0  0  0  0  0  0  0  0
   10.1737  -16.7987   28.9403 C   0  0  0  0  0  0  0  0  0  0  0  0
   10.2079  -15.4750   28.2768 C   0  0  0  0  0  0  0  0  0  0  0  0
   11.0230  -15.1036   27.2292 C   0  0  0  0  0  0  0  0  0  0  0  0
   10.7383  -13.8273   26.9292 N   0  0  0  0  0  0  0  0  0  0  0  0
    9.7795  -13.3977   27.7511 C   0  0  0  0  0  0  0  0  0  0  0  0
    9.4649  -14.4154   28.5696 N   0  0  0  0  0  0  0  0  0  0  0  0
   11.3570  -18.9471   29.1159 C   0  0  0  0  0  0  0  0  0  0  0  0
   10.7041  -20.0145   28.8642 O   0  0  0  0  0  0  0  0  0  0  0  0
   12.2133  -18.9830   30.1982 O   0  0  0  0  0  0  0  0  0  0  0  0
  2  1  1  6
  2 10  1  0
  3  2  1  0
  3  4  1  0
  4  5  2  0
  4  9  1  0
  5  6  1  0
  6  7  2  0
  8  7  1  0
  9  8  2  0
 10 11  2  0
 12 10  1  0
 12 13  1  0
 13 17  1  0
 13 14  1  6
 14 15  1  0
 15 16  2  0
 17 18  2  0
 19 15  1  0
 20 21  1  0
 20 17  1  0
 21 28  1  0
 21 22  1  1
 23 22  1  0
 24 23  2  0
 25 24  1  0
 26 25  1  0
 26 27  2  0
 27 23  1  0
 28 29  2  0
 28 30  1  0
M  END
$$$$
