FDH.pdb
     RDKit          3D

 30 31  0  0  1  0  0  0  0  0999 V2000
    6.6655  -16.5176   25.9995 N   0  0  0  0  0  0  0  0  0  0  0  0
    7.1117  -15.9134   24.7610 C   0  0  1  0  0  0  0  0  0  0  0  0
    8.0789  -14.7880   24.9856 C   0  0  0  0  0  0  0  0  0  0  0  0
    7.5170  -13.6902   25.7973 C   0  0  0  0  0  0  0  0  0  0  0  0
    6.1721  -13.4001   25.6852 C   0  0  0  0  0  0  0  0  0  0  0  0
    5.6192  -12.3812   26.4299 C   0  0  0  0  0  0  0  0  0  0  0  0
    6.4037  -11.6413   27.2945 C   0  0  0  0  0  0  0  0  0  0  0  0
    7.7318  -11.9446   27.3905 C   0  0  0  0  0  0  0  0  0  0  0  0
    8.3099  -12.9575   26.6579 C   0  0  0  0  0  0  0  0  0  0  0  0
    7.8133  -16.9412   23.9329 C   0  0  0  0  0  0  0  0  0  0  0  0
    8.0493  -18.0431   24.5248 O   0  0  0  0  0  0  0  0  0  0  0  0
    8.1735  -16.6836   22.6038 N   0  0  0  0  0  0  0  0  0  0  0  0
    8.8876  -17.6662   21.8382 C   0  0  1  0  0  0  0  0  0  0  0  0
    8.5908  -17.6513   20.3740 C   0  0  0  0  0  0  0  0  0  0  0  0
    7.1316  -17.6360   20.1525 C   0  0  0  0  0  0  0  0  0  0  0  0
    6.4751  -16.6374   19.7763 O   0  0  0  0  0  0  0  0  0  0  0  0
   10.3666  -17.5643   22.0723 C   0  0  0  0  0  0  0  0  0  0  0  0
   11.1476  -18.1153   21.2582 O   0  0  0  0  0  0  0  0  0  0  0  0
    6.4142  -18.8308   20.3789 O   0  0  0  0  0  0  0  0  0  0  0  0
   10.9088  -16.8653   23.1838 N   0  0  0  0  0  0  0  0  0  0  0  0
   12.3614  -16.7042   23.3432 C   0  0  1  0  0  0  0  0  0  0  0  0
   12.6912  -15.2266   23.0944 C   0  0  0  0  0  0  0  0  0  0  0  0
   12.6500  -14.9453   21.6409 C   0  0  0  0  0  0  0  0  0  0  0  0
   13.3047  -15.6462   20.6510 C   0  0  0  0  0  0  0  0  0  0  0  0
   13.0023  -15.0674   19.4791 N   0  0  0  0  0  0  0  0  0  0  0  0
   12.1867  -14.0369   19.7082 C   0  0  0  0  0  0  0  0  0  0  0  0
   11.9798  -13.9741   21.0340 N   0  0  0  0  0  0  0  0  0  0  0  0
   12.7060  -17.0520   24.7420 C   0  0  0  0  0  0  0  0  0  0  0  0
   13.8904  -16.8980   25.1921 O   0  0  0  0  0  0  0  0  0  0  0  0
   11.7681  -17.5563   25.6206 O   0  0  0  0  0  0  0  0  0  0  0  0
  2  1  1  1
  2 10  1  0
  3  2  1  0
  3  4  1  0
  4  5  2  0
  4  9  1  0
  5  6  1  0
  6  7  2  0
  8  7  1  0
  9  8  2  0
 10 11  2  0
 12 10  1  0
 12 13  1  0
 13 17  1  0
 13 14  1  6
 14 15  1  0
 15 16  2  0
 17 18  2  0
 19 15  1  0
 20 21  1  0
 20 17  1  0
 21 28  1  0
 21 22  1  1
 23 22  1  0
 24 23  2  0
 25 24  1  0
 26 25  1  0
 26 27  2  0
 27 23  1  0
 28 29  2  0
 28 30  1  0
M  END
$$$$
