FDH.pdb
     RDKit          3D

 30 31  0  0  1  0  0  0  0  0999 V2000
   10.5980  -15.6591   20.8189 N   0  0  0  0  0  0  0  0  0  0  0  0
    9.8049  -15.4207   22.0072 C   0  0  1  0  0  0  0  0  0  0  0  0
    8.3342  -15.3591   21.7147 C   0  0  0  0  0  0  0  0  0  0  0  0
    7.9803  -14.3239   20.7234 C   0  0  0  0  0  0  0  0  0  0  0  0
    8.2405  -13.0011   21.0201 C   0  0  0  0  0  0  0  0  0  0  0  0
    7.9213  -12.0127   20.1147 C   0  0  0  0  0  0  0  0  0  0  0  0
    7.3388  -12.3350   18.9035 C   0  0  0  0  0  0  0  0  0  0  0  0
    7.0898  -13.6495   18.6296 C   0  0  0  0  0  0  0  0  0  0  0  0
    7.3987  -14.6570   19.5163 C   0  0  0  0  0  0  0  0  0  0  0  0
   10.0167  -16.5385   22.9767 C   0  0  0  0  0  0  0  0  0  0  0  0
    9.0969  -16.6829   23.8448 O   0  0  0  0  0  0  0  0  0  0  0  0
   11.1547  -17.3531   22.9117 N   0  0  0  0  0  0  0  0  0  0  0  0
   11.3608  -18.3965   23.8764 C   0  0  1  0  0  0  0  0  0  0  0  0
   12.2924  -19.4779   23.4351 C   0  0  0  0  0  0  0  0  0  0  0  0
   13.4236  -18.8978   22.6851 C   0  0  0  0  0  0  0  0  0  0  0  0
   13.3127  -18.1802   21.6641 O   0  0  0  0  0  0  0  0  0  0  0  0
   11.8019  -17.8336   25.1960 C   0  0  0  0  0  0  0  0  0  0  0  0
   12.9844  -18.0263   25.5713 O   0  0  0  0  0  0  0  0  0  0  0  0
   14.7311  -19.1662   23.1452 O   0  0  0  0  0  0  0  0  0  0  0  0
   10.9248  -17.0913   26.0315 N   0  0  0  0  0  0  0  0  0  0  0  0
   10.0218  -17.7676   26.9740 C   0  0  1  0  0  0  0  0  0  0  0  0
    8.9971  -18.5544   26.1463 C   0  0  0  0  0  0  0  0  0  0  0  0
    7.9013  -17.6526   25.7227 C   0  0  0  0  0  0  0  0  0  0  0  0
    7.8112  -16.2995   25.9692 C   0  0  0  0  0  0  0  0  0  0  0  0
    6.6690  -15.8638   25.4166 N   0  0  0  0  0  0  0  0  0  0  0  0
    6.0516  -16.8957   24.8391 C   0  0  0  0  0  0  0  0  0  0  0  0
    6.8163  -17.9829   25.0341 N   0  0  0  0  0  0  0  0  0  0  0  0
   10.8304  -18.7147   27.7774 C   0  0  0  0  0  0  0  0  0  0  0  0
   10.4977  -19.0267   28.9694 O   0  0  0  0  0  0  0  0  0  0  0  0
   11.9758  -19.3018   27.2781 O   0  0  0  0  0  0  0  0  0  0  0  0
  2  1  1  6
  2 10  1  0
  3  2  1  0
  3  4  1  0
  4  5  2  0
  4  9  1  0
  5  6  1  0
  6  7  2  0
  8  7  1  0
  9  8  2  0
 10 11  2  0
 12 10  1  0
 12 13  1  0
 13 17  1  0
 13 14  1  6
 14 15  1  0
 15 16  2  0
 17 18  2  0
 19 15  1  0
 20 21  1  0
 20 17  1  0
 21 28  1  0
 21 22  1  6
 23 22  1  0
 24 23  2  0
 25 24  1  0
 26 25  1  0
 26 27  2  0
 27 23  1  0
 28 29  2  0
 28 30  1  0
M  END
$$$$
