QYM.pdb
     RDKit          3D

 30 30  0  0  1  0  0  0  0  0999 V2000
   23.8429  -17.9230  -18.1707 N   0  0  0  0  0  0  0  0  0  0  0  0
   25.2292  -18.2069  -17.9958 C   0  0  0  0  0  0  0  0  0  0  0  0
   25.8524  -18.5100  -19.0372 O   0  0  0  0  0  0  0  0  0  0  0  0
   25.9231  -18.1612  -16.7252 C   0  0  0  0  0  0  0  0  0  0  0  0
   25.1900  -17.8224  -15.5004 C   0  0  0  0  0  0  0  0  0  0  0  0
   25.9375  -17.7801  -14.2141 C   0  0  2  0  0  0  0  0  0  0  0  0
   27.3160  -17.4315  -14.2826 N   0  0  0  0  0  0  0  0  0  0  0  0
   25.7460  -19.0197  -13.4150 C   0  0  0  0  0  0  0  0  0  0  0  0
   24.5871  -19.5482  -13.3066 O   0  0  0  0  0  0  0  0  0  0  0  0
   24.3920  -24.1574  -17.1280 O   0  0  0  0  0  0  0  0  0  0  0  0
   25.0915  -23.6442  -16.0532 C   0  0  0  0  0  0  0  0  0  0  0  0
   24.7133  -23.9709  -14.7813 C   0  0  0  0  0  0  0  0  0  0  0  0
   25.4338  -23.4412  -13.7138 C   0  0  0  0  0  0  0  0  0  0  0  0
   26.5120  -22.6004  -13.9149 C   0  0  0  0  0  0  0  0  0  0  0  0
   27.2639  -22.0427  -12.7832 C   0  0  0  0  0  0  0  0  0  0  0  0
   26.5255  -20.9451  -12.0560 C   0  0  2  0  0  0  0  0  0  0  0  0
   26.8055  -19.6702  -12.7477 N   0  0  0  0  0  0  0  0  0  0  0  0
   27.0384  -20.7832  -10.6504 C   0  0  0  0  0  0  0  0  0  0  0  0
   28.2245  -20.3889  -10.4410 O   0  0  0  0  0  0  0  0  0  0  0  0
   26.8447  -22.3078  -15.2275 C   0  0  0  0  0  0  0  0  0  0  0  0
   26.1549  -22.8136  -16.3096 C   0  0  0  0  0  0  0  0  0  0  0  0
   28.5327  -19.1519   -3.8770 C   0  0  0  0  0  0  0  0  0  0  0  0
   28.4685  -19.8217   -5.5712 S   0  0  0  0  0  0  0  0  0  0  0  0
   27.5364  -18.8766   -6.7098 C   0  0  0  0  0  0  0  0  0  0  0  0
   27.0425  -19.3649   -7.9932 C   0  0  0  0  0  0  0  0  0  0  0  0
   26.8260  -20.8087   -8.1618 C   0  0  2  0  0  0  0  0  0  0  0  0
   26.2374  -21.0573   -9.5294 N   0  0  0  0  0  0  0  0  0  0  0  0
   25.6008  -21.1760   -7.3339 C   0  0  0  0  0  0  0  0  0  0  0  0
   24.4871  -21.2101   -7.9815 O   0  0  0  0  0  0  0  0  0  0  0  0
   25.5800  -21.4564   -6.0247 O   0  0  0  0  0  0  0  0  0  0  0  0
  1  2  1  0
  2  4  1  0
  3  2  2  0
  4  5  1  0
  6  5  1  0
  6  7  1  6
  8  6  1  0
  9  8  2  0
 10 11  1  0
 11 21  2  0
 12 13  2  0
 12 11  1  0
 13 14  1  0
 14 15  1  0
 14 20  2  0
 16 15  1  6
 16 18  1  0
 16 17  1  0
 17  8  1  0
 18 19  2  0
 21 20  1  0
 22 23  1  0
 23 24  1  0
 25 24  1  0
 26 25  1  6
 27 26  1  0
 27 18  1  0
 28 30  1  0
 28 26  1  0
 29 28  2  0
M  END
$$$$
