QYM.pdb
     RDKit          3D

 30 30  0  0  1  0  0  0  0  0999 V2000
   11.5181  -10.3658   -8.3638 N   0  0  0  0  0  0  0  0  0  0  0  0
   11.5409  -11.0377   -9.6211 C   0  0  0  0  0  0  0  0  0  0  0  0
   11.0346  -12.1816   -9.6298 O   0  0  0  0  0  0  0  0  0  0  0  0
   12.0959  -10.4833  -10.8388 C   0  0  0  0  0  0  0  0  0  0  0  0
   12.6034   -9.1069  -10.8538 C   0  0  0  0  0  0  0  0  0  0  0  0
   13.7206   -8.7720  -11.7785 C   0  0  2  0  0  0  0  0  0  0  0  0
   14.8529   -9.6344  -11.7579 N   0  0  0  0  0  0  0  0  0  0  0  0
   14.1385   -7.3497  -11.6583 C   0  0  0  0  0  0  0  0  0  0  0  0
   13.2667   -6.4149  -11.6713 O   0  0  0  0  0  0  0  0  0  0  0  0
   13.3137   -5.2443   -5.4218 O   0  0  0  0  0  0  0  0  0  0  0  0
   14.1160   -5.2994   -6.5448 C   0  0  0  0  0  0  0  0  0  0  0  0
   14.8642   -6.4168   -6.7878 C   0  0  0  0  0  0  0  0  0  0  0  0
   15.6654   -6.4490   -7.9264 C   0  0  0  0  0  0  0  0  0  0  0  0
   15.7171   -5.3836   -8.8052 C   0  0  0  0  0  0  0  0  0  0  0  0
   16.5680   -5.4243  -10.0016 C   0  0  0  0  0  0  0  0  0  0  0  0
   15.7869   -5.5310  -11.2889 C   0  0  2  0  0  0  0  0  0  0  0  0
   15.4875   -6.9582  -11.5246 N   0  0  0  0  0  0  0  0  0  0  0  0
   16.6091   -5.0735  -12.4636 C   0  0  0  0  0  0  0  0  0  0  0  0
   17.5290   -5.8104  -12.9294 O   0  0  0  0  0  0  0  0  0  0  0  0
   14.9352   -4.2808   -8.5026 C   0  0  0  0  0  0  0  0  0  0  0  0
   14.1297   -4.2129   -7.3848 C   0  0  0  0  0  0  0  0  0  0  0  0
   17.3477   -2.1086  -19.5868 C   0  0  0  0  0  0  0  0  0  0  0  0
   16.3476   -2.8516  -18.2561 S   0  0  0  0  0  0  0  0  0  0  0  0
   17.1212   -2.9101  -16.6886 C   0  0  0  0  0  0  0  0  0  0  0  0
   16.4963   -3.4076  -15.4673 C   0  0  0  0  0  0  0  0  0  0  0  0
   17.2949   -3.4509  -14.2343 C   0  0  2  0  0  0  0  0  0  0  0  0
   16.3951   -3.8313  -13.0834 N   0  0  0  0  0  0  0  0  0  0  0  0
   17.5631   -2.0079  -13.8254 C   0  0  0  0  0  0  0  0  0  0  0  0
   16.6773   -1.4794  -13.0529 O   0  0  0  0  0  0  0  0  0  0  0  0
   18.6109   -1.2587  -14.1916 O   0  0  0  0  0  0  0  0  0  0  0  0
  1  2  1  0
  2  4  1  0
  3  2  2  0
  4  5  1  0
  6  5  1  0
  6  7  1  1
  8  6  1  0
  9  8  2  0
 10 11  1  0
 11 21  2  0
 12 13  2  0
 12 11  1  0
 13 14  1  0
 14 15  1  0
 14 20  2  0
 16 15  1  1
 16 18  1  0
 16 17  1  0
 17  8  1  0
 18 19  2  0
 21 20  1  0
 22 23  1  0
 23 24  1  0
 25 24  1  0
 26 25  1  6
 27 26  1  0
 27 18  1  0
 28 30  1  0
 28 26  1  0
 29 28  2  0
M  END
$$$$
