QYM.pdb
     RDKit          3D

 30 30  0  0  1  0  0  0  0  0999 V2000
   22.6766  -16.0718  -14.3524 N   0  0  0  0  0  0  0  0  0  0  0  0
   21.5204  -16.7869  -14.7821 C   0  0  0  0  0  0  0  0  0  0  0  0
   21.4066  -17.9480  -14.3308 O   0  0  0  0  0  0  0  0  0  0  0  0
   20.5117  -16.2566  -15.6761 C   0  0  0  0  0  0  0  0  0  0  0  0
   20.5800  -14.8575  -16.1123 C   0  0  0  0  0  0  0  0  0  0  0  0
   19.4268  -14.2906  -16.8632 C   0  0  2  0  0  0  0  0  0  0  0  0
   19.0201  -14.9849  -18.0375 N   0  0  0  0  0  0  0  0  0  0  0  0
   19.5995  -12.8399  -17.1414 C   0  0  0  0  0  0  0  0  0  0  0  0
   20.0938  -12.4476  -18.2532 O   0  0  0  0  0  0  0  0  0  0  0  0
   14.5128  -10.9665  -20.7075 O   0  0  0  0  0  0  0  0  0  0  0  0
   15.3797  -10.6621  -19.6761 C   0  0  0  0  0  0  0  0  0  0  0  0
   16.3353   -9.7020  -19.8562 C   0  0  0  0  0  0  0  0  0  0  0  0
   17.1979   -9.4126  -18.8019 C   0  0  0  0  0  0  0  0  0  0  0  0
   17.1063  -10.0714  -17.5905 C   0  0  0  0  0  0  0  0  0  0  0  0
   18.0228   -9.7630  -16.4851 C   0  0  0  0  0  0  0  0  0  0  0  0
   19.3734  -10.4224  -16.6249 C   0  0  2  0  0  0  0  0  0  0  0  0
   19.2358  -11.8360  -16.2189 N   0  0  0  0  0  0  0  0  0  0  0  0
   20.3775   -9.8103  -15.6857 C   0  0  0  0  0  0  0  0  0  0  0  0
   20.2299   -9.9139  -14.4312 O   0  0  0  0  0  0  0  0  0  0  0  0
   16.1167  -11.0336  -17.4715 C   0  0  0  0  0  0  0  0  0  0  0  0
   15.2446  -11.3469  -18.4933 C   0  0  0  0  0  0  0  0  0  0  0  0
   26.7229  -11.1011  -15.6909 C   0  0  0  0  0  0  0  0  0  0  0  0
   25.1771  -10.3233  -16.2641 S   0  0  0  0  0  0  0  0  0  0  0  0
   24.8573   -8.7334  -15.6094 C   0  0  0  0  0  0  0  0  0  0  0  0
   23.6199   -7.9843  -15.8028 C   0  0  0  0  0  0  0  0  0  0  0  0
   22.4000   -8.4535  -15.1309 C   0  0  2  0  0  0  0  0  0  0  0  0
   21.5025   -9.1100  -16.1519 N   0  0  0  0  0  0  0  0  0  0  0  0
   21.5423   -7.2250  -14.8540 C   0  0  0  0  0  0  0  0  0  0  0  0
   21.7934   -6.6147  -13.7471 O   0  0  0  0  0  0  0  0  0  0  0  0
   20.5728   -6.7380  -15.6390 O   0  0  0  0  0  0  0  0  0  0  0  0
  1  2  1  0
  2  4  1  0
  3  2  2  0
  4  5  1  0
  6  5  1  0
  6  7  1  6
  8  6  1  0
  9  8  2  0
 10 11  1  0
 11 21  2  0
 12 13  2  0
 12 11  1  0
 13 14  1  0
 14 15  1  0
 14 20  2  0
 16 15  1  1
 16 18  1  0
 16 17  1  0
 17  8  1  0
 18 19  2  0
 21 20  1  0
 22 23  1  0
 23 24  1  0
 25 24  1  0
 26 25  1  6
 27 26  1  0
 27 18  1  0
 28 30  1  0
 28 26  1  0
 29 28  2  0
M  END
$$$$
