QYM.pdb
     RDKit          3D

 30 30  0  0  1  0  0  0  0  0999 V2000
   29.5923  -19.8916  -17.1212 N   0  0  0  0  0  0  0  0  0  0  0  0
   28.5645  -19.3971  -17.9769 C   0  0  0  0  0  0  0  0  0  0  0  0
   28.7636  -19.5506  -19.2022 O   0  0  0  0  0  0  0  0  0  0  0  0
   27.3506  -18.7548  -17.5164 C   0  0  0  0  0  0  0  0  0  0  0  0
   27.0432  -18.7085  -16.0826 C   0  0  0  0  0  0  0  0  0  0  0  0
   26.9258  -19.9929  -15.3397 C   0  0  2  0  0  0  0  0  0  0  0  0
   26.2918  -21.0722  -16.0175 N   0  0  0  0  0  0  0  0  0  0  0  0
   26.3407  -19.8039  -13.9855 C   0  0  0  0  0  0  0  0  0  0  0  0
   26.4598  -18.6852  -13.3785 O   0  0  0  0  0  0  0  0  0  0  0  0
   19.8585  -18.7770  -15.6002 O   0  0  0  0  0  0  0  0  0  0  0  0
   20.7659  -19.3596  -14.7369 C   0  0  0  0  0  0  0  0  0  0  0  0
   21.0089  -18.7846  -13.5213 C   0  0  0  0  0  0  0  0  0  0  0  0
   21.9280  -19.3903  -12.6682 C   0  0  0  0  0  0  0  0  0  0  0  0
   22.5913  -20.5491  -13.0245 C   0  0  0  0  0  0  0  0  0  0  0  0
   23.5622  -21.1791  -12.1203 C   0  0  0  0  0  0  0  0  0  0  0  0
   24.8934  -20.4684  -12.0814 C   0  0  2  0  0  0  0  0  0  0  0  0
   25.6359  -20.8218  -13.3086 N   0  0  0  0  0  0  0  0  0  0  0  0
   25.7329  -20.9485  -10.9282 C   0  0  0  0  0  0  0  0  0  0  0  0
   26.1149  -22.1556  -10.8707 O   0  0  0  0  0  0  0  0  0  0  0  0
   22.3007  -21.0822  -14.2697 C   0  0  0  0  0  0  0  0  0  0  0  0
   21.3969  -20.5107  -15.1410 C   0  0  0  0  0  0  0  0  0  0  0  0
   28.3607  -18.4353   -4.1223 C   0  0  0  0  0  0  0  0  0  0  0  0
   29.0978  -18.7800   -5.7535 S   0  0  0  0  0  0  0  0  0  0  0  0
   28.2229  -19.9319   -6.7366 C   0  0  0  0  0  0  0  0  0  0  0  0
   27.6065  -19.6318   -8.0248 C   0  0  0  0  0  0  0  0  0  0  0  0
   26.8652  -20.6958   -8.7162 C   0  0  2  0  0  0  0  0  0  0  0  0
   26.1225  -20.0933   -9.8842 N   0  0  0  0  0  0  0  0  0  0  0  0
   25.6584  -21.0345   -7.8499 C   0  0  0  0  0  0  0  0  0  0  0  0
   24.5401  -20.5247   -8.2377 O   0  0  0  0  0  0  0  0  0  0  0  0
   25.6586  -21.7939   -6.7470 O   0  0  0  0  0  0  0  0  0  0  0  0
  1  2  1  0
  2  4  1  0
  3  2  2  0
  4  5  1  0
  6  5  1  0
  6  7  1  6
  8  6  1  0
  9  8  2  0
 10 11  1  0
 11 21  2  0
 12 13  2  0
 12 11  1  0
 13 14  1  0
 14 15  1  0
 14 20  2  0
 16 15  1  6
 16 18  1  0
 16 17  1  0
 17  8  1  0
 18 19  2  0
 21 20  1  0
 22 23  1  0
 23 24  1  0
 25 24  1  0
 26 25  1  1
 27 26  1  0
 27 18  1  0
 28 30  1  0
 28 26  1  0
 29 28  2  0
M  END
$$$$
