QYM.pdb
     RDKit          3D

 30 30  0  0  1  0  0  0  0  0999 V2000
   22.5820  -14.8955  -21.5585 N   0  0  0  0  0  0  0  0  0  0  0  0
   22.0625  -15.8864  -22.4423 C   0  0  0  0  0  0  0  0  0  0  0  0
   22.8312  -16.2438  -23.3622 O   0  0  0  0  0  0  0  0  0  0  0  0
   20.7446  -16.4769  -22.3310 C   0  0  0  0  0  0  0  0  0  0  0  0
   19.8582  -16.0907  -21.2275 C   0  0  0  0  0  0  0  0  0  0  0  0
   20.0103  -16.7833  -19.9189 C   0  0  2  0  0  0  0  0  0  0  0  0
   19.6631  -18.1632  -19.8774 N   0  0  0  0  0  0  0  0  0  0  0  0
   19.3502  -16.0398  -18.8128 C   0  0  0  0  0  0  0  0  0  0  0  0
   18.0879  -16.1316  -18.6332 O   0  0  0  0  0  0  0  0  0  0  0  0
   18.7677  -20.4622  -14.3150 O   0  0  0  0  0  0  0  0  0  0  0  0
   19.0730  -19.1483  -14.6122 C   0  0  0  0  0  0  0  0  0  0  0  0
   20.3003  -18.8384  -15.1272 C   0  0  0  0  0  0  0  0  0  0  0  0
   20.5850  -17.5068  -15.4188 C   0  0  0  0  0  0  0  0  0  0  0  0
   19.6595  -16.5042  -15.1992 C   0  0  0  0  0  0  0  0  0  0  0  0
   19.9696  -15.1016  -15.5056 C   0  0  0  0  0  0  0  0  0  0  0  0
   19.3302  -14.6119  -16.7824 C   0  0  2  0  0  0  0  0  0  0  0  0
   20.0603  -15.2115  -17.9180 N   0  0  0  0  0  0  0  0  0  0  0  0
   19.4769  -13.1211  -16.9272 C   0  0  0  0  0  0  0  0  0  0  0  0
   20.5908  -12.6145  -17.2574 O   0  0  0  0  0  0  0  0  0  0  0  0
   18.4343  -16.8834  -14.6755 C   0  0  0  0  0  0  0  0  0  0  0  0
   18.1166  -18.1916  -14.3746 C   0  0  0  0  0  0  0  0  0  0  0  0
   16.5671   -9.3921  -21.8103 C   0  0  0  0  0  0  0  0  0  0  0  0
   16.2078   -9.4974  -20.0263 S   0  0  0  0  0  0  0  0  0  0  0  0
   17.5422  -10.0300  -19.0290 C   0  0  0  0  0  0  0  0  0  0  0  0
   17.4950  -10.1715  -17.5773 C   0  0  0  0  0  0  0  0  0  0  0  0
   18.6502  -10.7644  -16.8892 C   0  0  2  0  0  0  0  0  0  0  0  0
   18.4034  -12.2425  -16.7067 N   0  0  0  0  0  0  0  0  0  0  0  0
   18.5579  -10.3520  -15.4254 C   0  0  0  0  0  0  0  0  0  0  0  0
   18.1478  -11.2692  -14.6183 O   0  0  0  0  0  0  0  0  0  0  0  0
   18.8552   -9.1492  -14.9173 O   0  0  0  0  0  0  0  0  0  0  0  0
  1  2  1  0
  2  4  1  0
  3  2  2  0
  4  5  1  0
  6  5  1  0
  6  7  1  6
  8  6  1  0
  9  8  2  0
 10 11  1  0
 11 21  2  0
 12 13  2  0
 12 11  1  0
 13 14  1  0
 14 15  1  0
 14 20  2  0
 16 15  1  1
 16 18  1  0
 16 17  1  0
 17  8  1  0
 18 19  2  0
 21 20  1  0
 22 23  1  0
 23 24  1  0
 25 24  1  0
 26 25  1  6
 27 26  1  0
 27 18  1  0
 28 30  1  0
 28 26  1  0
 29 28  2  0
M  END
$$$$
