QYM.pdb
     RDKit          3D

 30 30  0  0  1  0  0  0  0  0999 V2000
   22.1175  -17.8337  -15.4922 N   0  0  0  0  0  0  0  0  0  0  0  0
   21.4815  -18.8668  -14.7433 C   0  0  0  0  0  0  0  0  0  0  0  0
   20.7282  -18.4791  -13.8229 O   0  0  0  0  0  0  0  0  0  0  0  0
   21.6551  -20.2840  -14.9870 C   0  0  0  0  0  0  0  0  0  0  0  0
   22.6995  -21.0286  -14.2747 C   0  0  0  0  0  0  0  0  0  0  0  0
   24.0462  -21.1363  -14.8992 C   0  0  2  0  0  0  0  0  0  0  0  0
   24.1483  -21.9331  -16.0744 N   0  0  0  0  0  0  0  0  0  0  0  0
   25.0916  -21.5162  -13.9118 C   0  0  0  0  0  0  0  0  0  0  0  0
   25.2659  -22.7415  -13.5919 O   0  0  0  0  0  0  0  0  0  0  0  0
   32.1969  -21.5841   -8.7715 O   0  0  0  0  0  0  0  0  0  0  0  0
   31.1826  -21.2069   -9.6298 C   0  0  0  0  0  0  0  0  0  0  0  0
   30.3186  -20.2143   -9.2616 C   0  0  0  0  0  0  0  0  0  0  0  0
   29.3038  -19.8514  -10.1437 C   0  0  0  0  0  0  0  0  0  0  0  0
   29.1563  -20.4699  -11.3707 C   0  0  0  0  0  0  0  0  0  0  0  0
   28.0808  -20.0838  -12.2933 C   0  0  0  0  0  0  0  0  0  0  0  0
   26.9218  -21.0510  -12.3008 C   0  0  2  0  0  0  0  0  0  0  0  0
   25.9324  -20.5709  -13.2870 N   0  0  0  0  0  0  0  0  0  0  0  0
   26.2175  -21.0664  -10.9708 C   0  0  0  0  0  0  0  0  0  0  0  0
   25.0941  -20.4963  -10.8325 O   0  0  0  0  0  0  0  0  0  0  0  0
   30.0642  -21.4681  -11.6847 C   0  0  0  0  0  0  0  0  0  0  0  0
   31.0815  -21.8542  -10.8369 C   0  0  0  0  0  0  0  0  0  0  0  0
   28.2052  -18.9856   -4.6395 C   0  0  0  0  0  0  0  0  0  0  0  0
   27.5896  -20.6983   -4.7426 S   0  0  0  0  0  0  0  0  0  0  0  0
   26.5606  -21.0374   -6.1155 C   0  0  0  0  0  0  0  0  0  0  0  0
   27.0345  -21.2818   -7.4739 C   0  0  0  0  0  0  0  0  0  0  0  0
   26.0460  -21.5531   -8.5269 C   0  0  2  0  0  0  0  0  0  0  0  0
   26.7662  -21.7029   -9.8452 N   0  0  0  0  0  0  0  0  0  0  0  0
   25.3357  -20.2378   -8.8220 C   0  0  0  0  0  0  0  0  0  0  0  0
   26.0409  -19.3574   -9.4451 O   0  0  0  0  0  0  0  0  0  0  0  0
   24.0755  -19.9235   -8.4960 O   0  0  0  0  0  0  0  0  0  0  0  0
  1  2  1  0
  2  4  1  0
  3  2  2  0
  4  5  1  0
  6  5  1  0
  6  7  1  6
  8  6  1  0
  9  8  2  0
 10 11  1  0
 11 21  2  0
 12 13  2  0
 12 11  1  0
 13 14  1  0
 14 15  1  0
 14 20  2  0
 16 15  1  1
 16 18  1  0
 16 17  1  0
 17  8  1  0
 18 19  2  0
 21 20  1  0
 22 23  1  0
 23 24  1  0
 25 24  1  0
 26 25  1  1
 27 26  1  0
 27 18  1  0
 28 30  1  0
 28 26  1  0
 29 28  2  0
M  END
$$$$
