QYM.pdb
     RDKit          3D

 30 30  0  0  1  0  0  0  0  0999 V2000
   29.9175  -22.9893  -16.6228 N   0  0  0  0  0  0  0  0  0  0  0  0
   29.7843  -22.8470  -18.0352 C   0  0  0  0  0  0  0  0  0  0  0  0
   30.8577  -22.7525  -18.6706 O   0  0  0  0  0  0  0  0  0  0  0  0
   28.5202  -22.8106  -18.7415 C   0  0  0  0  0  0  0  0  0  0  0  0
   27.2609  -22.9350  -17.9992 C   0  0  0  0  0  0  0  0  0  0  0  0
   26.5438  -21.6922  -17.6039 C   0  0  2  0  0  0  0  0  0  0  0  0
   27.2971  -20.4843  -17.6136 N   0  0  0  0  0  0  0  0  0  0  0  0
   25.8185  -21.8511  -16.3152 C   0  0  0  0  0  0  0  0  0  0  0  0
   25.2130  -22.9435  -16.0429 O   0  0  0  0  0  0  0  0  0  0  0  0
   22.8874  -20.9020   -8.0989 O   0  0  0  0  0  0  0  0  0  0  0  0
   23.5635  -20.7802   -9.2972 C   0  0  0  0  0  0  0  0  0  0  0  0
   22.9833  -20.1089  -10.3365 C   0  0  0  0  0  0  0  0  0  0  0  0
   23.6844  -19.9993  -11.5348 C   0  0  0  0  0  0  0  0  0  0  0  0
   24.9419  -20.5509  -11.6903 C   0  0  0  0  0  0  0  0  0  0  0  0
   25.6727  -20.4342  -12.9590 C   0  0  0  0  0  0  0  0  0  0  0  0
   24.9522  -21.0655  -14.1257 C   0  0  2  0  0  0  0  0  0  0  0  0
   25.7587  -20.8320  -15.3411 N   0  0  0  0  0  0  0  0  0  0  0  0
   23.6234  -20.4019  -14.3680 C   0  0  0  0  0  0  0  0  0  0  0  0
   23.5692  -19.2074  -14.7882 O   0  0  0  0  0  0  0  0  0  0  0  0
   25.4749  -21.2184  -10.5996 C   0  0  0  0  0  0  0  0  0  0  0  0
   24.8105  -21.3471   -9.3976 C   0  0  0  0  0  0  0  0  0  0  0  0
   19.1768  -21.5837  -18.5998 C   0  0  0  0  0  0  0  0  0  0  0  0
   18.4445  -20.3073  -17.5240 S   0  0  0  0  0  0  0  0  0  0  0  0
   19.2414  -20.0868  -15.9828 C   0  0  0  0  0  0  0  0  0  0  0  0
   20.5675  -20.5960  -15.6483 C   0  0  0  0  0  0  0  0  0  0  0  0
   21.1286  -20.2853  -14.3261 C   0  0  2  0  0  0  0  0  0  0  0  0
   22.4069  -21.0672  -14.1426 N   0  0  0  0  0  0  0  0  0  0  0  0
   20.2804  -21.0218  -13.2968 C   0  0  0  0  0  0  0  0  0  0  0  0
   20.6584  -22.2243  -13.0287 O   0  0  0  0  0  0  0  0  0  0  0  0
   19.2019  -20.5420  -12.6644 O   0  0  0  0  0  0  0  0  0  0  0  0
  1  2  1  0
  2  4  1  0
  3  2  2  0
  4  5  1  0
  6  5  1  0
  6  7  1  1
  8  6  1  0
  9  8  2  0
 10 11  1  0
 11 21  2  0
 12 13  2  0
 12 11  1  0
 13 14  1  0
 14 15  1  0
 14 20  2  0
 16 15  1  1
 16 18  1  0
 16 17  1  0
 17  8  1  0
 18 19  2  0
 21 20  1  0
 22 23  1  0
 23 24  1  0
 25 24  1  0
 26 25  1  6
 27 26  1  0
 27 18  1  0
 28 30  1  0
 28 26  1  0
 29 28  2  0
M  END
$$$$
