QYM.pdb
     RDKit          3D

 30 30  0  0  1  0  0  0  0  0999 V2000
   29.8032  -21.8505  -17.3135 N   0  0  0  0  0  0  0  0  0  0  0  0
   29.2616  -21.4937  -18.5833 C   0  0  0  0  0  0  0  0  0  0  0  0
   30.0960  -21.1325  -19.4424 O   0  0  0  0  0  0  0  0  0  0  0  0
   27.8520  -21.5298  -18.9146 C   0  0  0  0  0  0  0  0  0  0  0  0
   26.8780  -22.0077  -17.9271 C   0  0  0  0  0  0  0  0  0  0  0  0
   27.3839  -22.5730  -16.6467 C   0  0  2  0  0  0  0  0  0  0  0  0
   27.9200  -23.8909  -16.6929 N   0  0  0  0  0  0  0  0  0  0  0  0
   26.3895  -22.4463  -15.5480 C   0  0  0  0  0  0  0  0  0  0  0  0
   25.3395  -23.1753  -15.5372 O   0  0  0  0  0  0  0  0  0  0  0  0
   22.2668  -20.0691   -8.1348 O   0  0  0  0  0  0  0  0  0  0  0  0
   23.1758  -20.1990   -9.1666 C   0  0  0  0  0  0  0  0  0  0  0  0
   22.9670  -19.5319  -10.3408 C   0  0  0  0  0  0  0  0  0  0  0  0
   23.8973  -19.6786  -11.3666 C   0  0  0  0  0  0  0  0  0  0  0  0
   25.0153  -20.4778  -11.2204 C   0  0  0  0  0  0  0  0  0  0  0  0
   25.9895  -20.6303  -12.3090 C   0  0  0  0  0  0  0  0  0  0  0  0
   25.4780  -21.4649  -13.4581 C   0  0  2  0  0  0  0  0  0  0  0  0
   26.5432  -21.5384  -14.4789 N   0  0  0  0  0  0  0  0  0  0  0  0
   24.2998  -20.8080  -14.1254 C   0  0  0  0  0  0  0  0  0  0  0  0
   24.4696  -19.8210  -14.9021 O   0  0  0  0  0  0  0  0  0  0  0  0
   25.1696  -21.1270  -10.0064 C   0  0  0  0  0  0  0  0  0  0  0  0
   24.2696  -21.0057   -8.9681 C   0  0  0  0  0  0  0  0  0  0  0  0
   20.9850  -22.7770  -18.7882 C   0  0  0  0  0  0  0  0  0  0  0  0
   19.9064  -22.9117  -17.3249 S   0  0  0  0  0  0  0  0  0  0  0  0
   20.5207  -22.1500  -15.8754 C   0  0  0  0  0  0  0  0  0  0  0  0
   21.5276  -21.0940  -15.8498 C   0  0  0  0  0  0  0  0  0  0  0  0
   21.8634  -20.4717  -14.5615 C   0  0  2  0  0  0  0  0  0  0  0  0
   22.9837  -21.2538  -13.9194 N   0  0  0  0  0  0  0  0  0  0  0  0
   20.7566  -20.8452  -13.5833 C   0  0  0  0  0  0  0  0  0  0  0  0
   19.6538  -20.1932  -13.7225 O   0  0  0  0  0  0  0  0  0  0  0  0
   20.8288  -21.7665  -12.6141 O   0  0  0  0  0  0  0  0  0  0  0  0
  1  2  1  0
  2  4  1  0
  3  2  2  0
  4  5  1  0
  6  5  1  0
  6  7  1  6
  8  6  1  0
  9  8  2  0
 10 11  1  0
 11 21  2  0
 12 13  2  0
 12 11  1  0
 13 14  1  0
 14 15  1  0
 14 20  2  0
 16 15  1  1
 16 18  1  0
 16 17  1  0
 17  8  1  0
 18 19  2  0
 21 20  1  0
 22 23  1  0
 23 24  1  0
 25 24  1  0
 26 25  1  6
 27 26  1  0
 27 18  1  0
 28 30  1  0
 28 26  1  0
 29 28  2  0
M  END
$$$$
