QYM.pdb
     RDKit          3D

 30 30  0  0  1  0  0  0  0  0999 V2000
   21.0446  -14.7342  -15.7477 N   0  0  0  0  0  0  0  0  0  0  0  0
   21.1021  -14.9708  -17.1525 C   0  0  0  0  0  0  0  0  0  0  0  0
   20.5868  -16.0429  -17.5397 O   0  0  0  0  0  0  0  0  0  0  0  0
   21.7006  -14.0676  -18.1139 C   0  0  0  0  0  0  0  0  0  0  0  0
   22.2524  -12.7831  -17.6693 C   0  0  0  0  0  0  0  0  0  0  0  0
   21.6075  -11.5296  -18.1468 C   0  0  2  0  0  0  0  0  0  0  0  0
   21.9818  -11.0660  -19.4396 N   0  0  0  0  0  0  0  0  0  0  0  0
   21.7042  -10.4344  -17.1453 C   0  0  0  0  0  0  0  0  0  0  0  0
   21.2602  -10.6009  -15.9582 O   0  0  0  0  0  0  0  0  0  0  0  0
   27.7211  -11.4815  -15.5693 O   0  0  0  0  0  0  0  0  0  0  0  0
   26.7388  -10.5270  -15.7483 C   0  0  0  0  0  0  0  0  0  0  0  0
   25.8749  -10.2452  -14.7276 C   0  0  0  0  0  0  0  0  0  0  0  0
   24.8929   -9.2791  -14.9318 C   0  0  0  0  0  0  0  0  0  0  0  0
   24.7773   -8.6078  -16.1343 C   0  0  0  0  0  0  0  0  0  0  0  0
   23.7360   -7.5932  -16.3426 C   0  0  0  0  0  0  0  0  0  0  0  0
   22.3390   -8.1646  -16.3664 C   0  0  2  0  0  0  0  0  0  0  0  0
   22.2787   -9.1793  -17.4382 N   0  0  0  0  0  0  0  0  0  0  0  0
   21.3264   -7.1110  -16.7264 C   0  0  0  0  0  0  0  0  0  0  0  0
   21.3959   -6.5068  -17.8384 O   0  0  0  0  0  0  0  0  0  0  0  0
   25.6832   -8.9390  -17.1287 C   0  0  0  0  0  0  0  0  0  0  0  0
   26.6687   -9.8899  -16.9630 C   0  0  0  0  0  0  0  0  0  0  0  0
   14.3961   -3.4486  -15.1858 C   0  0  0  0  0  0  0  0  0  0  0  0
   15.5113   -4.8409  -14.8106 S   0  0  0  0  0  0  0  0  0  0  0  0
   17.0240   -4.8395  -15.6883 C   0  0  0  0  0  0  0  0  0  0  0  0
   18.0235   -5.9013  -15.6309 C   0  0  0  0  0  0  0  0  0  0  0  0
   19.3056   -5.7001  -16.3204 C   0  0  2  0  0  0  0  0  0  0  0  0
   20.2785   -6.7586  -15.8599 N   0  0  0  0  0  0  0  0  0  0  0  0
   19.9781   -4.4973  -15.6704 C   0  0  0  0  0  0  0  0  0  0  0  0
   19.7816   -3.3690  -16.2613 O   0  0  0  0  0  0  0  0  0  0  0  0
   20.7388   -4.5102  -14.5684 O   0  0  0  0  0  0  0  0  0  0  0  0
  1  2  1  0
  2  4  1  0
  3  2  2  0
  4  5  1  0
  6  5  1  0
  6  7  1  6
  8  6  1  0
  9  8  2  0
 10 11  1  0
 11 21  2  0
 12 13  2  0
 12 11  1  0
 13 14  1  0
 14 15  1  0
 14 20  2  0
 16 15  1  6
 16 18  1  0
 16 17  1  0
 17  8  1  0
 18 19  2  0
 21 20  1  0
 22 23  1  0
 23 24  1  0
 25 24  1  0
 26 25  1  1
 27 26  1  0
 27 18  1  0
 28 30  1  0
 28 26  1  0
 29 28  2  0
M  END
$$$$
