QYM.pdb
     RDKit          3D

 30 30  0  0  1  0  0  0  0  0999 V2000
   16.8041  -12.7265  -16.1209 N   0  0  0  0  0  0  0  0  0  0  0  0
   17.6598  -13.6740  -16.7557 C   0  0  0  0  0  0  0  0  0  0  0  0
   17.1459  -14.7895  -16.9931 O   0  0  0  0  0  0  0  0  0  0  0  0
   19.0366  -13.4186  -17.1261 C   0  0  0  0  0  0  0  0  0  0  0  0
   19.6179  -12.0878  -16.9176 C   0  0  0  0  0  0  0  0  0  0  0  0
   21.0998  -11.9610  -16.8614 C   0  0  2  0  0  0  0  0  0  0  0  0
   21.8054  -12.9736  -16.1520 N   0  0  0  0  0  0  0  0  0  0  0  0
   21.5286  -10.6084  -16.4157 C   0  0  0  0  0  0  0  0  0  0  0  0
   21.7056  -10.3612  -15.1741 O   0  0  0  0  0  0  0  0  0  0  0  0
   27.5327  -11.5866  -15.4976 O   0  0  0  0  0  0  0  0  0  0  0  0
   26.5700  -10.7117  -15.9620 C   0  0  0  0  0  0  0  0  0  0  0  0
   26.0715  -10.8624  -17.2254 C   0  0  0  0  0  0  0  0  0  0  0  0
   25.1017   -9.9681  -17.6715 C   0  0  0  0  0  0  0  0  0  0  0  0
   24.6395   -8.9424  -16.8688 C   0  0  0  0  0  0  0  0  0  0  0  0
   23.6194   -8.0010  -17.3487 C   0  0  0  0  0  0  0  0  0  0  0  0
   22.2477   -8.2597  -16.7740 C   0  0  2  0  0  0  0  0  0  0  0  0
   21.7612   -9.5457  -17.3143 N   0  0  0  0  0  0  0  0  0  0  0  0
   21.2632   -7.2143  -17.2243 C   0  0  0  0  0  0  0  0  0  0  0  0
   20.7913   -7.2406  -18.4002 O   0  0  0  0  0  0  0  0  0  0  0  0
   25.1844   -8.8436  -15.5990 C   0  0  0  0  0  0  0  0  0  0  0  0
   26.1460   -9.7105  -15.1229 C   0  0  0  0  0  0  0  0  0  0  0  0
   14.7032   -3.2538  -16.4665 C   0  0  0  0  0  0  0  0  0  0  0  0
   15.7951   -4.6689  -16.1090 S   0  0  0  0  0  0  0  0  0  0  0  0
   17.4940   -4.3951  -16.4217 C   0  0  0  0  0  0  0  0  0  0  0  0
   18.5485   -5.3854  -16.2294 C   0  0  0  0  0  0  0  0  0  0  0  0
   19.8325   -5.1900  -16.9171 C   0  0  2  0  0  0  0  0  0  0  0  0
   20.8324   -6.1822  -16.3743 N   0  0  0  0  0  0  0  0  0  0  0  0
   20.4577   -3.9243  -16.3440 C   0  0  0  0  0  0  0  0  0  0  0  0
   21.3680   -4.1135  -15.4517 O   0  0  0  0  0  0  0  0  0  0  0  0
   20.1497   -2.6640  -16.6761 O   0  0  0  0  0  0  0  0  0  0  0  0
  1  2  1  0
  2  4  1  0
  3  2  2  0
  4  5  1  0
  6  5  1  0
  6  7  1  1
  8  6  1  0
  9  8  2  0
 10 11  1  0
 11 21  2  0
 12 13  2  0
 12 11  1  0
 13 14  1  0
 14 15  1  0
 14 20  2  0
 16 15  1  6
 16 18  1  0
 16 17  1  0
 17  8  1  0
 18 19  2  0
 21 20  1  0
 22 23  1  0
 23 24  1  0
 25 24  1  0
 26 25  1  1
 27 26  1  0
 27 18  1  0
 28 30  1  0
 28 26  1  0
 29 28  2  0
M  END
$$$$
