QYM.pdb
     RDKit          3D

 30 30  0  0  1  0  0  0  0  0999 V2000
   26.8536  -21.8731  -20.1155 N   0  0  0  0  0  0  0  0  0  0  0  0
   27.8559  -20.8808  -19.9069 C   0  0  0  0  0  0  0  0  0  0  0  0
   28.5719  -20.6215  -20.8993 O   0  0  0  0  0  0  0  0  0  0  0  0
   28.0753  -20.1852  -18.6555 C   0  0  0  0  0  0  0  0  0  0  0  0
   27.1939  -20.4390  -17.5104 C   0  0  0  0  0  0  0  0  0  0  0  0
   27.6044  -21.4630  -16.5115 C   0  0  2  0  0  0  0  0  0  0  0  0
   27.9811  -22.7395  -17.0167 N   0  0  0  0  0  0  0  0  0  0  0  0
   26.6113  -21.6025  -15.4133 C   0  0  0  0  0  0  0  0  0  0  0  0
   25.7524  -22.5491  -15.4327 O   0  0  0  0  0  0  0  0  0  0  0  0
   22.3225  -20.7132   -7.7747 O   0  0  0  0  0  0  0  0  0  0  0  0
   23.2134  -20.5886   -8.8230 C   0  0  0  0  0  0  0  0  0  0  0  0
   22.8369  -19.9232   -9.9557 C   0  0  0  0  0  0  0  0  0  0  0  0
   23.7522  -19.8107  -10.9992 C   0  0  0  0  0  0  0  0  0  0  0  0
   25.0201  -20.3536  -10.9111 C   0  0  0  0  0  0  0  0  0  0  0  0
   25.9779  -20.2339  -12.0181 C   0  0  0  0  0  0  0  0  0  0  0  0
   25.5394  -20.9538  -13.2703 C   0  0  2  0  0  0  0  0  0  0  0  0
   26.5606  -20.7216  -14.3121 N   0  0  0  0  0  0  0  0  0  0  0  0
   24.2544  -20.3814  -13.8051 C   0  0  0  0  0  0  0  0  0  0  0  0
   24.2646  -19.3277  -14.5093 O   0  0  0  0  0  0  0  0  0  0  0  0
   25.3403  -21.0155   -9.7370 C   0  0  0  0  0  0  0  0  0  0  0  0
   24.4604  -21.1468   -8.6828 C   0  0  0  0  0  0  0  0  0  0  0  0
   18.2253  -20.0447  -18.2870 C   0  0  0  0  0  0  0  0  0  0  0  0
   19.8095  -20.7488  -17.7236 S   0  0  0  0  0  0  0  0  0  0  0  0
   20.2714  -20.3280  -16.0901 C   0  0  0  0  0  0  0  0  0  0  0  0
   21.5102  -20.7427  -15.4397 C   0  0  0  0  0  0  0  0  0  0  0  0
   21.7721  -20.2874  -14.0672 C   0  0  2  0  0  0  0  0  0  0  0  0
   23.0096  -20.9809  -13.5510 N   0  0  0  0  0  0  0  0  0  0  0  0
   20.7531  -20.9747  -13.1668 C   0  0  0  0  0  0  0  0  0  0  0  0
   21.0783  -22.1556  -12.7662 O   0  0  0  0  0  0  0  0  0  0  0  0
   19.5775  -20.4728  -12.7678 O   0  0  0  0  0  0  0  0  0  0  0  0
  1  2  1  0
  2  4  1  0
  3  2  2  0
  4  5  1  0
  6  5  1  0
  6  7  1  6
  8  6  1  0
  9  8  2  0
 10 11  1  0
 11 21  2  0
 12 13  2  0
 12 11  1  0
 13 14  1  0
 14 15  1  0
 14 20  2  0
 16 15  1  1
 16 18  1  0
 16 17  1  0
 17  8  1  0
 18 19  2  0
 21 20  1  0
 22 23  1  0
 23 24  1  0
 25 24  1  0
 26 25  1  6
 27 26  1  0
 27 18  1  0
 28 30  1  0
 28 26  1  0
 29 28  2  0
M  END
$$$$
