QYM.pdb
     RDKit          3D

 30 30  0  0  1  0  0  0  0  0999 V2000
   28.3863  -19.2927  -19.8028 N   0  0  0  0  0  0  0  0  0  0  0  0
   28.6226  -20.0856  -20.9640 C   0  0  0  0  0  0  0  0  0  0  0  0
   29.1222  -19.4794  -21.9375 O   0  0  0  0  0  0  0  0  0  0  0  0
   28.3274  -21.4999  -21.0670 C   0  0  0  0  0  0  0  0  0  0  0  0
   27.7508  -22.2145  -19.9228 C   0  0  0  0  0  0  0  0  0  0  0  0
   26.5133  -21.6732  -19.2977 C   0  0  2  0  0  0  0  0  0  0  0  0
   26.6756  -20.6067  -18.3690 N   0  0  0  0  0  0  0  0  0  0  0  0
   25.6610  -22.7480  -18.7231 C   0  0  0  0  0  0  0  0  0  0  0  0
   25.4190  -23.8103  -19.3917 O   0  0  0  0  0  0  0  0  0  0  0  0
   29.2275  -28.0099  -16.9436 O   0  0  0  0  0  0  0  0  0  0  0  0
   28.2378  -27.0961  -16.6380 C   0  0  0  0  0  0  0  0  0  0  0  0
   28.5148  -25.7586  -16.6808 C   0  0  0  0  0  0  0  0  0  0  0  0
   27.5008  -24.8566  -16.3685 C   0  0  0  0  0  0  0  0  0  0  0  0
   26.2338  -25.2845  -16.0200 C   0  0  0  0  0  0  0  0  0  0  0  0
   25.1713  -24.3264  -15.6881 C   0  0  0  0  0  0  0  0  0  0  0  0
   24.3967  -23.8497  -16.8929 C   0  0  2  0  0  0  0  0  0  0  0  0
   25.0851  -22.6617  -17.4378 N   0  0  0  0  0  0  0  0  0  0  0  0
   23.0149  -23.3954  -16.5063 C   0  0  0  0  0  0  0  0  0  0  0  0
   22.8450  -22.2868  -15.9161 O   0  0  0  0  0  0  0  0  0  0  0  0
   26.0170  -26.6525  -15.9953 C   0  0  0  0  0  0  0  0  0  0  0  0
   26.9963  -27.5755  -16.2984 C   0  0  0  0  0  0  0  0  0  0  0  0
   16.2224  -24.2172  -18.8275 C   0  0  0  0  0  0  0  0  0  0  0  0
   16.6811  -24.9306  -17.2140 S   0  0  0  0  0  0  0  0  0  0  0  0
   18.0952  -24.2258  -16.4641 C   0  0  0  0  0  0  0  0  0  0  0  0
   19.4691  -24.4387  -16.9076 C   0  0  0  0  0  0  0  0  0  0  0  0
   20.5446  -23.6730  -16.2622 C   0  0  2  0  0  0  0  0  0  0  0  0
   21.8738  -24.1679  -16.7791 N   0  0  0  0  0  0  0  0  0  0  0  0
   20.6666  -24.1909  -14.8345 C   0  0  0  0  0  0  0  0  0  0  0  0
   21.2265  -25.3452  -14.7121 O   0  0  0  0  0  0  0  0  0  0  0  0
   20.2506  -23.5687  -13.7241 O   0  0  0  0  0  0  0  0  0  0  0  0
  1  2  1  0
  2  4  1  0
  3  2  2  0
  4  5  1  0
  6  5  1  0
  6  7  1  1
  8  6  1  0
  9  8  2  0
 10 11  1  0
 11 21  2  0
 12 13  2  0
 12 11  1  0
 13 14  1  0
 14 15  1  0
 14 20  2  0
 16 15  1  1
 16 18  1  0
 16 17  1  0
 17  8  1  0
 18 19  2  0
 21 20  1  0
 22 23  1  0
 23 24  1  0
 25 24  1  0
 26 25  1  6
 27 26  1  0
 27 18  1  0
 28 30  1  0
 28 26  1  0
 29 28  2  0
M  END
$$$$
