QYM.pdb
     RDKit          3D

 30 30  0  0  1  0  0  0  0  0999 V2000
   29.2786  -21.8346  -20.5897 N   0  0  0  0  0  0  0  0  0  0  0  0
   27.9599  -21.3870  -20.2838 C   0  0  0  0  0  0  0  0  0  0  0  0
   27.0412  -21.9343  -20.9328 O   0  0  0  0  0  0  0  0  0  0  0  0
   27.6444  -20.3738  -19.2979 C   0  0  0  0  0  0  0  0  0  0  0  0
   26.8912  -20.7333  -18.0913 C   0  0  0  0  0  0  0  0  0  0  0  0
   27.5492  -21.5990  -17.0750 C   0  0  2  0  0  0  0  0  0  0  0  0
   27.9459  -22.8992  -17.4975 N   0  0  0  0  0  0  0  0  0  0  0  0
   26.7681  -21.6704  -15.8114 C   0  0  0  0  0  0  0  0  0  0  0  0
   25.8942  -22.5876  -15.6407 O   0  0  0  0  0  0  0  0  0  0  0  0
   24.5679  -20.8217   -7.3339 O   0  0  0  0  0  0  0  0  0  0  0  0
   25.1673  -20.7067   -8.5731 C   0  0  0  0  0  0  0  0  0  0  0  0
   24.6426  -19.8528   -9.5021 C   0  0  0  0  0  0  0  0  0  0  0  0
   25.2643  -19.7541  -10.7443 C   0  0  0  0  0  0  0  0  0  0  0  0
   26.3894  -20.4956  -11.0513 C   0  0  0  0  0  0  0  0  0  0  0  0
   27.0364  -20.3885  -12.3655 C   0  0  0  0  0  0  0  0  0  0  0  0
   26.2270  -20.9999  -13.4834 C   0  0  2  0  0  0  0  0  0  0  0  0
   26.9422  -20.7543  -14.7524 N   0  0  0  0  0  0  0  0  0  0  0  0
   24.8881  -20.3258  -13.6172 C   0  0  0  0  0  0  0  0  0  0  0  0
   24.7942  -19.1875  -14.1666 O   0  0  0  0  0  0  0  0  0  0  0  0
   26.8720  -21.3425  -10.0669 C   0  0  0  0  0  0  0  0  0  0  0  0
   26.2832  -21.4666   -8.8256 C   0  0  0  0  0  0  0  0  0  0  0  0
   20.1039  -17.0749  -16.8101 C   0  0  0  0  0  0  0  0  0  0  0  0
   21.4554  -18.0575  -16.0817 S   0  0  0  0  0  0  0  0  0  0  0  0
   20.9586  -19.5406  -15.2991 C   0  0  0  0  0  0  0  0  0  0  0  0
   21.8634  -20.4924  -14.6626 C   0  0  0  0  0  0  0  0  0  0  0  0
   22.4110  -20.1665  -13.3384 C   0  0  2  0  0  0  0  0  0  0  0  0
   23.7052  -20.9198  -13.1469 N   0  0  0  0  0  0  0  0  0  0  0  0
   21.5740  -20.9193  -12.3116 C   0  0  0  0  0  0  0  0  0  0  0  0
   21.9698  -22.1171  -12.0481 O   0  0  0  0  0  0  0  0  0  0  0  0
   20.4888  -20.4578  -11.6772 O   0  0  0  0  0  0  0  0  0  0  0  0
  1  2  1  0
  2  4  1  0
  3  2  2  0
  4  5  1  0
  6  5  1  0
  6  7  1  6
  8  6  1  0
  9  8  2  0
 10 11  1  0
 11 21  2  0
 12 13  2  0
 12 11  1  0
 13 14  1  0
 14 15  1  0
 14 20  2  0
 16 15  1  1
 16 18  1  0
 16 17  1  0
 17  8  1  0
 18 19  2  0
 21 20  1  0
 22 23  1  0
 23 24  1  0
 25 24  1  0
 26 25  1  6
 27 26  1  0
 27 18  1  0
 28 30  1  0
 28 26  1  0
 29 28  2  0
M  END
$$$$
