VCS.pdb
     RDKit          3D

 20 19  0  0  1  0  0  0  0  0999 V2000
    6.9803  -16.0199   21.0823 C   0  0  0  0  0  0  0  0  0  0  0  0
    7.5343  -14.9395   20.1869 C   0  0  1  0  0  0  0  0  0  0  0  0
    6.9595  -15.0293   18.8132 C   0  0  0  0  0  0  0  0  0  0  0  0
    7.3871  -13.5742   20.8159 C   0  0  2  0  0  0  0  0  0  0  0  0
    7.9643  -12.6150   19.9002 N   0  0  0  0  0  0  0  0  0  0  0  0
    8.0214  -13.4757   22.1360 C   0  0  0  0  0  0  0  0  0  0  0  0
    9.2677  -13.4143   22.2966 O   0  0  0  0  0  0  0  0  0  0  0  0
    7.2194  -13.4465   23.2984 N   0  0  0  0  0  0  0  0  0  0  0  0
    7.7641  -13.4485   24.6401 C   0  0  1  0  0  0  0  0  0  0  0  0
    6.7900  -12.8562   25.6438 C   0  0  0  0  0  0  0  0  0  0  0  0
    7.4223  -12.9123   27.3192 S   0  0  0  0  0  0  0  0  0  0  0  0
    8.0666  -14.8448   25.0280 C   0  0  0  0  0  0  0  0  0  0  0  0
    7.1472  -15.6935   25.0513 O   0  0  0  0  0  0  0  0  0  0  0  0
   10.7519  -16.8654   23.8073 O   0  0  0  0  0  0  0  0  0  0  0  0
   10.9475  -17.0611   25.1773 C   0  0  0  0  0  0  0  0  0  0  0  0
    9.6562  -16.6239   25.8560 C   0  0  2  0  0  0  0  0  0  0  0  0
    9.3679  -15.2855   25.3828 N   0  0  0  0  0  0  0  0  0  0  0  0
    9.8044  -16.5929   27.3262 C   0  0  0  0  0  0  0  0  0  0  0  0
   10.0701  -17.7397   28.0230 O   0  0  0  0  0  0  0  0  0  0  0  0
    9.6865  -15.5097   27.9417 O   0  0  0  0  0  0  0  0  0  0  0  0
  2  1  1  1
  3  2  1  0
  4  6  1  0
  4  2  1  0
  4  5  1  6
  6  7  2  0
  8  9  1  0
  8  6  1  0
  9 12  1  0
 10 11  1  0
  9 10  1  1
 12 13  2  0
 12 17  1  0
 14 15  1  0
 16 15  1  6
 16 18  1  0
 17 16  1  0
 18 20  2  0
 18 19  1  0
M  END
$$$$
