VCS.pdb
     RDKit          3D

 20 19  0  0  1  0  0  0  0  0999 V2000
    6.8312  -15.7432   20.8249 C   0  0  0  0  0  0  0  0  0  0  0  0
    7.4814  -14.6875   19.9654 C   0  0  1  0  0  0  0  0  0  0  0  0
    6.8782  -14.6550   18.6014 C   0  0  0  0  0  0  0  0  0  0  0  0
    7.4890  -13.3439   20.6554 C   0  0  2  0  0  0  0  0  0  0  0  0
    8.2261  -12.4310   19.8097 N   0  0  0  0  0  0  0  0  0  0  0  0
    8.0744  -13.3896   22.0008 C   0  0  0  0  0  0  0  0  0  0  0  0
    9.3121  -13.4743   22.2092 O   0  0  0  0  0  0  0  0  0  0  0  0
    7.2320  -13.3378   23.1335 N   0  0  0  0  0  0  0  0  0  0  0  0
    7.7222  -13.4257   24.4932 C   0  0  1  0  0  0  0  0  0  0  0  0
    6.7268  -12.8548   25.4883 C   0  0  0  0  0  0  0  0  0  0  0  0
    7.2454  -13.1005   27.1855 S   0  0  0  0  0  0  0  0  0  0  0  0
    7.9673  -14.8489   24.8189 C   0  0  0  0  0  0  0  0  0  0  0  0
    7.0417  -15.6812   24.6905 O   0  0  0  0  0  0  0  0  0  0  0  0
   10.4396  -16.7489   23.5327 O   0  0  0  0  0  0  0  0  0  0  0  0
   10.6535  -17.1892   24.8419 C   0  0  0  0  0  0  0  0  0  0  0  0
    9.4531  -16.7144   25.6497 C   0  0  2  0  0  0  0  0  0  0  0  0
    9.2192  -15.3339   25.2783 N   0  0  0  0  0  0  0  0  0  0  0  0
    9.7198  -16.7835   27.1017 C   0  0  0  0  0  0  0  0  0  0  0  0
   10.0498  -17.9721   27.6927 O   0  0  0  0  0  0  0  0  0  0  0  0
    9.6439  -15.7472   27.7993 O   0  0  0  0  0  0  0  0  0  0  0  0
  2  1  1  1
  3  2  1  0
  4  6  1  0
  4  2  1  0
  4  5  1  6
  6  7  2  0
  8  9  1  0
  8  6  1  0
  9 12  1  0
 10 11  1  0
  9 10  1  1
 12 13  2  0
 12 17  1  0
 14 15  1  0
 16 15  1  6
 16 18  1  0
 17 16  1  0
 18 20  2  0
 18 19  1  0
M  END
$$$$
