VCS.pdb
     RDKit          3D

 20 19  0  0  1  0  0  0  0  0999 V2000
    6.6309  -14.6221   18.3645 C   0  0  0  0  0  0  0  0  0  0  0  0
    7.3577  -14.7064   19.6839 C   0  0  1  0  0  0  0  0  0  0  0  0
    8.5679  -15.5722   19.5793 C   0  0  0  0  0  0  0  0  0  0  0  0
    7.6434  -13.3328   20.2435 C   0  0  2  0  0  0  0  0  0  0  0  0
    8.5591  -12.6804   19.3338 N   0  0  0  0  0  0  0  0  0  0  0  0
    8.2000  -13.3674   21.6014 C   0  0  0  0  0  0  0  0  0  0  0  0
    9.4340  -13.3121   21.8398 O   0  0  0  0  0  0  0  0  0  0  0  0
    7.3327  -13.4671   22.7119 N   0  0  0  0  0  0  0  0  0  0  0  0
    7.8000  -13.5971   24.0762 C   0  0  1  0  0  0  0  0  0  0  0  0
    6.7304  -13.1979   25.0779 C   0  0  0  0  0  0  0  0  0  0  0  0
    7.2477  -13.4739   26.7709 S   0  0  0  0  0  0  0  0  0  0  0  0
    8.1822  -15.0073   24.3152 C   0  0  0  0  0  0  0  0  0  0  0  0
    7.3777  -15.9229   24.0313 O   0  0  0  0  0  0  0  0  0  0  0  0
   11.0683  -16.8213   23.1513 O   0  0  0  0  0  0  0  0  0  0  0  0
   11.2030  -16.9577   24.5359 C   0  0  0  0  0  0  0  0  0  0  0  0
    9.8091  -16.7641   25.1179 C   0  0  2  0  0  0  0  0  0  0  0  0
    9.4359  -15.3884   24.8596 N   0  0  0  0  0  0  0  0  0  0  0  0
    9.7973  -17.0000   26.5769 C   0  0  0  0  0  0  0  0  0  0  0  0
   10.1595  -18.2161   27.0879 O   0  0  0  0  0  0  0  0  0  0  0  0
    9.4535  -16.0813   27.3539 O   0  0  0  0  0  0  0  0  0  0  0  0
  2  1  1  6
  3  2  1  0
  4  6  1  0
  4  2  1  0
  4  5  1  6
  6  7  2  0
  8  9  1  0
  8  6  1  0
  9 12  1  0
 10 11  1  0
  9 10  1  1
 12 13  2  0
 12 17  1  0
 14 15  1  0
 16 15  1  1
 16 18  1  0
 17 16  1  0
 18 20  2  0
 18 19  1  0
M  END
$$$$
