VCS.pdb
     RDKit          3D

 20 19  0  0  1  0  0  0  0  0999 V2000
    8.3558  -12.6955   20.7704 C   0  0  0  0  0  0  0  0  0  0  0  0
    7.9033  -13.3966   19.5135 C   0  0  1  0  0  0  0  0  0  0  0  0
    7.9045  -12.4672   18.3466 C   0  0  0  0  0  0  0  0  0  0  0  0
    8.6892  -14.6646   19.2773 C   0  0  2  0  0  0  0  0  0  0  0  0
    8.1766  -15.2684   18.0672 N   0  0  0  0  0  0  0  0  0  0  0  0
    8.6122  -15.6084   20.3990 C   0  0  0  0  0  0  0  0  0  0  0  0
    7.9760  -16.6922   20.3427 O   0  0  0  0  0  0  0  0  0  0  0  0
    9.2741  -15.3117   21.6111 N   0  0  0  0  0  0  0  0  0  0  0  0
    9.3735  -16.2469   22.7121 C   0  0  1  0  0  0  0  0  0  0  0  0
   10.2123  -17.4593   22.3466 C   0  0  0  0  0  0  0  0  0  0  0  0
   11.7748  -17.0041   21.5975 S   0  0  0  0  0  0  0  0  0  0  0  0
    9.9971  -15.5590   23.8651 C   0  0  0  0  0  0  0  0  0  0  0  0
   10.9944  -14.8255   23.6824 O   0  0  0  0  0  0  0  0  0  0  0  0
    7.9089  -14.7080   26.9020 O   0  0  0  0  0  0  0  0  0  0  0  0
    9.1438  -14.0535   26.8927 C   0  0  0  0  0  0  0  0  0  0  0  0
   10.1484  -15.0527   26.3347 C   0  0  2  0  0  0  0  0  0  0  0  0
    9.5181  -15.6865   25.1947 N   0  0  0  0  0  0  0  0  0  0  0  0
   10.4895  -16.0878   27.3329 C   0  0  0  0  0  0  0  0  0  0  0  0
   11.1457  -15.7533   28.4856 O   0  0  0  0  0  0  0  0  0  0  0  0
   10.1767  -17.2815   27.1247 O   0  0  0  0  0  0  0  0  0  0  0  0
  2  1  1  1
  3  2  1  0
  4  6  1  0
  4  2  1  0
  4  5  1  6
  6  7  2  0
  8  9  1  0
  8  6  1  0
  9 12  1  0
 10 11  1  0
  9 10  1  6
 12 13  2  0
 12 17  1  0
 14 15  1  0
 16 15  1  1
 16 18  1  0
 17 16  1  0
 18 20  2  0
 18 19  1  0
M  END
$$$$
