VCS.pdb
     RDKit          3D

 20 19  0  0  1  0  0  0  0  0999 V2000
    7.1238  -14.4866   19.7848 C   0  0  0  0  0  0  0  0  0  0  0  0
    7.2908  -14.7182   21.2663 C   0  0  1  0  0  0  0  0  0  0  0  0
    7.1610  -16.1653   21.6045 C   0  0  0  0  0  0  0  0  0  0  0  0
    8.5631  -14.0884   21.7818 C   0  0  2  0  0  0  0  0  0  0  0  0
    9.6691  -14.8019   21.1820 N   0  0  0  0  0  0  0  0  0  0  0  0
    8.6660  -14.1111   23.2460 C   0  0  0  0  0  0  0  0  0  0  0  0
    9.6115  -14.6696   23.8598 O   0  0  0  0  0  0  0  0  0  0  0  0
    7.6707  -13.4843   24.0281 N   0  0  0  0  0  0  0  0  0  0  0  0
    7.7663  -13.3345   25.4651 C   0  0  1  0  0  0  0  0  0  0  0  0
    6.6227  -12.5044   26.0218 C   0  0  0  0  0  0  0  0  0  0  0  0
    6.7676  -12.2459   27.7888 S   0  0  0  0  0  0  0  0  0  0  0  0
    7.7338  -14.6780   26.0861 C   0  0  0  0  0  0  0  0  0  0  0  0
    8.0606  -14.8127   27.2866 O   0  0  0  0  0  0  0  0  0  0  0  0
    7.7287  -18.1692   23.9173 O   0  0  0  0  0  0  0  0  0  0  0  0
    6.7616  -18.1145   24.9249 C   0  0  0  0  0  0  0  0  0  0  0  0
    7.3063  -17.1648   25.9835 C   0  0  2  0  0  0  0  0  0  0  0  0
    7.3449  -15.8473   25.3826 N   0  0  0  0  0  0  0  0  0  0  0  0
    8.6734  -17.5457   26.3962 C   0  0  0  0  0  0  0  0  0  0  0  0
    8.9001  -18.7282   27.0453 O   0  0  0  0  0  0  0  0  0  0  0  0
    9.6339  -16.7818   26.1511 O   0  0  0  0  0  0  0  0  0  0  0  0
  2  1  1  6
  3  2  1  0
  4  6  1  0
  4  2  1  0
  4  5  1  6
  6  7  2  0
  8  9  1  0
  8  6  1  0
  9 12  1  0
 10 11  1  0
  9 10  1  1
 12 13  2  0
 12 17  1  0
 14 15  1  0
 16 15  1  6
 16 18  1  0
 17 16  1  0
 18 20  2  0
 18 19  1  0
M  END
$$$$
