VCS.pdb
     RDKit          3D

 20 19  0  0  1  0  0  0  0  0999 V2000
    5.9358  -14.6681   19.9013 C   0  0  0  0  0  0  0  0  0  0  0  0
    6.7236  -14.9147   21.1641 C   0  0  1  0  0  0  0  0  0  0  0  0
    7.5314  -16.1646   21.0611 C   0  0  0  0  0  0  0  0  0  0  0  0
    7.5344  -13.7011   21.5527 C   0  0  2  0  0  0  0  0  0  0  0  0
    8.4633  -13.4420   20.4748 N   0  0  0  0  0  0  0  0  0  0  0  0
    8.2501  -13.8680   22.8235 C   0  0  0  0  0  0  0  0  0  0  0  0
    9.4547  -14.2241   22.8920 O   0  0  0  0  0  0  0  0  0  0  0  0
    7.5795  -13.6243   24.0426 N   0  0  0  0  0  0  0  0  0  0  0  0
    8.2023  -13.7901   25.3392 C   0  0  1  0  0  0  0  0  0  0  0  0
    7.4380  -13.0579   26.4285 C   0  0  0  0  0  0  0  0  0  0  0  0
    5.6641  -13.1525   26.1952 S   0  0  0  0  0  0  0  0  0  0  0  0
    8.2431  -15.2335   25.6657 C   0  0  0  0  0  0  0  0  0  0  0  0
    7.2192  -15.9340   25.5019 O   0  0  0  0  0  0  0  0  0  0  0  0
   11.4504  -17.1421   25.2854 O   0  0  0  0  0  0  0  0  0  0  0  0
   10.3217  -17.9548   25.4235 C   0  0  0  0  0  0  0  0  0  0  0  0
    9.4516  -17.2943   26.4845 C   0  0  2  0  0  0  0  0  0  0  0  0
    9.4022  -15.8823   26.1646 N   0  0  0  0  0  0  0  0  0  0  0  0
   10.0286  -17.4619   27.8348 C   0  0  0  0  0  0  0  0  0  0  0  0
   10.1714  -18.7080   28.3806 O   0  0  0  0  0  0  0  0  0  0  0  0
   10.3906  -16.4570   28.4869 O   0  0  0  0  0  0  0  0  0  0  0  0
  2  1  1  6
  3  2  1  0
  4  6  1  0
  4  2  1  0
  4  5  1  6
  6  7  2  0
  8  9  1  0
  8  6  1  0
  9 12  1  0
 10 11  1  0
  9 10  1  1
 12 13  2  0
 12 17  1  0
 14 15  1  0
 16 15  1  6
 16 18  1  0
 17 16  1  0
 18 20  2  0
 18 19  1  0
M  END
$$$$
