VCS.pdb
     RDKit          3D

 20 19  0  0  1  0  0  0  0  0999 V2000
    6.6088  -16.8702   22.3063 C   0  0  0  0  0  0  0  0  0  0  0  0
    7.2550  -16.2375   21.0987 C   0  0  1  0  0  0  0  0  0  0  0  0
    6.5407  -16.6142   19.8445 C   0  0  0  0  0  0  0  0  0  0  0  0
    7.4159  -14.7465   21.2785 C   0  0  2  0  0  0  0  0  0  0  0  0
    8.1387  -14.2507   20.1280 N   0  0  0  0  0  0  0  0  0  0  0  0
    8.1109  -14.3867   22.5205 C   0  0  0  0  0  0  0  0  0  0  0  0
    9.3613  -14.4396   22.6482 O   0  0  0  0  0  0  0  0  0  0  0  0
    7.3659  -13.9575   23.6412 N   0  0  0  0  0  0  0  0  0  0  0  0
    7.9630  -13.6627   24.9270 C   0  0  1  0  0  0  0  0  0  0  0  0
    7.0394  -12.8296   25.7987 C   0  0  0  0  0  0  0  0  0  0  0  0
    7.6614  -12.6488   27.4691 S   0  0  0  0  0  0  0  0  0  0  0  0
    8.2574  -14.9385   25.6179 C   0  0  0  0  0  0  0  0  0  0  0  0
    7.3282  -15.7426   25.8546 O   0  0  0  0  0  0  0  0  0  0  0  0
   11.3876  -18.3252   26.7028 O   0  0  0  0  0  0  0  0  0  0  0  0
   11.0726  -17.1552   26.0061 C   0  0  0  0  0  0  0  0  0  0  0  0
    9.8594  -16.5587   26.7071 C   0  0  2  0  0  0  0  0  0  0  0  0
    9.5614  -15.3098   26.0363 N   0  0  0  0  0  0  0  0  0  0  0  0
   10.1416  -16.2844   28.1317 C   0  0  0  0  0  0  0  0  0  0  0  0
   10.3714  -17.3112   29.0057 O   0  0  0  0  0  0  0  0  0  0  0  0
   10.1712  -15.1035   28.5449 O   0  0  0  0  0  0  0  0  0  0  0  0
  2  1  1  1
  3  2  1  0
  4  6  1  0
  4  2  1  0
  4  5  1  6
  6  7  2  0
  8  9  1  0
  8  6  1  0
  9 12  1  0
 10 11  1  0
  9 10  1  1
 12 13  2  0
 12 17  1  0
 14 15  1  0
 16 15  1  6
 16 18  1  0
 17 16  1  0
 18 20  2  0
 18 19  1  0
M  END
$$$$
