VCS.pdb
     RDKit          3D

 20 19  0  0  1  0  0  0  0  0999 V2000
    4.1860  -18.7798   20.5529 C   0  0  0  0  0  0  0  0  0  0  0  0
    5.5439  -18.2661   20.9632 C   0  0  1  0  0  0  0  0  0  0  0  0
    6.4879  -19.3897   21.2312 C   0  0  0  0  0  0  0  0  0  0  0  0
    6.0723  -17.2555   19.9728 C   0  0  2  0  0  0  0  0  0  0  0  0
    6.2271  -17.9361   18.7061 N   0  0  0  0  0  0  0  0  0  0  0  0
    7.3407  -16.6464   20.3912 C   0  0  0  0  0  0  0  0  0  0  0  0
    8.4516  -16.9601   19.8910 O   0  0  0  0  0  0  0  0  0  0  0  0
    7.3443  -15.6587   21.4010 N   0  0  0  0  0  0  0  0  0  0  0  0
    8.5547  -15.0568   21.9198 C   0  0  1  0  0  0  0  0  0  0  0  0
    8.2569  -13.8235   22.7548 C   0  0  0  0  0  0  0  0  0  0  0  0
    6.8759  -14.0738   23.8683 S   0  0  0  0  0  0  0  0  0  0  0  0
    9.2567  -16.0515   22.7622 C   0  0  0  0  0  0  0  0  0  0  0  0
    8.5991  -16.7733   23.5449 O   0  0  0  0  0  0  0  0  0  0  0  0
   12.5257  -17.5090   21.4590 O   0  0  0  0  0  0  0  0  0  0  0  0
   11.8685  -18.2729   22.4275 C   0  0  0  0  0  0  0  0  0  0  0  0
   11.3457  -17.2857   23.4624 C   0  0  2  0  0  0  0  0  0  0  0  0
   10.6631  -16.2372   22.7322 N   0  0  0  0  0  0  0  0  0  0  0  0
   12.4498  -16.6883   24.2425 C   0  0  0  0  0  0  0  0  0  0  0  0
   13.1963  -17.4571   25.0927 O   0  0  0  0  0  0  0  0  0  0  0  0
   12.7062  -15.4689   24.1264 O   0  0  0  0  0  0  0  0  0  0  0  0
  2  1  1  6
  3  2  1  0
  4  6  1  0
  4  2  1  0
  4  5  1  6
  6  7  2  0
  8  9  1  0
  8  6  1  0
  9 12  1  0
 10 11  1  0
  9 10  1  1
 12 13  2  0
 12 17  1  0
 14 15  1  0
 16 15  1  6
 16 18  1  0
 17 16  1  0
 18 20  2  0
 18 19  1  0
M  END
$$$$
