VCS.pdb
     RDKit          3D

 20 19  0  0  1  0  0  0  0  0999 V2000
    7.2858  -18.9660   18.7285 C   0  0  0  0  0  0  0  0  0  0  0  0
    7.9020  -18.9484   17.3515 C   0  0  1  0  0  0  0  0  0  0  0  0
    7.1819  -19.8705   16.4260 C   0  0  0  0  0  0  0  0  0  0  0  0
    8.0290  -17.5391   16.8234 C   0  0  2  0  0  0  0  0  0  0  0  0
    8.7186  -17.6165   15.5544 N   0  0  0  0  0  0  0  0  0  0  0  0
    8.7370  -16.6400   17.7428 C   0  0  0  0  0  0  0  0  0  0  0  0
    9.9767  -16.7030   17.9469 O   0  0  0  0  0  0  0  0  0  0  0  0
    8.0176  -15.6477   18.4451 N   0  0  0  0  0  0  0  0  0  0  0  0
    8.6298  -14.7496   19.4018 C   0  0  1  0  0  0  0  0  0  0  0  0
    7.7029  -13.6047   19.7719 C   0  0  0  0  0  0  0  0  0  0  0  0
    7.4263  -12.4839   18.4018 S   0  0  0  0  0  0  0  0  0  0  0  0
    8.9640  -15.5141   20.6247 C   0  0  0  0  0  0  0  0  0  0  0  0
    8.0950  -16.2403   21.1571 O   0  0  0  0  0  0  0  0  0  0  0  0
   11.0542  -18.6735   22.6369 O   0  0  0  0  0  0  0  0  0  0  0  0
   10.6751  -17.7828   21.6287 C   0  0  0  0  0  0  0  0  0  0  0  0
   10.6657  -16.4001   22.2669 C   0  0  2  0  0  0  0  0  0  0  0  0
   10.2413  -15.4694   21.2412 N   0  0  0  0  0  0  0  0  0  0  0  0
   12.0128  -16.0154   22.7380 C   0  0  0  0  0  0  0  0  0  0  0  0
   12.5447  -16.5832   23.8631 O   0  0  0  0  0  0  0  0  0  0  0  0
   12.6748  -15.1633   22.1043 O   0  0  0  0  0  0  0  0  0  0  0  0
  2  1  1  1
  3  2  1  0
  4  6  1  0
  4  2  1  0
  4  5  1  6
  6  7  2  0
  8  9  1  0
  8  6  1  0
  9 12  1  0
 10 11  1  0
  9 10  1  1
 12 13  2  0
 12 17  1  0
 14 15  1  0
 16 15  1  6
 16 18  1  0
 17 16  1  0
 18 20  2  0
 18 19  1  0
M  END
$$$$
