VCS.pdb
     RDKit          3D

 20 19  0  0  1  0  0  0  0  0999 V2000
    7.0174  -15.5910   20.0597 C   0  0  0  0  0  0  0  0  0  0  0  0
    7.8779  -14.5491   19.3887 C   0  0  1  0  0  0  0  0  0  0  0  0
    7.4653  -14.3399   17.9705 C   0  0  0  0  0  0  0  0  0  0  0  0
    7.9303  -13.2746   20.1976 C   0  0  2  0  0  0  0  0  0  0  0  0
    8.8028  -12.3575   19.4979 N   0  0  0  0  0  0  0  0  0  0  0  0
    8.3960  -13.4834   21.5739 C   0  0  0  0  0  0  0  0  0  0  0  0
    9.5940  -13.7360   21.8631 O   0  0  0  0  0  0  0  0  0  0  0  0
    7.4776  -13.4030   22.6442 N   0  0  0  0  0  0  0  0  0  0  0  0
    7.8466  -13.6259   24.0265 C   0  0  1  0  0  0  0  0  0  0  0  0
    6.8103  -13.0627   24.9835 C   0  0  0  0  0  0  0  0  0  0  0  0
    7.0894  -13.5876   26.6736 S   0  0  0  0  0  0  0  0  0  0  0  0
    7.9728  -15.0830   24.2556 C   0  0  0  0  0  0  0  0  0  0  0  0
    7.1862  -15.8698   23.6826 O   0  0  0  0  0  0  0  0  0  0  0  0
   10.6630  -18.3623   23.4916 O   0  0  0  0  0  0  0  0  0  0  0  0
   10.1210  -17.0777   23.5902 C   0  0  0  0  0  0  0  0  0  0  0  0
    9.4557  -17.0027   24.9580 C   0  0  2  0  0  0  0  0  0  0  0  0
    8.9563  -15.6511   25.1062 N   0  0  0  0  0  0  0  0  0  0  0  0
   10.4210  -17.2806   26.0422 C   0  0  0  0  0  0  0  0  0  0  0  0
   10.8387  -18.5591   26.2910 O   0  0  0  0  0  0  0  0  0  0  0  0
   10.8619  -16.3400   26.7402 O   0  0  0  0  0  0  0  0  0  0  0  0
  2  1  1  1
  3  2  1  0
  4  6  1  0
  4  2  1  0
  4  5  1  6
  6  7  2  0
  8  9  1  0
  8  6  1  0
  9 12  1  0
 10 11  1  0
  9 10  1  1
 12 13  2  0
 12 17  1  0
 14 15  1  0
 16 15  1  6
 16 18  1  0
 17 16  1  0
 18 20  2  0
 18 19  1  0
M  END
$$$$
