VCS.pdb
     RDKit          3D

 20 19  0  0  1  0  0  0  0  0999 V2000
    6.8422  -15.9201   20.2327 C   0  0  0  0  0  0  0  0  0  0  0  0
    7.5242  -14.7376   19.5905 C   0  0  1  0  0  0  0  0  0  0  0  0
    6.9640  -14.4614   18.2358 C   0  0  0  0  0  0  0  0  0  0  0  0
    7.5171  -13.5351   20.5044 C   0  0  2  0  0  0  0  0  0  0  0  0
    8.2116  -12.4689   19.8167 N   0  0  0  0  0  0  0  0  0  0  0  0
    8.1361  -13.7984   21.8092 C   0  0  0  0  0  0  0  0  0  0  0  0
    9.3794  -13.9007   21.9718 O   0  0  0  0  0  0  0  0  0  0  0  0
    7.3217  -13.9486   22.9535 N   0  0  0  0  0  0  0  0  0  0  0  0
    7.8514  -14.1778   24.2815 C   0  0  1  0  0  0  0  0  0  0  0  0
    6.7760  -14.0492   25.3463 C   0  0  0  0  0  0  0  0  0  0  0  0
    6.1599  -12.3731   25.4912 S   0  0  0  0  0  0  0  0  0  0  0  0
    8.4232  -15.5422   24.3360 C   0  0  0  0  0  0  0  0  0  0  0  0
    7.7355  -16.5168   23.9574 O   0  0  0  0  0  0  0  0  0  0  0  0
   11.4750  -16.7491   22.8679 O   0  0  0  0  0  0  0  0  0  0  0  0
   11.6868  -17.0535   24.2155 C   0  0  0  0  0  0  0  0  0  0  0  0
   10.3059  -17.1448   24.8510 C   0  0  2  0  0  0  0  0  0  0  0  0
    9.7352  -15.8142   24.8031 N   0  0  0  0  0  0  0  0  0  0  0  0
   10.3896  -17.5820   26.2603 C   0  0  0  0  0  0  0  0  0  0  0  0
   10.9155  -18.8037   26.5797 O   0  0  0  0  0  0  0  0  0  0  0  0
    9.9766  -16.8302   27.1716 O   0  0  0  0  0  0  0  0  0  0  0  0
  2  1  1  1
  3  2  1  0
  4  6  1  0
  4  2  1  0
  4  5  1  6
  6  7  2  0
  8  9  1  0
  8  6  1  0
  9 12  1  0
 10 11  1  0
  9 10  1  1
 12 13  2  0
 12 17  1  0
 14 15  1  0
 16 15  1  1
 16 18  1  0
 17 16  1  0
 18 20  2  0
 18 19  1  0
M  END
$$$$
