VCS.pdb
     RDKit          3D

 20 19  0  0  1  0  0  0  0  0999 V2000
    1.8977  -18.8607   23.4650 C   0  0  0  0  0  0  0  0  0  0  0  0
    1.6318  -19.9943   22.5057 C   0  0  1  0  0  0  0  0  0  0  0  0
    0.3125  -19.8306   21.8289 C   0  0  0  0  0  0  0  0  0  0  0  0
    2.7834  -20.1858   21.5473 C   0  0  2  0  0  0  0  0  0  0  0  0
    2.3963  -21.2187   20.6118 N   0  0  0  0  0  0  0  0  0  0  0  0
    4.0398  -20.5403   22.2186 C   0  0  0  0  0  0  0  0  0  0  0  0
    4.2872  -21.6968   22.6475 O   0  0  0  0  0  0  0  0  0  0  0  0
    5.0362  -19.5566   22.4056 N   0  0  0  0  0  0  0  0  0  0  0  0
    6.3446  -19.8450   22.9547 C   0  0  1  0  0  0  0  0  0  0  0  0
    7.4550  -19.4783   21.9854 C   0  0  0  0  0  0  0  0  0  0  0  0
    7.3312  -17.7828   21.4198 S   0  0  0  0  0  0  0  0  0  0  0  0
    6.5179  -19.0680   24.2028 C   0  0  0  0  0  0  0  0  0  0  0  0
    6.0335  -17.9173   24.2874 O   0  0  0  0  0  0  0  0  0  0  0  0
    7.0132  -20.6415   27.8157 O   0  0  0  0  0  0  0  0  0  0  0  0
    6.6255  -19.3115   27.6303 C   0  0  0  0  0  0  0  0  0  0  0  0
    7.5013  -18.7676   26.5094 C   0  0  2  0  0  0  0  0  0  0  0  0
    7.2173  -19.5642   25.3333 N   0  0  0  0  0  0  0  0  0  0  0  0
    8.9366  -18.8914   26.8393 C   0  0  0  0  0  0  0  0  0  0  0  0
    9.4790  -18.1698   27.8670 O   0  0  0  0  0  0  0  0  0  0  0  0
    9.6646  -19.6622   26.1744 O   0  0  0  0  0  0  0  0  0  0  0  0
  2  1  1  6
  3  2  1  0
  4  6  1  0
  4  2  1  0
  4  5  1  6
  6  7  2  0
  8  9  1  0
  8  6  1  0
  9 12  1  0
 10 11  1  0
  9 10  1  6
 12 13  2  0
 12 17  1  0
 14 15  1  0
 16 15  1  1
 16 18  1  0
 17 16  1  0
 18 20  2  0
 18 19  1  0
M  END
$$$$
