VCS.pdb
     RDKit          3D

 20 19  0  0  1  0  0  0  0  0999 V2000
    8.8986  -17.6087   15.7246 C   0  0  0  0  0  0  0  0  0  0  0  0
    8.7803  -16.4888   14.7205 C   0  0  1  0  0  0  0  0  0  0  0  0
    7.9148  -16.8831   13.5713 C   0  0  0  0  0  0  0  0  0  0  0  0
    8.3563  -15.1990   15.3822 C   0  0  2  0  0  0  0  0  0  0  0  0
    8.2851  -14.1894   14.3490 N   0  0  0  0  0  0  0  0  0  0  0  0
    9.2629  -14.7765   16.4567 C   0  0  0  0  0  0  0  0  0  0  0  0
   10.4410  -14.3874   16.2484 O   0  0  0  0  0  0  0  0  0  0  0  0
    8.8184  -14.7975   17.7973 N   0  0  0  0  0  0  0  0  0  0  0  0
    9.5959  -14.2732   18.9007 C   0  0  1  0  0  0  0  0  0  0  0  0
    8.7645  -14.1486   20.1658 C   0  0  0  0  0  0  0  0  0  0  0  0
    7.4101  -12.9909   19.9778 S   0  0  0  0  0  0  0  0  0  0  0  0
   10.7317  -15.1872   19.1582 C   0  0  0  0  0  0  0  0  0  0  0  0
   10.5369  -16.4230   19.1878 O   0  0  0  0  0  0  0  0  0  0  0  0
   14.5418  -13.7148   19.3803 O   0  0  0  0  0  0  0  0  0  0  0  0
   14.3529  -14.9579   18.7698 C   0  0  0  0  0  0  0  0  0  0  0  0
   13.1954  -15.6195   19.5057 C   0  0  2  0  0  0  0  0  0  0  0  0
   12.0575  -14.7321   19.3782 N   0  0  0  0  0  0  0  0  0  0  0  0
   13.5038  -15.8036   20.9394 C   0  0  0  0  0  0  0  0  0  0  0  0
   12.7437  -15.1925   21.8985 O   0  0  0  0  0  0  0  0  0  0  0  0
   14.4680  -16.5241   21.2819 O   0  0  0  0  0  0  0  0  0  0  0  0
  2  1  1  1
  3  2  1  0
  4  6  1  0
  4  2  1  0
  4  5  1  6
  6  7  2  0
  8  9  1  0
  8  6  1  0
  9 12  1  0
 10 11  1  0
  9 10  1  1
 12 13  2  0
 12 17  1  0
 14 15  1  0
 16 15  1  6
 16 18  1  0
 17 16  1  0
 18 20  2  0
 18 19  1  0
M  END
$$$$
