WGY.pdb
     RDKit          3D

 31 33  0  0  1  0  0  0  0  0999 V2000
   26.8330  -21.9655  -12.3061 N   0  0  0  0  0  0  0  0  0  0  0  0
   26.8608  -20.5471  -12.4599 C   0  0  1  0  0  0  0  0  0  0  0  0
   28.2262  -20.0077  -12.2474 C   0  0  0  0  0  0  0  0  0  0  0  0
   28.7342  -20.4174  -10.9264 C   0  0  0  0  0  0  0  0  0  0  0  0
   29.8681  -21.1790  -10.6789 C   0  0  0  0  0  0  0  0  0  0  0  0
   30.0353  -21.3274   -9.3591 N   0  0  0  0  0  0  0  0  0  0  0  0
   29.0496  -20.6900   -8.7211 C   0  0  0  0  0  0  0  0  0  0  0  0
   28.7619  -20.5449   -7.3715 C   0  0  0  0  0  0  0  0  0  0  0  0
   27.6812  -19.8485   -6.9282 C   0  0  0  0  0  0  0  0  0  0  0  0
   26.8565  -19.2749   -7.8860 C   0  0  0  0  0  0  0  0  0  0  0  0
   27.1317  -19.4116   -9.2300 C   0  0  0  0  0  0  0  0  0  0  0  0
   28.2183  -20.1101   -9.6887 C   0  0  0  0  0  0  0  0  0  0  0  0
   26.2420  -20.0949  -13.7353 C   0  0  0  0  0  0  0  0  0  0  0  0
   26.3718  -20.8406  -14.7371 O   0  0  0  0  0  0  0  0  0  0  0  0
   25.5254  -18.8757  -13.8555 N   0  0  0  0  0  0  0  0  0  0  0  0
   24.8933  -18.4490  -15.0856 C   0  0  0  0  0  0  0  0  0  0  0  0
   23.7655  -19.3257  -15.4664 C   0  0  0  0  0  0  0  0  0  0  0  0
   23.6808  -19.8649  -16.6003 O   0  0  0  0  0  0  0  0  0  0  0  0
   22.3337  -21.5233   -8.4669 O   0  0  0  0  0  0  0  0  0  0  0  0
   22.2273  -21.5971   -9.8529 C   0  0  0  0  0  0  0  0  0  0  0  0
   20.9784  -21.7007  -10.4419 C   0  0  0  0  0  0  0  0  0  0  0  0
   20.8439  -21.7763  -11.8285 C   0  0  0  0  0  0  0  0  0  0  0  0
   21.9578  -21.7485  -12.6318 C   0  0  0  0  0  0  0  0  0  0  0  0
   21.8674  -21.8256  -14.0811 C   0  0  0  0  0  0  0  0  0  0  0  0
   21.6593  -20.5153  -14.7653 C   0  0  2  0  0  0  0  0  0  0  0  0
   22.7356  -19.5764  -14.5310 N   0  0  0  0  0  0  0  0  0  0  0  0
   20.3736  -19.9171  -14.3639 C   0  0  0  0  0  0  0  0  0  0  0  0
   20.3450  -18.6741  -13.7285 O   0  0  0  0  0  0  0  0  0  0  0  0
   23.1893  -21.6449  -12.0233 C   0  0  0  0  0  0  0  0  0  0  0  0
   23.3268  -21.5700  -10.6541 C   0  0  0  0  0  0  0  0  0  0  0  0
   19.3011  -20.5259  -14.5933 O   0  0  0  0  0  0  0  0  0  0  0  0
  2  1  1  6
  2  3  1  0
  4  5  2  0
  4  3  1  0
  6  5  1  0
  7 12  2  0
  7  6  1  0
  8  7  1  0
  9 10  1  0
  9  8  2  0
 10 11  2  0
 11 12  1  0
 12  4  1  0
 13  2  1  0
 13 15  1  0
 14 13  2  0
 16 15  1  0
 17 16  1  0
 18 17  2  0
 19 20  1  0
 20 30  2  0
 20 21  1  0
 21 22  2  0
 22 23  1  0
 23 24  1  0
 25 24  1  1
 25 26  1  0
 25 27  1  0
 26 17  1  0
 27 28  1  0
 29 23  2  0
 30 29  1  0
 31 27  2  0
M  END
$$$$
