WGY.pdb
     RDKit          3D

 31 33  0  0  1  0  0  0  0  0999 V2000
   25.2624  -19.8741  -12.0926 N   0  0  0  0  0  0  0  0  0  0  0  0
   25.4644  -21.2866  -12.0747 C   0  0  1  0  0  0  0  0  0  0  0  0
   25.1647  -21.8580  -10.7389 C   0  0  0  0  0  0  0  0  0  0  0  0
   25.9941  -21.2063   -9.7101 C   0  0  0  0  0  0  0  0  0  0  0  0
   25.5673  -20.2703   -8.7780 C   0  0  0  0  0  0  0  0  0  0  0  0
   26.5882  -19.9218   -7.9854 N   0  0  0  0  0  0  0  0  0  0  0  0
   27.6797  -20.5948   -8.3604 C   0  0  0  0  0  0  0  0  0  0  0  0
   28.9805  -20.5923   -7.8775 C   0  0  0  0  0  0  0  0  0  0  0  0
   29.9604  -21.3628   -8.4212 C   0  0  0  0  0  0  0  0  0  0  0  0
   29.6138  -22.1690   -9.4966 C   0  0  0  0  0  0  0  0  0  0  0  0
   28.3248  -22.1806   -9.9854 C   0  0  0  0  0  0  0  0  0  0  0  0
   27.3286  -21.4094   -9.4451 C   0  0  0  0  0  0  0  0  0  0  0  0
   24.7577  -21.9825  -13.1838 C   0  0  0  0  0  0  0  0  0  0  0  0
   23.6940  -21.4658  -13.6058 O   0  0  0  0  0  0  0  0  0  0  0  0
   25.2347  -23.1847  -13.7685 N   0  0  0  0  0  0  0  0  0  0  0  0
   25.4379  -23.3439  -15.1926 C   0  0  0  0  0  0  0  0  0  0  0  0
   24.1628  -23.3498  -15.9408 C   0  0  0  0  0  0  0  0  0  0  0  0
   24.0177  -23.9716  -17.0251 O   0  0  0  0  0  0  0  0  0  0  0  0
   18.2399  -22.3837  -10.6462 O   0  0  0  0  0  0  0  0  0  0  0  0
   18.8916  -22.7244  -11.8283 C   0  0  0  0  0  0  0  0  0  0  0  0
   18.7376  -21.9298  -12.9518 C   0  0  0  0  0  0  0  0  0  0  0  0
   19.3794  -22.2489  -14.1487 C   0  0  0  0  0  0  0  0  0  0  0  0
   20.1779  -23.3640  -14.2271 C   0  0  0  0  0  0  0  0  0  0  0  0
   20.8658  -23.7371  -15.4527 C   0  0  0  0  0  0  0  0  0  0  0  0
   21.7389  -22.6723  -16.0289 C   0  0  2  0  0  0  0  0  0  0  0  0
   23.0560  -22.6337  -15.4303 N   0  0  0  0  0  0  0  0  0  0  0  0
   21.0946  -21.3518  -15.9126 C   0  0  0  0  0  0  0  0  0  0  0  0
   21.7091  -20.3322  -15.1828 O   0  0  0  0  0  0  0  0  0  0  0  0
   20.3159  -24.1389  -13.0966 C   0  0  0  0  0  0  0  0  0  0  0  0
   19.6838  -23.8275  -11.9122 C   0  0  0  0  0  0  0  0  0  0  0  0
   19.9909  -21.1424  -16.4706 O   0  0  0  0  0  0  0  0  0  0  0  0
  2  1  1  1
  2  3  1  0
  4  5  2  0
  4  3  1  0
  6  5  1  0
  7 12  2  0
  7  6  1  0
  8  7  1  0
  9 10  1  0
  9  8  2  0
 10 11  2  0
 11 12  1  0
 12  4  1  0
 13  2  1  0
 13 15  1  0
 14 13  2  0
 16 15  1  0
 17 16  1  0
 18 17  2  0
 19 20  1  0
 20 30  2  0
 20 21  1  0
 21 22  2  0
 22 23  1  0
 23 24  1  0
 25 24  1  1
 25 26  1  0
 25 27  1  0
 26 17  1  0
 27 28  1  0
 29 23  2  0
 30 29  1  0
 31 27  2  0
M  END
$$$$
