WGY.pdb
     RDKit          3D

 31 33  0  0  1  0  0  0  0  0999 V2000
   23.9408  -19.8759  -15.5057 N   0  0  0  0  0  0  0  0  0  0  0  0
   24.5082  -18.7673  -16.2020 C   0  0  1  0  0  0  0  0  0  0  0  0
   23.6904  -17.5424  -16.0249 C   0  0  0  0  0  0  0  0  0  0  0  0
   22.3331  -17.7567  -16.5567 C   0  0  0  0  0  0  0  0  0  0  0  0
   21.2964  -18.4295  -15.9243 C   0  0  0  0  0  0  0  0  0  0  0  0
   20.2012  -18.4001  -16.6935 N   0  0  0  0  0  0  0  0  0  0  0  0
   20.4759  -17.7306  -17.8165 C   0  0  0  0  0  0  0  0  0  0  0  0
   19.7008  -17.4268  -18.9265 C   0  0  0  0  0  0  0  0  0  0  0  0
   20.1889  -16.7279  -19.9862 C   0  0  0  0  0  0  0  0  0  0  0  0
   21.5138  -16.3188  -19.9235 C   0  0  0  0  0  0  0  0  0  0  0  0
   22.2941  -16.6141  -18.8260 C   0  0  0  0  0  0  0  0  0  0  0  0
   21.8131  -17.3167  -17.7518 C   0  0  0  0  0  0  0  0  0  0  0  0
   25.9475  -18.5643  -15.8838 C   0  0  0  0  0  0  0  0  0  0  0  0
   26.5241  -17.5833  -16.4147 O   0  0  0  0  0  0  0  0  0  0  0  0
   26.6753  -19.4231  -15.0194 N   0  0  0  0  0  0  0  0  0  0  0  0
   28.1146  -19.5646  -15.0748 C   0  0  0  0  0  0  0  0  0  0  0  0
   28.6405  -20.3614  -13.9460 C   0  0  0  0  0  0  0  0  0  0  0  0
   29.3757  -21.3688  -14.1137 O   0  0  0  0  0  0  0  0  0  0  0  0
   21.0568  -21.0782   -9.8890 O   0  0  0  0  0  0  0  0  0  0  0  0
   22.2689  -20.6738  -10.4416 C   0  0  0  0  0  0  0  0  0  0  0  0
   23.3405  -20.3867   -9.6130 C   0  0  0  0  0  0  0  0  0  0  0  0
   24.5658  -19.9793  -10.1412 C   0  0  0  0  0  0  0  0  0  0  0  0
   24.7246  -19.8574  -11.5001 C   0  0  0  0  0  0  0  0  0  0  0  0
   25.9820  -19.4354  -12.0963 C   0  0  0  0  0  0  0  0  0  0  0  0
   27.1011  -20.4128  -11.9535 C   0  0  2  0  0  0  0  0  0  0  0  0
   28.3127  -19.9890  -12.6223 N   0  0  0  0  0  0  0  0  0  0  0  0
   26.6957  -21.7429  -12.4421 C   0  0  0  0  0  0  0  0  0  0  0  0
   26.4673  -22.7833  -11.5393 O   0  0  0  0  0  0  0  0  0  0  0  0
   23.6447  -20.1484  -12.3042 C   0  0  0  0  0  0  0  0  0  0  0  0
   22.4325  -20.5511  -11.7868 C   0  0  0  0  0  0  0  0  0  0  0  0
   26.5553  -21.9418  -13.6726 O   0  0  0  0  0  0  0  0  0  0  0  0
  2  1  1  1
  2  3  1  0
  4  5  2  0
  4  3  1  0
  6  5  1  0
  7 12  2  0
  7  6  1  0
  8  7  1  0
  9 10  1  0
  9  8  2  0
 10 11  2  0
 11 12  1  0
 12  4  1  0
 13  2  1  0
 13 15  1  0
 14 13  2  0
 16 15  1  0
 17 16  1  0
 18 17  2  0
 19 20  1  0
 20 30  2  0
 20 21  1  0
 21 22  2  0
 22 23  1  0
 23 24  1  0
 25 24  1  6
 25 26  1  0
 25 27  1  0
 26 17  1  0
 27 28  1  0
 29 23  2  0
 30 29  1  0
 31 27  2  0
M  END
$$$$
