WGY.pdb
     RDKit          3D

 31 33  0  0  1  0  0  0  0  0999 V2000
   22.3040  -22.6272  -15.7801 N   0  0  0  0  0  0  0  0  0  0  0  0
   23.0974  -22.2661  -14.6504 C   0  0  1  0  0  0  0  0  0  0  0  0
   22.6975  -23.0300  -13.4433 C   0  0  0  0  0  0  0  0  0  0  0  0
   21.4522  -22.4775  -12.8822 C   0  0  0  0  0  0  0  0  0  0  0  0
   20.1693  -22.9702  -13.0790 C   0  0  0  0  0  0  0  0  0  0  0  0
   19.2898  -22.2320  -12.3908 N   0  0  0  0  0  0  0  0  0  0  0  0
   19.9456  -21.2646  -11.7436 C   0  0  0  0  0  0  0  0  0  0  0  0
   19.5066  -20.2452  -10.9111 C   0  0  0  0  0  0  0  0  0  0  0  0
   20.3579  -19.3439  -10.3522 C   0  0  0  0  0  0  0  0  0  0  0  0
   21.7081  -19.4764  -10.6455 C   0  0  0  0  0  0  0  0  0  0  0  0
   22.1570  -20.4852  -11.4710 C   0  0  0  0  0  0  0  0  0  0  0  0
   21.3087  -21.3999  -12.0392 C   0  0  0  0  0  0  0  0  0  0  0  0
   24.5576  -22.3298  -14.9295 C   0  0  0  0  0  0  0  0  0  0  0  0
   24.9610  -23.2418  -15.6925 O   0  0  0  0  0  0  0  0  0  0  0  0
   25.4898  -21.4147  -14.3746 N   0  0  0  0  0  0  0  0  0  0  0  0
   25.2602  -20.7091  -13.1320 C   0  0  0  0  0  0  0  0  0  0  0  0
   26.0408  -21.2802  -12.0139 C   0  0  0  0  0  0  0  0  0  0  0  0
   26.0765  -22.5152  -11.7752 O   0  0  0  0  0  0  0  0  0  0  0  0
   28.8194  -20.4092   -3.6292 O   0  0  0  0  0  0  0  0  0  0  0  0
   28.6193  -20.2410   -4.9966 C   0  0  0  0  0  0  0  0  0  0  0  0
   29.4971  -20.8218   -5.8963 C   0  0  0  0  0  0  0  0  0  0  0  0
   29.3194  -20.6686   -7.2716 C   0  0  0  0  0  0  0  0  0  0  0  0
   28.2631  -19.9340   -7.7528 C   0  0  0  0  0  0  0  0  0  0  0  0
   28.0379  -19.7459   -9.1771 C   0  0  0  0  0  0  0  0  0  0  0  0
   27.1098  -20.7356   -9.7996 C   0  0  2  0  0  0  0  0  0  0  0  0
   26.7800  -20.4175  -11.1725 N   0  0  0  0  0  0  0  0  0  0  0  0
   25.8766  -20.8649   -9.0029 C   0  0  0  0  0  0  0  0  0  0  0  0
   25.7737  -21.8545   -8.0232 O   0  0  0  0  0  0  0  0  0  0  0  0
   27.4033  -19.3659   -6.8388 C   0  0  0  0  0  0  0  0  0  0  0  0
   27.5750  -19.5146   -5.4795 C   0  0  0  0  0  0  0  0  0  0  0  0
   24.9160  -20.0840   -9.2050 O   0  0  0  0  0  0  0  0  0  0  0  0
  2  1  1  6
  2  3  1  0
  4  5  2  0
  4  3  1  0
  6  5  1  0
  7 12  2  0
  7  6  1  0
  8  7  1  0
  9 10  1  0
  9  8  2  0
 10 11  2  0
 11 12  1  0
 12  4  1  0
 13  2  1  0
 13 15  1  0
 14 13  2  0
 16 15  1  0
 17 16  1  0
 18 17  2  0
 19 20  1  0
 20 30  2  0
 20 21  1  0
 21 22  2  0
 22 23  1  0
 23 24  1  0
 25 24  1  1
 25 26  1  0
 25 27  1  0
 26 17  1  0
 27 28  1  0
 29 23  2  0
 30 29  1  0
 31 27  2  0
M  END
$$$$
