WGY.pdb
     RDKit          3D

 31 33  0  0  1  0  0  0  0  0999 V2000
   26.7545  -22.6245  -11.1804 N   0  0  0  0  0  0  0  0  0  0  0  0
   26.4761  -21.2877  -11.5945 C   0  0  1  0  0  0  0  0  0  0  0  0
   27.7143  -20.4733  -11.6584 C   0  0  0  0  0  0  0  0  0  0  0  0
   28.4679  -20.5951  -10.3982 C   0  0  0  0  0  0  0  0  0  0  0  0
   29.6937  -21.2240  -10.2279 C   0  0  0  0  0  0  0  0  0  0  0  0
   30.0878  -21.1112   -8.9536 N   0  0  0  0  0  0  0  0  0  0  0  0
   29.1641  -20.4287   -8.2711 C   0  0  0  0  0  0  0  0  0  0  0  0
   29.0887  -20.0513   -6.9380 C   0  0  0  0  0  0  0  0  0  0  0  0
   28.0343  -19.3534   -6.4374 C   0  0  0  0  0  0  0  0  0  0  0  0
   27.0136  -19.0227   -7.3180 C   0  0  0  0  0  0  0  0  0  0  0  0
   27.0769  -19.3916   -8.6449 C   0  0  0  0  0  0  0  0  0  0  0  0
   28.1348  -20.0941   -9.1611 C   0  0  0  0  0  0  0  0  0  0  0  0
   25.6686  -21.2290  -12.8429 C   0  0  0  0  0  0  0  0  0  0  0  0
   26.2784  -21.3616  -13.9325 O   0  0  0  0  0  0  0  0  0  0  0  0
   24.2630  -21.0324  -12.8443 N   0  0  0  0  0  0  0  0  0  0  0  0
   23.3446  -21.9013  -13.5487 C   0  0  0  0  0  0  0  0  0  0  0  0
   21.9417  -21.4538  -13.4175 C   0  0  0  0  0  0  0  0  0  0  0  0
   20.9804  -22.0815  -13.9326 O   0  0  0  0  0  0  0  0  0  0  0  0
   20.2472  -23.6095   -7.3598 O   0  0  0  0  0  0  0  0  0  0  0  0
   20.1883  -22.5666   -8.2800 C   0  0  0  0  0  0  0  0  0  0  0  0
   21.2650  -21.7061   -8.4135 C   0  0  0  0  0  0  0  0  0  0  0  0
   21.2317  -20.6530   -9.3280 C   0  0  0  0  0  0  0  0  0  0  0  0
   20.1216  -20.4560  -10.1127 C   0  0  0  0  0  0  0  0  0  0  0  0
   20.0407  -19.3720  -11.0786 C   0  0  0  0  0  0  0  0  0  0  0  0
   20.3130  -19.7711  -12.4910 C   0  0  2  0  0  0  0  0  0  0  0  0
   21.6545  -20.2772  -12.6883 N   0  0  0  0  0  0  0  0  0  0  0  0
   20.0602  -18.6451  -13.4078 C   0  0  0  0  0  0  0  0  0  0  0  0
   18.7698  -18.1309  -13.5498 O   0  0  0  0  0  0  0  0  0  0  0  0
   19.0631  -21.3246   -9.9622 C   0  0  0  0  0  0  0  0  0  0  0  0
   19.0917  -22.3662   -9.0601 C   0  0  0  0  0  0  0  0  0  0  0  0
   21.0067  -18.1465  -14.0629 O   0  0  0  0  0  0  0  0  0  0  0  0
  2  1  1  6
  2  3  1  0
  4  5  2  0
  4  3  1  0
  6  5  1  0
  7 12  2  0
  7  6  1  0
  8  7  1  0
  9 10  1  0
  9  8  2  0
 10 11  2  0
 11 12  1  0
 12  4  1  0
 13  2  1  0
 13 15  1  0
 14 13  2  0
 16 15  1  0
 17 16  1  0
 18 17  2  0
 19 20  1  0
 20 30  2  0
 20 21  1  0
 21 22  2  0
 22 23  1  0
 23 24  1  0
 25 24  1  1
 25 26  1  0
 25 27  1  0
 26 17  1  0
 27 28  1  0
 29 23  2  0
 30 29  1  0
 31 27  2  0
M  END
$$$$
