WGY.pdb
     RDKit          3D

 31 33  0  0  1  0  0  0  0  0999 V2000
   25.4571  -20.2643  -10.2787 N   0  0  0  0  0  0  0  0  0  0  0  0
   26.7704  -20.7468  -10.5587 C   0  0  1  0  0  0  0  0  0  0  0  0
   27.3200  -21.5125   -9.4132 C   0  0  0  0  0  0  0  0  0  0  0  0
   27.3374  -20.6728   -8.2025 C   0  0  0  0  0  0  0  0  0  0  0  0
   26.3857  -19.7296   -7.8395 C   0  0  0  0  0  0  0  0  0  0  0  0
   26.7153  -19.1828   -6.6628 N   0  0  0  0  0  0  0  0  0  0  0  0
   27.8551  -19.7310   -6.2322 C   0  0  0  0  0  0  0  0  0  0  0  0
   28.6139  -19.5135   -5.0912 C   0  0  0  0  0  0  0  0  0  0  0  0
   29.7699  -20.1867   -4.8462 C   0  0  0  0  0  0  0  0  0  0  0  0
   30.1773  -21.1177   -5.7917 C   0  0  0  0  0  0  0  0  0  0  0  0
   29.4319  -21.3431   -6.9294 C   0  0  0  0  0  0  0  0  0  0  0  0
   28.2649  -20.6716   -7.1866 C   0  0  0  0  0  0  0  0  0  0  0  0
   26.8496  -21.4824  -11.8496 C   0  0  0  0  0  0  0  0  0  0  0  0
   27.9411  -22.0335  -12.1349 O   0  0  0  0  0  0  0  0  0  0  0  0
   25.7569  -21.5802  -12.7503 N   0  0  0  0  0  0  0  0  0  0  0  0
   25.9114  -21.5264  -14.1883 C   0  0  0  0  0  0  0  0  0  0  0  0
   24.6131  -21.5994  -14.8918 C   0  0  0  0  0  0  0  0  0  0  0  0
   23.9302  -22.6551  -14.9435 O   0  0  0  0  0  0  0  0  0  0  0  0
   20.2980  -22.9293  -10.1553 O   0  0  0  0  0  0  0  0  0  0  0  0
   20.9213  -22.0494  -11.0358 C   0  0  0  0  0  0  0  0  0  0  0  0
   20.6422  -22.1197  -12.3903 C   0  0  0  0  0  0  0  0  0  0  0  0
   21.2531  -21.2498  -13.2939 C   0  0  0  0  0  0  0  0  0  0  0  0
   22.1456  -20.3062  -12.8468 C   0  0  0  0  0  0  0  0  0  0  0  0
   22.8075  -19.3792  -13.7508 C   0  0  0  0  0  0  0  0  0  0  0  0
   22.8532  -19.8205  -15.1760 C   0  0  2  0  0  0  0  0  0  0  0  0
   24.1075  -20.4469  -15.5355 N   0  0  0  0  0  0  0  0  0  0  0  0
   22.5785  -18.6893  -16.0801 C   0  0  0  0  0  0  0  0  0  0  0  0
   21.2659  -18.3862  -16.4471 O   0  0  0  0  0  0  0  0  0  0  0  0
   22.4073  -20.2553  -11.4954 C   0  0  0  0  0  0  0  0  0  0  0  0
   21.8062  -21.1126  -10.5992 C   0  0  0  0  0  0  0  0  0  0  0  0
   23.5263  -17.9963  -16.5215 O   0  0  0  0  0  0  0  0  0  0  0  0
  2  1  1  1
  2  3  1  0
  4  5  2  0
  4  3  1  0
  6  5  1  0
  7 12  2  0
  7  6  1  0
  8  7  1  0
  9 10  1  0
  9  8  2  0
 10 11  2  0
 11 12  1  0
 12  4  1  0
 13  2  1  0
 13 15  1  0
 14 13  2  0
 16 15  1  0
 17 16  1  0
 18 17  2  0
 19 20  1  0
 20 30  2  0
 20 21  1  0
 21 22  2  0
 22 23  1  0
 23 24  1  0
 25 24  1  1
 25 26  1  0
 25 27  1  0
 26 17  1  0
 27 28  1  0
 29 23  2  0
 30 29  1  0
 31 27  2  0
M  END
$$$$
