WGY.pdb
     RDKit          3D

 31 33  0  0  1  0  0  0  0  0999 V2000
   21.5526  -20.6207  -14.6282 N   0  0  0  0  0  0  0  0  0  0  0  0
   22.1348  -21.4102  -13.5920 C   0  0  1  0  0  0  0  0  0  0  0  0
   21.7593  -22.8390  -13.7261 C   0  0  0  0  0  0  0  0  0  0  0  0
   20.3091  -23.0041  -13.5239 C   0  0  0  0  0  0  0  0  0  0  0  0
   19.3780  -23.3657  -14.4880 C   0  0  0  0  0  0  0  0  0  0  0  0
   18.1614  -23.4464  -13.9354 N   0  0  0  0  0  0  0  0  0  0  0  0
   18.2530  -23.1497  -12.6359 C   0  0  0  0  0  0  0  0  0  0  0  0
   17.2978  -23.0823  -11.6320 C   0  0  0  0  0  0  0  0  0  0  0  0
   17.6094  -22.7452  -10.3518 C   0  0  0  0  0  0  0  0  0  0  0  0
   18.9398  -22.4642  -10.0731 C   0  0  0  0  0  0  0  0  0  0  0  0
   19.8984  -22.5278  -11.0619 C   0  0  0  0  0  0  0  0  0  0  0  0
   19.5966  -22.8674  -12.3552 C   0  0  0  0  0  0  0  0  0  0  0  0
   23.6018  -21.1976  -13.4626 C   0  0  0  0  0  0  0  0  0  0  0  0
   24.2663  -21.0916  -14.5227 O   0  0  0  0  0  0  0  0  0  0  0  0
   24.2615  -21.1124  -12.2088 N   0  0  0  0  0  0  0  0  0  0  0  0
   25.4103  -21.9223  -11.8640 C   0  0  0  0  0  0  0  0  0  0  0  0
   26.6840  -21.2017  -12.0743 C   0  0  0  0  0  0  0  0  0  0  0  0
   26.7356  -20.0568  -12.5940 O   0  0  0  0  0  0  0  0  0  0  0  0
   27.5413  -20.5508   -5.6035 O   0  0  0  0  0  0  0  0  0  0  0  0
   27.9774  -20.3964   -6.9165 C   0  0  0  0  0  0  0  0  0  0  0  0
   27.0527  -20.2162   -7.9313 C   0  0  0  0  0  0  0  0  0  0  0  0
   27.4632  -20.0591   -9.2554 C   0  0  0  0  0  0  0  0  0  0  0  0
   28.8002  -20.0816   -9.5701 C   0  0  0  0  0  0  0  0  0  0  0  0
   29.2753  -19.9232  -10.9353 C   0  0  0  0  0  0  0  0  0  0  0  0
   29.1842  -21.1533  -11.7759 C   0  0  2  0  0  0  0  0  0  0  0  0
   27.8980  -21.8103  -11.6816 N   0  0  0  0  0  0  0  0  0  0  0  0
   30.2594  -22.1004  -11.4305 C   0  0  0  0  0  0  0  0  0  0  0  0
   31.5972  -21.7224  -11.5608 O   0  0  0  0  0  0  0  0  0  0  0  0
   29.7012  -20.2621   -8.5440 C   0  0  0  0  0  0  0  0  0  0  0  0
   29.3002  -20.4177   -7.2347 C   0  0  0  0  0  0  0  0  0  0  0  0
   29.9726  -23.2498  -11.0180 O   0  0  0  0  0  0  0  0  0  0  0  0
  2  1  1  6
  2  3  1  0
  4  5  2  0
  4  3  1  0
  6  5  1  0
  7 12  2  0
  7  6  1  0
  8  7  1  0
  9 10  1  0
  9  8  2  0
 10 11  2  0
 11 12  1  0
 12  4  1  0
 13  2  1  0
 13 15  1  0
 14 13  2  0
 16 15  1  0
 17 16  1  0
 18 17  2  0
 19 20  1  0
 20 30  2  0
 20 21  1  0
 21 22  2  0
 22 23  1  0
 23 24  1  0
 25 24  1  1
 25 26  1  0
 25 27  1  0
 26 17  1  0
 27 28  1  0
 29 23  2  0
 30 29  1  0
 31 27  2  0
M  END
$$$$
