WGY.pdb
     RDKit          3D

 31 33  0  0  1  0  0  0  0  0999 V2000
   16.7223  -19.5271    1.9586 N   0  0  0  0  0  0  0  0  0  0  0  0
   17.7535  -18.8234    2.6497 C   0  0  1  0  0  0  0  0  0  0  0  0
   18.3610  -17.7764    1.7922 C   0  0  0  0  0  0  0  0  0  0  0  0
   19.2632  -18.3909    0.8025 C   0  0  0  0  0  0  0  0  0  0  0  0
   18.9011  -19.2689   -0.2100 C   0  0  0  0  0  0  0  0  0  0  0  0
   19.9793  -19.5967   -0.9327 N   0  0  0  0  0  0  0  0  0  0  0  0
   21.0460  -18.9662   -0.4334 C   0  0  0  0  0  0  0  0  0  0  0  0
   22.3825  -18.9702   -0.8063 C   0  0  0  0  0  0  0  0  0  0  0  0
   23.3256  -18.2487   -0.1432 C   0  0  0  0  0  0  0  0  0  0  0  0
   22.9029  -17.4921    0.9410 C   0  0  0  0  0  0  0  0  0  0  0  0
   21.5778  -17.4795    1.3213 C   0  0  0  0  0  0  0  0  0  0  0  0
   20.6183  -18.2016    0.6602 C   0  0  0  0  0  0  0  0  0  0  0  0
   17.3122  -18.3139    3.9762 C   0  0  0  0  0  0  0  0  0  0  0  0
   16.0781  -18.2950    4.2068 O   0  0  0  0  0  0  0  0  0  0  0  0
   18.2191  -17.8583    4.9685 N   0  0  0  0  0  0  0  0  0  0  0  0
   17.7913  -17.3126    6.2388 C   0  0  0  0  0  0  0  0  0  0  0  0
   18.9313  -16.8569    7.0624 C   0  0  0  0  0  0  0  0  0  0  0  0
   20.1273  -17.0998    6.7555 O   0  0  0  0  0  0  0  0  0  0  0  0
   20.3666  -11.2163    4.4740 O   0  0  0  0  0  0  0  0  0  0  0  0
   20.2115  -11.9343    5.6564 C   0  0  0  0  0  0  0  0  0  0  0  0
   19.0120  -12.5742    5.9197 C   0  0  0  0  0  0  0  0  0  0  0  0
   18.8304  -13.3003    7.0971 C   0  0  0  0  0  0  0  0  0  0  0  0
   19.8475  -13.3895    8.0161 C   0  0  0  0  0  0  0  0  0  0  0  0
   19.7045  -14.1337    9.2572 C   0  0  0  0  0  0  0  0  0  0  0  0
   19.7334  -15.6182    9.1032 C   0  0  2  0  0  0  0  0  0  0  0  0
   18.6831  -16.1192    8.2425 N   0  0  0  0  0  0  0  0  0  0  0  0
   19.6640  -16.2791   10.4187 C   0  0  0  0  0  0  0  0  0  0  0  0
   20.7221  -16.1592   11.3218 O   0  0  0  0  0  0  0  0  0  0  0  0
   21.0314  -12.7448    7.7323 C   0  0  0  0  0  0  0  0  0  0  0  0
   21.2151  -12.0265    6.5706 C   0  0  0  0  0  0  0  0  0  0  0  0
   18.6516  -16.9518   10.7287 O   0  0  0  0  0  0  0  0  0  0  0  0
  2  1  1  6
  2  3  1  0
  4  5  2  0
  4  3  1  0
  6  5  1  0
  7 12  2  0
  7  6  1  0
  8  7  1  0
  9 10  1  0
  9  8  2  0
 10 11  2  0
 11 12  1  0
 12  4  1  0
 13  2  1  0
 13 15  1  0
 14 13  2  0
 16 15  1  0
 17 16  1  0
 18 17  2  0
 19 20  1  0
 20 30  2  0
 20 21  1  0
 21 22  2  0
 22 23  1  0
 23 24  1  0
 25 24  1  1
 25 26  1  0
 25 27  1  0
 26 17  1  0
 27 28  1  0
 29 23  2  0
 30 29  1  0
 31 27  2  0
M  END
$$$$
