WGY.pdb
     RDKit          3D

 31 33  0  0  1  0  0  0  0  0999 V2000
   23.0177  -20.0316  -18.9083 N   0  0  0  0  0  0  0  0  0  0  0  0
   22.9831  -19.2507  -17.7146 C   0  0  1  0  0  0  0  0  0  0  0  0
   22.4047  -17.9077  -17.9644 C   0  0  0  0  0  0  0  0  0  0  0  0
   23.0090  -17.3104  -19.1682 C   0  0  0  0  0  0  0  0  0  0  0  0
   22.4604  -17.2910  -20.4432 C   0  0  0  0  0  0  0  0  0  0  0  0
   23.2770  -16.6366  -21.2781 N   0  0  0  0  0  0  0  0  0  0  0  0
   24.3505  -16.2210  -20.6001 C   0  0  0  0  0  0  0  0  0  0  0  0
   25.4784  -15.5153  -20.9940 C   0  0  0  0  0  0  0  0  0  0  0  0
   26.4773  -15.1967  -20.1278 C   0  0  0  0  0  0  0  0  0  0  0  0
   26.3325  -15.6074  -18.8099 C   0  0  0  0  0  0  0  0  0  0  0  0
   25.2166  -16.3089  -18.4060 C   0  0  0  0  0  0  0  0  0  0  0  0
   24.2030  -16.6347  -19.2695 C   0  0  0  0  0  0  0  0  0  0  0  0
   22.3407  -19.9654  -16.5785 C   0  0  0  0  0  0  0  0  0  0  0  0
   22.3179  -19.3817  -15.4670 O   0  0  0  0  0  0  0  0  0  0  0  0
   21.7651  -21.2565  -16.7056 N   0  0  0  0  0  0  0  0  0  0  0  0
   21.7796  -22.2361  -15.6403 C   0  0  0  0  0  0  0  0  0  0  0  0
   20.5728  -22.1536  -14.7903 C   0  0  0  0  0  0  0  0  0  0  0  0
   20.3180  -22.9988  -13.8935 O   0  0  0  0  0  0  0  0  0  0  0  0
   22.3129  -20.1004   -9.2062 O   0  0  0  0  0  0  0  0  0  0  0  0
   21.3502  -20.0303  -10.2093 C   0  0  0  0  0  0  0  0  0  0  0  0
   21.6909  -19.5316  -11.4554 C   0  0  0  0  0  0  0  0  0  0  0  0
   20.7452  -19.4505  -12.4779 C   0  0  0  0  0  0  0  0  0  0  0  0
   19.4550  -19.8677  -12.2586 C   0  0  0  0  0  0  0  0  0  0  0  0
   18.4351  -19.8014  -13.2930 C   0  0  0  0  0  0  0  0  0  0  0  0
   18.4268  -20.9569  -14.2380 C   0  0  2  0  0  0  0  0  0  0  0  0
   19.6614  -21.0900  -14.9815 N   0  0  0  0  0  0  0  0  0  0  0  0
   17.2875  -20.8602  -15.1681 C   0  0  0  0  0  0  0  0  0  0  0  0
   17.5077  -20.8112  -16.5460 O   0  0  0  0  0  0  0  0  0  0  0  0
   19.1397  -20.3600  -11.0113 C   0  0  0  0  0  0  0  0  0  0  0  0
   20.0706  -20.4419   -9.9983 C   0  0  0  0  0  0  0  0  0  0  0  0
   16.1161  -20.8218  -14.7211 O   0  0  0  0  0  0  0  0  0  0  0  0
  2  1  1  6
  2  3  1  0
  4  5  2  0
  4  3  1  0
  6  5  1  0
  7 12  2  0
  7  6  1  0
  8  7  1  0
  9 10  1  0
  9  8  2  0
 10 11  2  0
 11 12  1  0
 12  4  1  0
 13  2  1  0
 13 15  1  0
 14 13  2  0
 16 15  1  0
 17 16  1  0
 18 17  2  0
 19 20  1  0
 20 30  2  0
 20 21  1  0
 21 22  2  0
 22 23  1  0
 23 24  1  0
 25 24  1  6
 25 26  1  0
 25 27  1  0
 26 17  1  0
 27 28  1  0
 29 23  2  0
 30 29  1  0
 31 27  2  0
M  END
$$$$
