WGY.pdb
     RDKit          3D

 31 33  0  0  1  0  0  0  0  0999 V2000
   23.6613  -18.4599  -18.3485 N   0  0  0  0  0  0  0  0  0  0  0  0
   24.8114  -17.6465  -18.1211 C   0  0  1  0  0  0  0  0  0  0  0  0
   24.5132  -16.2123  -18.3551 C   0  0  0  0  0  0  0  0  0  0  0  0
   23.8804  -16.0337  -19.6737 C   0  0  0  0  0  0  0  0  0  0  0  0
   22.5671  -15.6530  -19.9132 C   0  0  0  0  0  0  0  0  0  0  0  0
   22.3540  -15.5646  -21.2318 N   0  0  0  0  0  0  0  0  0  0  0  0
   23.4823  -15.8747  -21.8767 C   0  0  0  0  0  0  0  0  0  0  0  0
   23.7878  -15.9415  -23.2285 C   0  0  0  0  0  0  0  0  0  0  0  0
   25.0213  -16.2941  -23.6797 C   0  0  0  0  0  0  0  0  0  0  0  0
   25.9865  -16.5919  -22.7277 C   0  0  0  0  0  0  0  0  0  0  0  0
   25.6955  -16.5291  -21.3816 C   0  0  0  0  0  0  0  0  0  0  0  0
   24.4565  -16.1740  -20.9149 C   0  0  0  0  0  0  0  0  0  0  0  0
   25.4480  -17.9069  -16.8017 C   0  0  0  0  0  0  0  0  0  0  0  0
   26.5075  -17.2866  -16.5386 O   0  0  0  0  0  0  0  0  0  0  0  0
   24.9102  -18.8131  -15.8509 N   0  0  0  0  0  0  0  0  0  0  0  0
   25.3961  -18.9120  -14.4912 C   0  0  0  0  0  0  0  0  0  0  0  0
   24.6680  -19.9358  -13.7118 C   0  0  0  0  0  0  0  0  0  0  0  0
   23.9254  -20.7959  -14.2524 O   0  0  0  0  0  0  0  0  0  0  0  0
   20.0976  -22.0927   -6.4289 O   0  0  0  0  0  0  0  0  0  0  0  0
   21.0663  -21.6160   -7.3076 C   0  0  0  0  0  0  0  0  0  0  0  0
   22.2057  -22.3656   -7.5472 C   0  0  0  0  0  0  0  0  0  0  0  0
   23.1917  -21.9108   -8.4231 C   0  0  0  0  0  0  0  0  0  0  0  0
   23.0425  -20.7046   -9.0631 C   0  0  0  0  0  0  0  0  0  0  0  0
   24.0434  -20.1891   -9.9835 C   0  0  0  0  0  0  0  0  0  0  0  0
   23.7975  -20.5121  -11.4200 C   0  0  2  0  0  0  0  0  0  0  0  0
   24.8016  -19.9610  -12.3047 N   0  0  0  0  0  0  0  0  0  0  0  0
   22.4581  -20.0571  -11.8337 C   0  0  0  0  0  0  0  0  0  0  0  0
   22.2586  -18.7350  -12.2360 O   0  0  0  0  0  0  0  0  0  0  0  0
   21.9009  -19.9767   -8.8091 C   0  0  0  0  0  0  0  0  0  0  0  0
   20.9243  -20.4221   -7.9446 C   0  0  0  0  0  0  0  0  0  0  0  0
   21.4939  -20.8593  -11.8246 O   0  0  0  0  0  0  0  0  0  0  0  0
  2  1  1  1
  2  3  1  0
  4  5  2  0
  4  3  1  0
  6  5  1  0
  7 12  2  0
  7  6  1  0
  8  7  1  0
  9 10  1  0
  9  8  2  0
 10 11  2  0
 11 12  1  0
 12  4  1  0
 13  2  1  0
 13 15  1  0
 14 13  2  0
 16 15  1  0
 17 16  1  0
 18 17  2  0
 19 20  1  0
 20 30  2  0
 20 21  1  0
 21 22  2  0
 22 23  1  0
 23 24  1  0
 25 24  1  1
 25 26  1  0
 25 27  1  0
 26 17  1  0
 27 28  1  0
 29 23  2  0
 30 29  1  0
 31 27  2  0
M  END
$$$$
