WGY.pdb
     RDKit          3D

 31 33  0  0  1  0  0  0  0  0999 V2000
   22.1233  -18.8721  -18.3953 N   0  0  0  0  0  0  0  0  0  0  0  0
   21.5417  -19.9324  -17.6378 C   0  0  1  0  0  0  0  0  0  0  0  0
   20.8172  -20.8866  -18.5125 C   0  0  0  0  0  0  0  0  0  0  0  0
   19.9656  -20.1548  -19.4667 C   0  0  0  0  0  0  0  0  0  0  0  0
   20.1680  -20.0439  -20.8355 C   0  0  0  0  0  0  0  0  0  0  0  0
   19.1773  -19.3298  -21.3838 N   0  0  0  0  0  0  0  0  0  0  0  0
   18.3234  -18.9620  -20.4244 C   0  0  0  0  0  0  0  0  0  0  0  0
   17.1539  -18.2163  -20.4617 C   0  0  0  0  0  0  0  0  0  0  0  0
   16.4270  -17.9456  -19.3447 C   0  0  0  0  0  0  0  0  0  0  0  0
   16.8997  -18.4476  -18.1401 C   0  0  0  0  0  0  0  0  0  0  0  0
   18.0602  -19.1901  -18.0898 C   0  0  0  0  0  0  0  0  0  0  0  0
   18.8006  -19.4703  -19.2089 C   0  0  0  0  0  0  0  0  0  0  0  0
   22.5178  -20.5925  -16.7292 C   0  0  0  0  0  0  0  0  0  0  0  0
   23.6998  -20.7086  -17.1368 O   0  0  0  0  0  0  0  0  0  0  0  0
   22.1661  -21.0847  -15.4453 N   0  0  0  0  0  0  0  0  0  0  0  0
   23.1295  -21.6497  -14.5248 C   0  0  0  0  0  0  0  0  0  0  0  0
   24.2126  -20.6982  -14.1975 C   0  0  0  0  0  0  0  0  0  0  0  0
   24.1932  -19.4967  -14.5710 O   0  0  0  0  0  0  0  0  0  0  0  0
   21.7366  -19.8546   -8.5312 O   0  0  0  0  0  0  0  0  0  0  0  0
   22.9204  -19.9654   -9.2553 C   0  0  0  0  0  0  0  0  0  0  0  0
   23.2157  -19.0342  -10.2367 C   0  0  0  0  0  0  0  0  0  0  0  0
   24.3951  -19.1224  -10.9767 C   0  0  0  0  0  0  0  0  0  0  0  0
   25.2840  -20.1422  -10.7384 C   0  0  0  0  0  0  0  0  0  0  0  0
   26.5250  -20.2756  -11.4847 C   0  0  0  0  0  0  0  0  0  0  0  0
   26.3669  -20.2599  -12.9690 C   0  0  2  0  0  0  0  0  0  0  0  0
   25.3186  -21.1414  -13.4367 N   0  0  0  0  0  0  0  0  0  0  0  0
   27.6399  -20.5965  -13.6313 C   0  0  0  0  0  0  0  0  0  0  0  0
   28.7606  -19.7827  -13.4541 O   0  0  0  0  0  0  0  0  0  0  0  0
   24.9688  -21.0564   -9.7574 C   0  0  0  0  0  0  0  0  0  0  0  0
   23.8050  -20.9732   -9.0240 C   0  0  0  0  0  0  0  0  0  0  0  0
   27.7175  -21.6170  -14.3566 O   0  0  0  0  0  0  0  0  0  0  0  0
  2  1  1  6
  2  3  1  0
  4  5  2  0
  4  3  1  0
  6  5  1  0
  7 12  2  0
  7  6  1  0
  8  7  1  0
  9 10  1  0
  9  8  2  0
 10 11  2  0
 11 12  1  0
 12  4  1  0
 13  2  1  0
 13 15  1  0
 14 13  2  0
 16 15  1  0
 17 16  1  0
 18 17  2  0
 19 20  1  0
 20 30  2  0
 20 21  1  0
 21 22  2  0
 22 23  1  0
 23 24  1  0
 25 24  1  1
 25 26  1  0
 25 27  1  0
 26 17  1  0
 27 28  1  0
 29 23  2  0
 30 29  1  0
 31 27  2  0
M  END
$$$$
