WGY.pdb
     RDKit          3D

 31 33  0  0  1  0  0  0  0  0999 V2000
   24.8300  -19.6202  -16.2364 N   0  0  0  0  0  0  0  0  0  0  0  0
   25.4298  -19.0098  -15.0946 C   0  0  1  0  0  0  0  0  0  0  0  0
   25.5122  -17.5369  -15.2504 C   0  0  0  0  0  0  0  0  0  0  0  0
   26.3574  -17.1951  -16.4079 C   0  0  0  0  0  0  0  0  0  0  0  0
   25.9350  -16.6073  -17.5924 C   0  0  0  0  0  0  0  0  0  0  0  0
   26.9831  -16.4183  -18.4035 N   0  0  0  0  0  0  0  0  0  0  0  0
   28.0880  -16.8619  -17.7975 C   0  0  0  0  0  0  0  0  0  0  0  0
   29.4140  -16.9031  -18.2039 C   0  0  0  0  0  0  0  0  0  0  0  0
   30.4004  -17.4147  -17.4198 C   0  0  0  0  0  0  0  0  0  0  0  0
   30.0338  -17.9054  -16.1743 C   0  0  0  0  0  0  0  0  0  0  0  0
   28.7197  -17.8700  -15.7587 C   0  0  0  0  0  0  0  0  0  0  0  0
   27.7173  -17.3558  -16.5396 C   0  0  0  0  0  0  0  0  0  0  0  0
   24.7941  -19.4312  -13.8169 C   0  0  0  0  0  0  0  0  0  0  0  0
   23.5622  -19.6733  -13.8365 O   0  0  0  0  0  0  0  0  0  0  0  0
   25.5170  -19.5659  -12.6030 N   0  0  0  0  0  0  0  0  0  0  0  0
   24.9560  -19.2401  -11.3092 C   0  0  0  0  0  0  0  0  0  0  0  0
   24.8903  -20.4173  -10.4174 C   0  0  0  0  0  0  0  0  0  0  0  0
   25.1341  -21.5847  -10.8190 O   0  0  0  0  0  0  0  0  0  0  0  0
   30.0387  -19.1432   -5.7746 O   0  0  0  0  0  0  0  0  0  0  0  0
   28.7376  -19.5834   -6.0012 C   0  0  0  0  0  0  0  0  0  0  0  0
   27.8158  -18.7317   -6.5864 C   0  0  0  0  0  0  0  0  0  0  0  0
   26.5057  -19.1480   -6.8244 C   0  0  0  0  0  0  0  0  0  0  0  0
   26.1119  -20.4176   -6.4782 C   0  0  0  0  0  0  0  0  0  0  0  0
   24.7575  -20.8956   -6.7057 C   0  0  0  0  0  0  0  0  0  0  0  0
   24.4735  -21.3270   -8.1062 C   0  0  2  0  0  0  0  0  0  0  0  0
   24.5412  -20.2397   -9.0590 N   0  0  0  0  0  0  0  0  0  0  0  0
   23.1591  -21.9885   -8.1905 C   0  0  0  0  0  0  0  0  0  0  0  0
   22.1677  -21.4769   -9.0302 O   0  0  0  0  0  0  0  0  0  0  0  0
   27.0462  -21.2468   -5.8975 C   0  0  0  0  0  0  0  0  0  0  0  0
   28.3414  -20.8398   -5.6606 C   0  0  0  0  0  0  0  0  0  0  0  0
   22.9295  -23.0143   -7.5060 O   0  0  0  0  0  0  0  0  0  0  0  0
  2  1  1  6
  2  3  1  0
  4  5  2  0
  4  3  1  0
  6  5  1  0
  7 12  2  0
  7  6  1  0
  8  7  1  0
  9 10  1  0
  9  8  2  0
 10 11  2  0
 11 12  1  0
 12  4  1  0
 13  2  1  0
 13 15  1  0
 14 13  2  0
 16 15  1  0
 17 16  1  0
 18 17  2  0
 19 20  1  0
 20 30  2  0
 20 21  1  0
 21 22  2  0
 22 23  1  0
 23 24  1  0
 25 24  1  1
 25 26  1  0
 25 27  1  0
 26 17  1  0
 27 28  1  0
 29 23  2  0
 30 29  1  0
 31 27  2  0
M  END
$$$$
