WGY.pdb
     RDKit          3D

 31 33  0  0  1  0  0  0  0  0999 V2000
   23.7814  -31.7956  -13.7464 N   0  0  0  0  0  0  0  0  0  0  0  0
   23.3972  -31.7444  -12.3731 C   0  0  1  0  0  0  0  0  0  0  0  0
   21.9345  -31.9337  -12.2143 C   0  0  0  0  0  0  0  0  0  0  0  0
   21.2113  -30.7586  -12.7310 C   0  0  0  0  0  0  0  0  0  0  0  0
   20.8232  -30.5418  -14.0461 C   0  0  0  0  0  0  0  0  0  0  0  0
   20.1614  -29.3818  -14.1380 N   0  0  0  0  0  0  0  0  0  0  0  0
   20.0974  -28.8201  -12.9275 C   0  0  0  0  0  0  0  0  0  0  0  0
   19.5358  -27.6301  -12.4874 C   0  0  0  0  0  0  0  0  0  0  0  0
   19.5920  -27.2355  -11.1872 C   0  0  0  0  0  0  0  0  0  0  0  0
   20.2419  -28.0760  -10.2940 C   0  0  0  0  0  0  0  0  0  0  0  0
   20.8038  -29.2611  -10.7188 C   0  0  0  0  0  0  0  0  0  0  0  0
   20.7526  -29.6698  -12.0263 C   0  0  0  0  0  0  0  0  0  0  0  0
   24.2043  -32.6544  -11.5161 C   0  0  0  0  0  0  0  0  0  0  0  0
   24.8179  -33.5908  -12.0846 O   0  0  0  0  0  0  0  0  0  0  0  0
   24.3021  -32.5034  -10.1082 N   0  0  0  0  0  0  0  0  0  0  0  0
   24.9552  -33.4717   -9.2534 C   0  0  0  0  0  0  0  0  0  0  0  0
   24.9555  -33.0533   -7.8355 C   0  0  0  0  0  0  0  0  0  0  0  0
   24.5593  -31.9178   -7.4652 O   0  0  0  0  0  0  0  0  0  0  0  0
   19.0905  -32.8147   -6.1418 O   0  0  0  0  0  0  0  0  0  0  0  0
   20.3806  -33.2024   -5.7905 C   0  0  0  0  0  0  0  0  0  0  0  0
   21.0041  -32.6115   -4.7044 C   0  0  0  0  0  0  0  0  0  0  0  0
   22.2964  -32.9817   -4.3312 C   0  0  0  0  0  0  0  0  0  0  0  0
   22.9706  -33.9442   -5.0426 C   0  0  0  0  0  0  0  0  0  0  0  0
   24.3186  -34.3618   -4.6920 C   0  0  0  0  0  0  0  0  0  0  0  0
   25.4049  -33.6533   -5.4312 C   0  0  2  0  0  0  0  0  0  0  0  0
   25.4159  -33.9531   -6.8471 N   0  0  0  0  0  0  0  0  0  0  0  0
   26.7207  -33.9597   -4.8419 C   0  0  0  0  0  0  0  0  0  0  0  0
   27.0302  -33.5268   -3.5510 O   0  0  0  0  0  0  0  0  0  0  0  0
   22.3300  -34.5178   -6.1188 C   0  0  0  0  0  0  0  0  0  0  0  0
   21.0535  -34.1552   -6.4910 C   0  0  0  0  0  0  0  0  0  0  0  0
   27.5656  -34.6112   -5.5015 O   0  0  0  0  0  0  0  0  0  0  0  0
  2  1  1  6
  2  3  1  0
  4  5  2  0
  4  3  1  0
  6  5  1  0
  7 12  2  0
  7  6  1  0
  8  7  1  0
  9 10  1  0
  9  8  2  0
 10 11  2  0
 11 12  1  0
 12  4  1  0
 13  2  1  0
 13 15  1  0
 14 13  2  0
 16 15  1  0
 17 16  1  0
 18 17  2  0
 19 20  1  0
 20 30  2  0
 20 21  1  0
 21 22  2  0
 22 23  1  0
 23 24  1  0
 25 24  1  1
 25 26  1  0
 25 27  1  0
 26 17  1  0
 27 28  1  0
 29 23  2  0
 30 29  1  0
 31 27  2  0
M  END
$$$$
