NWC.pdb
     RDKit          3D

 29 30  0  0  1  0  0  0  0  0999 V2000
    8.5076  -15.6990   18.5474 N   0  0  0  0  0  0  0  0  0  0  0  0
    9.6454  -15.6777   19.3810 C   0  0  0  0  0  0  0  0  0  0  0  0
   10.7690  -15.9885   18.8672 O   0  0  0  0  0  0  0  0  0  0  0  0
    9.4963  -15.3008   20.8045 C   0  0  0  0  0  0  0  0  0  0  0  0
   10.1587  -16.4033   21.6133 C   0  0  2  0  0  0  0  0  0  0  0  0
    9.3703  -17.6118   21.5936 N   0  0  0  0  0  0  0  0  0  0  0  0
   10.1895  -15.9151   23.0345 C   0  0  0  0  0  0  0  0  0  0  0  0
   10.8671  -14.9079   23.2338 O   0  0  0  0  0  0  0  0  0  0  0  0
    9.4989  -16.5611   24.0346 N   0  0  0  0  0  0  0  0  0  0  0  0
    9.3913  -16.3009   25.4210 C   0  0  1  0  0  0  0  0  0  0  0  0
    8.0924  -16.5079   26.1212 C   0  0  0  0  0  0  0  0  0  0  0  0
    7.0297  -15.6081   25.6199 C   0  0  0  0  0  0  0  0  0  0  0  0
    5.8659  -15.8849   24.9501 C   0  0  0  0  0  0  0  0  0  0  0  0
    5.2484  -14.7431   24.6687 N   0  0  0  0  0  0  0  0  0  0  0  0
    5.9618  -13.6917   25.1305 C   0  0  0  0  0  0  0  0  0  0  0  0
    5.7923  -12.3381   25.1094 C   0  0  0  0  0  0  0  0  0  0  0  0
    6.7043  -11.4815   25.6672 C   0  0  0  0  0  0  0  0  0  0  0  0
    7.8246  -11.9980   26.2667 C   0  0  0  0  0  0  0  0  0  0  0  0
    8.0238  -13.3581   26.3046 C   0  0  0  0  0  0  0  0  0  0  0  0
    7.0814  -14.2184   25.7296 C   0  0  0  0  0  0  0  0  0  0  0  0
   10.5806  -16.7676   26.1590 C   0  0  0  0  0  0  0  0  0  0  0  0
   11.3240  -17.6217   25.6094 O   0  0  0  0  0  0  0  0  0  0  0  0
   10.9251  -16.3015   27.4538 N   0  0  0  0  0  0  0  0  0  0  0  0
   12.0492  -16.8928   28.1580 C   0  0  1  0  0  0  0  0  0  0  0  0
   12.4165  -16.0348   29.3677 C   0  0  0  0  0  0  0  0  0  0  0  0
   11.0611  -14.9160   29.8105 S   0  0  0  0  0  0  0  0  0  0  0  0
   11.8112  -18.3030   28.5037 C   0  0  0  0  0  0  0  0  0  0  0  0
   12.6712  -19.0024   29.0924 O   0  0  0  0  0  0  0  0  0  0  0  0
   10.6032  -18.9608   28.1969 O   0  0  0  0  0  0  0  0  0  0  0  0
  1  2  1  0
  2  3  2  0
  4  5  1  0
  4  2  1  0
  5  6  1  1
  7  8  2  0
  7  5  1  0
  9  7  1  0
 10  9  1  0
 10 11  1  1
 11 12  1  0
 12 13  2  0
 12 20  1  0
 13 14  1  0
 14 15  1  0
 15 16  2  0
 16 17  1  0
 18 17  2  0
 19 18  1  0
 20 19  2  0
 20 15  1  0
 21 22  2  0
 21 10  1  0
 23 21  1  0
 24 25  1  1
 24 23  1  0
 25 26  1  0
 27 24  1  0
 28 27  2  0
 29 27  1  0
M  END
$$$$
