NWC.pdb
     RDKit          3D

 29 30  0  0  1  0  0  0  0  0999 V2000
   10.9403  -17.2394   19.1060 N   0  0  0  0  0  0  0  0  0  0  0  0
   10.7066  -15.8613   19.2960 C   0  0  0  0  0  0  0  0  0  0  0  0
   10.7076  -15.1075   18.2689 O   0  0  0  0  0  0  0  0  0  0  0  0
   10.4723  -15.3457   20.6634 C   0  0  0  0  0  0  0  0  0  0  0  0
   10.7647  -16.4952   21.6129 C   0  0  2  0  0  0  0  0  0  0  0  0
    9.8183  -17.5705   21.4389 N   0  0  0  0  0  0  0  0  0  0  0  0
   10.5683  -15.9493   22.9995 C   0  0  0  0  0  0  0  0  0  0  0  0
   11.0180  -14.8206   23.1929 O   0  0  0  0  0  0  0  0  0  0  0  0
    9.9245  -16.6747   23.9761 N   0  0  0  0  0  0  0  0  0  0  0  0
    9.5595  -16.3465   25.3029 C   0  0  1  0  0  0  0  0  0  0  0  0
    8.1506  -16.5222   25.7552 C   0  0  0  0  0  0  0  0  0  0  0  0
    7.2327  -15.5358   25.1432 C   0  0  0  0  0  0  0  0  0  0  0  0
    6.3384  -15.6657   24.1121 C   0  0  0  0  0  0  0  0  0  0  0  0
    5.7653  -14.4889   23.8875 N   0  0  0  0  0  0  0  0  0  0  0  0
    6.2457  -13.5567   24.7407 C   0  0  0  0  0  0  0  0  0  0  0  0
    6.0098  -12.2272   24.9359 C   0  0  0  0  0  0  0  0  0  0  0  0
    6.6626  -11.5060   25.9004 C   0  0  0  0  0  0  0  0  0  0  0  0
    7.5836  -12.1377   26.6968 C   0  0  0  0  0  0  0  0  0  0  0  0
    7.8432  -13.4771   26.5249 C   0  0  0  0  0  0  0  0  0  0  0  0
    7.1667  -14.1983   25.5344 C   0  0  0  0  0  0  0  0  0  0  0  0
   10.5854  -16.7728   26.2737 C   0  0  0  0  0  0  0  0  0  0  0  0
   11.4473  -17.6099   25.8988 O   0  0  0  0  0  0  0  0  0  0  0  0
   10.6468  -16.2861   27.6049 N   0  0  0  0  0  0  0  0  0  0  0  0
   11.5834  -16.8748   28.5458 C   0  0  1  0  0  0  0  0  0  0  0  0
   11.5540  -16.1020   29.8635 C   0  0  0  0  0  0  0  0  0  0  0  0
   11.0331  -14.3857   29.6025 S   0  0  0  0  0  0  0  0  0  0  0  0
   11.3644  -18.3192   28.7209 C   0  0  0  0  0  0  0  0  0  0  0  0
   10.4408  -18.9324   28.1325 O   0  0  0  0  0  0  0  0  0  0  0  0
   12.1763  -19.1085   29.5599 O   0  0  0  0  0  0  0  0  0  0  0  0
  1  2  1  0
  2  3  2  0
  4  5  1  0
  4  2  1  0
  5  6  1  6
  7  8  2  0
  7  5  1  0
  9  7  1  0
 10  9  1  0
 10 11  1  1
 11 12  1  0
 12 13  2  0
 12 20  1  0
 13 14  1  0
 14 15  1  0
 15 16  2  0
 16 17  1  0
 18 17  2  0
 19 18  1  0
 20 19  2  0
 20 15  1  0
 21 22  2  0
 21 10  1  0
 23 21  1  0
 24 25  1  1
 24 23  1  0
 25 26  1  0
 27 24  1  0
 28 27  2  0
 29 27  1  0
M  END
$$$$
