NWC.pdb
     RDKit          3D

 29 30  0  0  1  0  0  0  0  0999 V2000
    7.0949  -12.7507   18.6344 N   0  0  0  0  0  0  0  0  0  0  0  0
    8.0393  -13.7527   18.9413 C   0  0  0  0  0  0  0  0  0  0  0  0
    8.3877  -14.5509   18.0114 O   0  0  0  0  0  0  0  0  0  0  0  0
    8.5845  -13.8413   20.3144 C   0  0  0  0  0  0  0  0  0  0  0  0
    8.5913  -15.3159   20.6804 C   0  0  2  0  0  0  0  0  0  0  0  0
    7.2486  -15.8293   20.8065 N   0  0  0  0  0  0  0  0  0  0  0  0
    9.2309  -15.4043   22.0378 C   0  0  0  0  0  0  0  0  0  0  0  0
   10.2644  -14.7521   22.1797 O   0  0  0  0  0  0  0  0  0  0  0  0
    8.6840  -16.1664   23.0450 N   0  0  0  0  0  0  0  0  0  0  0  0
    9.1170  -16.4271   24.3663 C   0  0  1  0  0  0  0  0  0  0  0  0
    8.1201  -16.5691   25.4647 C   0  0  0  0  0  0  0  0  0  0  0  0
    7.1430  -15.4579   25.4892 C   0  0  0  0  0  0  0  0  0  0  0  0
    5.8196  -15.4225   25.1325 C   0  0  0  0  0  0  0  0  0  0  0  0
    5.3639  -14.1848   25.2887 N   0  0  0  0  0  0  0  0  0  0  0  0
    6.3438  -13.3725   25.7443 C   0  0  0  0  0  0  0  0  0  0  0  0
    6.4166  -12.0479   26.0628 C   0  0  0  0  0  0  0  0  0  0  0  0
    7.5749  -11.4694   26.5103 C   0  0  0  0  0  0  0  0  0  0  0  0
    8.6991  -12.2440   26.6435 C   0  0  0  0  0  0  0  0  0  0  0  0
    8.6575  -13.5825   26.3310 C   0  0  0  0  0  0  0  0  0  0  0  0
    7.4653  -14.1567   25.8752 C   0  0  0  0  0  0  0  0  0  0  0  0
   10.2239  -17.4020   24.3968 C   0  0  0  0  0  0  0  0  0  0  0  0
    9.9993  -18.5696   23.9838 O   0  0  0  0  0  0  0  0  0  0  0  0
   11.5247  -17.0877   24.8678 N   0  0  0  0  0  0  0  0  0  0  0  0
   12.5226  -18.1364   24.9846 C   0  0  1  0  0  0  0  0  0  0  0  0
   13.9188  -17.5537   24.7716 C   0  0  0  0  0  0  0  0  0  0  0  0
   15.1199  -18.8575   24.3938 S   0  0  0  0  0  0  0  0  0  0  0  0
   12.3983  -18.8867   26.2442 C   0  0  0  0  0  0  0  0  0  0  0  0
   11.8687  -18.3918   27.2688 O   0  0  0  0  0  0  0  0  0  0  0  0
   12.8652  -20.2092   26.3830 O   0  0  0  0  0  0  0  0  0  0  0  0
  1  2  1  0
  2  3  2  0
  4  5  1  0
  4  2  1  0
  5  6  1  1
  7  8  2  0
  7  5  1  0
  9  7  1  0
 10  9  1  0
 10 11  1  1
 11 12  1  0
 12 13  2  0
 12 20  1  0
 13 14  1  0
 14 15  1  0
 15 16  2  0
 16 17  1  0
 18 17  2  0
 19 18  1  0
 20 19  2  0
 20 15  1  0
 21 22  2  0
 21 10  1  0
 23 21  1  0
 24 25  1  1
 24 23  1  0
 25 26  1  0
 27 24  1  0
 28 27  2  0
 29 27  1  0
M  END
$$$$
