NWC.pdb
     RDKit          3D

 29 30  0  0  1  0  0  0  0  0999 V2000
   10.7358  -15.3605   18.4262 N   0  0  0  0  0  0  0  0  0  0  0  0
   11.3063  -16.0296   19.5294 C   0  0  0  0  0  0  0  0  0  0  0  0
   12.0686  -17.0236   19.2968 O   0  0  0  0  0  0  0  0  0  0  0  0
   11.0031  -15.5607   20.9000 C   0  0  0  0  0  0  0  0  0  0  0  0
   10.9894  -16.7959   21.7844 C   0  0  2  0  0  0  0  0  0  0  0  0
    9.8589  -17.6411   21.4845 N   0  0  0  0  0  0  0  0  0  0  0  0
   10.8120  -16.2979   23.1914 C   0  0  0  0  0  0  0  0  0  0  0  0
   11.4910  -15.3183   23.4960 O   0  0  0  0  0  0  0  0  0  0  0  0
    9.9426  -16.9063   24.0681 N   0  0  0  0  0  0  0  0  0  0  0  0
    9.5561  -16.5764   25.3884 C   0  0  1  0  0  0  0  0  0  0  0  0
    8.1514  -16.7987   25.8330 C   0  0  0  0  0  0  0  0  0  0  0  0
    7.2116  -15.8137   25.2529 C   0  0  0  0  0  0  0  0  0  0  0  0
    6.1786  -15.9776   24.3664 C   0  0  0  0  0  0  0  0  0  0  0  0
    5.6431  -14.7908   24.1041 N   0  0  0  0  0  0  0  0  0  0  0  0
    6.2847  -13.8188   24.7903 C   0  0  0  0  0  0  0  0  0  0  0  0
    6.1485  -12.4644   24.8826 C   0  0  0  0  0  0  0  0  0  0  0  0
    6.9648  -11.7031   25.6768 C   0  0  0  0  0  0  0  0  0  0  0  0
    7.9516  -12.3192   26.4035 C   0  0  0  0  0  0  0  0  0  0  0  0
    8.1141  -13.6828   26.3320 C   0  0  0  0  0  0  0  0  0  0  0  0
    7.2707  -14.4448   25.5153 C   0  0  0  0  0  0  0  0  0  0  0  0
   10.5900  -16.9532   26.3712 C   0  0  0  0  0  0  0  0  0  0  0  0
   11.4265  -17.8354   26.0454 O   0  0  0  0  0  0  0  0  0  0  0  0
   10.6859  -16.3710   27.6613 N   0  0  0  0  0  0  0  0  0  0  0  0
   11.6599  -16.8789   28.6114 C   0  0  1  0  0  0  0  0  0  0  0  0
   11.8122  -15.9008   29.7752 C   0  0  0  0  0  0  0  0  0  0  0  0
   10.8972  -14.3675   29.4638 S   0  0  0  0  0  0  0  0  0  0  0  0
   11.3505  -18.2494   29.0483 C   0  0  0  0  0  0  0  0  0  0  0  0
   10.3318  -18.8650   28.6503 O   0  0  0  0  0  0  0  0  0  0  0  0
   12.1768  -18.9604   29.9415 O   0  0  0  0  0  0  0  0  0  0  0  0
  1  2  1  0
  2  3  2  0
  4  5  1  0
  4  2  1  0
  5  6  1  6
  7  8  2  0
  7  5  1  0
  9  7  1  0
 10  9  1  0
 10 11  1  1
 11 12  1  0
 12 13  2  0
 12 20  1  0
 13 14  1  0
 14 15  1  0
 15 16  2  0
 16 17  1  0
 18 17  2  0
 19 18  1  0
 20 19  2  0
 20 15  1  0
 21 22  2  0
 21 10  1  0
 23 21  1  0
 24 25  1  1
 24 23  1  0
 25 26  1  0
 27 24  1  0
 28 27  2  0
 29 27  1  0
M  END
$$$$
