NWC.pdb
     RDKit          3D

 29 30  0  0  1  0  0  0  0  0999 V2000
    7.2282  -13.9604   18.6007 N   0  0  0  0  0  0  0  0  0  0  0  0
    8.5056  -14.3160   19.0822 C   0  0  0  0  0  0  0  0  0  0  0  0
    9.3335  -14.8275   18.2598 O   0  0  0  0  0  0  0  0  0  0  0  0
    8.8351  -14.0866   20.5067 C   0  0  0  0  0  0  0  0  0  0  0  0
    9.3411  -15.4120   21.0504 C   0  0  2  0  0  0  0  0  0  0  0  0
    8.3290  -16.4362   20.9562 N   0  0  0  0  0  0  0  0  0  0  0  0
    9.6111  -15.1861   22.5116 C   0  0  0  0  0  0  0  0  0  0  0  0
   10.3482  -14.2365   22.7734 O   0  0  0  0  0  0  0  0  0  0  0  0
    9.0615  -15.9946   23.4805 N   0  0  0  0  0  0  0  0  0  0  0  0
    9.1258  -15.9449   24.8928 C   0  0  1  0  0  0  0  0  0  0  0  0
    7.9846  -16.4442   25.7106 C   0  0  0  0  0  0  0  0  0  0  0  0
    6.8468  -15.4983   25.7315 C   0  0  0  0  0  0  0  0  0  0  0  0
    5.5112  -15.7004   25.4967 C   0  0  0  0  0  0  0  0  0  0  0  0
    4.8763  -14.5375   25.5896 N   0  0  0  0  0  0  0  0  0  0  0  0
    5.7455  -13.5446   25.8828 C   0  0  0  0  0  0  0  0  0  0  0  0
    5.6294  -12.1996   26.0806 C   0  0  0  0  0  0  0  0  0  0  0  0
    6.7111  -11.4102   26.3690 C   0  0  0  0  0  0  0  0  0  0  0  0
    7.9519  -11.9873   26.4627 C   0  0  0  0  0  0  0  0  0  0  0  0
    8.1016  -13.3404   26.2691 C   0  0  0  0  0  0  0  0  0  0  0  0
    6.9851  -14.1317   25.9752 C   0  0  0  0  0  0  0  0  0  0  0  0
   10.4631  -16.3167   25.3929 C   0  0  0  0  0  0  0  0  0  0  0  0
   11.1575  -17.1072   24.7020 O   0  0  0  0  0  0  0  0  0  0  0  0
   11.0020  -15.8278   26.6107 N   0  0  0  0  0  0  0  0  0  0  0  0
   12.1464  -16.4907   27.2109 C   0  0  1  0  0  0  0  0  0  0  0  0
   12.5334  -15.7879   28.5111 C   0  0  0  0  0  0  0  0  0  0  0  0
   11.0942  -15.5761   29.5924 S   0  0  0  0  0  0  0  0  0  0  0  0
   11.9279  -17.9358   27.3808 C   0  0  0  0  0  0  0  0  0  0  0  0
   10.7884  -18.4551   27.2963 O   0  0  0  0  0  0  0  0  0  0  0  0
   12.9825  -18.8311   27.6497 O   0  0  0  0  0  0  0  0  0  0  0  0
  1  2  1  0
  2  3  2  0
  4  5  1  0
  4  2  1  0
  5  6  1  1
  7  8  2  0
  7  5  1  0
  9  7  1  0
 10  9  1  0
 10 11  1  1
 11 12  1  0
 12 13  2  0
 12 20  1  0
 13 14  1  0
 14 15  1  0
 15 16  2  0
 16 17  1  0
 18 17  2  0
 19 18  1  0
 20 19  2  0
 20 15  1  0
 21 22  2  0
 21 10  1  0
 23 21  1  0
 24 25  1  1
 24 23  1  0
 25 26  1  0
 27 24  1  0
 28 27  2  0
 29 27  1  0
M  END
$$$$
