NWC.pdb
     RDKit          3D

 29 30  0  0  1  0  0  0  0  0999 V2000
   12.3031  -17.6932   19.6306 N   0  0  0  0  0  0  0  0  0  0  0  0
   11.9798  -16.3203   19.6508 C   0  0  0  0  0  0  0  0  0  0  0  0
   12.4637  -15.5785   18.7349 O   0  0  0  0  0  0  0  0  0  0  0  0
   11.1023  -15.7960   20.7213 C   0  0  0  0  0  0  0  0  0  0  0  0
   10.8410  -16.9540   21.6694 C   0  0  2  0  0  0  0  0  0  0  0  0
    9.5765  -17.5880   21.3842 N   0  0  0  0  0  0  0  0  0  0  0  0
   10.7372  -16.3517   23.0426 C   0  0  0  0  0  0  0  0  0  0  0  0
   11.4250  -15.3499   23.2348 O   0  0  0  0  0  0  0  0  0  0  0  0
    9.9215  -16.8947   24.0090 N   0  0  0  0  0  0  0  0  0  0  0  0
    9.5989  -16.4629   25.3170 C   0  0  1  0  0  0  0  0  0  0  0  0
    8.2166  -16.6428   25.8435 C   0  0  0  0  0  0  0  0  0  0  0  0
    7.2664  -15.6534   25.2883 C   0  0  0  0  0  0  0  0  0  0  0  0
    6.2461  -15.8026   24.3847 C   0  0  0  0  0  0  0  0  0  0  0  0
    5.6931  -14.6163   24.1590 N   0  0  0  0  0  0  0  0  0  0  0  0
    6.3105  -13.6590   24.8870 C   0  0  0  0  0  0  0  0  0  0  0  0
    6.1499  -12.3113   25.0263 C   0  0  0  0  0  0  0  0  0  0  0  0
    6.9444  -11.5656   25.8566 C   0  0  0  0  0  0  0  0  0  0  0  0
    7.9337  -12.1908   26.5720 C   0  0  0  0  0  0  0  0  0  0  0  0
    8.1203  -13.5480   26.4535 C   0  0  0  0  0  0  0  0  0  0  0  0
    7.2991  -14.2942   25.6004 C   0  0  0  0  0  0  0  0  0  0  0  0
   10.6778  -16.7693   26.2757 C   0  0  0  0  0  0  0  0  0  0  0  0
   11.6047  -17.5348   25.9029 O   0  0  0  0  0  0  0  0  0  0  0  0
   10.7203  -16.2442   27.5929 N   0  0  0  0  0  0  0  0  0  0  0  0
   11.6901  -16.7588   28.5437 C   0  0  1  0  0  0  0  0  0  0  0  0
   11.7321  -15.8643   29.7816 C   0  0  0  0  0  0  0  0  0  0  0  0
   11.0883  -14.2102   29.4142 S   0  0  0  0  0  0  0  0  0  0  0  0
   11.4581  -18.1757   28.8653 C   0  0  0  0  0  0  0  0  0  0  0  0
   10.4469  -18.7978   28.4580 O   0  0  0  0  0  0  0  0  0  0  0  0
   12.3550  -18.9269   29.6510 O   0  0  0  0  0  0  0  0  0  0  0  0
  1  2  1  0
  2  3  2  0
  4  5  1  0
  4  2  1  0
  5  6  1  6
  7  8  2  0
  7  5  1  0
  9  7  1  0
 10  9  1  0
 10 11  1  1
 11 12  1  0
 12 13  2  0
 12 20  1  0
 13 14  1  0
 14 15  1  0
 15 16  2  0
 16 17  1  0
 18 17  2  0
 19 18  1  0
 20 19  2  0
 20 15  1  0
 21 22  2  0
 21 10  1  0
 23 21  1  0
 24 25  1  1
 24 23  1  0
 25 26  1  0
 27 24  1  0
 28 27  2  0
 29 27  1  0
M  END
$$$$
