NWC.pdb
     RDKit          3D

 29 30  0  0  1  0  0  0  0  0999 V2000
    6.5041  -14.3027   19.3987 N   0  0  0  0  0  0  0  0  0  0  0  0
    7.8604  -14.4959   19.7349 C   0  0  0  0  0  0  0  0  0  0  0  0
    8.6702  -14.8025   18.8003 O   0  0  0  0  0  0  0  0  0  0  0  0
    8.2897  -14.3388   21.1426 C   0  0  0  0  0  0  0  0  0  0  0  0
    8.9929  -15.6302   21.5248 C   0  0  2  0  0  0  0  0  0  0  0  0
    8.0558  -16.7214   21.6399 N   0  0  0  0  0  0  0  0  0  0  0  0
    9.5754  -15.3978   22.8908 C   0  0  0  0  0  0  0  0  0  0  0  0
   10.4270  -14.5126   22.9597 O   0  0  0  0  0  0  0  0  0  0  0  0
    9.1715  -16.1328   23.9821 N   0  0  0  0  0  0  0  0  0  0  0  0
    9.6348  -16.1620   25.3185 C   0  0  1  0  0  0  0  0  0  0  0  0
    8.6638  -16.1020   26.4472 C   0  0  0  0  0  0  0  0  0  0  0  0
    7.5006  -15.2376   26.1477 C   0  0  0  0  0  0  0  0  0  0  0  0
    6.2536  -15.5496   25.6707 C   0  0  0  0  0  0  0  0  0  0  0  0
    5.5564  -14.4291   25.5210 N   0  0  0  0  0  0  0  0  0  0  0  0
    6.2964  -13.3578   25.8846 C   0  0  0  0  0  0  0  0  0  0  0  0
    6.0757  -12.0120   25.9234 C   0  0  0  0  0  0  0  0  0  0  0  0
    7.0344  -11.1289   26.3447 C   0  0  0  0  0  0  0  0  0  0  0  0
    8.2564  -11.6099   26.7407 C   0  0  0  0  0  0  0  0  0  0  0  0
    8.5095  -12.9613   26.7135 C   0  0  0  0  0  0  0  0  0  0  0  0
    7.5180  -13.8490   26.2801 C   0  0  0  0  0  0  0  0  0  0  0  0
   10.7384  -17.1253   25.4938 C   0  0  0  0  0  0  0  0  0  0  0  0
   10.8321  -17.7282   26.5947 O   0  0  0  0  0  0  0  0  0  0  0  0
   11.6957  -17.4037   24.4845 N   0  0  0  0  0  0  0  0  0  0  0  0
   12.7015  -18.4275   24.7068 C   0  0  1  0  0  0  0  0  0  0  0  0
   12.0266  -19.7673   24.9965 C   0  0  0  0  0  0  0  0  0  0  0  0
   10.8400  -20.1957   23.6950 S   0  0  0  0  0  0  0  0  0  0  0  0
   13.6760  -18.5000   23.6069 C   0  0  0  0  0  0  0  0  0  0  0  0
   14.6837  -19.2468   23.6534 O   0  0  0  0  0  0  0  0  0  0  0  0
   13.5425  -17.7364   22.4300 O   0  0  0  0  0  0  0  0  0  0  0  0
  1  2  1  0
  2  3  2  0
  4  5  1  0
  4  2  1  0
  5  6  1  1
  7  8  2  0
  7  5  1  0
  9  7  1  0
 10  9  1  0
 10 11  1  1
 11 12  1  0
 12 13  2  0
 12 20  1  0
 13 14  1  0
 14 15  1  0
 15 16  2  0
 16 17  1  0
 18 17  2  0
 19 18  1  0
 20 19  2  0
 20 15  1  0
 21 22  2  0
 21 10  1  0
 23 21  1  0
 24 25  1  6
 24 23  1  0
 25 26  1  0
 27 24  1  0
 28 27  2  0
 29 27  1  0
M  END
$$$$
