NWC.pdb
     RDKit          3D

 29 30  0  0  1  0  0  0  0  0999 V2000
    8.4461  -12.7749   18.5203 N   0  0  0  0  0  0  0  0  0  0  0  0
    8.3573  -13.9881   19.2347 C   0  0  0  0  0  0  0  0  0  0  0  0
    8.2310  -15.0665   18.5682 O   0  0  0  0  0  0  0  0  0  0  0  0
    8.4122  -13.9663   20.7136 C   0  0  0  0  0  0  0  0  0  0  0  0
    9.1751  -15.2110   21.1344 C   0  0  2  0  0  0  0  0  0  0  0  0
    8.3421  -16.3866   21.0544 N   0  0  0  0  0  0  0  0  0  0  0  0
    9.5276  -15.0129   22.5821 C   0  0  0  0  0  0  0  0  0  0  0  0
   10.1931  -14.0090   22.8325 O   0  0  0  0  0  0  0  0  0  0  0  0
    9.1238  -15.9027   23.5514 N   0  0  0  0  0  0  0  0  0  0  0  0
    9.2535  -15.8800   24.9600 C   0  0  1  0  0  0  0  0  0  0  0  0
    8.0946  -16.2445   25.8228 C   0  0  0  0  0  0  0  0  0  0  0  0
    6.9670  -15.2957   25.6864 C   0  0  0  0  0  0  0  0  0  0  0  0
    5.6786  -15.4931   25.2613 C   0  0  0  0  0  0  0  0  0  0  0  0
    5.0388  -14.3292   25.2695 N   0  0  0  0  0  0  0  0  0  0  0  0
    5.8587  -13.3402   25.6904 C   0  0  0  0  0  0  0  0  0  0  0  0
    5.7177  -11.9961   25.8778 C   0  0  0  0  0  0  0  0  0  0  0  0
    6.7483  -11.2111   26.3231 C   0  0  0  0  0  0  0  0  0  0  0  0
    7.9619  -11.7919   26.5900 C   0  0  0  0  0  0  0  0  0  0  0  0
    8.1355  -13.1443   26.4115 C   0  0  0  0  0  0  0  0  0  0  0  0
    7.0713  -13.9310   25.9558 C   0  0  0  0  0  0  0  0  0  0  0  0
   10.5539  -16.4217   25.3983 C   0  0  0  0  0  0  0  0  0  0  0  0
   11.2120  -17.1201   24.5838 O   0  0  0  0  0  0  0  0  0  0  0  0
   11.0963  -16.1939   26.6892 N   0  0  0  0  0  0  0  0  0  0  0  0
   12.2825  -16.9179   27.1113 C   0  0  1  0  0  0  0  0  0  0  0  0
   12.8123  -16.3330   28.4196 C   0  0  0  0  0  0  0  0  0  0  0  0
   11.4582  -15.9699   29.5684 S   0  0  0  0  0  0  0  0  0  0  0  0
   12.0545  -18.3697   27.1808 C   0  0  0  0  0  0  0  0  0  0  0  0
   10.9104  -18.8738   27.0698 O   0  0  0  0  0  0  0  0  0  0  0  0
   13.1045  -19.2892   27.3763 O   0  0  0  0  0  0  0  0  0  0  0  0
  1  2  1  0
  2  3  2  0
  4  5  1  0
  4  2  1  0
  5  6  1  1
  7  8  2  0
  7  5  1  0
  9  7  1  0
 10  9  1  0
 10 11  1  1
 11 12  1  0
 12 13  2  0
 12 20  1  0
 13 14  1  0
 14 15  1  0
 15 16  2  0
 16 17  1  0
 18 17  2  0
 19 18  1  0
 20 19  2  0
 20 15  1  0
 21 22  2  0
 21 10  1  0
 23 21  1  0
 24 25  1  1
 24 23  1  0
 25 26  1  0
 27 24  1  0
 28 27  2  0
 29 27  1  0
M  END
$$$$
