NWC.pdb
     RDKit          3D

 29 30  0  0  1  0  0  0  0  0999 V2000
   11.0969  -18.3427   19.0619 N   0  0  0  0  0  0  0  0  0  0  0  0
   11.0868  -16.9474   19.2698 C   0  0  0  0  0  0  0  0  0  0  0  0
   11.3592  -16.1935   18.2796 O   0  0  0  0  0  0  0  0  0  0  0  0
   10.7656  -16.4151   20.6129 C   0  0  0  0  0  0  0  0  0  0  0  0
   10.5502  -17.6198   21.5132 C   0  0  2  0  0  0  0  0  0  0  0  0
    9.2990  -18.2755   21.2187 N   0  0  0  0  0  0  0  0  0  0  0  0
   10.4515  -17.0805   22.9127 C   0  0  0  0  0  0  0  0  0  0  0  0
   11.3663  -16.3340   23.2583 O   0  0  0  0  0  0  0  0  0  0  0  0
    9.4010  -17.4074   23.7397 N   0  0  0  0  0  0  0  0  0  0  0  0
    9.1284  -17.0760   25.0877 C   0  0  1  0  0  0  0  0  0  0  0  0
    7.7629  -16.6324   25.4865 C   0  0  0  0  0  0  0  0  0  0  0  0
    7.3655  -15.3661   24.8317 C   0  0  0  0  0  0  0  0  0  0  0  0
    7.0276  -15.1001   23.5299 C   0  0  0  0  0  0  0  0  0  0  0  0
    6.7842  -13.8004   23.4045 N   0  0  0  0  0  0  0  0  0  0  0  0
    6.9471  -13.1709   24.5897 C   0  0  0  0  0  0  0  0  0  0  0  0
    6.8311  -11.8779   25.0094 C   0  0  0  0  0  0  0  0  0  0  0  0
    7.0668  -11.5100   26.3077 C   0  0  0  0  0  0  0  0  0  0  0  0
    7.4314  -12.4699   27.2172 C   0  0  0  0  0  0  0  0  0  0  0  0
    7.5563  -13.7820   26.8252 C   0  0  0  0  0  0  0  0  0  0  0  0
    7.3115  -14.1397   25.4944 C   0  0  0  0  0  0  0  0  0  0  0  0
    9.7796  -18.0125   26.0235 C   0  0  0  0  0  0  0  0  0  0  0  0
    9.4996  -19.2361   25.9312 O   0  0  0  0  0  0  0  0  0  0  0  0
   10.7030  -17.6012   27.0190 N   0  0  0  0  0  0  0  0  0  0  0  0
   11.3192  -18.5913   27.8845 C   0  0  1  0  0  0  0  0  0  0  0  0
   12.8409  -18.4827   27.8005 C   0  0  0  0  0  0  0  0  0  0  0  0
   13.4474  -17.0617   28.7482 S   0  0  0  0  0  0  0  0  0  0  0  0
   10.8125  -18.5189   29.2639 C   0  0  0  0  0  0  0  0  0  0  0  0
    9.9999  -17.6364   29.6332 O   0  0  0  0  0  0  0  0  0  0  0  0
   11.2058  -19.4344   30.2605 O   0  0  0  0  0  0  0  0  0  0  0  0
  1  2  1  0
  2  3  2  0
  4  5  1  0
  4  2  1  0
  5  6  1  6
  7  8  2  0
  7  5  1  0
  9  7  1  0
 10  9  1  0
 10 11  1  6
 11 12  1  0
 12 13  2  0
 12 20  1  0
 13 14  1  0
 14 15  1  0
 15 16  2  0
 16 17  1  0
 18 17  2  0
 19 18  1  0
 20 19  2  0
 20 15  1  0
 21 22  2  0
 21 10  1  0
 23 21  1  0
 24 25  1  1
 24 23  1  0
 25 26  1  0
 27 24  1  0
 28 27  2  0
 29 27  1  0
M  END
$$$$
