NWC.pdb
     RDKit          3D

 29 30  0  0  1  0  0  0  0  0999 V2000
   11.6467  -17.3256   19.5544 N   0  0  0  0  0  0  0  0  0  0  0  0
   11.1715  -16.0089   19.7292 C   0  0  0  0  0  0  0  0  0  0  0  0
   11.2555  -15.2071   18.7427 O   0  0  0  0  0  0  0  0  0  0  0  0
   10.6003  -15.6098   21.0350 C   0  0  0  0  0  0  0  0  0  0  0  0
   10.8524  -16.7669   21.9868 C   0  0  2  0  0  0  0  0  0  0  0  0
    9.8708  -17.8101   21.8129 N   0  0  0  0  0  0  0  0  0  0  0  0
   10.6720  -16.2123   23.3722 C   0  0  0  0  0  0  0  0  0  0  0  0
   11.4138  -15.2769   23.6689 O   0  0  0  0  0  0  0  0  0  0  0  0
    9.7340  -16.7260   24.2386 N   0  0  0  0  0  0  0  0  0  0  0  0
    9.4458  -16.4332   25.5923 C   0  0  1  0  0  0  0  0  0  0  0  0
    8.0683  -16.6350   26.1233 C   0  0  0  0  0  0  0  0  0  0  0  0
    7.0871  -15.7067   25.5188 C   0  0  0  0  0  0  0  0  0  0  0  0
    6.0520  -15.9404   24.6506 C   0  0  0  0  0  0  0  0  0  0  0  0
    5.4705  -14.7843   24.3518 N   0  0  0  0  0  0  0  0  0  0  0  0
    6.0828  -13.7651   24.9951 C   0  0  0  0  0  0  0  0  0  0  0  0
    5.8977  -12.4141   25.0402 C   0  0  0  0  0  0  0  0  0  0  0  0
    6.6933  -11.5952   25.7970 C   0  0  0  0  0  0  0  0  0  0  0  0
    7.7094  -12.1480   26.5341 C   0  0  0  0  0  0  0  0  0  0  0  0
    7.9212  -13.5065   26.5101 C   0  0  0  0  0  0  0  0  0  0  0  0
    7.0984  -14.3280   25.7311 C   0  0  0  0  0  0  0  0  0  0  0  0
   10.5321  -16.8707   26.4897 C   0  0  0  0  0  0  0  0  0  0  0  0
   11.3626  -17.7096   26.0528 O   0  0  0  0  0  0  0  0  0  0  0  0
   10.6848  -16.3930   27.8167 N   0  0  0  0  0  0  0  0  0  0  0  0
   11.6875  -16.9840   28.6853 C   0  0  1  0  0  0  0  0  0  0  0  0
   11.7714  -16.1999   29.9940 C   0  0  0  0  0  0  0  0  0  0  0  0
   10.7718  -14.6900   29.9158 S   0  0  0  0  0  0  0  0  0  0  0  0
   11.4685  -18.4244   28.8906 C   0  0  0  0  0  0  0  0  0  0  0  0
   10.4645  -19.0211   28.4308 O   0  0  0  0  0  0  0  0  0  0  0  0
   12.3704  -19.2281   29.6163 O   0  0  0  0  0  0  0  0  0  0  0  0
  1  2  1  0
  2  3  2  0
  4  5  1  0
  4  2  1  0
  5  6  1  6
  7  8  2  0
  7  5  1  0
  9  7  1  0
 10  9  1  0
 10 11  1  1
 11 12  1  0
 12 13  2  0
 12 20  1  0
 13 14  1  0
 14 15  1  0
 15 16  2  0
 16 17  1  0
 18 17  2  0
 19 18  1  0
 20 19  2  0
 20 15  1  0
 21 22  2  0
 21 10  1  0
 23 21  1  0
 24 25  1  1
 24 23  1  0
 25 26  1  0
 27 24  1  0
 28 27  2  0
 29 27  1  0
M  END
$$$$
