NWC.pdb
     RDKit          3D

 29 30  0  0  1  0  0  0  0  0999 V2000
    7.7753  -13.3902   18.0373 N   0  0  0  0  0  0  0  0  0  0  0  0
    8.8416  -13.9856   18.7434 C   0  0  0  0  0  0  0  0  0  0  0  0
    9.7061  -14.6434   18.0776 O   0  0  0  0  0  0  0  0  0  0  0  0
    8.9175  -13.8285   20.2131 C   0  0  0  0  0  0  0  0  0  0  0  0
    9.4436  -15.1447   20.7601 C   0  0  2  0  0  0  0  0  0  0  0  0
    8.4933  -16.2117   20.5585 N   0  0  0  0  0  0  0  0  0  0  0  0
    9.5869  -14.9507   22.2437 C   0  0  0  0  0  0  0  0  0  0  0  0
   10.2538  -13.9760   22.5883 O   0  0  0  0  0  0  0  0  0  0  0  0
    9.0034  -15.8130   23.1439 N   0  0  0  0  0  0  0  0  0  0  0  0
    8.9419  -15.7951   24.5572 C   0  0  1  0  0  0  0  0  0  0  0  0
    7.7479  -16.3437   25.2599 C   0  0  0  0  0  0  0  0  0  0  0  0
    6.7294  -15.3069   25.5386 C   0  0  0  0  0  0  0  0  0  0  0  0
    5.3623  -15.3903   25.6017 C   0  0  0  0  0  0  0  0  0  0  0  0
    4.8672  -14.1815   25.8417 N   0  0  0  0  0  0  0  0  0  0  0  0
    5.8630  -13.2729   25.9446 C   0  0  0  0  0  0  0  0  0  0  0  0
    5.9110  -11.9289   26.1742 C   0  0  0  0  0  0  0  0  0  0  0  0
    7.0944  -11.2407   26.2240 C   0  0  0  0  0  0  0  0  0  0  0  0
    8.2703  -11.9217   26.0375 C   0  0  0  0  0  0  0  0  0  0  0  0
    8.2551  -13.2769   25.8046 C   0  0  0  0  0  0  0  0  0  0  0  0
    7.0366  -13.9638   25.7571 C   0  0  0  0  0  0  0  0  0  0  0  0
   10.2401  -16.1434   25.1655 C   0  0  0  0  0  0  0  0  0  0  0  0
   11.0585  -16.8096   24.4795 O   0  0  0  0  0  0  0  0  0  0  0  0
   10.6089  -15.7647   26.4821 N   0  0  0  0  0  0  0  0  0  0  0  0
   11.8339  -16.2828   27.0653 C   0  0  1  0  0  0  0  0  0  0  0  0
   12.0863  -15.6228   28.4200 C   0  0  0  0  0  0  0  0  0  0  0  0
   10.5801  -14.8403   29.0559 S   0  0  0  0  0  0  0  0  0  0  0  0
   11.8423  -17.7526   27.1309 C   0  0  0  0  0  0  0  0  0  0  0  0
   12.8479  -18.4001   27.5113 O   0  0  0  0  0  0  0  0  0  0  0  0
   10.7229  -18.5296   26.7710 O   0  0  0  0  0  0  0  0  0  0  0  0
  1  2  1  0
  2  3  2  0
  4  5  1  0
  4  2  1  0
  5  6  1  1
  7  8  2  0
  7  5  1  0
  9  7  1  0
 10  9  1  0
 10 11  1  1
 11 12  1  0
 12 13  2  0
 12 20  1  0
 13 14  1  0
 14 15  1  0
 15 16  2  0
 16 17  1  0
 18 17  2  0
 19 18  1  0
 20 19  2  0
 20 15  1  0
 21 22  2  0
 21 10  1  0
 23 21  1  0
 24 25  1  1
 24 23  1  0
 25 26  1  0
 27 24  1  0
 28 27  2  0
 29 27  1  0
M  END
$$$$
