AWG.pdb
     RDKit          3D

 24 25  0  0  1  0  0  0  0  0999 V2000
    6.7652  -14.7783   21.0093 C   0  0  0  0  0  0  0  0  0  0  0  0
    8.0724  -15.5312   21.0797 C   0  0  2  0  0  0  0  0  0  0  0  0
    7.8307  -16.9518   20.9852 N   0  0  0  0  0  0  0  0  0  0  0  0
    8.7272  -15.1545   22.3522 C   0  0  0  0  0  0  0  0  0  0  0  0
    9.0957  -13.9485   22.4576 O   0  0  0  0  0  0  0  0  0  0  0  0
    8.9598  -16.0241   23.4209 N   0  0  0  0  0  0  0  0  0  0  0  0
    9.6827  -15.5507   24.5855 C   0  0  1  0  0  0  0  0  0  0  0  0
    8.9977  -15.7579   25.8788 C   0  0  0  0  0  0  0  0  0  0  0  0
    7.6404  -15.2114   25.9377 C   0  0  0  0  0  0  0  0  0  0  0  0
    6.4132  -15.7830   25.7373 C   0  0  0  0  0  0  0  0  0  0  0  0
    5.4838  -14.8098   25.9114 N   0  0  0  0  0  0  0  0  0  0  0  0
    6.0669  -13.6524   26.2111 C   0  0  0  0  0  0  0  0  0  0  0  0
    5.5407  -12.3839   26.4734 C   0  0  0  0  0  0  0  0  0  0  0  0
    6.4242  -11.3756   26.7532 C   0  0  0  0  0  0  0  0  0  0  0  0
    7.7897  -11.5535   26.7874 C   0  0  0  0  0  0  0  0  0  0  0  0
    8.2926  -12.8185   26.5249 C   0  0  0  0  0  0  0  0  0  0  0  0
    7.4162  -13.8580   26.2382 C   0  0  0  0  0  0  0  0  0  0  0  0
   11.0528  -16.1947   24.5979 C   0  0  0  0  0  0  0  0  0  0  0  0
   11.6432  -16.4782   25.6582 O   0  0  0  0  0  0  0  0  0  0  0  0
   11.6580  -16.4723   23.3480 N   0  0  0  0  0  0  0  0  0  0  0  0
   12.9716  -17.1107   23.2631 C   0  0  0  0  0  0  0  0  0  0  0  0
   13.2680  -17.3681   21.8514 C   0  0  0  0  0  0  0  0  0  0  0  0
   12.4998  -18.0636   21.1643 O   0  0  0  0  0  0  0  0  0  0  0  0
   14.4013  -16.8366   21.2867 O   0  0  0  0  0  0  0  0  0  0  0  0
  2  1  1  1
  2  3  1  0
  4  2  1  0
  5  4  2  0
  6  4  1  0
  7  6  1  0
  8  9  1  0
  7  8  1  1
  9 17  1  0
 10 11  1  0
 10  9  2  0
 11 12  1  0
 12 17  2  0
 12 13  1  0
 13 14  2  0
 14 15  1  0
 16 15  2  0
 17 16  1  0
 18 20  1  0
 18  7  1  0
 19 18  2  0
 21 20  1  0
 22 24  1  0
 22 21  1  0
 23 22  2  0
M  END
$$$$
