AWG.pdb
     RDKit          3D

 24 25  0  0  1  0  0  0  0  0999 V2000
    6.2106  -15.8967   20.8016 C   0  0  0  0  0  0  0  0  0  0  0  0
    7.4084  -16.7819   21.0510 C   0  0  2  0  0  0  0  0  0  0  0  0
    6.9791  -18.0634   21.5599 N   0  0  0  0  0  0  0  0  0  0  0  0
    8.2923  -16.0669   21.9982 C   0  0  0  0  0  0  0  0  0  0  0  0
    8.7615  -14.9607   21.6013 O   0  0  0  0  0  0  0  0  0  0  0  0
    8.6347  -16.5233   23.2738 N   0  0  0  0  0  0  0  0  0  0  0  0
    9.5487  -15.7483   24.0905 C   0  0  1  0  0  0  0  0  0  0  0  0
    9.1622  -15.6109   25.5105 C   0  0  0  0  0  0  0  0  0  0  0  0
    7.8102  -15.0890   25.7205 C   0  0  0  0  0  0  0  0  0  0  0  0
    6.5806  -15.6889   25.6838 C   0  0  0  0  0  0  0  0  0  0  0  0
    5.6578  -14.7294   25.9462 N   0  0  0  0  0  0  0  0  0  0  0  0
    6.2471  -13.5537   26.1458 C   0  0  0  0  0  0  0  0  0  0  0  0
    5.7285  -12.2891   26.4400 C   0  0  0  0  0  0  0  0  0  0  0  0
    6.6169  -11.2572   26.5870 C   0  0  0  0  0  0  0  0  0  0  0  0
    7.9801  -11.4080   26.4597 C   0  0  0  0  0  0  0  0  0  0  0  0
    8.4755  -12.6696   26.1680 C   0  0  0  0  0  0  0  0  0  0  0  0
    7.5940  -13.7327   26.0140 C   0  0  0  0  0  0  0  0  0  0  0  0
   10.9327  -16.3502   23.9698 C   0  0  0  0  0  0  0  0  0  0  0  0
   11.4530  -17.0077   24.8918 O   0  0  0  0  0  0  0  0  0  0  0  0
   11.6345  -16.1425   22.7574 N   0  0  0  0  0  0  0  0  0  0  0  0
   12.9735  -15.5534   22.7440 C   0  0  0  0  0  0  0  0  0  0  0  0
   13.9180  -16.5451   23.2652 C   0  0  0  0  0  0  0  0  0  0  0  0
   13.6640  -17.1658   24.3122 O   0  0  0  0  0  0  0  0  0  0  0  0
   15.0894  -16.7883   22.5911 O   0  0  0  0  0  0  0  0  0  0  0  0
  2  1  1  1
  2  3  1  0
  4  2  1  0
  5  4  2  0
  6  4  1  0
  7  6  1  0
  8  9  1  0
  7  8  1  1
  9 17  1  0
 10 11  1  0
 10  9  2  0
 11 12  1  0
 12 17  2  0
 12 13  1  0
 13 14  2  0
 14 15  1  0
 16 15  2  0
 17 16  1  0
 18 20  1  0
 18  7  1  0
 19 18  2  0
 21 20  1  0
 22 24  1  0
 22 21  1  0
 23 22  2  0
M  END
$$$$
