AWG.pdb
     RDKit          3D

 24 25  0  0  1  0  0  0  0  0999 V2000
    6.7072  -14.5991   20.8309 C   0  0  0  0  0  0  0  0  0  0  0  0
    7.7327  -15.7041   20.9200 C   0  0  2  0  0  0  0  0  0  0  0  0
    7.0750  -16.9747   21.1168 N   0  0  0  0  0  0  0  0  0  0  0  0
    8.6473  -15.3648   22.0327 C   0  0  0  0  0  0  0  0  0  0  0  0
    9.3173  -14.2991   21.9026 O   0  0  0  0  0  0  0  0  0  0  0  0
    8.8154  -16.1271   23.1916 N   0  0  0  0  0  0  0  0  0  0  0  0
    9.6639  -15.6316   24.2582 C   0  0  1  0  0  0  0  0  0  0  0  0
    9.1028  -15.7592   25.6197 C   0  0  0  0  0  0  0  0  0  0  0  0
    7.7449  -15.2308   25.7652 C   0  0  0  0  0  0  0  0  0  0  0  0
    6.5156  -15.8248   25.6708 C   0  0  0  0  0  0  0  0  0  0  0  0
    5.5860  -14.8608   25.8887 N   0  0  0  0  0  0  0  0  0  0  0  0
    6.1708  -13.6877   26.1154 C   0  0  0  0  0  0  0  0  0  0  0  0
    5.6450  -12.4204   26.3842 C   0  0  0  0  0  0  0  0  0  0  0  0
    6.5304  -11.3927   26.5725 C   0  0  0  0  0  0  0  0  0  0  0  0
    7.8973  -11.5501   26.5099 C   0  0  0  0  0  0  0  0  0  0  0  0
    8.3999  -12.8143   26.2425 C   0  0  0  0  0  0  0  0  0  0  0  0
    7.5216  -13.8733   26.0476 C   0  0  0  0  0  0  0  0  0  0  0  0
   11.0073  -16.3238   24.1673 C   0  0  0  0  0  0  0  0  0  0  0  0
   11.8802  -16.1964   25.0476 O   0  0  0  0  0  0  0  0  0  0  0  0
   11.2508  -17.1363   23.0332 N   0  0  0  0  0  0  0  0  0  0  0  0
   12.5082  -17.8673   22.8762 C   0  0  0  0  0  0  0  0  0  0  0  0
   13.3314  -17.1610   21.8910 C   0  0  0  0  0  0  0  0  0  0  0  0
   13.0033  -17.1470   20.6917 O   0  0  0  0  0  0  0  0  0  0  0  0
   14.4710  -16.5116   22.2974 O   0  0  0  0  0  0  0  0  0  0  0  0
  2  1  1  1
  2  3  1  0
  4  2  1  0
  5  4  2  0
  6  4  1  0
  7  6  1  0
  8  9  1  0
  7  8  1  1
  9 17  1  0
 10 11  1  0
 10  9  2  0
 11 12  1  0
 12 17  2  0
 12 13  1  0
 13 14  2  0
 14 15  1  0
 16 15  2  0
 17 16  1  0
 18 20  1  0
 18  7  1  0
 19 18  2  0
 21 20  1  0
 22 24  1  0
 22 21  1  0
 23 22  2  0
M  END
$$$$
