AWG.pdb
     RDKit          3D

 24 25  0  0  1  0  0  0  0  0999 V2000
    7.7545  -16.6214   20.1521 C   0  0  0  0  0  0  0  0  0  0  0  0
    7.3217  -15.4694   21.0274 C   0  0  2  0  0  0  0  0  0  0  0  0
    7.1438  -14.2801   20.2276 N   0  0  0  0  0  0  0  0  0  0  0  0
    8.3577  -15.2975   22.0699 C   0  0  0  0  0  0  0  0  0  0  0  0
    9.1945  -14.3673   21.8807 O   0  0  0  0  0  0  0  0  0  0  0  0
    8.4696  -16.0778   23.2236 N   0  0  0  0  0  0  0  0  0  0  0  0
    9.4796  -15.7539   24.2125 C   0  0  1  0  0  0  0  0  0  0  0  0
    8.9984  -15.6978   25.6089 C   0  0  0  0  0  0  0  0  0  0  0  0
    7.6758  -15.0895   25.7679 C   0  0  0  0  0  0  0  0  0  0  0  0
    6.4126  -15.6099   25.6885 C   0  0  0  0  0  0  0  0  0  0  0  0
    5.5442  -14.5921   25.9140 N   0  0  0  0  0  0  0  0  0  0  0  0
    6.1998  -13.4553   26.1310 C   0  0  0  0  0  0  0  0  0  0  0  0
    5.7529  -12.1585   26.4021 C   0  0  0  0  0  0  0  0  0  0  0  0
    6.6996  -11.1846   26.5778 C   0  0  0  0  0  0  0  0  0  0  0  0
    8.0541  -11.4228   26.5007 C   0  0  0  0  0  0  0  0  0  0  0  0
    8.4780  -12.7151   26.2313 C   0  0  0  0  0  0  0  0  0  0  0  0
    7.5364  -13.7206   26.0489 C   0  0  0  0  0  0  0  0  0  0  0  0
   10.6193  -16.7416   24.0798 C   0  0  0  0  0  0  0  0  0  0  0  0
   10.5954  -17.8600   24.6291 O   0  0  0  0  0  0  0  0  0  0  0  0
   11.7356  -16.3537   23.2994 N   0  0  0  0  0  0  0  0  0  0  0  0
   12.8786  -17.2467   23.1087 C   0  0  0  0  0  0  0  0  0  0  0  0
   13.8536  -16.5695   22.2496 C   0  0  0  0  0  0  0  0  0  0  0  0
   13.6909  -16.5381   21.0173 O   0  0  0  0  0  0  0  0  0  0  0  0
   14.9521  -15.9669   22.8116 O   0  0  0  0  0  0  0  0  0  0  0  0
  2  1  1  6
  2  3  1  0
  4  2  1  0
  5  4  2  0
  6  4  1  0
  7  6  1  0
  8  9  1  0
  7  8  1  1
  9 17  1  0
 10 11  1  0
 10  9  2  0
 11 12  1  0
 12 17  2  0
 12 13  1  0
 13 14  2  0
 14 15  1  0
 16 15  2  0
 17 16  1  0
 18 20  1  0
 18  7  1  0
 19 18  2  0
 21 20  1  0
 22 24  1  0
 22 21  1  0
 23 22  2  0
M  END
$$$$
