AWG.pdb
     RDKit          3D

 24 25  0  0  1  0  0  0  0  0999 V2000
    6.4931  -14.5635   20.5703 C   0  0  0  0  0  0  0  0  0  0  0  0
    7.5295  -15.6560   20.6845 C   0  0  2  0  0  0  0  0  0  0  0  0
    6.8845  -16.9276   20.9138 N   0  0  0  0  0  0  0  0  0  0  0  0
    8.4426  -15.2806   21.7868 C   0  0  0  0  0  0  0  0  0  0  0  0
    9.0928  -14.2056   21.6348 O   0  0  0  0  0  0  0  0  0  0  0  0
    8.6293  -16.0189   22.9584 N   0  0  0  0  0  0  0  0  0  0  0  0
    9.5831  -15.5605   23.9498 C   0  0  1  0  0  0  0  0  0  0  0  0
    9.1524  -15.7131   25.3555 C   0  0  0  0  0  0  0  0  0  0  0  0
    7.8093  -15.2005   25.6346 C   0  0  0  0  0  0  0  0  0  0  0  0
    6.5779  -15.7972   25.6116 C   0  0  0  0  0  0  0  0  0  0  0  0
    5.6666  -14.8502   25.9488 N   0  0  0  0  0  0  0  0  0  0  0  0
    6.2648  -13.6854   26.1825 C   0  0  0  0  0  0  0  0  0  0  0  0
    5.7592  -12.4353   26.5520 C   0  0  0  0  0  0  0  0  0  0  0  0
    6.6543  -11.4119   26.7164 C   0  0  0  0  0  0  0  0  0  0  0  0
    8.0122  -11.5577   26.5366 C   0  0  0  0  0  0  0  0  0  0  0  0
    8.4947  -12.8048   26.1706 C   0  0  0  0  0  0  0  0  0  0  0  0
    7.6062  -13.8591   25.9975 C   0  0  0  0  0  0  0  0  0  0  0  0
   10.9008  -16.2681   23.7154 C   0  0  0  0  0  0  0  0  0  0  0  0
   10.9593  -17.4635   23.3678 O   0  0  0  0  0  0  0  0  0  0  0  0
   12.0890  -15.5212   23.9050 N   0  0  0  0  0  0  0  0  0  0  0  0
   13.3543  -15.9367   23.2995 C   0  0  0  0  0  0  0  0  0  0  0  0
   14.0679  -16.7830   24.2595 C   0  0  0  0  0  0  0  0  0  0  0  0
   13.5179  -17.1357   25.3173 O   0  0  0  0  0  0  0  0  0  0  0  0
   15.3514  -17.1877   23.9863 O   0  0  0  0  0  0  0  0  0  0  0  0
  2  1  1  1
  2  3  1  0
  4  2  1  0
  5  4  2  0
  6  4  1  0
  7  6  1  0
  8  9  1  0
  7  8  1  1
  9 17  1  0
 10 11  1  0
 10  9  2  0
 11 12  1  0
 12 17  2  0
 12 13  1  0
 13 14  2  0
 14 15  1  0
 16 15  2  0
 17 16  1  0
 18 20  1  0
 18  7  1  0
 19 18  2  0
 21 20  1  0
 22 24  1  0
 22 21  1  0
 23 22  2  0
M  END
$$$$
