AWG.pdb
     RDKit          3D

 24 25  0  0  1  0  0  0  0  0999 V2000
   11.0454  -20.0496   21.0098 C   0  0  0  0  0  0  0  0  0  0  0  0
   10.1630  -18.8809   20.6410 C   0  0  2  0  0  0  0  0  0  0  0  0
   10.2038  -18.6610   19.2143 N   0  0  0  0  0  0  0  0  0  0  0  0
   10.6451  -17.7092   21.4056 C   0  0  0  0  0  0  0  0  0  0  0  0
   11.5467  -17.0127   20.8548 O   0  0  0  0  0  0  0  0  0  0  0  0
   10.1800  -17.3302   22.6676 N   0  0  0  0  0  0  0  0  0  0  0  0
   10.6503  -16.0945   23.2631 C   0  0  1  0  0  0  0  0  0  0  0  0
    9.5912  -15.1987   23.7737 C   0  0  0  0  0  0  0  0  0  0  0  0
    8.3575  -15.2113   22.9849 C   0  0  0  0  0  0  0  0  0  0  0  0
    7.2410  -16.0006   23.0430 C   0  0  0  0  0  0  0  0  0  0  0  0
    6.4000  -15.5790   22.0652 N   0  0  0  0  0  0  0  0  0  0  0  0
    6.9335  -14.5622   21.3936 C   0  0  0  0  0  0  0  0  0  0  0  0
    6.4605  -13.8052   20.3175 C   0  0  0  0  0  0  0  0  0  0  0  0
    7.2672  -12.8064   19.8408 C   0  0  0  0  0  0  0  0  0  0  0  0
    8.5069  -12.5184   20.3676 C   0  0  0  0  0  0  0  0  0  0  0  0
    8.9587  -13.2797   21.4345 C   0  0  0  0  0  0  0  0  0  0  0  0
    8.1584  -14.2990   21.9359 C   0  0  0  0  0  0  0  0  0  0  0  0
   11.6381  -16.4325   24.3595 C   0  0  0  0  0  0  0  0  0  0  0  0
   11.5367  -17.4660   25.0485 O   0  0  0  0  0  0  0  0  0  0  0  0
   12.7019  -15.5255   24.5859 N   0  0  0  0  0  0  0  0  0  0  0  0
   13.9198  -15.5628   23.7763 C   0  0  0  0  0  0  0  0  0  0  0  0
   14.9405  -16.3116   24.5143 C   0  0  0  0  0  0  0  0  0  0  0  0
   15.9147  -15.7220   25.0136 O   0  0  0  0  0  0  0  0  0  0  0  0
   14.8175  -17.6722   24.6539 O   0  0  0  0  0  0  0  0  0  0  0  0
  2  1  1  6
  2  3  1  0
  4  2  1  0
  5  4  2  0
  6  4  1  0
  7  6  1  0
  8  9  1  0
  7  8  1  1
  9 17  1  0
 10 11  1  0
 10  9  2  0
 11 12  1  0
 12 17  2  0
 12 13  1  0
 13 14  2  0
 14 15  1  0
 16 15  2  0
 17 16  1  0
 18 20  1  0
 18  7  1  0
 19 18  2  0
 21 20  1  0
 22 24  1  0
 22 21  1  0
 23 22  2  0
M  END
$$$$
