AWG.pdb
     RDKit          3D

 24 25  0  0  1  0  0  0  0  0999 V2000
    6.9612  -14.7569   20.6117 C   0  0  0  0  0  0  0  0  0  0  0  0
    7.7310  -16.0164   20.9305 C   0  0  2  0  0  0  0  0  0  0  0  0
    6.8344  -17.0298   21.4351 N   0  0  0  0  0  0  0  0  0  0  0  0
    8.7793  -15.6534   21.9099 C   0  0  0  0  0  0  0  0  0  0  0  0
    9.6725  -14.8538   21.5046 O   0  0  0  0  0  0  0  0  0  0  0  0
    8.8455  -16.1251   23.2235 N   0  0  0  0  0  0  0  0  0  0  0  0
    9.9819  -15.7758   24.0538 C   0  0  1  0  0  0  0  0  0  0  0  0
    9.7181  -14.7465   25.0813 C   0  0  0  0  0  0  0  0  0  0  0  0
    8.3145  -14.6427   25.4857 C   0  0  0  0  0  0  0  0  0  0  0  0
    7.3080  -15.5679   25.5471 C   0  0  0  0  0  0  0  0  0  0  0  0
    6.1973  -14.9243   25.9864 N   0  0  0  0  0  0  0  0  0  0  0  0
    6.4557  -13.6378   26.2042 C   0  0  0  0  0  0  0  0  0  0  0  0
    5.6484  -12.5874   26.6512 C   0  0  0  0  0  0  0  0  0  0  0  0
    6.2245  -11.3508   26.7712 C   0  0  0  0  0  0  0  0  0  0  0  0
    7.5461  -11.0994   26.4754 C   0  0  0  0  0  0  0  0  0  0  0  0
    8.3309  -12.1537   26.0339 C   0  0  0  0  0  0  0  0  0  0  0  0
    7.7691  -13.4179   25.9037 C   0  0  0  0  0  0  0  0  0  0  0  0
   10.5214  -17.0393   24.6900 C   0  0  0  0  0  0  0  0  0  0  0  0
   10.8115  -17.1010   25.9004 O   0  0  0  0  0  0  0  0  0  0  0  0
   10.6907  -18.1720   23.8570 N   0  0  0  0  0  0  0  0  0  0  0  0
   11.9341  -18.3956   23.1194 C   0  0  0  0  0  0  0  0  0  0  0  0
   12.9635  -18.8227   24.0708 C   0  0  0  0  0  0  0  0  0  0  0  0
   12.9321  -19.9653   24.5602 O   0  0  0  0  0  0  0  0  0  0  0  0
   13.9675  -17.9541   24.4217 O   0  0  0  0  0  0  0  0  0  0  0  0
  2  1  1  1
  2  3  1  0
  4  2  1  0
  5  4  2  0
  6  4  1  0
  7  6  1  0
  8  9  1  0
  7  8  1  1
  9 17  1  0
 10 11  1  0
 10  9  2  0
 11 12  1  0
 12 17  2  0
 12 13  1  0
 13 14  2  0
 14 15  1  0
 16 15  2  0
 17 16  1  0
 18 20  1  0
 18  7  1  0
 19 18  2  0
 21 20  1  0
 22 24  1  0
 22 21  1  0
 23 22  2  0
M  END
$$$$
