AWG.pdb
     RDKit          3D

 24 25  0  0  1  0  0  0  0  0999 V2000
    8.4307  -16.8357   20.2464 C   0  0  0  0  0  0  0  0  0  0  0  0
    7.5613  -15.9518   21.1086 C   0  0  2  0  0  0  0  0  0  0  0  0
    6.9798  -14.8990   20.3092 N   0  0  0  0  0  0  0  0  0  0  0  0
    8.4142  -15.4264   22.1979 C   0  0  0  0  0  0  0  0  0  0  0  0
    8.8066  -14.2297   22.0751 O   0  0  0  0  0  0  0  0  0  0  0  0
    8.8055  -16.1495   23.3278 N   0  0  0  0  0  0  0  0  0  0  0  0
    9.5343  -15.4816   24.3888 C   0  0  1  0  0  0  0  0  0  0  0  0
    8.9413  -15.6087   25.7367 C   0  0  0  0  0  0  0  0  0  0  0  0
    7.6067  -15.0202   25.8671 C   0  0  0  0  0  0  0  0  0  0  0  0
    6.3535  -15.5632   25.7796 C   0  0  0  0  0  0  0  0  0  0  0  0
    5.4652  -14.5565   25.9757 N   0  0  0  0  0  0  0  0  0  0  0  0
    6.0988  -13.4052   26.1819 C   0  0  0  0  0  0  0  0  0  0  0  0
    5.6266  -12.1117   26.4244 C   0  0  0  0  0  0  0  0  0  0  0  0
    6.5544  -11.1191   26.5960 C   0  0  0  0  0  0  0  0  0  0  0  0
    7.9136  -11.3357   26.5414 C   0  0  0  0  0  0  0  0  0  0  0  0
    8.3627  -12.6250   26.3002 C   0  0  0  0  0  0  0  0  0  0  0  0
    7.4406  -13.6493   26.1225 C   0  0  0  0  0  0  0  0  0  0  0  0
   10.9623  -15.9847   24.3842 C   0  0  0  0  0  0  0  0  0  0  0  0
   11.7620  -15.7199   25.3025 O   0  0  0  0  0  0  0  0  0  0  0  0
   11.3736  -16.7802   23.2871 N   0  0  0  0  0  0  0  0  0  0  0  0
   12.7099  -17.3734   23.2353 C   0  0  0  0  0  0  0  0  0  0  0  0
   13.5055  -16.6309   22.2541 C   0  0  0  0  0  0  0  0  0  0  0  0
   12.9659  -15.7900   21.5139 O   0  0  0  0  0  0  0  0  0  0  0  0
   14.8545  -16.8669   22.1540 O   0  0  0  0  0  0  0  0  0  0  0  0
  2  1  1  6
  2  3  1  0
  4  2  1  0
  5  4  2  0
  6  4  1  0
  7  6  1  0
  8  9  1  0
  7  8  1  1
  9 17  1  0
 10 11  1  0
 10  9  2  0
 11 12  1  0
 12 17  2  0
 12 13  1  0
 13 14  2  0
 14 15  1  0
 16 15  2  0
 17 16  1  0
 18 20  1  0
 18  7  1  0
 19 18  2  0
 21 20  1  0
 22 24  1  0
 22 21  1  0
 23 22  2  0
M  END
$$$$
