AWG.pdb
     RDKit          3D

 24 25  0  0  1  0  0  0  0  0999 V2000
    6.9961  -14.3116   21.0003 C   0  0  0  0  0  0  0  0  0  0  0  0
    8.0022  -15.4333   21.1024 C   0  0  2  0  0  0  0  0  0  0  0  0
    7.3200  -16.7030   21.1918 N   0  0  0  0  0  0  0  0  0  0  0  0
    8.8436  -15.1609   22.2888 C   0  0  0  0  0  0  0  0  0  0  0  0
    9.4823  -14.0685   22.2844 O   0  0  0  0  0  0  0  0  0  0  0  0
    8.9756  -16.0121   23.3891 N   0  0  0  0  0  0  0  0  0  0  0  0
    9.7872  -15.6021   24.5188 C   0  0  1  0  0  0  0  0  0  0  0  0
    9.1335  -15.7199   25.8392 C   0  0  0  0  0  0  0  0  0  0  0  0
    7.7800  -15.1639   25.8947 C   0  0  0  0  0  0  0  0  0  0  0  0
    6.5469  -15.7376   25.7420 C   0  0  0  0  0  0  0  0  0  0  0  0
    5.6251  -14.7523   25.8853 N   0  0  0  0  0  0  0  0  0  0  0  0
    6.2184  -13.5853   26.1203 C   0  0  0  0  0  0  0  0  0  0  0  0
    5.7026  -12.3030   26.3312 C   0  0  0  0  0  0  0  0  0  0  0  0
    6.5954  -11.2874   26.5484 C   0  0  0  0  0  0  0  0  0  0  0  0
    7.9604  -11.4709   26.5683 C   0  0  0  0  0  0  0  0  0  0  0  0
    8.4530  -12.7496   26.3575 C   0  0  0  0  0  0  0  0  0  0  0  0
    7.5670  -13.7966   26.1347 C   0  0  0  0  0  0  0  0  0  0  0  0
   11.0823  -16.3858   24.4924 C   0  0  0  0  0  0  0  0  0  0  0  0
   11.8475  -16.4362   25.4748 O   0  0  0  0  0  0  0  0  0  0  0  0
   11.4079  -17.0741   23.2983 N   0  0  0  0  0  0  0  0  0  0  0  0
   12.6129  -17.8977   23.1985 C   0  0  0  0  0  0  0  0  0  0  0  0
   13.7233  -17.0397   22.7768 C   0  0  0  0  0  0  0  0  0  0  0  0
   14.8494  -17.5248   22.5701 O   0  0  0  0  0  0  0  0  0  0  0  0
   13.5161  -15.6926   22.6095 O   0  0  0  0  0  0  0  0  0  0  0  0
  2  1  1  1
  2  3  1  0
  4  2  1  0
  5  4  2  0
  6  4  1  0
  7  6  1  0
  8  9  1  0
  7  8  1  1
  9 17  1  0
 10 11  1  0
 10  9  2  0
 11 12  1  0
 12 17  2  0
 12 13  1  0
 13 14  2  0
 14 15  1  0
 16 15  2  0
 17 16  1  0
 18 20  1  0
 18  7  1  0
 19 18  2  0
 21 20  1  0
 22 24  1  0
 22 21  1  0
 23 22  2  0
M  END
$$$$
