AWG.pdb
     RDKit          3D

 24 25  0  0  1  0  0  0  0  0999 V2000
    7.7686  -20.7279   23.0033 C   0  0  0  0  0  0  0  0  0  0  0  0
    6.8763  -19.5546   23.3319 C   0  0  2  0  0  0  0  0  0  0  0  0
    5.7879  -19.4807   22.3856 N   0  0  0  0  0  0  0  0  0  0  0  0
    7.7230  -18.3411   23.3127 C   0  0  0  0  0  0  0  0  0  0  0  0
    7.9444  -17.8299   22.1765 O   0  0  0  0  0  0  0  0  0  0  0  0
    8.2812  -17.7365   24.4420 N   0  0  0  0  0  0  0  0  0  0  0  0
    9.1255  -16.5679   24.2855 C   0  0  1  0  0  0  0  0  0  0  0  0
    9.0767  -15.6018   25.4031 C   0  0  0  0  0  0  0  0  0  0  0  0
    7.7266  -15.1655   25.7656 C   0  0  0  0  0  0  0  0  0  0  0  0
    6.5667  -15.8590   25.9811 C   0  0  0  0  0  0  0  0  0  0  0  0
    5.6059  -14.9501   26.2841 N   0  0  0  0  0  0  0  0  0  0  0  0
    6.1049  -13.7172   26.2693 C   0  0  0  0  0  0  0  0  0  0  0  0
    5.5183  -12.4711   26.5100 C   0  0  0  0  0  0  0  0  0  0  0  0
    6.3178  -11.3635   26.4117 C   0  0  0  0  0  0  0  0  0  0  0  0
    7.6560  -11.4219   26.0908 C   0  0  0  0  0  0  0  0  0  0  0  0
    8.2199  -12.6665   25.8560 C   0  0  0  0  0  0  0  0  0  0  0  0
    7.4291  -13.8053   25.9495 C   0  0  0  0  0  0  0  0  0  0  0  0
   10.5465  -17.0286   24.0397 C   0  0  0  0  0  0  0  0  0  0  0  0
   11.1129  -17.8567   24.7791 O   0  0  0  0  0  0  0  0  0  0  0  0
   11.2291  -16.4831   22.9251 N   0  0  0  0  0  0  0  0  0  0  0  0
   12.4693  -17.0774   22.4263 C   0  0  0  0  0  0  0  0  0  0  0  0
   13.5954  -16.4292   23.1037 C   0  0  0  0  0  0  0  0  0  0  0  0
   14.3297  -15.6382   22.4863 O   0  0  0  0  0  0  0  0  0  0  0  0
   13.8385  -16.6985   24.4281 O   0  0  0  0  0  0  0  0  0  0  0  0
  2  1  1  6
  2  3  1  0
  4  2  1  0
  5  4  2  0
  6  4  1  0
  7  6  1  0
  8  9  1  0
  7  8  1  1
  9 17  1  0
 10 11  1  0
 10  9  2  0
 11 12  1  0
 12 17  2  0
 12 13  1  0
 13 14  2  0
 14 15  1  0
 16 15  2  0
 17 16  1  0
 18 20  1  0
 18  7  1  0
 19 18  2  0
 21 20  1  0
 22 24  1  0
 22 21  1  0
 23 22  2  0
M  END
$$$$
