AWG.pdb
     RDKit          3D

 24 25  0  0  1  0  0  0  0  0999 V2000
    7.4118  -14.2137   20.8844 C   0  0  0  0  0  0  0  0  0  0  0  0
    8.1231  -15.5208   21.1417 C   0  0  2  0  0  0  0  0  0  0  0  0
    7.1688  -16.5380   21.5163 N   0  0  0  0  0  0  0  0  0  0  0  0
    9.1268  -15.2726   22.2005 C   0  0  0  0  0  0  0  0  0  0  0  0
   10.0498  -14.4545   21.9173 O   0  0  0  0  0  0  0  0  0  0  0  0
    9.1217  -15.8691   23.4641 N   0  0  0  0  0  0  0  0  0  0  0  0
   10.1805  -15.5612   24.4059 C   0  0  1  0  0  0  0  0  0  0  0  0
    9.7339  -14.9626   25.6815 C   0  0  0  0  0  0  0  0  0  0  0  0
    8.2831  -14.8017   25.7978 C   0  0  0  0  0  0  0  0  0  0  0  0
    7.2517  -15.6964   25.7046 C   0  0  0  0  0  0  0  0  0  0  0  0
    6.1003  -15.0023   25.8871 N   0  0  0  0  0  0  0  0  0  0  0  0
    6.3568  -13.7130   26.0902 C   0  0  0  0  0  0  0  0  0  0  0  0
    5.5158  -12.6201   26.3202 C   0  0  0  0  0  0  0  0  0  0  0  0
    6.1009  -11.3938   26.4922 C   0  0  0  0  0  0  0  0  0  0  0  0
    7.4629  -11.1923   26.4493 C   0  0  0  0  0  0  0  0  0  0  0  0
    8.2806  -12.2882   26.2203 C   0  0  0  0  0  0  0  0  0  0  0  0
    7.7105  -13.5429   26.0426 C   0  0  0  0  0  0  0  0  0  0  0  0
   10.9826  -16.8200   24.6588 C   0  0  0  0  0  0  0  0  0  0  0  0
   11.7518  -16.9322   25.6330 O   0  0  0  0  0  0  0  0  0  0  0  0
   10.8328  -17.8883   23.7413 N   0  0  0  0  0  0  0  0  0  0  0  0
   11.5251  -19.1623   23.9363 C   0  0  0  0  0  0  0  0  0  0  0  0
   12.8568  -19.0596   23.3337 C   0  0  0  0  0  0  0  0  0  0  0  0
   13.2341  -17.9917   22.8205 O   0  0  0  0  0  0  0  0  0  0  0  0
   13.6908  -20.1505   23.3376 O   0  0  0  0  0  0  0  0  0  0  0  0
  2  1  1  1
  2  3  1  0
  4  2  1  0
  5  4  2  0
  6  4  1  0
  7  6  1  0
  8  9  1  0
  7  8  1  1
  9 17  1  0
 10 11  1  0
 10  9  2  0
 11 12  1  0
 12 17  2  0
 12 13  1  0
 13 14  2  0
 14 15  1  0
 16 15  2  0
 17 16  1  0
 18 20  1  0
 18  7  1  0
 19 18  2  0
 21 20  1  0
 22 24  1  0
 22 21  1  0
 23 22  2  0
M  END
$$$$
