LWP.pdb
     RDKit          3D

 30 32  0  0  1  0  0  0  0  0999 V2000
   31.5891  -22.3015  -19.7213 C   0  0  0  0  0  0  0  0  0  0  0  0
   30.4538  -21.3897  -19.3068 C   0  0  1  0  0  0  0  0  0  0  0  0
   29.7640  -20.8204  -20.5109 C   0  0  0  0  0  0  0  0  0  0  0  0
   29.5390  -22.1589  -18.3948 C   0  0  0  0  0  0  0  0  0  0  0  0
   28.4247  -21.3024  -17.8463 C   0  0  2  0  0  0  0  0  0  0  0  0
   28.7442  -19.9024  -17.8063 N   0  0  0  0  0  0  0  0  0  0  0  0
   27.9244  -21.7599  -16.5514 C   0  0  0  0  0  0  0  0  0  0  0  0
   27.8919  -23.0083  -16.2984 O   0  0  0  0  0  0  0  0  0  0  0  0
   27.4803  -20.8644  -15.5820 N   0  0  0  0  0  0  0  0  0  0  0  0
   26.7993  -21.2843  -14.3211 C   0  0  1  0  0  0  0  0  0  0  0  0
   27.3289  -20.2627  -13.3284 C   0  0  0  0  0  0  0  0  0  0  0  0
   26.7528  -20.2856  -11.9955 C   0  0  0  0  0  0  0  0  0  0  0  0
   25.4198  -20.0662  -11.6933 C   0  0  0  0  0  0  0  0  0  0  0  0
   25.2550  -20.1368  -10.3437 N   0  0  0  0  0  0  0  0  0  0  0  0
   26.4508  -20.3947   -9.7956 C   0  0  0  0  0  0  0  0  0  0  0  0
   26.8355  -20.5619   -8.4832 C   0  0  0  0  0  0  0  0  0  0  0  0
   28.1494  -20.8239   -8.1663 C   0  0  0  0  0  0  0  0  0  0  0  0
   29.1035  -20.9240   -9.1498 C   0  0  0  0  0  0  0  0  0  0  0  0
   28.7109  -20.7550  -10.4661 C   0  0  0  0  0  0  0  0  0  0  0  0
   27.3788  -20.4895  -10.7857 C   0  0  0  0  0  0  0  0  0  0  0  0
   25.3491  -21.2376  -14.5036 C   0  0  0  0  0  0  0  0  0  0  0  0
   24.9094  -20.2407  -15.1931 O   0  0  0  0  0  0  0  0  0  0  0  0
   24.3781  -22.1221  -14.0411 N   0  0  0  0  0  0  0  0  0  0  0  0
   24.5303  -23.2461  -13.1359 C   0  0  0  0  0  0  0  0  0  0  0  0
   23.4978  -24.2602  -13.5707 C   0  0  0  0  0  0  0  0  0  0  0  0
   22.8206  -23.6115  -14.7441 C   0  0  0  0  0  0  0  0  0  0  0  0
   22.9490  -22.1390  -14.4138 C   0  0  1  0  0  0  0  0  0  0  0  0
   22.0669  -21.8579  -13.2748 C   0  0  0  0  0  0  0  0  0  0  0  0
   22.6000  -21.7959  -12.1385 O   0  0  0  0  0  0  0  0  0  0  0  0
   20.6985  -21.6568  -13.3563 O   0  0  0  0  0  0  0  0  0  0  0  0
  2  3  1  6
  2  1  1  0
  4  2  1  0
  5  4  1  0
  5  6  1  1
  7  8  2  0
  7  5  1  0
  9  7  1  0
 10  9  1  0
 10 11  1  1
 11 12  1  0
 12 13  2  0
 12 20  1  0
 13 14  1  0
 14 15  1  0
 15 16  2  0
 16 17  1  0
 18 17  2  0
 19 18  1  0
 20 19  2  0
 20 15  1  0
 21 10  1  0
 22 21  2  0
 23 27  1  0
 23 21  1  0
 24 23  1  0
 25 26  1  0
 25 24  1  0
 26 27  1  0
 27 28  1  1
 28 29  2  0
 28 30  1  0
M  END
$$$$
