LWP.pdb
     RDKit          3D

 30 32  0  0  1  0  0  0  0  0999 V2000
   23.3024  -18.4002  -14.9874 C   0  0  0  0  0  0  0  0  0  0  0  0
   23.2114  -19.4622  -13.9122 C   0  0  1  0  0  0  0  0  0  0  0  0
   22.4673  -20.6636  -14.4148 C   0  0  0  0  0  0  0  0  0  0  0  0
   24.6030  -19.7708  -13.4341 C   0  0  0  0  0  0  0  0  0  0  0  0
   24.6055  -20.5226  -12.1261 C   0  0  2  0  0  0  0  0  0  0  0  0
   23.4657  -20.2384  -11.2993 N   0  0  0  0  0  0  0  0  0  0  0  0
   25.8478  -20.3704  -11.3714 C   0  0  0  0  0  0  0  0  0  0  0  0
   26.9646  -20.4783  -11.9752 O   0  0  0  0  0  0  0  0  0  0  0  0
   25.8443  -20.1091  -10.0036 N   0  0  0  0  0  0  0  0  0  0  0  0
   27.0855  -20.0115   -9.1792 C   0  0  1  0  0  0  0  0  0  0  0  0
   26.5858  -19.2620   -7.9551 C   0  0  0  0  0  0  0  0  0  0  0  0
   27.5869  -18.8444   -6.9896 C   0  0  0  0  0  0  0  0  0  0  0  0
   28.3015  -17.6597   -7.0356 C   0  0  0  0  0  0  0  0  0  0  0  0
   29.1674  -17.6245   -5.9855 N   0  0  0  0  0  0  0  0  0  0  0  0
   29.0116  -18.7567   -5.2851 C   0  0  0  0  0  0  0  0  0  0  0  0
   29.6349  -19.2174   -4.1460 C   0  0  0  0  0  0  0  0  0  0  0  0
   29.2948  -20.4373   -3.6060 C   0  0  0  0  0  0  0  0  0  0  0  0
   28.3286  -21.2201   -4.1900 C   0  0  0  0  0  0  0  0  0  0  0  0
   27.7062  -20.7519   -5.3341 C   0  0  0  0  0  0  0  0  0  0  0  0
   28.0520  -19.5153   -5.8802 C   0  0  0  0  0  0  0  0  0  0  0  0
   27.5920  -21.3521   -8.8880 C   0  0  0  0  0  0  0  0  0  0  0  0
   26.7086  -22.2913   -8.8935 O   0  0  0  0  0  0  0  0  0  0  0  0
   28.8955  -21.7560   -8.6110 N   0  0  0  0  0  0  0  0  0  0  0  0
   30.0929  -20.9443   -8.4953 C   0  0  0  0  0  0  0  0  0  0  0  0
   31.2260  -21.8216   -8.9749 C   0  0  0  0  0  0  0  0  0  0  0  0
   30.5545  -23.1112   -9.3523 C   0  0  0  0  0  0  0  0  0  0  0  0
   29.3678  -23.1413   -8.4118 C   0  0  1  0  0  0  0  0  0  0  0  0
   29.8784  -23.3724   -7.0553 C   0  0  0  0  0  0  0  0  0  0  0  0
   29.8855  -22.3908   -6.2705 O   0  0  0  0  0  0  0  0  0  0  0  0
   30.3507  -24.5836   -6.5764 O   0  0  0  0  0  0  0  0  0  0  0  0
  2  3  1  6
  2  1  1  0
  4  2  1  0
  5  4  1  0
  5  6  1  1
  7  8  2  0
  7  5  1  0
  9  7  1  0
 10  9  1  0
 10 11  1  1
 11 12  1  0
 12 13  2  0
 12 20  1  0
 13 14  1  0
 14 15  1  0
 15 16  2  0
 16 17  1  0
 18 17  2  0
 19 18  1  0
 20 19  2  0
 20 15  1  0
 21 10  1  0
 22 21  2  0
 23 27  1  0
 23 21  1  0
 24 23  1  0
 25 26  1  0
 25 24  1  0
 26 27  1  0
 27 28  1  1
 28 29  2  0
 28 30  1  0
M  END
$$$$
