LWP.pdb
     RDKit          3D

 30 32  0  0  1  0  0  0  0  0999 V2000
   16.0865  -25.4265    0.9164 C   0  0  0  0  0  0  0  0  0  0  0  0
   15.2418  -24.1963    1.1716 C   0  0  1  0  0  0  0  0  0  0  0  0
   13.9358  -24.5719    1.8065 C   0  0  0  0  0  0  0  0  0  0  0  0
   16.0523  -23.2273    1.9866 C   0  0  0  0  0  0  0  0  0  0  0  0
   15.3274  -21.9240    2.2143 C   0  0  2  0  0  0  0  0  0  0  0  0
   14.9684  -21.2478    0.9988 N   0  0  0  0  0  0  0  0  0  0  0  0
   16.0283  -21.0213    3.1254 C   0  0  0  0  0  0  0  0  0  0  0  0
   17.0788  -20.4206    2.7266 O   0  0  0  0  0  0  0  0  0  0  0  0
   15.5769  -20.7985    4.4237 N   0  0  0  0  0  0  0  0  0  0  0  0
   16.2081  -19.8217    5.3603 C   0  0  1  0  0  0  0  0  0  0  0  0
   15.1448  -19.6959    6.4390 C   0  0  0  0  0  0  0  0  0  0  0  0
   15.3724  -18.6978    7.4690 C   0  0  0  0  0  0  0  0  0  0  0  0
   16.4677  -18.6517    8.3142 C   0  0  0  0  0  0  0  0  0  0  0  0
   16.3255  -17.5987    9.1653 N   0  0  0  0  0  0  0  0  0  0  0  0
   15.1696  -16.9861    8.8732 C   0  0  0  0  0  0  0  0  0  0  0  0
   14.5572  -15.8825    9.4259 C   0  0  0  0  0  0  0  0  0  0  0  0
   13.3474  -15.4372    8.9427 C   0  0  0  0  0  0  0  0  0  0  0  0
   12.7258  -16.0823    7.9010 C   0  0  0  0  0  0  0  0  0  0  0  0
   13.3459  -17.1902    7.3502 C   0  0  0  0  0  0  0  0  0  0  0  0
   14.5720  -17.6404    7.8411 C   0  0  0  0  0  0  0  0  0  0  0  0
   17.4825  -20.3523    5.8428 C   0  0  0  0  0  0  0  0  0  0  0  0
   17.6414  -21.6242    5.7034 O   0  0  0  0  0  0  0  0  0  0  0  0
   18.5498  -19.6747    6.4266 N   0  0  0  0  0  0  0  0  0  0  0  0
   18.6684  -18.2622    6.7374 C   0  0  0  0  0  0  0  0  0  0  0  0
   20.1356  -17.9345    6.5841 C   0  0  0  0  0  0  0  0  0  0  0  0
   20.7590  -19.2367    6.1695 C   0  0  0  0  0  0  0  0  0  0  0  0
   19.8487  -20.2516    6.8290 C   0  0  1  0  0  0  0  0  0  0  0  0
   20.0726  -20.1781    8.2777 C   0  0  0  0  0  0  0  0  0  0  0  0
   19.2675  -19.4836    8.9477 O   0  0  0  0  0  0  0  0  0  0  0  0
   21.0985  -20.8124    8.9595 O   0  0  0  0  0  0  0  0  0  0  0  0
  2  3  1  1
  2  1  1  0
  4  2  1  0
  5  4  1  0
  5  6  1  6
  7  8  2  0
  7  5  1  0
  9  7  1  0
 10  9  1  0
 10 11  1  1
 11 12  1  0
 12 13  2  0
 12 20  1  0
 13 14  1  0
 14 15  1  0
 15 16  2  0
 16 17  1  0
 18 17  2  0
 19 18  1  0
 20 19  2  0
 20 15  1  0
 21 10  1  0
 22 21  2  0
 23 27  1  0
 23 21  1  0
 24 23  1  0
 25 26  1  0
 25 24  1  0
 26 27  1  0
 27 28  1  1
 28 29  2  0
 28 30  1  0
M  END
$$$$
