LWP.pdb
     RDKit          3D

 30 32  0  0  1  0  0  0  0  0999 V2000
   31.0250  -18.9748  -17.5801 C   0  0  0  0  0  0  0  0  0  0  0  0
   29.7828  -18.5396  -16.8322 C   0  0  1  0  0  0  0  0  0  0  0  0
   28.6808  -18.1944  -17.7894 C   0  0  0  0  0  0  0  0  0  0  0  0
   29.4162  -19.6218  -15.8550 C   0  0  0  0  0  0  0  0  0  0  0  0
   28.2542  -19.2301  -14.9762 C   0  0  2  0  0  0  0  0  0  0  0  0
   28.1984  -17.8229  -14.6929 N   0  0  0  0  0  0  0  0  0  0  0  0
   28.1674  -20.0133  -13.7452 C   0  0  0  0  0  0  0  0  0  0  0  0
   28.2344  -21.2843  -13.8057 O   0  0  0  0  0  0  0  0  0  0  0  0
   28.0129  -19.4055  -12.5019 N   0  0  0  0  0  0  0  0  0  0  0  0
   27.5889  -20.1388  -11.2722 C   0  0  1  0  0  0  0  0  0  0  0  0
   28.2723  -19.3325  -10.1800 C   0  0  0  0  0  0  0  0  0  0  0  0
   27.6959  -19.4124   -8.8495 C   0  0  0  0  0  0  0  0  0  0  0  0
   26.5173  -18.8077   -8.4476 C   0  0  0  0  0  0  0  0  0  0  0  0
   26.3091  -19.0773   -7.1295 N   0  0  0  0  0  0  0  0  0  0  0  0
   27.3275  -19.8348   -6.6981 C   0  0  0  0  0  0  0  0  0  0  0  0
   27.6011  -20.3763   -5.4611 C   0  0  0  0  0  0  0  0  0  0  0  0
   28.7336  -21.1336   -5.2629 C   0  0  0  0  0  0  0  0  0  0  0  0
   29.6136  -21.3654   -6.2922 C   0  0  0  0  0  0  0  0  0  0  0  0
   29.3332  -20.8187   -7.5323 C   0  0  0  0  0  0  0  0  0  0  0  0
   28.1850  -20.0513   -7.7316 C   0  0  0  0  0  0  0  0  0  0  0  0
   26.1295  -20.1456  -11.1793 C   0  0  0  0  0  0  0  0  0  0  0  0
   25.5454  -19.0597  -11.5565 O   0  0  0  0  0  0  0  0  0  0  0  0
   25.2831  -21.1627  -10.7456 N   0  0  0  0  0  0  0  0  0  0  0  0
   25.6292  -22.4470  -10.1653 C   0  0  0  0  0  0  0  0  0  0  0  0
   24.5399  -23.3977  -10.6046 C   0  0  0  0  0  0  0  0  0  0  0  0
   23.6299  -22.5473  -11.4442 C   0  0  0  0  0  0  0  0  0  0  0  0
   23.8082  -21.1778  -10.8226 C   0  0  1  0  0  0  0  0  0  0  0  0
   23.1755  -21.2021   -9.4985 C   0  0  0  0  0  0  0  0  0  0  0  0
   23.9341  -21.3141   -8.5028 O   0  0  0  0  0  0  0  0  0  0  0  0
   21.8131  -21.1117   -9.2636 O   0  0  0  0  0  0  0  0  0  0  0  0
  2  3  1  6
  2  1  1  0
  4  2  1  0
  5  4  1  0
  5  6  1  1
  7  8  2  0
  7  5  1  0
  9  7  1  0
 10  9  1  0
 10 11  1  1
 11 12  1  0
 12 13  2  0
 12 20  1  0
 13 14  1  0
 14 15  1  0
 15 16  2  0
 16 17  1  0
 18 17  2  0
 19 18  1  0
 20 19  2  0
 20 15  1  0
 21 10  1  0
 22 21  2  0
 23 27  1  0
 23 21  1  0
 24 23  1  0
 25 26  1  0
 25 24  1  0
 26 27  1  0
 27 28  1  1
 28 29  2  0
 28 30  1  0
M  END
$$$$
