LWP.pdb
     RDKit          3D

 30 32  0  0  1  0  0  0  0  0999 V2000
   19.8456  -18.6452  -21.3092 C   0  0  0  0  0  0  0  0  0  0  0  0
   19.7906  -18.4130  -19.8142 C   0  0  1  0  0  0  0  0  0  0  0  0
   19.1732  -19.5889  -19.1170 C   0  0  0  0  0  0  0  0  0  0  0  0
   21.1780  -18.0878  -19.3352 C   0  0  0  0  0  0  0  0  0  0  0  0
   21.2288  -17.8507  -17.8462 C   0  0  2  0  0  0  0  0  0  0  0  0
   20.4741  -16.7043  -17.4221 N   0  0  0  0  0  0  0  0  0  0  0  0
   22.5884  -17.8065  -17.3114 C   0  0  0  0  0  0  0  0  0  0  0  0
   23.4894  -17.1649  -17.9438 O   0  0  0  0  0  0  0  0  0  0  0  0
   22.9274  -18.4494  -16.1236 N   0  0  0  0  0  0  0  0  0  0  0  0
   24.3037  -18.4403  -15.5445 C   0  0  1  0  0  0  0  0  0  0  0  0
   24.0129  -18.3245  -14.0572 C   0  0  0  0  0  0  0  0  0  0  0  0
   25.1001  -18.6481  -13.1506 C   0  0  0  0  0  0  0  0  0  0  0  0
   26.4132  -18.2328  -13.2911 C   0  0  0  0  0  0  0  0  0  0  0  0
   27.1526  -18.7518  -12.2726 N   0  0  0  0  0  0  0  0  0  0  0  0
   26.3349  -19.4804  -11.4996 C   0  0  0  0  0  0  0  0  0  0  0  0
   26.5714  -20.2088  -10.3543 C   0  0  0  0  0  0  0  0  0  0  0  0
   25.5476  -20.8853   -9.7304 C   0  0  0  0  0  0  0  0  0  0  0  0
   24.2703  -20.8489  -10.2351 C   0  0  0  0  0  0  0  0  0  0  0  0
   24.0391  -20.1156  -11.3859 C   0  0  0  0  0  0  0  0  0  0  0  0
   25.0778  -19.4305  -12.0172 C   0  0  0  0  0  0  0  0  0  0  0  0
   25.0051  -19.6680  -15.9178 C   0  0  0  0  0  0  0  0  0  0  0  0
   24.2493  -20.6752  -16.1952 O   0  0  0  0  0  0  0  0  0  0  0  0
   26.3744  -19.8991  -16.0205 N   0  0  0  0  0  0  0  0  0  0  0  0
   27.4730  -19.0590  -15.5809 C   0  0  0  0  0  0  0  0  0  0  0  0
   28.5967  -19.3158  -16.5580 C   0  0  0  0  0  0  0  0  0  0  0  0
   28.0209  -20.3131  -17.5225 C   0  0  0  0  0  0  0  0  0  0  0  0
   27.0292  -21.0607  -16.6557 C   0  0  1  0  0  0  0  0  0  0  0  0
   27.7931  -21.8694  -15.6982 C   0  0  0  0  0  0  0  0  0  0  0  0
   27.6846  -21.5723  -14.4820 O   0  0  0  0  0  0  0  0  0  0  0  0
   28.6204  -22.9298  -16.0311 O   0  0  0  0  0  0  0  0  0  0  0  0
  2  3  1  1
  2  1  1  0
  4  2  1  0
  5  4  1  0
  5  6  1  6
  7  8  2  0
  7  5  1  0
  9  7  1  0
 10  9  1  0
 10 11  1  1
 11 12  1  0
 12 13  2  0
 12 20  1  0
 13 14  1  0
 14 15  1  0
 15 16  2  0
 16 17  1  0
 18 17  2  0
 19 18  1  0
 20 19  2  0
 20 15  1  0
 21 10  1  0
 22 21  2  0
 23 27  1  0
 23 21  1  0
 24 23  1  0
 25 26  1  0
 25 24  1  0
 26 27  1  0
 27 28  1  1
 28 29  2  0
 28 30  1  0
M  END
$$$$
