LWP.pdb
     RDKit          3D

 30 32  0  0  1  0  0  0  0  0999 V2000
   22.2824  -18.0326  -14.5286 C   0  0  0  0  0  0  0  0  0  0  0  0
   21.2327  -18.9978  -14.0199 C   0  0  1  0  0  0  0  0  0  0  0  0
   20.6642  -19.8063  -15.1481 C   0  0  0  0  0  0  0  0  0  0  0  0
   21.8461  -19.8314  -12.9294 C   0  0  0  0  0  0  0  0  0  0  0  0
   23.3403  -19.9692  -13.0860 C   0  0  2  0  0  0  0  0  0  0  0  0
   23.7335  -20.5697  -14.3303 N   0  0  0  0  0  0  0  0  0  0  0  0
   23.9828  -20.6401  -11.9575 C   0  0  0  0  0  0  0  0  0  0  0  0
   23.8750  -21.9039  -11.8366 O   0  0  0  0  0  0  0  0  0  0  0  0
   24.7132  -19.9324  -11.0064 N   0  0  0  0  0  0  0  0  0  0  0  0
   25.3238  -20.5630   -9.7983 C   0  0  1  0  0  0  0  0  0  0  0  0
   26.6529  -19.8316   -9.7059 C   0  0  0  0  0  0  0  0  0  0  0  0
   27.6116  -20.3362   -8.7388 C   0  0  0  0  0  0  0  0  0  0  0  0
   28.3981  -21.4637   -8.9013 C   0  0  0  0  0  0  0  0  0  0  0  0
   29.1504  -21.6433   -7.7809 N   0  0  0  0  0  0  0  0  0  0  0  0
   28.8538  -20.6568   -6.9231 C   0  0  0  0  0  0  0  0  0  0  0  0
   29.3253  -20.3745   -5.6597 C   0  0  0  0  0  0  0  0  0  0  0  0
   28.8570  -19.2819   -4.9652 C   0  0  0  0  0  0  0  0  0  0  0  0
   27.9114  -18.4512   -5.5157 C   0  0  0  0  0  0  0  0  0  0  0  0
   27.4417  -18.7401   -6.7850 C   0  0  0  0  0  0  0  0  0  0  0  0
   27.9172  -19.8479   -7.4877 C   0  0  0  0  0  0  0  0  0  0  0  0
   24.4531  -20.3595   -8.6412 C   0  0  0  0  0  0  0  0  0  0  0  0
   23.7427  -19.2837   -8.6649 O   0  0  0  0  0  0  0  0  0  0  0  0
   24.2805  -21.1679   -7.5207 N   0  0  0  0  0  0  0  0  0  0  0  0
   24.9347  -22.4219   -7.1957 C   0  0  0  0  0  0  0  0  0  0  0  0
   23.9181  -23.2188   -6.4115 C   0  0  0  0  0  0  0  0  0  0  0  0
   22.7129  -22.3237   -6.3608 C   0  0  0  0  0  0  0  0  0  0  0  0
   23.3366  -20.9444   -6.4068 C   0  0  1  0  0  0  0  0  0  0  0  0
   24.0193  -20.7197   -5.1270 C   0  0  0  0  0  0  0  0  0  0  0  0
   25.2432  -20.9998   -5.0733 O   0  0  0  0  0  0  0  0  0  0  0  0
   23.4205  -20.2251   -3.9796 O   0  0  0  0  0  0  0  0  0  0  0  0
  2  3  1  6
  2  1  1  0
  4  2  1  0
  5  4  1  0
  5  6  1  6
  7  8  2  0
  7  5  1  0
  9  7  1  0
 10  9  1  0
 10 11  1  1
 11 12  1  0
 12 13  2  0
 12 20  1  0
 13 14  1  0
 14 15  1  0
 15 16  2  0
 16 17  1  0
 18 17  2  0
 19 18  1  0
 20 19  2  0
 20 15  1  0
 21 10  1  0
 22 21  2  0
 23 27  1  0
 23 21  1  0
 24 23  1  0
 25 26  1  0
 25 24  1  0
 26 27  1  0
 27 28  1  1
 28 29  2  0
 28 30  1  0
M  END
$$$$
