LWP.pdb
     RDKit          3D

 30 32  0  0  1  0  0  0  0  0999 V2000
   27.9123  -16.9239  -17.5822 C   0  0  0  0  0  0  0  0  0  0  0  0
   28.7466  -18.0061  -16.9304 C   0  0  1  0  0  0  0  0  0  0  0  0
   29.9036  -17.4081  -16.1863 C   0  0  0  0  0  0  0  0  0  0  0  0
   27.8436  -18.8443  -16.0689 C   0  0  0  0  0  0  0  0  0  0  0  0
   28.5670  -20.0146  -15.4500 C   0  0  2  0  0  0  0  0  0  0  0  0
   29.1078  -20.9302  -16.4158 N   0  0  0  0  0  0  0  0  0  0  0  0
   27.7739  -20.7230  -14.4473 C   0  0  0  0  0  0  0  0  0  0  0  0
   26.8638  -21.5307  -14.8252 O   0  0  0  0  0  0  0  0  0  0  0  0
   27.9869  -20.5386  -13.0836 N   0  0  0  0  0  0  0  0  0  0  0  0
   27.0846  -21.0846  -12.0265 C   0  0  1  0  0  0  0  0  0  0  0  0
   27.8307  -20.7067  -10.7574 C   0  0  0  0  0  0  0  0  0  0  0  0
   27.0538  -20.6577   -9.5315 C   0  0  0  0  0  0  0  0  0  0  0  0
   25.6920  -20.8865   -9.4344 C   0  0  0  0  0  0  0  0  0  0  0  0
   25.3079  -20.7255   -8.1382 N   0  0  0  0  0  0  0  0  0  0  0  0
   26.3949  -20.4021   -7.4236 C   0  0  0  0  0  0  0  0  0  0  0  0
   26.5577  -20.1339   -6.0820 C   0  0  0  0  0  0  0  0  0  0  0  0
   27.7989  -19.8197   -5.5760 C   0  0  0  0  0  0  0  0  0  0  0  0
   28.8998  -19.7668   -6.3962 C   0  0  0  0  0  0  0  0  0  0  0  0
   28.7298  -20.0371   -7.7428 C   0  0  0  0  0  0  0  0  0  0  0  0
   27.4712  -20.3555   -8.2542 C   0  0  0  0  0  0  0  0  0  0  0  0
   25.7616  -20.4723  -12.1413 C   0  0  0  0  0  0  0  0  0  0  0  0
   25.7511  -19.1846  -12.2081 O   0  0  0  0  0  0  0  0  0  0  0  0
   24.5128  -21.0860  -12.1940 N   0  0  0  0  0  0  0  0  0  0  0  0
   24.1800  -22.4860  -12.0063 C   0  0  0  0  0  0  0  0  0  0  0  0
   22.9826  -22.7409  -12.8922 C   0  0  0  0  0  0  0  0  0  0  0  0
   22.7261  -21.4149  -13.5497 C   0  0  0  0  0  0  0  0  0  0  0  0
   23.2222  -20.4380  -12.5041 C   0  0  1  0  0  0  0  0  0  0  0  0
   22.2861  -20.4788  -11.3744 C   0  0  0  0  0  0  0  0  0  0  0  0
   22.4762  -21.3652  -10.5041 O   0  0  0  0  0  0  0  0  0  0  0  0
   21.2143  -19.6192  -11.1952 O   0  0  0  0  0  0  0  0  0  0  0  0
  2  3  1  1
  2  1  1  0
  4  2  1  0
  5  4  1  0
  5  6  1  6
  7  8  2  0
  7  5  1  0
  9  7  1  0
 10  9  1  0
 10 11  1  1
 11 12  1  0
 12 13  2  0
 12 20  1  0
 13 14  1  0
 14 15  1  0
 15 16  2  0
 16 17  1  0
 18 17  2  0
 19 18  1  0
 20 19  2  0
 20 15  1  0
 21 10  1  0
 22 21  2  0
 23 27  1  0
 23 21  1  0
 24 23  1  0
 25 26  1  0
 25 24  1  0
 26 27  1  0
 27 28  1  1
 28 29  2  0
 28 30  1  0
M  END
$$$$
