LWP.pdb
     RDKit          3D

 30 32  0  0  1  0  0  0  0  0999 V2000
   28.1499  -17.9795  -17.1338 C   0  0  0  0  0  0  0  0  0  0  0  0
   28.8965  -18.7262  -16.0489 C   0  0  1  0  0  0  0  0  0  0  0  0
   29.7057  -17.7790  -15.2136 C   0  0  0  0  0  0  0  0  0  0  0  0
   27.9018  -19.5295  -15.2580 C   0  0  0  0  0  0  0  0  0  0  0  0
   28.5613  -20.3662  -14.1899 C   0  0  2  0  0  0  0  0  0  0  0  0
   29.3479  -21.4483  -14.7134 N   0  0  0  0  0  0  0  0  0  0  0  0
   27.6304  -20.8446  -13.1698 C   0  0  0  0  0  0  0  0  0  0  0  0
   27.0977  -21.9949  -13.2983 O   0  0  0  0  0  0  0  0  0  0  0  0
   27.3082  -20.0740  -12.0556 N   0  0  0  0  0  0  0  0  0  0  0  0
   26.2867  -20.4745  -11.0428 C   0  0  1  0  0  0  0  0  0  0  0  0
   26.7003  -19.6423   -9.8403 C   0  0  0  0  0  0  0  0  0  0  0  0
   27.5940  -20.2723   -8.8846 C   0  0  0  0  0  0  0  0  0  0  0  0
   28.5363  -21.2410   -9.1845 C   0  0  0  0  0  0  0  0  0  0  0  0
   29.1655  -21.6161   -8.0369 N   0  0  0  0  0  0  0  0  0  0  0  0
   28.6403  -20.9064   -7.0283 C   0  0  0  0  0  0  0  0  0  0  0  0
   28.9150  -20.8994   -5.6781 C   0  0  0  0  0  0  0  0  0  0  0  0
   28.2264  -20.0642   -4.8275 C   0  0  0  0  0  0  0  0  0  0  0  0
   27.2523  -19.2214   -5.3054 C   0  0  0  0  0  0  0  0  0  0  0  0
   26.9810  -19.2331   -6.6624 C   0  0  0  0  0  0  0  0  0  0  0  0
   27.6798  -20.0802   -7.5234 C   0  0  0  0  0  0  0  0  0  0  0  0
   24.9474  -20.1682  -11.5438 C   0  0  0  0  0  0  0  0  0  0  0  0
   24.8241  -19.0284  -12.1341 O   0  0  0  0  0  0  0  0  0  0  0  0
   23.7888  -20.9376  -11.4770 N   0  0  0  0  0  0  0  0  0  0  0  0
   23.5932  -22.2328  -10.8523 C   0  0  0  0  0  0  0  0  0  0  0  0
   22.5426  -22.9306  -11.6848 C   0  0  0  0  0  0  0  0  0  0  0  0
   22.2194  -21.9417  -12.7683 C   0  0  0  0  0  0  0  0  0  0  0  0
   22.4794  -20.6175  -12.0808 C   0  0  1  0  0  0  0  0  0  0  0  0
   21.4284  -20.4221  -11.0750 C   0  0  0  0  0  0  0  0  0  0  0  0
   21.6568  -20.8519   -9.9164 O   0  0  0  0  0  0  0  0  0  0  0  0
   20.2101  -19.8033  -11.3042 O   0  0  0  0  0  0  0  0  0  0  0  0
  2  3  1  1
  2  1  1  0
  4  2  1  0
  5  4  1  0
  5  6  1  6
  7  8  2  0
  7  5  1  0
  9  7  1  0
 10  9  1  0
 10 11  1  1
 11 12  1  0
 12 13  2  0
 12 20  1  0
 13 14  1  0
 14 15  1  0
 15 16  2  0
 16 17  1  0
 18 17  2  0
 19 18  1  0
 20 19  2  0
 20 15  1  0
 21 10  1  0
 22 21  2  0
 23 27  1  0
 23 21  1  0
 24 23  1  0
 25 26  1  0
 25 24  1  0
 26 27  1  0
 27 28  1  1
 28 29  2  0
 28 30  1  0
M  END
$$$$
