LWP.pdb
     RDKit          3D

 30 32  0  0  1  0  0  0  0  0999 V2000
   27.1823  -37.7949  -15.6194 C   0  0  0  0  0  0  0  0  0  0  0  0
   26.4353  -36.5252  -15.9686 C   0  0  1  0  0  0  0  0  0  0  0  0
   25.0521  -36.8403  -16.4556 C   0  0  0  0  0  0  0  0  0  0  0  0
   26.4609  -35.6173  -14.7705 C   0  0  0  0  0  0  0  0  0  0  0  0
   25.8265  -34.2781  -15.0533 C   0  0  2  0  0  0  0  0  0  0  0  0
   26.5226  -33.5130  -16.0503 N   0  0  0  0  0  0  0  0  0  0  0  0
   25.5954  -33.4796  -13.8511 C   0  0  0  0  0  0  0  0  0  0  0  0
   26.4051  -32.5406  -13.5579 O   0  0  0  0  0  0  0  0  0  0  0  0
   24.5090  -33.7182  -13.0133 N   0  0  0  0  0  0  0  0  0  0  0  0
   24.3012  -33.0165  -11.7117 C   0  0  1  0  0  0  0  0  0  0  0  0
   22.8239  -32.6664  -11.7814 C   0  0  0  0  0  0  0  0  0  0  0  0
   22.4712  -31.4571  -12.5041 C   0  0  0  0  0  0  0  0  0  0  0  0
   22.4217  -31.3309  -13.8818 C   0  0  0  0  0  0  0  0  0  0  0  0
   22.0839  -30.0501  -14.1965 N   0  0  0  0  0  0  0  0  0  0  0  0
   21.9212  -29.3736  -13.0508 C   0  0  0  0  0  0  0  0  0  0  0  0
   21.5820  -28.0605  -12.8073 C   0  0  0  0  0  0  0  0  0  0  0  0
   21.4754  -27.5923  -11.5171 C   0  0  0  0  0  0  0  0  0  0  0  0
   21.7044  -28.4223  -10.4466 C   0  0  0  0  0  0  0  0  0  0  0  0
   22.0449  -29.7400  -10.6976 C   0  0  0  0  0  0  0  0  0  0  0  0
   22.1525  -30.2132  -12.0059 C   0  0  0  0  0  0  0  0  0  0  0  0
   24.6474  -33.9105  -10.6075 C   0  0  0  0  0  0  0  0  0  0  0  0
   24.4904  -35.1685  -10.8432 O   0  0  0  0  0  0  0  0  0  0  0  0
   25.1278  -33.5929   -9.3397 N   0  0  0  0  0  0  0  0  0  0  0  0
   25.3084  -32.2848   -8.7380 C   0  0  0  0  0  0  0  0  0  0  0  0
   26.4955  -32.4235   -7.8134 C   0  0  0  0  0  0  0  0  0  0  0  0
   26.9212  -33.8546   -7.9782 C   0  0  0  0  0  0  0  0  0  0  0  0
   25.6138  -34.5404   -8.3161 C   0  0  1  0  0  0  0  0  0  0  0  0
   24.7822  -34.5380   -7.1067 C   0  0  0  0  0  0  0  0  0  0  0  0
   25.0979  -35.3402   -6.1923 O   0  0  0  0  0  0  0  0  0  0  0  0
   23.6814  -33.7231   -6.8972 O   0  0  0  0  0  0  0  0  0  0  0  0
  2  3  1  1
  2  1  1  0
  4  2  1  0
  5  4  1  0
  5  6  1  6
  7  8  2  0
  7  5  1  0
  9  7  1  0
 10  9  1  0
 10 11  1  1
 11 12  1  0
 12 13  2  0
 12 20  1  0
 13 14  1  0
 14 15  1  0
 15 16  2  0
 16 17  1  0
 18 17  2  0
 19 18  1  0
 20 19  2  0
 20 15  1  0
 21 10  1  0
 22 21  2  0
 23 27  1  0
 23 21  1  0
 24 23  1  0
 25 26  1  0
 25 24  1  0
 26 27  1  0
 27 28  1  1
 28 29  2  0
 28 30  1  0
M  END
$$$$
