LWP.pdb
     RDKit          3D

 30 32  0  0  1  0  0  0  0  0999 V2000
   21.3655  -19.1134  -14.8140 C   0  0  0  0  0  0  0  0  0  0  0  0
   22.7973  -19.3176  -14.3664 C   0  0  1  0  0  0  0  0  0  0  0  0
   23.5556  -18.0242  -14.4076 C   0  0  0  0  0  0  0  0  0  0  0  0
   22.7804  -19.9642  -13.0093 C   0  0  0  0  0  0  0  0  0  0  0  0
   24.1608  -20.3584  -12.5456 C   0  0  2  0  0  0  0  0  0  0  0  0
   24.8759  -21.1653  -13.4949 N   0  0  0  0  0  0  0  0  0  0  0  0
   24.1739  -20.9770  -11.2214 C   0  0  0  0  0  0  0  0  0  0  0  0
   23.9147  -22.2193  -11.1081 O   0  0  0  0  0  0  0  0  0  0  0  0
   24.4635  -20.2421  -10.0746 N   0  0  0  0  0  0  0  0  0  0  0  0
   24.3803  -20.8023   -8.6929 C   0  0  1  0  0  0  0  0  0  0  0  0
   25.2315  -19.8177   -7.9081 C   0  0  0  0  0  0  0  0  0  0  0  0
   26.6289  -20.1653   -7.7202 C   0  0  0  0  0  0  0  0  0  0  0  0
   27.4226  -20.8265   -8.6418 C   0  0  0  0  0  0  0  0  0  0  0  0
   28.6631  -21.0046   -8.1098 N   0  0  0  0  0  0  0  0  0  0  0  0
   28.6643  -20.4715   -6.8800 C   0  0  0  0  0  0  0  0  0  0  0  0
   29.6537  -20.3836   -5.9251 C   0  0  0  0  0  0  0  0  0  0  0  0
   29.4067  -19.7770   -4.7142 C   0  0  0  0  0  0  0  0  0  0  0  0
   28.1709  -19.2471   -4.4322 C   0  0  0  0  0  0  0  0  0  0  0  0
   27.1813  -19.3385   -5.3954 C   0  0  0  0  0  0  0  0  0  0  0  0
   27.4331  -19.9537   -6.6222 C   0  0  0  0  0  0  0  0  0  0  0  0
   22.9834  -20.8527   -8.2633 C   0  0  0  0  0  0  0  0  0  0  0  0
   22.2244  -19.9242   -8.7371 O   0  0  0  0  0  0  0  0  0  0  0  0
   22.3581  -21.7661   -7.4186 N   0  0  0  0  0  0  0  0  0  0  0  0
   22.9406  -22.8821   -6.6966 C   0  0  0  0  0  0  0  0  0  0  0  0
   21.8541  -23.9297   -6.6232 C   0  0  0  0  0  0  0  0  0  0  0  0
   20.6963  -23.3063   -7.3493 C   0  0  0  0  0  0  0  0  0  0  0  0
   20.9180  -21.8295   -7.0968 C   0  0  1  0  0  0  0  0  0  0  0  0
   20.6466  -21.5732   -5.6773 C   0  0  0  0  0  0  0  0  0  0  0  0
   19.4415  -21.5037   -5.3275 O   0  0  0  0  0  0  0  0  0  0  0  0
   21.6124  -21.4028   -4.6986 O   0  0  0  0  0  0  0  0  0  0  0  0
  2  3  1  1
  2  1  1  0
  4  2  1  0
  5  4  1  0
  5  6  1  6
  7  8  2  0
  7  5  1  0
  9  7  1  0
 10  9  1  0
 10 11  1  1
 11 12  1  0
 12 13  2  0
 12 20  1  0
 13 14  1  0
 14 15  1  0
 15 16  2  0
 16 17  1  0
 18 17  2  0
 19 18  1  0
 20 19  2  0
 20 15  1  0
 21 10  1  0
 22 21  2  0
 23 27  1  0
 23 21  1  0
 24 23  1  0
 25 26  1  0
 25 24  1  0
 26 27  1  0
 27 28  1  1
 28 29  2  0
 28 30  1  0
M  END
$$$$
