LWP.pdb
     RDKit          3D

 30 32  0  0  1  0  0  0  0  0999 V2000
   20.2634  -19.0722  -14.1398 C   0  0  0  0  0  0  0  0  0  0  0  0
   20.9021  -20.1290  -13.2637 C   0  0  1  0  0  0  0  0  0  0  0  0
   20.8650  -21.4691  -13.9364 C   0  0  0  0  0  0  0  0  0  0  0  0
   22.2889  -19.6714  -12.9063 C   0  0  0  0  0  0  0  0  0  0  0  0
   23.0683  -20.7303  -12.1666 C   0  0  2  0  0  0  0  0  0  0  0  0
   22.2939  -21.4256  -11.1765 N   0  0  0  0  0  0  0  0  0  0  0  0
   24.3209  -20.2374  -11.5969 C   0  0  0  0  0  0  0  0  0  0  0  0
   25.0168  -19.3937  -12.2506 O   0  0  0  0  0  0  0  0  0  0  0  0
   24.7765  -20.6667  -10.3531 N   0  0  0  0  0  0  0  0  0  0  0  0
   26.0864  -20.2538   -9.7669 C   0  0  1  0  0  0  0  0  0  0  0  0
   25.7352  -20.1101   -8.2952 C   0  0  0  0  0  0  0  0  0  0  0  0
   26.7109  -19.4429   -7.4516 C   0  0  0  0  0  0  0  0  0  0  0  0
   27.2055  -18.1656   -7.6520 C   0  0  0  0  0  0  0  0  0  0  0  0
   28.1200  -17.8884   -6.6823 N   0  0  0  0  0  0  0  0  0  0  0  0
   28.2091  -18.9598   -5.8817 C   0  0  0  0  0  0  0  0  0  0  0  0
   28.9769  -19.2012   -4.7634 C   0  0  0  0  0  0  0  0  0  0  0  0
   28.8893  -20.4044   -4.1000 C   0  0  0  0  0  0  0  0  0  0  0  0
   28.0362  -21.3883   -4.5377 C   0  0  0  0  0  0  0  0  0  0  0  0
   27.2678  -21.1398   -5.6616 C   0  0  0  0  0  0  0  0  0  0  0  0
   27.3576  -19.9198   -6.3329 C   0  0  0  0  0  0  0  0  0  0  0  0
   27.0943  -21.2778  -10.0389 C   0  0  0  0  0  0  0  0  0  0  0  0
   26.6450  -22.4811  -10.1518 O   0  0  0  0  0  0  0  0  0  0  0  0
   28.4701  -21.1335  -10.1981 N   0  0  0  0  0  0  0  0  0  0  0  0
   29.2810  -19.9387  -10.0540 C   0  0  0  0  0  0  0  0  0  0  0  0
   30.4188  -20.0994  -11.0354 C   0  0  0  0  0  0  0  0  0  0  0  0
   30.1474  -21.4211  -11.6957 C   0  0  0  0  0  0  0  0  0  0  0  0
   29.4276  -22.1830  -10.6025 C   0  0  1  0  0  0  0  0  0  0  0  0
   30.4058  -22.4877   -9.5516 C   0  0  0  0  0  0  0  0  0  0  0  0
   31.2363  -23.4007   -9.7887 O   0  0  0  0  0  0  0  0  0  0  0  0
   30.4832  -21.8491   -8.3244 O   0  0  0  0  0  0  0  0  0  0  0  0
  2  3  1  6
  2  1  1  0
  4  2  1  0
  5  4  1  0
  5  6  1  1
  7  8  2  0
  7  5  1  0
  9  7  1  0
 10  9  1  0
 10 11  1  1
 11 12  1  0
 12 13  2  0
 12 20  1  0
 13 14  1  0
 14 15  1  0
 15 16  2  0
 16 17  1  0
 18 17  2  0
 19 18  1  0
 20 19  2  0
 20 15  1  0
 21 10  1  0
 22 21  2  0
 23 27  1  0
 23 21  1  0
 24 23  1  0
 25 26  1  0
 25 24  1  0
 26 27  1  0
 27 28  1  1
 28 29  2  0
 28 30  1  0
M  END
$$$$
