LWP.pdb
     RDKit          3D

 30 32  0  0  1  0  0  0  0  0999 V2000
   26.1818  -15.0121  -15.3823 C   0  0  0  0  0  0  0  0  0  0  0  0
   27.2324  -16.0680  -15.6528 C   0  0  1  0  0  0  0  0  0  0  0  0
   28.5982  -15.4519  -15.7229 C   0  0  0  0  0  0  0  0  0  0  0  0
   27.1067  -17.1388  -14.6049 C   0  0  0  0  0  0  0  0  0  0  0  0
   27.9954  -18.3245  -14.8884 C   0  0  2  0  0  0  0  0  0  0  0  0
   28.5466  -18.3238  -16.2149 N   0  0  0  0  0  0  0  0  0  0  0  0
   27.3646  -19.6080  -14.5868 C   0  0  0  0  0  0  0  0  0  0  0  0
   26.8583  -20.2946  -15.5332 O   0  0  0  0  0  0  0  0  0  0  0  0
   27.3019  -20.1037  -13.2870 N   0  0  0  0  0  0  0  0  0  0  0  0
   26.5895  -21.3631  -12.9179 C   0  0  1  0  0  0  0  0  0  0  0  0
   27.2099  -21.6853  -11.5684 C   0  0  0  0  0  0  0  0  0  0  0  0
   26.6921  -20.9620  -10.4205 C   0  0  0  0  0  0  0  0  0  0  0  0
   25.4837  -20.2882  -10.3746 C   0  0  0  0  0  0  0  0  0  0  0  0
   25.3477  -19.7069   -9.1510 N   0  0  0  0  0  0  0  0  0  0  0  0
   26.4402  -20.0005   -8.4319 C   0  0  0  0  0  0  0  0  0  0  0  0
   26.8034  -19.6635   -7.1462 C   0  0  0  0  0  0  0  0  0  0  0  0
   28.0008  -20.0943   -6.6208 C   0  0  0  0  0  0  0  0  0  0  0  0
   28.8577  -20.8679   -7.3655 C   0  0  0  0  0  0  0  0  0  0  0  0
   28.4873  -21.2030   -8.6562 C   0  0  0  0  0  0  0  0  0  0  0  0
   27.2734  -20.7656   -9.1874 C   0  0  0  0  0  0  0  0  0  0  0  0
   25.1487  -21.1186  -12.8651 C   0  0  0  0  0  0  0  0  0  0  0  0
   24.8019  -19.9152  -12.5584 O   0  0  0  0  0  0  0  0  0  0  0  0
   24.0999  -22.0026  -13.1050 N   0  0  0  0  0  0  0  0  0  0  0  0
   24.1189  -23.4537  -13.1144 C   0  0  0  0  0  0  0  0  0  0  0  0
   23.0802  -23.8667  -14.1313 C   0  0  0  0  0  0  0  0  0  0  0  0
   22.5392  -22.5649  -14.6499 C   0  0  0  0  0  0  0  0  0  0  0  0
   22.7092  -21.6493  -13.4555 C   0  0  1  0  0  0  0  0  0  0  0  0
   21.7464  -22.0687  -12.4302 C   0  0  0  0  0  0  0  0  0  0  0  0
   20.5548  -21.6973  -12.5767 O   0  0  0  0  0  0  0  0  0  0  0  0
   22.0493  -22.8387  -11.3189 O   0  0  0  0  0  0  0  0  0  0  0  0
  2  3  1  1
  2  1  1  0
  4  2  1  0
  5  4  1  0
  5  6  1  6
  7  8  2  0
  7  5  1  0
  9  7  1  0
 10  9  1  0
 10 11  1  1
 11 12  1  0
 12 13  2  0
 12 20  1  0
 13 14  1  0
 14 15  1  0
 15 16  2  0
 16 17  1  0
 18 17  2  0
 19 18  1  0
 20 19  2  0
 20 15  1  0
 21 10  1  0
 22 21  2  0
 23 27  1  0
 23 21  1  0
 24 23  1  0
 25 26  1  0
 25 24  1  0
 26 27  1  0
 27 28  1  1
 28 29  2  0
 28 30  1  0
M  END
$$$$
