LWP.pdb
     RDKit          3D

 30 32  0  0  1  0  0  0  0  0999 V2000
   22.3377  -17.4115    0.6920 C   0  0  0  0  0  0  0  0  0  0  0  0
   20.9698  -18.0243    0.4794 C   0  0  1  0  0  0  0  0  0  0  0  0
   21.0915  -19.4444    0.0121 C   0  0  0  0  0  0  0  0  0  0  0  0
   20.1814  -17.8729    1.7506 C   0  0  0  0  0  0  0  0  0  0  0  0
   18.7630  -18.3663    1.6069 C   0  0  2  0  0  0  0  0  0  0  0  0
   18.1274  -17.9386    0.3918 N   0  0  0  0  0  0  0  0  0  0  0  0
   17.9245  -18.0685    2.7665 C   0  0  0  0  0  0  0  0  0  0  0  0
   17.5452  -16.8699    2.9735 O   0  0  0  0  0  0  0  0  0  0  0  0
   17.5268  -19.0639    3.6553 N   0  0  0  0  0  0  0  0  0  0  0  0
   16.6838  -18.8050    4.8604 C   0  0  1  0  0  0  0  0  0  0  0  0
   15.8406  -20.0678    4.9252 C   0  0  0  0  0  0  0  0  0  0  0  0
   14.7025  -20.1416    4.0263 C   0  0  0  0  0  0  0  0  0  0  0  0
   13.6628  -19.2294    3.9708 C   0  0  0  0  0  0  0  0  0  0  0  0
   12.7654  -19.6382    3.0321 N   0  0  0  0  0  0  0  0  0  0  0  0
   13.2182  -20.7822    2.5001 C   0  0  0  0  0  0  0  0  0  0  0  0
   12.6980  -21.6020    1.5224 C   0  0  0  0  0  0  0  0  0  0  0  0
   13.3626  -22.7456    1.1405 C   0  0  0  0  0  0  0  0  0  0  0  0
   14.5564  -23.0935    1.7248 C   0  0  0  0  0  0  0  0  0  0  0  0
   15.0736  -22.2661    2.7062 C   0  0  0  0  0  0  0  0  0  0  0  0
   14.3989  -21.1073    3.0922 C   0  0  0  0  0  0  0  0  0  0  0  0
   17.5402  -18.6030    6.0284 C   0  0  0  0  0  0  0  0  0  0  0  0
   18.7541  -19.0197    5.9040 O   0  0  0  0  0  0  0  0  0  0  0  0
   17.2289  -18.0190    7.2536 N   0  0  0  0  0  0  0  0  0  0  0  0
   15.9748  -17.4317    7.6875 C   0  0  0  0  0  0  0  0  0  0  0  0
   16.3543  -16.3232    8.6419 C   0  0  0  0  0  0  0  0  0  0  0  0
   17.8558  -16.3613    8.6669 C   0  0  0  0  0  0  0  0  0  0  0  0
   18.1433  -17.8235    8.3970 C   0  0  1  0  0  0  0  0  0  0  0  0
   17.7334  -18.5859    9.5823 C   0  0  0  0  0  0  0  0  0  0  0  0
   16.6343  -19.1923    9.5220 O   0  0  0  0  0  0  0  0  0  0  0  0
   18.4617  -18.6874   10.7566 O   0  0  0  0  0  0  0  0  0  0  0  0
  2  3  1  1
  2  1  1  0
  4  2  1  0
  5  4  1  0
  5  6  1  6
  7  8  2  0
  7  5  1  0
  9  7  1  0
 10  9  1  0
 10 11  1  1
 11 12  1  0
 12 13  2  0
 12 20  1  0
 13 14  1  0
 14 15  1  0
 15 16  2  0
 16 17  1  0
 18 17  2  0
 19 18  1  0
 20 19  2  0
 20 15  1  0
 21 10  1  0
 22 21  2  0
 23 27  1  0
 23 21  1  0
 24 23  1  0
 25 26  1  0
 25 24  1  0
 26 27  1  0
 27 28  1  1
 28 29  2  0
 28 30  1  0
M  END
$$$$
