LWP.pdb
     RDKit          3D

 30 32  0  0  1  0  0  0  0  0999 V2000
   27.0061  -17.9271  -16.6285 C   0  0  0  0  0  0  0  0  0  0  0  0
   27.6980  -18.9141  -15.7125 C   0  0  1  0  0  0  0  0  0  0  0  0
   29.1580  -18.5923  -15.5917 C   0  0  0  0  0  0  0  0  0  0  0  0
   26.9719  -18.9263  -14.3962 C   0  0  0  0  0  0  0  0  0  0  0  0
   27.7222  -19.6928  -13.3354 C   0  0  2  0  0  0  0  0  0  0  0  0
   27.8276  -21.0988  -13.6104 N   0  0  0  0  0  0  0  0  0  0  0  0
   27.2143  -19.4627  -11.9843 C   0  0  0  0  0  0  0  0  0  0  0  0
   26.8502  -18.2902  -11.6434 O   0  0  0  0  0  0  0  0  0  0  0  0
   27.1168  -20.4951  -11.0548 N   0  0  0  0  0  0  0  0  0  0  0  0
   26.4397  -20.3525   -9.7316 C   0  0  1  0  0  0  0  0  0  0  0  0
   25.3605  -21.4190   -9.8198 C   0  0  0  0  0  0  0  0  0  0  0  0
   24.1043  -21.0294  -10.4355 C   0  0  0  0  0  0  0  0  0  0  0  0
   23.8522  -21.0007  -11.7964 C   0  0  0  0  0  0  0  0  0  0  0  0
   22.5811  -20.5582  -12.0014 N   0  0  0  0  0  0  0  0  0  0  0  0
   22.0331  -20.3100  -10.8035 C   0  0  0  0  0  0  0  0  0  0  0  0
   20.7835  -19.8498  -10.4500 C   0  0  0  0  0  0  0  0  0  0  0  0
   20.4510  -19.6724   -9.1258 C   0  0  0  0  0  0  0  0  0  0  0  0
   21.3561  -19.9499   -8.1303 C   0  0  0  0  0  0  0  0  0  0  0  0
   22.6097  -20.4117   -8.4917 C   0  0  0  0  0  0  0  0  0  0  0  0
   22.9453  -20.5910   -9.8342 C   0  0  0  0  0  0  0  0  0  0  0  0
   27.4055  -20.5735   -8.6559 C   0  0  0  0  0  0  0  0  0  0  0  0
   28.3757  -21.3743   -8.9385 O   0  0  0  0  0  0  0  0  0  0  0  0
   27.4260  -20.0357   -7.3717 N   0  0  0  0  0  0  0  0  0  0  0  0
   26.5413  -19.0447   -6.7875 C   0  0  0  0  0  0  0  0  0  0  0  0
   27.3887  -18.2756   -5.8006 C   0  0  0  0  0  0  0  0  0  0  0  0
   28.7466  -18.9075   -5.9150 C   0  0  0  0  0  0  0  0  0  0  0  0
   28.4053  -20.3304   -6.3060 C   0  0  1  0  0  0  0  0  0  0  0  0
   27.7916  -20.9790   -5.1411 C   0  0  0  0  0  0  0  0  0  0  0  0
   28.5418  -21.2340   -4.1656 O   0  0  0  0  0  0  0  0  0  0  0  0
   26.4554  -21.3298   -5.0353 O   0  0  0  0  0  0  0  0  0  0  0  0
  2  3  1  1
  2  1  1  0
  4  2  1  0
  5  4  1  0
  5  6  1  6
  7  8  2  0
  7  5  1  0
  9  7  1  0
 10  9  1  0
 10 11  1  6
 11 12  1  0
 12 13  2  0
 12 20  1  0
 13 14  1  0
 14 15  1  0
 15 16  2  0
 16 17  1  0
 18 17  2  0
 19 18  1  0
 20 19  2  0
 20 15  1  0
 21 10  1  0
 22 21  2  0
 23 27  1  0
 23 21  1  0
 24 23  1  0
 25 26  1  0
 25 24  1  0
 26 27  1  0
 27 28  1  1
 28 29  2  0
 28 30  1  0
M  END
$$$$
