LWP.pdb
     RDKit          3D

 30 32  0  0  1  0  0  0  0  0999 V2000
   26.5796  -15.8069  -18.7628 C   0  0  0  0  0  0  0  0  0  0  0  0
   27.1235  -17.0543  -18.0994 C   0  0  1  0  0  0  0  0  0  0  0  0
   28.4893  -17.3824  -18.6255 C   0  0  0  0  0  0  0  0  0  0  0  0
   27.0828  -16.8533  -16.6100 C   0  0  0  0  0  0  0  0  0  0  0  0
   27.6528  -18.0302  -15.8577 C   0  0  2  0  0  0  0  0  0  0  0  0
   27.6723  -19.2453  -16.6236 N   0  0  0  0  0  0  0  0  0  0  0  0
   27.0259  -18.2452  -14.5550 C   0  0  0  0  0  0  0  0  0  0  0  0
   26.8170  -17.2490  -13.7886 O   0  0  0  0  0  0  0  0  0  0  0  0
   26.6486  -19.5153  -14.1266 N   0  0  0  0  0  0  0  0  0  0  0  0
   26.0597  -19.7915  -12.7825 C   0  0  1  0  0  0  0  0  0  0  0  0
   24.9978  -20.8262  -13.1165 C   0  0  0  0  0  0  0  0  0  0  0  0
   23.8792  -20.9365  -12.1970 C   0  0  0  0  0  0  0  0  0  0  0  0
   22.5446  -20.7932  -12.5355 C   0  0  0  0  0  0  0  0  0  0  0  0
   21.7864  -20.9328  -11.4133 N   0  0  0  0  0  0  0  0  0  0  0  0
   22.6134  -21.1597  -10.3830 C   0  0  0  0  0  0  0  0  0  0  0  0
   22.3658  -21.3686   -9.0438 C   0  0  0  0  0  0  0  0  0  0  0  0
   23.4034  -21.5836   -8.1649 C   0  0  0  0  0  0  0  0  0  0  0  0
   24.7054  -21.5945   -8.6031 C   0  0  0  0  0  0  0  0  0  0  0  0
   24.9476  -21.3840   -9.9493 C   0  0  0  0  0  0  0  0  0  0  0  0
   23.8949  -21.1662  -10.8390 C   0  0  0  0  0  0  0  0  0  0  0  0
   27.0999  -20.2797  -11.8780 C   0  0  0  0  0  0  0  0  0  0  0  0
   28.0943  -20.8723  -12.4460 O   0  0  0  0  0  0  0  0  0  0  0  0
   27.1685  -20.1892  -10.4902 N   0  0  0  0  0  0  0  0  0  0  0  0
   26.1880  -19.6513   -9.5653 C   0  0  0  0  0  0  0  0  0  0  0  0
   26.9854  -19.0745   -8.4185 C   0  0  0  0  0  0  0  0  0  0  0  0
   28.4149  -19.3295   -8.8032 C   0  0  0  0  0  0  0  0  0  0  0  0
   28.3026  -20.5911   -9.6335 C   0  0  1  0  0  0  0  0  0  0  0  0
   27.9603  -21.6937   -8.7271 C   0  0  0  0  0  0  0  0  0  0  0  0
   26.7643  -22.0797   -8.7201 O   0  0  0  0  0  0  0  0  0  0  0  0
   28.8503  -22.3380   -7.8831 O   0  0  0  0  0  0  0  0  0  0  0  0
  2  3  1  6
  2  1  1  0
  4  2  1  0
  5  4  1  0
  5  6  1  6
  7  8  2  0
  7  5  1  0
  9  7  1  0
 10  9  1  0
 10 11  1  6
 11 12  1  0
 12 13  2  0
 12 20  1  0
 13 14  1  0
 14 15  1  0
 15 16  2  0
 16 17  1  0
 18 17  2  0
 19 18  1  0
 20 19  2  0
 20 15  1  0
 21 10  1  0
 22 21  2  0
 23 27  1  0
 23 21  1  0
 24 23  1  0
 25 26  1  0
 25 24  1  0
 26 27  1  0
 27 28  1  1
 28 29  2  0
 28 30  1  0
M  END
$$$$
