HAF.pdb
     RDKit          3D

 27 28  0  0  1  0  0  0  0  0999 V2000
   27.1880  -21.0392  -20.2921 N   0  0  0  0  0  0  0  0  0  0  0  0
   26.7584  -19.8928  -19.5124 C   0  0  1  0  0  0  0  0  0  0  0  0
   25.3957  -19.4836  -20.0588 C   0  0  0  0  0  0  0  0  0  0  0  0
   25.5313  -18.5938  -21.2321 C   0  0  0  0  0  0  0  0  0  0  0  0
   24.9943  -18.7945  -22.4977 C   0  0  0  0  0  0  0  0  0  0  0  0
   25.3647  -17.7355  -23.2629 N   0  0  0  0  0  0  0  0  0  0  0  0
   26.0945  -16.9120  -22.5224 C   0  0  0  0  0  0  0  0  0  0  0  0
   26.2071  -17.4200  -21.2782 N   0  0  0  0  0  0  0  0  0  0  0  0
   26.6095  -20.2798  -18.1023 C   0  0  0  0  0  0  0  0  0  0  0  0
   26.3358  -21.5074  -17.8739 O   0  0  0  0  0  0  0  0  0  0  0  0
   27.1971  -18.7967  -14.7543 C   0  0  0  0  0  0  0  0  0  0  0  0
   26.5835  -19.8436  -15.6926 C   0  0  2  0  0  0  0  0  0  0  0  0
   26.7542  -19.3682  -17.0222 N   0  0  0  0  0  0  0  0  0  0  0  0
   25.1659  -20.0999  -15.3317 C   0  0  0  0  0  0  0  0  0  0  0  0
   24.2658  -19.4741  -15.9494 O   0  0  0  0  0  0  0  0  0  0  0  0
   24.7774  -21.0121  -14.3287 N   0  0  0  0  0  0  0  0  0  0  0  0
   23.3833  -21.1380  -13.8732 C   0  0  1  0  0  0  0  0  0  0  0  0
   23.4038  -22.0622  -12.7004 C   0  0  0  0  0  0  0  0  0  0  0  0
   24.1667  -21.5876  -11.5465 C   0  0  0  0  0  0  0  0  0  0  0  0
   25.4872  -21.9614  -11.4124 C   0  0  0  0  0  0  0  0  0  0  0  0
   26.2654  -21.5421  -10.3382 C   0  0  0  0  0  0  0  0  0  0  0  0
   25.7097  -20.7370   -9.3865 C   0  0  0  0  0  0  0  0  0  0  0  0
   24.3978  -20.3492   -9.4941 C   0  0  0  0  0  0  0  0  0  0  0  0
   23.6407  -20.7737  -10.5650 C   0  0  0  0  0  0  0  0  0  0  0  0
   22.8085  -19.8068  -13.5837 C   0  0  0  0  0  0  0  0  0  0  0  0
   21.4361  -19.6168  -13.5297 O   0  0  0  0  0  0  0  0  0  0  0  0
   23.5268  -18.7760  -13.3710 O   0  0  0  0  0  0  0  0  0  0  0  0
  2  1  1  6
  2  9  1  0
  2  3  1  0
  4  3  1  0
  5  4  2  0
  6  5  1  0
  7  6  1  0
  7  8  2  0
  8  4  1  0
  9 13  1  0
  9 10  2  0
 12 11  1  1
 13 12  1  0
 14 15  2  0
 14 12  1  0
 16 14  1  0
 17 16  1  0
 17 18  1  1
 19 20  2  0
 19 18  1  0
 21 20  1  0
 22 21  2  0
 23 22  1  0
 23 24  2  0
 24 19  1  0
 25 26  1  0
 25 17  1  0
 27 25  2  0
M  END
$$$$
