HAF.pdb
     RDKit          3D

 27 28  0  0  1  0  0  0  0  0999 V2000
   20.3361  -13.3902  -18.0005 N   0  0  0  0  0  0  0  0  0  0  0  0
   19.2195  -12.6773  -17.4073 C   0  0  1  0  0  0  0  0  0  0  0  0
   19.0433  -13.2408  -16.0022 C   0  0  0  0  0  0  0  0  0  0  0  0
   18.4615  -14.5999  -16.0364 C   0  0  0  0  0  0  0  0  0  0  0  0
   19.1148  -15.7942  -15.7580 C   0  0  0  0  0  0  0  0  0  0  0  0
   18.2070  -16.7926  -15.9103 N   0  0  0  0  0  0  0  0  0  0  0  0
   17.0456  -16.2593  -16.2650 C   0  0  0  0  0  0  0  0  0  0  0  0
   17.1818  -14.9201  -16.3471 N   0  0  0  0  0  0  0  0  0  0  0  0
   19.5403  -11.2462  -17.3097 C   0  0  0  0  0  0  0  0  0  0  0  0
   20.7609  -10.9507  -17.0711 O   0  0  0  0  0  0  0  0  0  0  0  0
   18.0064   -8.0347  -18.2305 C   0  0  0  0  0  0  0  0  0  0  0  0
   18.9972   -8.8600  -17.3996 C   0  0  2  0  0  0  0  0  0  0  0  0
   18.5742  -10.2163  -17.4659 N   0  0  0  0  0  0  0  0  0  0  0  0
   19.0821   -8.3321  -16.0141 C   0  0  0  0  0  0  0  0  0  0  0  0
   18.3083   -8.8057  -15.1420 O   0  0  0  0  0  0  0  0  0  0  0  0
   19.9889   -7.3240  -15.6262 N   0  0  0  0  0  0  0  0  0  0  0  0
   20.0440   -6.7977  -14.2526 C   0  0  1  0  0  0  0  0  0  0  0  0
   21.4045   -7.1226  -13.7298 C   0  0  0  0  0  0  0  0  0  0  0  0
   22.5174   -6.6319  -14.5419 C   0  0  0  0  0  0  0  0  0  0  0  0
   22.8795   -5.3041  -14.4561 C   0  0  0  0  0  0  0  0  0  0  0  0
   23.9292   -4.7778  -15.2018 C   0  0  0  0  0  0  0  0  0  0  0  0
   24.6242   -5.5960  -16.0447 C   0  0  0  0  0  0  0  0  0  0  0  0
   24.2861   -6.9217  -16.1505 C   0  0  0  0  0  0  0  0  0  0  0  0
   23.2430   -7.4271  -15.4042 C   0  0  0  0  0  0  0  0  0  0  0  0
   19.7180   -5.3555  -14.2347 C   0  0  0  0  0  0  0  0  0  0  0  0
   19.5807   -4.6387  -15.4135 O   0  0  0  0  0  0  0  0  0  0  0  0
   19.5477   -4.6997  -13.1555 O   0  0  0  0  0  0  0  0  0  0  0  0
  2  1  1  1
  2  9  1  0
  2  3  1  0
  4  3  1  0
  5  4  2  0
  6  5  1  0
  7  6  1  0
  7  8  2  0
  8  4  1  0
  9 13  1  0
  9 10  2  0
 12 11  1  6
 13 12  1  0
 14 15  2  0
 14 12  1  0
 16 14  1  0
 17 16  1  0
 17 18  1  6
 19 20  2  0
 19 18  1  0
 21 20  1  0
 22 21  2  0
 23 22  1  0
 23 24  2  0
 24 19  1  0
 25 26  1  0
 25 17  1  0
 27 25  2  0
M  END
$$$$
