HAF.pdb
     RDKit          3D

 27 28  0  0  1  0  0  0  0  0999 V2000
   25.5289  -19.0076  -15.7430 N   0  0  0  0  0  0  0  0  0  0  0  0
   26.4034  -18.6582  -14.6386 C   0  0  1  0  0  0  0  0  0  0  0  0
   26.7317  -17.1784  -14.7974 C   0  0  0  0  0  0  0  0  0  0  0  0
   27.6272  -16.9465  -15.9511 C   0  0  0  0  0  0  0  0  0  0  0  0
   28.8511  -17.5581  -16.1933 C   0  0  0  0  0  0  0  0  0  0  0  0
   29.3287  -17.0513  -17.3592 N   0  0  0  0  0  0  0  0  0  0  0  0
   28.4558  -16.1692  -17.8272 C   0  0  0  0  0  0  0  0  0  0  0  0
   27.4094  -16.0917  -16.9800 N   0  0  0  0  0  0  0  0  0  0  0  0
   25.6967  -18.8553  -13.3649 C   0  0  0  0  0  0  0  0  0  0  0  0
   24.6657  -18.1262  -13.1663 O   0  0  0  0  0  0  0  0  0  0  0  0
   23.9807  -20.4243  -11.5130 C   0  0  0  0  0  0  0  0  0  0  0  0
   25.3731  -19.8825  -11.1655 C   0  0  2  0  0  0  0  0  0  0  0  0
   26.1059  -19.7953  -12.3814 N   0  0  0  0  0  0  0  0  0  0  0  0
   26.0242  -20.7374  -10.1404 C   0  0  0  0  0  0  0  0  0  0  0  0
   26.4720  -21.8600  -10.4903 O   0  0  0  0  0  0  0  0  0  0  0  0
   26.1658  -20.3526   -8.7910 N   0  0  0  0  0  0  0  0  0  0  0  0
   26.8164  -21.2125   -7.7890 C   0  0  1  0  0  0  0  0  0  0  0  0
   28.1326  -20.5789   -7.4789 C   0  0  0  0  0  0  0  0  0  0  0  0
   28.2698  -20.0619   -6.1178 C   0  0  0  0  0  0  0  0  0  0  0  0
   27.9129  -18.7563   -5.8542 C   0  0  0  0  0  0  0  0  0  0  0  0
   28.0194  -18.2069   -4.5807 C   0  0  0  0  0  0  0  0  0  0  0  0
   28.4906  -18.9792   -3.5587 C   0  0  0  0  0  0  0  0  0  0  0  0
   28.8533  -20.2819   -3.7917 C   0  0  0  0  0  0  0  0  0  0  0  0
   28.7414  -20.8107   -5.0599 C   0  0  0  0  0  0  0  0  0  0  0  0
   25.9405  -21.3937   -6.6116 C   0  0  0  0  0  0  0  0  0  0  0  0
   26.2446  -22.3251   -5.6305 O   0  0  0  0  0  0  0  0  0  0  0  0
   24.8752  -20.7176   -6.4331 O   0  0  0  0  0  0  0  0  0  0  0  0
  2  1  1  6
  2  9  1  0
  2  3  1  0
  4  3  1  0
  5  4  2  0
  6  5  1  0
  7  6  1  0
  7  8  2  0
  8  4  1  0
  9 13  1  0
  9 10  2  0
 12 11  1  6
 13 12  1  0
 14 15  2  0
 14 12  1  0
 16 14  1  0
 17 16  1  0
 17 18  1  1
 19 20  2  0
 19 18  1  0
 21 20  1  0
 22 21  2  0
 23 22  1  0
 23 24  2  0
 24 19  1  0
 25 26  1  0
 25 17  1  0
 27 25  2  0
M  END
$$$$
