HAF.pdb
     RDKit          3D

 27 28  0  0  1  0  0  0  0  0999 V2000
   26.2279  -21.2332  -18.5854 N   0  0  0  0  0  0  0  0  0  0  0  0
   25.4035  -20.3316  -17.8017 C   0  0  1  0  0  0  0  0  0  0  0  0
   24.0179  -20.9624  -17.7313 C   0  0  0  0  0  0  0  0  0  0  0  0
   23.2161  -20.6356  -18.9301 C   0  0  0  0  0  0  0  0  0  0  0  0
   22.8904  -21.4918  -19.9747 C   0  0  0  0  0  0  0  0  0  0  0  0
   22.1451  -20.7799  -20.8590 N   0  0  0  0  0  0  0  0  0  0  0  0
   22.0076  -19.5436  -20.3990 C   0  0  0  0  0  0  0  0  0  0  0  0
   22.6555  -19.4365  -19.2211 N   0  0  0  0  0  0  0  0  0  0  0  0
   25.9461  -20.2206  -16.4402 C   0  0  0  0  0  0  0  0  0  0  0  0
   26.5200  -21.2610  -15.9688 O   0  0  0  0  0  0  0  0  0  0  0  0
   26.5970  -17.5179  -13.9818 C   0  0  0  0  0  0  0  0  0  0  0  0
   26.5269  -18.9911  -14.4035 C   0  0  2  0  0  0  0  0  0  0  0  0
   25.8576  -19.0382  -15.6576 N   0  0  0  0  0  0  0  0  0  0  0  0
   25.8693  -19.8043  -13.3492 C   0  0  0  0  0  0  0  0  0  0  0  0
   24.6483  -20.0805  -13.4771 O   0  0  0  0  0  0  0  0  0  0  0  0
   26.5468  -20.2837  -12.2089 N   0  0  0  0  0  0  0  0  0  0  0  0
   25.8768  -21.0838  -11.1708 C   0  0  1  0  0  0  0  0  0  0  0  0
   26.8929  -21.3282  -10.1042 C   0  0  0  0  0  0  0  0  0  0  0  0
   26.7360  -20.5179   -8.8968 C   0  0  0  0  0  0  0  0  0  0  0  0
   26.8561  -21.1194   -7.6618 C   0  0  0  0  0  0  0  0  0  0  0  0
   26.7184  -20.4027   -6.4775 C   0  0  0  0  0  0  0  0  0  0  0  0
   26.4568  -19.0644   -6.5348 C   0  0  0  0  0  0  0  0  0  0  0  0
   26.3322  -18.4392   -7.7500 C   0  0  0  0  0  0  0  0  0  0  0  0
   26.4715  -19.1644   -8.9141 C   0  0  0  0  0  0  0  0  0  0  0  0
   24.6543  -20.4007  -10.6958 C   0  0  0  0  0  0  0  0  0  0  0  0
   23.5967  -21.1188  -10.1588 O   0  0  0  0  0  0  0  0  0  0  0  0
   24.5040  -19.1366  -10.7514 O   0  0  0  0  0  0  0  0  0  0  0  0
  2  1  1  6
  2  9  1  0
  2  3  1  0
  4  3  1  0
  5  4  2  0
  6  5  1  0
  7  6  1  0
  7  8  2  0
  8  4  1  0
  9 13  1  0
  9 10  2  0
 12 11  1  1
 13 12  1  0
 14 15  2  0
 14 12  1  0
 16 14  1  0
 17 16  1  0
 17 18  1  1
 19 20  2  0
 19 18  1  0
 21 20  1  0
 22 21  2  0
 23 22  1  0
 23 24  2  0
 24 19  1  0
 25 26  1  0
 25 17  1  0
 27 25  2  0
M  END
$$$$
