HAF.pdb
     RDKit          3D

 27 28  0  0  1  0  0  0  0  0999 V2000
   25.6652  -18.1001  -15.6348 N   0  0  0  0  0  0  0  0  0  0  0  0
   26.6446  -18.5852  -14.6797 C   0  0  1  0  0  0  0  0  0  0  0  0
   27.6086  -17.4326  -14.4246 C   0  0  0  0  0  0  0  0  0  0  0  0
   28.4257  -17.1393  -15.6216 C   0  0  0  0  0  0  0  0  0  0  0  0
   29.4854  -17.8917  -16.1131 C   0  0  0  0  0  0  0  0  0  0  0  0
   29.9448  -17.2594  -17.2237 N   0  0  0  0  0  0  0  0  0  0  0  0
   29.2165  -16.1690  -17.4227 C   0  0  0  0  0  0  0  0  0  0  0  0
   28.2831  -16.0789  -16.4535 N   0  0  0  0  0  0  0  0  0  0  0  0
   25.9762  -18.9351  -13.4183 C   0  0  0  0  0  0  0  0  0  0  0  0
   25.2125  -18.0441  -12.9115 O   0  0  0  0  0  0  0  0  0  0  0  0
   24.6010  -21.6608  -11.7120 C   0  0  0  0  0  0  0  0  0  0  0  0
   25.4752  -20.4134  -11.5312 C   0  0  2  0  0  0  0  0  0  0  0  0
   26.1439  -20.1860  -12.7657 N   0  0  0  0  0  0  0  0  0  0  0  0
   26.3974  -20.5856  -10.3799 C   0  0  0  0  0  0  0  0  0  0  0  0
   27.4246  -21.2960  -10.5337 O   0  0  0  0  0  0  0  0  0  0  0  0
   26.1787  -19.9912   -9.1198 N   0  0  0  0  0  0  0  0  0  0  0  0
   26.9455  -20.3734   -7.9229 C   0  0  1  0  0  0  0  0  0  0  0  0
   27.3795  -19.1001   -7.2747 C   0  0  0  0  0  0  0  0  0  0  0  0
   28.0483  -19.2549   -5.9833 C   0  0  0  0  0  0  0  0  0  0  0  0
   29.4051  -19.4988   -5.9526 C   0  0  0  0  0  0  0  0  0  0  0  0
   30.0981  -19.6544   -4.7565 C   0  0  0  0  0  0  0  0  0  0  0  0
   29.4191  -19.5638   -3.5760 C   0  0  0  0  0  0  0  0  0  0  0  0
   28.0684  -19.3218   -3.5761 C   0  0  0  0  0  0  0  0  0  0  0  0
   27.3970  -19.1701   -4.7705 C   0  0  0  0  0  0  0  0  0  0  0  0
   26.1405  -21.2530   -7.0484 C   0  0  0  0  0  0  0  0  0  0  0  0
   26.7470  -22.1071   -6.1400 O   0  0  0  0  0  0  0  0  0  0  0  0
   24.8668  -21.2773   -7.0779 O   0  0  0  0  0  0  0  0  0  0  0  0
  2  1  1  6
  2  9  1  0
  2  3  1  0
  4  3  1  0
  5  4  2  0
  6  5  1  0
  7  6  1  0
  7  8  2  0
  8  4  1  0
  9 13  1  0
  9 10  2  0
 12 11  1  6
 13 12  1  0
 14 15  2  0
 14 12  1  0
 16 14  1  0
 17 16  1  0
 17 18  1  1
 19 20  2  0
 19 18  1  0
 21 20  1  0
 22 21  2  0
 23 22  1  0
 23 24  2  0
 24 19  1  0
 25 26  1  0
 25 17  1  0
 27 25  2  0
M  END
$$$$
