HAF.pdb
     RDKit          3D

 27 28  0  0  1  0  0  0  0  0999 V2000
   25.1270  -16.6542  -21.5754 N   0  0  0  0  0  0  0  0  0  0  0  0
   25.1640  -16.3013  -20.1680 C   0  0  1  0  0  0  0  0  0  0  0  0
   23.7216  -16.3290  -19.6765 C   0  0  0  0  0  0  0  0  0  0  0  0
   22.9767  -15.1332  -20.1259 C   0  0  0  0  0  0  0  0  0  0  0  0
   22.8954  -13.9080  -19.4756 C   0  0  0  0  0  0  0  0  0  0  0  0
   22.1117  -13.1015  -20.2369 N   0  0  0  0  0  0  0  0  0  0  0  0
   21.7199  -13.7789  -21.3078 C   0  0  0  0  0  0  0  0  0  0  0  0
   22.2388  -15.0226  -21.2572 N   0  0  0  0  0  0  0  0  0  0  0  0
   25.9395  -17.3050  -19.4253 C   0  0  0  0  0  0  0  0  0  0  0  0
   25.8139  -18.5187  -19.8062 O   0  0  0  0  0  0  0  0  0  0  0  0
   28.5174  -17.4189  -16.7534 C   0  0  0  0  0  0  0  0  0  0  0  0
   27.4022  -18.0401  -17.6039 C   0  0  2  0  0  0  0  0  0  0  0  0
   26.7941  -16.9836  -18.3368 N   0  0  0  0  0  0  0  0  0  0  0  0
   26.4505  -18.7921  -16.7469 C   0  0  0  0  0  0  0  0  0  0  0  0
   26.8636  -19.8179  -16.1466 O   0  0  0  0  0  0  0  0  0  0  0  0
   25.1035  -18.4127  -16.5720 N   0  0  0  0  0  0  0  0  0  0  0  0
   24.1756  -19.1679  -15.7145 C   0  0  1  0  0  0  0  0  0  0  0  0
   24.2054  -18.5078  -14.3753 C   0  0  0  0  0  0  0  0  0  0  0  0
   23.8840  -17.0810  -14.3769 C   0  0  0  0  0  0  0  0  0  0  0  0
   24.9077  -16.1602  -14.3020 C   0  0  0  0  0  0  0  0  0  0  0  0
   24.6666  -14.7901  -14.3002 C   0  0  0  0  0  0  0  0  0  0  0  0
   23.3804  -14.3395  -14.3747 C   0  0  0  0  0  0  0  0  0  0  0  0
   22.3417  -15.2330  -14.4502 C   0  0  0  0  0  0  0  0  0  0  0  0
   22.5982  -16.5874  -14.4508 C   0  0  0  0  0  0  0  0  0  0  0  0
   22.8319  -19.2284  -16.3288 C   0  0  0  0  0  0  0  0  0  0  0  0
   21.8559  -20.0785  -15.8316 O   0  0  0  0  0  0  0  0  0  0  0  0
   22.4987  -18.5166  -17.3318 O   0  0  0  0  0  0  0  0  0  0  0  0
  2  1  1  6
  2  9  1  0
  2  3  1  0
  4  3  1  0
  5  4  2  0
  6  5  1  0
  7  6  1  0
  7  8  2  0
  8  4  1  0
  9 13  1  0
  9 10  2  0
 12 11  1  1
 13 12  1  0
 14 15  2  0
 14 12  1  0
 16 14  1  0
 17 16  1  0
 17 18  1  1
 19 20  2  0
 19 18  1  0
 21 20  1  0
 22 21  2  0
 23 22  1  0
 23 24  2  0
 24 19  1  0
 25 26  1  0
 25 17  1  0
 27 25  2  0
M  END
$$$$
