HAF.pdb
     RDKit          3D

 27 28  0  0  1  0  0  0  0  0999 V2000
   33.9380   -9.1965  -17.8416 N   0  0  0  0  0  0  0  0  0  0  0  0
   32.8781   -8.3123  -17.3928 C   0  0  1  0  0  0  0  0  0  0  0  0
   31.8527   -9.1898  -16.6846 C   0  0  0  0  0  0  0  0  0  0  0  0
   30.9543   -9.8557  -17.6522 C   0  0  0  0  0  0  0  0  0  0  0  0
   30.9224   -9.6658  -19.0282 C   0  0  0  0  0  0  0  0  0  0  0  0
   29.9498  -10.4748  -19.5220 N   0  0  0  0  0  0  0  0  0  0  0  0
   29.3984  -11.1385  -18.5148 C   0  0  0  0  0  0  0  0  0  0  0  0
   29.9994  -10.7732  -17.3641 N   0  0  0  0  0  0  0  0  0  0  0  0
   33.4174   -7.3397  -16.4317 C   0  0  0  0  0  0  0  0  0  0  0  0
   34.4847   -7.6789  -15.8155 O   0  0  0  0  0  0  0  0  0  0  0  0
   34.8416   -4.8575  -15.9237 C   0  0  0  0  0  0  0  0  0  0  0  0
   33.4728   -5.1665  -15.3040 C   0  0  2  0  0  0  0  0  0  0  0  0
   32.8141   -6.0796  -16.1731 N   0  0  0  0  0  0  0  0  0  0  0  0
   32.7107   -3.9132  -15.0722 C   0  0  0  0  0  0  0  0  0  0  0  0
   31.8955   -3.5339  -15.9527 O   0  0  0  0  0  0  0  0  0  0  0  0
   32.8553   -3.1250  -13.9117 N   0  0  0  0  0  0  0  0  0  0  0  0
   32.0436   -1.9213  -13.6687 C   0  0  1  0  0  0  0  0  0  0  0  0
   31.9515   -1.7659  -12.1864 C   0  0  0  0  0  0  0  0  0  0  0  0
   33.1899   -1.3565  -11.5248 C   0  0  0  0  0  0  0  0  0  0  0  0
   33.3280   -0.0512  -11.1023 C   0  0  0  0  0  0  0  0  0  0  0  0
   34.4806    0.3987  -10.4665 C   0  0  0  0  0  0  0  0  0  0  0  0
   35.5078   -0.4743  -10.2524 C   0  0  0  0  0  0  0  0  0  0  0  0
   35.3983   -1.7793  -10.6621 C   0  0  0  0  0  0  0  0  0  0  0  0
   34.2490   -2.2086  -11.2908 C   0  0  0  0  0  0  0  0  0  0  0  0
   32.6249   -0.7529  -14.3640 C   0  0  0  0  0  0  0  0  0  0  0  0
   31.8937    0.4122  -14.5383 O   0  0  0  0  0  0  0  0  0  0  0  0
   33.8089   -0.7485  -14.8349 O   0  0  0  0  0  0  0  0  0  0  0  0
  2  1  1  1
  2  9  1  0
  2  3  1  0
  4  3  1  0
  5  4  2  0
  6  5  1  0
  7  6  1  0
  7  8  2  0
  8  4  1  0
  9 13  1  0
  9 10  2  0
 12 11  1  6
 13 12  1  0
 14 15  2  0
 14 12  1  0
 16 14  1  0
 17 16  1  0
 17 18  1  1
 19 20  2  0
 19 18  1  0
 21 20  1  0
 22 21  2  0
 23 22  1  0
 23 24  2  0
 24 19  1  0
 25 26  1  0
 25 17  1  0
 27 25  2  0
M  END
$$$$
