HAF.pdb
     RDKit          3D

 27 28  0  0  1  0  0  0  0  0999 V2000
   35.2132  -29.5496  -17.3183 N   0  0  0  0  0  0  0  0  0  0  0  0
   35.4164  -28.1172  -17.4350 C   0  0  1  0  0  0  0  0  0  0  0  0
   35.4476  -27.8043  -18.9263 C   0  0  0  0  0  0  0  0  0  0  0  0
   35.7034  -26.3684  -19.1698 C   0  0  0  0  0  0  0  0  0  0  0  0
   34.7646  -25.3974  -19.4957 C   0  0  0  0  0  0  0  0  0  0  0  0
   35.4326  -24.2225  -19.6284 N   0  0  0  0  0  0  0  0  0  0  0  0
   36.7208  -24.4390  -19.3992 C   0  0  0  0  0  0  0  0  0  0  0  0
   36.9055  -25.7448  -19.1173 N   0  0  0  0  0  0  0  0  0  0  0  0
   34.2863  -27.4045  -16.8223 C   0  0  0  0  0  0  0  0  0  0  0  0
   33.1164  -27.7902  -17.1640 O   0  0  0  0  0  0  0  0  0  0  0  0
   33.7391  -24.7675  -14.2529 C   0  0  0  0  0  0  0  0  0  0  0  0
   33.2845  -25.6852  -15.3948 C   0  0  2  0  0  0  0  0  0  0  0  0
   34.4440  -26.3389  -15.8960 N   0  0  0  0  0  0  0  0  0  0  0  0
   32.5488  -24.9094  -16.4255 C   0  0  0  0  0  0  0  0  0  0  0  0
   33.2073  -24.3480  -17.3391 O   0  0  0  0  0  0  0  0  0  0  0  0
   31.1454  -24.7703  -16.4314 N   0  0  0  0  0  0  0  0  0  0  0  0
   30.4403  -23.9210  -17.4053 C   0  0  1  0  0  0  0  0  0  0  0  0
   29.7240  -24.8467  -18.3326 C   0  0  0  0  0  0  0  0  0  0  0  0
   28.8038  -24.2019  -19.2687 C   0  0  0  0  0  0  0  0  0  0  0  0
   29.2690  -23.8048  -20.5045 C   0  0  0  0  0  0  0  0  0  0  0  0
   28.4432  -23.1875  -21.4383 C   0  0  0  0  0  0  0  0  0  0  0  0
   27.1330  -22.9661  -21.1264 C   0  0  0  0  0  0  0  0  0  0  0  0
   26.6424  -23.3506  -19.9039 C   0  0  0  0  0  0  0  0  0  0  0  0
   27.4746  -23.9612  -18.9901 C   0  0  0  0  0  0  0  0  0  0  0  0
   29.5583  -22.9573  -16.7127 C   0  0  0  0  0  0  0  0  0  0  0  0
   29.3461  -21.6864  -17.2246 O   0  0  0  0  0  0  0  0  0  0  0  0
   28.9535  -23.2330  -15.6255 O   0  0  0  0  0  0  0  0  0  0  0  0
  2  1  1  6
  2  9  1  0
  2  3  1  0
  4  3  1  0
  5  4  2  0
  6  5  1  0
  7  6  1  0
  7  8  2  0
  8  4  1  0
  9 13  1  0
  9 10  2  0
 12 11  1  1
 13 12  1  0
 14 15  2  0
 14 12  1  0
 16 14  1  0
 17 16  1  0
 17 18  1  6
 19 20  2  0
 19 18  1  0
 21 20  1  0
 22 21  2  0
 23 22  1  0
 23 24  2  0
 24 19  1  0
 25 26  1  0
 25 17  1  0
 27 25  2  0
M  END
$$$$
