HAF.pdb
     RDKit          3D

 27 28  0  0  1  0  0  0  0  0999 V2000
   25.6090  -19.1276  -15.1785 N   0  0  0  0  0  0  0  0  0  0  0  0
   26.4446  -19.1380  -13.9917 C   0  0  1  0  0  0  0  0  0  0  0  0
   26.6468  -17.6813  -13.5917 C   0  0  0  0  0  0  0  0  0  0  0  0
   27.4815  -16.9630  -14.5787 C   0  0  0  0  0  0  0  0  0  0  0  0
   28.6632  -17.4116  -15.1557 C   0  0  0  0  0  0  0  0  0  0  0  0
   29.0914  -16.4384  -16.0004 N   0  0  0  0  0  0  0  0  0  0  0  0
   28.2290  -15.4316  -15.9595 C   0  0  0  0  0  0  0  0  0  0  0  0
   27.2383  -15.7342  -15.0959 N   0  0  0  0  0  0  0  0  0  0  0  0
   25.7502  -19.8391  -12.9023 C   0  0  0  0  0  0  0  0  0  0  0  0
   24.4814  -19.6933  -12.8482 O   0  0  0  0  0  0  0  0  0  0  0  0
   26.3292  -22.7473  -10.8285 C   0  0  0  0  0  0  0  0  0  0  0  0
   25.6421  -21.3877  -11.0083 C   0  0  2  0  0  0  0  0  0  0  0  0
   26.4174  -20.6448  -11.9411 N   0  0  0  0  0  0  0  0  0  0  0  0
   25.4797  -20.7083   -9.6977 C   0  0  0  0  0  0  0  0  0  0  0  0
   24.3298  -20.3285   -9.3560 O   0  0  0  0  0  0  0  0  0  0  0  0
   26.5528  -20.4672   -8.8149 N   0  0  0  0  0  0  0  0  0  0  0  0
   26.3803  -19.7537   -7.5390 C   0  0  1  0  0  0  0  0  0  0  0  0
   26.5887  -20.7634   -6.4587 C   0  0  0  0  0  0  0  0  0  0  0  0
   27.8210  -20.6049   -5.6872 C   0  0  0  0  0  0  0  0  0  0  0  0
   29.0248  -20.9553   -6.2614 C   0  0  0  0  0  0  0  0  0  0  0  0
   30.2305  -20.8270   -5.5797 C   0  0  0  0  0  0  0  0  0  0  0  0
   30.2268  -20.3403   -4.3045 C   0  0  0  0  0  0  0  0  0  0  0  0
   29.0438  -19.9836   -3.7077 C   0  0  0  0  0  0  0  0  0  0  0  0
   27.8578  -20.1172   -4.3976 C   0  0  0  0  0  0  0  0  0  0  0  0
   27.2924  -18.5923   -7.4650 C   0  0  0  0  0  0  0  0  0  0  0  0
   28.3846  -18.4856   -8.3124 O   0  0  0  0  0  0  0  0  0  0  0  0
   27.1313  -17.6398   -6.6340 O   0  0  0  0  0  0  0  0  0  0  0  0
  2  1  1  6
  2  9  1  0
  2  3  1  0
  4  3  1  0
  5  4  2  0
  6  5  1  0
  7  6  1  0
  7  8  2  0
  8  4  1  0
  9 13  1  0
  9 10  2  0
 12 11  1  1
 13 12  1  0
 14 15  2  0
 14 12  1  0
 16 14  1  0
 17 16  1  0
 17 18  1  1
 19 20  2  0
 19 18  1  0
 21 20  1  0
 22 21  2  0
 23 22  1  0
 23 24  2  0
 24 19  1  0
 25 26  1  0
 25 17  1  0
 27 25  2  0
M  END
$$$$
