HAF.pdb
     RDKit          3D

 27 28  0  0  1  0  0  0  0  0999 V2000
   26.0809  -20.2339  -16.8316 N   0  0  0  0  0  0  0  0  0  0  0  0
   25.8881  -19.9051  -15.4311 C   0  0  1  0  0  0  0  0  0  0  0  0
   25.2169  -18.5373  -15.3957 C   0  0  0  0  0  0  0  0  0  0  0  0
   26.0833  -17.4970  -15.9906 C   0  0  0  0  0  0  0  0  0  0  0  0
   27.2888  -17.6939  -16.6528 C   0  0  0  0  0  0  0  0  0  0  0  0
   27.7420  -16.4712  -17.0323 N   0  0  0  0  0  0  0  0  0  0  0  0
   26.8720  -15.5536  -16.6323 C   0  0  0  0  0  0  0  0  0  0  0  0
   25.8516  -16.1617  -15.9938 N   0  0  0  0  0  0  0  0  0  0  0  0
   24.9931  -20.8911  -14.8088 C   0  0  0  0  0  0  0  0  0  0  0  0
   24.7254  -21.9333  -15.4988 O   0  0  0  0  0  0  0  0  0  0  0  0
   25.6604  -22.5324  -12.5533 C   0  0  0  0  0  0  0  0  0  0  0  0
   24.2799  -21.8765  -12.6833 C   0  0  2  0  0  0  0  0  0  0  0  0
   24.4348  -20.7311  -13.5122 N   0  0  0  0  0  0  0  0  0  0  0  0
   23.7213  -21.5673  -11.3425 C   0  0  0  0  0  0  0  0  0  0  0  0
   23.6154  -22.5010  -10.5055 O   0  0  0  0  0  0  0  0  0  0  0  0
   23.3027  -20.2761  -10.9595 N   0  0  0  0  0  0  0  0  0  0  0  0
   22.0171  -19.7029  -11.3902 C   0  0  1  0  0  0  0  0  0  0  0  0
   22.3152  -18.8337  -12.5674 C   0  0  0  0  0  0  0  0  0  0  0  0
   21.1495  -18.2082  -13.1909 C   0  0  0  0  0  0  0  0  0  0  0  0
   20.7749  -18.5968  -14.4598 C   0  0  0  0  0  0  0  0  0  0  0  0
   19.6757  -18.0402  -15.1056 C   0  0  0  0  0  0  0  0  0  0  0  0
   18.9434  -17.0807  -14.4683 C   0  0  0  0  0  0  0  0  0  0  0  0
   19.2930  -16.6744  -13.2051 C   0  0  0  0  0  0  0  0  0  0  0  0
   20.3852  -17.2364  -12.5794 C   0  0  0  0  0  0  0  0  0  0  0  0
   21.0352  -20.7743  -11.6631 C   0  0  0  0  0  0  0  0  0  0  0  0
   19.8710  -20.8840  -10.9181 O   0  0  0  0  0  0  0  0  0  0  0  0
   21.1984  -21.6427  -12.5811 O   0  0  0  0  0  0  0  0  0  0  0  0
  2  1  1  6
  2  9  1  0
  2  3  1  0
  4  3  1  0
  5  4  2  0
  6  5  1  0
  7  6  1  0
  7  8  2  0
  8  4  1  0
  9 13  1  0
  9 10  2  0
 12 11  1  1
 13 12  1  0
 14 15  2  0
 14 12  1  0
 16 14  1  0
 17 16  1  0
 17 18  1  6
 19 20  2  0
 19 18  1  0
 21 20  1  0
 22 21  2  0
 23 22  1  0
 23 24  2  0
 24 19  1  0
 25 26  1  0
 25 17  1  0
 27 25  2  0
M  END
$$$$
