HAF.pdb
     RDKit          3D

 27 28  0  0  1  0  0  0  0  0999 V2000
   20.0252  -14.1763  -18.2974 N   0  0  0  0  0  0  0  0  0  0  0  0
   19.9618  -15.1392  -17.2132 C   0  0  1  0  0  0  0  0  0  0  0  0
   21.3107  -15.0845  -16.5059 C   0  0  0  0  0  0  0  0  0  0  0  0
   22.3765  -15.6921  -17.3314 C   0  0  0  0  0  0  0  0  0  0  0  0
   22.7865  -17.0196  -17.3191 C   0  0  0  0  0  0  0  0  0  0  0  0
   23.7868  -17.1387  -18.2300 N   0  0  0  0  0  0  0  0  0  0  0  0
   23.9968  -15.9532  -18.7864 C   0  0  0  0  0  0  0  0  0  0  0  0
   23.1442  -15.0566  -18.2498 N   0  0  0  0  0  0  0  0  0  0  0  0
   18.9100  -14.7486  -16.2637 C   0  0  0  0  0  0  0  0  0  0  0  0
   18.9310  -13.5371  -15.8565 O   0  0  0  0  0  0  0  0  0  0  0  0
   15.8713  -14.4056  -15.8528 C   0  0  0  0  0  0  0  0  0  0  0  0
   16.8768  -15.1383  -14.9555 C   0  0  2  0  0  0  0  0  0  0  0  0
   17.9059  -15.6400  -15.7994 N   0  0  0  0  0  0  0  0  0  0  0  0
   16.1952  -16.1915  -14.1607 C   0  0  0  0  0  0  0  0  0  0  0  0
   16.1828  -17.3679  -14.6071 O   0  0  0  0  0  0  0  0  0  0  0  0
   15.5595  -15.9382  -12.9275 N   0  0  0  0  0  0  0  0  0  0  0  0
   14.9501  -17.0069  -12.1192 C   0  0  1  0  0  0  0  0  0  0  0  0
   14.6661  -16.4132  -10.7788 C   0  0  0  0  0  0  0  0  0  0  0  0
   13.4882  -15.5485  -10.7174 C   0  0  0  0  0  0  0  0  0  0  0  0
   13.6169  -14.2120  -11.0315 C   0  0  0  0  0  0  0  0  0  0  0  0
   12.5343  -13.3392  -10.9928 C   0  0  0  0  0  0  0  0  0  0  0  0
   11.3066  -13.8154  -10.6338 C   0  0  0  0  0  0  0  0  0  0  0  0
   11.1489  -15.1410  -10.3160 C   0  0  0  0  0  0  0  0  0  0  0  0
   12.2323  -15.9923  -10.3595 C   0  0  0  0  0  0  0  0  0  0  0  0
   13.7596  -17.5595  -12.8001 C   0  0  0  0  0  0  0  0  0  0  0  0
   13.2643  -18.8120  -12.4708 O   0  0  0  0  0  0  0  0  0  0  0  0
   13.1311  -16.9292  -13.7120 O   0  0  0  0  0  0  0  0  0  0  0  0
  2  1  1  6
  2  9  1  0
  2  3  1  0
  4  3  1  0
  5  4  2  0
  6  5  1  0
  7  6  1  0
  7  8  2  0
  8  4  1  0
  9 13  1  0
  9 10  2  0
 12 11  1  6
 13 12  1  0
 14 15  2  0
 14 12  1  0
 16 14  1  0
 17 16  1  0
 17 18  1  1
 19 20  2  0
 19 18  1  0
 21 20  1  0
 22 21  2  0
 23 22  1  0
 23 24  2  0
 24 19  1  0
 25 26  1  0
 25 17  1  0
 27 25  2  0
M  END
$$$$
