WWN.pdb
     RDKit          3D

 37 40  0  0  1  0  0  0  0  0999 V2000
   26.0320  -21.6799  -14.4325 N   0  0  0  0  0  0  0  0  0  0  0  0
   25.5927  -20.6335  -13.5439 C   0  0  1  0  0  0  0  0  0  0  0  0
   24.2473  -20.0724  -13.9539 C   0  0  0  0  0  0  0  0  0  0  0  0
   24.2683  -19.4486  -15.2779 C   0  0  0  0  0  0  0  0  0  0  0  0
   24.0260  -20.0595  -16.4906 C   0  0  0  0  0  0  0  0  0  0  0  0
   24.1399  -19.1610  -17.4856 N   0  0  0  0  0  0  0  0  0  0  0  0
   24.4541  -17.9537  -16.9747 C   0  0  0  0  0  0  0  0  0  0  0  0
   24.6838  -16.7110  -17.5122 C   0  0  0  0  0  0  0  0  0  0  0  0
   24.9954  -15.6136  -16.7390 C   0  0  0  0  0  0  0  0  0  0  0  0
   25.0758  -15.7917  -15.3604 C   0  0  0  0  0  0  0  0  0  0  0  0
   24.8477  -17.0330  -14.8081 C   0  0  0  0  0  0  0  0  0  0  0  0
   24.5378  -18.1145  -15.6026 C   0  0  0  0  0  0  0  0  0  0  0  0
   25.4847  -21.1617  -12.1586 C   0  0  0  0  0  0  0  0  0  0  0  0
   24.8636  -22.2244  -11.9646 O   0  0  0  0  0  0  0  0  0  0  0  0
   26.0757  -20.4764  -11.0639 N   0  0  0  0  0  0  0  0  0  0  0  0
   25.7411  -20.7570   -9.6647 C   0  0  1  0  0  0  0  0  0  0  0  0
   26.9268  -20.3949   -8.8204 C   0  0  0  0  0  0  0  0  0  0  0  0
   26.7901  -20.6139   -7.3843 C   0  0  0  0  0  0  0  0  0  0  0  0
   25.9133  -21.4579   -6.7383 C   0  0  0  0  0  0  0  0  0  0  0  0
   26.0997  -21.3381   -5.3926 N   0  0  0  0  0  0  0  0  0  0  0  0
   27.0620  -20.4503   -5.1456 C   0  0  0  0  0  0  0  0  0  0  0  0
   27.6024  -19.9948   -3.9621 C   0  0  0  0  0  0  0  0  0  0  0  0
   28.6117  -19.0542   -3.9605 C   0  0  0  0  0  0  0  0  0  0  0  0
   29.0525  -18.5935   -5.1843 C   0  0  0  0  0  0  0  0  0  0  0  0
   28.5217  -19.0395   -6.3847 C   0  0  0  0  0  0  0  0  0  0  0  0
   27.5117  -19.9809   -6.3854 C   0  0  0  0  0  0  0  0  0  0  0  0
   24.4768  -20.1160   -9.3074 C   0  0  0  0  0  0  0  0  0  0  0  0
   24.0895  -19.1440  -10.0543 O   0  0  0  0  0  0  0  0  0  0  0  0
   19.5119  -20.9607   -8.9790 N   0  0  0  0  0  0  0  0  0  0  0  0
   20.3886  -20.7116  -10.0968 C   0  0  0  0  0  0  0  0  0  0  0  0
   19.8162  -20.6411  -11.2206 O   0  0  0  0  0  0  0  0  0  0  0  0
   21.8410  -20.5593   -9.8783 C   0  0  0  0  0  0  0  0  0  0  0  0
   22.2234  -20.7671   -8.4349 C   0  0  2  0  0  0  0  0  0  0  0  0
   23.6296  -20.4578   -8.2226 N   0  0  0  0  0  0  0  0  0  0  0  0
   21.9043  -22.1496   -8.0495 C   0  0  0  0  0  0  0  0  0  0  0  0
   22.3200  -23.1308   -8.7503 O   0  0  0  0  0  0  0  0  0  0  0  0
   21.1534  -22.4614   -6.9299 O   0  0  0  0  0  0  0  0  0  0  0  0
  2  1  1  6
  3  4  1  0
  3  2  1  0
  4  5  2  0
  6  5  1  0
  7  6  1  0
  8  7  2  0
  9  8  1  0
 10  9  2  0
 10 11  1  0
 11 12  2  0
 12  7  1  0
 12  4  1  0
 13  2  1  0
 13 15  1  0
 14 13  2  0
 16 15  1  0
 16 17  1  1
 18 17  1  0
 18 19  2  0
 20 19  1  0
 21 20  1  0
 22 21  2  0
 23 22  1  0
 24 23  2  0
 24 25  1  0
 25 26  2  0
 26 21  1  0
 26 18  1  0
 27 28  2  0
 27 16  1  0
 29 30  1  0
 30 31  2  0
 30 32  1  0
 33 32  1  6
 33 34  1  0
 33 35  1  0
 34 27  1  0
 35 37  1  0
 36 35  2  0
M  END
$$$$
