WWN.pdb
     RDKit          3D

 37 40  0  0  1  0  0  0  0  0999 V2000
   27.7825  -22.5115  -15.8602 N   0  0  0  0  0  0  0  0  0  0  0  0
   26.7688  -21.5317  -15.5603 C   0  0  1  0  0  0  0  0  0  0  0  0
   25.6829  -21.5017  -16.6153 C   0  0  0  0  0  0  0  0  0  0  0  0
   26.0382  -20.6852  -17.7771 C   0  0  0  0  0  0  0  0  0  0  0  0
   27.1359  -20.8376  -18.5983 C   0  0  0  0  0  0  0  0  0  0  0  0
   27.1230  -19.8945  -19.5579 N   0  0  0  0  0  0  0  0  0  0  0  0
   26.0405  -19.1055  -19.4060 C   0  0  0  0  0  0  0  0  0  0  0  0
   25.5391  -18.0189  -20.0795 C   0  0  0  0  0  0  0  0  0  0  0  0
   24.3768  -17.3824  -19.7011 C   0  0  0  0  0  0  0  0  0  0  0  0
   23.6983  -17.8750  -18.5895 C   0  0  0  0  0  0  0  0  0  0  0  0
   24.1904  -18.9643  -17.9046 C   0  0  0  0  0  0  0  0  0  0  0  0
   25.3546  -19.5833  -18.3029 C   0  0  0  0  0  0  0  0  0  0  0  0
   26.1454  -21.8382  -14.2460 C   0  0  0  0  0  0  0  0  0  0  0  0
   25.8608  -23.0204  -13.9740 O   0  0  0  0  0  0  0  0  0  0  0  0
   25.8734  -20.8095  -13.3053 N   0  0  0  0  0  0  0  0  0  0  0  0
   25.1690  -21.0420  -12.0410 C   0  0  1  0  0  0  0  0  0  0  0  0
   25.7184  -20.0908  -11.0197 C   0  0  0  0  0  0  0  0  0  0  0  0
   27.0264  -20.4218  -10.4643 C   0  0  0  0  0  0  0  0  0  0  0  0
   28.0375  -21.1456  -11.0578 C   0  0  0  0  0  0  0  0  0  0  0  0
   29.0790  -21.2438  -10.1828 N   0  0  0  0  0  0  0  0  0  0  0  0
   28.7793  -20.6122   -9.0487 C   0  0  0  0  0  0  0  0  0  0  0  0
   29.4966  -20.4347   -7.8850 C   0  0  0  0  0  0  0  0  0  0  0  0
   28.9646  -19.7282   -6.8262 C   0  0  0  0  0  0  0  0  0  0  0  0
   27.6946  -19.2115   -6.9816 C   0  0  0  0  0  0  0  0  0  0  0  0
   26.9578  -19.3793   -8.1438 C   0  0  0  0  0  0  0  0  0  0  0  0
   27.4910  -20.0865   -9.2029 C   0  0  0  0  0  0  0  0  0  0  0  0
   23.7229  -20.9965  -12.2507 C   0  0  0  0  0  0  0  0  0  0  0  0
   23.2841  -20.1047  -13.0660 O   0  0  0  0  0  0  0  0  0  0  0  0
   18.5050  -23.2392  -13.0277 N   0  0  0  0  0  0  0  0  0  0  0  0
   19.1249  -22.7931  -11.8042 C   0  0  0  0  0  0  0  0  0  0  0  0
   18.3360  -22.2833  -10.9595 O   0  0  0  0  0  0  0  0  0  0  0  0
   20.5807  -22.9488  -11.6128 C   0  0  0  0  0  0  0  0  0  0  0  0
   21.3366  -21.6898  -11.9538 C   0  0  2  0  0  0  0  0  0  0  0  0
   22.7521  -21.8379  -11.6498 N   0  0  0  0  0  0  0  0  0  0  0  0
   20.7376  -20.5604  -11.2277 C   0  0  0  0  0  0  0  0  0  0  0  0
   19.5474  -20.1814  -11.4856 O   0  0  0  0  0  0  0  0  0  0  0  0
   21.4123  -19.8590  -10.2442 O   0  0  0  0  0  0  0  0  0  0  0  0
  2  1  1  6
  3  4  1  0
  3  2  1  0
  4  5  2  0
  6  5  1  0
  7  6  1  0
  8  7  2  0
  9  8  1  0
 10  9  2  0
 10 11  1  0
 11 12  2  0
 12  7  1  0
 12  4  1  0
 13  2  1  0
 13 15  1  0
 14 13  2  0
 16 15  1  0
 16 17  1  1
 18 17  1  0
 18 19  2  0
 20 19  1  0
 21 20  1  0
 22 21  2  0
 23 22  1  0
 24 23  2  0
 24 25  1  0
 25 26  2  0
 26 21  1  0
 26 18  1  0
 27 28  2  0
 27 16  1  0
 29 30  1  0
 30 31  2  0
 30 32  1  0
 33 32  1  1
 33 34  1  0
 33 35  1  0
 34 27  1  0
 35 37  1  0
 36 35  2  0
M  END
$$$$
