WWN.pdb
     RDKit          3D

 37 40  0  0  1  0  0  0  0  0999 V2000
   25.3515  -19.8787  -17.1737 N   0  0  0  0  0  0  0  0  0  0  0  0
   24.6146  -19.3637  -16.0471 C   0  0  1  0  0  0  0  0  0  0  0  0
   23.1193  -19.4098  -16.2818 C   0  0  0  0  0  0  0  0  0  0  0  0
   22.6857  -18.5379  -17.3747 C   0  0  0  0  0  0  0  0  0  0  0  0
   22.1234  -18.9223  -18.5741 C   0  0  0  0  0  0  0  0  0  0  0  0
   21.8605  -17.8366  -19.3241 N   0  0  0  0  0  0  0  0  0  0  0  0
   22.2319  -16.7238  -18.6598 C   0  0  0  0  0  0  0  0  0  0  0  0
   22.1963  -15.3795  -18.9380 C   0  0  0  0  0  0  0  0  0  0  0  0
   22.6542  -14.4261  -18.0546 C   0  0  0  0  0  0  0  0  0  0  0  0
   23.1696  -14.8624  -16.8369 C   0  0  0  0  0  0  0  0  0  0  0  0
   23.2112  -16.2082  -16.5451 C   0  0  0  0  0  0  0  0  0  0  0  0
   22.7473  -17.1418  -17.4452 C   0  0  0  0  0  0  0  0  0  0  0  0
   24.9295  -20.1609  -14.8326 C   0  0  0  0  0  0  0  0  0  0  0  0
   24.8252  -21.4016  -14.8812 O   0  0  0  0  0  0  0  0  0  0  0  0
   25.3442  -19.5313  -13.6289 N   0  0  0  0  0  0  0  0  0  0  0  0
   25.5594  -20.2582  -12.3743 C   0  0  1  0  0  0  0  0  0  0  0  0
   26.6350  -19.5509  -11.6045 C   0  0  0  0  0  0  0  0  0  0  0  0
   27.4120  -20.3677  -10.6783 C   0  0  0  0  0  0  0  0  0  0  0  0
   28.1830  -21.4722  -10.9686 C   0  0  0  0  0  0  0  0  0  0  0  0
   28.7165  -21.9521   -9.8088 N   0  0  0  0  0  0  0  0  0  0  0  0
   28.3199  -21.2009   -8.7825 C   0  0  0  0  0  0  0  0  0  0  0  0
   28.5893  -21.2825   -7.4330 C   0  0  0  0  0  0  0  0  0  0  0  0
   28.0530  -20.3705   -6.5476 C   0  0  0  0  0  0  0  0  0  0  0  0
   27.2425  -19.3819   -7.0672 C   0  0  0  0  0  0  0  0  0  0  0  0
   26.9601  -19.2834   -8.4208 C   0  0  0  0  0  0  0  0  0  0  0  0
   27.4972  -20.1966   -9.3062 C   0  0  0  0  0  0  0  0  0  0  0  0
   24.2895  -20.4515  -11.6763 C   0  0  0  0  0  0  0  0  0  0  0  0
   23.4479  -19.4811  -11.7266 O   0  0  0  0  0  0  0  0  0  0  0  0
   19.8655  -22.1298   -9.7671 N   0  0  0  0  0  0  0  0  0  0  0  0
   20.3493  -22.8593  -10.9134 C   0  0  0  0  0  0  0  0  0  0  0  0
   19.4832  -23.5645  -11.5036 O   0  0  0  0  0  0  0  0  0  0  0  0
   21.7652  -22.7481  -11.3175 C   0  0  0  0  0  0  0  0  0  0  0  0
   22.5199  -21.7512  -10.4753 C   0  0  2  0  0  0  0  0  0  0  0  0
   23.8871  -21.6020  -10.9512 N   0  0  0  0  0  0  0  0  0  0  0  0
   22.4748  -22.1806   -9.0699 C   0  0  0  0  0  0  0  0  0  0  0  0
   21.3588  -22.3055   -8.4652 O   0  0  0  0  0  0  0  0  0  0  0  0
   23.6126  -22.4691   -8.3373 O   0  0  0  0  0  0  0  0  0  0  0  0
  2  1  1  6
  3  4  1  0
  3  2  1  0
  4  5  2  0
  6  5  1  0
  7  6  1  0
  8  7  2  0
  9  8  1  0
 10  9  2  0
 10 11  1  0
 11 12  2  0
 12  7  1  0
 12  4  1  0
 13  2  1  0
 13 15  1  0
 14 13  2  0
 16 15  1  0
 16 17  1  1
 18 17  1  0
 18 19  2  0
 20 19  1  0
 21 20  1  0
 22 21  2  0
 23 22  1  0
 24 23  2  0
 24 25  1  0
 25 26  2  0
 26 21  1  0
 26 18  1  0
 27 28  2  0
 27 16  1  0
 29 30  1  0
 30 31  2  0
 30 32  1  0
 33 32  1  6
 33 34  1  0
 33 35  1  0
 34 27  1  0
 35 37  1  0
 36 35  2  0
M  END
$$$$
