WWN.pdb
     RDKit          3D

 37 40  0  0  1  0  0  0  0  0999 V2000
   28.3448  -21.3862  -15.0424 N   0  0  0  0  0  0  0  0  0  0  0  0
   27.6069  -20.6771  -14.0274 C   0  0  1  0  0  0  0  0  0  0  0  0
   26.2931  -20.1406  -14.5556 C   0  0  0  0  0  0  0  0  0  0  0  0
   26.4568  -19.2889  -15.7347 C   0  0  0  0  0  0  0  0  0  0  0  0
   26.0614  -19.5689  -17.0262 C   0  0  0  0  0  0  0  0  0  0  0  0
   26.3857  -18.5441  -17.8356 N   0  0  0  0  0  0  0  0  0  0  0  0
   26.9924  -17.5748  -17.1217 C   0  0  0  0  0  0  0  0  0  0  0  0
   27.5176  -16.3423  -17.4235 C   0  0  0  0  0  0  0  0  0  0  0  0
   28.0967  -15.5291  -16.4734 C   0  0  0  0  0  0  0  0  0  0  0  0
   28.1417  -15.9927  -15.1613 C   0  0  0  0  0  0  0  0  0  0  0  0
   27.6186  -17.2273  -14.8448 C   0  0  0  0  0  0  0  0  0  0  0  0
   27.0449  -18.0216  -15.8128 C   0  0  0  0  0  0  0  0  0  0  0  0
   27.3242  -21.5841  -12.8842 C   0  0  0  0  0  0  0  0  0  0  0  0
   27.0555  -22.7790  -13.1139 O   0  0  0  0  0  0  0  0  0  0  0  0
   27.3568  -21.1098  -11.5458 N   0  0  0  0  0  0  0  0  0  0  0  0
   26.3621  -21.4835  -10.5361 C   0  0  1  0  0  0  0  0  0  0  0  0
   27.0739  -21.6775   -9.2301 C   0  0  0  0  0  0  0  0  0  0  0  0
   27.0639  -20.5431   -8.3126 C   0  0  0  0  0  0  0  0  0  0  0  0
   26.3503  -19.3700   -8.4275 C   0  0  0  0  0  0  0  0  0  0  0  0
   26.6514  -18.5673   -7.3668 N   0  0  0  0  0  0  0  0  0  0  0  0
   27.5309  -19.1765   -6.5728 C   0  0  0  0  0  0  0  0  0  0  0  0
   28.1290  -18.7773   -5.3967 C   0  0  0  0  0  0  0  0  0  0  0  0
   29.0247  -19.5988   -4.7437 C   0  0  0  0  0  0  0  0  0  0  0  0
   29.2931  -20.8263   -5.3140 C   0  0  0  0  0  0  0  0  0  0  0  0
   28.7016  -21.2453   -6.4957 C   0  0  0  0  0  0  0  0  0  0  0  0
   27.8054  -20.4226   -7.1485 C   0  0  0  0  0  0  0  0  0  0  0  0
   25.2593  -20.5239  -10.5316 C   0  0  0  0  0  0  0  0  0  0  0  0
   25.5307  -19.3285  -10.9188 O   0  0  0  0  0  0  0  0  0  0  0  0
   20.8384  -20.3842  -13.0126 N   0  0  0  0  0  0  0  0  0  0  0  0
   21.9315  -21.2821  -13.2941 C   0  0  0  0  0  0  0  0  0  0  0  0
   21.8736  -21.8609  -14.4154 O   0  0  0  0  0  0  0  0  0  0  0  0
   23.0100  -21.4682  -12.3029 C   0  0  0  0  0  0  0  0  0  0  0  0
   22.8200  -20.5985  -11.0863 C   0  0  2  0  0  0  0  0  0  0  0  0
   23.9176  -20.7759  -10.1471 N   0  0  0  0  0  0  0  0  0  0  0  0
   21.5209  -20.9108  -10.4728 C   0  0  0  0  0  0  0  0  0  0  0  0
   21.2345  -22.1063  -10.1332 O   0  0  0  0  0  0  0  0  0  0  0  0
   20.5552  -19.9496  -10.2320 O   0  0  0  0  0  0  0  0  0  0  0  0
  2  1  1  6
  3  4  1  0
  3  2  1  0
  4  5  2  0
  6  5  1  0
  7  6  1  0
  8  7  2  0
  9  8  1  0
 10  9  2  0
 10 11  1  0
 11 12  2  0
 12  7  1  0
 12  4  1  0
 13  2  1  0
 13 15  1  0
 14 13  2  0
 16 15  1  0
 16 17  1  1
 18 17  1  0
 18 19  2  0
 20 19  1  0
 21 20  1  0
 22 21  2  0
 23 22  1  0
 24 23  2  0
 24 25  1  0
 25 26  2  0
 26 21  1  0
 26 18  1  0
 27 28  2  0
 27 16  1  0
 29 30  1  0
 30 31  2  0
 30 32  1  0
 33 32  1  6
 33 34  1  0
 33 35  1  0
 34 27  1  0
 35 37  1  0
 36 35  2  0
M  END
$$$$
