WWN.pdb
     RDKit          3D

 37 40  0  0  1  0  0  0  0  0999 V2000
   25.4722  -18.7829   -8.5871 N   0  0  0  0  0  0  0  0  0  0  0  0
   26.3959  -19.6742   -9.2429 C   0  0  1  0  0  0  0  0  0  0  0  0
   26.3653  -21.0628   -8.6397 C   0  0  0  0  0  0  0  0  0  0  0  0
   26.4368  -21.0519   -7.1777 C   0  0  0  0  0  0  0  0  0  0  0  0
   25.4500  -21.4331   -6.2925 C   0  0  0  0  0  0  0  0  0  0  0  0
   25.8859  -21.2797   -5.0288 N   0  0  0  0  0  0  0  0  0  0  0  0
   27.1469  -20.8030   -5.0371 C   0  0  0  0  0  0  0  0  0  0  0  0
   28.0563  -20.4691   -4.0638 C   0  0  0  0  0  0  0  0  0  0  0  0
   29.3154  -19.9915   -4.3565 C   0  0  0  0  0  0  0  0  0  0  0  0
   29.6608  -19.8488   -5.6978 C   0  0  0  0  0  0  0  0  0  0  0  0
   28.7581  -20.1801   -6.6843 C   0  0  0  0  0  0  0  0  0  0  0  0
   27.5052  -20.6556   -6.3658 C   0  0  0  0  0  0  0  0  0  0  0  0
   26.0579  -19.7762  -10.6869 C   0  0  0  0  0  0  0  0  0  0  0  0
   24.8617  -19.7239  -11.0320 O   0  0  0  0  0  0  0  0  0  0  0  0
   27.0725  -19.9306  -11.6687 N   0  0  0  0  0  0  0  0  0  0  0  0
   26.8479  -19.7034  -13.0993 C   0  0  1  0  0  0  0  0  0  0  0  0
   28.1571  -19.3169  -13.7209 C   0  0  0  0  0  0  0  0  0  0  0  0
   28.1544  -19.1204  -15.1667 C   0  0  0  0  0  0  0  0  0  0  0  0
   27.9570  -17.9456  -15.8591 C   0  0  0  0  0  0  0  0  0  0  0  0
   28.0076  -18.2102  -17.1960 N   0  0  0  0  0  0  0  0  0  0  0  0
   28.2297  -19.5090  -17.3929 C   0  0  0  0  0  0  0  0  0  0  0  0
   28.3611  -20.2482  -18.5490 C   0  0  0  0  0  0  0  0  0  0  0  0
   28.5931  -21.6072  -18.4979 C   0  0  0  0  0  0  0  0  0  0  0  0
   28.6871  -22.1890  -17.2501 C   0  0  0  0  0  0  0  0  0  0  0  0
   28.5579  -21.4625  -16.0765 C   0  0  0  0  0  0  0  0  0  0  0  0
   28.3257  -20.1025  -16.1286 C   0  0  0  0  0  0  0  0  0  0  0  0
   26.1673  -20.8522  -13.6943 C   0  0  0  0  0  0  0  0  0  0  0  0
   26.0811  -21.9119  -12.9717 O   0  0  0  0  0  0  0  0  0  0  0  0
   22.6616  -23.1860  -13.9552 N   0  0  0  0  0  0  0  0  0  0  0  0
   22.6136  -21.8734  -13.3593 C   0  0  0  0  0  0  0  0  0  0  0  0
   21.8842  -21.7782  -12.3323 O   0  0  0  0  0  0  0  0  0  0  0  0
   23.3838  -20.7625  -13.9535 C   0  0  0  0  0  0  0  0  0  0  0  0
   24.1707  -21.1996  -15.1628 C   0  0  2  0  0  0  0  0  0  0  0  0
   25.5878  -20.9183  -14.9871 N   0  0  0  0  0  0  0  0  0  0  0  0
   23.6257  -20.5338  -16.3549 C   0  0  0  0  0  0  0  0  0  0  0  0
   23.6205  -19.2614  -16.4418 O   0  0  0  0  0  0  0  0  0  0  0  0
   23.0997  -21.2307  -17.4283 O   0  0  0  0  0  0  0  0  0  0  0  0
  2  1  1  1
  3  4  1  0
  3  2  1  0
  4  5  2  0
  6  5  1  0
  7  6  1  0
  8  7  2  0
  9  8  1  0
 10  9  2  0
 10 11  1  0
 11 12  2  0
 12  7  1  0
 12  4  1  0
 13  2  1  0
 13 15  1  0
 14 13  2  0
 16 15  1  0
 16 17  1  6
 18 17  1  0
 18 19  2  0
 20 19  1  0
 21 20  1  0
 22 21  2  0
 23 22  1  0
 24 23  2  0
 24 25  1  0
 25 26  2  0
 26 21  1  0
 26 18  1  0
 27 28  2  0
 27 16  1  0
 29 30  1  0
 30 31  2  0
 30 32  1  0
 33 32  1  1
 33 34  1  0
 33 35  1  0
 34 27  1  0
 35 37  1  0
 36 35  2  0
M  END
$$$$
