WWN.pdb
     RDKit          3D

 37 40  0  0  1  0  0  0  0  0999 V2000
   27.5793  -19.5525  -16.5312 N   0  0  0  0  0  0  0  0  0  0  0  0
   27.2298  -19.3092  -15.1542 C   0  0  1  0  0  0  0  0  0  0  0  0
   26.4787  -18.0054  -14.9841 C   0  0  0  0  0  0  0  0  0  0  0  0
   27.2541  -16.8399  -15.4120 C   0  0  0  0  0  0  0  0  0  0  0  0
   26.8838  -15.5142  -15.3222 C   0  0  0  0  0  0  0  0  0  0  0  0
   27.8585  -14.7328  -15.8218 N   0  0  0  0  0  0  0  0  0  0  0  0
   28.8822  -15.4991  -16.2486 C   0  0  0  0  0  0  0  0  0  0  0  0
   30.1007  -15.2424  -16.8277 C   0  0  0  0  0  0  0  0  0  0  0  0
   30.9836  -16.2423  -17.1739 C   0  0  0  0  0  0  0  0  0  0  0  0
   30.6076  -17.5584  -16.9185 C   0  0  0  0  0  0  0  0  0  0  0  0
   29.3881  -17.8299  -16.3380 C   0  0  0  0  0  0  0  0  0  0  0  0
   28.5229  -16.8126  -16.0012 C   0  0  0  0  0  0  0  0  0  0  0  0
   26.3783  -20.4173  -14.6475 C   0  0  0  0  0  0  0  0  0  0  0  0
   25.6642  -21.0461  -15.4521 O   0  0  0  0  0  0  0  0  0  0  0  0
   26.3692  -20.7649  -13.2704 N   0  0  0  0  0  0  0  0  0  0  0  0
   25.5239  -21.8256  -12.7146 C   0  0  1  0  0  0  0  0  0  0  0  0
   26.1089  -22.2466  -11.3992 C   0  0  0  0  0  0  0  0  0  0  0  0
   26.0248  -21.2760  -10.3130 C   0  0  0  0  0  0  0  0  0  0  0  0
   25.0153  -20.3718  -10.0646 C   0  0  0  0  0  0  0  0  0  0  0  0
   25.3462  -19.6355   -8.9653 N   0  0  0  0  0  0  0  0  0  0  0  0
   26.5291  -20.0293   -8.4953 C   0  0  0  0  0  0  0  0  0  0  0  0
   27.2744  -19.5966   -7.4195 C   0  0  0  0  0  0  0  0  0  0  0  0
   28.4940  -20.1710   -7.1263 C   0  0  0  0  0  0  0  0  0  0  0  0
   28.9312  -21.1885   -7.9496 C   0  0  0  0  0  0  0  0  0  0  0  0
   28.1960  -21.6373   -9.0358 C   0  0  0  0  0  0  0  0  0  0  0  0
   26.9756  -21.0619   -9.3285 C   0  0  0  0  0  0  0  0  0  0  0  0
   24.1258  -21.3992  -12.6902 C   0  0  0  0  0  0  0  0  0  0  0  0
   23.8830  -20.2401  -12.1901 O   0  0  0  0  0  0  0  0  0  0  0  0
   21.5950  -19.3069  -14.6317 N   0  0  0  0  0  0  0  0  0  0  0  0
   20.9909  -20.4964  -15.1796 C   0  0  0  0  0  0  0  0  0  0  0  0
   20.5471  -20.3781  -16.3563 O   0  0  0  0  0  0  0  0  0  0  0  0
   20.9265  -21.7320  -14.3735 C   0  0  0  0  0  0  0  0  0  0  0  0
   21.6587  -21.5943  -13.0629 C   0  0  2  0  0  0  0  0  0  0  0  0
   23.0077  -22.1310  -13.1652 N   0  0  0  0  0  0  0  0  0  0  0  0
   20.8832  -22.2640  -12.0087 C   0  0  0  0  0  0  0  0  0  0  0  0
   21.3560  -23.2820  -11.4030 O   0  0  0  0  0  0  0  0  0  0  0  0
   19.6252  -21.8396  -11.6190 O   0  0  0  0  0  0  0  0  0  0  0  0
  2  1  1  6
  3  4  1  0
  3  2  1  0
  4  5  2  0
  6  5  1  0
  7  6  1  0
  8  7  2  0
  9  8  1  0
 10  9  2  0
 10 11  1  0
 11 12  2  0
 12  7  1  0
 12  4  1  0
 13  2  1  0
 13 15  1  0
 14 13  2  0
 16 15  1  0
 16 17  1  1
 18 17  1  0
 18 19  2  0
 20 19  1  0
 21 20  1  0
 22 21  2  0
 23 22  1  0
 24 23  2  0
 24 25  1  0
 25 26  2  0
 26 21  1  0
 26 18  1  0
 27 28  2  0
 27 16  1  0
 29 30  1  0
 30 31  2  0
 30 32  1  0
 33 32  1  6
 33 34  1  0
 33 35  1  0
 34 27  1  0
 35 37  1  0
 36 35  2  0
M  END
$$$$
