WWN.pdb
     RDKit          3D

 37 40  0  0  1  0  0  0  0  0999 V2000
   27.0328  -20.4052  -14.6744 N   0  0  0  0  0  0  0  0  0  0  0  0
   25.7572  -20.9916  -14.3482 C   0  0  1  0  0  0  0  0  0  0  0  0
   25.4219  -22.1555  -15.2571 C   0  0  0  0  0  0  0  0  0  0  0  0
   25.3846  -21.7826  -16.6721 C   0  0  0  0  0  0  0  0  0  0  0  0
   25.9792  -22.4468  -17.7246 C   0  0  0  0  0  0  0  0  0  0  0  0
   25.7246  -21.7988  -18.8760 N   0  0  0  0  0  0  0  0  0  0  0  0
   24.9700  -20.7096  -18.6279 C   0  0  0  0  0  0  0  0  0  0  0  0
   24.4302  -19.7149  -19.4057 C   0  0  0  0  0  0  0  0  0  0  0  0
   23.6748  -18.6889  -18.8802 C   0  0  0  0  0  0  0  0  0  0  0  0
   23.4615  -18.6776  -17.5044 C   0  0  0  0  0  0  0  0  0  0  0  0
   23.9974  -19.6693  -16.7124 C   0  0  0  0  0  0  0  0  0  0  0  0
   24.7492  -20.6843  -17.2618 C   0  0  0  0  0  0  0  0  0  0  0  0
   25.7700  -21.4752  -12.9426 C   0  0  0  0  0  0  0  0  0  0  0  0
   25.8743  -22.6978  -12.7259 O   0  0  0  0  0  0  0  0  0  0  0  0
   25.6663  -20.5689  -11.8540 N   0  0  0  0  0  0  0  0  0  0  0  0
   24.9189  -20.8664  -10.6287 C   0  0  1  0  0  0  0  0  0  0  0  0
   25.6086  -20.1841   -9.4848 C   0  0  0  0  0  0  0  0  0  0  0  0
   26.9677  -20.6263   -9.1916 C   0  0  0  0  0  0  0  0  0  0  0  0
   27.7787  -21.4312   -9.9617 C   0  0  0  0  0  0  0  0  0  0  0  0
   28.9597  -21.6199   -9.3061 N   0  0  0  0  0  0  0  0  0  0  0  0
   28.9420  -20.9687   -8.1439 C   0  0  0  0  0  0  0  0  0  0  0  0
   29.8859  -20.8562   -7.1456 C   0  0  0  0  0  0  0  0  0  0  0  0
   29.6329  -20.1104   -6.0128 C   0  0  0  0  0  0  0  0  0  0  0  0
   28.4047  -19.4876   -5.9237 C   0  0  0  0  0  0  0  0  0  0  0  0
   27.4430  -19.5889   -6.9170 C   0  0  0  0  0  0  0  0  0  0  0  0
   27.6971  -20.3354   -8.0502 C   0  0  0  0  0  0  0  0  0  0  0  0
   23.5033  -20.5487  -10.8087 C   0  0  0  0  0  0  0  0  0  0  0  0
   23.2123  -19.3203  -11.0515 O   0  0  0  0  0  0  0  0  0  0  0  0
   19.0869  -18.8514  -12.4372 N   0  0  0  0  0  0  0  0  0  0  0  0
   19.6204  -20.1201  -12.8685 C   0  0  0  0  0  0  0  0  0  0  0  0
   18.8355  -20.8212  -13.5671 O   0  0  0  0  0  0  0  0  0  0  0  0
   20.9919  -20.5137  -12.4882 C   0  0  0  0  0  0  0  0  0  0  0  0
   21.0626  -21.0339  -11.0750 C   0  0  2  0  0  0  0  0  0  0  0  0
   22.4159  -21.4570  -10.7467 N   0  0  0  0  0  0  0  0  0  0  0  0
   20.0951  -22.1299  -10.9194 C   0  0  0  0  0  0  0  0  0  0  0  0
   18.8417  -21.8944  -10.9256 O   0  0  0  0  0  0  0  0  0  0  0  0
   20.4771  -23.4504  -10.7620 O   0  0  0  0  0  0  0  0  0  0  0  0
  2  1  1  6
  3  4  1  0
  3  2  1  0
  4  5  2  0
  6  5  1  0
  7  6  1  0
  8  7  2  0
  9  8  1  0
 10  9  2  0
 10 11  1  0
 11 12  2  0
 12  7  1  0
 12  4  1  0
 13  2  1  0
 13 15  1  0
 14 13  2  0
 16 15  1  0
 16 17  1  1
 18 17  1  0
 18 19  2  0
 20 19  1  0
 21 20  1  0
 22 21  2  0
 23 22  1  0
 24 23  2  0
 24 25  1  0
 25 26  2  0
 26 21  1  0
 26 18  1  0
 27 28  2  0
 27 16  1  0
 29 30  1  0
 30 31  2  0
 30 32  1  0
 33 32  1  6
 33 34  1  0
 33 35  1  0
 34 27  1  0
 35 37  1  0
 36 35  2  0
M  END
$$$$
