WWN.pdb
     RDKit          3D

 37 40  0  0  1  0  0  0  0  0999 V2000
   23.2164  -17.2719  -19.9582 N   0  0  0  0  0  0  0  0  0  0  0  0
   22.5470  -17.1474  -18.6878 C   0  0  1  0  0  0  0  0  0  0  0  0
   21.0537  -16.9579  -18.8526 C   0  0  0  0  0  0  0  0  0  0  0  0
   20.7046  -15.6702  -19.4547 C   0  0  0  0  0  0  0  0  0  0  0  0
   20.2944  -15.4406  -20.7514 C   0  0  0  0  0  0  0  0  0  0  0  0
   20.0680  -14.1268  -20.9331 N   0  0  0  0  0  0  0  0  0  0  0  0
   20.3152  -13.4598  -19.7880 C   0  0  0  0  0  0  0  0  0  0  0  0
   20.2515  -12.1415  -19.4087 C   0  0  0  0  0  0  0  0  0  0  0  0
   20.5676  -11.7190  -18.1357 C   0  0  0  0  0  0  0  0  0  0  0  0
   20.9652  -12.6815  -17.2114 C   0  0  0  0  0  0  0  0  0  0  0  0
   21.0335  -14.0075  -17.5787 C   0  0  0  0  0  0  0  0  0  0  0  0
   20.7123  -14.4046  -18.8578 C   0  0  0  0  0  0  0  0  0  0  0  0
   22.7836  -18.3676  -17.8723 C   0  0  0  0  0  0  0  0  0  0  0  0
   22.7308  -19.4829  -18.4255 O   0  0  0  0  0  0  0  0  0  0  0  0
   23.0669  -18.2782  -16.4834 N   0  0  0  0  0  0  0  0  0  0  0  0
   23.2529  -19.4509  -15.6239 C   0  0  1  0  0  0  0  0  0  0  0  0
   24.2109  -19.0803  -14.5309 C   0  0  0  0  0  0  0  0  0  0  0  0
   24.7139  -20.1776  -13.7112 C   0  0  0  0  0  0  0  0  0  0  0  0
   25.5118  -21.2295  -14.1054 C   0  0  0  0  0  0  0  0  0  0  0  0
   25.7267  -22.0436  -13.0325 N   0  0  0  0  0  0  0  0  0  0  0  0
   25.0989  -21.5581  -11.9623 C   0  0  0  0  0  0  0  0  0  0  0  0
   25.0183  -22.0164  -10.6648 C   0  0  0  0  0  0  0  0  0  0  0  0
   24.2939  -21.3270   -9.7142 C   0  0  0  0  0  0  0  0  0  0  0  0
   23.6596  -20.1691  -10.1155 C   0  0  0  0  0  0  0  0  0  0  0  0
   23.7290  -19.6924  -11.4154 C   0  0  0  0  0  0  0  0  0  0  0  0
   24.4541  -20.3830  -12.3660 C   0  0  0  0  0  0  0  0  0  0  0  0
   21.9576  -19.9749  -15.1940 C   0  0  0  0  0  0  0  0  0  0  0  0
   21.2892  -19.2562  -14.3638 O   0  0  0  0  0  0  0  0  0  0  0  0
   20.6737  -24.9162  -13.9976 N   0  0  0  0  0  0  0  0  0  0  0  0
   22.0245  -24.4162  -13.9219 C   0  0  0  0  0  0  0  0  0  0  0  0
   22.8833  -25.2528  -13.5242 O   0  0  0  0  0  0  0  0  0  0  0  0
   22.3180  -23.0183  -14.2961 C   0  0  0  0  0  0  0  0  0  0  0  0
   21.0687  -22.2478  -14.6400 C   0  0  2  0  0  0  0  0  0  0  0  0
   21.3588  -21.1943  -15.6013 N   0  0  0  0  0  0  0  0  0  0  0  0
   20.4813  -21.7117  -13.4034 C   0  0  0  0  0  0  0  0  0  0  0  0
   20.5162  -20.4606  -13.1579 O   0  0  0  0  0  0  0  0  0  0  0  0
   19.8693  -22.5127  -12.4555 O   0  0  0  0  0  0  0  0  0  0  0  0
  2  1  1  6
  3  4  1  0
  3  2  1  0
  4  5  2  0
  6  5  1  0
  7  6  1  0
  8  7  2  0
  9  8  1  0
 10  9  2  0
 10 11  1  0
 11 12  2  0
 12  7  1  0
 12  4  1  0
 13  2  1  0
 13 15  1  0
 14 13  2  0
 16 15  1  0
 16 17  1  1
 18 17  1  0
 18 19  2  0
 20 19  1  0
 21 20  1  0
 22 21  2  0
 23 22  1  0
 24 23  2  0
 24 25  1  0
 25 26  2  0
 26 21  1  0
 26 18  1  0
 27 28  2  0
 27 16  1  0
 29 30  1  0
 30 31  2  0
 30 32  1  0
 33 32  1  1
 33 34  1  0
 33 35  1  0
 34 27  1  0
 35 37  1  0
 36 35  2  0
M  END
$$$$
