WWN.pdb
     RDKit          3D

 37 40  0  0  1  0  0  0  0  0999 V2000
   26.0514  -20.9637  -14.6760 N   0  0  0  0  0  0  0  0  0  0  0  0
   25.7219  -19.9695  -13.6857 C   0  0  1  0  0  0  0  0  0  0  0  0
   24.4862  -19.1815  -14.0664 C   0  0  0  0  0  0  0  0  0  0  0  0
   24.6669  -18.3891  -15.2838 C   0  0  0  0  0  0  0  0  0  0  0  0
   23.8864  -18.4188  -16.4207 C   0  0  0  0  0  0  0  0  0  0  0  0
   24.3684  -17.5505  -17.3285 N   0  0  0  0  0  0  0  0  0  0  0  0
   25.4588  -16.9320  -16.8325 C   0  0  0  0  0  0  0  0  0  0  0  0
   26.3256  -15.9795  -17.3091 C   0  0  0  0  0  0  0  0  0  0  0  0
   27.3900  -15.5085  -16.5712 C   0  0  0  0  0  0  0  0  0  0  0  0
   27.5776  -16.0311  -15.2943 C   0  0  0  0  0  0  0  0  0  0  0  0
   26.7154  -16.9872  -14.8040 C   0  0  0  0  0  0  0  0  0  0  0  0
   25.6586  -17.4418  -15.5613 C   0  0  0  0  0  0  0  0  0  0  0  0
   25.4810  -20.6260  -12.3739 C   0  0  0  0  0  0  0  0  0  0  0  0
   24.8186  -21.6808  -12.3395 O   0  0  0  0  0  0  0  0  0  0  0  0
   25.9924  -20.0708  -11.1708 N   0  0  0  0  0  0  0  0  0  0  0  0
   25.7274  -20.6404   -9.8464 C   0  0  1  0  0  0  0  0  0  0  0  0
   26.7368  -20.0811   -8.8882 C   0  0  0  0  0  0  0  0  0  0  0  0
   26.5738  -20.4522   -7.4865 C   0  0  0  0  0  0  0  0  0  0  0  0
   25.6371  -21.3032   -6.9415 C   0  0  0  0  0  0  0  0  0  0  0  0
   25.8201  -21.3501   -5.5908 N   0  0  0  0  0  0  0  0  0  0  0  0
   26.8375  -20.5631   -5.2436 C   0  0  0  0  0  0  0  0  0  0  0  0
   27.3974  -20.2826   -4.0156 C   0  0  0  0  0  0  0  0  0  0  0  0
   28.4674  -19.4185   -3.9061 C   0  0  0  0  0  0  0  0  0  0  0  0
   28.9482  -18.8525   -5.0691 C   0  0  0  0  0  0  0  0  0  0  0  0
   28.3986  -19.1222   -6.3129 C   0  0  0  0  0  0  0  0  0  0  0  0
   27.3279  -19.9871   -6.4215 C   0  0  0  0  0  0  0  0  0  0  0  0
   24.3235  -20.4516   -9.4851 C   0  0  0  0  0  0  0  0  0  0  0  0
   23.6976  -19.4960  -10.0747 O   0  0  0  0  0  0  0  0  0  0  0  0
   19.3769  -20.5169  -10.1316 N   0  0  0  0  0  0  0  0  0  0  0  0
   20.1382  -21.7313   -9.9706 C   0  0  0  0  0  0  0  0  0  0  0  0
   19.4498  -22.7865   -9.8797 O   0  0  0  0  0  0  0  0  0  0  0  0
   21.6132  -21.6790   -9.9230 C   0  0  0  0  0  0  0  0  0  0  0  0
   22.1226  -21.2247   -8.5788 C   0  0  2  0  0  0  0  0  0  0  0  0
   23.5777  -21.2170   -8.5527 N   0  0  0  0  0  0  0  0  0  0  0  0
   21.5625  -22.0959   -7.5353 C   0  0  0  0  0  0  0  0  0  0  0  0
   22.2071  -23.1187   -7.1293 O   0  0  0  0  0  0  0  0  0  0  0  0
   20.3330  -21.8632   -6.9446 O   0  0  0  0  0  0  0  0  0  0  0  0
  2  1  1  6
  3  4  1  0
  3  2  1  0
  4  5  2  0
  6  5  1  0
  7  6  1  0
  8  7  2  0
  9  8  1  0
 10  9  2  0
 10 11  1  0
 11 12  2  0
 12  7  1  0
 12  4  1  0
 13  2  1  0
 13 15  1  0
 14 13  2  0
 16 15  1  0
 16 17  1  1
 18 17  1  0
 18 19  2  0
 20 19  1  0
 21 20  1  0
 22 21  2  0
 23 22  1  0
 24 23  2  0
 24 25  1  0
 25 26  2  0
 26 21  1  0
 26 18  1  0
 27 28  2  0
 27 16  1  0
 29 30  1  0
 30 31  2  0
 30 32  1  0
 33 32  1  6
 33 34  1  0
 33 35  1  0
 34 27  1  0
 35 37  1  0
 36 35  2  0
M  END
$$$$
