WWN.pdb
     RDKit          3D

 37 40  0  0  1  0  0  0  0  0999 V2000
   24.5184  -20.1268   -8.4608 N   0  0  0  0  0  0  0  0  0  0  0  0
   25.8399  -19.9749   -9.0159 C   0  0  1  0  0  0  0  0  0  0  0  0
   26.8884  -20.6754   -8.1775 C   0  0  0  0  0  0  0  0  0  0  0  0
   27.2187  -19.9475   -6.9513 C   0  0  0  0  0  0  0  0  0  0  0  0
   26.5843  -18.8305   -6.4489 C   0  0  0  0  0  0  0  0  0  0  0  0
   27.1755  -18.4459   -5.3031 N   0  0  0  0  0  0  0  0  0  0  0  0
   28.1972  -19.2775   -5.0168 C   0  0  0  0  0  0  0  0  0  0  0  0
   29.1173  -19.3578   -4.0005 C   0  0  0  0  0  0  0  0  0  0  0  0
   30.0833  -20.3395   -3.9494 C   0  0  0  0  0  0  0  0  0  0  0  0
   30.1115  -21.2778   -4.9777 C   0  0  0  0  0  0  0  0  0  0  0  0
   29.1943  -21.2087   -6.0033 C   0  0  0  0  0  0  0  0  0  0  0  0
   28.2383  -20.2175   -6.0318 C   0  0  0  0  0  0  0  0  0  0  0  0
   25.8765  -20.5392  -10.3907 C   0  0  0  0  0  0  0  0  0  0  0  0
   24.9947  -21.3499  -10.7340 O   0  0  0  0  0  0  0  0  0  0  0  0
   26.8946  -20.1685  -11.3091 N   0  0  0  0  0  0  0  0  0  0  0  0
   26.6214  -19.7582  -12.6895 C   0  0  1  0  0  0  0  0  0  0  0  0
   27.7980  -18.9696  -13.1828 C   0  0  0  0  0  0  0  0  0  0  0  0
   27.7539  -18.5452  -14.5780 C   0  0  0  0  0  0  0  0  0  0  0  0
   27.2380  -17.3740  -15.0888 C   0  0  0  0  0  0  0  0  0  0  0  0
   27.3748  -17.3891  -16.4457 N   0  0  0  0  0  0  0  0  0  0  0  0
   27.9583  -18.5235  -16.8298 C   0  0  0  0  0  0  0  0  0  0  0  0
   28.3055  -18.9950  -18.0778 C   0  0  0  0  0  0  0  0  0  0  0  0
   28.9133  -20.2246  -18.2262 C   0  0  0  0  0  0  0  0  0  0  0  0
   29.1562  -20.9553  -17.0811 C   0  0  0  0  0  0  0  0  0  0  0  0
   28.8145  -20.4982  -15.8178 C   0  0  0  0  0  0  0  0  0  0  0  0
   28.2064  -19.2675  -15.6702 C   0  0  0  0  0  0  0  0  0  0  0  0
   26.2388  -20.9159  -13.4961 C   0  0  0  0  0  0  0  0  0  0  0  0
   26.9428  -21.9814  -13.3495 O   0  0  0  0  0  0  0  0  0  0  0  0
   24.2090  -25.4680  -14.7307 N   0  0  0  0  0  0  0  0  0  0  0  0
   23.4178  -24.2748  -14.9054 C   0  0  0  0  0  0  0  0  0  0  0  0
   22.3973  -24.4117  -15.6372 O   0  0  0  0  0  0  0  0  0  0  0  0
   23.8235  -23.0154  -14.2498 C   0  0  0  0  0  0  0  0  0  0  0  0
   24.8190  -22.2403  -15.0751 C   0  0  2  0  0  0  0  0  0  0  0  0
   25.1674  -20.9869  -14.4226 N   0  0  0  0  0  0  0  0  0  0  0  0
   24.2601  -22.0203  -16.4170 C   0  0  0  0  0  0  0  0  0  0  0  0
   24.7612  -22.6068  -17.4326 O   0  0  0  0  0  0  0  0  0  0  0  0
   23.1823  -21.1851  -16.6525 O   0  0  0  0  0  0  0  0  0  0  0  0
  2  1  1  1
  3  4  1  0
  3  2  1  0
  4  5  2  0
  6  5  1  0
  7  6  1  0
  8  7  2  0
  9  8  1  0
 10  9  2  0
 10 11  1  0
 11 12  2  0
 12  7  1  0
 12  4  1  0
 13  2  1  0
 13 15  1  0
 14 13  2  0
 16 15  1  0
 16 17  1  6
 18 17  1  0
 18 19  2  0
 20 19  1  0
 21 20  1  0
 22 21  2  0
 23 22  1  0
 24 23  2  0
 24 25  1  0
 25 26  2  0
 26 21  1  0
 26 18  1  0
 27 28  2  0
 27 16  1  0
 29 30  1  0
 30 31  2  0
 30 32  1  0
 33 32  1  1
 33 34  1  0
 33 35  1  0
 34 27  1  0
 35 37  1  0
 36 35  2  0
M  END
$$$$
