WWN.pdb
     RDKit          3D

 37 40  0  0  1  0  0  0  0  0999 V2000
   28.0830  -20.7611   -9.3404 N   0  0  0  0  0  0  0  0  0  0  0  0
   26.6774  -21.0689   -9.2566 C   0  0  1  0  0  0  0  0  0  0  0  0
   26.0383  -20.4595   -8.0265 C   0  0  0  0  0  0  0  0  0  0  0  0
   26.9824  -19.6904   -7.2142 C   0  0  0  0  0  0  0  0  0  0  0  0
   27.4904  -18.4379   -7.4892 C   0  0  0  0  0  0  0  0  0  0  0  0
   28.3319  -18.0610   -6.5093 N   0  0  0  0  0  0  0  0  0  0  0  0
   28.4059  -19.0302   -5.5752 C   0  0  0  0  0  0  0  0  0  0  0  0
   29.0894  -19.1781   -4.3933 C   0  0  0  0  0  0  0  0  0  0  0  0
   28.9794  -20.3052   -3.6080 C   0  0  0  0  0  0  0  0  0  0  0  0
   28.1371  -21.3233   -4.0468 C   0  0  0  0  0  0  0  0  0  0  0  0
   27.4456  -21.1880   -5.2305 C   0  0  0  0  0  0  0  0  0  0  0  0
   27.5726  -20.0512   -5.9979 C   0  0  0  0  0  0  0  0  0  0  0  0
   25.9762  -20.5524  -10.4613 C   0  0  0  0  0  0  0  0  0  0  0  0
   25.8523  -19.3210  -10.6060 O   0  0  0  0  0  0  0  0  0  0  0  0
   25.4510  -21.4373  -11.4403 N   0  0  0  0  0  0  0  0  0  0  0  0
   24.7703  -20.9795  -12.6551 C   0  0  1  0  0  0  0  0  0  0  0  0
   25.5399  -21.4848  -13.8392 C   0  0  0  0  0  0  0  0  0  0  0  0
   26.7742  -20.7758  -14.1596 C   0  0  0  0  0  0  0  0  0  0  0  0
   28.0689  -21.1883  -13.9312 C   0  0  0  0  0  0  0  0  0  0  0  0
   28.9219  -20.2137  -14.3586 N   0  0  0  0  0  0  0  0  0  0  0  0
   28.2284  -19.1893  -14.8533 C   0  0  0  0  0  0  0  0  0  0  0  0
   28.6341  -17.9900  -15.3984 C   0  0  0  0  0  0  0  0  0  0  0  0
   27.7113  -17.0702  -15.8520 C   0  0  0  0  0  0  0  0  0  0  0  0
   26.3764  -17.4003  -15.7371 C   0  0  0  0  0  0  0  0  0  0  0  0
   25.9489  -18.6011  -15.1920 C   0  0  0  0  0  0  0  0  0  0  0  0
   26.8732  -19.5210  -14.7384 C   0  0  0  0  0  0  0  0  0  0  0  0
   23.3537  -21.3376  -12.6078 C   0  0  0  0  0  0  0  0  0  0  0  0
   22.9561  -21.9908  -11.5745 O   0  0  0  0  0  0  0  0  0  0  0  0
   19.4242  -18.6092  -10.6175 N   0  0  0  0  0  0  0  0  0  0  0  0
   19.7199  -18.8965  -11.9996 C   0  0  0  0  0  0  0  0  0  0  0  0
   18.7573  -18.7262  -12.7995 O   0  0  0  0  0  0  0  0  0  0  0  0
   21.0694  -19.3532  -12.3879 C   0  0  0  0  0  0  0  0  0  0  0  0
   21.0282  -20.6247  -13.1969 C   0  0  2  0  0  0  0  0  0  0  0  0
   22.3697  -21.0355  -13.5835 N   0  0  0  0  0  0  0  0  0  0  0  0
   20.1615  -20.4198  -14.3667 C   0  0  0  0  0  0  0  0  0  0  0  0
   20.6309  -19.9199  -15.4421 O   0  0  0  0  0  0  0  0  0  0  0  0
   18.8179  -20.7503  -14.3714 O   0  0  0  0  0  0  0  0  0  0  0  0
  2  1  1  6
  3  4  1  0
  3  2  1  0
  4  5  2  0
  6  5  1  0
  7  6  1  0
  8  7  2  0
  9  8  1  0
 10  9  2  0
 10 11  1  0
 11 12  2  0
 12  7  1  0
 12  4  1  0
 13  2  1  0
 13 15  1  0
 14 13  2  0
 16 15  1  0
 16 17  1  6
 18 17  1  0
 18 19  2  0
 20 19  1  0
 21 20  1  0
 22 21  2  0
 23 22  1  0
 24 23  2  0
 24 25  1  0
 25 26  2  0
 26 21  1  0
 26 18  1  0
 27 28  2  0
 27 16  1  0
 29 30  1  0
 30 31  2  0
 30 32  1  0
 33 32  1  6
 33 34  1  0
 33 35  1  0
 34 27  1  0
 35 37  1  0
 36 35  2  0
M  END
$$$$
