WWN.pdb
     RDKit          3D

 37 40  0  0  1  0  0  0  0  0999 V2000
   24.3184  -19.8406   -9.7962 N   0  0  0  0  0  0  0  0  0  0  0  0
   25.6950  -20.0027  -10.1916 C   0  0  1  0  0  0  0  0  0  0  0  0
   26.3436  -21.1869   -9.5059 C   0  0  0  0  0  0  0  0  0  0  0  0
   26.5581  -20.9705   -8.0742 C   0  0  0  0  0  0  0  0  0  0  0  0
   25.6442  -21.1547   -7.0577 C   0  0  0  0  0  0  0  0  0  0  0  0
   26.2088  -20.8500   -5.8750 N   0  0  0  0  0  0  0  0  0  0  0  0
   27.4859  -20.4633   -6.0666 C   0  0  0  0  0  0  0  0  0  0  0  0
   28.5021  -20.0532   -5.2390 C   0  0  0  0  0  0  0  0  0  0  0  0
   29.7497  -19.7063   -5.7107 C   0  0  0  0  0  0  0  0  0  0  0  0
   29.9694  -19.7812   -7.0836 C   0  0  0  0  0  0  0  0  0  0  0  0
   28.9585  -20.1910   -7.9251 C   0  0  0  0  0  0  0  0  0  0  0  0
   27.7199  -20.5324   -7.4290 C   0  0  0  0  0  0  0  0  0  0  0  0
   25.7762  -20.2027  -11.6624 C   0  0  0  0  0  0  0  0  0  0  0  0
   24.8824  -20.8572  -12.2328 O   0  0  0  0  0  0  0  0  0  0  0  0
   26.8500  -19.6614  -12.4182 N   0  0  0  0  0  0  0  0  0  0  0  0
   26.7991  -19.4812  -13.8720 C   0  0  1  0  0  0  0  0  0  0  0  0
   27.8060  -18.4348  -14.2474 C   0  0  0  0  0  0  0  0  0  0  0  0
   27.9139  -18.1203  -15.6681 C   0  0  0  0  0  0  0  0  0  0  0  0
   27.3332  -17.0717  -16.3476 C   0  0  0  0  0  0  0  0  0  0  0  0
   27.6691  -17.1634  -17.6662 N   0  0  0  0  0  0  0  0  0  0  0  0
   28.4433  -18.2295  -17.8636 C   0  0  0  0  0  0  0  0  0  0  0  0
   29.0280  -18.7349  -19.0051 C   0  0  0  0  0  0  0  0  0  0  0  0
   29.8034  -19.8751  -18.9581 C   0  0  0  0  0  0  0  0  0  0  0  0
   29.9666  -20.4820  -17.7296 C   0  0  0  0  0  0  0  0  0  0  0  0
   29.3868  -19.9889  -16.5709 C   0  0  0  0  0  0  0  0  0  0  0  0
   28.6110  -18.8478  -16.6189 C   0  0  0  0  0  0  0  0  0  0  0  0
   26.9291  -20.7712  -14.5475 C   0  0  0  0  0  0  0  0  0  0  0  0
   27.6940  -21.6415  -13.9907 O   0  0  0  0  0  0  0  0  0  0  0  0
   26.9795  -25.7569  -15.6275 N   0  0  0  0  0  0  0  0  0  0  0  0
   25.8470  -24.8898  -15.8411 C   0  0  0  0  0  0  0  0  0  0  0  0
   24.9024  -25.3977  -16.5086 O   0  0  0  0  0  0  0  0  0  0  0  0
   25.8514  -23.5185  -15.2935 C   0  0  0  0  0  0  0  0  0  0  0  0
   26.4272  -22.5203  -16.2656 C   0  0  2  0  0  0  0  0  0  0  0  0
   26.2951  -21.1644  -15.7537 N   0  0  0  0  0  0  0  0  0  0  0  0
   25.7610  -22.6800  -17.5664 C   0  0  0  0  0  0  0  0  0  0  0  0
   24.5829  -22.2282  -17.7517 O   0  0  0  0  0  0  0  0  0  0  0  0
   26.3584  -23.3135  -18.6418 O   0  0  0  0  0  0  0  0  0  0  0  0
  2  1  1  1
  3  4  1  0
  3  2  1  0
  4  5  2  0
  6  5  1  0
  7  6  1  0
  8  7  2  0
  9  8  1  0
 10  9  2  0
 10 11  1  0
 11 12  2  0
 12  7  1  0
 12  4  1  0
 13  2  1  0
 13 15  1  0
 14 13  2  0
 16 15  1  0
 16 17  1  6
 18 17  1  0
 18 19  2  0
 20 19  1  0
 21 20  1  0
 22 21  2  0
 23 22  1  0
 24 23  2  0
 24 25  1  0
 25 26  2  0
 26 21  1  0
 26 18  1  0
 27 28  2  0
 27 16  1  0
 29 30  1  0
 30 31  2  0
 30 32  1  0
 33 32  1  1
 33 34  1  0
 33 35  1  0
 34 27  1  0
 35 37  1  0
 36 35  2  0
M  END
$$$$
