WWN.pdb
     RDKit          3D

 37 40  0  0  1  0  0  0  0  0999 V2000
   24.4303  -20.8133  -14.7554 N   0  0  0  0  0  0  0  0  0  0  0  0
   24.7135  -19.8451  -13.7258 C   0  0  1  0  0  0  0  0  0  0  0  0
   23.7796  -18.6553  -13.7975 C   0  0  0  0  0  0  0  0  0  0  0  0
   23.9754  -17.8475  -15.0023 C   0  0  0  0  0  0  0  0  0  0  0  0
   23.0550  -17.6030  -16.0002 C   0  0  0  0  0  0  0  0  0  0  0  0
   23.6036  -16.8181  -16.9453 N   0  0  0  0  0  0  0  0  0  0  0  0
   24.8761  -16.5244  -16.6107 C   0  0  0  0  0  0  0  0  0  0  0  0
   25.8772  -15.7835  -17.1892 C   0  0  0  0  0  0  0  0  0  0  0  0
   27.1228  -15.6431  -16.6164 C   0  0  0  0  0  0  0  0  0  0  0  0
   27.3563  -16.2852  -15.4032 C   0  0  0  0  0  0  0  0  0  0  0  0
   26.3608  -17.0316  -14.8120 C   0  0  0  0  0  0  0  0  0  0  0  0
   25.1238  -17.1567  -15.4047 C   0  0  0  0  0  0  0  0  0  0  0  0
   24.5747  -20.4778  -12.3878 C   0  0  0  0  0  0  0  0  0  0  0  0
   23.6764  -21.3229  -12.2100 O   0  0  0  0  0  0  0  0  0  0  0  0
   25.4458  -20.1342  -11.3199 N   0  0  0  0  0  0  0  0  0  0  0  0
   25.2777  -20.6350   -9.9526 C   0  0  1  0  0  0  0  0  0  0  0  0
   26.5755  -20.4467   -9.2245 C   0  0  0  0  0  0  0  0  0  0  0  0
   26.6013  -20.8679   -7.8278 C   0  0  0  0  0  0  0  0  0  0  0  0
   26.2497  -22.0951   -7.3091 C   0  0  0  0  0  0  0  0  0  0  0  0
   26.3963  -22.0570   -5.9537 N   0  0  0  0  0  0  0  0  0  0  0  0
   26.8284  -20.8539   -5.5782 C   0  0  0  0  0  0  0  0  0  0  0  0
   27.1222  -20.3360   -4.3349 C   0  0  0  0  0  0  0  0  0  0  0  0
   27.5633  -19.0363   -4.1956 C   0  0  0  0  0  0  0  0  0  0  0  0
   27.6965  -18.2842   -5.3449 C   0  0  0  0  0  0  0  0  0  0  0  0
   27.4061  -18.7872   -6.6036 C   0  0  0  0  0  0  0  0  0  0  0  0
   26.9647  -20.0880   -6.7420 C   0  0  0  0  0  0  0  0  0  0  0  0
   24.0989  -20.0318   -9.3332 C   0  0  0  0  0  0  0  0  0  0  0  0
   23.6955  -18.9140   -9.8235 O   0  0  0  0  0  0  0  0  0  0  0  0
   19.1969  -20.2642  -10.1500 N   0  0  0  0  0  0  0  0  0  0  0  0
   20.0763  -21.3782   -9.8935 C   0  0  0  0  0  0  0  0  0  0  0  0
   19.5052  -22.5014   -9.8044 O   0  0  0  0  0  0  0  0  0  0  0  0
   21.5297  -21.1570   -9.7555 C   0  0  0  0  0  0  0  0  0  0  0  0
   21.9129  -20.7564   -8.3535 C   0  0  2  0  0  0  0  0  0  0  0  0
   23.3503  -20.5544   -8.2478 N   0  0  0  0  0  0  0  0  0  0  0  0
   21.4353  -21.7824   -7.4151 C   0  0  0  0  0  0  0  0  0  0  0  0
   20.5001  -21.5206   -6.5884 O   0  0  0  0  0  0  0  0  0  0  0  0
   21.9583  -23.0628   -7.3744 O   0  0  0  0  0  0  0  0  0  0  0  0
  2  1  1  6
  3  4  1  0
  3  2  1  0
  4  5  2  0
  6  5  1  0
  7  6  1  0
  8  7  2  0
  9  8  1  0
 10  9  2  0
 10 11  1  0
 11 12  2  0
 12  7  1  0
 12  4  1  0
 13  2  1  0
 13 15  1  0
 14 13  2  0
 16 15  1  0
 16 17  1  1
 18 17  1  0
 18 19  2  0
 20 19  1  0
 21 20  1  0
 22 21  2  0
 23 22  1  0
 24 23  2  0
 24 25  1  0
 25 26  2  0
 26 21  1  0
 26 18  1  0
 27 28  2  0
 27 16  1  0
 29 30  1  0
 30 31  2  0
 30 32  1  0
 33 32  1  6
 33 34  1  0
 33 35  1  0
 34 27  1  0
 35 37  1  0
 36 35  2  0
M  END
$$$$
