WWN.pdb
     RDKit          3D

 37 40  0  0  1  0  0  0  0  0999 V2000
   25.9798  -21.0670  -13.0282 N   0  0  0  0  0  0  0  0  0  0  0  0
   24.8891  -20.4952  -12.2792 C   0  0  1  0  0  0  0  0  0  0  0  0
   23.5578  -20.7082  -12.9686 C   0  0  0  0  0  0  0  0  0  0  0  0
   23.4221  -19.9300  -14.2010 C   0  0  0  0  0  0  0  0  0  0  0  0
   24.2676  -19.9413  -15.2908 C   0  0  0  0  0  0  0  0  0  0  0  0
   23.8141  -19.0908  -16.2296 N   0  0  0  0  0  0  0  0  0  0  0  0
   22.6792  -18.5028  -15.8009 C   0  0  0  0  0  0  0  0  0  0  0  0
   21.8133  -17.5791  -16.3327 C   0  0  0  0  0  0  0  0  0  0  0  0
   20.6937  -17.1381  -15.6609 C   0  0  0  0  0  0  0  0  0  0  0  0
   20.4476  -17.6613  -14.3943 C   0  0  0  0  0  0  0  0  0  0  0  0
   21.3083  -18.5885  -13.8490 C   0  0  0  0  0  0  0  0  0  0  0  0
   22.4210  -19.0134  -14.5407 C   0  0  0  0  0  0  0  0  0  0  0  0
   24.8282  -21.1120  -10.9281 C   0  0  0  0  0  0  0  0  0  0  0  0
   24.9271  -22.3499  -10.8247 O   0  0  0  0  0  0  0  0  0  0  0  0
   24.6606  -20.3150   -9.7645 N   0  0  0  0  0  0  0  0  0  0  0  0
   24.4654  -20.8783   -8.4255 C   0  0  1  0  0  0  0  0  0  0  0  0
   25.2407  -20.0425   -7.4507 C   0  0  0  0  0  0  0  0  0  0  0  0
   26.6875  -20.2310   -7.4436 C   0  0  0  0  0  0  0  0  0  0  0  0
   27.4735  -20.7742   -8.4365 C   0  0  0  0  0  0  0  0  0  0  0  0
   28.7695  -20.7885   -8.0120 N   0  0  0  0  0  0  0  0  0  0  0  0
   28.8501  -20.2761   -6.7848 C   0  0  0  0  0  0  0  0  0  0  0  0
   29.9262  -20.0792   -5.9462 C   0  0  0  0  0  0  0  0  0  0  0  0
   29.7570  -19.5189   -4.6969 C   0  0  0  0  0  0  0  0  0  0  0  0
   28.4750  -19.1672   -4.3269 C   0  0  0  0  0  0  0  0  0  0  0  0
   27.3805  -19.3571   -5.1562 C   0  0  0  0  0  0  0  0  0  0  0  0
   27.5508  -19.9180   -6.4062 C   0  0  0  0  0  0  0  0  0  0  0  0
   23.0395  -21.0373   -8.1453 C   0  0  0  0  0  0  0  0  0  0  0  0
   22.2504  -20.1506   -8.6388 O   0  0  0  0  0  0  0  0  0  0  0  0
   18.2945  -22.8595   -7.6666 N   0  0  0  0  0  0  0  0  0  0  0  0
   19.0879  -22.9124   -8.8699 C   0  0  0  0  0  0  0  0  0  0  0  0
   18.4469  -23.1924   -9.9218 O   0  0  0  0  0  0  0  0  0  0  0  0
   20.5395  -22.6485   -8.8111 C   0  0  0  0  0  0  0  0  0  0  0  0
   20.9954  -22.2862   -7.4205 C   0  0  2  0  0  0  0  0  0  0  0  0
   22.4345  -22.0722   -7.3873 N   0  0  0  0  0  0  0  0  0  0  0  0
   20.5793  -23.3450   -6.4893 C   0  0  0  0  0  0  0  0  0  0  0  0
   19.3450  -23.6296   -6.3402 O   0  0  0  0  0  0  0  0  0  0  0  0
   21.4799  -24.0793   -5.7382 O   0  0  0  0  0  0  0  0  0  0  0  0
  2  1  1  6
  3  4  1  0
  3  2  1  0
  4  5  2  0
  6  5  1  0
  7  6  1  0
  8  7  2  0
  9  8  1  0
 10  9  2  0
 10 11  1  0
 11 12  2  0
 12  7  1  0
 12  4  1  0
 13  2  1  0
 13 15  1  0
 14 13  2  0
 16 15  1  0
 16 17  1  1
 18 17  1  0
 18 19  2  0
 20 19  1  0
 21 20  1  0
 22 21  2  0
 23 22  1  0
 24 23  2  0
 24 25  1  0
 25 26  2  0
 26 21  1  0
 26 18  1  0
 27 28  2  0
 27 16  1  0
 29 30  1  0
 30 31  2  0
 30 32  1  0
 33 32  1  6
 33 34  1  0
 33 35  1  0
 34 27  1  0
 35 37  1  0
 36 35  2  0
M  END
$$$$
