MCG.pdb
     RDKit          3D

 19 18  0  0  1  0  0  0  0  0999 V2000
    8.7588  -11.3340   20.1387 C   0  0  0  0  0  0  0  0  0  0  0  0
    7.5778  -12.3994   19.2361 S   0  0  0  0  0  0  0  0  0  0  0  0
    7.0601  -13.7559   20.3319 C   0  0  0  0  0  0  0  0  0  0  0  0
    8.1914  -14.6956   20.5679 C   0  0  0  0  0  0  0  0  0  0  0  0
    7.8712  -15.8130   21.5590 C   0  0  2  0  0  0  0  0  0  0  0  0
    6.3880  -15.8132   21.5954 N   0  0  0  0  0  0  0  0  0  0  0  0
    8.3403  -15.4486   22.9163 C   0  0  0  0  0  0  0  0  0  0  0  0
    9.5723  -15.4984   23.2106 O   0  0  0  0  0  0  0  0  0  0  0  0
    7.4985  -15.0202   23.9856 N   0  0  0  0  0  0  0  0  0  0  0  0
    7.9206  -15.0655   25.3534 C   0  0  1  0  0  0  0  0  0  0  0  0
    7.1711  -13.9064   26.0525 C   0  0  0  0  0  0  0  0  0  0  0  0
    5.4884  -13.7723   25.4297 S   0  0  0  0  0  0  0  0  0  0  0  0
    7.5988  -16.2689   26.1017 C   0  0  0  0  0  0  0  0  0  0  0  0
    6.3905  -16.6571   26.0705 O   0  0  0  0  0  0  0  0  0  0  0  0
    8.4900  -17.0631   26.8663 N   0  0  0  0  0  0  0  0  0  0  0  0
    8.0654  -18.3021   27.5065 C   0  0  0  0  0  0  0  0  0  0  0  0
    9.2036  -18.8409   28.2738 C   0  0  0  0  0  0  0  0  0  0  0  0
    9.0110  -19.9725   29.0367 O   0  0  0  0  0  0  0  0  0  0  0  0
   10.3288  -18.3031   28.2508 O   0  0  0  0  0  0  0  0  0  0  0  0
  2  1  1  0
  3  2  1  0
  4  3  1  0
  4  5  1  0
  5  6  1  1
  7  5  1  0
  7  8  2  0
  9  7  1  0
 10  9  1  0
 10 11  1  1
 10 13  1  0
 11 12  1  0
 13 15  1  0
 13 14  2  0
 15 16  1  0
 16 17  1  0
 17 19  2  0
 17 18  1  0
M  END
$$$$
