MCG.pdb
     RDKit          3D

 19 18  0  0  1  0  0  0  0  0999 V2000
    8.7401  -11.8919   19.7699 C   0  0  0  0  0  0  0  0  0  0  0  0
    7.1417  -12.7800   19.7983 S   0  0  0  0  0  0  0  0  0  0  0  0
    7.3933  -14.4103   20.5650 C   0  0  0  0  0  0  0  0  0  0  0  0
    8.4621  -14.3399   21.6000 C   0  0  0  0  0  0  0  0  0  0  0  0
    8.7391  -15.6717   22.2950 C   0  0  2  0  0  0  0  0  0  0  0  0
    7.3808  -16.1562   22.6436 N   0  0  0  0  0  0  0  0  0  0  0  0
    9.4622  -15.4482   23.5687 C   0  0  0  0  0  0  0  0  0  0  0  0
   10.6752  -15.0801   23.5687 O   0  0  0  0  0  0  0  0  0  0  0  0
    8.8987  -15.6117   24.8692 N   0  0  0  0  0  0  0  0  0  0  0  0
    9.6846  -15.4952   26.0608 C   0  0  1  0  0  0  0  0  0  0  0  0
    8.9453  -14.4584   26.9399 C   0  0  0  0  0  0  0  0  0  0  0  0
    9.8573  -14.1505   28.4600 S   0  0  0  0  0  0  0  0  0  0  0  0
    9.8277  -16.6908   26.8742 C   0  0  0  0  0  0  0  0  0  0  0  0
    8.7574  -17.2343   27.2873 O   0  0  0  0  0  0  0  0  0  0  0  0
   11.0372  -17.3225   27.2588 N   0  0  0  0  0  0  0  0  0  0  0  0
   11.0523  -18.6018   27.9576 C   0  0  0  0  0  0  0  0  0  0  0  0
   11.5955  -18.3839   29.3111 C   0  0  0  0  0  0  0  0  0  0  0  0
   12.6474  -19.1668   29.7359 O   0  0  0  0  0  0  0  0  0  0  0  0
   11.1314  -17.5155   30.0767 O   0  0  0  0  0  0  0  0  0  0  0  0
  2  1  1  0
  3  2  1  0
  4  3  1  0
  4  5  1  0
  5  6  1  1
  7  5  1  0
  7  8  2  0
  9  7  1  0
 10  9  1  0
 10 11  1  1
 10 13  1  0
 11 12  1  0
 13 15  1  0
 13 14  2  0
 15 16  1  0
 16 17  1  0
 17 19  2  0
 17 18  1  0
M  END
$$$$
