MCG.pdb
     RDKit          3D

 19 18  0  0  1  0  0  0  0  0999 V2000
    6.2815  -11.0437   27.4795 C   0  0  0  0  0  0  0  0  0  0  0  0
    6.9986  -12.2024   26.2597 S   0  0  0  0  0  0  0  0  0  0  0  0
    5.7396  -13.4396   25.8197 C   0  0  0  0  0  0  0  0  0  0  0  0
    6.3823  -14.6583   25.2537 C   0  0  0  0  0  0  0  0  0  0  0  0
    7.9051  -14.6667   25.3726 C   0  0  2  0  0  0  0  0  0  0  0  0
    8.3053  -13.4442   24.6333 N   0  0  0  0  0  0  0  0  0  0  0  0
    8.4732  -15.8234   24.6416 C   0  0  0  0  0  0  0  0  0  0  0  0
    8.1855  -17.0098   24.9830 O   0  0  0  0  0  0  0  0  0  0  0  0
    9.3592  -15.7322   23.5270 N   0  0  0  0  0  0  0  0  0  0  0  0
    9.9386  -16.8911   22.9167 C   0  0  1  0  0  0  0  0  0  0  0  0
   10.2356  -16.4797   21.4550 C   0  0  0  0  0  0  0  0  0  0  0  0
    8.7188  -16.0140   20.6066 S   0  0  0  0  0  0  0  0  0  0  0  0
   11.1954  -17.3670   23.4694 C   0  0  0  0  0  0  0  0  0  0  0  0
   12.2121  -16.6252   23.3026 O   0  0  0  0  0  0  0  0  0  0  0  0
   11.4135  -18.5743   24.1798 N   0  0  0  0  0  0  0  0  0  0  0  0
   12.7217  -18.9296   24.7160 C   0  0  0  0  0  0  0  0  0  0  0  0
   12.5197  -19.7379   25.9327 C   0  0  0  0  0  0  0  0  0  0  0  0
   13.6115  -20.3516   26.5083 O   0  0  0  0  0  0  0  0  0  0  0  0
   11.3944  -19.8800   26.4515 O   0  0  0  0  0  0  0  0  0  0  0  0
  2  1  1  0
  3  2  1  0
  4  3  1  0
  4  5  1  0
  5  6  1  6
  7  5  1  0
  7  8  2  0
  9  7  1  0
 10  9  1  0
 10 11  1  6
 10 13  1  0
 11 12  1  0
 13 15  1  0
 13 14  2  0
 15 16  1  0
 16 17  1  0
 17 19  2  0
 17 18  1  0
M  END
$$$$
