MCG.pdb
     RDKit          3D

 19 18  0  0  1  0  0  0  0  0999 V2000
    7.3435  -11.2690   26.3696 C   0  0  0  0  0  0  0  0  0  0  0  0
    6.5333  -12.3174   27.6302 S   0  0  0  0  0  0  0  0  0  0  0  0
    6.0245  -13.8801   26.8502 C   0  0  0  0  0  0  0  0  0  0  0  0
    7.1152  -14.4099   25.9852 C   0  0  0  0  0  0  0  0  0  0  0  0
    6.7265  -15.6573   25.1938 C   0  0  2  0  0  0  0  0  0  0  0  0
    6.7512  -16.7270   26.2216 N   0  0  0  0  0  0  0  0  0  0  0  0
    7.7748  -15.9845   24.1992 C   0  0  0  0  0  0  0  0  0  0  0  0
    8.6502  -16.8670   24.4476 O   0  0  0  0  0  0  0  0  0  0  0  0
    7.9043  -15.3745   22.9159 N   0  0  0  0  0  0  0  0  0  0  0  0
    8.9163  -15.7694   21.9826 C   0  0  1  0  0  0  0  0  0  0  0  0
    8.5574  -15.0510   20.6601 C   0  0  0  0  0  0  0  0  0  0  0  0
    6.9668  -15.6198   20.0408 S   0  0  0  0  0  0  0  0  0  0  0  0
   10.2837  -15.3894   22.2948 C   0  0  0  0  0  0  0  0  0  0  0  0
   10.5366  -14.1461   22.3405 O   0  0  0  0  0  0  0  0  0  0  0  0
   11.3730  -16.2579   22.5569 N   0  0  0  0  0  0  0  0  0  0  0  0
   12.7152  -15.7551   22.8230 C   0  0  0  0  0  0  0  0  0  0  0  0
   13.5722  -16.8961   23.1946 C   0  0  0  0  0  0  0  0  0  0  0  0
   14.1662  -16.9002   24.4383 O   0  0  0  0  0  0  0  0  0  0  0  0
   13.7726  -17.8515   22.4181 O   0  0  0  0  0  0  0  0  0  0  0  0
  2  1  1  0
  3  2  1  0
  4  3  1  0
  4  5  1  0
  5  6  1  1
  7  5  1  0
  7  8  2  0
  9  7  1  0
 10  9  1  0
 10 11  1  6
 10 13  1  0
 11 12  1  0
 13 15  1  0
 13 14  2  0
 15 16  1  0
 16 17  1  0
 17 19  2  0
 17 18  1  0
M  END
$$$$
