MCG.pdb
     RDKit          3D

 19 18  0  0  1  0  0  0  0  0999 V2000
    4.3618  -17.4354   19.8901 C   0  0  0  0  0  0  0  0  0  0  0  0
    6.1443  -17.6864   20.2132 S   0  0  0  0  0  0  0  0  0  0  0  0
    6.9203  -16.0653   20.4944 C   0  0  0  0  0  0  0  0  0  0  0  0
    6.0222  -15.1902   21.2982 C   0  0  0  0  0  0  0  0  0  0  0  0
    6.6201  -13.8228   21.6241 C   0  0  2  0  0  0  0  0  0  0  0  0
    7.4827  -13.5460   20.4491 N   0  0  0  0  0  0  0  0  0  0  0  0
    7.5097  -13.9171   22.8051 C   0  0  0  0  0  0  0  0  0  0  0  0
    8.7446  -14.1682   22.6672 O   0  0  0  0  0  0  0  0  0  0  0  0
    7.0944  -13.7410   24.1587 N   0  0  0  0  0  0  0  0  0  0  0  0
    8.0012  -13.8794   25.2586 C   0  0  1  0  0  0  0  0  0  0  0  0
    7.2594  -13.2842   26.4790 C   0  0  0  0  0  0  0  0  0  0  0  0
    6.7895  -11.5761   26.1644 S   0  0  0  0  0  0  0  0  0  0  0  0
    8.3809  -15.2314   25.6321 C   0  0  0  0  0  0  0  0  0  0  0  0
    7.5337  -16.1486   25.4024 O   0  0  0  0  0  0  0  0  0  0  0  0
    9.6002  -15.6428   26.2269 N   0  0  0  0  0  0  0  0  0  0  0  0
   10.8917  -15.3731   25.6069 C   0  0  0  0  0  0  0  0  0  0  0  0
   11.3008  -16.5700   24.8490 C   0  0  0  0  0  0  0  0  0  0  0  0
   12.4999  -17.1735   25.1617 O   0  0  0  0  0  0  0  0  0  0  0  0
   10.5951  -17.0476   23.9382 O   0  0  0  0  0  0  0  0  0  0  0  0
  2  1  1  0
  3  2  1  0
  4  3  1  0
  4  5  1  0
  5  6  1  6
  7  5  1  0
  7  8  2  0
  9  7  1  0
 10  9  1  0
 10 11  1  1
 10 13  1  0
 11 12  1  0
 13 15  1  0
 13 14  2  0
 15 16  1  0
 16 17  1  0
 17 19  2  0
 17 18  1  0
M  END
$$$$
