MCG.pdb
     RDKit          3D

 19 18  0  0  1  0  0  0  0  0999 V2000
    6.8897  -11.6491   27.1563 C   0  0  0  0  0  0  0  0  0  0  0  0
    7.0896  -13.1820   26.1791 S   0  0  0  0  0  0  0  0  0  0  0  0
    6.2297  -14.5368   27.0360 C   0  0  0  0  0  0  0  0  0  0  0  0
    6.2206  -15.7642   26.1923 C   0  0  0  0  0  0  0  0  0  0  0  0
    7.6109  -16.3283   25.9058 C   0  0  2  0  0  0  0  0  0  0  0  0
    8.5138  -15.2529   26.3850 N   0  0  0  0  0  0  0  0  0  0  0  0
    7.8242  -16.4576   24.4453 C   0  0  0  0  0  0  0  0  0  0  0  0
    7.2095  -17.3421   23.7770 O   0  0  0  0  0  0  0  0  0  0  0  0
    8.6988  -15.6390   23.6703 N   0  0  0  0  0  0  0  0  0  0  0  0
    9.0934  -15.9916   22.3394 C   0  0  1  0  0  0  0  0  0  0  0  0
    8.7872  -14.7441   21.4769 C   0  0  0  0  0  0  0  0  0  0  0  0
    7.1073  -14.1690   21.7672 S   0  0  0  0  0  0  0  0  0  0  0  0
   10.4982  -16.2978   22.1290 C   0  0  0  0  0  0  0  0  0  0  0  0
   11.3410  -15.5645   22.7321 O   0  0  0  0  0  0  0  0  0  0  0  0
   11.0354  -17.3315   21.3212 N   0  0  0  0  0  0  0  0  0  0  0  0
   12.4601  -17.6402   21.3081 C   0  0  0  0  0  0  0  0  0  0  0  0
   12.7061  -18.6479   20.2600 C   0  0  0  0  0  0  0  0  0  0  0  0
   13.6019  -18.3522   19.2550 O   0  0  0  0  0  0  0  0  0  0  0  0
   12.1288  -19.7535   20.2588 O   0  0  0  0  0  0  0  0  0  0  0  0
  2  1  1  0
  3  2  1  0
  4  3  1  0
  4  5  1  0
  5  6  1  6
  7  5  1  0
  7  8  2  0
  9  7  1  0
 10  9  1  0
 10 11  1  6
 10 13  1  0
 11 12  1  0
 13 15  1  0
 13 14  2  0
 15 16  1  0
 16 17  1  0
 17 19  2  0
 17 18  1  0
M  END
$$$$
