MCG.pdb
     RDKit          3D

 19 18  0  0  1  0  0  0  0  0999 V2000
    9.0289  -11.4288   20.0189 C   0  0  0  0  0  0  0  0  0  0  0  0
    7.5674  -12.2451   19.2825 S   0  0  0  0  0  0  0  0  0  0  0  0
    7.1329  -13.6907   20.2977 C   0  0  0  0  0  0  0  0  0  0  0  0
    8.3629  -14.4007   20.7467 C   0  0  0  0  0  0  0  0  0  0  0  0
    8.0940  -15.5562   21.7088 C   0  0  2  0  0  0  0  0  0  0  0  0
    6.6123  -15.6029   21.7700 N   0  0  0  0  0  0  0  0  0  0  0  0
    8.5757  -15.2182   23.0685 C   0  0  0  0  0  0  0  0  0  0  0  0
    9.8164  -15.1238   23.3110 O   0  0  0  0  0  0  0  0  0  0  0  0
    7.7370  -14.9710   24.1959 N   0  0  0  0  0  0  0  0  0  0  0  0
    8.2472  -14.9419   25.5339 C   0  0  1  0  0  0  0  0  0  0  0  0
    7.4731  -13.8053   26.2433 C   0  0  0  0  0  0  0  0  0  0  0  0
    5.7749  -13.7305   25.6536 S   0  0  0  0  0  0  0  0  0  0  0  0
    8.0488  -16.1347   26.3398 C   0  0  0  0  0  0  0  0  0  0  0  0
    6.8923  -16.6577   26.3142 O   0  0  0  0  0  0  0  0  0  0  0  0
    9.0096  -16.7841   27.1553 N   0  0  0  0  0  0  0  0  0  0  0  0
    8.7162  -18.0313   27.8506 C   0  0  0  0  0  0  0  0  0  0  0  0
    9.9933  -18.6987   28.1637 C   0  0  0  0  0  0  0  0  0  0  0  0
   10.0182  -19.6419   29.1684 O   0  0  0  0  0  0  0  0  0  0  0  0
   11.0449  -18.4339   27.5474 O   0  0  0  0  0  0  0  0  0  0  0  0
  2  1  1  0
  3  2  1  0
  4  3  1  0
  4  5  1  0
  5  6  1  1
  7  5  1  0
  7  8  2  0
  9  7  1  0
 10  9  1  0
 10 11  1  1
 10 13  1  0
 11 12  1  0
 13 15  1  0
 13 14  2  0
 15 16  1  0
 16 17  1  0
 17 19  2  0
 17 18  1  0
M  END
$$$$
