MCG.pdb
     RDKit          3D

 19 18  0  0  1  0  0  0  0  0999 V2000
    6.9646  -16.8767   18.6983 C   0  0  0  0  0  0  0  0  0  0  0  0
    7.1830  -15.4384   17.5901 S   0  0  0  0  0  0  0  0  0  0  0  0
    7.0826  -13.9168   18.5820 C   0  0  0  0  0  0  0  0  0  0  0  0
    7.6773  -14.1336   19.9303 C   0  0  0  0  0  0  0  0  0  0  0  0
    7.5169  -12.9447   20.8758 C   0  0  2  0  0  0  0  0  0  0  0  0
    8.4879  -11.9585   20.3412 N   0  0  0  0  0  0  0  0  0  0  0  0
    7.9688  -13.3057   22.2398 C   0  0  0  0  0  0  0  0  0  0  0  0
    9.1987  -13.4879   22.4874 O   0  0  0  0  0  0  0  0  0  0  0  0
    7.1118  -13.4759   23.3677 N   0  0  0  0  0  0  0  0  0  0  0  0
    7.5850  -14.0039   24.6121 C   0  0  1  0  0  0  0  0  0  0  0  0
    6.6422  -13.4192   25.6907 C   0  0  0  0  0  0  0  0  0  0  0  0
    6.8168  -11.6308   25.7836 S   0  0  0  0  0  0  0  0  0  0  0  0
    7.5426  -15.4474   24.7730 C   0  0  0  0  0  0  0  0  0  0  0  0
    6.3951  -15.9906   24.7717 O   0  0  0  0  0  0  0  0  0  0  0  0
    8.6469  -16.3222   24.9309 N   0  0  0  0  0  0  0  0  0  0  0  0
    9.9750  -15.8340   25.2817 C   0  0  0  0  0  0  0  0  0  0  0  0
   10.8891  -16.9889   25.3533 C   0  0  0  0  0  0  0  0  0  0  0  0
   10.4683  -18.1986   24.8439 O   0  0  0  0  0  0  0  0  0  0  0  0
   12.0257  -16.9008   25.8595 O   0  0  0  0  0  0  0  0  0  0  0  0
  2  1  1  0
  3  2  1  0
  4  3  1  0
  4  5  1  0
  5  6  1  6
  7  5  1  0
  7  8  2  0
  9  7  1  0
 10  9  1  0
 10 11  1  1
 10 13  1  0
 11 12  1  0
 13 15  1  0
 13 14  2  0
 15 16  1  0
 16 17  1  0
 17 19  2  0
 17 18  1  0
M  END
$$$$
