MCG.pdb
     RDKit          3D

 19 18  0  0  1  0  0  0  0  0999 V2000
    6.3483  -11.2531   27.5822 C   0  0  0  0  0  0  0  0  0  0  0  0
    6.7882  -12.4920   26.3109 S   0  0  0  0  0  0  0  0  0  0  0  0
    6.0297  -14.0834   26.7596 C   0  0  0  0  0  0  0  0  0  0  0  0
    6.1986  -15.0704   25.6569 C   0  0  0  0  0  0  0  0  0  0  0  0
    7.6501  -15.4731   25.4039 C   0  0  2  0  0  0  0  0  0  0  0  0
    8.3809  -14.1880   25.5297 N   0  0  0  0  0  0  0  0  0  0  0  0
    7.8209  -15.9364   24.0070 C   0  0  0  0  0  0  0  0  0  0  0  0
    7.2610  -17.0001   23.6046 O   0  0  0  0  0  0  0  0  0  0  0  0
    8.5931  -15.2670   23.0114 N   0  0  0  0  0  0  0  0  0  0  0  0
    8.7897  -15.8150   21.7028 C   0  0  1  0  0  0  0  0  0  0  0  0
    8.4427  -14.6696   20.7222 C   0  0  0  0  0  0  0  0  0  0  0  0
    7.5921  -13.3362   21.5800 S   0  0  0  0  0  0  0  0  0  0  0  0
   10.1357  -16.2464   21.3656 C   0  0  0  0  0  0  0  0  0  0  0  0
   10.3121  -16.7137   20.1984 O   0  0  0  0  0  0  0  0  0  0  0  0
   11.2812  -16.2018   22.1997 N   0  0  0  0  0  0  0  0  0  0  0  0
   12.5150  -16.8978   21.8555 C   0  0  0  0  0  0  0  0  0  0  0  0
   13.5454  -16.5305   22.8443 C   0  0  0  0  0  0  0  0  0  0  0  0
   14.5984  -15.7385   22.4397 O   0  0  0  0  0  0  0  0  0  0  0  0
   13.4897  -16.9150   24.0296 O   0  0  0  0  0  0  0  0  0  0  0  0
  2  1  1  0
  3  2  1  0
  4  3  1  0
  4  5  1  0
  5  6  1  6
  7  5  1  0
  7  8  2  0
  9  7  1  0
 10  9  1  0
 10 11  1  6
 10 13  1  0
 11 12  1  0
 13 15  1  0
 13 14  2  0
 15 16  1  0
 16 17  1  0
 17 19  2  0
 17 18  1  0
M  END
$$$$
