MCG.pdb
     RDKit          3D

 19 18  0  0  1  0  0  0  0  0999 V2000
    8.4786  -11.6837   19.4574 C   0  0  0  0  0  0  0  0  0  0  0  0
    7.6878  -12.9631   18.4171 S   0  0  0  0  0  0  0  0  0  0  0  0
    7.7014  -14.5413   19.3217 C   0  0  0  0  0  0  0  0  0  0  0  0
    8.3844  -14.3827   20.6359 C   0  0  0  0  0  0  0  0  0  0  0  0
    8.5432  -15.6885   21.4123 C   0  0  2  0  0  0  0  0  0  0  0  0
    7.1763  -16.2646   21.3814 N   0  0  0  0  0  0  0  0  0  0  0  0
    8.8662  -15.4091   22.8310 C   0  0  0  0  0  0  0  0  0  0  0  0
   10.0511  -15.1266   23.1818 O   0  0  0  0  0  0  0  0  0  0  0  0
    7.9247  -15.4236   23.9029 N   0  0  0  0  0  0  0  0  0  0  0  0
    8.3108  -15.1795   25.2603 C   0  0  1  0  0  0  0  0  0  0  0  0
    7.0164  -14.7334   25.9810 C   0  0  0  0  0  0  0  0  0  0  0  0
    6.3377  -13.2565   25.2095 S   0  0  0  0  0  0  0  0  0  0  0  0
    8.8261  -16.3116   26.0116 C   0  0  0  0  0  0  0  0  0  0  0  0
    8.0066  -17.2443   26.2764 O   0  0  0  0  0  0  0  0  0  0  0  0
   10.1507  -16.4920   26.4833 N   0  0  0  0  0  0  0  0  0  0  0  0
   10.5401  -17.6592   27.2651 C   0  0  0  0  0  0  0  0  0  0  0  0
   11.5142  -18.4391   26.4794 C   0  0  0  0  0  0  0  0  0  0  0  0
   12.1452  -19.5073   27.0800 O   0  0  0  0  0  0  0  0  0  0  0  0
   11.7806  -18.1596   25.2934 O   0  0  0  0  0  0  0  0  0  0  0  0
  2  1  1  0
  3  2  1  0
  4  3  1  0
  4  5  1  0
  5  6  1  1
  7  5  1  0
  7  8  2  0
  9  7  1  0
 10  9  1  0
 10 11  1  1
 10 13  1  0
 11 12  1  0
 13 15  1  0
 13 14  2  0
 15 16  1  0
 16 17  1  0
 17 19  2  0
 17 18  1  0
M  END
$$$$
