MCG.pdb
     RDKit          3D

 19 18  0  0  1  0  0  0  0  0999 V2000
    7.8650  -11.6320   26.4847 C   0  0  0  0  0  0  0  0  0  0  0  0
    6.7179  -12.4143   27.6750 S   0  0  0  0  0  0  0  0  0  0  0  0
    6.1565  -14.0021   26.9873 C   0  0  0  0  0  0  0  0  0  0  0  0
    7.1659  -14.5435   26.0352 C   0  0  0  0  0  0  0  0  0  0  0  0
    6.7133  -15.8070   25.3058 C   0  0  2  0  0  0  0  0  0  0  0  0
    6.7852  -16.8468   26.3616 N   0  0  0  0  0  0  0  0  0  0  0  0
    7.6952  -16.1789   24.2605 C   0  0  0  0  0  0  0  0  0  0  0  0
    8.4745  -17.1650   24.4256 O   0  0  0  0  0  0  0  0  0  0  0  0
    7.8599  -15.5031   23.0148 N   0  0  0  0  0  0  0  0  0  0  0  0
    8.8909  -15.8570   22.0858 C   0  0  1  0  0  0  0  0  0  0  0  0
    8.4960  -15.1737   20.7549 C   0  0  0  0  0  0  0  0  0  0  0  0
    6.9227  -15.8101   20.1577 S   0  0  0  0  0  0  0  0  0  0  0  0
   10.2370  -15.4039   22.3928 C   0  0  0  0  0  0  0  0  0  0  0  0
   10.3559  -14.2203   22.8364 O   0  0  0  0  0  0  0  0  0  0  0  0
   11.4394  -16.1416   22.2525 N   0  0  0  0  0  0  0  0  0  0  0  0
   12.7288  -15.6037   22.6690 C   0  0  0  0  0  0  0  0  0  0  0  0
   13.7713  -16.5942   22.3424 C   0  0  0  0  0  0  0  0  0  0  0  0
   15.0888  -16.2745   22.5907 O   0  0  0  0  0  0  0  0  0  0  0  0
   13.4941  -17.7064   21.8506 O   0  0  0  0  0  0  0  0  0  0  0  0
  2  1  1  0
  3  2  1  0
  4  3  1  0
  4  5  1  0
  5  6  1  1
  7  5  1  0
  7  8  2  0
  9  7  1  0
 10  9  1  0
 10 11  1  6
 10 13  1  0
 11 12  1  0
 13 15  1  0
 13 14  2  0
 15 16  1  0
 16 17  1  0
 17 19  2  0
 17 18  1  0
M  END
$$$$
