MCG.pdb
     RDKit          3D

 19 18  0  0  1  0  0  0  0  0999 V2000
    9.7248  -14.1966   30.1265 C   0  0  0  0  0  0  0  0  0  0  0  0
    9.9539  -14.6507   28.3698 S   0  0  0  0  0  0  0  0  0  0  0  0
   10.5931  -16.3517   28.2852 C   0  0  0  0  0  0  0  0  0  0  0  0
    9.7641  -17.1744   27.3608 C   0  0  0  0  0  0  0  0  0  0  0  0
    8.2595  -16.9897   27.5488 C   0  0  2  0  0  0  0  0  0  0  0  0
    7.7578  -18.3841   27.6224 N   0  0  0  0  0  0  0  0  0  0  0  0
    7.6605  -16.3743   26.3416 C   0  0  0  0  0  0  0  0  0  0  0  0
    7.3951  -17.0770   25.3204 O   0  0  0  0  0  0  0  0  0  0  0  0
    7.3305  -14.9930   26.2051 N   0  0  0  0  0  0  0  0  0  0  0  0
    7.0075  -14.4078   24.9385 C   0  0  1  0  0  0  0  0  0  0  0  0
    6.6288  -12.9401   25.2494 C   0  0  0  0  0  0  0  0  0  0  0  0
    5.3355  -12.8698   26.4982 S   0  0  0  0  0  0  0  0  0  0  0  0
    8.0700  -14.3535   23.9486 C   0  0  0  0  0  0  0  0  0  0  0  0
    9.1923  -13.9045   24.3368 O   0  0  0  0  0  0  0  0  0  0  0  0
    7.9925  -14.7499   22.5898 N   0  0  0  0  0  0  0  0  0  0  0  0
    9.1222  -14.6107   21.6789 C   0  0  0  0  0  0  0  0  0  0  0  0
    9.8449  -15.8954   21.6373 C   0  0  0  0  0  0  0  0  0  0  0  0
   10.6251  -16.1805   20.5374 O   0  0  0  0  0  0  0  0  0  0  0  0
    9.7693  -16.7256   22.5651 O   0  0  0  0  0  0  0  0  0  0  0  0
  2  1  1  0
  3  2  1  0
  4  3  1  0
  4  5  1  0
  5  6  1  6
  7  5  1  0
  7  8  2  0
  9  7  1  0
 10  9  1  0
 10 11  1  1
 10 13  1  0
 11 12  1  0
 13 15  1  0
 13 14  2  0
 15 16  1  0
 16 17  1  0
 17 19  2  0
 17 18  1  0
M  END
$$$$
