MCG.pdb
     RDKit          3D

 19 18  0  0  1  0  0  0  0  0999 V2000
    7.8120  -11.9711   27.2434 C   0  0  0  0  0  0  0  0  0  0  0  0
    6.2504  -12.4717   26.4337 S   0  0  0  0  0  0  0  0  0  0  0  0
    5.7553  -14.0997   27.0769 C   0  0  0  0  0  0  0  0  0  0  0  0
    5.7679  -15.1159   25.9879 C   0  0  0  0  0  0  0  0  0  0  0  0
    7.0242  -15.9845   25.9666 C   0  0  2  0  0  0  0  0  0  0  0  0
    8.0208  -15.1490   26.6807 N   0  0  0  0  0  0  0  0  0  0  0  0
    7.5117  -16.1524   24.5776 C   0  0  0  0  0  0  0  0  0  0  0  0
    6.9951  -17.0194   23.8105 O   0  0  0  0  0  0  0  0  0  0  0  0
    8.5612  -15.3920   23.9811 N   0  0  0  0  0  0  0  0  0  0  0  0
    9.0600  -15.6788   22.6695 C   0  0  1  0  0  0  0  0  0  0  0  0
    8.7615  -14.4130   21.8314 C   0  0  0  0  0  0  0  0  0  0  0  0
    6.9968  -14.2642   21.5136 S   0  0  0  0  0  0  0  0  0  0  0  0
   10.4874  -15.9215   22.5470 C   0  0  0  0  0  0  0  0  0  0  0  0
   11.2608  -14.9713   22.8798 O   0  0  0  0  0  0  0  0  0  0  0  0
   11.1163  -17.1092   22.0957 N   0  0  0  0  0  0  0  0  0  0  0  0
   12.5660  -17.2256   21.9955 C   0  0  0  0  0  0  0  0  0  0  0  0
   12.8931  -18.6053   21.5905 C   0  0  0  0  0  0  0  0  0  0  0  0
   12.9416  -18.9064   20.2463 O   0  0  0  0  0  0  0  0  0  0  0  0
   13.1255  -19.5011   22.4266 O   0  0  0  0  0  0  0  0  0  0  0  0
  2  1  1  0
  3  2  1  0
  4  3  1  0
  4  5  1  0
  5  6  1  1
  7  5  1  0
  7  8  2  0
  9  7  1  0
 10  9  1  0
 10 11  1  6
 10 13  1  0
 11 12  1  0
 13 15  1  0
 13 14  2  0
 15 16  1  0
 16 17  1  0
 17 19  2  0
 17 18  1  0
M  END
$$$$
