TKF.pdb
     RDKit          3D

 28 28  0  0  1  0  0  0  0  0999 V2000
   21.9651  -16.0540  -16.9769 C   0  0  0  0  0  0  0  0  0  0  0  0
   22.8227  -17.0781  -16.2762 C   0  0  1  0  0  0  0  0  0  0  0  0
   22.0079  -17.9152  -15.5112 O   0  0  0  0  0  0  0  0  0  0  0  0
   23.6233  -17.8682  -17.2908 C   0  0  2  0  0  0  0  0  0  0  0  0
   22.7506  -18.5738  -18.1985 N   0  0  0  0  0  0  0  0  0  0  0  0
   24.5863  -18.8086  -16.6287 C   0  0  0  0  0  0  0  0  0  0  0  0
   24.2249  -19.9601  -16.2726 O   0  0  0  0  0  0  0  0  0  0  0  0
   25.9227  -18.3745  -16.4084 N   0  0  0  0  0  0  0  0  0  0  0  0
   26.9230  -19.2108  -15.7851 C   0  0  1  0  0  0  0  0  0  0  0  0
   28.3228  -18.8500  -16.1439 C   0  0  0  0  0  0  0  0  0  0  0  0
   28.7598  -19.3705  -17.4913 C   0  0  0  0  0  0  0  0  0  0  0  0
   29.0474  -20.8446  -17.4796 C   0  0  0  0  0  0  0  0  0  0  0  0
   29.5101  -21.3157  -18.8363 C   0  0  0  0  0  0  0  0  0  0  0  0
   29.8479  -22.7145  -18.7713 N   0  0  0  0  0  0  0  0  0  0  0  0
   26.7239  -19.2806  -14.3066 C   0  0  0  0  0  0  0  0  0  0  0  0
   26.4817  -18.2203  -13.7039 O   0  0  0  0  0  0  0  0  0  0  0  0
   26.7981  -20.4771  -13.5775 N   0  0  0  0  0  0  0  0  0  0  0  0
   26.4954  -20.5010  -12.1406 C   0  0  1  0  0  0  0  0  0  0  0  0
   25.1930  -19.8311  -11.8575 C   0  0  0  0  0  0  0  0  0  0  0  0
   24.6249  -20.1012  -10.5324 C   0  0  0  0  0  0  0  0  0  0  0  0
   23.3028  -20.4567  -10.3768 C   0  0  0  0  0  0  0  0  0  0  0  0
   22.7484  -20.7266   -9.1405 C   0  0  0  0  0  0  0  0  0  0  0  0
   23.5704  -20.6298   -8.0348 C   0  0  0  0  0  0  0  0  0  0  0  0
   24.9107  -20.2733   -8.1565 C   0  0  0  0  0  0  0  0  0  0  0  0
   25.4284  -20.0101   -9.4176 C   0  0  0  0  0  0  0  0  0  0  0  0
   26.5952  -21.8920  -11.6402 C   0  0  0  0  0  0  0  0  0  0  0  0
   27.2763  -22.1432  -10.6155 O   0  0  0  0  0  0  0  0  0  0  0  0
   25.9263  -22.8906  -12.3223 O   0  0  0  0  0  0  0  0  0  0  0  0
  2  1  1  6
  3  2  1  0
  4  2  1  0
  4  6  1  0
  4  5  1  1
  6  8  1  0
  7  6  2  0
  8  9  1  0
  9 10  1  1
  9 15  1  0
 11 10  1  0
 12 11  1  0
 13 12  1  0
 14 13  1  0
 15 16  2  0
 15 17  1  0
 17 18  1  0
 18 26  1  0
 18 19  1  6
 19 20  1  0
 20 21  2  0
 20 25  1  0
 21 22  1  0
 22 23  2  0
 24 23  1  0
 25 24  2  0
 26 28  1  0
 27 26  2  0
M  END
$$$$
