TKF.pdb
     RDKit          3D

 28 28  0  0  1  0  0  0  0  0999 V2000
   24.8329  -14.7562  -14.6510 C   0  0  0  0  0  0  0  0  0  0  0  0
   23.8416  -14.7682  -15.7878 C   0  0  1  0  0  0  0  0  0  0  0  0
   23.4264  -13.4612  -16.0506 O   0  0  0  0  0  0  0  0  0  0  0  0
   24.4637  -15.4039  -17.0140 C   0  0  2  0  0  0  0  0  0  0  0  0
   23.5984  -15.2650  -18.1609 N   0  0  0  0  0  0  0  0  0  0  0  0
   24.8165  -16.8423  -16.7762 C   0  0  0  0  0  0  0  0  0  0  0  0
   23.9203  -17.7076  -16.5987 O   0  0  0  0  0  0  0  0  0  0  0  0
   26.1892  -17.2143  -16.7539 N   0  0  0  0  0  0  0  0  0  0  0  0
   26.6318  -18.5477  -16.4154 C   0  0  1  0  0  0  0  0  0  0  0  0
   28.0456  -18.8295  -16.7899 C   0  0  0  0  0  0  0  0  0  0  0  0
   28.5354  -20.1854  -16.3439 C   0  0  0  0  0  0  0  0  0  0  0  0
   28.6042  -21.1776  -17.4692 C   0  0  0  0  0  0  0  0  0  0  0  0
   29.1574  -22.4979  -16.9925 C   0  0  0  0  0  0  0  0  0  0  0  0
   29.1455  -23.4455  -18.0774 N   0  0  0  0  0  0  0  0  0  0  0  0
   26.3596  -18.8592  -14.9804 C   0  0  0  0  0  0  0  0  0  0  0  0
   26.5924  -17.9722  -14.1407 O   0  0  0  0  0  0  0  0  0  0  0  0
   25.8590  -20.0954  -14.5446 N   0  0  0  0  0  0  0  0  0  0  0  0
   25.9790  -20.5006  -13.1381 C   0  0  1  0  0  0  0  0  0  0  0  0
   25.2947  -19.5253  -12.2406 C   0  0  0  0  0  0  0  0  0  0  0  0
   25.1974  -19.9302  -10.8341 C   0  0  0  0  0  0  0  0  0  0  0  0
   26.2250  -19.6956   -9.9466 C   0  0  0  0  0  0  0  0  0  0  0  0
   26.1517  -20.0577   -8.6154 C   0  0  0  0  0  0  0  0  0  0  0  0
   24.9953  -20.6762   -8.1824 C   0  0  0  0  0  0  0  0  0  0  0  0
   23.9381  -20.9281   -9.0525 C   0  0  0  0  0  0  0  0  0  0  0  0
   24.0523  -20.5481  -10.3830 C   0  0  0  0  0  0  0  0  0  0  0  0
   25.5213  -21.9019  -12.9895 C   0  0  0  0  0  0  0  0  0  0  0  0
   24.6280  -22.3543  -13.7475 O   0  0  0  0  0  0  0  0  0  0  0  0
   26.0975  -22.6862  -12.0082 O   0  0  0  0  0  0  0  0  0  0  0  0
  2  1  1  1
  3  2  1  0
  4  2  1  0
  4  6  1  0
  4  5  1  6
  6  8  1  0
  7  6  2  0
  8  9  1  0
  9 10  1  1
  9 15  1  0
 11 10  1  0
 12 11  1  0
 13 12  1  0
 14 13  1  0
 15 16  2  0
 15 17  1  0
 17 18  1  0
 18 26  1  0
 18 19  1  1
 19 20  1  0
 20 21  2  0
 20 25  1  0
 21 22  1  0
 22 23  2  0
 24 23  1  0
 25 24  2  0
 26 28  1  0
 27 26  2  0
M  END
$$$$
