TKF.pdb
     RDKit          3D

 28 28  0  0  1  0  0  0  0  0999 V2000
   29.7243  -17.7662  -17.2834 C   0  0  0  0  0  0  0  0  0  0  0  0
   28.7556  -18.3435  -16.2816 C   0  0  1  0  0  0  0  0  0  0  0  0
   28.2404  -17.3130  -15.4926 O   0  0  0  0  0  0  0  0  0  0  0  0
   27.6504  -19.0918  -16.9981 C   0  0  2  0  0  0  0  0  0  0  0  0
   27.0129  -18.2500  -17.9822 N   0  0  0  0  0  0  0  0  0  0  0  0
   26.6452  -19.6532  -16.0367 C   0  0  0  0  0  0  0  0  0  0  0  0
   25.6770  -18.9579  -15.6335 O   0  0  0  0  0  0  0  0  0  0  0  0
   26.8056  -20.9924  -15.5853 N   0  0  0  0  0  0  0  0  0  0  0  0
   25.8554  -21.6411  -14.7108 C   0  0  1  0  0  0  0  0  0  0  0  0
   25.4984  -23.0263  -15.1258 C   0  0  0  0  0  0  0  0  0  0  0  0
   24.2845  -23.1009  -16.0193 C   0  0  0  0  0  0  0  0  0  0  0  0
   22.9967  -23.1439  -15.2477 C   0  0  0  0  0  0  0  0  0  0  0  0
   21.8163  -23.2992  -16.1746 C   0  0  0  0  0  0  0  0  0  0  0  0
   20.6044  -23.3887  -15.4011 N   0  0  0  0  0  0  0  0  0  0  0  0
   26.3026  -21.5805  -13.2872 C   0  0  0  0  0  0  0  0  0  0  0  0
   27.5003  -21.8115  -13.0458 O   0  0  0  0  0  0  0  0  0  0  0  0
   25.4392  -21.2781  -12.2233 N   0  0  0  0  0  0  0  0  0  0  0  0
   25.9143  -21.3235  -10.8343 C   0  0  1  0  0  0  0  0  0  0  0  0
   27.2091  -20.5974  -10.6883 C   0  0  0  0  0  0  0  0  0  0  0  0
   27.6920  -20.4494   -9.3112 C   0  0  0  0  0  0  0  0  0  0  0  0
   28.5402  -21.3755   -8.7442 C   0  0  0  0  0  0  0  0  0  0  0  0
   29.0168  -21.2515   -7.4535 C   0  0  0  0  0  0  0  0  0  0  0  0
   28.6139  -20.1497   -6.7247 C   0  0  0  0  0  0  0  0  0  0  0  0
   27.7579  -19.1950   -7.2670 C   0  0  0  0  0  0  0  0  0  0  0  0
   27.3017  -19.3574   -8.5683 C   0  0  0  0  0  0  0  0  0  0  0  0
   24.8381  -20.8533   -9.9311 C   0  0  0  0  0  0  0  0  0  0  0  0
   24.0540  -19.9473  -10.3072 O   0  0  0  0  0  0  0  0  0  0  0  0
   24.7222  -21.4323   -8.6815 O   0  0  0  0  0  0  0  0  0  0  0  0
  2  1  1  6
  3  2  1  0
  4  2  1  0
  4  6  1  0
  4  5  1  6
  6  8  1  0
  7  6  2  0
  8  9  1  0
  9 10  1  6
  9 15  1  0
 11 10  1  0
 12 11  1  0
 13 12  1  0
 14 13  1  0
 15 16  2  0
 15 17  1  0
 17 18  1  0
 18 26  1  0
 18 19  1  6
 19 20  1  0
 20 21  2  0
 20 25  1  0
 21 22  1  0
 22 23  2  0
 24 23  1  0
 25 24  2  0
 26 28  1  0
 27 26  2  0
M  END
$$$$
