TKF.pdb
     RDKit          3D

 28 28  0  0  1  0  0  0  0  0999 V2000
   16.8863  -12.8556  -17.3556 C   0  0  0  0  0  0  0  0  0  0  0  0
   17.9420  -13.7706  -17.9244 C   0  0  1  0  0  0  0  0  0  0  0  0
   17.4095  -15.0532  -18.0704 O   0  0  0  0  0  0  0  0  0  0  0  0
   18.4416  -13.2293  -19.2480 C   0  0  2  0  0  0  0  0  0  0  0  0
   19.3235  -14.1741  -19.8906 N   0  0  0  0  0  0  0  0  0  0  0  0
   19.1066  -11.8944  -19.0873 C   0  0  0  0  0  0  0  0  0  0  0  0
   20.2742  -11.8045  -18.6267 O   0  0  0  0  0  0  0  0  0  0  0  0
   18.3913  -10.7248  -19.4661 N   0  0  0  0  0  0  0  0  0  0  0  0
   18.9156   -9.3919  -19.2738 C   0  0  1  0  0  0  0  0  0  0  0  0
   18.1222   -8.3264  -19.9473 C   0  0  0  0  0  0  0  0  0  0  0  0
   18.6857   -6.9387  -19.7632 C   0  0  0  0  0  0  0  0  0  0  0  0
   19.4707   -6.4675  -20.9537 C   0  0  0  0  0  0  0  0  0  0  0  0
   20.0114   -5.0769  -20.7285 C   0  0  0  0  0  0  0  0  0  0  0  0
   20.6884   -4.6247  -21.9168 N   0  0  0  0  0  0  0  0  0  0  0  0
   19.1301   -9.0996  -17.8251 C   0  0  0  0  0  0  0  0  0  0  0  0
   18.3317   -9.5937  -17.0099 O   0  0  0  0  0  0  0  0  0  0  0  0
   20.1813   -8.3005  -17.3504 N   0  0  0  0  0  0  0  0  0  0  0  0
   20.3207   -8.0170  -15.9162 C   0  0  1  0  0  0  0  0  0  0  0  0
   21.6995   -8.3303  -15.4410 C   0  0  0  0  0  0  0  0  0  0  0  0
   21.9814   -7.9607  -14.0498 C   0  0  0  0  0  0  0  0  0  0  0  0
   21.9647   -8.8983  -13.0402 C   0  0  0  0  0  0  0  0  0  0  0  0
   22.2378   -8.5761  -11.7249 C   0  0  0  0  0  0  0  0  0  0  0  0
   22.5359   -7.2587  -11.4365 C   0  0  0  0  0  0  0  0  0  0  0  0
   22.5615   -6.2862  -12.4325 C   0  0  0  0  0  0  0  0  0  0  0  0
   22.2810   -6.6522  -13.7421 C   0  0  0  0  0  0  0  0  0  0  0  0
   19.8742   -6.6309  -15.6433 C   0  0  0  0  0  0  0  0  0  0  0  0
   19.1816   -6.3834  -14.6254 O   0  0  0  0  0  0  0  0  0  0  0  0
   20.2372   -5.6323  -16.5270 O   0  0  0  0  0  0  0  0  0  0  0  0
  2  1  1  6
  3  2  1  0
  4  2  1  0
  4  6  1  0
  4  5  1  1
  6  8  1  0
  7  6  2  0
  8  9  1  0
  9 10  1  1
  9 15  1  0
 11 10  1  0
 12 11  1  0
 13 12  1  0
 14 13  1  0
 15 16  2  0
 15 17  1  0
 17 18  1  0
 18 26  1  0
 18 19  1  6
 19 20  1  0
 20 21  2  0
 20 25  1  0
 21 22  1  0
 22 23  2  0
 24 23  1  0
 25 24  2  0
 26 28  1  0
 27 26  2  0
M  END
$$$$
