TKF.pdb
     RDKit          3D

 28 28  0  0  1  0  0  0  0  0999 V2000
   25.5693  -25.4660  -16.4727 C   0  0  0  0  0  0  0  0  0  0  0  0
   25.5720  -24.4085  -15.3970 C   0  0  1  0  0  0  0  0  0  0  0  0
   26.0875  -24.9518  -14.2185 O   0  0  0  0  0  0  0  0  0  0  0  0
   26.3799  -23.2093  -15.8484 C   0  0  2  0  0  0  0  0  0  0  0  0
   27.6747  -23.6162  -16.3398 N   0  0  0  0  0  0  0  0  0  0  0  0
   26.5138  -22.1871  -14.7589 C   0  0  0  0  0  0  0  0  0  0  0  0
   27.6465  -21.8048  -14.3660 O   0  0  0  0  0  0  0  0  0  0  0  0
   25.3323  -21.6541  -14.1732 N   0  0  0  0  0  0  0  0  0  0  0  0
   25.3473  -20.5192  -13.2786 C   0  0  1  0  0  0  0  0  0  0  0  0
   24.0998  -19.7061  -13.3114 C   0  0  0  0  0  0  0  0  0  0  0  0
   22.8444  -20.5234  -13.4939 C   0  0  0  0  0  0  0  0  0  0  0  0
   21.9047  -20.4136  -12.3274 C   0  0  0  0  0  0  0  0  0  0  0  0
   20.6864  -21.2799  -12.5316 C   0  0  0  0  0  0  0  0  0  0  0  0
   19.8074  -21.1505  -11.3978 N   0  0  0  0  0  0  0  0  0  0  0  0
   25.7116  -20.9307  -11.8900 C   0  0  0  0  0  0  0  0  0  0  0  0
   25.4591  -22.0988  -11.5468 O   0  0  0  0  0  0  0  0  0  0  0  0
   26.3187  -20.0656  -10.9671 N   0  0  0  0  0  0  0  0  0  0  0  0
   26.6391  -20.5218   -9.6084 C   0  0  1  0  0  0  0  0  0  0  0  0
   27.8317  -19.8048   -9.0712 C   0  0  0  0  0  0  0  0  0  0  0  0
   28.0981  -20.0146   -7.6441 C   0  0  0  0  0  0  0  0  0  0  0  0
   28.9833  -20.9786   -7.2129 C   0  0  0  0  0  0  0  0  0  0  0  0
   29.2586  -21.1870   -5.8753 C   0  0  0  0  0  0  0  0  0  0  0  0
   28.6099  -20.3867   -4.9554 C   0  0  0  0  0  0  0  0  0  0  0  0
   27.7097  -19.4035   -5.3567 C   0  0  0  0  0  0  0  0  0  0  0  0
   27.4613  -19.2266   -6.7113 C   0  0  0  0  0  0  0  0  0  0  0  0
   25.4283  -20.4271   -8.7598 C   0  0  0  0  0  0  0  0  0  0  0  0
   24.5654  -19.5452   -8.9934 O   0  0  0  0  0  0  0  0  0  0  0  0
   25.2769  -21.3245   -7.7197 O   0  0  0  0  0  0  0  0  0  0  0  0
  2  1  1  6
  3  2  1  0
  4  2  1  0
  4  6  1  0
  4  5  1  1
  6  8  1  0
  7  6  2  0
  8  9  1  0
  9 10  1  1
  9 15  1  0
 11 10  1  0
 12 11  1  0
 13 12  1  0
 14 13  1  0
 15 16  2  0
 15 17  1  0
 17 18  1  0
 18 26  1  0
 18 19  1  1
 19 20  1  0
 20 21  2  0
 20 25  1  0
 21 22  1  0
 22 23  2  0
 24 23  1  0
 25 24  2  0
 26 28  1  0
 27 26  2  0
M  END
$$$$
