TKF.pdb
     RDKit          3D

 28 28  0  0  1  0  0  0  0  0999 V2000
   19.5054  -18.2036  -11.9841 C   0  0  0  0  0  0  0  0  0  0  0  0
   20.8373  -18.7677  -11.5564 C   0  0  1  0  0  0  0  0  0  0  0  0
   20.9730  -18.6302  -10.1735 O   0  0  0  0  0  0  0  0  0  0  0  0
   20.9474  -20.2186  -11.9776 C   0  0  2  0  0  0  0  0  0  0  0  0
   19.9323  -21.0193  -11.3359 N   0  0  0  0  0  0  0  0  0  0  0  0
   22.3166  -20.7717  -11.7143 C   0  0  0  0  0  0  0  0  0  0  0  0
   22.5056  -21.6295  -10.8132 O   0  0  0  0  0  0  0  0  0  0  0  0
   23.4045  -20.3074  -12.5042 N   0  0  0  0  0  0  0  0  0  0  0  0
   24.7418  -20.8417  -12.3831 C   0  0  1  0  0  0  0  0  0  0  0  0
   25.5549  -20.7252  -13.6255 C   0  0  0  0  0  0  0  0  0  0  0  0
   26.9137  -21.3745  -13.5275 C   0  0  0  0  0  0  0  0  0  0  0  0
   27.7133  -21.2428  -14.7920 C   0  0  0  0  0  0  0  0  0  0  0  0
   29.0161  -21.9969  -14.6885 C   0  0  0  0  0  0  0  0  0  0  0  0
   29.7595  -21.8451  -15.9130 N   0  0  0  0  0  0  0  0  0  0  0  0
   25.4463  -20.2705  -11.1967 C   0  0  0  0  0  0  0  0  0  0  0  0
   25.0200  -19.1999  -10.7297 O   0  0  0  0  0  0  0  0  0  0  0  0
   26.5558  -20.8827  -10.5943 N   0  0  0  0  0  0  0  0  0  0  0  0
   27.1823  -20.2960   -9.4025 C   0  0  1  0  0  0  0  0  0  0  0  0
   26.2421  -20.3063   -8.2446 C   0  0  0  0  0  0  0  0  0  0  0  0
   26.8321  -19.9292   -6.9556 C   0  0  0  0  0  0  0  0  0  0  0  0
   27.0788  -20.8672   -5.9769 C   0  0  0  0  0  0  0  0  0  0  0  0
   27.6437  -20.5377   -4.7600 C   0  0  0  0  0  0  0  0  0  0  0  0
   27.9642  -19.2124   -4.5403 C   0  0  0  0  0  0  0  0  0  0  0  0
   27.7285  -18.2393   -5.5076 C   0  0  0  0  0  0  0  0  0  0  0  0
   27.1589  -18.6128   -6.7175 C   0  0  0  0  0  0  0  0  0  0  0  0
   28.4799  -20.9649   -9.1496 C   0  0  0  0  0  0  0  0  0  0  0  0
   29.4845  -20.2842   -8.8262 O   0  0  0  0  0  0  0  0  0  0  0  0
   28.5523  -22.3392   -9.2765 O   0  0  0  0  0  0  0  0  0  0  0  0
  2  1  1  1
  3  2  1  0
  4  2  1  0
  4  6  1  0
  4  5  1  1
  6  8  1  0
  7  6  2  0
  8  9  1  0
  9 10  1  6
  9 15  1  0
 11 10  1  0
 12 11  1  0
 13 12  1  0
 14 13  1  0
 15 16  2  0
 15 17  1  0
 17 18  1  0
 18 26  1  0
 18 19  1  1
 19 20  1  0
 20 21  2  0
 20 25  1  0
 21 22  1  0
 22 23  2  0
 24 23  1  0
 25 24  2  0
 26 28  1  0
 27 26  2  0
M  END
$$$$
