TKF.pdb
     RDKit          3D

 28 28  0  0  1  0  0  0  0  0999 V2000
   29.7890  -21.1789  -18.9112 C   0  0  0  0  0  0  0  0  0  0  0  0
   28.6234  -20.6680  -18.1015 C   0  0  1  0  0  0  0  0  0  0  0  0
   27.4620  -20.7342  -18.8739 O   0  0  0  0  0  0  0  0  0  0  0  0
   28.4822  -21.4741  -16.8268 C   0  0  2  0  0  0  0  0  0  0  0  0
   28.2607  -22.8695  -17.1221 N   0  0  0  0  0  0  0  0  0  0  0  0
   27.3984  -20.9316  -15.9431 C   0  0  0  0  0  0  0  0  0  0  0  0
   27.4637  -19.7625  -15.4824 O   0  0  0  0  0  0  0  0  0  0  0  0
   26.2891  -21.7657  -15.6321 N   0  0  0  0  0  0  0  0  0  0  0  0
   25.2177  -21.3468  -14.7574 C   0  0  1  0  0  0  0  0  0  0  0  0
   23.8844  -21.8992  -15.1258 C   0  0  0  0  0  0  0  0  0  0  0  0
   22.7740  -21.4850  -14.1915 C   0  0  0  0  0  0  0  0  0  0  0  0
   21.4791  -22.1892  -14.4796 C   0  0  0  0  0  0  0  0  0  0  0  0
   20.3782  -21.6857  -13.5790 C   0  0  0  0  0  0  0  0  0  0  0  0
   19.1764  -22.4434  -13.8170 N   0  0  0  0  0  0  0  0  0  0  0  0
   25.5559  -21.6068  -13.3262 C   0  0  0  0  0  0  0  0  0  0  0  0
   26.2171  -22.6264  -13.0630 O   0  0  0  0  0  0  0  0  0  0  0  0
   25.1634  -20.7601  -12.2784 N   0  0  0  0  0  0  0  0  0  0  0  0
   25.7004  -20.9429  -10.9237 C   0  0  1  0  0  0  0  0  0  0  0  0
   26.9770  -20.1913  -10.7489 C   0  0  0  0  0  0  0  0  0  0  0  0
   27.4866  -20.1339   -9.3747 C   0  0  0  0  0  0  0  0  0  0  0  0
   26.9345  -19.2866   -8.4388 C   0  0  0  0  0  0  0  0  0  0  0  0
   27.3901  -19.2231   -7.1362 C   0  0  0  0  0  0  0  0  0  0  0  0
   28.4389  -20.0496   -6.7832 C   0  0  0  0  0  0  0  0  0  0  0  0
   29.0197  -20.9176   -7.7038 C   0  0  0  0  0  0  0  0  0  0  0  0
   28.5317  -20.9503   -9.0032 C   0  0  0  0  0  0  0  0  0  0  0  0
   24.6509  -20.6155   -9.9305 C   0  0  0  0  0  0  0  0  0  0  0  0
   24.7065  -21.1031   -8.7746 O   0  0  0  0  0  0  0  0  0  0  0  0
   23.6245  -19.7697  -10.3062 O   0  0  0  0  0  0  0  0  0  0  0  0
  2  1  1  6
  3  2  1  0
  4  2  1  0
  4  6  1  0
  4  5  1  6
  6  8  1  0
  7  6  2  0
  8  9  1  0
  9 10  1  6
  9 15  1  0
 11 10  1  0
 12 11  1  0
 13 12  1  0
 14 13  1  0
 15 16  2  0
 15 17  1  0
 17 18  1  0
 18 26  1  0
 18 19  1  1
 19 20  1  0
 20 21  2  0
 20 25  1  0
 21 22  1  0
 22 23  2  0
 24 23  1  0
 25 24  2  0
 26 28  1  0
 27 26  2  0
M  END
$$$$
