TKF.pdb
     RDKit          3D

 28 28  0  0  1  0  0  0  0  0999 V2000
   26.6679  -11.1200  -15.1278 C   0  0  0  0  0  0  0  0  0  0  0  0
   26.9583  -11.8385  -16.4219 C   0  0  1  0  0  0  0  0  0  0  0  0
   28.0520  -12.6877  -16.2417 O   0  0  0  0  0  0  0  0  0  0  0  0
   25.7347  -12.6074  -16.8761 C   0  0  2  0  0  0  0  0  0  0  0  0
   26.0436  -13.4418  -18.0127 N   0  0  0  0  0  0  0  0  0  0  0  0
   24.5833  -11.6938  -17.1754 C   0  0  0  0  0  0  0  0  0  0  0  0
   24.6040  -10.9338  -18.1781 O   0  0  0  0  0  0  0  0  0  0  0  0
   23.4610  -11.7004  -16.3016 N   0  0  0  0  0  0  0  0  0  0  0  0
   22.3452  -10.7951  -16.4563 C   0  0  1  0  0  0  0  0  0  0  0  0
   21.0918  -11.2617  -15.8007 C   0  0  0  0  0  0  0  0  0  0  0  0
   19.9116  -10.3477  -16.0224 C   0  0  0  0  0  0  0  0  0  0  0  0
   18.6499  -10.8645  -15.3924 C   0  0  0  0  0  0  0  0  0  0  0  0
   17.4765   -9.9764  -15.7257 C   0  0  0  0  0  0  0  0  0  0  0  0
   16.3101  -10.4312  -15.0131 N   0  0  0  0  0  0  0  0  0  0  0  0
   22.7126   -9.4087  -16.0401 C   0  0  0  0  0  0  0  0  0  0  0  0
   23.2626   -9.2622  -14.9346 O   0  0  0  0  0  0  0  0  0  0  0  0
   22.4660   -8.2780  -16.8336 N   0  0  0  0  0  0  0  0  0  0  0  0
   22.8525   -6.9382  -16.3727 C   0  0  1  0  0  0  0  0  0  0  0  0
   23.7153   -6.2549  -17.3794 C   0  0  0  0  0  0  0  0  0  0  0  0
   23.9810   -4.8364  -17.1166 C   0  0  0  0  0  0  0  0  0  0  0  0
   23.1673   -3.8473  -17.6247 C   0  0  0  0  0  0  0  0  0  0  0  0
   23.3910   -2.5059  -17.3815 C   0  0  0  0  0  0  0  0  0  0  0  0
   24.4768   -2.1692  -16.5972 C   0  0  0  0  0  0  0  0  0  0  0  0
   25.3190   -3.1434  -16.0680 C   0  0  0  0  0  0  0  0  0  0  0  0
   25.0587   -4.4805  -16.3366 C   0  0  0  0  0  0  0  0  0  0  0  0
   21.6383   -6.1822  -15.9861 C   0  0  0  0  0  0  0  0  0  0  0  0
   20.5918   -6.2811  -16.6733 O   0  0  0  0  0  0  0  0  0  0  0  0
   21.6887   -5.3777  -14.8635 O   0  0  0  0  0  0  0  0  0  0  0  0
  2  1  1  1
  3  2  1  0
  4  2  1  0
  4  6  1  0
  4  5  1  6
  6  8  1  0
  7  6  2  0
  8  9  1  0
  9 10  1  1
  9 15  1  0
 11 10  1  0
 12 11  1  0
 13 12  1  0
 14 13  1  0
 15 16  2  0
 15 17  1  0
 17 18  1  0
 18 26  1  0
 18 19  1  6
 19 20  1  0
 20 21  2  0
 20 25  1  0
 21 22  1  0
 22 23  2  0
 24 23  1  0
 25 24  2  0
 26 28  1  0
 27 26  2  0
M  END
$$$$
