TKF.pdb
     RDKit          3D

 28 28  0  0  1  0  0  0  0  0999 V2000
   26.1821  -26.7279  -17.2022 C   0  0  0  0  0  0  0  0  0  0  0  0
   25.6174  -25.4545  -16.6237 C   0  0  1  0  0  0  0  0  0  0  0  0
   25.5241  -25.5807  -15.2362 O   0  0  0  0  0  0  0  0  0  0  0  0
   26.4874  -24.2764  -17.0109 C   0  0  2  0  0  0  0  0  0  0  0  0
   27.8553  -24.4906  -16.6030 N   0  0  0  0  0  0  0  0  0  0  0  0
   25.9558  -22.9872  -16.4582 C   0  0  0  0  0  0  0  0  0  0  0  0
   26.2738  -22.5978  -15.3047 O   0  0  0  0  0  0  0  0  0  0  0  0
   25.0807  -22.2077  -17.2642 N   0  0  0  0  0  0  0  0  0  0  0  0
   24.5546  -20.9313  -16.8370 C   0  0  1  0  0  0  0  0  0  0  0  0
   24.2392  -20.0013  -17.9568 C   0  0  0  0  0  0  0  0  0  0  0  0
   25.4458  -19.2848  -18.5120 C   0  0  0  0  0  0  0  0  0  0  0  0
   25.1137  -18.4137  -19.6895 C   0  0  0  0  0  0  0  0  0  0  0  0
   26.3523  -17.7462  -20.2343 C   0  0  0  0  0  0  0  0  0  0  0  0
   25.9968  -16.9078  -21.3504 N   0  0  0  0  0  0  0  0  0  0  0  0
   23.3959  -21.1070  -15.9114 C   0  0  0  0  0  0  0  0  0  0  0  0
   22.6675  -22.1011  -16.0771 O   0  0  0  0  0  0  0  0  0  0  0  0
   23.0974  -20.2088  -14.8756 N   0  0  0  0  0  0  0  0  0  0  0  0
   21.9257  -20.4173  -14.0150 C   0  0  1  0  0  0  0  0  0  0  0  0
   22.2856  -20.2629  -12.5757 C   0  0  0  0  0  0  0  0  0  0  0  0
   21.1528  -20.2612  -11.6438 C   0  0  0  0  0  0  0  0  0  0  0  0
   20.6018  -19.0844  -11.1854 C   0  0  0  0  0  0  0  0  0  0  0  0
   19.5281  -19.0578  -10.3165 C   0  0  0  0  0  0  0  0  0  0  0  0
   19.0053  -20.2687   -9.9067 C   0  0  0  0  0  0  0  0  0  0  0  0
   19.5378  -21.4760  -10.3506 C   0  0  0  0  0  0  0  0  0  0  0  0
   20.6173  -21.4584  -11.2236 C   0  0  0  0  0  0  0  0  0  0  0  0
   20.8191  -19.5443  -14.4713 C   0  0  0  0  0  0  0  0  0  0  0  0
   21.0710  -18.4165  -14.9630 O   0  0  0  0  0  0  0  0  0  0  0  0
   19.5205  -19.9998  -14.3436 O   0  0  0  0  0  0  0  0  0  0  0  0
  2  1  1  1
  3  2  1  0
  4  2  1  0
  4  6  1  0
  4  5  1  1
  6  8  1  0
  7  6  2  0
  8  9  1  0
  9 10  1  6
  9 15  1  0
 11 10  1  0
 12 11  1  0
 13 12  1  0
 14 13  1  0
 15 16  2  0
 15 17  1  0
 17 18  1  0
 18 26  1  0
 18 19  1  1
 19 20  1  0
 20 21  2  0
 20 25  1  0
 21 22  1  0
 22 23  2  0
 24 23  1  0
 25 24  2  0
 26 28  1  0
 27 26  2  0
M  END
$$$$
