TKF.pdb
     RDKit          3D

 28 28  0  0  1  0  0  0  0  0999 V2000
   28.9418  -22.2598  -15.7887 C   0  0  0  0  0  0  0  0  0  0  0  0
   29.0854  -21.0635  -16.6960 C   0  0  1  0  0  0  0  0  0  0  0  0
   29.9349  -21.3885  -17.7555 O   0  0  0  0  0  0  0  0  0  0  0  0
   27.7251  -20.6244  -17.1975 C   0  0  2  0  0  0  0  0  0  0  0  0
   27.8512  -19.5534  -18.1569 N   0  0  0  0  0  0  0  0  0  0  0  0
   26.8164  -20.2336  -16.0699 C   0  0  0  0  0  0  0  0  0  0  0  0
   26.5692  -19.0238  -15.8277 O   0  0  0  0  0  0  0  0  0  0  0  0
   26.2355  -21.2592  -15.2739 N   0  0  0  0  0  0  0  0  0  0  0  0
   25.2947  -20.9853  -14.2116 C   0  0  1  0  0  0  0  0  0  0  0  0
   23.9004  -21.4140  -14.5123 C   0  0  0  0  0  0  0  0  0  0  0  0
   23.8145  -22.6950  -15.3054 C   0  0  0  0  0  0  0  0  0  0  0  0
   23.5111  -23.8902  -14.4480 C   0  0  0  0  0  0  0  0  0  0  0  0
   23.4107  -25.1429  -15.2831 C   0  0  0  0  0  0  0  0  0  0  0  0
   23.2034  -26.2800  -14.4235 N   0  0  0  0  0  0  0  0  0  0  0  0
   25.7791  -21.5286  -12.9076 C   0  0  0  0  0  0  0  0  0  0  0  0
   26.9117  -22.0410  -12.8782 O   0  0  0  0  0  0  0  0  0  0  0  0
   25.0195  -21.4867  -11.7285 N   0  0  0  0  0  0  0  0  0  0  0  0
   25.6686  -21.3114  -10.4228 C   0  0  1  0  0  0  0  0  0  0  0  0
   26.6197  -20.1626  -10.4487 C   0  0  0  0  0  0  0  0  0  0  0  0
   27.3112  -19.8937   -9.1834 C   0  0  0  0  0  0  0  0  0  0  0  0
   26.7429  -19.1029   -8.2085 C   0  0  0  0  0  0  0  0  0  0  0  0
   27.3700  -18.8447   -7.0049 C   0  0  0  0  0  0  0  0  0  0  0  0
   28.6118  -19.4116   -6.7947 C   0  0  0  0  0  0  0  0  0  0  0  0
   29.2144  -20.2155   -7.7584 C   0  0  0  0  0  0  0  0  0  0  0  0
   28.5501  -20.4500   -8.9548 C   0  0  0  0  0  0  0  0  0  0  0  0
   24.6332  -21.2313   -9.3660 C   0  0  0  0  0  0  0  0  0  0  0  0
   23.6030  -20.5366   -9.5479 O   0  0  0  0  0  0  0  0  0  0  0  0
   24.8297  -21.9334   -8.1920 O   0  0  0  0  0  0  0  0  0  0  0  0
  2  1  1  1
  3  2  1  0
  4  2  1  0
  4  6  1  0
  4  5  1  6
  6  8  1  0
  7  6  2  0
  8  9  1  0
  9 10  1  6
  9 15  1  0
 11 10  1  0
 12 11  1  0
 13 12  1  0
 14 13  1  0
 15 16  2  0
 15 17  1  0
 17 18  1  0
 18 26  1  0
 18 19  1  6
 19 20  1  0
 20 21  2  0
 20 25  1  0
 21 22  1  0
 22 23  2  0
 24 23  1  0
 25 24  2  0
 26 28  1  0
 27 26  2  0
M  END
$$$$
