TKF.pdb
     RDKit          3D

 28 28  0  0  1  0  0  0  0  0999 V2000
   25.6623  -25.4270  -18.9488 C   0  0  0  0  0  0  0  0  0  0  0  0
   25.6394  -24.5259  -17.7394 C   0  0  1  0  0  0  0  0  0  0  0  0
   24.7965  -25.0757  -16.7714 O   0  0  0  0  0  0  0  0  0  0  0  0
   27.0436  -24.3390  -17.2030 C   0  0  2  0  0  0  0  0  0  0  0  0
   27.6255  -25.6066  -16.8310 N   0  0  0  0  0  0  0  0  0  0  0  0
   27.0766  -23.3735  -16.0556 C   0  0  0  0  0  0  0  0  0  0  0  0
   27.3663  -23.7593  -14.8934 O   0  0  0  0  0  0  0  0  0  0  0  0
   26.7728  -22.0064  -16.3042 N   0  0  0  0  0  0  0  0  0  0  0  0
   26.8219  -20.9951  -15.2730 C   0  0  1  0  0  0  0  0  0  0  0  0
   26.9221  -19.6035  -15.7942 C   0  0  0  0  0  0  0  0  0  0  0  0
   28.1859  -19.3344  -16.5738 C   0  0  0  0  0  0  0  0  0  0  0  0
   28.2085  -17.9646  -17.1894 C   0  0  0  0  0  0  0  0  0  0  0  0
   29.4894  -17.7366  -17.9535 C   0  0  0  0  0  0  0  0  0  0  0  0
   29.4163  -16.4794  -18.6527 N   0  0  0  0  0  0  0  0  0  0  0  0
   25.6929  -21.1522  -14.3081 C   0  0  0  0  0  0  0  0  0  0  0  0
   24.5550  -21.3395  -14.7732 O   0  0  0  0  0  0  0  0  0  0  0  0
   25.8593  -21.0974  -12.9160 N   0  0  0  0  0  0  0  0  0  0  0  0
   24.7336  -21.3720  -12.0136 C   0  0  1  0  0  0  0  0  0  0  0  0
   25.2056  -22.0021  -10.7466 C   0  0  0  0  0  0  0  0  0  0  0  0
   26.0468  -21.1501   -9.8992 C   0  0  0  0  0  0  0  0  0  0  0  0
   27.4209  -21.2498   -9.9201 C   0  0  0  0  0  0  0  0  0  0  0  0
   28.2339  -20.4508   -9.1396 C   0  0  0  0  0  0  0  0  0  0  0  0
   27.6229  -19.5255   -8.3161 C   0  0  0  0  0  0  0  0  0  0  0  0
   26.2373  -19.3985   -8.2707 C   0  0  0  0  0  0  0  0  0  0  0  0
   25.4564  -20.2212   -9.0715 C   0  0  0  0  0  0  0  0  0  0  0  0
   23.9388  -20.1354  -11.8289 C   0  0  0  0  0  0  0  0  0  0  0  0
   24.4405  -19.0188  -12.1094 O   0  0  0  0  0  0  0  0  0  0  0  0
   22.6479  -20.2437  -11.3471 O   0  0  0  0  0  0  0  0  0  0  0  0
  2  1  1  6
  3  2  1  0
  4  2  1  0
  4  6  1  0
  4  5  1  1
  6  8  1  0
  7  6  2  0
  8  9  1  0
  9 10  1  6
  9 15  1  0
 11 10  1  0
 12 11  1  0
 13 12  1  0
 14 13  1  0
 15 16  2  0
 15 17  1  0
 17 18  1  0
 18 26  1  0
 18 19  1  1
 19 20  1  0
 20 21  2  0
 20 25  1  0
 21 22  1  0
 22 23  2  0
 24 23  1  0
 25 24  2  0
 26 28  1  0
 27 26  2  0
M  END
$$$$
