TKF.pdb
     RDKit          3D

 28 28  0  0  1  0  0  0  0  0999 V2000
   15.4723  -10.1088  -24.5102 C   0  0  0  0  0  0  0  0  0  0  0  0
   15.7776   -9.9635  -23.0402 C   0  0  1  0  0  0  0  0  0  0  0  0
   15.1642   -8.8068  -22.5547 O   0  0  0  0  0  0  0  0  0  0  0  0
   15.3083  -11.1914  -22.2875 C   0  0  2  0  0  0  0  0  0  0  0  0
   13.8944  -11.4060  -22.4831 N   0  0  0  0  0  0  0  0  0  0  0  0
   15.6444  -11.1109  -20.8279 C   0  0  0  0  0  0  0  0  0  0  0  0
   14.8486  -10.5824  -20.0088 O   0  0  0  0  0  0  0  0  0  0  0  0
   16.8852  -11.6447  -20.3821 N   0  0  0  0  0  0  0  0  0  0  0  0
   17.2769  -11.6540  -18.9911 C   0  0  1  0  0  0  0  0  0  0  0  0
   18.2015  -12.7645  -18.6301 C   0  0  0  0  0  0  0  0  0  0  0  0
   18.5784  -12.7930  -17.1691 C   0  0  0  0  0  0  0  0  0  0  0  0
   17.5758  -13.5259  -16.3244 C   0  0  0  0  0  0  0  0  0  0  0  0
   17.9916  -13.5304  -14.8740 C   0  0  0  0  0  0  0  0  0  0  0  0
   17.0166  -14.2501  -14.0953 N   0  0  0  0  0  0  0  0  0  0  0  0
   17.8084  -10.3233  -18.5706 C   0  0  0  0  0  0  0  0  0  0  0  0
   18.8122   -9.8874  -19.1610 O   0  0  0  0  0  0  0  0  0  0  0  0
   17.2308   -9.5534  -17.5495 N   0  0  0  0  0  0  0  0  0  0  0  0
   17.8422   -8.2870  -17.1264 C   0  0  1  0  0  0  0  0  0  0  0  0
   17.3039   -7.1429  -17.9177 C   0  0  0  0  0  0  0  0  0  0  0  0
   15.8907   -6.8283  -17.6817 C   0  0  0  0  0  0  0  0  0  0  0  0
   15.4965   -6.0526  -16.6133 C   0  0  0  0  0  0  0  0  0  0  0  0
   14.1731   -5.7339  -16.3771 C   0  0  0  0  0  0  0  0  0  0  0  0
   13.2291   -6.2229  -17.2589 C   0  0  0  0  0  0  0  0  0  0  0  0
   13.5932   -7.0093  -18.3485 C   0  0  0  0  0  0  0  0  0  0  0  0
   14.9344   -7.3063  -18.5497 C   0  0  0  0  0  0  0  0  0  0  0  0
   17.7043   -8.1409  -15.6585 C   0  0  0  0  0  0  0  0  0  0  0  0
   17.1244   -9.0324  -14.9906 O   0  0  0  0  0  0  0  0  0  0  0  0
   18.2254   -7.0128  -15.0534 O   0  0  0  0  0  0  0  0  0  0  0  0
  2  1  1  6
  3  2  1  0
  4  2  1  0
  4  6  1  0
  4  5  1  1
  6  8  1  0
  7  6  2  0
  8  9  1  0
  9 10  1  6
  9 15  1  0
 11 10  1  0
 12 11  1  0
 13 12  1  0
 14 13  1  0
 15 16  2  0
 15 17  1  0
 17 18  1  0
 18 26  1  0
 18 19  1  6
 19 20  1  0
 20 21  2  0
 20 25  1  0
 21 22  1  0
 22 23  2  0
 24 23  1  0
 25 24  2  0
 26 28  1  0
 27 26  2  0
M  END
$$$$
