TKF.pdb
     RDKit          3D

 28 28  0  0  1  0  0  0  0  0999 V2000
   28.7373  -21.0340  -16.0384 C   0  0  0  0  0  0  0  0  0  0  0  0
   28.0368  -20.9157  -14.7078 C   0  0  1  0  0  0  0  0  0  0  0  0
   28.9879  -20.9109  -13.6854 O   0  0  0  0  0  0  0  0  0  0  0  0
   27.1894  -19.6605  -14.6757 C   0  0  2  0  0  0  0  0  0  0  0  0
   27.9631  -18.5069  -15.0682 N   0  0  0  0  0  0  0  0  0  0  0  0
   26.5548  -19.4522  -13.3326 C   0  0  0  0  0  0  0  0  0  0  0  0
   26.7386  -18.3871  -12.6883 O   0  0  0  0  0  0  0  0  0  0  0  0
   25.7373  -20.4850  -12.7958 N   0  0  0  0  0  0  0  0  0  0  0  0
   24.9817  -20.3276  -11.5740 C   0  0  1  0  0  0  0  0  0  0  0  0
   23.6680  -21.0295  -11.5801 C   0  0  0  0  0  0  0  0  0  0  0  0
   22.6749  -20.4552  -12.5604 C   0  0  0  0  0  0  0  0  0  0  0  0
   21.3645  -21.1890  -12.5575 C   0  0  0  0  0  0  0  0  0  0  0  0
   20.3920  -20.5624  -13.5261 C   0  0  0  0  0  0  0  0  0  0  0  0
   19.1476  -21.2873  -13.4966 N   0  0  0  0  0  0  0  0  0  0  0  0
   25.8038  -20.6876  -10.3803 C   0  0  0  0  0  0  0  0  0  0  0  0
   26.5741  -21.6587  -10.4788 O   0  0  0  0  0  0  0  0  0  0  0  0
   25.7442  -19.9855   -9.1669 N   0  0  0  0  0  0  0  0  0  0  0  0
   26.5792  -20.3845   -8.0265 C   0  0  1  0  0  0  0  0  0  0  0  0
   27.5332  -19.2990   -7.6569 C   0  0  0  0  0  0  0  0  0  0  0  0
   28.2616  -19.5065   -6.4007 C   0  0  0  0  0  0  0  0  0  0  0  0
   29.3895  -20.2962   -6.3467 C   0  0  0  0  0  0  0  0  0  0  0  0
   30.0982  -20.4972   -5.1781 C   0  0  0  0  0  0  0  0  0  0  0  0
   29.6392  -19.8728   -4.0348 C   0  0  0  0  0  0  0  0  0  0  0  0
   28.5031  -19.0683   -4.0543 C   0  0  0  0  0  0  0  0  0  0  0  0
   27.8198  -18.8923   -5.2500 C   0  0  0  0  0  0  0  0  0  0  0  0
   25.7104  -20.8459   -6.9187 C   0  0  0  0  0  0  0  0  0  0  0  0
   24.4881  -20.5575   -6.9176 O   0  0  0  0  0  0  0  0  0  0  0  0
   26.2744  -21.5928   -5.9018 O   0  0  0  0  0  0  0  0  0  0  0  0
  2  1  1  6
  3  2  1  0
  4  2  1  0
  4  6  1  0
  4  5  1  1
  6  8  1  0
  7  6  2  0
  8  9  1  0
  9 10  1  6
  9 15  1  0
 11 10  1  0
 12 11  1  0
 13 12  1  0
 14 13  1  0
 15 16  2  0
 15 17  1  0
 17 18  1  0
 18 26  1  0
 18 19  1  1
 19 20  1  0
 20 21  2  0
 20 25  1  0
 21 22  1  0
 22 23  2  0
 24 23  1  0
 25 24  2  0
 26 28  1  0
 27 26  2  0
M  END
$$$$
