TKF.pdb
     RDKit          3D

 28 28  0  0  1  0  0  0  0  0999 V2000
   25.1722  -11.1736  -14.6792 C   0  0  0  0  0  0  0  0  0  0  0  0
   25.7620  -11.3371  -16.0578 C   0  0  1  0  0  0  0  0  0  0  0  0
   26.8071  -12.2617  -16.0048 O   0  0  0  0  0  0  0  0  0  0  0  0
   24.6897  -11.7755  -17.0338 C   0  0  2  0  0  0  0  0  0  0  0  0
   25.2604  -12.0742  -18.3256 N   0  0  0  0  0  0  0  0  0  0  0  0
   23.5945  -10.7573  -17.1510 C   0  0  0  0  0  0  0  0  0  0  0  0
   23.7119   -9.7660  -17.9171 O   0  0  0  0  0  0  0  0  0  0  0  0
   22.4142  -10.9315  -16.3767 N   0  0  0  0  0  0  0  0  0  0  0  0
   21.3333   -9.9722  -16.3735 C   0  0  1  0  0  0  0  0  0  0  0  0
   19.9806  -10.5840  -16.4923 C   0  0  0  0  0  0  0  0  0  0  0  0
   19.7280  -11.2505  -17.8224 C   0  0  0  0  0  0  0  0  0  0  0  0
   19.4995  -12.7296  -17.6973 C   0  0  0  0  0  0  0  0  0  0  0  0
   19.2518  -13.3543  -19.0483 C   0  0  0  0  0  0  0  0  0  0  0  0
   17.9453  -13.9605  -19.0667 N   0  0  0  0  0  0  0  0  0  0  0  0
   21.4312   -9.0521  -15.2012 C   0  0  0  0  0  0  0  0  0  0  0  0
   21.7891   -9.5360  -14.1132 O   0  0  0  0  0  0  0  0  0  0  0  0
   21.1394   -7.6816  -15.2743 N   0  0  0  0  0  0  0  0  0  0  0  0
   21.5336   -6.7710  -14.1916 C   0  0  1  0  0  0  0  0  0  0  0  0
   23.0150   -6.7578  -14.0170 C   0  0  0  0  0  0  0  0  0  0  0  0
   23.7757   -6.2439  -15.1611 C   0  0  0  0  0  0  0  0  0  0  0  0
   24.4631   -7.0894  -16.0045 C   0  0  0  0  0  0  0  0  0  0  0  0
   25.1770   -6.6298  -17.0942 C   0  0  0  0  0  0  0  0  0  0  0  0
   25.1867   -5.2683  -17.3259 C   0  0  0  0  0  0  0  0  0  0  0  0
   24.5029   -4.3862  -16.4937 C   0  0  0  0  0  0  0  0  0  0  0  0
   23.7975   -4.8895  -15.4090 C   0  0  0  0  0  0  0  0  0  0  0  0
   20.9280   -5.4391  -14.4245 C   0  0  0  0  0  0  0  0  0  0  0  0
   21.0611   -4.5304  -13.5679 O   0  0  0  0  0  0  0  0  0  0  0  0
   20.2238   -5.2273  -15.5947 O   0  0  0  0  0  0  0  0  0  0  0  0
  2  1  1  1
  3  2  1  0
  4  2  1  0
  4  6  1  0
  4  5  1  6
  6  8  1  0
  7  6  2  0
  8  9  1  0
  9 10  1  1
  9 15  1  0
 11 10  1  0
 12 11  1  0
 13 12  1  0
 14 13  1  0
 15 16  2  0
 15 17  1  0
 17 18  1  0
 18 26  1  0
 18 19  1  6
 19 20  1  0
 20 21  2  0
 20 25  1  0
 21 22  1  0
 22 23  2  0
 24 23  1  0
 25 24  2  0
 26 28  1  0
 27 26  2  0
M  END
$$$$
