NEK.pdb
     RDKit          3D

 27 26  0  0  1  0  0  0  0  0999 V2000
    8.6801  -17.4677   13.0253 N   0  0  0  0  0  0  0  0  0  0  0  0
    9.9030  -17.0536   13.5726 C   0  0  0  0  0  0  0  0  0  0  0  0
   10.9332  -16.7752   12.8981 O   0  0  0  0  0  0  0  0  0  0  0  0
   10.0266  -16.9253   15.0474 C   0  0  0  0  0  0  0  0  0  0  0  0
   11.2838  -17.5930   15.5771 C   0  0  2  0  0  0  0  0  0  0  0  0
   11.2104  -19.0369   15.4215 N   0  0  0  0  0  0  0  0  0  0  0  0
   11.3485  -17.2621   17.0378 C   0  0  0  0  0  0  0  0  0  0  0  0
   11.6582  -16.0735   17.3731 O   0  0  0  0  0  0  0  0  0  0  0  0
   11.0622  -18.2773   18.0192 N   0  0  0  0  0  0  0  0  0  0  0  0
   11.1740  -17.9387   19.3880 C   0  0  1  0  0  0  0  0  0  0  0  0
   10.5908  -19.0932   20.2026 C   0  0  0  0  0  0  0  0  0  0  0  0
   10.5940  -18.7677   21.6803 C   0  0  0  0  0  0  0  0  0  0  0  0
   10.1142  -19.9548   22.4103 C   0  0  0  0  0  0  0  0  0  0  0  0
   10.9421  -20.7114   22.9692 O   0  0  0  0  0  0  0  0  0  0  0  0
   12.5007  -17.6769   19.9169 C   0  0  0  0  0  0  0  0  0  0  0  0
   13.3502  -18.6278   19.8198 O   0  0  0  0  0  0  0  0  0  0  0  0
    8.7695  -20.2287   22.4804 O   0  0  0  0  0  0  0  0  0  0  0  0
   12.9563  -16.5095   20.5181 N   0  0  0  0  0  0  0  0  0  0  0  0
   14.3705  -16.4449   21.0570 C   0  0  1  0  0  0  0  0  0  0  0  0
   14.8274  -15.1171   20.5878 C   0  0  0  0  0  0  0  0  0  0  0  0
   15.7995  -14.9112   19.5287 C   0  0  0  0  0  0  0  0  0  0  0  0
   16.0940  -13.5258   19.1207 C   0  0  0  0  0  0  0  0  0  0  0  0
   17.0371  -13.4895   17.8993 C   0  0  0  0  0  0  0  0  0  0  0  0
   17.3022  -12.1107   17.5502 N   0  0  0  0  0  0  0  0  0  0  0  0
   14.1274  -16.5837   22.5134 C   0  0  0  0  0  0  0  0  0  0  0  0
   15.0006  -16.9090   23.3490 O   0  0  0  0  0  0  0  0  0  0  0  0
   12.8537  -16.3500   23.0767 O   0  0  0  0  0  0  0  0  0  0  0  0
  2  1  1  0
  3  2  2  0
  4  5  1  0
  4  2  1  0
  5  6  1  1
  7  8  2  0
  7  5  1  0
  9  7  1  0
 10  9  1  0
 10 11  1  1
 11 12  1  0
 12 13  1  0
 13 17  1  0
 14 13  2  0
 15 10  1  0
 16 15  2  0
 18 15  1  0
 19 20  1  1
 19 18  1  0
 20 21  1  0
 22 21  1  0
 23 22  1  0
 24 23  1  0
 25 27  1  0
 25 19  1  0
 26 25  2  0
M  END
$$$$
