NEK.pdb
     RDKit          3D

 27 26  0  0  1  0  0  0  0  0999 V2000
    6.0962  -13.4151   18.4933 N   0  0  0  0  0  0  0  0  0  0  0  0
    7.1821  -13.7574   17.6745 C   0  0  0  0  0  0  0  0  0  0  0  0
    7.2904  -13.4409   16.4572 O   0  0  0  0  0  0  0  0  0  0  0  0
    8.2989  -14.5492   18.2512 C   0  0  0  0  0  0  0  0  0  0  0  0
    9.2913  -13.6776   19.0014 C   0  0  2  0  0  0  0  0  0  0  0  0
    9.8504  -12.6576   18.1288 N   0  0  0  0  0  0  0  0  0  0  0  0
   10.3913  -14.5908   19.4524 C   0  0  0  0  0  0  0  0  0  0  0  0
   10.0736  -15.6554   20.0742 O   0  0  0  0  0  0  0  0  0  0  0  0
   11.7647  -14.2538   19.1771 N   0  0  0  0  0  0  0  0  0  0  0  0
   12.7727  -15.1591   19.5834 C   0  0  1  0  0  0  0  0  0  0  0  0
   14.0404  -14.8289   18.7957 C   0  0  0  0  0  0  0  0  0  0  0  0
   13.8961  -15.2341   17.3449 C   0  0  0  0  0  0  0  0  0  0  0  0
   15.1306  -14.8483   16.6382 C   0  0  0  0  0  0  0  0  0  0  0  0
   15.1176  -14.7372   15.3900 O   0  0  0  0  0  0  0  0  0  0  0  0
   13.1417  -15.1795   20.9876 C   0  0  0  0  0  0  0  0  0  0  0  0
   13.4989  -14.0630   21.4988 O   0  0  0  0  0  0  0  0  0  0  0  0
   16.2863  -14.6094   17.3419 O   0  0  0  0  0  0  0  0  0  0  0  0
   13.1518  -16.2745   21.8437 N   0  0  0  0  0  0  0  0  0  0  0  0
   13.5412  -16.0890   23.2957 C   0  0  1  0  0  0  0  0  0  0  0  0
   12.7808  -17.1672   23.9673 C   0  0  0  0  0  0  0  0  0  0  0  0
   12.7846  -17.4036   25.4002 C   0  0  0  0  0  0  0  0  0  0  0  0
   12.0054  -18.5442   25.9144 C   0  0  0  0  0  0  0  0  0  0  0  0
   12.2047  -18.7193   27.4351 C   0  0  0  0  0  0  0  0  0  0  0  0
   11.3257  -19.7669   27.9074 N   0  0  0  0  0  0  0  0  0  0  0  0
   15.0120  -16.2648   23.2213 C   0  0  0  0  0  0  0  0  0  0  0  0
   15.6015  -16.9328   22.3422 O   0  0  0  0  0  0  0  0  0  0  0  0
   15.8772  -15.6711   24.1664 O   0  0  0  0  0  0  0  0  0  0  0  0
  2  1  1  0
  3  2  2  0
  4  5  1  0
  4  2  1  0
  5  6  1  6
  7  8  2  0
  7  5  1  0
  9  7  1  0
 10  9  1  0
 10 11  1  6
 11 12  1  0
 12 13  1  0
 13 17  1  0
 14 13  2  0
 15 10  1  0
 16 15  2  0
 18 15  1  0
 19 20  1  1
 19 18  1  0
 20 21  1  0
 22 21  1  0
 23 22  1  0
 24 23  1  0
 25 27  1  0
 25 19  1  0
 26 25  2  0
M  END
$$$$
