NEK.pdb
     RDKit          3D

 27 26  0  0  1  0  0  0  0  0999 V2000
    9.0127  -13.0107   17.1050 N   0  0  0  0  0  0  0  0  0  0  0  0
    9.0988  -12.5001   18.4082 C   0  0  0  0  0  0  0  0  0  0  0  0
    9.2481  -11.2791   18.6919 O   0  0  0  0  0  0  0  0  0  0  0  0
    9.0129  -13.4377   19.5573 C   0  0  0  0  0  0  0  0  0  0  0  0
    8.9039  -14.8848   19.1090 C   0  0  2  0  0  0  0  0  0  0  0  0
    7.6235  -15.1347   18.4666 N   0  0  0  0  0  0  0  0  0  0  0  0
    8.9962  -15.7155   20.3534 C   0  0  0  0  0  0  0  0  0  0  0  0
    7.9331  -15.9146   21.0251 O   0  0  0  0  0  0  0  0  0  0  0  0
   10.2644  -16.2659   20.7589 N   0  0  0  0  0  0  0  0  0  0  0  0
   10.3030  -17.0859   21.9108 C   0  0  1  0  0  0  0  0  0  0  0  0
   11.5418  -17.9756   21.8079 C   0  0  0  0  0  0  0  0  0  0  0  0
   11.6058  -18.9488   22.9648 C   0  0  0  0  0  0  0  0  0  0  0  0
   12.7648  -19.8343   22.7528 C   0  0  0  0  0  0  0  0  0  0  0  0
   13.5828  -20.0133   23.6852 O   0  0  0  0  0  0  0  0  0  0  0  0
   10.3581  -16.4342   23.2072 C   0  0  0  0  0  0  0  0  0  0  0  0
   11.3821  -15.7026   23.4337 O   0  0  0  0  0  0  0  0  0  0  0  0
   12.9461  -20.4614   21.5437 O   0  0  0  0  0  0  0  0  0  0  0  0
    9.4243  -16.5130   24.2338 N   0  0  0  0  0  0  0  0  0  0  0  0
    9.6291  -15.7053   25.4987 C   0  0  1  0  0  0  0  0  0  0  0  0
    8.2738  -15.1661   25.7524 C   0  0  0  0  0  0  0  0  0  0  0  0
    7.9447  -13.7518   25.7751 C   0  0  0  0  0  0  0  0  0  0  0  0
    6.5495  -13.3715   26.0602 C   0  0  0  0  0  0  0  0  0  0  0  0
    6.3678  -11.8389   26.0251 C   0  0  0  0  0  0  0  0  0  0  0  0
    4.9746  -11.5247   26.2563 N   0  0  0  0  0  0  0  0  0  0  0  0
   10.1089  -16.7534   26.4318 C   0  0  0  0  0  0  0  0  0  0  0  0
   10.6120  -16.5249   27.5549 O   0  0  0  0  0  0  0  0  0  0  0  0
   10.0280  -18.1256   26.1085 O   0  0  0  0  0  0  0  0  0  0  0  0
  2  1  1  0
  3  2  2  0
  4  5  1  0
  4  2  1  0
  5  6  1  1
  7  8  2  0
  7  5  1  0
  9  7  1  0
 10  9  1  0
 10 11  1  6
 11 12  1  0
 12 13  1  0
 13 17  1  0
 14 13  2  0
 15 10  1  0
 16 15  2  0
 18 15  1  0
 19 20  1  1
 19 18  1  0
 20 21  1  0
 22 21  1  0
 23 22  1  0
 24 23  1  0
 25 27  1  0
 25 19  1  0
 26 25  2  0
M  END
$$$$
