NEK.pdb
     RDKit          3D

 27 26  0  0  1  0  0  0  0  0999 V2000
    6.6654  -18.2604   16.4650 N   0  0  0  0  0  0  0  0  0  0  0  0
    7.5880  -17.4543   17.1474 C   0  0  0  0  0  0  0  0  0  0  0  0
    8.5862  -16.8962   16.6128 O   0  0  0  0  0  0  0  0  0  0  0  0
    7.4053  -17.2231   18.6034 C   0  0  0  0  0  0  0  0  0  0  0  0
    8.4233  -16.2428   19.1599 C   0  0  2  0  0  0  0  0  0  0  0  0
    9.7177  -16.4193   18.5212 N   0  0  0  0  0  0  0  0  0  0  0  0
    8.5521  -16.5584   20.6197 C   0  0  0  0  0  0  0  0  0  0  0  0
    7.5196  -16.4402   21.3551 O   0  0  0  0  0  0  0  0  0  0  0  0
    9.8202  -16.9844   21.1548 N   0  0  0  0  0  0  0  0  0  0  0  0
    9.9111  -17.2416   22.5428 C   0  0  1  0  0  0  0  0  0  0  0  0
   11.2165  -17.9967   22.7921 C   0  0  0  0  0  0  0  0  0  0  0  0
   11.2246  -19.3194   22.0570 C   0  0  0  0  0  0  0  0  0  0  0  0
   12.5585  -19.9245   22.2208 C   0  0  0  0  0  0  0  0  0  0  0  0
   13.2690  -20.1338   21.2100 O   0  0  0  0  0  0  0  0  0  0  0  0
    9.9019  -16.1049   23.4463 C   0  0  0  0  0  0  0  0  0  0  0  0
   10.7453  -15.1756   23.2008 O   0  0  0  0  0  0  0  0  0  0  0  0
   13.0212  -20.2543   23.4719 O   0  0  0  0  0  0  0  0  0  0  0  0
    9.0805  -15.9087   24.5503 N   0  0  0  0  0  0  0  0  0  0  0  0
    9.2002  -14.6328   25.3579 C   0  0  1  0  0  0  0  0  0  0  0  0
    7.8680  -14.0144   25.1715 C   0  0  0  0  0  0  0  0  0  0  0  0
    7.4560  -12.7575   25.7710 C   0  0  0  0  0  0  0  0  0  0  0  0
    6.0189  -12.4301   25.7710 C   0  0  0  0  0  0  0  0  0  0  0  0
    5.7544  -11.0672   26.4459 C   0  0  0  0  0  0  0  0  0  0  0  0
    4.3260  -10.8532   26.5304 N   0  0  0  0  0  0  0  0  0  0  0  0
    9.4943  -15.1755   26.7065 C   0  0  0  0  0  0  0  0  0  0  0  0
    9.4121  -14.5172   27.7678 O   0  0  0  0  0  0  0  0  0  0  0  0
    9.8993  -16.5154   26.8930 O   0  0  0  0  0  0  0  0  0  0  0  0
  2  1  1  0
  3  2  2  0
  4  5  1  0
  4  2  1  0
  5  6  1  6
  7  8  2  0
  7  5  1  0
  9  7  1  0
 10  9  1  0
 10 11  1  6
 11 12  1  0
 12 13  1  0
 13 17  1  0
 14 13  2  0
 15 10  1  0
 16 15  2  0
 18 15  1  0
 19 20  1  1
 19 18  1  0
 20 21  1  0
 22 21  1  0
 23 22  1  0
 24 23  1  0
 25 27  1  0
 25 19  1  0
 26 25  2  0
M  END
$$$$
