NEK.pdb
     RDKit          3D

 27 26  0  0  1  0  0  0  0  0999 V2000
    7.8183  -18.9893   15.4956 N   0  0  0  0  0  0  0  0  0  0  0  0
    7.3591  -19.1957   16.8045 C   0  0  0  0  0  0  0  0  0  0  0  0
    6.1439  -19.1978   17.1464 O   0  0  0  0  0  0  0  0  0  0  0  0
    8.3487  -19.4300   17.8874 C   0  0  0  0  0  0  0  0  0  0  0  0
    8.7639  -18.1397   18.5729 C   0  0  2  0  0  0  0  0  0  0  0  0
    9.1675  -17.1396   17.5975 N   0  0  0  0  0  0  0  0  0  0  0  0
    9.9413  -18.4847   19.4342 C   0  0  0  0  0  0  0  0  0  0  0  0
    9.7723  -19.3215   20.3787 O   0  0  0  0  0  0  0  0  0  0  0  0
   11.2218  -17.8749   19.1807 N   0  0  0  0  0  0  0  0  0  0  0  0
   12.3148  -18.2430   19.9997 C   0  0  1  0  0  0  0  0  0  0  0  0
   13.5964  -17.8063   19.2900 C   0  0  0  0  0  0  0  0  0  0  0  0
   14.8168  -18.3772   19.9786 C   0  0  0  0  0  0  0  0  0  0  0  0
   16.0114  -17.9063   19.2552 C   0  0  0  0  0  0  0  0  0  0  0  0
   16.8845  -17.2489   19.8684 O   0  0  0  0  0  0  0  0  0  0  0  0
   12.3702  -17.6976   21.3443 C   0  0  0  0  0  0  0  0  0  0  0  0
   12.2725  -16.4268   21.4478 O   0  0  0  0  0  0  0  0  0  0  0  0
   16.1687  -18.1878   17.9195 O   0  0  0  0  0  0  0  0  0  0  0  0
   12.5172  -18.3982   22.5357 N   0  0  0  0  0  0  0  0  0  0  0  0
   12.4478  -17.6581   23.8555 C   0  0  1  0  0  0  0  0  0  0  0  0
   12.0493  -18.7284   24.7976 C   0  0  0  0  0  0  0  0  0  0  0  0
   11.9658  -18.5639   26.2381 C   0  0  0  0  0  0  0  0  0  0  0  0
   11.6105  -19.7425   27.0488 C   0  0  0  0  0  0  0  0  0  0  0  0
   11.5470  -19.3915   28.5507 C   0  0  0  0  0  0  0  0  0  0  0  0
   11.0321  -20.5307   29.2789 N   0  0  0  0  0  0  0  0  0  0  0  0
   13.8384  -17.1565   23.9747 C   0  0  0  0  0  0  0  0  0  0  0  0
   14.8472  -17.7571   23.5410 O   0  0  0  0  0  0  0  0  0  0  0  0
   14.1302  -15.9268   24.6046 O   0  0  0  0  0  0  0  0  0  0  0  0
  2  1  1  0
  3  2  2  0
  4  5  1  0
  4  2  1  0
  5  6  1  6
  7  8  2  0
  7  5  1  0
  9  7  1  0
 10  9  1  0
 10 11  1  6
 11 12  1  0
 12 13  1  0
 13 17  1  0
 14 13  2  0
 15 10  1  0
 16 15  2  0
 18 15  1  0
 19 20  1  1
 19 18  1  0
 20 21  1  0
 22 21  1  0
 23 22  1  0
 24 23  1  0
 25 27  1  0
 25 19  1  0
 26 25  2  0
M  END
$$$$
