NEK.pdb
     RDKit          3D

 27 26  0  0  1  0  0  0  0  0999 V2000
    7.0167  -14.7092   15.2609 N   0  0  0  0  0  0  0  0  0  0  0  0
    7.9272  -14.0869   16.1271 C   0  0  0  0  0  0  0  0  0  0  0  0
    9.0220  -13.5714   15.7674 O   0  0  0  0  0  0  0  0  0  0  0  0
    7.6098  -14.0146   17.5765 C   0  0  0  0  0  0  0  0  0  0  0  0
    8.8548  -13.8320   18.4272 C   0  0  2  0  0  0  0  0  0  0  0  0
   10.0320  -14.3403   17.7413 N   0  0  0  0  0  0  0  0  0  0  0  0
    8.6308  -14.6351   19.6730 C   0  0  0  0  0  0  0  0  0  0  0  0
    7.5792  -14.4095   20.3544 O   0  0  0  0  0  0  0  0  0  0  0  0
    9.5923  -15.6323   20.0690 N   0  0  0  0  0  0  0  0  0  0  0  0
    9.3431  -16.3750   21.2469 C   0  0  1  0  0  0  0  0  0  0  0  0
   10.2849  -17.5790   21.2463 C   0  0  0  0  0  0  0  0  0  0  0  0
    9.9304  -18.5419   20.1342 C   0  0  0  0  0  0  0  0  0  0  0  0
   10.8863  -19.6629   20.1789 C   0  0  0  0  0  0  0  0  0  0  0  0
   11.5030  -19.9893   19.1380 O   0  0  0  0  0  0  0  0  0  0  0  0
    9.5169  -15.7038   22.5227 C   0  0  0  0  0  0  0  0  0  0  0  0
   10.5767  -15.0008   22.6565 O   0  0  0  0  0  0  0  0  0  0  0  0
   11.1023  -20.3432   21.3530 O   0  0  0  0  0  0  0  0  0  0  0  0
    8.6628  -15.7364   23.6188 N   0  0  0  0  0  0  0  0  0  0  0  0
    8.9742  -14.8942   24.8387 C   0  0  1  0  0  0  0  0  0  0  0  0
    7.7624  -14.0522   24.9593 C   0  0  0  0  0  0  0  0  0  0  0  0
    7.5851  -13.0073   25.9522 C   0  0  0  0  0  0  0  0  0  0  0  0
    6.2623  -12.3647   26.0504 C   0  0  0  0  0  0  0  0  0  0  0  0
    6.2412  -11.2917   27.1600 C   0  0  0  0  0  0  0  0  0  0  0  0
    4.8999  -10.7624   27.2775 N   0  0  0  0  0  0  0  0  0  0  0  0
    9.1556  -15.9435   25.8709 C   0  0  0  0  0  0  0  0  0  0  0  0
    8.7331  -17.1172   25.7691 O   0  0  0  0  0  0  0  0  0  0  0  0
    9.8402  -15.6834   27.0784 O   0  0  0  0  0  0  0  0  0  0  0  0
  2  1  1  0
  3  2  2  0
  4  5  1  0
  4  2  1  0
  5  6  1  6
  7  8  2  0
  7  5  1  0
  9  7  1  0
 10  9  1  0
 10 11  1  1
 11 12  1  0
 12 13  1  0
 13 17  1  0
 14 13  2  0
 15 10  1  0
 16 15  2  0
 18 15  1  0
 19 20  1  1
 19 18  1  0
 20 21  1  0
 22 21  1  0
 23 22  1  0
 24 23  1  0
 25 27  1  0
 25 19  1  0
 26 25  2  0
M  END
$$$$
