NEK.pdb
     RDKit          3D

 27 26  0  0  1  0  0  0  0  0999 V2000
    7.6795  -12.5338   17.0771 N   0  0  0  0  0  0  0  0  0  0  0  0
    7.8034  -13.9285   16.9987 C   0  0  0  0  0  0  0  0  0  0  0  0
    7.9323  -14.5778   15.9238 O   0  0  0  0  0  0  0  0  0  0  0  0
    7.7841  -14.7259   18.2519 C   0  0  0  0  0  0  0  0  0  0  0  0
    9.0374  -14.5159   19.0839 C   0  0  2  0  0  0  0  0  0  0  0  0
   10.2171  -14.9825   18.3732 N   0  0  0  0  0  0  0  0  0  0  0  0
    8.8577  -15.3382   20.3244 C   0  0  0  0  0  0  0  0  0  0  0  0
    7.8028  -15.1634   21.0155 O   0  0  0  0  0  0  0  0  0  0  0  0
    9.8640  -16.2966   20.7047 N   0  0  0  0  0  0  0  0  0  0  0  0
    9.7236  -16.9611   21.9454 C   0  0  1  0  0  0  0  0  0  0  0  0
   10.7437  -18.0990   21.9824 C   0  0  0  0  0  0  0  0  0  0  0  0
   10.4251  -19.1446   20.9361 C   0  0  0  0  0  0  0  0  0  0  0  0
   11.6923  -19.7649   20.5099 C   0  0  0  0  0  0  0  0  0  0  0  0
   12.0811  -19.6235   19.3270 O   0  0  0  0  0  0  0  0  0  0  0  0
    9.9136  -16.1844   23.1574 C   0  0  0  0  0  0  0  0  0  0  0  0
   10.9587  -15.4489   23.2044 O   0  0  0  0  0  0  0  0  0  0  0  0
   12.4437  -20.4904   21.4029 O   0  0  0  0  0  0  0  0  0  0  0  0
    9.0893  -16.1469   24.2759 N   0  0  0  0  0  0  0  0  0  0  0  0
    9.4090  -15.1984   25.4129 C   0  0  1  0  0  0  0  0  0  0  0  0
    8.1730  -14.3888   25.5062 C   0  0  0  0  0  0  0  0  0  0  0  0
    7.9770  -13.2960   26.4424 C   0  0  0  0  0  0  0  0  0  0  0  0
    6.6757  -12.6040   26.4342 C   0  0  0  0  0  0  0  0  0  0  0  0
    6.5979  -11.5428   27.5525 C   0  0  0  0  0  0  0  0  0  0  0  0
    5.3143  -10.8788   27.4829 N   0  0  0  0  0  0  0  0  0  0  0  0
    9.6587  -16.1536   26.5195 C   0  0  0  0  0  0  0  0  0  0  0  0
   10.1258  -15.8364   27.6366 O   0  0  0  0  0  0  0  0  0  0  0  0
    9.3770  -17.5309   26.3862 O   0  0  0  0  0  0  0  0  0  0  0  0
  2  1  1  0
  3  2  2  0
  4  5  1  0
  4  2  1  0
  5  6  1  6
  7  8  2  0
  7  5  1  0
  9  7  1  0
 10  9  1  0
 10 11  1  6
 11 12  1  0
 12 13  1  0
 13 17  1  0
 14 13  2  0
 15 10  1  0
 16 15  2  0
 18 15  1  0
 19 20  1  1
 19 18  1  0
 20 21  1  0
 22 21  1  0
 23 22  1  0
 24 23  1  0
 25 27  1  0
 25 19  1  0
 26 25  2  0
M  END
$$$$
