NEK.pdb
     RDKit          3D

 27 26  0  0  1  0  0  0  0  0999 V2000
    9.2898  -15.5471   12.8553 N   0  0  0  0  0  0  0  0  0  0  0  0
    8.6353  -16.0923   13.9693 C   0  0  0  0  0  0  0  0  0  0  0  0
    7.3910  -16.2925   14.0433 O   0  0  0  0  0  0  0  0  0  0  0  0
    9.4354  -16.4699   15.1626 C   0  0  0  0  0  0  0  0  0  0  0  0
    8.9591  -15.7619   16.4191 C   0  0  2  0  0  0  0  0  0  0  0  0
    9.0285  -14.3182   16.2601 N   0  0  0  0  0  0  0  0  0  0  0  0
    9.8955  -16.1781   17.5133 C   0  0  0  0  0  0  0  0  0  0  0  0
    9.9278  -17.4073   17.8436 O   0  0  0  0  0  0  0  0  0  0  0  0
   10.7292  -15.1965   18.1592 N   0  0  0  0  0  0  0  0  0  0  0  0
   11.6635  -15.6396   19.1244 C   0  0  1  0  0  0  0  0  0  0  0  0
   12.9217  -14.7831   18.9823 C   0  0  0  0  0  0  0  0  0  0  0  0
   14.0638  -15.3626   19.7882 C   0  0  0  0  0  0  0  0  0  0  0  0
   15.2515  -14.5179   19.5695 C   0  0  0  0  0  0  0  0  0  0  0  0
   15.8028  -13.9634   20.5489 O   0  0  0  0  0  0  0  0  0  0  0  0
   11.2731  -15.5874   20.5220 C   0  0  0  0  0  0  0  0  0  0  0  0
   11.0482  -14.4258   21.0073 O   0  0  0  0  0  0  0  0  0  0  0  0
   15.7529  -14.3415   18.3024 O   0  0  0  0  0  0  0  0  0  0  0  0
   11.1146  -16.6561   21.3964 N   0  0  0  0  0  0  0  0  0  0  0  0
   10.5573  -16.4147   22.7840 C   0  0  1  0  0  0  0  0  0  0  0  0
    9.7763  -17.6481   23.0300 C   0  0  0  0  0  0  0  0  0  0  0  0
    8.4601  -17.9100   22.4748 C   0  0  0  0  0  0  0  0  0  0  0  0
    7.8814  -19.2512   22.6716 C   0  0  0  0  0  0  0  0  0  0  0  0
    6.5656  -19.4156   21.8813 C   0  0  0  0  0  0  0  0  0  0  0  0
    6.1514  -20.8005   21.9398 N   0  0  0  0  0  0  0  0  0  0  0  0
   11.8055  -16.2551   23.5689 C   0  0  0  0  0  0  0  0  0  0  0  0
   12.9262  -16.6826   23.2113 O   0  0  0  0  0  0  0  0  0  0  0  0
   11.8172  -15.5875   24.8132 O   0  0  0  0  0  0  0  0  0  0  0  0
  2  1  1  0
  3  2  2  0
  4  5  1  0
  4  2  1  0
  5  6  1  6
  7  8  2  0
  7  5  1  0
  9  7  1  0
 10  9  1  0
 10 11  1  1
 11 12  1  0
 12 13  1  0
 13 17  1  0
 14 13  2  0
 15 10  1  0
 16 15  2  0
 18 15  1  0
 19 20  1  1
 19 18  1  0
 20 21  1  0
 22 21  1  0
 23 22  1  0
 24 23  1  0
 25 27  1  0
 25 19  1  0
 26 25  2  0
M  END
$$$$
