NEK.pdb
     RDKit          3D

 27 26  0  0  1  0  0  0  0  0999 V2000
    6.7635  -13.6524   17.2634 N   0  0  0  0  0  0  0  0  0  0  0  0
    7.9215  -14.2223   16.7150 C   0  0  0  0  0  0  0  0  0  0  0  0
    8.2906  -14.0836   15.5157 O   0  0  0  0  0  0  0  0  0  0  0  0
    8.7956  -15.0543   17.5813 C   0  0  0  0  0  0  0  0  0  0  0  0
    9.3899  -14.2572   18.7296 C   0  0  2  0  0  0  0  0  0  0  0  0
    9.7678  -12.9221   18.2946 N   0  0  0  0  0  0  0  0  0  0  0  0
   10.6207  -14.9976   19.1588 C   0  0  0  0  0  0  0  0  0  0  0  0
   10.4923  -16.2000   19.5570 O   0  0  0  0  0  0  0  0  0  0  0  0
   11.9051  -14.3466   19.1120 N   0  0  0  0  0  0  0  0  0  0  0  0
   13.0515  -15.0973   19.4628 C   0  0  1  0  0  0  0  0  0  0  0  0
   14.2280  -14.5586   18.6488 C   0  0  0  0  0  0  0  0  0  0  0  0
   14.2493  -15.1656   17.2629 C   0  0  0  0  0  0  0  0  0  0  0  0
   15.4606  -14.6867   16.5733 C   0  0  0  0  0  0  0  0  0  0  0  0
   15.7896  -15.1985   15.4777 O   0  0  0  0  0  0  0  0  0  0  0  0
   13.4652  -15.0952   20.8546 C   0  0  0  0  0  0  0  0  0  0  0  0
   13.5214  -13.9547   21.4303 O   0  0  0  0  0  0  0  0  0  0  0  0
   16.2223  -13.6852   17.1254 O   0  0  0  0  0  0  0  0  0  0  0  0
   13.8082  -16.1919   21.6366 N   0  0  0  0  0  0  0  0  0  0  0  0
   14.1429  -15.9950   23.1007 C   0  0  1  0  0  0  0  0  0  0  0  0
   13.6280  -17.2406   23.7132 C   0  0  0  0  0  0  0  0  0  0  0  0
   12.4267  -17.3195   24.5254 C   0  0  0  0  0  0  0  0  0  0  0  0
   12.0013  -18.6476   25.0028 C   0  0  0  0  0  0  0  0  0  0  0  0
   10.6079  -18.5858   25.6641 C   0  0  0  0  0  0  0  0  0  0  0  0
   10.2335  -19.9142   26.0981 N   0  0  0  0  0  0  0  0  0  0  0  0
   15.6175  -15.8492   23.0390 C   0  0  0  0  0  0  0  0  0  0  0  0
   16.3288  -16.2448   22.0881 O   0  0  0  0  0  0  0  0  0  0  0  0
   16.3447  -15.2334   24.0812 O   0  0  0  0  0  0  0  0  0  0  0  0
  2  1  1  0
  3  2  2  0
  4  5  1  0
  4  2  1  0
  5  6  1  6
  7  8  2  0
  7  5  1  0
  9  7  1  0
 10  9  1  0
 10 11  1  6
 11 12  1  0
 12 13  1  0
 13 17  1  0
 14 13  2  0
 15 10  1  0
 16 15  2  0
 18 15  1  0
 19 20  1  1
 19 18  1  0
 20 21  1  0
 22 21  1  0
 23 22  1  0
 24 23  1  0
 25 27  1  0
 25 19  1  0
 26 25  2  0
M  END
$$$$
