NEK.pdb
     RDKit          3D

 27 26  0  0  1  0  0  0  0  0999 V2000
    1.5289  -20.4868   21.9474 N   0  0  0  0  0  0  0  0  0  0  0  0
    2.5519  -19.7548   21.3276 C   0  0  0  0  0  0  0  0  0  0  0  0
    2.4258  -19.1242   20.2412 O   0  0  0  0  0  0  0  0  0  0  0  0
    3.8902  -19.6997   21.9699 C   0  0  0  0  0  0  0  0  0  0  0  0
    5.0144  -19.6617   20.9491 C   0  0  2  0  0  0  0  0  0  0  0  0
    5.0645  -20.8980   20.1851 N   0  0  0  0  0  0  0  0  0  0  0  0
    6.2848  -19.5199   21.7321 C   0  0  0  0  0  0  0  0  0  0  0  0
    6.6838  -20.5152   22.4185 O   0  0  0  0  0  0  0  0  0  0  0  0
    7.0199  -18.2814   21.6930 N   0  0  0  0  0  0  0  0  0  0  0  0
    8.2227  -18.1908   22.4317 C   0  0  1  0  0  0  0  0  0  0  0  0
    9.0821  -17.1011   21.7908 C   0  0  0  0  0  0  0  0  0  0  0  0
   10.4583  -17.0591   22.4184 C   0  0  0  0  0  0  0  0  0  0  0  0
   11.2791  -16.1019   21.6554 C   0  0  0  0  0  0  0  0  0  0  0  0
   11.9789  -15.2631   22.2692 O   0  0  0  0  0  0  0  0  0  0  0  0
    8.1292  -17.8770   23.8463 C   0  0  0  0  0  0  0  0  0  0  0  0
    7.3321  -16.9302   24.1681 O   0  0  0  0  0  0  0  0  0  0  0  0
   11.2797  -16.1304   20.2816 O   0  0  0  0  0  0  0  0  0  0  0  0
    8.8072  -18.4878   24.8948 N   0  0  0  0  0  0  0  0  0  0  0  0
    8.5514  -18.0372   26.3182 C   0  0  1  0  0  0  0  0  0  0  0  0
    8.4821  -19.3227   27.0492 C   0  0  0  0  0  0  0  0  0  0  0  0
    7.3645  -20.2474   26.9783 C   0  0  0  0  0  0  0  0  0  0  0  0
    7.4423  -21.4875   27.7712 C   0  0  0  0  0  0  0  0  0  0  0  0
    6.1486  -22.3194   27.6392 C   0  0  0  0  0  0  0  0  0  0  0  0
    6.3592  -23.6163   28.2450 N   0  0  0  0  0  0  0  0  0  0  0  0
    9.7471  -17.1969   26.5705 C   0  0  0  0  0  0  0  0  0  0  0  0
   10.7598  -17.1677   25.8355 O   0  0  0  0  0  0  0  0  0  0  0  0
    9.8284  -16.3432   27.6925 O   0  0  0  0  0  0  0  0  0  0  0  0
  2  1  1  0
  3  2  2  0
  4  5  1  0
  4  2  1  0
  5  6  1  1
  7  8  2  0
  7  5  1  0
  9  7  1  0
 10  9  1  0
 10 11  1  6
 11 12  1  0
 12 13  1  0
 13 17  1  0
 14 13  2  0
 15 10  1  0
 16 15  2  0
 18 15  1  0
 19 20  1  1
 19 18  1  0
 20 21  1  0
 22 21  1  0
 23 22  1  0
 24 23  1  0
 25 27  1  0
 25 19  1  0
 26 25  2  0
M  END
$$$$
