NEK.pdb
     RDKit          3D

 27 26  0  0  1  0  0  0  0  0999 V2000
    7.6194  -12.8302   17.9431 N   0  0  0  0  0  0  0  0  0  0  0  0
    7.6803  -14.1919   17.6135 C   0  0  0  0  0  0  0  0  0  0  0  0
    7.5061  -14.6575   16.4531 O   0  0  0  0  0  0  0  0  0  0  0  0
    7.9669  -15.1810   18.6841 C   0  0  0  0  0  0  0  0  0  0  0  0
    7.9398  -14.5527   20.0667 C   0  0  2  0  0  0  0  0  0  0  0  0
    8.6731  -13.2971   20.0814 N   0  0  0  0  0  0  0  0  0  0  0  0
    8.6203  -15.5262   20.9812 C   0  0  0  0  0  0  0  0  0  0  0  0
    8.1222  -16.6920   21.0983 O   0  0  0  0  0  0  0  0  0  0  0  0
    9.8067  -15.1323   21.6975 N   0  0  0  0  0  0  0  0  0  0  0  0
   10.4060  -16.0697   22.5709 C   0  0  1  0  0  0  0  0  0  0  0  0
   11.8465  -15.6216   22.8177 C   0  0  0  0  0  0  0  0  0  0  0  0
   12.6355  -16.7029   23.5233 C   0  0  0  0  0  0  0  0  0  0  0  0
   14.0205  -16.2256   23.6851 C   0  0  0  0  0  0  0  0  0  0  0  0
   14.3409  -15.0996   23.2382 O   0  0  0  0  0  0  0  0  0  0  0  0
    9.7973  -16.2701   23.8738 C   0  0  0  0  0  0  0  0  0  0  0  0
    9.3526  -15.2249   24.4614 O   0  0  0  0  0  0  0  0  0  0  0  0
   14.9530  -17.0074   24.3233 O   0  0  0  0  0  0  0  0  0  0  0  0
    9.6410  -17.4693   24.5589 N   0  0  0  0  0  0  0  0  0  0  0  0
    8.9325  -17.4825   25.8977 C   0  0  1  0  0  0  0  0  0  0  0  0
    8.1539  -18.7399   25.8311 C   0  0  0  0  0  0  0  0  0  0  0  0
    7.5713  -19.4059   26.9826 C   0  0  0  0  0  0  0  0  0  0  0  0
    6.8513  -20.6722   26.7575 C   0  0  0  0  0  0  0  0  0  0  0  0
    6.4392  -21.3279   28.0928 C   0  0  0  0  0  0  0  0  0  0  0  0
    5.5678  -22.4494   27.8172 N   0  0  0  0  0  0  0  0  0  0  0  0
   10.0854  -17.4674   26.8306 C   0  0  0  0  0  0  0  0  0  0  0  0
   10.0816  -16.9108   27.9517 O   0  0  0  0  0  0  0  0  0  0  0  0
   11.3058  -18.1011   26.5094 O   0  0  0  0  0  0  0  0  0  0  0  0
  2  1  1  0
  3  2  2  0
  4  5  1  0
  4  2  1  0
  5  6  1  6
  7  8  2  0
  7  5  1  0
  9  7  1  0
 10  9  1  0
 10 11  1  1
 11 12  1  0
 12 13  1  0
 13 17  1  0
 14 13  2  0
 15 10  1  0
 16 15  2  0
 18 15  1  0
 19 20  1  6
 19 18  1  0
 20 21  1  0
 22 21  1  0
 23 22  1  0
 24 23  1  0
 25 27  1  0
 25 19  1  0
 26 25  2  0
M  END
$$$$
