NEK.pdb
     RDKit          3D

 27 26  0  0  1  0  0  0  0  0999 V2000
    7.1317  -12.7454   17.0711 N   0  0  0  0  0  0  0  0  0  0  0  0
    7.1684  -13.1330   18.4184 C   0  0  0  0  0  0  0  0  0  0  0  0
    6.2834  -12.8460   19.2717 O   0  0  0  0  0  0  0  0  0  0  0  0
    8.3177  -13.9378   18.9063 C   0  0  0  0  0  0  0  0  0  0  0  0
    9.3761  -14.1334   17.8346 C   0  0  2  0  0  0  0  0  0  0  0  0
    8.8618  -14.9363   16.7367 N   0  0  0  0  0  0  0  0  0  0  0  0
   10.5043  -14.8702   18.4915 C   0  0  0  0  0  0  0  0  0  0  0  0
   10.3330  -16.0974   18.7841 O   0  0  0  0  0  0  0  0  0  0  0  0
   11.7418  -14.1883   18.7734 N   0  0  0  0  0  0  0  0  0  0  0  0
   12.8515  -14.9576   19.1949 C   0  0  1  0  0  0  0  0  0  0  0  0
   14.0944  -14.4022   18.4995 C   0  0  0  0  0  0  0  0  0  0  0  0
   15.3180  -15.2237   18.8425 C   0  0  0  0  0  0  0  0  0  0  0  0
   16.4630  -14.6699   18.0980 C   0  0  0  0  0  0  0  0  0  0  0  0
   16.5240  -14.8245   16.8559 O   0  0  0  0  0  0  0  0  0  0  0  0
   13.1472  -15.0017   20.6158 C   0  0  0  0  0  0  0  0  0  0  0  0
   13.3616  -13.8784   21.1880 O   0  0  0  0  0  0  0  0  0  0  0  0
   17.4549  -13.9868   18.7595 O   0  0  0  0  0  0  0  0  0  0  0  0
   13.2244  -16.1263   21.4291 N   0  0  0  0  0  0  0  0  0  0  0  0
   13.4828  -15.9637   22.9128 C   0  0  1  0  0  0  0  0  0  0  0  0
   12.8045  -17.1493   23.4837 C   0  0  0  0  0  0  0  0  0  0  0  0
   12.7836  -17.4809   24.8974 C   0  0  0  0  0  0  0  0  0  0  0  0
   11.9924  -18.6499   25.3215 C   0  0  0  0  0  0  0  0  0  0  0  0
   12.0124  -18.8136   26.8563 C   0  0  0  0  0  0  0  0  0  0  0  0
   11.2275  -19.9745   27.2161 N   0  0  0  0  0  0  0  0  0  0  0  0
   14.9655  -15.9702   22.9464 C   0  0  0  0  0  0  0  0  0  0  0  0
   15.6564  -15.3960   23.8179 O   0  0  0  0  0  0  0  0  0  0  0  0
   15.7250  -16.6472   21.9671 O   0  0  0  0  0  0  0  0  0  0  0  0
  2  1  1  0
  3  2  2  0
  4  5  1  0
  4  2  1  0
  5  6  1  6
  7  8  2  0
  7  5  1  0
  9  7  1  0
 10  9  1  0
 10 11  1  6
 11 12  1  0
 12 13  1  0
 13 17  1  0
 14 13  2  0
 15 10  1  0
 16 15  2  0
 18 15  1  0
 19 20  1  1
 19 18  1  0
 20 21  1  0
 22 21  1  0
 23 22  1  0
 24 23  1  0
 25 27  1  0
 25 19  1  0
 26 25  2  0
M  END
$$$$
