RHE.pdb
     RDKit          3D

 31 31  0  0  1  0  0  0  0  0999 V2000
   15.6646  -20.2268   19.6463 N   0  0  0  0  0  0  0  0  0  0  0  0
   16.0907  -20.1036   18.2902 C   0  0  0  0  0  0  0  0  0  0  0  0
   17.3176  -20.3583   17.9853 N   0  0  0  0  0  0  0  0  0  0  0  0
   15.1838  -19.7093   17.2804 N   0  0  0  0  0  0  0  0  0  0  0  0
   13.7578  -19.7110   17.5422 C   0  0  0  0  0  0  0  0  0  0  0  0
   13.3262  -18.3285   17.8976 C   0  0  0  0  0  0  0  0  0  0  0  0
   12.4919  -17.6300   16.8821 C   0  0  0  0  0  0  0  0  0  0  0  0
   11.0709  -17.4644   17.3767 C   0  0  2  0  0  0  0  0  0  0  0  0
   10.3493  -16.8022   16.3107 N   0  0  0  0  0  0  0  0  0  0  0  0
   11.0314  -16.5889   18.5742 C   0  0  0  0  0  0  0  0  0  0  0  0
   11.5003  -15.4112   18.4840 O   0  0  0  0  0  0  0  0  0  0  0  0
   17.6747  -20.3260   17.0058 N   0  0  0  0  0  0  0  0  0  0  0  0
   10.5060  -16.9766   19.8104 C   0  0  1  0  0  0  0  0  0  0  0  0
   10.3893  -15.9357   20.9250 C   0  0  0  0  0  0  0  0  0  0  0  0
    8.9379  -15.6824   21.0069 C   0  0  0  0  0  0  0  0  0  0  0  0
    8.3102  -14.6464   20.2044 C   0  0  0  0  0  0  0  0  0  0  0  0
    8.6768  -13.7417   19.2760 N   0  0  0  0  0  0  0  0  0  0  0  0
    7.6139  -13.0446   18.7959 C   0  0  0  0  0  0  0  0  0  0  0  0
    6.5678  -13.5466   19.4547 N   0  0  0  0  0  0  0  0  0  0  0  0
    6.9311  -14.4909   20.2936 C   0  0  0  0  0  0  0  0  0  0  0  0
   11.0221  -16.5703   22.0966 O   0  0  0  0  0  0  0  0  0  0  0  0
   10.6053  -17.7617   22.3956 N   0  0  0  0  0  0  0  0  0  0  0  0
   12.0286  -16.0278   22.9183 C   0  0  1  0  0  0  0  0  0  0  0  0
   12.7224  -16.8816   23.9001 C   0  0  0  0  0  0  0  0  0  0  0  0
   14.1045  -16.3851   24.1215 C   0  0  0  0  0  0  0  0  0  0  0  0
   14.9425  -17.2639   24.9938 C   0  0  0  0  0  0  0  0  0  0  0  0
   16.3071  -16.6329   25.0917 O   0  0  0  0  0  0  0  0  0  0  0  0
   16.5746  -15.5570   24.5200 C   0  0  0  0  0  0  0  0  0  0  0  0
   11.9067  -17.0887   25.0965 O   0  0  0  0  0  0  0  0  0  0  0  0
   10.9460  -16.3434   25.4070 O   0  0  0  0  0  0  0  0  0  0  0  0
   17.2410  -17.3153   25.8516 O   0  0  0  0  0  0  0  0  0  0  0  0
  2  3  2  0
  2  1  1  0
  4  2  1  0
  5  4  1  0
  6  5  1  0
  7  6  1  0
  8  7  1  0
  8  9  1  6
 10 11  2  0
 10  8  1  0
 12 10  1  0
 13 12  1  0
 13 14  1  1
 14 15  1  0
 15 16  2  0
 15 19  1  0
 16 17  1  0
 17 18  1  0
 19 18  2  0
 20 13  1  0
 21 20  2  0
 22 20  1  0
 23 22  1  0
 23 24  1  1
 24 25  1  0
 26 25  1  0
 26 30  1  0
 27 26  2  0
 28 23  1  0
 28 31  1  0
 29 28  2  0
M  END
$$$$
