RHE.pdb
     RDKit          3D

 31 31  0  0  1  0  0  0  0  0999 V2000
    7.7010  -13.0795   19.6381 N   0  0  0  0  0  0  0  0  0  0  0  0
    7.9888  -13.1873   18.2448 C   0  0  0  0  0  0  0  0  0  0  0  0
    7.2304  -12.5863   17.3922 N   0  0  0  0  0  0  0  0  0  0  0  0
    9.0947  -13.9413   17.7912 N   0  0  0  0  0  0  0  0  0  0  0  0
    8.9984  -15.3843   17.6881 C   0  0  0  0  0  0  0  0  0  0  0  0
    8.8836  -15.9639   19.0575 C   0  0  0  0  0  0  0  0  0  0  0  0
   10.1702  -16.2500   19.7488 C   0  0  0  0  0  0  0  0  0  0  0  0
    9.9615  -17.2210   20.8911 C   0  0  2  0  0  0  0  0  0  0  0  0
    8.6405  -17.7829   20.7042 N   0  0  0  0  0  0  0  0  0  0  0  0
    9.9807  -16.5100   22.1935 C   0  0  0  0  0  0  0  0  0  0  0  0
   11.0058  -15.8233   22.4980 O   0  0  0  0  0  0  0  0  0  0  0  0
    7.3764  -12.6519   16.3615 N   0  0  0  0  0  0  0  0  0  0  0  0
    8.9339  -16.5443   23.1196 C   0  0  1  0  0  0  0  0  0  0  0  0
    9.0805  -15.7727   24.4321 C   0  0  0  0  0  0  0  0  0  0  0  0
    7.7629  -15.1301   24.6009 C   0  0  0  0  0  0  0  0  0  0  0  0
    7.4902  -14.2633   25.7346 C   0  0  0  0  0  0  0  0  0  0  0  0
    8.1468  -13.7898   26.8114 N   0  0  0  0  0  0  0  0  0  0  0  0
    7.3870  -12.9239   27.5319 C   0  0  0  0  0  0  0  0  0  0  0  0
    6.2316  -12.8697   26.8667 N   0  0  0  0  0  0  0  0  0  0  0  0
    6.2479  -13.6419   25.8032 C   0  0  0  0  0  0  0  0  0  0  0  0
    9.4556  -16.7953   25.4267 O   0  0  0  0  0  0  0  0  0  0  0  0
    8.8248  -17.9262   25.3491 N   0  0  0  0  0  0  0  0  0  0  0  0
   10.4231  -16.6796   26.4430 C   0  0  1  0  0  0  0  0  0  0  0  0
   10.6752  -17.8090   27.3569 C   0  0  0  0  0  0  0  0  0  0  0  0
   12.0891  -18.2498   27.2457 C   0  0  0  0  0  0  0  0  0  0  0  0
   12.3735  -19.1138   26.0592 C   0  0  0  0  0  0  0  0  0  0  0  0
   13.8696  -19.1703   25.8905 O   0  0  0  0  0  0  0  0  0  0  0  0
   14.5359  -18.1556   25.6035 C   0  0  0  0  0  0  0  0  0  0  0  0
   10.1881  -17.5215   28.7059 O   0  0  0  0  0  0  0  0  0  0  0  0
    9.7708  -16.3911   29.0562 O   0  0  0  0  0  0  0  0  0  0  0  0
   14.4572  -20.4098   26.0735 O   0  0  0  0  0  0  0  0  0  0  0  0
  2  3  2  0
  2  1  1  0
  4  2  1  0
  5  4  1  0
  6  5  1  0
  7  6  1  0
  8  7  1  0
  8  9  1  6
 10 11  2  0
 10  8  1  0
 12 10  1  0
 13 12  1  0
 13 14  1  1
 14 15  1  0
 15 16  2  0
 15 19  1  0
 16 17  1  0
 17 18  1  0
 19 18  2  0
 20 13  1  0
 21 20  2  0
 22 20  1  0
 23 22  1  0
 23 24  1  1
 24 25  1  0
 26 25  1  0
 26 30  1  0
 27 26  2  0
 28 23  1  0
 28 31  1  0
 29 28  2  0
M  END
$$$$
