RHE.pdb
     RDKit          3D

 31 31  0  0  1  0  0  0  0  0999 V2000
   14.8719  -21.6641   18.1746 N   0  0  0  0  0  0  0  0  0  0  0  0
   15.2735  -20.4292   17.5833 C   0  0  0  0  0  0  0  0  0  0  0  0
   16.3625  -20.3806   16.8941 N   0  0  0  0  0  0  0  0  0  0  0  0
   14.4909  -19.2632   17.7423 N   0  0  0  0  0  0  0  0  0  0  0  0
   13.3168  -19.2854   18.5928 C   0  0  0  0  0  0  0  0  0  0  0  0
   12.0957  -19.2232   17.7390 C   0  0  0  0  0  0  0  0  0  0  0  0
   10.7982  -19.3649   18.4544 C   0  0  0  0  0  0  0  0  0  0  0  0
    9.9532  -18.1205   18.2851 C   0  0  2  0  0  0  0  0  0  0  0  0
   10.3989  -17.4964   17.0573 N   0  0  0  0  0  0  0  0  0  0  0  0
   10.1914  -17.1697   19.3993 C   0  0  0  0  0  0  0  0  0  0  0  0
   11.2492  -16.4656   19.3840 O   0  0  0  0  0  0  0  0  0  0  0  0
   16.7365  -19.4945   16.4904 N   0  0  0  0  0  0  0  0  0  0  0  0
    9.3195  -16.9933   20.4778 C   0  0  1  0  0  0  0  0  0  0  0  0
    9.6654  -15.9568   21.5481 C   0  0  0  0  0  0  0  0  0  0  0  0
    8.3555  -15.3731   21.8959 C   0  0  0  0  0  0  0  0  0  0  0  0
    7.6569  -14.4938   20.9740 C   0  0  0  0  0  0  0  0  0  0  0  0
    6.4588  -14.4371   20.3607 N   0  0  0  0  0  0  0  0  0  0  0  0
    6.3144  -13.3022   19.6277 C   0  0  0  0  0  0  0  0  0  0  0  0
    7.4638  -12.6484   19.8057 N   0  0  0  0  0  0  0  0  0  0  0  0
    8.2828  -13.3126   20.5902 C   0  0  0  0  0  0  0  0  0  0  0  0
   10.3541  -16.7243   22.6027 O   0  0  0  0  0  0  0  0  0  0  0  0
   10.2352  -18.0146   22.5403 N   0  0  0  0  0  0  0  0  0  0  0  0
   11.1274  -16.2112   23.6616 C   0  0  1  0  0  0  0  0  0  0  0  0
   12.1214  -17.0674   24.3347 C   0  0  0  0  0  0  0  0  0  0  0  0
   13.4872  -16.7404   23.8516 C   0  0  0  0  0  0  0  0  0  0  0  0
   14.5715  -17.5692   24.4621 C   0  0  0  0  0  0  0  0  0  0  0  0
   15.8808  -17.0913   23.8900 O   0  0  0  0  0  0  0  0  0  0  0  0
   16.1089  -15.8803   23.6968 C   0  0  0  0  0  0  0  0  0  0  0  0
   11.9278  -17.0695   25.7846 O   0  0  0  0  0  0  0  0  0  0  0  0
   12.5016  -17.8815   26.5502 O   0  0  0  0  0  0  0  0  0  0  0  0
   16.8110  -18.0724   23.5945 O   0  0  0  0  0  0  0  0  0  0  0  0
  2  3  2  0
  2  1  1  0
  4  2  1  0
  5  4  1  0
  6  5  1  0
  7  6  1  0
  8  7  1  0
  8  9  1  6
 10 11  2  0
 10  8  1  0
 12 10  1  0
 13 12  1  0
 13 14  1  1
 14 15  1  0
 15 16  2  0
 15 19  1  0
 16 17  1  0
 17 18  1  0
 19 18  2  0
 20 13  1  0
 21 20  2  0
 22 20  1  0
 23 22  1  0
 23 24  1  1
 24 25  1  0
 26 25  1  0
 26 30  1  0
 27 26  2  0
 28 23  1  0
 28 31  1  0
 29 28  2  0
M  END
$$$$
