RHE.pdb
     RDKit          3D

 31 31  0  0  1  0  0  0  0  0999 V2000
   14.6525  -14.1567   17.1316 N   0  0  0  0  0  0  0  0  0  0  0  0
   15.1990  -15.4415   17.4256 C   0  0  0  0  0  0  0  0  0  0  0  0
   16.3234  -15.5243   18.0519 N   0  0  0  0  0  0  0  0  0  0  0  0
   14.5211  -16.6206   17.0414 N   0  0  0  0  0  0  0  0  0  0  0  0
   13.4776  -16.5653   16.0363 C   0  0  0  0  0  0  0  0  0  0  0  0
   12.1618  -16.3706   16.7106 C   0  0  0  0  0  0  0  0  0  0  0  0
   11.4246  -17.6149   17.0622 C   0  0  0  0  0  0  0  0  0  0  0  0
   10.0591  -17.2882   17.6278 C   0  0  2  0  0  0  0  0  0  0  0  0
    9.4138  -16.4355   16.6520 N   0  0  0  0  0  0  0  0  0  0  0  0
   10.1853  -16.5263   18.8950 C   0  0  0  0  0  0  0  0  0  0  0  0
   10.9395  -15.5037   18.9189 O   0  0  0  0  0  0  0  0  0  0  0  0
   16.7866  -16.4346   18.2632 N   0  0  0  0  0  0  0  0  0  0  0  0
    9.5217  -16.8611   20.0791 C   0  0  1  0  0  0  0  0  0  0  0  0
    9.7250  -15.9840   21.3156 C   0  0  0  0  0  0  0  0  0  0  0  0
    8.4618  -15.2272   21.4105 C   0  0  0  0  0  0  0  0  0  0  0  0
    8.0878  -14.2602   20.3926 C   0  0  0  0  0  0  0  0  0  0  0  0
    7.1226  -14.1078   19.4653 N   0  0  0  0  0  0  0  0  0  0  0  0
    7.2308  -12.9245   18.8064 C   0  0  0  0  0  0  0  0  0  0  0  0
    8.2969  -12.3396   19.3556 N   0  0  0  0  0  0  0  0  0  0  0  0
    8.8323  -13.0897   20.2927 C   0  0  0  0  0  0  0  0  0  0  0  0
   10.0153  -16.9354   22.4048 O   0  0  0  0  0  0  0  0  0  0  0  0
   10.0336  -18.1905   22.0773 N   0  0  0  0  0  0  0  0  0  0  0  0
   10.2787  -16.6302   23.7538 C   0  0  1  0  0  0  0  0  0  0  0  0
   11.1880  -17.4827   24.5416 C   0  0  0  0  0  0  0  0  0  0  0  0
   12.4880  -17.6286   23.8384 C   0  0  0  0  0  0  0  0  0  0  0  0
   13.4928  -18.4618   24.5675 C   0  0  0  0  0  0  0  0  0  0  0  0
   14.3718  -19.1161   23.5335 O   0  0  0  0  0  0  0  0  0  0  0  0
   14.5612  -18.6012   22.4132 C   0  0  0  0  0  0  0  0  0  0  0  0
   11.2489  -17.0493   25.9373 O   0  0  0  0  0  0  0  0  0  0  0  0
   11.0343  -15.8662   26.2963 O   0  0  0  0  0  0  0  0  0  0  0  0
   14.9544  -20.3165   23.9004 O   0  0  0  0  0  0  0  0  0  0  0  0
  2  3  2  0
  2  1  1  0
  4  2  1  0
  5  4  1  0
  6  5  1  0
  7  6  1  0
  8  7  1  0
  8  9  1  6
 10 11  2  0
 10  8  1  0
 12 10  1  0
 13 12  1  0
 13 14  1  1
 14 15  1  0
 15 16  2  0
 15 19  1  0
 16 17  1  0
 17 18  1  0
 19 18  2  0
 20 13  1  0
 21 20  2  0
 22 20  1  0
 23 22  1  0
 23 24  1  1
 24 25  1  0
 26 25  1  0
 26 30  1  0
 27 26  2  0
 28 23  1  0
 28 31  1  0
 29 28  2  0
M  END
$$$$
