RHE.pdb
     RDKit          3D

 31 31  0  0  1  0  0  0  0  0999 V2000
   10.0551  -14.7604   15.8338 N   0  0  0  0  0  0  0  0  0  0  0  0
    8.7183  -14.5961   15.3628 C   0  0  0  0  0  0  0  0  0  0  0  0
    8.3743  -15.1192   14.2353 N   0  0  0  0  0  0  0  0  0  0  0  0
    7.7696  -13.8707   16.1185 N   0  0  0  0  0  0  0  0  0  0  0  0
    8.1037  -13.4032   17.4497 C   0  0  0  0  0  0  0  0  0  0  0  0
    8.4218  -14.5772   18.3126 C   0  0  0  0  0  0  0  0  0  0  0  0
    8.7619  -14.2667   19.7279 C   0  0  0  0  0  0  0  0  0  0  0  0
    9.0682  -15.5340   20.4969 C   0  0  2  0  0  0  0  0  0  0  0  0
    7.8492  -16.3146   20.4865 N   0  0  0  0  0  0  0  0  0  0  0  0
    9.4048  -15.2223   21.9082 C   0  0  0  0  0  0  0  0  0  0  0  0
   10.4536  -14.5465   22.1497 O   0  0  0  0  0  0  0  0  0  0  0  0
    7.4249  -14.9956   13.8215 N   0  0  0  0  0  0  0  0  0  0  0  0
    8.6362  -15.6263   23.0038 C   0  0  1  0  0  0  0  0  0  0  0  0
    9.0219  -15.1362   24.4004 C   0  0  0  0  0  0  0  0  0  0  0  0
    7.8286  -14.3896   24.8434 C   0  0  0  0  0  0  0  0  0  0  0  0
    7.7828  -13.7540   26.1491 C   0  0  0  0  0  0  0  0  0  0  0  0
    8.6004  -13.5807   27.2056 N   0  0  0  0  0  0  0  0  0  0  0  0
    8.0306  -12.8124   28.1706 C   0  0  0  0  0  0  0  0  0  0  0  0
    6.8276  -12.5083   27.6800 N   0  0  0  0  0  0  0  0  0  0  0  0
    6.6393  -13.0412   26.4934 C   0  0  0  0  0  0  0  0  0  0  0  0
    9.3560  -16.3631   25.1479 O   0  0  0  0  0  0  0  0  0  0  0  0
    8.6194  -17.4016   24.8998 N   0  0  0  0  0  0  0  0  0  0  0  0
   10.3862  -16.5299   26.0931 C   0  0  1  0  0  0  0  0  0  0  0  0
   10.6350  -17.8548   26.6904 C   0  0  0  0  0  0  0  0  0  0  0  0
   12.0050  -18.3180   26.3523 C   0  0  0  0  0  0  0  0  0  0  0  0
   12.4254  -19.5664   27.0594 C   0  0  0  0  0  0  0  0  0  0  0  0
   13.8847  -19.7868   26.7565 O   0  0  0  0  0  0  0  0  0  0  0  0
   14.5639  -18.9358   26.1478 C   0  0  0  0  0  0  0  0  0  0  0  0
   10.2726  -17.8768   28.1074 O   0  0  0  0  0  0  0  0  0  0  0  0
   10.0406  -16.8370   28.7705 O   0  0  0  0  0  0  0  0  0  0  0  0
   14.4238  -20.9842   27.1933 O   0  0  0  0  0  0  0  0  0  0  0  0
  2  3  2  0
  2  1  1  0
  4  2  1  0
  5  4  1  0
  6  5  1  0
  7  6  1  0
  8  7  1  0
  8  9  1  1
 10 11  2  0
 10  8  1  0
 12 10  1  0
 13 12  1  0
 13 14  1  6
 14 15  1  0
 15 16  2  0
 15 19  1  0
 16 17  1  0
 17 18  1  0
 19 18  2  0
 20 13  1  0
 21 20  2  0
 22 20  1  0
 23 22  1  0
 23 24  1  1
 24 25  1  0
 26 25  1  0
 26 30  1  0
 27 26  2  0
 28 23  1  0
 28 31  1  0
 29 28  2  0
M  END
$$$$
