RHE.pdb
     RDKit          3D

 31 31  0  0  1  0  0  0  0  0999 V2000
   12.4136  -16.9820   18.2311 N   0  0  0  0  0  0  0  0  0  0  0  0
   11.1812  -17.4462   18.7801 C   0  0  0  0  0  0  0  0  0  0  0  0
   11.1947  -18.1654   19.8506 N   0  0  0  0  0  0  0  0  0  0  0  0
    9.9495  -17.1244   18.1663 N   0  0  0  0  0  0  0  0  0  0  0  0
    9.8402  -15.9465   17.3280 C   0  0  0  0  0  0  0  0  0  0  0  0
    9.4161  -14.7890   18.1674 C   0  0  0  0  0  0  0  0  0  0  0  0
    7.9992  -14.8049   18.6228 C   0  0  0  0  0  0  0  0  0  0  0  0
    7.6468  -13.5114   19.3258 C   0  0  2  0  0  0  0  0  0  0  0  0
    8.3731  -12.4676   18.6339 N   0  0  0  0  0  0  0  0  0  0  0  0
    8.1088  -13.5385   20.7357 C   0  0  0  0  0  0  0  0  0  0  0  0
    9.2802  -13.1234   21.0014 O   0  0  0  0  0  0  0  0  0  0  0  0
   10.3315  -18.5808   20.2630 N   0  0  0  0  0  0  0  0  0  0  0  0
    7.3326  -13.9948   21.8052 C   0  0  2  0  0  0  0  0  0  0  0  0
    7.8728  -13.8474   23.2285 C   0  0  0  0  0  0  0  0  0  0  0  0
    6.7417  -13.2501   23.9643 C   0  0  0  0  0  0  0  0  0  0  0  0
    6.8012  -13.0549   25.4028 C   0  0  0  0  0  0  0  0  0  0  0  0
    6.0904  -13.4118   26.4901 N   0  0  0  0  0  0  0  0  0  0  0  0
    6.6721  -12.9858   27.6418 C   0  0  0  0  0  0  0  0  0  0  0  0
    7.7741  -12.3515   27.2376 N   0  0  0  0  0  0  0  0  0  0  0  0
    7.8899  -12.3674   25.9285 C   0  0  0  0  0  0  0  0  0  0  0  0
    8.2754  -15.2118   23.6185 O   0  0  0  0  0  0  0  0  0  0  0  0
    8.1504  -16.1267   22.7074 N   0  0  0  0  0  0  0  0  0  0  0  0
    8.7834  -15.6259   24.8647 C   0  0  1  0  0  0  0  0  0  0  0  0
    9.6573  -16.8103   24.9511 C   0  0  0  0  0  0  0  0  0  0  0  0
   10.8260  -16.6492   24.0488 C   0  0  0  0  0  0  0  0  0  0  0  0
   11.8975  -17.6743   24.2394 C   0  0  0  0  0  0  0  0  0  0  0  0
   12.2229  -18.2442   22.8832 O   0  0  0  0  0  0  0  0  0  0  0  0
   13.3964  -18.4926   22.5407 C   0  0  0  0  0  0  0  0  0  0  0  0
    9.9523  -17.1543   26.3418 O   0  0  0  0  0  0  0  0  0  0  0  0
    9.6782  -16.3997   27.3062 O   0  0  0  0  0  0  0  0  0  0  0  0
   11.1463  -18.4753   22.0450 O   0  0  0  0  0  0  0  0  0  0  0  0
  2  3  2  0
  2  1  1  0
  4  2  1  0
  5  4  1  0
  6  5  1  0
  7  6  1  0
  8  7  1  0
  8  9  1  6
 10 11  2  0
 10  8  1  0
 12 10  1  0
 13 12  1  0
 13 14  1  1
 14 15  1  0
 15 16  2  0
 15 19  1  0
 16 17  1  0
 17 18  1  0
 19 18  2  0
 20 13  1  0
 21 20  2  0
 22 20  1  0
 23 22  1  0
 23 24  1  1
 24 25  1  0
 26 25  1  0
 26 30  1  0
 27 26  2  0
 28 23  1  0
 28 31  1  0
 29 28  2  0
M  END
$$$$
