RHE.pdb
     RDKit          3D

 31 31  0  0  1  0  0  0  0  0999 V2000
    9.3750  -19.4797   16.6605 N   0  0  0  0  0  0  0  0  0  0  0  0
   10.5102  -20.2188   17.1085 C   0  0  0  0  0  0  0  0  0  0  0  0
   11.4296  -20.5429   16.2641 N   0  0  0  0  0  0  0  0  0  0  0  0
   10.6385  -20.5956   18.4646 N   0  0  0  0  0  0  0  0  0  0  0  0
    9.6010  -20.2503   19.4169 C   0  0  0  0  0  0  0  0  0  0  0  0
    9.8155  -18.8505   19.8845 C   0  0  0  0  0  0  0  0  0  0  0  0
    8.9012  -18.3807   20.9608 C   0  0  0  0  0  0  0  0  0  0  0  0
    8.4560  -16.9570   20.7035 C   0  0  2  0  0  0  0  0  0  0  0  0
    9.2123  -16.5009   19.5565 N   0  0  0  0  0  0  0  0  0  0  0  0
    8.7946  -16.0856   21.8560 C   0  0  0  0  0  0  0  0  0  0  0  0
    9.9994  -15.7085   22.0017 O   0  0  0  0  0  0  0  0  0  0  0  0
   12.3000  -21.0460   16.5420 N   0  0  0  0  0  0  0  0  0  0  0  0
    7.8660  -15.6452   22.8037 C   0  0  1  0  0  0  0  0  0  0  0  0
    8.3555  -14.8104   23.9882 C   0  0  0  0  0  0  0  0  0  0  0  0
    7.1374  -14.1123   24.4423 C   0  0  0  0  0  0  0  0  0  0  0  0
    7.1099  -13.3955   25.7058 C   0  0  0  0  0  0  0  0  0  0  0  0
    6.5502  -13.5367   26.9230 N   0  0  0  0  0  0  0  0  0  0  0  0
    6.9385  -12.5560   27.7796 C   0  0  0  0  0  0  0  0  0  0  0  0
    7.7635  -11.7967   27.0565 N   0  0  0  0  0  0  0  0  0  0  0  0
    7.8933  -12.2532   25.8308 C   0  0  0  0  0  0  0  0  0  0  0  0
    8.9472  -15.7913   24.9175 O   0  0  0  0  0  0  0  0  0  0  0  0
    8.3466  -16.9384   24.9957 N   0  0  0  0  0  0  0  0  0  0  0  0
   10.0908  -15.6203   25.7209 C   0  0  1  0  0  0  0  0  0  0  0  0
   10.5788  -16.7306   26.5594 C   0  0  0  0  0  0  0  0  0  0  0  0
   11.9360  -17.1437   26.1199 C   0  0  0  0  0  0  0  0  0  0  0  0
   12.5750  -18.1811   26.9863 C   0  0  0  0  0  0  0  0  0  0  0  0
   13.9175  -18.5067   26.3848 O   0  0  0  0  0  0  0  0  0  0  0  0
   14.0328  -19.3001   25.4292 C   0  0  0  0  0  0  0  0  0  0  0  0
   10.4188  -16.4334   27.9827 O   0  0  0  0  0  0  0  0  0  0  0  0
   10.0898  -15.3012   28.4124 O   0  0  0  0  0  0  0  0  0  0  0  0
   15.0095  -17.8744   26.9530 O   0  0  0  0  0  0  0  0  0  0  0  0
  2  3  2  0
  2  1  1  0
  4  2  1  0
  5  4  1  0
  6  5  1  0
  7  6  1  0
  8  7  1  0
  8  9  1  6
 10 11  2  0
 10  8  1  0
 12 10  1  0
 13 12  1  0
 13 14  1  1
 14 15  1  0
 15 16  2  0
 15 19  1  0
 16 17  1  0
 17 18  1  0
 19 18  2  0
 20 13  1  0
 21 20  2  0
 22 20  1  0
 23 22  1  0
 23 24  1  1
 24 25  1  0
 26 25  1  0
 26 30  1  0
 27 26  2  0
 28 23  1  0
 28 31  1  0
 29 28  2  0
M  END
$$$$
