RHE.pdb
     RDKit          3D

 31 31  0  0  1  0  0  0  0  0999 V2000
    7.6349  -12.3952   16.8808 N   0  0  0  0  0  0  0  0  0  0  0  0
    7.8349  -13.7369   16.4384 C   0  0  0  0  0  0  0  0  0  0  0  0
    8.1473  -13.9587   15.2070 N   0  0  0  0  0  0  0  0  0  0  0  0
    7.6974  -14.8215   17.3339 N   0  0  0  0  0  0  0  0  0  0  0  0
    7.2345  -14.5923   18.6887 C   0  0  0  0  0  0  0  0  0  0  0  0
    8.4016  -14.6349   19.6160 C   0  0  0  0  0  0  0  0  0  0  0  0
    9.2450  -15.8589   19.5387 C   0  0  0  0  0  0  0  0  0  0  0  0
    9.0181  -16.7441   20.7455 C   0  0  2  0  0  0  0  0  0  0  0  0
    7.6406  -17.1822   20.6689 N   0  0  0  0  0  0  0  0  0  0  0  0
    9.1878  -15.9718   22.0013 C   0  0  0  0  0  0  0  0  0  0  0  0
    9.8470  -14.8859   21.9647 O   0  0  0  0  0  0  0  0  0  0  0  0
    8.2433  -14.9196   14.8127 N   0  0  0  0  0  0  0  0  0  0  0  0
    8.6642  -16.3624   23.2373 C   0  0  1  0  0  0  0  0  0  0  0  0
    8.9221  -15.4835   24.4622 C   0  0  0  0  0  0  0  0  0  0  0  0
    7.5774  -14.9940   24.8221 C   0  0  0  0  0  0  0  0  0  0  0  0
    7.4012  -13.9350   25.8011 C   0  0  0  0  0  0  0  0  0  0  0  0
    7.9701  -13.5360   26.9552 N   0  0  0  0  0  0  0  0  0  0  0  0
    7.4159  -12.3885   27.4269 C   0  0  0  0  0  0  0  0  0  0  0  0
    6.4811  -12.0813   26.5257 N   0  0  0  0  0  0  0  0  0  0  0  0
    6.4374  -12.9636   25.5526 C   0  0  0  0  0  0  0  0  0  0  0  0
    9.5873  -16.3766   25.4296 O   0  0  0  0  0  0  0  0  0  0  0  0
    9.1108  -17.5799   25.5173 N   0  0  0  0  0  0  0  0  0  0  0  0
   10.6814  -16.0678   26.2602 C   0  0  1  0  0  0  0  0  0  0  0  0
   11.2512  -17.0985   27.1474 C   0  0  0  0  0  0  0  0  0  0  0  0
   12.6109  -17.4758   26.6842 C   0  0  0  0  0  0  0  0  0  0  0  0
   13.5099  -16.3149   26.4024 C   0  0  0  0  0  0  0  0  0  0  0  0
   14.6916  -16.8373   25.6273 O   0  0  0  0  0  0  0  0  0  0  0  0
   15.2305  -17.9266   25.9084 C   0  0  0  0  0  0  0  0  0  0  0  0
   11.1258  -16.7187   28.5544 O   0  0  0  0  0  0  0  0  0  0  0  0
   10.6370  -15.6245   28.9268 O   0  0  0  0  0  0  0  0  0  0  0  0
   15.1400  -16.0399   24.5889 O   0  0  0  0  0  0  0  0  0  0  0  0
  2  3  2  0
  2  1  1  0
  4  2  1  0
  5  4  1  0
  6  5  1  0
  7  6  1  0
  8  7  1  0
  8  9  1  6
 10 11  2  0
 10  8  1  0
 12 10  1  0
 13 12  1  0
 13 14  1  1
 14 15  1  0
 15 16  2  0
 15 19  1  0
 16 17  1  0
 17 18  1  0
 19 18  2  0
 20 13  1  0
 21 20  2  0
 22 20  1  0
 23 22  1  0
 23 24  1  1
 24 25  1  0
 26 25  1  0
 26 30  1  0
 27 26  2  0
 28 23  1  0
 28 31  1  0
 29 28  2  0
M  END
$$$$
