RHE.pdb
     RDKit          3D

 31 31  0  0  1  0  0  0  0  0999 V2000
    7.9784  -13.6051   14.3472 N   0  0  0  0  0  0  0  0  0  0  0  0
    8.3449  -14.8630   14.9120 C   0  0  0  0  0  0  0  0  0  0  0  0
    9.2956  -15.5476   14.3727 N   0  0  0  0  0  0  0  0  0  0  0  0
    7.6806  -15.3635   16.0546 N   0  0  0  0  0  0  0  0  0  0  0  0
    7.2141  -14.4530   17.0821 C   0  0  0  0  0  0  0  0  0  0  0  0
    8.3768  -13.6912   17.6222 C   0  0  0  0  0  0  0  0  0  0  0  0
    8.3976  -13.5030   19.0984 C   0  0  0  0  0  0  0  0  0  0  0  0
    8.7709  -14.7920   19.7987 C   0  0  2  0  0  0  0  0  0  0  0  0
    7.6251  -15.6669   19.6669 N   0  0  0  0  0  0  0  0  0  0  0  0
    9.0061  -14.5539   21.2445 C   0  0  0  0  0  0  0  0  0  0  0  0
    9.9474  -13.7724   21.5883 O   0  0  0  0  0  0  0  0  0  0  0  0
    9.6382  -16.4490   14.7700 N   0  0  0  0  0  0  0  0  0  0  0  0
    8.2522  -15.1380   22.2667 C   0  0  1  0  0  0  0  0  0  0  0  0
    8.5448  -14.7502   23.7171 C   0  0  0  0  0  0  0  0  0  0  0  0
    7.2487  -14.2393   24.2034 C   0  0  0  0  0  0  0  0  0  0  0  0
    7.1368  -13.5861   25.4964 C   0  0  0  0  0  0  0  0  0  0  0  0
    7.9487  -13.2348   26.5124 N   0  0  0  0  0  0  0  0  0  0  0  0
    7.2843  -12.5577   27.4852 C   0  0  0  0  0  0  0  0  0  0  0  0
    6.0276  -12.4949   27.0414 N   0  0  0  0  0  0  0  0  0  0  0  0
    5.8952  -13.0871   25.8755 C   0  0  0  0  0  0  0  0  0  0  0  0
    9.0495  -15.9882   24.3403 O   0  0  0  0  0  0  0  0  0  0  0  0
    8.5088  -17.0946   23.9324 N   0  0  0  0  0  0  0  0  0  0  0  0
   10.0533  -16.0992   25.3213 C   0  0  1  0  0  0  0  0  0  0  0  0
   10.4915  -17.4287   25.7846 C   0  0  0  0  0  0  0  0  0  0  0  0
   11.7983  -17.7778   25.1713 C   0  0  0  0  0  0  0  0  0  0  0  0
   12.3997  -19.0473   25.6831 C   0  0  0  0  0  0  0  0  0  0  0  0
   13.7232  -19.2321   24.9874 O   0  0  0  0  0  0  0  0  0  0  0  0
   14.3926  -18.2604   24.5827 C   0  0  0  0  0  0  0  0  0  0  0  0
   10.4064  -17.5401   27.2407 O   0  0  0  0  0  0  0  0  0  0  0  0
   10.2111  -16.5542   27.9920 O   0  0  0  0  0  0  0  0  0  0  0  0
   14.1498  -20.5386   24.8263 O   0  0  0  0  0  0  0  0  0  0  0  0
  2  3  2  0
  2  1  1  0
  4  2  1  0
  5  4  1  0
  6  5  1  0
  7  6  1  0
  8  7  1  0
  8  9  1  1
 10 11  2  0
 10  8  1  0
 12 10  1  0
 13 12  1  0
 13 14  1  6
 14 15  1  0
 15 16  2  0
 15 19  1  0
 16 17  1  0
 17 18  1  0
 19 18  2  0
 20 13  1  0
 21 20  2  0
 22 20  1  0
 23 22  1  0
 23 24  1  1
 24 25  1  0
 26 25  1  0
 26 30  1  0
 27 26  2  0
 28 23  1  0
 28 31  1  0
 29 28  2  0
M  END
$$$$
