RHE.pdb
     RDKit          3D

 31 31  0  0  1  0  0  0  0  0999 V2000
    8.5681  -12.4406   13.7354 N   0  0  0  0  0  0  0  0  0  0  0  0
    7.6244  -13.1568   14.5305 C   0  0  0  0  0  0  0  0  0  0  0  0
    6.3748  -13.1261   14.2130 N   0  0  0  0  0  0  0  0  0  0  0  0
    8.0443  -13.8995   15.6572 N   0  0  0  0  0  0  0  0  0  0  0  0
    9.3095  -14.6071   15.6318 C   0  0  0  0  0  0  0  0  0  0  0  0
    9.1422  -15.9283   16.3029 C   0  0  0  0  0  0  0  0  0  0  0  0
   10.3707  -16.7623   16.4051 C   0  0  0  0  0  0  0  0  0  0  0  0
   10.9241  -17.0736   15.0310 C   0  0  2  0  0  0  0  0  0  0  0  0
    9.9570  -17.9439   14.3963 N   0  0  0  0  0  0  0  0  0  0  0  0
   12.2080  -17.8100   15.1376 C   0  0  0  0  0  0  0  0  0  0  0  0
   12.1783  -19.0496   15.4162 O   0  0  0  0  0  0  0  0  0  0  0  0
    5.6488  -13.6748   14.7227 N   0  0  0  0  0  0  0  0  0  0  0  0
   13.4638  -17.2253   14.9491 C   0  0  1  0  0  0  0  0  0  0  0  0
   14.7157  -18.0859   15.1264 C   0  0  0  0  0  0  0  0  0  0  0  0
   15.6080  -17.6195   14.0476 C   0  0  0  0  0  0  0  0  0  0  0  0
   15.3924  -18.0223   12.6683 C   0  0  0  0  0  0  0  0  0  0  0  0
   15.3179  -17.4384   11.4566 N   0  0  0  0  0  0  0  0  0  0  0  0
   15.1593  -18.3490   10.4607 C   0  0  0  0  0  0  0  0  0  0  0  0
   15.1397  -19.5247   11.0914 N   0  0  0  0  0  0  0  0  0  0  0  0
   15.2734  -19.3799   12.3908 C   0  0  0  0  0  0  0  0  0  0  0  0
   15.1533  -17.8282   16.5112 O   0  0  0  0  0  0  0  0  0  0  0  0
   15.1416  -16.5883   16.8926 N   0  0  0  0  0  0  0  0  0  0  0  0
   15.5750  -18.7779   17.4613 C   0  0  1  0  0  0  0  0  0  0  0  0
   15.8611  -18.3620   18.8467 C   0  0  0  0  0  0  0  0  0  0  0  0
   15.6232  -19.4937   19.7787 C   0  0  0  0  0  0  0  0  0  0  0  0
   14.2001  -19.9468   19.8471 C   0  0  0  0  0  0  0  0  0  0  0  0
   14.1330  -21.0739   20.8448 O   0  0  0  0  0  0  0  0  0  0  0  0
   14.0498  -20.8601   22.0709 C   0  0  0  0  0  0  0  0  0  0  0  0
   17.1617  -17.7002   18.9464 O   0  0  0  0  0  0  0  0  0  0  0  0
   18.1348  -17.9891   18.2086 O   0  0  0  0  0  0  0  0  0  0  0  0
   14.1680  -22.3543   20.3210 O   0  0  0  0  0  0  0  0  0  0  0  0
  2  3  2  0
  2  1  1  0
  4  2  1  0
  5  4  1  0
  6  5  1  0
  7  6  1  0
  8  7  1  0
  8  9  1  6
 10 11  2  0
 10  8  1  0
 12 10  1  0
 13 12  1  0
 13 14  1  1
 14 15  1  0
 15 16  2  0
 15 19  1  0
 16 17  1  0
 17 18  1  0
 19 18  2  0
 20 13  1  0
 21 20  2  0
 22 20  1  0
 23 22  1  0
 23 24  1  1
 24 25  1  0
 26 25  1  0
 26 30  1  0
 27 26  2  0
 28 23  1  0
 28 31  1  0
 29 28  2  0
M  END
$$$$
