RHE.pdb
     RDKit          3D

 31 31  0  0  1  0  0  0  0  0999 V2000
    7.2815  -14.9068   13.7652 N   0  0  0  0  0  0  0  0  0  0  0  0
    8.0050  -14.5851   14.9521 C   0  0  0  0  0  0  0  0  0  0  0  0
    9.1944  -15.0556   15.1171 N   0  0  0  0  0  0  0  0  0  0  0  0
    7.4342  -13.7562   15.9444 N   0  0  0  0  0  0  0  0  0  0  0  0
    8.1978  -13.4038   17.1255 C   0  0  0  0  0  0  0  0  0  0  0  0
    8.2631  -14.5850   18.0335 C   0  0  0  0  0  0  0  0  0  0  0  0
    9.0156  -14.3851   19.3020 C   0  0  0  0  0  0  0  0  0  0  0  0
    8.9561  -15.6286   20.1631 C   0  0  2  0  0  0  0  0  0  0  0  0
    7.6047  -16.1340   20.0458 N   0  0  0  0  0  0  0  0  0  0  0  0
    9.2011  -15.2920   21.5875 C   0  0  0  0  0  0  0  0  0  0  0  0
   10.3305  -14.8095   21.9142 O   0  0  0  0  0  0  0  0  0  0  0  0
    9.7618  -14.8700   15.9724 N   0  0  0  0  0  0  0  0  0  0  0  0
    8.2615  -15.4712   22.6070 C   0  0  1  0  0  0  0  0  0  0  0  0
    8.5688  -14.9246   24.0021 C   0  0  0  0  0  0  0  0  0  0  0  0
    7.2844  -14.3381   24.4310 C   0  0  0  0  0  0  0  0  0  0  0  0
    7.1799  -13.5826   25.6676 C   0  0  0  0  0  0  0  0  0  0  0  0
    7.9846  -13.2078   26.6809 N   0  0  0  0  0  0  0  0  0  0  0  0
    7.3396  -12.4177   27.5787 C   0  0  0  0  0  0  0  0  0  0  0  0
    6.1027  -12.3087   27.0904 N   0  0  0  0  0  0  0  0  0  0  0  0
    5.9640  -12.9780   25.9679 C   0  0  0  0  0  0  0  0  0  0  0  0
    9.0552  -16.0916   24.7619 O   0  0  0  0  0  0  0  0  0  0  0  0
    8.4225  -17.2065   24.5635 N   0  0  0  0  0  0  0  0  0  0  0  0
   10.1301  -16.1277   25.6706 C   0  0  1  0  0  0  0  0  0  0  0  0
   10.4699  -17.3830   26.3654 C   0  0  0  0  0  0  0  0  0  0  0  0
   11.7051  -17.9692   25.7854 C   0  0  0  0  0  0  0  0  0  0  0  0
   12.7033  -16.9607   25.3144 C   0  0  0  0  0  0  0  0  0  0  0  0
   13.8767  -17.7177   24.7484 O   0  0  0  0  0  0  0  0  0  0  0  0
   14.6103  -18.4241   25.4687 C   0  0  0  0  0  0  0  0  0  0  0  0
   10.4527  -17.2095   27.8178 O   0  0  0  0  0  0  0  0  0  0  0  0
   10.2451  -16.1030   28.3722 O   0  0  0  0  0  0  0  0  0  0  0  0
   14.0895  -17.5834   23.3876 O   0  0  0  0  0  0  0  0  0  0  0  0
  2  3  2  0
  2  1  1  0
  4  2  1  0
  5  4  1  0
  6  5  1  0
  7  6  1  0
  8  7  1  0
  8  9  1  1
 10 11  2  0
 10  8  1  0
 12 10  1  0
 13 12  1  0
 13 14  1  1
 14 15  1  0
 15 16  2  0
 15 19  1  0
 16 17  1  0
 17 18  1  0
 19 18  2  0
 20 13  1  0
 21 20  2  0
 22 20  1  0
 23 22  1  0
 23 24  1  1
 24 25  1  0
 26 25  1  0
 26 30  1  0
 27 26  2  0
 28 23  1  0
 28 31  1  0
 29 28  2  0
M  END
$$$$
