RHE.pdb
     RDKit          3D

 31 31  0  0  1  0  0  0  0  0999 V2000
    9.0646  -16.0174   14.1971 N   0  0  0  0  0  0  0  0  0  0  0  0
    8.8406  -17.1223   15.0716 C   0  0  0  0  0  0  0  0  0  0  0  0
    9.3845  -18.2613   14.8067 N   0  0  0  0  0  0  0  0  0  0  0  0
    8.0338  -16.9808   16.2233 N   0  0  0  0  0  0  0  0  0  0  0  0
    7.3392  -15.7335   16.4762 C   0  0  0  0  0  0  0  0  0  0  0  0
    8.3235  -14.7130   16.9385 C   0  0  0  0  0  0  0  0  0  0  0  0
    8.6915  -14.7752   18.3793 C   0  0  0  0  0  0  0  0  0  0  0  0
    8.0568  -13.6341   19.1451 C   0  0  2  0  0  0  0  0  0  0  0  0
    8.5842  -12.4178   18.5637 N   0  0  0  0  0  0  0  0  0  0  0  0
    8.4576  -13.6746   20.5734 C   0  0  0  0  0  0  0  0  0  0  0  0
    9.6563  -13.3829   20.8786 O   0  0  0  0  0  0  0  0  0  0  0  0
    9.2048  -19.1185   15.3730 N   0  0  0  0  0  0  0  0  0  0  0  0
    7.5947  -14.0154   21.6192 C   0  0  2  0  0  0  0  0  0  0  0  0
    8.1178  -13.9700   23.0558 C   0  0  0  0  0  0  0  0  0  0  0  0
    6.9856  -13.4054   23.8152 C   0  0  0  0  0  0  0  0  0  0  0  0
    7.0951  -13.1393   25.2393 C   0  0  0  0  0  0  0  0  0  0  0  0
    8.0450  -13.1807   26.1937 N   0  0  0  0  0  0  0  0  0  0  0  0
    7.5819  -12.7419   27.3933 C   0  0  0  0  0  0  0  0  0  0  0  0
    6.3086  -12.4215   27.1561 N   0  0  0  0  0  0  0  0  0  0  0  0
    5.9795  -12.6394   25.9024 C   0  0  0  0  0  0  0  0  0  0  0  0
    8.4957  -15.3630   23.3600 O   0  0  0  0  0  0  0  0  0  0  0  0
    8.4967  -16.1865   22.3577 N   0  0  0  0  0  0  0  0  0  0  0  0
    8.8589  -15.8921   24.6132 C   0  0  1  0  0  0  0  0  0  0  0  0
    9.9812  -16.8427   24.7182 C   0  0  0  0  0  0  0  0  0  0  0  0
   11.0958  -16.4158   23.8344 C   0  0  0  0  0  0  0  0  0  0  0  0
   12.3471  -17.2193   23.9891 C   0  0  0  0  0  0  0  0  0  0  0  0
   13.3601  -16.6679   23.0198 O   0  0  0  0  0  0  0  0  0  0  0  0
   13.1088  -16.5527   21.8034 C   0  0  0  0  0  0  0  0  0  0  0  0
   10.3245  -17.1094   26.1148 O   0  0  0  0  0  0  0  0  0  0  0  0
   10.8793  -18.1698   26.4925 O   0  0  0  0  0  0  0  0  0  0  0  0
   14.5800  -16.2974   23.5581 O   0  0  0  0  0  0  0  0  0  0  0  0
  2  3  2  0
  2  1  1  0
  4  2  1  0
  5  4  1  0
  6  5  1  0
  7  6  1  0
  8  7  1  0
  8  9  1  6
 10 11  2  0
 10  8  1  0
 12 10  1  0
 13 12  1  0
 13 14  1  6
 14 15  1  0
 15 16  2  0
 15 19  1  0
 16 17  1  0
 17 18  1  0
 19 18  2  0
 20 13  1  0
 21 20  2  0
 22 20  1  0
 23 22  1  0
 23 24  1  1
 24 25  1  0
 26 25  1  0
 26 30  1  0
 27 26  2  0
 28 23  1  0
 28 31  1  0
 29 28  2  0
M  END
$$$$
