RHE.pdb
     RDKit          3D

 31 31  0  0  1  0  0  0  0  0999 V2000
    7.5845  -13.3278   14.0175 N   0  0  0  0  0  0  0  0  0  0  0  0
    8.4856  -14.2026   14.6946 C   0  0  0  0  0  0  0  0  0  0  0  0
    9.5182  -14.6570   14.0698 N   0  0  0  0  0  0  0  0  0  0  0  0
    8.2602  -14.5727   16.0398 N   0  0  0  0  0  0  0  0  0  0  0  0
    7.1041  -14.0626   16.7508 C   0  0  0  0  0  0  0  0  0  0  0  0
    7.5664  -13.2223   17.8928 C   0  0  0  0  0  0  0  0  0  0  0  0
    6.9459  -13.5249   19.2114 C   0  0  0  0  0  0  0  0  0  0  0  0
    7.6613  -14.6732   19.8904 C   0  0  2  0  0  0  0  0  0  0  0  0
    6.6732  -15.7173   20.0610 N   0  0  0  0  0  0  0  0  0  0  0  0
    8.1428  -14.2692   21.2347 C   0  0  0  0  0  0  0  0  0  0  0  0
    8.0787  -13.0429   21.5620 O   0  0  0  0  0  0  0  0  0  0  0  0
   10.2767  -15.1915   14.5460 N   0  0  0  0  0  0  0  0  0  0  0  0
    8.6681  -15.1576   22.1777 C   0  0  1  0  0  0  0  0  0  0  0  0
    8.9642  -14.6496   23.5897 C   0  0  0  0  0  0  0  0  0  0  0  0
    7.6241  -14.3767   24.1439 C   0  0  0  0  0  0  0  0  0  0  0  0
    7.4592  -13.8784   25.4986 C   0  0  0  0  0  0  0  0  0  0  0  0
    8.2432  -13.4998   26.5267 N   0  0  0  0  0  0  0  0  0  0  0  0
    7.5173  -13.0368   27.5778 C   0  0  0  0  0  0  0  0  0  0  0  0
    6.2505  -13.1362   27.1708 N   0  0  0  0  0  0  0  0  0  0  0  0
    6.1695  -13.6266   25.9541 C   0  0  0  0  0  0  0  0  0  0  0  0
    9.7388  -15.7339   24.2222 O   0  0  0  0  0  0  0  0  0  0  0  0
    9.2955  -16.9382   24.0326 N   0  0  0  0  0  0  0  0  0  0  0  0
   10.9046  -15.6046   25.0010 C   0  0  1  0  0  0  0  0  0  0  0  0
   11.6652  -16.8033   25.3994 C   0  0  0  0  0  0  0  0  0  0  0  0
   13.1152  -16.5912   25.1581 C   0  0  0  0  0  0  0  0  0  0  0  0
   13.9772  -17.7577   25.5208 C   0  0  0  0  0  0  0  0  0  0  0  0
   15.3947  -17.4025   25.1538 O   0  0  0  0  0  0  0  0  0  0  0  0
   15.6519  -16.5488   24.2813 C   0  0  0  0  0  0  0  0  0  0  0  0
   11.2881  -17.2524   26.7394 O   0  0  0  0  0  0  0  0  0  0  0  0
   10.7034  -16.5145   27.5691 O   0  0  0  0  0  0  0  0  0  0  0  0
   16.3892  -18.0764   25.8407 O   0  0  0  0  0  0  0  0  0  0  0  0
  2  3  2  0
  2  1  1  0
  4  2  1  0
  5  4  1  0
  6  5  1  0
  7  6  1  0
  8  7  1  0
  8  9  1  1
 10 11  2  0
 10  8  1  0
 12 10  1  0
 13 12  1  0
 13 14  1  1
 14 15  1  0
 15 16  2  0
 15 19  1  0
 16 17  1  0
 17 18  1  0
 19 18  2  0
 20 13  1  0
 21 20  2  0
 22 20  1  0
 23 22  1  0
 23 24  1  1
 24 25  1  0
 26 25  1  0
 26 30  1  0
 27 26  2  0
 28 23  1  0
 28 31  1  0
 29 28  2  0
M  END
$$$$
