RHE.pdb
     RDKit          3D

 31 31  0  0  1  0  0  0  0  0999 V2000
   13.5704  -19.7080   12.0818 N   0  0  0  0  0  0  0  0  0  0  0  0
   14.4440  -18.8050   12.7581 C   0  0  0  0  0  0  0  0  0  0  0  0
   15.6522  -18.6535   12.3332 N   0  0  0  0  0  0  0  0  0  0  0  0
   13.9991  -18.0751   13.8835 N   0  0  0  0  0  0  0  0  0  0  0  0
   12.7263  -18.3938   14.5006 C   0  0  0  0  0  0  0  0  0  0  0  0
   11.8767  -17.1684   14.5253 C   0  0  0  0  0  0  0  0  0  0  0  0
   10.4436  -17.3677   14.1763 C   0  0  0  0  0  0  0  0  0  0  0  0
    9.6840  -16.0611   14.2603 C   0  0  2  0  0  0  0  0  0  0  0  0
    9.7274  -15.4853   12.9328 N   0  0  0  0  0  0  0  0  0  0  0  0
   10.3567  -15.1227   15.1927 C   0  0  0  0  0  0  0  0  0  0  0  0
   10.4398  -13.8966   14.8688 O   0  0  0  0  0  0  0  0  0  0  0  0
   16.3565  -18.0664   12.8304 N   0  0  0  0  0  0  0  0  0  0  0  0
   10.9114  -15.5009   16.4189 C   0  0  1  0  0  0  0  0  0  0  0  0
   10.7024  -14.5987   17.6362 C   0  0  0  0  0  0  0  0  0  0  0  0
    9.2374  -14.4307   17.6909 C   0  0  0  0  0  0  0  0  0  0  0  0
    8.5930  -13.8337   18.8481 C   0  0  0  0  0  0  0  0  0  0  0  0
    8.9582  -13.2791   20.0202 N   0  0  0  0  0  0  0  0  0  0  0  0
    7.8905  -12.8068   20.7154 C   0  0  0  0  0  0  0  0  0  0  0  0
    6.8434  -13.0829   19.9359 N   0  0  0  0  0  0  0  0  0  0  0  0
    7.2101  -13.6869   18.8276 C   0  0  0  0  0  0  0  0  0  0  0  0
   11.3319  -15.3272   18.7537 O   0  0  0  0  0  0  0  0  0  0  0  0
   11.0474  -16.5896   18.8450 N   0  0  0  0  0  0  0  0  0  0  0  0
   12.2080  -14.8048   19.7242 C   0  0  1  0  0  0  0  0  0  0  0  0
   12.7656  -15.6845   20.7680 C   0  0  0  0  0  0  0  0  0  0  0  0
   14.2497  -15.6418   20.7322 C   0  0  0  0  0  0  0  0  0  0  0  0
   14.8261  -14.2624   20.7154 C   0  0  0  0  0  0  0  0  0  0  0  0
   16.3255  -14.4007   20.6638 O   0  0  0  0  0  0  0  0  0  0  0  0
   16.9980  -14.6352   21.6879 C   0  0  0  0  0  0  0  0  0  0  0  0
   12.1391  -15.4343   22.0659 O   0  0  0  0  0  0  0  0  0  0  0  0
   11.3425  -14.4864   22.2698 O   0  0  0  0  0  0  0  0  0  0  0  0
   16.9086  -14.2536   19.4174 O   0  0  0  0  0  0  0  0  0  0  0  0
  2  3  2  0
  2  1  1  0
  4  2  1  0
  5  4  1  0
  6  5  1  0
  7  6  1  0
  8  7  1  0
  8  9  1  6
 10 11  2  0
 10  8  1  0
 12 10  1  0
 13 12  1  0
 13 14  1  1
 14 15  1  0
 15 16  2  0
 15 19  1  0
 16 17  1  0
 17 18  1  0
 19 18  2  0
 20 13  1  0
 21 20  2  0
 22 20  1  0
 23 22  1  0
 23 24  1  1
 24 25  1  0
 26 25  1  0
 26 30  1  0
 27 26  2  0
 28 23  1  0
 28 31  1  0
 29 28  2  0
M  END
$$$$
