QPV.pdb
     RDKit          3D

 24 24  0  0  1  0  0  0  0  0999 V2000
    6.3210  -18.8638   24.2775 N   0  0  0  0  0  0  0  0  0  0  0  0
    7.5045  -18.3165   23.6741 C   0  0  0  0  0  0  0  0  0  0  0  0
    8.5212  -18.2509   24.4093 O   0  0  0  0  0  0  0  0  0  0  0  0
    7.5127  -17.8579   22.2604 C   0  0  0  0  0  0  0  0  0  0  0  0
    6.6999  -16.6006   22.1845 C   0  0  0  0  0  0  0  0  0  0  0  0
    7.5228  -15.4055   21.7417 C   0  0  2  0  0  0  0  0  0  0  0  0
    8.4396  -15.8162   20.6742 N   0  0  0  0  0  0  0  0  0  0  0  0
    8.3058  -14.9404   22.9116 C   0  0  0  0  0  0  0  0  0  0  0  0
    9.5871  -14.9160   22.7885 O   0  0  0  0  0  0  0  0  0  0  0  0
    7.7508  -14.5301   24.1233 N   0  0  0  0  0  0  0  0  0  0  0  0
    6.3161  -14.5906   24.4493 C   0  0  0  0  0  0  0  0  0  0  0  0
    6.0745  -13.4842   25.4388 C   0  0  0  0  0  0  0  0  0  0  0  0
    7.4384  -12.9760   25.8513 C   0  0  0  0  0  0  0  0  0  0  0  0
    8.4298  -13.9707   25.2712 C   0  0  1  0  0  0  0  0  0  0  0  0
    8.6574  -15.0058   26.3088 C   0  0  0  0  0  0  0  0  0  0  0  0
    8.2152  -16.1665   26.1690 O   0  0  0  0  0  0  0  0  0  0  0  0
   10.2512  -15.2352   30.3716 C   0  0  0  0  0  0  0  0  0  0  0  0
   11.0850  -14.8443   29.1852 C   0  0  2  0  0  0  0  0  0  0  0  0
   11.1907  -13.3440   29.0479 C   0  0  0  0  0  0  0  0  0  0  0  0
   10.5268  -15.4515   27.9001 C   0  0  2  0  0  0  0  0  0  0  0  0
    9.3845  -14.6719   27.4702 N   0  0  0  0  0  0  0  0  0  0  0  0
   10.1073  -16.8462   28.1189 C   0  0  0  0  0  0  0  0  0  0  0  0
    8.7689  -17.1758   28.1717 O   0  0  0  0  0  0  0  0  0  0  0  0
   10.9618  -17.7446   28.2587 O   0  0  0  0  0  0  0  0  0  0  0  0
  2  1  1  0
  3  2  2  0
  4  2  1  0
  5  4  1  0
  6  5  1  0
  6  7  1  6
  8  6  1  0
  9  8  2  0
 10  8  1  0
 10 14  1  0
 11 12  1  0
 11 10  1  0
 12 13  1  0
 14 13  1  0
 15 21  1  0
 14 15  1  1
 16 15  2  0
 18 17  1  1
 19 18  1  0
 20 21  1  1
 20 18  1  0
 22 20  1  0
 22 23  1  0
 24 22  2  0
M  END
$$$$
