QPV.pdb
     RDKit          3D

 24 24  0  0  1  0  0  0  0  0999 V2000
    9.5044  -20.6629   22.3106 N   0  0  0  0  0  0  0  0  0  0  0  0
   10.2011  -19.7131   23.1331 C   0  0  0  0  0  0  0  0  0  0  0  0
   10.3660  -20.0377   24.3356 O   0  0  0  0  0  0  0  0  0  0  0  0
   10.6937  -18.4240   22.5813 C   0  0  0  0  0  0  0  0  0  0  0  0
   10.2593  -18.3458   21.1486 C   0  0  0  0  0  0  0  0  0  0  0  0
   10.6467  -17.0316   20.4973 C   0  0  2  0  0  0  0  0  0  0  0  0
   12.1079  -16.9198   20.4617 N   0  0  0  0  0  0  0  0  0  0  0  0
   10.0891  -15.9369   21.3273 C   0  0  0  0  0  0  0  0  0  0  0  0
   10.9245  -15.2317   22.0073 O   0  0  0  0  0  0  0  0  0  0  0  0
    8.7334  -15.6233   21.4172 N   0  0  0  0  0  0  0  0  0  0  0  0
    7.6478  -16.4303   20.8354 C   0  0  0  0  0  0  0  0  0  0  0  0
    6.5335  -15.4646   20.5397 C   0  0  0  0  0  0  0  0  0  0  0  0
    6.9154  -14.1582   21.2001 C   0  0  0  0  0  0  0  0  0  0  0  0
    8.1228  -14.4826   22.0635 C   0  0  1  0  0  0  0  0  0  0  0  0
    7.6064  -14.8473   23.4052 C   0  0  0  0  0  0  0  0  0  0  0  0
    7.5599  -16.0402   23.7754 O   0  0  0  0  0  0  0  0  0  0  0  0
    7.6664  -12.2227   27.6320 C   0  0  0  0  0  0  0  0  0  0  0  0
    7.1623  -12.3994   26.2283 C   0  0  2  0  0  0  0  0  0  0  0  0
    5.6534  -12.3679   26.1698 C   0  0  0  0  0  0  0  0  0  0  0  0
    7.6848  -13.6982   25.6186 C   0  0  2  0  0  0  0  0  0  0  0  0
    7.1618  -13.8297   24.2746 N   0  0  0  0  0  0  0  0  0  0  0  0
    7.2620  -14.8599   26.4191 C   0  0  0  0  0  0  0  0  0  0  0  0
    7.9765  -15.2390   27.5365 O   0  0  0  0  0  0  0  0  0  0  0  0
    6.2505  -15.5133   26.0923 O   0  0  0  0  0  0  0  0  0  0  0  0
  2  1  1  0
  3  2  2  0
  4  2  1  0
  5  4  1  0
  6  5  1  0
  6  7  1  1
  8  6  1  0
  9  8  2  0
 10  8  1  0
 10 14  1  0
 11 12  1  0
 11 10  1  0
 12 13  1  0
 14 13  1  0
 15 21  1  0
 14 15  1  1
 16 15  2  0
 18 17  1  1
 19 18  1  0
 20 21  1  6
 20 18  1  0
 22 20  1  0
 22 23  1  0
 24 22  2  0
M  END
$$$$
