QPV.pdb
     RDKit          3D

 24 24  0  0  1  0  0  0  0  0999 V2000
    5.8010  -18.6559   23.5012 N   0  0  0  0  0  0  0  0  0  0  0  0
    7.2269  -18.5670   23.6531 C   0  0  0  0  0  0  0  0  0  0  0  0
    7.7128  -19.1353   24.6628 O   0  0  0  0  0  0  0  0  0  0  0  0
    8.0680  -17.8415   22.6655 C   0  0  0  0  0  0  0  0  0  0  0  0
    7.1785  -16.8939   21.9183 C   0  0  0  0  0  0  0  0  0  0  0  0
    7.8719  -15.5845   21.5927 C   0  0  2  0  0  0  0  0  0  0  0  0
    8.8332  -15.8010   20.5074 N   0  0  0  0  0  0  0  0  0  0  0  0
    8.5944  -15.1434   22.8099 C   0  0  0  0  0  0  0  0  0  0  0  0
    9.8808  -15.1379   22.7594 O   0  0  0  0  0  0  0  0  0  0  0  0
    7.9780  -14.7367   23.9928 N   0  0  0  0  0  0  0  0  0  0  0  0
    6.5362  -14.8533   24.2676 C   0  0  0  0  0  0  0  0  0  0  0  0
    6.2113  -13.7415   25.2268 C   0  0  0  0  0  0  0  0  0  0  0  0
    7.5362  -13.1680   25.6788 C   0  0  0  0  0  0  0  0  0  0  0  0
    8.5897  -14.1289   25.1539 C   0  0  1  0  0  0  0  0  0  0  0  0
    8.8224  -15.1352   26.2182 C   0  0  0  0  0  0  0  0  0  0  0  0
    8.5040  -16.3326   26.0537 O   0  0  0  0  0  0  0  0  0  0  0  0
    9.9573  -14.8385   30.3348 C   0  0  0  0  0  0  0  0  0  0  0  0
   11.0001  -14.7070   29.2619 C   0  0  2  0  0  0  0  0  0  0  0  0
   11.3186  -13.2601   28.9683 C   0  0  0  0  0  0  0  0  0  0  0  0
   10.5628  -15.4185   27.9835 C   0  0  2  0  0  0  0  0  0  0  0  0
    9.4125  -14.7315   27.4338 N   0  0  0  0  0  0  0  0  0  0  0  0
   10.2038  -16.8198   28.2606 C   0  0  0  0  0  0  0  0  0  0  0  0
    8.8857  -17.2250   28.2303 O   0  0  0  0  0  0  0  0  0  0  0  0
   11.0919  -17.6550   28.5259 O   0  0  0  0  0  0  0  0  0  0  0  0
  2  1  1  0
  3  2  2  0
  4  2  1  0
  5  4  1  0
  6  5  1  0
  6  7  1  6
  8  6  1  0
  9  8  2  0
 10  8  1  0
 10 14  1  0
 11 12  1  0
 11 10  1  0
 12 13  1  0
 14 13  1  0
 15 21  1  0
 14 15  1  1
 16 15  2  0
 18 17  1  1
 19 18  1  0
 20 21  1  1
 20 18  1  0
 22 20  1  0
 22 23  1  0
 24 22  2  0
M  END
$$$$
