QPV.pdb
     RDKit          3D

 24 24  0  0  1  0  0  0  0  0999 V2000
    3.1323  -18.9889   20.9467 N   0  0  0  0  0  0  0  0  0  0  0  0
    4.2011  -18.5348   21.7925 C   0  0  0  0  0  0  0  0  0  0  0  0
    3.8636  -18.0693   22.9097 O   0  0  0  0  0  0  0  0  0  0  0  0
    5.6205  -18.6161   21.3594 C   0  0  0  0  0  0  0  0  0  0  0  0
    5.9180  -17.3958   20.5411 C   0  0  0  0  0  0  0  0  0  0  0  0
    7.3781  -17.3109   20.1385 C   0  0  2  0  0  0  0  0  0  0  0  0
    7.9627  -18.6552   20.1465 N   0  0  0  0  0  0  0  0  0  0  0  0
    8.0723  -16.4660   21.1396 C   0  0  0  0  0  0  0  0  0  0  0  0
    8.9668  -17.0356   21.8696 O   0  0  0  0  0  0  0  0  0  0  0  0
    7.8236  -15.1084   21.3388 N   0  0  0  0  0  0  0  0  0  0  0  0
    6.8609  -14.3114   20.5602 C   0  0  0  0  0  0  0  0  0  0  0  0
    7.3853  -12.9020   20.5810 C   0  0  0  0  0  0  0  0  0  0  0  0
    8.5093  -12.8805   21.5934 C   0  0  0  0  0  0  0  0  0  0  0  0
    8.4358  -14.2217   22.3035 C   0  0  1  0  0  0  0  0  0  0  0  0
    7.5578  -14.0356   23.4842 C   0  0  0  0  0  0  0  0  0  0  0  0
    6.3132  -14.0615   23.3722 O   0  0  0  0  0  0  0  0  0  0  0  0
    9.3410  -13.4090   27.3972 C   0  0  0  0  0  0  0  0  0  0  0  0
    8.1531  -14.2880   27.1287 C   0  0  2  0  0  0  0  0  0  0  0  0
    8.5646  -15.7183   26.8720 C   0  0  0  0  0  0  0  0  0  0  0  0
    7.3345  -13.7578   25.9538 C   0  0  2  0  0  0  0  0  0  0  0  0
    8.1395  -13.8264   24.7519 N   0  0  0  0  0  0  0  0  0  0  0  0
    6.9282  -12.3614   26.1861 C   0  0  0  0  0  0  0  0  0  0  0  0
    5.8892  -12.0669   27.0443 O   0  0  0  0  0  0  0  0  0  0  0  0
    7.5224  -11.4296   25.6068 O   0  0  0  0  0  0  0  0  0  0  0  0
  2  1  1  0
  3  2  2  0
  4  2  1  0
  5  4  1  0
  6  5  1  0
  6  7  1  1
  8  6  1  0
  9  8  2  0
 10  8  1  0
 10 14  1  0
 11 12  1  0
 11 10  1  0
 12 13  1  0
 14 13  1  0
 15 21  1  0
 14 15  1  1
 16 15  2  0
 18 17  1  6
 19 18  1  0
 20 21  1  6
 20 18  1  0
 22 20  1  0
 22 23  1  0
 24 22  2  0
M  END
$$$$
