QPV.pdb
     RDKit          3D

 24 24  0  0  1  0  0  0  0  0999 V2000
    9.3188  -20.4137   23.9608 N   0  0  0  0  0  0  0  0  0  0  0  0
   10.3691  -19.5204   24.3642 C   0  0  0  0  0  0  0  0  0  0  0  0
   10.7845  -19.6505   25.5429 O   0  0  0  0  0  0  0  0  0  0  0  0
   10.9241  -18.5049   23.4316 C   0  0  0  0  0  0  0  0  0  0  0  0
   10.2274  -18.6670   22.1142 C   0  0  0  0  0  0  0  0  0  0  0  0
   10.5763  -17.5619   21.1352 C   0  0  2  0  0  0  0  0  0  0  0  0
   12.0316  -17.5013   20.9702 N   0  0  0  0  0  0  0  0  0  0  0  0
   10.0921  -16.2835   21.7090 C   0  0  0  0  0  0  0  0  0  0  0  0
   10.9741  -15.4996   22.2239 O   0  0  0  0  0  0  0  0  0  0  0  0
    8.7580  -15.8781   21.7257 N   0  0  0  0  0  0  0  0  0  0  0  0
    7.6301  -16.6927   21.2436 C   0  0  0  0  0  0  0  0  0  0  0  0
    6.5825  -15.7135   20.7902 C   0  0  0  0  0  0  0  0  0  0  0  0
    7.0389  -14.3513   21.2644 C   0  0  0  0  0  0  0  0  0  0  0  0
    8.2136  -14.6210   22.1896 C   0  0  1  0  0  0  0  0  0  0  0  0
    7.6602  -14.7563   23.5590 C   0  0  0  0  0  0  0  0  0  0  0  0
    7.5346  -15.8783   24.0953 O   0  0  0  0  0  0  0  0  0  0  0  0
    7.3239  -11.8636   27.5952 C   0  0  0  0  0  0  0  0  0  0  0  0
    6.9837  -12.1118   26.1535 C   0  0  2  0  0  0  0  0  0  0  0  0
    5.4905  -12.1803   25.9369 C   0  0  0  0  0  0  0  0  0  0  0  0
    7.6473  -13.3904   25.6469 C   0  0  2  0  0  0  0  0  0  0  0  0
    7.2704  -13.5989   24.2643 N   0  0  0  0  0  0  0  0  0  0  0  0
    7.2228  -14.5527   26.4457 C   0  0  0  0  0  0  0  0  0  0  0  0
    7.9519  -14.9506   27.5469 O   0  0  0  0  0  0  0  0  0  0  0  0
    6.1967  -15.1895   26.1319 O   0  0  0  0  0  0  0  0  0  0  0  0
  2  1  1  0
  3  2  2  0
  4  2  1  0
  5  4  1  0
  6  5  1  0
  6  7  1  1
  8  6  1  0
  9  8  2  0
 10  8  1  0
 10 14  1  0
 11 12  1  0
 11 10  1  0
 12 13  1  0
 14 13  1  0
 15 21  1  0
 14 15  1  1
 16 15  2  0
 18 17  1  1
 19 18  1  0
 20 21  1  6
 20 18  1  0
 22 20  1  0
 22 23  1  0
 24 22  2  0
M  END
$$$$
