QPV.pdb
     RDKit          3D

 24 24  0  0  1  0  0  0  0  0999 V2000
    3.9521  -18.9227   22.3173 N   0  0  0  0  0  0  0  0  0  0  0  0
    4.1918  -18.5932   20.9396 C   0  0  0  0  0  0  0  0  0  0  0  0
    3.2241  -18.7555   20.1550 O   0  0  0  0  0  0  0  0  0  0  0  0
    5.5131  -18.0901   20.4814 C   0  0  0  0  0  0  0  0  0  0  0  0
    5.2660  -16.9316   19.5626 C   0  0  0  0  0  0  0  0  0  0  0  0
    6.4266  -16.6849   18.6173 C   0  0  2  0  0  0  0  0  0  0  0  0
    6.7465  -17.9268   17.9072 N   0  0  0  0  0  0  0  0  0  0  0  0
    7.5921  -16.2708   19.4347 C   0  0  0  0  0  0  0  0  0  0  0  0
    8.5980  -17.0735   19.4721 O   0  0  0  0  0  0  0  0  0  0  0  0
    7.6699  -15.0803   20.1566 N   0  0  0  0  0  0  0  0  0  0  0  0
    6.5696  -14.1113   20.2930 C   0  0  0  0  0  0  0  0  0  0  0  0
    7.2256  -12.7724   20.4897 C   0  0  0  0  0  0  0  0  0  0  0  0
    8.6957  -13.0475   20.7176 C   0  0  0  0  0  0  0  0  0  0  0  0
    8.8004  -14.5536   20.8890 C   0  0  1  0  0  0  0  0  0  0  0  0
    8.6680  -14.8315   22.3399 C   0  0  0  0  0  0  0  0  0  0  0  0
    7.5818  -14.6566   22.9329 O   0  0  0  0  0  0  0  0  0  0  0  0
   10.0696  -18.7357   24.5505 C   0  0  0  0  0  0  0  0  0  0  0  0
   10.1298  -17.6545   23.5097 C   0  0  2  0  0  0  0  0  0  0  0  0
   11.5182  -17.5135   22.9321 C   0  0  0  0  0  0  0  0  0  0  0  0
    9.6600  -16.3185   24.0806 C   0  0  2  0  0  0  0  0  0  0  0  0
    9.7872  -15.3004   23.0586 N   0  0  0  0  0  0  0  0  0  0  0  0
   10.4690  -15.9351   25.2501 C   0  0  0  0  0  0  0  0  0  0  0  0
   10.1518  -16.4063   26.5071 O   0  0  0  0  0  0  0  0  0  0  0  0
   11.4516  -15.1784   25.1133 O   0  0  0  0  0  0  0  0  0  0  0  0
  2  1  1  0
  3  2  2  0
  4  2  1  0
  5  4  1  0
  6  5  1  0
  6  7  1  1
  8  6  1  0
  9  8  2  0
 10  8  1  0
 10 14  1  0
 11 12  1  0
 11 10  1  0
 12 13  1  0
 14 13  1  0
 15 21  1  0
 14 15  1  1
 16 15  2  0
 18 17  1  1
 19 18  1  0
 20 21  1  6
 20 18  1  0
 22 20  1  0
 22 23  1  0
 24 22  2  0
M  END
$$$$
