QPV.pdb
     RDKit          3D

 24 24  0  0  1  0  0  0  0  0999 V2000
    7.8147  -18.2216   24.4508 N   0  0  0  0  0  0  0  0  0  0  0  0
    6.8126  -17.8555   23.4887 C   0  0  0  0  0  0  0  0  0  0  0  0
    5.6620  -18.3213   23.6828 O   0  0  0  0  0  0  0  0  0  0  0  0
    7.1312  -16.9754   22.3341 C   0  0  0  0  0  0  0  0  0  0  0  0
    6.3710  -15.6958   22.5131 C   0  0  0  0  0  0  0  0  0  0  0  0
    7.2219  -14.4725   22.2280 C   0  0  2  0  0  0  0  0  0  0  0  0
    7.9861  -14.6894   20.9960 N   0  0  0  0  0  0  0  0  0  0  0  0
    8.1582  -14.3011   23.3646 C   0  0  0  0  0  0  0  0  0  0  0  0
    9.4098  -14.4871   23.1275 O   0  0  0  0  0  0  0  0  0  0  0  0
    7.7759  -13.9534   24.6598 N   0  0  0  0  0  0  0  0  0  0  0  0
    6.3815  -13.8013   25.1079 C   0  0  0  0  0  0  0  0  0  0  0  0
    6.4193  -12.8011   26.2303 C   0  0  0  0  0  0  0  0  0  0  0  0
    7.8794  -12.5950   26.5684 C   0  0  0  0  0  0  0  0  0  0  0  0
    8.6262  -13.6683   25.7945 C   0  0  1  0  0  0  0  0  0  0  0  0
    8.7313  -14.8478   26.6875 C   0  0  0  0  0  0  0  0  0  0  0  0
    7.7305  -15.5494   26.9489 O   0  0  0  0  0  0  0  0  0  0  0  0
   12.7295  -15.8592   27.5706 C   0  0  0  0  0  0  0  0  0  0  0  0
   11.7300  -16.8410   27.0292 C   0  0  2  0  0  0  0  0  0  0  0  0
   11.7164  -16.8471   25.5189 C   0  0  0  0  0  0  0  0  0  0  0  0
   10.3306  -16.5496   27.5661 C   0  0  2  0  0  0  0  0  0  0  0  0
    9.9817  -15.1803   27.2488 N   0  0  0  0  0  0  0  0  0  0  0  0
   10.2802  -16.7368   29.0261 C   0  0  0  0  0  0  0  0  0  0  0  0
   10.3653  -17.9996   29.5744 O   0  0  0  0  0  0  0  0  0  0  0  0
   10.1596  -15.7514   29.7819 O   0  0  0  0  0  0  0  0  0  0  0  0
  2  1  1  0
  3  2  2  0
  4  2  1  0
  5  4  1  0
  6  5  1  0
  6  7  1  6
  8  6  1  0
  9  8  2  0
 10  8  1  0
 10 14  1  0
 11 12  1  0
 11 10  1  0
 12 13  1  0
 14 13  1  0
 15 21  1  0
 14 15  1  1
 16 15  2  0
 18 17  1  6
 19 18  1  0
 20 21  1  1
 20 18  1  0
 22 20  1  0
 22 23  1  0
 24 22  2  0
M  END
$$$$
