QPV.pdb
     RDKit          3D

 24 24  0  0  1  0  0  0  0  0999 V2000
    5.5409  -19.0373   23.8436 N   0  0  0  0  0  0  0  0  0  0  0  0
    6.9265  -19.3496   24.0602 C   0  0  0  0  0  0  0  0  0  0  0  0
    7.3149  -19.3456   25.2550 O   0  0  0  0  0  0  0  0  0  0  0  0
    7.8378  -19.6579   22.9274 C   0  0  0  0  0  0  0  0  0  0  0  0
    7.4019  -18.8329   21.7541 C   0  0  0  0  0  0  0  0  0  0  0  0
    8.5641  -18.1333   21.0749 C   0  0  2  0  0  0  0  0  0  0  0  0
    9.7005  -19.0550   20.9861 N   0  0  0  0  0  0  0  0  0  0  0  0
    8.9390  -16.9684   21.9118 C   0  0  0  0  0  0  0  0  0  0  0  0
   10.0322  -17.0574   22.5861 O   0  0  0  0  0  0  0  0  0  0  0  0
    8.1937  -15.7943   22.0140 N   0  0  0  0  0  0  0  0  0  0  0  0
    6.8684  -15.5892   21.4059 C   0  0  0  0  0  0  0  0  0  0  0  0
    6.7622  -14.1120   21.1449 C   0  0  0  0  0  0  0  0  0  0  0  0
    7.9366  -13.4693   21.8494 C   0  0  0  0  0  0  0  0  0  0  0  0
    8.5465  -14.5708   22.6999 C   0  0  1  0  0  0  0  0  0  0  0  0
    7.8917  -14.5006   24.0288 C   0  0  0  0  0  0  0  0  0  0  0  0
    6.7521  -14.9801   24.2118 O   0  0  0  0  0  0  0  0  0  0  0  0
   10.2065  -14.4306   27.4460 C   0  0  0  0  0  0  0  0  0  0  0  0
    9.0897  -13.4267   27.4209 C   0  0  2  0  0  0  0  0  0  0  0  0
    8.4940  -13.2210   28.7934 C   0  0  0  0  0  0  0  0  0  0  0  0
    8.0021  -13.8426   26.4330 C   0  0  2  0  0  0  0  0  0  0  0  0
    8.5682  -13.8823   25.1007 N   0  0  0  0  0  0  0  0  0  0  0  0
    6.8812  -12.8875   26.4553 C   0  0  0  0  0  0  0  0  0  0  0  0
    5.9010  -12.9792   27.4214 O   0  0  0  0  0  0  0  0  0  0  0  0
    6.8084  -11.9844   25.5975 O   0  0  0  0  0  0  0  0  0  0  0  0
  2  1  1  0
  3  2  2  0
  4  2  1  0
  5  4  1  0
  6  5  1  0
  6  7  1  1
  8  6  1  0
  9  8  2  0
 10  8  1  0
 10 14  1  0
 11 12  1  0
 11 10  1  0
 12 13  1  0
 14 13  1  0
 15 21  1  0
 14 15  1  1
 16 15  2  0
 18 17  1  1
 19 18  1  0
 20 21  1  6
 20 18  1  0
 22 20  1  0
 22 23  1  0
 24 22  2  0
M  END
$$$$
