QPV.pdb
     RDKit          3D

 24 24  0  0  1  0  0  0  0  0999 V2000
    6.0801  -20.2511   19.4952 N   0  0  0  0  0  0  0  0  0  0  0  0
    7.5072  -20.3483   19.3604 C   0  0  0  0  0  0  0  0  0  0  0  0
    8.0270  -21.4277   19.7391 O   0  0  0  0  0  0  0  0  0  0  0  0
    8.3113  -19.2293   18.8034 C   0  0  0  0  0  0  0  0  0  0  0  0
    7.3738  -18.0973   18.5083 C   0  0  0  0  0  0  0  0  0  0  0  0
    8.0930  -16.8772   17.9646 C   0  0  2  0  0  0  0  0  0  0  0  0
    8.9845  -17.2849   16.8748 N   0  0  0  0  0  0  0  0  0  0  0  0
    8.8968  -16.2999   19.0686 C   0  0  0  0  0  0  0  0  0  0  0  0
   10.1777  -16.3749   18.9637 O   0  0  0  0  0  0  0  0  0  0  0  0
    8.3616  -15.6858   20.2004 N   0  0  0  0  0  0  0  0  0  0  0  0
    6.9215  -15.5415   20.4717 C   0  0  0  0  0  0  0  0  0  0  0  0
    6.7861  -14.3036   21.3150 C   0  0  0  0  0  0  0  0  0  0  0  0
    8.1890  -13.9094   21.7214 C   0  0  0  0  0  0  0  0  0  0  0  0
    9.0706  -15.0738   21.3024 C   0  0  1  0  0  0  0  0  0  0  0  0
    9.1452  -15.9957   22.4619 C   0  0  0  0  0  0  0  0  0  0  0  0
    8.1833  -16.7364   22.7591 O   0  0  0  0  0  0  0  0  0  0  0  0
   12.8850  -18.4232   24.5002 C   0  0  0  0  0  0  0  0  0  0  0  0
   12.2324  -17.4956   23.5156 C   0  0  2  0  0  0  0  0  0  0  0  0
   12.9665  -16.1793   23.4187 C   0  0  0  0  0  0  0  0  0  0  0  0
   10.7685  -17.2554   23.8774 C   0  0  2  0  0  0  0  0  0  0  0  0
   10.3213  -16.0347   23.2392 N   0  0  0  0  0  0  0  0  0  0  0  0
   10.6032  -17.1287   25.3354 C   0  0  0  0  0  0  0  0  0  0  0  0
   10.3376  -15.9018   25.9070 O   0  0  0  0  0  0  0  0  0  0  0  0
   10.7025  -18.1335   26.0685 O   0  0  0  0  0  0  0  0  0  0  0  0
  2  1  1  0
  3  2  2  0
  4  2  1  0
  5  4  1  0
  6  5  1  0
  6  7  1  6
  8  6  1  0
  9  8  2  0
 10  8  1  0
 10 14  1  0
 11 12  1  0
 11 10  1  0
 12 13  1  0
 14 13  1  0
 15 21  1  0
 14 15  1  1
 16 15  2  0
 18 17  1  1
 19 18  1  0
 20 21  1  6
 20 18  1  0
 22 20  1  0
 22 23  1  0
 24 22  2  0
M  END
$$$$
