QFD.pdb
     RDKit          3D

 29 29  0  0  1  0  0  0  0  0999 V2000
   16.1423  -21.1202    0.9836 N   0  0  0  0  0  0  0  0  0  0  0  0
   14.9435  -21.1526    1.7198 C   0  0  0  0  0  0  0  0  0  0  0  0
   14.0578  -21.9786    1.4248 O   0  0  0  0  0  0  0  0  0  0  0  0
   14.7239  -20.2190    2.8378 C   0  0  0  0  0  0  0  0  0  0  0  0
   15.8797  -19.2492    3.0029 C   0  0  0  0  0  0  0  0  0  0  0  0
   15.4797  -18.2422    4.0690 C   0  0  2  0  0  0  0  0  0  0  0  0
   14.4923  -17.3760    3.4142 N   0  0  0  0  0  0  0  0  0  0  0  0
   16.6226  -17.3858    4.4591 C   0  0  0  0  0  0  0  0  0  0  0  0
   17.7903  -17.7349    4.1707 O   0  0  0  0  0  0  0  0  0  0  0  0
   16.4861  -16.1545    5.1613 N   0  0  0  0  0  0  0  0  0  0  0  0
   17.6084  -15.3766    5.6114 C   0  0  1  0  0  0  0  0  0  0  0  0
   17.3114  -13.9047    5.3728 C   0  0  0  0  0  0  0  0  0  0  0  0
   18.4427  -13.0363    5.7684 C   0  0  0  0  0  0  0  0  0  0  0  0
   19.5581  -12.8231    4.9942 C   0  0  0  0  0  0  0  0  0  0  0  0
   20.5967  -12.0099    5.3795 C   0  0  0  0  0  0  0  0  0  0  0  0
   20.5661  -11.3577    6.5849 C   0  0  0  0  0  0  0  0  0  0  0  0
   19.4524  -11.5526    7.3906 C   0  0  0  0  0  0  0  0  0  0  0  0
   18.4181  -12.3724    6.9888 C   0  0  0  0  0  0  0  0  0  0  0  0
   17.9364  -15.5454    7.0366 C   0  0  0  0  0  0  0  0  0  0  0  0
   17.0933  -15.2245    7.9019 O   0  0  0  0  0  0  0  0  0  0  0  0
   19.1807  -16.0644    7.4556 N   0  0  0  0  0  0  0  0  0  0  0  0
   19.5219  -16.1874    8.8994 C   0  0  1  0  0  0  0  0  0  0  0  0
   18.8982  -17.4711    9.4135 C   0  0  0  0  0  0  0  0  0  0  0  0
   19.2366  -18.6230    8.6026 C   0  0  0  0  0  0  0  0  0  0  0  0
   19.8859  -18.5068    7.5361 O   0  0  0  0  0  0  0  0  0  0  0  0
   20.9905  -16.2692    8.9266 C   0  0  0  0  0  0  0  0  0  0  0  0
   21.6085  -16.3192   10.0069 O   0  0  0  0  0  0  0  0  0  0  0  0
   18.8753  -19.9362    8.9333 O   0  0  0  0  0  0  0  0  0  0  0  0
   21.7601  -16.2965    7.7721 O   0  0  0  0  0  0  0  0  0  0  0  0
  2  1  1  0
  2  3  2  0
  4  2  1  0
  5  4  1  0
  5  6  1  0
  6  7  1  6
  8  6  1  0
  8 10  1  0
  9  8  2  0
 11 10  1  0
 12 13  1  0
 11 12  1  1
 13 18  2  0
 14 13  1  0
 14 15  2  0
 15 16  1  0
 16 17  2  0
 18 17  1  0
 19 21  1  0
 19 11  1  0
 20 19  2  0
 22 21  1  0
 22 26  1  0
 22 23  1  6
 24 25  2  0
 24 23  1  0
 26 27  2  0
 26 29  1  0
 28 24  1  0
M  END
$$$$
