QFD.pdb
     RDKit          3D

 29 29  0  0  1  0  0  0  0  0999 V2000
   29.4731  -21.2679  -19.2713 N   0  0  0  0  0  0  0  0  0  0  0  0
   28.1370  -21.2921  -19.7123 C   0  0  0  0  0  0  0  0  0  0  0  0
   27.8773  -21.6325  -20.8829 O   0  0  0  0  0  0  0  0  0  0  0  0
   27.0398  -20.9189  -18.8031 C   0  0  0  0  0  0  0  0  0  0  0  0
   27.5560  -20.3708  -17.4852 C   0  0  0  0  0  0  0  0  0  0  0  0
   27.8981  -21.5591  -16.6012 C   0  0  2  0  0  0  0  0  0  0  0  0
   27.6085  -22.7366  -17.4282 N   0  0  0  0  0  0  0  0  0  0  0  0
   27.0100  -21.6260  -15.4186 C   0  0  0  0  0  0  0  0  0  0  0  0
   25.8829  -22.1633  -15.5148 O   0  0  0  0  0  0  0  0  0  0  0  0
   27.3555  -21.1066  -14.1385 N   0  0  0  0  0  0  0  0  0  0  0  0
   26.4512  -21.1023  -13.0207 C   0  0  1  0  0  0  0  0  0  0  0  0
   27.1769  -20.5470  -11.8056 C   0  0  0  0  0  0  0  0  0  0  0  0
   26.3264  -20.5589  -10.5944 C   0  0  0  0  0  0  0  0  0  0  0  0
   26.1185  -21.6678   -9.8094 C   0  0  0  0  0  0  0  0  0  0  0  0
   25.3265  -21.6563   -8.6864 C   0  0  0  0  0  0  0  0  0  0  0  0
   24.6916  -20.5084   -8.2882 C   0  0  0  0  0  0  0  0  0  0  0  0
   24.8815  -19.3705   -9.0606 C   0  0  0  0  0  0  0  0  0  0  0  0
   25.6800  -19.3989  -10.1853 C   0  0  0  0  0  0  0  0  0  0  0  0
   25.2330  -20.3009  -13.2237 C   0  0  0  0  0  0  0  0  0  0  0  0
   25.3126  -19.2042  -13.8184 O   0  0  0  0  0  0  0  0  0  0  0  0
   23.9713  -20.7391  -12.7661 N   0  0  0  0  0  0  0  0  0  0  0  0
   22.7160  -20.0572  -13.1847 C   0  0  1  0  0  0  0  0  0  0  0  0
   22.5922  -20.2009  -14.6898 C   0  0  0  0  0  0  0  0  0  0  0  0
   21.3138  -19.7421  -15.1936 C   0  0  0  0  0  0  0  0  0  0  0  0
   20.8168  -20.2099  -16.2456 O   0  0  0  0  0  0  0  0  0  0  0  0
   21.6464  -20.7965  -12.4965 C   0  0  0  0  0  0  0  0  0  0  0  0
   21.8930  -21.8468  -11.8742 O   0  0  0  0  0  0  0  0  0  0  0  0
   20.5403  -18.7582  -14.5626 O   0  0  0  0  0  0  0  0  0  0  0  0
   20.3243  -20.3747  -12.4984 O   0  0  0  0  0  0  0  0  0  0  0  0
  2  1  1  0
  2  3  2  0
  4  2  1  0
  5  4  1  0
  5  6  1  0
  6  7  1  6
  8  6  1  0
  8 10  1  0
  9  8  2  0
 11 10  1  0
 12 13  1  0
 11 12  1  1
 13 18  2  0
 14 13  1  0
 14 15  2  0
 15 16  1  0
 16 17  2  0
 18 17  1  0
 19 21  1  0
 19 11  1  0
 20 19  2  0
 22 21  1  0
 22 26  1  0
 22 23  1  6
 24 25  2  0
 24 23  1  0
 26 27  2  0
 26 29  1  0
 28 24  1  0
M  END
$$$$
