QFD.pdb
     RDKit          3D

 29 29  0  0  1  0  0  0  0  0999 V2000
   16.3384  -22.3663    2.0596 N   0  0  0  0  0  0  0  0  0  0  0  0
   15.2680  -21.8009    1.3421 C   0  0  0  0  0  0  0  0  0  0  0  0
   14.3839  -22.5388    0.8650 O   0  0  0  0  0  0  0  0  0  0  0  0
   15.1808  -20.3433    1.1489 C   0  0  0  0  0  0  0  0  0  0  0  0
   16.3288  -19.6119    1.8207 C   0  0  0  0  0  0  0  0  0  0  0  0
   15.9806  -19.4749    3.2940 C   0  0  2  0  0  0  0  0  0  0  0  0
   14.8072  -18.5937    3.3211 N   0  0  0  0  0  0  0  0  0  0  0  0
   17.0591  -18.7905    4.0425 C   0  0  0  0  0  0  0  0  0  0  0  0
   18.2285  -19.2368    3.9991 O   0  0  0  0  0  0  0  0  0  0  0  0
   16.8566  -17.6242    4.8340 N   0  0  0  0  0  0  0  0  0  0  0  0
   17.8982  -17.0112    5.6130 C   0  0  1  0  0  0  0  0  0  0  0  0
   17.5176  -15.5651    5.8879 C   0  0  0  0  0  0  0  0  0  0  0  0
   18.0889  -14.6379    4.8856 C   0  0  0  0  0  0  0  0  0  0  0  0
   18.2310  -13.2847    5.0802 C   0  0  0  0  0  0  0  0  0  0  0  0
   18.7671  -12.4416    4.1368 C   0  0  0  0  0  0  0  0  0  0  0  0
   19.1954  -12.9248    2.9275 C   0  0  0  0  0  0  0  0  0  0  0  0
   19.0652  -14.2882    2.7000 C   0  0  0  0  0  0  0  0  0  0  0  0
   18.5248  -15.1211    3.6579 C   0  0  0  0  0  0  0  0  0  0  0  0
   18.1572  -17.6633    6.9071 C   0  0  0  0  0  0  0  0  0  0  0  0
   17.1929  -18.0018    7.6271 O   0  0  0  0  0  0  0  0  0  0  0  0
   19.4697  -17.9209    7.3591 N   0  0  0  0  0  0  0  0  0  0  0  0
   19.7219  -18.5887    8.6654 C   0  0  1  0  0  0  0  0  0  0  0  0
   20.8857  -19.5436    8.4788 C   0  0  0  0  0  0  0  0  0  0  0  0
   21.2598  -20.2181    9.7052 C   0  0  0  0  0  0  0  0  0  0  0  0
   22.2269  -19.8265   10.4008 O   0  0  0  0  0  0  0  0  0  0  0  0
   20.0828  -17.4924    9.5776 C   0  0  0  0  0  0  0  0  0  0  0  0
   20.2609  -17.7032   10.7922 O   0  0  0  0  0  0  0  0  0  0  0  0
   20.5880  -21.3407   10.2079 O   0  0  0  0  0  0  0  0  0  0  0  0
   20.2448  -16.1831    9.1469 O   0  0  0  0  0  0  0  0  0  0  0  0
  2  1  1  0
  2  3  2  0
  4  2  1  0
  5  4  1  0
  5  6  1  0
  6  7  1  6
  8  6  1  0
  8 10  1  0
  9  8  2  0
 11 10  1  0
 12 13  1  0
 11 12  1  1
 13 18  2  0
 14 13  1  0
 14 15  2  0
 15 16  1  0
 16 17  2  0
 18 17  1  0
 19 21  1  0
 19 11  1  0
 20 19  2  0
 22 21  1  0
 22 26  1  0
 22 23  1  6
 24 25  2  0
 24 23  1  0
 26 27  2  0
 26 29  1  0
 28 24  1  0
M  END
$$$$
