QFD.pdb
     RDKit          3D

 29 29  0  0  1  0  0  0  0  0999 V2000
   26.5068  -17.2206  -16.6366 N   0  0  0  0  0  0  0  0  0  0  0  0
   27.8704  -17.1887  -16.2905 C   0  0  0  0  0  0  0  0  0  0  0  0
   28.6268  -16.3573  -16.8293 O   0  0  0  0  0  0  0  0  0  0  0  0
   28.4144  -18.1293  -15.2960 C   0  0  0  0  0  0  0  0  0  0  0  0
   27.3232  -18.9547  -14.6388 C   0  0  0  0  0  0  0  0  0  0  0  0
   28.0006  -19.9366  -13.6968 C   0  0  2  0  0  0  0  0  0  0  0  0
   28.6045  -20.9440  -14.5769 N   0  0  0  0  0  0  0  0  0  0  0  0
   27.0129  -20.6362  -12.8441 C   0  0  0  0  0  0  0  0  0  0  0  0
   26.6664  -21.8068  -13.1234 O   0  0  0  0  0  0  0  0  0  0  0  0
   26.4088  -20.0557  -11.6927 N   0  0  0  0  0  0  0  0  0  0  0  0
   25.3005  -20.6541  -10.9993 C   0  0  1  0  0  0  0  0  0  0  0  0
   25.1802  -20.0155   -9.6248 C   0  0  0  0  0  0  0  0  0  0  0  0
   26.4045  -20.2017   -8.8143 C   0  0  0  0  0  0  0  0  0  0  0  0
   26.8278  -19.3244   -7.8447 C   0  0  0  0  0  0  0  0  0  0  0  0
   27.9671  -19.5180   -7.1011 C   0  0  0  0  0  0  0  0  0  0  0  0
   28.7533  -20.6236   -7.2981 C   0  0  0  0  0  0  0  0  0  0  0  0
   28.3526  -21.5293   -8.2712 C   0  0  0  0  0  0  0  0  0  0  0  0
   27.2058  -21.3201   -9.0090 C   0  0  0  0  0  0  0  0  0  0  0  0
   24.0033  -20.5076  -11.6799 C   0  0  0  0  0  0  0  0  0  0  0  0
   23.7283  -19.4297  -12.2501 O   0  0  0  0  0  0  0  0  0  0  0  0
   23.0578  -21.5557  -11.7091 N   0  0  0  0  0  0  0  0  0  0  0  0
   21.7810  -21.4260  -12.4635 C   0  0  1  0  0  0  0  0  0  0  0  0
   21.5347  -22.7382  -13.1837 C   0  0  0  0  0  0  0  0  0  0  0  0
   20.7248  -22.5809  -14.3745 C   0  0  0  0  0  0  0  0  0  0  0  0
   21.0966  -21.8595  -15.3305 O   0  0  0  0  0  0  0  0  0  0  0  0
   20.7616  -21.1956  -11.4281 C   0  0  0  0  0  0  0  0  0  0  0  0
   19.5736  -20.9831  -11.7362 O   0  0  0  0  0  0  0  0  0  0  0  0
   19.4843  -23.2075  -14.5561 O   0  0  0  0  0  0  0  0  0  0  0  0
   21.0570  -21.2027  -10.0722 O   0  0  0  0  0  0  0  0  0  0  0  0
  2  1  1  0
  2  3  2  0
  4  2  1  0
  5  4  1  0
  5  6  1  0
  6  7  1  6
  8  6  1  0
  8 10  1  0
  9  8  2  0
 11 10  1  0
 12 13  1  0
 11 12  1  1
 13 18  2  0
 14 13  1  0
 14 15  2  0
 15 16  1  0
 16 17  2  0
 18 17  1  0
 19 21  1  0
 19 11  1  0
 20 19  2  0
 22 21  1  0
 22 26  1  0
 22 23  1  1
 24 25  2  0
 24 23  1  0
 26 27  2  0
 26 29  1  0
 28 24  1  0
M  END
$$$$
