QFD.pdb
     RDKit          3D

 29 29  0  0  1  0  0  0  0  0999 V2000
   21.4455  -19.7886  -11.2611 N   0  0  0  0  0  0  0  0  0  0  0  0
   21.6922  -21.1727  -11.2013 C   0  0  0  0  0  0  0  0  0  0  0  0
   20.8114  -21.9751  -11.5674 O   0  0  0  0  0  0  0  0  0  0  0  0
   22.9831  -21.6843  -10.7100 C   0  0  0  0  0  0  0  0  0  0  0  0
   23.8825  -20.5688  -10.2094 C   0  0  0  0  0  0  0  0  0  0  0  0
   25.2810  -20.8392  -10.7402 C   0  0  2  0  0  0  0  0  0  0  0  0
   26.1786  -20.4484   -9.6467 N   0  0  0  0  0  0  0  0  0  0  0  0
   25.5969  -19.9711  -11.8971 C   0  0  0  0  0  0  0  0  0  0  0  0
   25.7301  -18.7367  -11.7324 O   0  0  0  0  0  0  0  0  0  0  0  0
   25.7653  -20.4533  -13.2263 N   0  0  0  0  0  0  0  0  0  0  0  0
   25.8674  -19.5882  -14.3703 C   0  0  1  0  0  0  0  0  0  0  0  0
   27.1069  -19.9698  -15.1638 C   0  0  0  0  0  0  0  0  0  0  0  0
   27.2904  -19.1139  -16.3572 C   0  0  0  0  0  0  0  0  0  0  0  0
   27.7523  -17.8201  -16.3141 C   0  0  0  0  0  0  0  0  0  0  0  0
   27.9182  -17.0431  -17.4354 C   0  0  0  0  0  0  0  0  0  0  0  0
   27.6226  -17.5364  -18.6798 C   0  0  0  0  0  0  0  0  0  0  0  0
   27.1533  -18.8408  -18.7571 C   0  0  0  0  0  0  0  0  0  0  0  0
   26.9926  -19.6075  -17.6215 C   0  0  0  0  0  0  0  0  0  0  0  0
   24.7132  -19.6431  -15.2824 C   0  0  0  0  0  0  0  0  0  0  0  0
   24.2200  -20.7522  -15.5813 O   0  0  0  0  0  0  0  0  0  0  0  0
   24.1432  -18.4730  -15.8297 N   0  0  0  0  0  0  0  0  0  0  0  0
   22.9059  -18.5276  -16.6555 C   0  0  1  0  0  0  0  0  0  0  0  0
   21.7555  -18.0372  -15.7969 C   0  0  0  0  0  0  0  0  0  0  0  0
   20.6737  -18.9967  -15.7074 C   0  0  0  0  0  0  0  0  0  0  0  0
   20.7044  -20.0808  -16.3370 O   0  0  0  0  0  0  0  0  0  0  0  0
   23.1631  -17.6006  -17.7686 C   0  0  0  0  0  0  0  0  0  0  0  0
   23.2311  -16.3720  -17.5751 O   0  0  0  0  0  0  0  0  0  0  0  0
   19.5263  -18.8000  -14.9270 O   0  0  0  0  0  0  0  0  0  0  0  0
   23.3434  -18.0317  -19.0753 O   0  0  0  0  0  0  0  0  0  0  0  0
  2  1  1  0
  2  3  2  0
  4  2  1  0
  5  4  1  0
  5  6  1  0
  6  7  1  1
  8  6  1  0
  8 10  1  0
  9  8  2  0
 11 10  1  0
 12 13  1  0
 11 12  1  6
 13 18  2  0
 14 13  1  0
 14 15  2  0
 15 16  1  0
 16 17  2  0
 18 17  1  0
 19 21  1  0
 19 11  1  0
 20 19  2  0
 22 21  1  0
 22 26  1  0
 22 23  1  1
 24 25  2  0
 24 23  1  0
 26 27  2  0
 26 29  1  0
 28 24  1  0
M  END
$$$$
