QFD.pdb
     RDKit          3D

 29 29  0  0  1  0  0  0  0  0999 V2000
   25.1910  -15.5517  -18.5714 N   0  0  0  0  0  0  0  0  0  0  0  0
   25.8485  -14.6689  -19.4480 C   0  0  0  0  0  0  0  0  0  0  0  0
   26.9336  -15.0015  -19.9634 O   0  0  0  0  0  0  0  0  0  0  0  0
   25.2666  -13.3530  -19.7639 C   0  0  0  0  0  0  0  0  0  0  0  0
   23.9084  -13.1621  -19.1139 C   0  0  0  0  0  0  0  0  0  0  0  0
   23.4466  -11.7492  -19.4319 C   0  0  2  0  0  0  0  0  0  0  0  0
   24.5189  -11.1819  -20.2579 N   0  0  0  0  0  0  0  0  0  0  0  0
   23.3539  -10.9227  -18.2071 C   0  0  0  0  0  0  0  0  0  0  0  0
   22.5276  -11.2210  -17.3145 O   0  0  0  0  0  0  0  0  0  0  0  0
   24.1621   -9.7761  -17.9626 N   0  0  0  0  0  0  0  0  0  0  0  0
   24.0754   -8.9943  -16.7590 C   0  0  1  0  0  0  0  0  0  0  0  0
   25.4547   -8.4451  -16.4312 C   0  0  0  0  0  0  0  0  0  0  0  0
   26.4639   -9.5188  -16.2923 C   0  0  0  0  0  0  0  0  0  0  0  0
   27.5514   -9.6661  -17.1197 C   0  0  0  0  0  0  0  0  0  0  0  0
   28.4788  -10.6693  -16.9712 C   0  0  0  0  0  0  0  0  0  0  0  0
   28.3577  -11.5923  -15.9649 C   0  0  0  0  0  0  0  0  0  0  0  0
   27.2691  -11.4708  -15.1117 C   0  0  0  0  0  0  0  0  0  0  0  0
   26.3471  -10.4576  -15.2746 C   0  0  0  0  0  0  0  0  0  0  0  0
   23.1435   -7.8571  -16.8351 C   0  0  0  0  0  0  0  0  0  0  0  0
   22.9743   -7.2752  -17.9284 O   0  0  0  0  0  0  0  0  0  0  0  0
   22.4302   -7.4049  -15.7037 N   0  0  0  0  0  0  0  0  0  0  0  0
   21.3591   -6.3780  -15.8232 C   0  0  1  0  0  0  0  0  0  0  0  0
   20.2994   -6.9229  -16.7619 C   0  0  0  0  0  0  0  0  0  0  0  0
   19.0855   -6.1322  -16.7569 C   0  0  0  0  0  0  0  0  0  0  0  0
   19.1185   -4.8790  -16.7882 O   0  0  0  0  0  0  0  0  0  0  0  0
   20.8290   -6.2361  -14.4581 C   0  0  0  0  0  0  0  0  0  0  0  0
   20.3544   -5.1536  -14.0655 O   0  0  0  0  0  0  0  0  0  0  0  0
   17.7993   -6.6876  -16.7175 O   0  0  0  0  0  0  0  0  0  0  0  0
   20.8250   -7.2808  -13.5446 O   0  0  0  0  0  0  0  0  0  0  0  0
  2  1  1  0
  2  3  2  0
  4  2  1  0
  5  4  1  0
  5  6  1  0
  6  7  1  6
  8  6  1  0
  8 10  1  0
  9  8  2  0
 11 10  1  0
 12 13  1  0
 11 12  1  6
 13 18  2  0
 14 13  1  0
 14 15  2  0
 15 16  1  0
 16 17  2  0
 18 17  1  0
 19 21  1  0
 19 11  1  0
 20 19  2  0
 22 21  1  0
 22 26  1  0
 22 23  1  6
 24 25  2  0
 24 23  1  0
 26 27  2  0
 26 29  1  0
 28 24  1  0
M  END
$$$$
