QFD.pdb
     RDKit          3D

 29 29  0  0  1  0  0  0  0  0999 V2000
   27.8913  -18.5759  -19.9230 N   0  0  0  0  0  0  0  0  0  0  0  0
   26.9100  -19.5759  -20.0551 C   0  0  0  0  0  0  0  0  0  0  0  0
   26.5047  -19.9000  -21.1884 O   0  0  0  0  0  0  0  0  0  0  0  0
   26.3559  -20.2453  -18.8658 C   0  0  0  0  0  0  0  0  0  0  0  0
   26.8565  -19.6190  -17.5769 C   0  0  0  0  0  0  0  0  0  0  0  0
   27.5459  -20.7128  -16.7776 C   0  0  2  0  0  0  0  0  0  0  0  0
   27.5321  -21.8862  -17.6592 N   0  0  0  0  0  0  0  0  0  0  0  0
   26.7715  -21.0665  -15.5664 C   0  0  0  0  0  0  0  0  0  0  0  0
   25.7498  -21.7837  -15.6669 O   0  0  0  0  0  0  0  0  0  0  0  0
   27.1151  -20.6362  -14.2532 N   0  0  0  0  0  0  0  0  0  0  0  0
   26.2785  -20.8642  -13.1062 C   0  0  1  0  0  0  0  0  0  0  0  0
   27.0192  -20.4046  -11.8605 C   0  0  0  0  0  0  0  0  0  0  0  0
   26.2010  -20.5579  -10.6368 C   0  0  0  0  0  0  0  0  0  0  0  0
   26.1476  -21.7069   -9.8844 C   0  0  0  0  0  0  0  0  0  0  0  0
   25.3829  -21.8273   -8.7490 C   0  0  0  0  0  0  0  0  0  0  0  0
   24.6190  -20.7795   -8.3041 C   0  0  0  0  0  0  0  0  0  0  0  0
   24.6512  -19.6043   -9.0427 C   0  0  0  0  0  0  0  0  0  0  0  0
   25.4244  -19.4999  -10.1805 C   0  0  0  0  0  0  0  0  0  0  0  0
   24.9841  -20.1641  -13.1455 C   0  0  0  0  0  0  0  0  0  0  0  0
   24.9539  -18.9464  -13.4266 O   0  0  0  0  0  0  0  0  0  0  0  0
   23.7701  -20.8325  -12.8760 N   0  0  0  0  0  0  0  0  0  0  0  0
   22.4610  -20.1306  -12.9748 C   0  0  1  0  0  0  0  0  0  0  0  0
   22.2637  -19.7229  -14.4226 C   0  0  0  0  0  0  0  0  0  0  0  0
   20.9434  -19.1842  -14.6785 C   0  0  0  0  0  0  0  0  0  0  0  0
   20.4571  -18.2732  -13.9671 O   0  0  0  0  0  0  0  0  0  0  0  0
   21.4690  -21.1400  -12.5733 C   0  0  0  0  0  0  0  0  0  0  0  0
   21.6620  -22.3503  -12.7954 O   0  0  0  0  0  0  0  0  0  0  0  0
   20.1154  -19.6250  -15.7199 O   0  0  0  0  0  0  0  0  0  0  0  0
   20.2823  -20.8101  -11.9339 O   0  0  0  0  0  0  0  0  0  0  0  0
  2  1  1  0
  2  3  2  0
  4  2  1  0
  5  4  1  0
  5  6  1  0
  6  7  1  6
  8  6  1  0
  8 10  1  0
  9  8  2  0
 11 10  1  0
 12 13  1  0
 11 12  1  1
 13 18  2  0
 14 13  1  0
 14 15  2  0
 15 16  1  0
 16 17  2  0
 18 17  1  0
 19 21  1  0
 19 11  1  0
 20 19  2  0
 22 21  1  0
 22 26  1  0
 22 23  1  6
 24 25  2  0
 24 23  1  0
 26 27  2  0
 26 29  1  0
 28 24  1  0
M  END
$$$$
