QFD.pdb
     RDKit          3D

 29 29  0  0  1  0  0  0  0  0999 V2000
   23.0134  -15.7135  -18.1899 N   0  0  0  0  0  0  0  0  0  0  0  0
   23.1937  -15.3439  -19.5357 C   0  0  0  0  0  0  0  0  0  0  0  0
   22.9471  -16.1639  -20.4415 O   0  0  0  0  0  0  0  0  0  0  0  0
   23.6714  -13.9953  -19.8860 C   0  0  0  0  0  0  0  0  0  0  0  0
   23.9706  -13.1611  -18.6537 C   0  0  0  0  0  0  0  0  0  0  0  0
   23.3308  -11.7979  -18.8609 C   0  0  2  0  0  0  0  0  0  0  0  0
   24.0716  -11.2028  -19.9796 N   0  0  0  0  0  0  0  0  0  0  0  0
   23.5348  -10.9212  -17.6855 C   0  0  0  0  0  0  0  0  0  0  0  0
   22.9931  -11.2068  -16.5930 O   0  0  0  0  0  0  0  0  0  0  0  0
   24.3274   -9.7384  -17.7079 N   0  0  0  0  0  0  0  0  0  0  0  0
   24.4731   -8.8671  -16.5734 C   0  0  1  0  0  0  0  0  0  0  0  0
   25.9493   -8.5601  -16.3779 C   0  0  0  0  0  0  0  0  0  0  0  0
   26.7507   -9.7864  -16.1669 C   0  0  0  0  0  0  0  0  0  0  0  0
   26.6451  -10.5953  -15.0607 C   0  0  0  0  0  0  0  0  0  0  0  0
   27.3973  -11.7320  -14.8858 C   0  0  0  0  0  0  0  0  0  0  0  0
   28.3107  -12.1203  -15.8314 C   0  0  0  0  0  0  0  0  0  0  0  0
   28.4413  -11.3238  -16.9610 C   0  0  0  0  0  0  0  0  0  0  0  0
   27.6783  -10.1856  -17.1213 C   0  0  0  0  0  0  0  0  0  0  0  0
   23.7577   -7.5859  -16.6915 C   0  0  0  0  0  0  0  0  0  0  0  0
   23.5547   -7.0991  -17.8248 O   0  0  0  0  0  0  0  0  0  0  0  0
   23.2899   -6.8895  -15.5559 N   0  0  0  0  0  0  0  0  0  0  0  0
   22.4512   -5.6667  -15.6884 C   0  0  1  0  0  0  0  0  0  0  0  0
   21.1821   -6.0546  -16.4233 C   0  0  0  0  0  0  0  0  0  0  0  0
   20.2500   -4.9530  -16.5525 C   0  0  0  0  0  0  0  0  0  0  0  0
   19.4287   -4.6783  -15.6456 O   0  0  0  0  0  0  0  0  0  0  0  0
   22.1557   -5.2691  -14.3032 C   0  0  0  0  0  0  0  0  0  0  0  0
   22.0129   -6.1242  -13.4089 O   0  0  0  0  0  0  0  0  0  0  0  0
   20.1879   -4.1186  -17.6770 O   0  0  0  0  0  0  0  0  0  0  0  0
   22.0225   -3.9427  -13.9175 O   0  0  0  0  0  0  0  0  0  0  0  0
  2  1  1  0
  2  3  2  0
  4  2  1  0
  5  4  1  0
  5  6  1  0
  6  7  1  6
  8  6  1  0
  8 10  1  0
  9  8  2  0
 11 10  1  0
 12 13  1  0
 11 12  1  6
 13 18  2  0
 14 13  1  0
 14 15  2  0
 15 16  1  0
 16 17  2  0
 18 17  1  0
 19 21  1  0
 19 11  1  0
 20 19  2  0
 22 21  1  0
 22 26  1  0
 22 23  1  6
 24 25  2  0
 24 23  1  0
 26 27  2  0
 26 29  1  0
 28 24  1  0
M  END
$$$$
