QFD.pdb
     RDKit          3D

 29 29  0  0  1  0  0  0  0  0999 V2000
   27.9394  -20.2453  -20.3158 N   0  0  0  0  0  0  0  0  0  0  0  0
   28.7720  -19.6721  -19.3368 C   0  0  0  0  0  0  0  0  0  0  0  0
   29.5333  -18.7339  -19.6434 O   0  0  0  0  0  0  0  0  0  0  0  0
   28.7533  -20.1699  -17.9506 C   0  0  0  0  0  0  0  0  0  0  0  0
   27.9481  -21.4498  -17.8179 C   0  0  0  0  0  0  0  0  0  0  0  0
   26.5843  -21.0735  -17.2621 C   0  0  2  0  0  0  0  0  0  0  0  0
   26.5696  -19.6059  -17.2677 N   0  0  0  0  0  0  0  0  0  0  0  0
   26.4364  -21.5071  -15.8542 C   0  0  0  0  0  0  0  0  0  0  0  0
   26.2974  -22.7228  -15.5875 O   0  0  0  0  0  0  0  0  0  0  0  0
   26.4407  -20.6132  -14.7458 N   0  0  0  0  0  0  0  0  0  0  0  0
   26.1614  -21.0293  -13.3981 C   0  0  1  0  0  0  0  0  0  0  0  0
   26.6746  -19.9656  -12.4407 C   0  0  0  0  0  0  0  0  0  0  0  0
   26.3556  -20.2836  -11.0309 C   0  0  0  0  0  0  0  0  0  0  0  0
   25.1864  -19.9226  -10.4049 C   0  0  0  0  0  0  0  0  0  0  0  0
   24.9087  -20.2307   -9.0948 C   0  0  0  0  0  0  0  0  0  0  0  0
   25.8089  -20.9302   -8.3334 C   0  0  0  0  0  0  0  0  0  0  0  0
   27.0002  -21.3095   -8.9370 C   0  0  0  0  0  0  0  0  0  0  0  0
   27.2635  -20.9923  -10.2535 C   0  0  0  0  0  0  0  0  0  0  0  0
   24.7341  -21.2455  -13.1091 C   0  0  0  0  0  0  0  0  0  0  0  0
   24.3998  -21.7538  -12.0171 O   0  0  0  0  0  0  0  0  0  0  0  0
   23.7275  -20.8910  -14.0335 N   0  0  0  0  0  0  0  0  0  0  0  0
   22.2839  -21.0293  -13.6974 C   0  0  1  0  0  0  0  0  0  0  0  0
   21.6879  -19.6355  -13.6385 C   0  0  0  0  0  0  0  0  0  0  0  0
   20.2451  -19.6477  -13.5081 C   0  0  0  0  0  0  0  0  0  0  0  0
   19.5176  -18.8938  -14.1972 O   0  0  0  0  0  0  0  0  0  0  0  0
   21.7156  -21.7969  -14.8163 C   0  0  0  0  0  0  0  0  0  0  0  0
   20.6899  -22.4866  -14.6631 O   0  0  0  0  0  0  0  0  0  0  0  0
   19.5545  -20.4842  -12.6207 O   0  0  0  0  0  0  0  0  0  0  0  0
   22.2770  -21.7969  -16.0855 O   0  0  0  0  0  0  0  0  0  0  0  0
  2  1  1  0
  2  3  2  0
  4  2  1  0
  5  4  1  0
  5  6  1  0
  6  7  1  1
  8  6  1  0
  8 10  1  0
  9  8  2  0
 11 10  1  0
 12 13  1  0
 11 12  1  1
 13 18  2  0
 14 13  1  0
 14 15  2  0
 15 16  1  0
 16 17  2  0
 18 17  1  0
 19 21  1  0
 19 11  1  0
 20 19  2  0
 22 21  1  0
 22 26  1  0
 22 23  1  6
 24 25  2  0
 24 23  1  0
 26 27  2  0
 26 29  1  0
 28 24  1  0
M  END
$$$$
