PWY.pdb
     RDKit          3D

 34 37  0  0  1  0  0  0  0  0999 V2000
   29.4668  -20.6422  -16.8837 N   0  0  0  0  0  0  0  0  0  0  0  0
   30.6284  -20.8420  -17.7549 C   0  0  0  0  0  0  0  0  0  0  0  0
   31.0906  -22.2549  -17.5422 C   0  0  0  0  0  0  0  0  0  0  0  0
   30.0800  -22.8246  -16.5555 C   0  0  0  0  0  0  0  0  0  0  0  0
   28.8623  -21.9579  -16.9083 C   0  0  1  0  0  0  0  0  0  0  0  0
   27.7870  -22.1181  -15.9281 C   0  0  0  0  0  0  0  0  0  0  0  0
   27.1473  -23.2143  -15.7757 O   0  0  0  0  0  0  0  0  0  0  0  0
   27.4468  -21.0099  -15.1193 N   0  0  0  0  0  0  0  0  0  0  0  0
   26.4882  -21.0940  -13.9997 C   0  0  1  0  0  0  0  0  0  0  0  0
   27.1814  -20.7370  -12.7444 C   0  0  0  0  0  0  0  0  0  0  0  0
   26.4888  -20.9613  -11.4773 C   0  0  0  0  0  0  0  0  0  0  0  0
   25.8562  -22.1149  -11.0232 C   0  0  0  0  0  0  0  0  0  0  0  0
   25.3329  -21.9183   -9.8085 N   0  0  0  0  0  0  0  0  0  0  0  0
   25.5995  -20.6479   -9.4271 C   0  0  0  0  0  0  0  0  0  0  0  0
   25.2973  -19.9508   -8.2659 C   0  0  0  0  0  0  0  0  0  0  0  0
   25.7038  -18.6439   -8.1105 C   0  0  0  0  0  0  0  0  0  0  0  0
   26.4139  -18.0427   -9.1269 C   0  0  0  0  0  0  0  0  0  0  0  0
   26.7129  -18.7514  -10.2915 C   0  0  0  0  0  0  0  0  0  0  0  0
   26.3056  -20.0438  -10.4330 C   0  0  0  0  0  0  0  0  0  0  0  0
   25.2791  -20.4251  -14.3843 C   0  0  0  0  0  0  0  0  0  0  0  0
   25.3417  -19.2075  -14.7701 O   0  0  0  0  0  0  0  0  0  0  0  0
   16.8316  -19.1224  -16.2520 O   0  0  0  0  0  0  0  0  0  0  0  0
   18.0401  -19.6861  -15.9307 C   0  0  0  0  0  0  0  0  0  0  0  0
   19.0611  -19.7085  -16.8651 C   0  0  0  0  0  0  0  0  0  0  0  0
   20.2934  -20.2630  -16.5911 C   0  0  0  0  0  0  0  0  0  0  0  0
   20.4778  -20.8082  -15.3217 C   0  0  0  0  0  0  0  0  0  0  0  0
   21.7760  -21.4094  -15.0116 C   0  0  0  0  0  0  0  0  0  0  0  0
   22.7806  -20.3122  -14.6382 C   0  0  2  0  0  0  0  0  0  0  0  0
   24.0164  -21.0642  -14.3612 N   0  0  0  0  0  0  0  0  0  0  0  0
   22.3698  -19.5759  -13.4556 C   0  0  0  0  0  0  0  0  0  0  0  0
   21.7597  -18.3335  -13.5495 O   0  0  0  0  0  0  0  0  0  0  0  0
   19.4733  -20.7937  -14.3827 C   0  0  0  0  0  0  0  0  0  0  0  0
   18.2464  -20.2369  -14.6678 C   0  0  0  0  0  0  0  0  0  0  0  0
   22.5451  -20.0229  -12.2932 O   0  0  0  0  0  0  0  0  0  0  0  0
  1  2  1  0
  3  2  1  0
  4  5  1  0
  4  3  1  0
  5  1  1  0
  5  6  1  1
  6  7  2  0
  8  6  1  0
  8  9  1  0
  9 20  1  0
  9 10  1  1
 11 10  1  0
 11 12  2  0
 13 12  1  0
 14 13  1  0
 15 14  2  0
 16 15  1  0
 17 16  2  0
 17 18  1  0
 18 19  2  0
 19 14  1  0
 19 11  1  0
 20 21  2  0
 22 23  1  0
 23 33  2  0
 23 24  1  0
 24 25  2  0
 25 26  1  0
 26 27  1  0
 28 27  1  1
 28 30  1  0
 29 28  1  0
 29 20  1  0
 30 31  1  0
 32 26  2  0
 33 32  1  0
 34 30  2  0
M  END
$$$$
