PWY.pdb
     RDKit          3D

 34 37  0  0  1  0  0  0  0  0999 V2000
   27.5449  -18.2748  -14.0348 N   0  0  0  0  0  0  0  0  0  0  0  0
   28.1141  -17.3630  -15.0312 C   0  0  0  0  0  0  0  0  0  0  0  0
   29.3808  -17.9997  -15.5263 C   0  0  0  0  0  0  0  0  0  0  0  0
   29.4327  -19.3309  -14.7882 C   0  0  0  0  0  0  0  0  0  0  0  0
   27.9297  -19.5626  -14.5739 C   0  0  1  0  0  0  0  0  0  0  0  0
   27.6836  -20.6721  -13.6513 C   0  0  0  0  0  0  0  0  0  0  0  0
   27.7238  -21.8968  -14.0156 O   0  0  0  0  0  0  0  0  0  0  0  0
   27.3897  -20.3694  -12.3023 N   0  0  0  0  0  0  0  0  0  0  0  0
   27.1338  -21.4051  -11.2818 C   0  0  1  0  0  0  0  0  0  0  0  0
   27.9357  -21.1032  -10.0778 C   0  0  0  0  0  0  0  0  0  0  0  0
   27.2506  -20.5846   -8.8957 C   0  0  0  0  0  0  0  0  0  0  0  0
   25.8998  -20.2928   -8.7303 C   0  0  0  0  0  0  0  0  0  0  0  0
   25.6652  -19.8298   -7.4979 N   0  0  0  0  0  0  0  0  0  0  0  0
   26.8360  -19.8017   -6.8202 C   0  0  0  0  0  0  0  0  0  0  0  0
   27.1401  -19.4244   -5.5200 C   0  0  0  0  0  0  0  0  0  0  0  0
   28.4339  -19.5054   -5.0542 C   0  0  0  0  0  0  0  0  0  0  0  0
   29.4183  -19.9665   -5.9011 C   0  0  0  0  0  0  0  0  0  0  0  0
   29.1031  -20.3434   -7.2075 C   0  0  0  0  0  0  0  0  0  0  0  0
   27.8195  -20.2589   -7.6563 C   0  0  0  0  0  0  0  0  0  0  0  0
   25.7175  -21.6098  -11.1859 C   0  0  0  0  0  0  0  0  0  0  0  0
   25.2720  -22.4707  -10.3518 O   0  0  0  0  0  0  0  0  0  0  0  0
   17.3607  -19.9129  -10.3609 O   0  0  0  0  0  0  0  0  0  0  0  0
   18.7284  -19.9579  -10.4547 C   0  0  0  0  0  0  0  0  0  0  0  0
   19.3932  -19.0655  -11.2779 C   0  0  0  0  0  0  0  0  0  0  0  0
   20.7659  -19.0699  -11.4066 C   0  0  0  0  0  0  0  0  0  0  0  0
   21.4713  -20.0184  -10.6680 C   0  0  0  0  0  0  0  0  0  0  0  0
   22.9293  -20.0463  -10.7954 C   0  0  0  0  0  0  0  0  0  0  0  0
   23.3403  -21.1034  -11.8279 C   0  0  2  0  0  0  0  0  0  0  0  0
   24.7899  -20.8882  -11.9748 N   0  0  0  0  0  0  0  0  0  0  0  0
   22.6756  -20.9066  -13.1043 C   0  0  0  0  0  0  0  0  0  0  0  0
   23.2254  -20.1038  -14.0931 O   0  0  0  0  0  0  0  0  0  0  0  0
   20.8253  -20.9117   -9.8460 C   0  0  0  0  0  0  0  0  0  0  0  0
   19.4534  -20.8977   -9.7255 C   0  0  0  0  0  0  0  0  0  0  0  0
   21.5744  -21.4495  -13.3773 O   0  0  0  0  0  0  0  0  0  0  0  0
  1  2  1  0
  3  2  1  0
  4  5  1  0
  4  3  1  0
  5  1  1  0
  5  6  1  1
  6  7  2  0
  8  6  1  0
  8  9  1  0
  9 20  1  0
  9 10  1  1
 11 10  1  0
 11 12  2  0
 13 12  1  0
 14 13  1  0
 15 14  2  0
 16 15  1  0
 17 16  2  0
 17 18  1  0
 18 19  2  0
 19 14  1  0
 19 11  1  0
 20 21  2  0
 22 23  1  0
 23 33  2  0
 23 24  1  0
 24 25  2  0
 25 26  1  0
 26 27  1  0
 28 27  1  1
 28 30  1  0
 29 28  1  0
 29 20  1  0
 30 31  1  0
 32 26  2  0
 33 32  1  0
 34 30  2  0
M  END
$$$$
