PWY.pdb
     RDKit          3D

 34 37  0  0  1  0  0  0  0  0999 V2000
   28.3958  -23.4251  -16.4875 N   0  0  0  0  0  0  0  0  0  0  0  0
   29.1336  -23.0888  -17.7084 C   0  0  0  0  0  0  0  0  0  0  0  0
   28.3517  -22.0114  -18.4033 C   0  0  0  0  0  0  0  0  0  0  0  0
   27.1850  -21.7425  -17.4620 C   0  0  0  0  0  0  0  0  0  0  0  0
   27.8364  -22.1384  -16.1288 C   0  0  1  0  0  0  0  0  0  0  0  0
   26.8488  -22.2179  -15.0513 C   0  0  0  0  0  0  0  0  0  0  0  0
   26.2518  -23.3042  -14.7387 O   0  0  0  0  0  0  0  0  0  0  0  0
   26.5473  -21.0402  -14.3302 N   0  0  0  0  0  0  0  0  0  0  0  0
   25.5026  -20.9786  -13.2888 C   0  0  1  0  0  0  0  0  0  0  0  0
   25.9470  -20.0666  -12.2143 C   0  0  0  0  0  0  0  0  0  0  0  0
   27.0832  -20.4658  -11.3864 C   0  0  0  0  0  0  0  0  0  0  0  0
   28.3604  -20.8475  -11.7865 C   0  0  0  0  0  0  0  0  0  0  0  0
   29.1173  -21.1453  -10.7251 N   0  0  0  0  0  0  0  0  0  0  0  0
   28.3754  -20.9721   -9.6070 C   0  0  0  0  0  0  0  0  0  0  0  0
   28.6826  -21.1283   -8.2629 C   0  0  0  0  0  0  0  0  0  0  0  0
   27.7371  -20.8675   -7.2958 C   0  0  0  0  0  0  0  0  0  0  0  0
   26.4834  -20.4500   -7.6866 C   0  0  0  0  0  0  0  0  0  0  0  0
   26.1832  -20.2961   -9.0410 C   0  0  0  0  0  0  0  0  0  0  0  0
   27.1273  -20.5569   -9.9880 C   0  0  0  0  0  0  0  0  0  0  0  0
   24.2325  -20.7924  -13.9285 C   0  0  0  0  0  0  0  0  0  0  0  0
   24.1209  -19.8952  -14.8328 O   0  0  0  0  0  0  0  0  0  0  0  0
   17.8863  -22.4683   -9.5907 O   0  0  0  0  0  0  0  0  0  0  0  0
   18.6698  -22.5353  -10.7145 C   0  0  0  0  0  0  0  0  0  0  0  0
   19.9290  -23.1058  -10.6448 C   0  0  0  0  0  0  0  0  0  0  0  0
   20.7545  -23.1969  -11.7454 C   0  0  0  0  0  0  0  0  0  0  0  0
   20.2695  -22.6871  -12.9485 C   0  0  0  0  0  0  0  0  0  0  0  0
   21.1322  -22.7662  -14.1285 C   0  0  0  0  0  0  0  0  0  0  0  0
   21.8350  -21.4209  -14.3491 C   0  0  2  0  0  0  0  0  0  0  0  0
   23.0960  -21.5708  -13.6030 N   0  0  0  0  0  0  0  0  0  0  0  0
   21.0678  -20.3101  -13.8129 C   0  0  0  0  0  0  0  0  0  0  0  0
   20.0007  -19.7617  -14.5093 O   0  0  0  0  0  0  0  0  0  0  0  0
   19.0208  -22.1173  -13.0339 C   0  0  0  0  0  0  0  0  0  0  0  0
   18.2051  -22.0318  -11.9275 C   0  0  0  0  0  0  0  0  0  0  0  0
   21.3298  -19.7911  -12.6977 O   0  0  0  0  0  0  0  0  0  0  0  0
  1  2  1  0
  3  2  1  0
  4  5  1  0
  4  3  1  0
  5  1  1  0
  5  6  1  1
  6  7  2  0
  8  6  1  0
  8  9  1  0
  9 20  1  0
  9 10  1  1
 11 10  1  0
 11 12  2  0
 13 12  1  0
 14 13  1  0
 15 14  2  0
 16 15  1  0
 17 16  2  0
 17 18  1  0
 18 19  2  0
 19 14  1  0
 19 11  1  0
 20 21  2  0
 22 23  1  0
 23 33  2  0
 23 24  1  0
 24 25  2  0
 25 26  1  0
 26 27  1  0
 28 27  1  1
 28 30  1  0
 29 28  1  0
 29 20  1  0
 30 31  1  0
 32 26  2  0
 33 32  1  0
 34 30  2  0
M  END
$$$$
