PWY.pdb
     RDKit          3D

 34 37  0  0  1  0  0  0  0  0999 V2000
   27.6815  -22.6665  -16.6841 N   0  0  0  0  0  0  0  0  0  0  0  0
   29.1089  -22.7441  -17.0077 C   0  0  0  0  0  0  0  0  0  0  0  0
   29.5453  -21.3549  -17.3748 C   0  0  0  0  0  0  0  0  0  0  0  0
   28.2918  -20.5136  -17.1735 C   0  0  0  0  0  0  0  0  0  0  0  0
   27.5953  -21.3489  -16.0892 C   0  0  1  0  0  0  0  0  0  0  0  0
   26.2184  -20.9031  -15.8697 C   0  0  0  0  0  0  0  0  0  0  0  0
   25.9324  -19.7715  -15.3485 O   0  0  0  0  0  0  0  0  0  0  0  0
   25.1657  -21.7652  -16.2524 N   0  0  0  0  0  0  0  0  0  0  0  0
   23.7402  -21.4156  -16.0935 C   0  0  1  0  0  0  0  0  0  0  0  0
   22.9976  -21.8669  -17.2887 C   0  0  0  0  0  0  0  0  0  0  0  0
   21.5412  -21.7464  -17.2914 C   0  0  0  0  0  0  0  0  0  0  0  0
   20.7625  -20.5971  -17.1937 C   0  0  0  0  0  0  0  0  0  0  0  0
   19.4616  -20.9049  -17.2282 N   0  0  0  0  0  0  0  0  0  0  0  0
   19.3416  -22.2472  -17.3483 C   0  0  0  0  0  0  0  0  0  0  0  0
   18.2272  -23.0687  -17.4417 C   0  0  0  0  0  0  0  0  0  0  0  0
   18.3742  -24.4317  -17.5764 C   0  0  0  0  0  0  0  0  0  0  0  0
   19.6449  -24.9632  -17.6162 C   0  0  0  0  0  0  0  0  0  0  0  0
   20.7599  -24.1291  -17.5211 C   0  0  0  0  0  0  0  0  0  0  0  0
   20.6014  -22.7825  -17.3885 C   0  0  0  0  0  0  0  0  0  0  0  0
   23.3193  -21.8064  -14.7792 C   0  0  0  0  0  0  0  0  0  0  0  0
   23.7812  -22.8884  -14.2779 O   0  0  0  0  0  0  0  0  0  0  0  0
   17.8729  -16.8209  -13.4527 O   0  0  0  0  0  0  0  0  0  0  0  0
   18.8877  -17.6480  -13.0436 C   0  0  0  0  0  0  0  0  0  0  0  0
   20.0722  -17.6922  -13.7584 C   0  0  0  0  0  0  0  0  0  0  0  0
   21.1216  -18.5064  -13.3884 C   0  0  0  0  0  0  0  0  0  0  0  0
   20.9455  -19.2950  -12.2527 C   0  0  0  0  0  0  0  0  0  0  0  0
   22.0439  -20.1731  -11.8460 C   0  0  0  0  0  0  0  0  0  0  0  0
   22.0027  -21.4696  -12.6643 C   0  0  2  0  0  0  0  0  0  0  0  0
   22.4163  -21.0348  -14.0093 N   0  0  0  0  0  0  0  0  0  0  0  0
   20.6683  -22.0413  -12.7139 C   0  0  0  0  0  0  0  0  0  0  0  0
   20.1386  -22.7426  -11.6406 O   0  0  0  0  0  0  0  0  0  0  0  0
   19.7747  -19.2622  -11.5321 C   0  0  0  0  0  0  0  0  0  0  0  0
   18.7332  -18.4448  -11.9114 C   0  0  0  0  0  0  0  0  0  0  0  0
   19.9293  -21.9316  -13.7256 O   0  0  0  0  0  0  0  0  0  0  0  0
  1  2  1  0
  3  2  1  0
  4  5  1  0
  4  3  1  0
  5  1  1  0
  5  6  1  6
  6  7  2  0
  8  6  1  0
  8  9  1  0
  9 20  1  0
  9 10  1  6
 11 10  1  0
 11 12  2  0
 13 12  1  0
 14 13  1  0
 15 14  2  0
 16 15  1  0
 17 16  2  0
 17 18  1  0
 18 19  2  0
 19 14  1  0
 19 11  1  0
 20 21  2  0
 22 23  1  0
 23 33  2  0
 23 24  1  0
 24 25  2  0
 25 26  1  0
 26 27  1  0
 28 27  1  1
 28 30  1  0
 29 28  1  0
 29 20  1  0
 30 31  1  0
 32 26  2  0
 33 32  1  0
 34 30  2  0
M  END
$$$$
