PWY.pdb
     RDKit          3D

 34 37  0  0  1  0  0  0  0  0999 V2000
   29.3610  -19.8568  -11.3589 N   0  0  0  0  0  0  0  0  0  0  0  0
   30.7670  -19.9452  -11.7630 C   0  0  0  0  0  0  0  0  0  0  0  0
   31.3783  -21.0583  -10.9614 C   0  0  0  0  0  0  0  0  0  0  0  0
   30.2124  -21.6048  -10.1479 C   0  0  0  0  0  0  0  0  0  0  0  0
   29.0537  -21.2462  -11.0899 C   0  0  1  0  0  0  0  0  0  0  0  0
   27.7555  -21.4356  -10.4407 C   0  0  0  0  0  0  0  0  0  0  0  0
   27.3739  -22.5622   -9.9725 O   0  0  0  0  0  0  0  0  0  0  0  0
   26.8925  -20.3216  -10.3302 N   0  0  0  0  0  0  0  0  0  0  0  0
   25.5425  -20.4042   -9.7385 C   0  0  1  0  0  0  0  0  0  0  0  0
   25.4848  -19.5320   -8.5470 C   0  0  0  0  0  0  0  0  0  0  0  0
   26.6908  -19.3785   -7.7362 C   0  0  0  0  0  0  0  0  0  0  0  0
   27.7209  -18.4527   -7.8745 C   0  0  0  0  0  0  0  0  0  0  0  0
   28.6536  -18.6418   -6.9352 N   0  0  0  0  0  0  0  0  0  0  0  0
   28.2749  -19.6826   -6.1580 C   0  0  0  0  0  0  0  0  0  0  0  0
   28.8694  -20.2711   -5.0509 C   0  0  0  0  0  0  0  0  0  0  0  0
   28.2623  -21.3305   -4.4132 C   0  0  0  0  0  0  0  0  0  0  0  0
   27.0570  -21.7942   -4.8938 C   0  0  0  0  0  0  0  0  0  0  0  0
   26.4667  -21.1963   -6.0083 C   0  0  0  0  0  0  0  0  0  0  0  0
   27.0770  -20.1489   -6.6301 C   0  0  0  0  0  0  0  0  0  0  0  0
   24.5757  -20.2725  -10.7898 C   0  0  0  0  0  0  0  0  0  0  0  0
   24.6729  -19.2877  -11.5997 O   0  0  0  0  0  0  0  0  0  0  0  0
   27.3468  -21.8394  -16.0236 O   0  0  0  0  0  0  0  0  0  0  0  0
   26.2220  -21.9731  -15.2501 C   0  0  0  0  0  0  0  0  0  0  0  0
   25.2182  -21.0227  -15.3221 C   0  0  0  0  0  0  0  0  0  0  0  0
   24.0689  -21.1118  -14.5657 C   0  0  0  0  0  0  0  0  0  0  0  0
   23.9513  -22.2083  -13.7135 C   0  0  0  0  0  0  0  0  0  0  0  0
   22.7426  -22.3190  -12.8951 C   0  0  0  0  0  0  0  0  0  0  0  0
   22.5537  -21.0386  -12.0721 C   0  0  2  0  0  0  0  0  0  0  0  0
   23.5197  -21.1973  -10.9717 N   0  0  0  0  0  0  0  0  0  0  0  0
   21.2068  -20.9256  -11.5402 C   0  0  0  0  0  0  0  0  0  0  0  0
   20.1242  -20.6407  -12.3596 O   0  0  0  0  0  0  0  0  0  0  0  0
   24.9398  -23.1608  -13.6306 C   0  0  0  0  0  0  0  0  0  0  0  0
   26.0836  -23.0612  -14.3912 C   0  0  0  0  0  0  0  0  0  0  0  0
   20.9539  -21.0786  -10.3178 O   0  0  0  0  0  0  0  0  0  0  0  0
  1  2  1  0
  3  2  1  0
  4  5  1  0
  4  3  1  0
  5  1  1  0
  5  6  1  1
  6  7  2  0
  8  6  1  0
  8  9  1  0
  9 20  1  0
  9 10  1  1
 11 10  1  0
 11 12  2  0
 13 12  1  0
 14 13  1  0
 15 14  2  0
 16 15  1  0
 17 16  2  0
 17 18  1  0
 18 19  2  0
 19 14  1  0
 19 11  1  0
 20 21  2  0
 22 23  1  0
 23 33  2  0
 23 24  1  0
 24 25  2  0
 25 26  1  0
 26 27  1  0
 28 27  1  6
 28 30  1  0
 29 28  1  0
 29 20  1  0
 30 31  1  0
 32 26  2  0
 33 32  1  0
 34 30  2  0
M  END
$$$$
