PWY.pdb
     RDKit          3D

 34 37  0  0  1  0  0  0  0  0999 V2000
   29.2930  -21.7982  -17.9420 N   0  0  0  0  0  0  0  0  0  0  0  0
   30.2191  -22.8809  -18.2858 C   0  0  0  0  0  0  0  0  0  0  0  0
   30.3001  -23.7785  -17.0846 C   0  0  0  0  0  0  0  0  0  0  0  0
   29.3222  -23.1555  -16.0971 C   0  0  0  0  0  0  0  0  0  0  0  0
   28.3528  -22.4889  -17.0841 C   0  0  1  0  0  0  0  0  0  0  0  0
   27.4252  -21.5870  -16.3993 C   0  0  0  0  0  0  0  0  0  0  0  0
   27.6393  -20.3321  -16.2830 O   0  0  0  0  0  0  0  0  0  0  0  0
   26.2449  -22.1333  -15.8458 N   0  0  0  0  0  0  0  0  0  0  0  0
   25.3224  -21.3591  -14.9920 C   0  0  1  0  0  0  0  0  0  0  0  0
   23.9465  -21.5093  -15.5098 C   0  0  0  0  0  0  0  0  0  0  0  0
   22.8389  -20.9985  -14.7049 C   0  0  0  0  0  0  0  0  0  0  0  0
   22.5580  -19.6838  -14.3449 C   0  0  0  0  0  0  0  0  0  0  0  0
   21.4529  -19.6265  -13.5943 N   0  0  0  0  0  0  0  0  0  0  0  0
   20.9756  -20.8827  -13.4371 C   0  0  0  0  0  0  0  0  0  0  0  0
   19.8614  -21.3689  -12.7682 C   0  0  0  0  0  0  0  0  0  0  0  0
   19.5787  -22.7171  -12.7710 C   0  0  0  0  0  0  0  0  0  0  0  0
   20.4209  -23.5720  -13.4482 C   0  0  0  0  0  0  0  0  0  0  0  0
   21.5396  -23.0740  -14.1178 C   0  0  0  0  0  0  0  0  0  0  0  0
   21.8082  -21.7384  -14.1079 C   0  0  0  0  0  0  0  0  0  0  0  0
   25.6235  -21.6457  -13.6193 C   0  0  0  0  0  0  0  0  0  0  0  0
   25.9401  -22.8407  -13.2920 O   0  0  0  0  0  0  0  0  0  0  0  0
   28.5570  -20.3795   -5.5485 O   0  0  0  0  0  0  0  0  0  0  0  0
   28.2279  -20.3164   -6.8785 C   0  0  0  0  0  0  0  0  0  0  0  0
   27.2792  -19.4064   -7.3121 C   0  0  0  0  0  0  0  0  0  0  0  0
   26.9138  -19.3040   -8.6376 C   0  0  0  0  0  0  0  0  0  0  0  0
   27.5423  -20.1613   -9.5391 C   0  0  0  0  0  0  0  0  0  0  0  0
   27.1640  -20.0752  -10.9506 C   0  0  0  0  0  0  0  0  0  0  0  0
   25.9508  -20.9744  -11.2189 C   0  0  2  0  0  0  0  0  0  0  0  0
   25.5919  -20.6531  -12.6107 N   0  0  0  0  0  0  0  0  0  0  0  0
   24.8395  -20.6694  -10.3347 C   0  0  0  0  0  0  0  0  0  0  0  0
   24.6581  -21.3453   -9.1370 O   0  0  0  0  0  0  0  0  0  0  0  0
   28.4867  -21.0706   -9.1239 C   0  0  0  0  0  0  0  0  0  0  0  0
   28.8436  -21.1638   -7.7969 C   0  0  0  0  0  0  0  0  0  0  0  0
   23.9897  -19.7833  -10.6075 O   0  0  0  0  0  0  0  0  0  0  0  0
  1  2  1  0
  3  2  1  0
  4  5  1  0
  4  3  1  0
  5  1  1  0
  5  6  1  1
  6  7  2  0
  8  6  1  0
  8  9  1  0
  9 20  1  0
  9 10  1  6
 11 10  1  0
 11 12  2  0
 13 12  1  0
 14 13  1  0
 15 14  2  0
 16 15  1  0
 17 16  2  0
 17 18  1  0
 18 19  2  0
 19 14  1  0
 19 11  1  0
 20 21  2  0
 22 23  1  0
 23 33  2  0
 23 24  1  0
 24 25  2  0
 25 26  1  0
 26 27  1  0
 28 27  1  1
 28 30  1  0
 29 28  1  0
 29 20  1  0
 30 31  1  0
 32 26  2  0
 33 32  1  0
 34 30  2  0
M  END
$$$$
