PWY.pdb
     RDKit          3D

 34 37  0  0  1  0  0  0  0  0999 V2000
   19.1727  -21.5440  -13.3096 N   0  0  0  0  0  0  0  0  0  0  0  0
   19.2332  -21.4190  -14.7686 C   0  0  0  0  0  0  0  0  0  0  0  0
   20.0372  -22.5842  -15.2696 C   0  0  0  0  0  0  0  0  0  0  0  0
   20.3555  -23.3769  -14.0086 C   0  0  0  0  0  0  0  0  0  0  0  0
   19.1464  -22.9829  -13.1476 C   0  0  1  0  0  0  0  0  0  0  0  0
   19.3144  -23.4110  -11.7579 C   0  0  0  0  0  0  0  0  0  0  0  0
   19.4953  -24.6325  -11.4273 O   0  0  0  0  0  0  0  0  0  0  0  0
   19.2739  -22.4271  -10.7439 N   0  0  0  0  0  0  0  0  0  0  0  0
   19.4352  -22.7408   -9.3103 C   0  0  1  0  0  0  0  0  0  0  0  0
   20.1326  -21.6192   -8.6475 C   0  0  0  0  0  0  0  0  0  0  0  0
   21.4513  -21.2284   -9.1415 C   0  0  0  0  0  0  0  0  0  0  0  0
   21.7924  -20.6850  -10.3766 C   0  0  0  0  0  0  0  0  0  0  0  0
   23.1101  -20.4693  -10.4487 N   0  0  0  0  0  0  0  0  0  0  0  0
   23.6728  -20.8571   -9.2810 C   0  0  0  0  0  0  0  0  0  0  0  0
   24.9875  -20.8328   -8.8379 C   0  0  0  0  0  0  0  0  0  0  0  0
   25.3065  -21.2784   -7.5741 C   0  0  0  0  0  0  0  0  0  0  0  0
   24.2987  -21.7479   -6.7601 C   0  0  0  0  0  0  0  0  0  0  0  0
   22.9791  -21.7690   -7.2145 C   0  0  0  0  0  0  0  0  0  0  0  0
   22.6764  -21.3253   -8.4665 C   0  0  0  0  0  0  0  0  0  0  0  0
   18.1825  -23.2245   -8.8063 C   0  0  0  0  0  0  0  0  0  0  0  0
   17.0972  -22.7602   -9.2980 O   0  0  0  0  0  0  0  0  0  0  0  0
   18.8365  -27.0120   -1.8234 O   0  0  0  0  0  0  0  0  0  0  0  0
   18.4059  -26.7969   -3.1078 C   0  0  0  0  0  0  0  0  0  0  0  0
   17.0695  -26.9676   -3.4251 C   0  0  0  0  0  0  0  0  0  0  0  0
   16.5872  -26.7639   -4.7006 C   0  0  0  0  0  0  0  0  0  0  0  0
   17.5059  -26.3744   -5.6737 C   0  0  0  0  0  0  0  0  0  0  0  0
   17.0171  -26.1601   -7.0369 C   0  0  0  0  0  0  0  0  0  0  0  0
   16.7958  -24.6619   -7.2798 C   0  0  2  0  0  0  0  0  0  0  0  0
   18.1001  -24.2047   -7.7885 N   0  0  0  0  0  0  0  0  0  0  0  0
   16.4624  -23.9542   -6.0559 C   0  0  0  0  0  0  0  0  0  0  0  0
   15.1647  -23.9215   -5.5668 O   0  0  0  0  0  0  0  0  0  0  0  0
   18.8367  -26.2007   -5.3741 C   0  0  0  0  0  0  0  0  0  0  0  0
   19.3069  -26.4072   -4.0962 C   0  0  0  0  0  0  0  0  0  0  0  0
   17.3267  -23.3382   -5.3813 O   0  0  0  0  0  0  0  0  0  0  0  0
  1  2  1  0
  3  2  1  0
  4  5  1  0
  4  3  1  0
  5  1  1  0
  5  6  1  1
  6  7  2  0
  8  6  1  0
  8  9  1  0
  9 20  1  0
  9 10  1  1
 11 10  1  0
 11 12  2  0
 13 12  1  0
 14 13  1  0
 15 14  2  0
 16 15  1  0
 17 16  2  0
 17 18  1  0
 18 19  2  0
 19 14  1  0
 19 11  1  0
 20 21  2  0
 22 23  1  0
 23 33  2  0
 23 24  1  0
 24 25  2  0
 25 26  1  0
 26 27  1  0
 28 27  1  1
 28 30  1  0
 29 28  1  0
 29 20  1  0
 30 31  1  0
 32 26  2  0
 33 32  1  0
 34 30  2  0
M  END
$$$$
