PWY.pdb
     RDKit          3D

 34 37  0  0  1  0  0  0  0  0999 V2000
   27.1328  -18.9085  -14.3493 N   0  0  0  0  0  0  0  0  0  0  0  0
   27.8913  -18.2525  -15.4182 C   0  0  0  0  0  0  0  0  0  0  0  0
   29.1960  -18.9867  -15.5359 C   0  0  0  0  0  0  0  0  0  0  0  0
   29.0756  -20.1106  -14.5152 C   0  0  0  0  0  0  0  0  0  0  0  0
   27.5500  -20.2862  -14.5079 C   0  0  1  0  0  0  0  0  0  0  0  0
   27.1144  -21.1517  -13.4106 C   0  0  0  0  0  0  0  0  0  0  0  0
   26.8052  -22.3805  -13.5796 O   0  0  0  0  0  0  0  0  0  0  0  0
   27.0344  -20.5989  -12.1122 N   0  0  0  0  0  0  0  0  0  0  0  0
   26.5764  -21.3661  -10.9370 C   0  0  1  0  0  0  0  0  0  0  0  0
   27.5886  -21.2563   -9.8659 C   0  0  0  0  0  0  0  0  0  0  0  0
   27.3071  -20.3848   -8.7272 C   0  0  0  0  0  0  0  0  0  0  0  0
   26.1685  -19.6262   -8.4719 C   0  0  0  0  0  0  0  0  0  0  0  0
   26.2973  -18.9552   -7.3225 N   0  0  0  0  0  0  0  0  0  0  0  0
   27.5068  -19.2450   -6.7898 C   0  0  0  0  0  0  0  0  0  0  0  0
   28.1211  -18.8307   -5.6166 C   0  0  0  0  0  0  0  0  0  0  0  0
   29.3760  -19.2918   -5.2852 C   0  0  0  0  0  0  0  0  0  0  0  0
   30.0089  -20.1698   -6.1381 C   0  0  0  0  0  0  0  0  0  0  0  0
   29.3834  -20.5807   -7.3163 C   0  0  0  0  0  0  0  0  0  0  0  0
   28.1419  -20.1176   -7.6327 C   0  0  0  0  0  0  0  0  0  0  0  0
   25.2038  -21.0354  -10.6840 C   0  0  0  0  0  0  0  0  0  0  0  0
   24.9297  -20.2029   -9.7528 O   0  0  0  0  0  0  0  0  0  0  0  0
   23.3013  -18.8678  -17.1039 O   0  0  0  0  0  0  0  0  0  0  0  0
   23.2136  -19.0461  -15.7467 C   0  0  0  0  0  0  0  0  0  0  0  0
   22.0166  -19.4481  -15.1795 C   0  0  0  0  0  0  0  0  0  0  0  0
   21.8773  -19.6410  -13.8215 C   0  0  0  0  0  0  0  0  0  0  0  0
   23.0004  -19.4139  -13.0279 C   0  0  0  0  0  0  0  0  0  0  0  0
   22.8730  -19.6051  -11.5822 C   0  0  0  0  0  0  0  0  0  0  0  0
   22.7587  -21.1012  -11.2642 C   0  0  2  0  0  0  0  0  0  0  0  0
   24.1379  -21.5898  -11.4323 N   0  0  0  0  0  0  0  0  0  0  0  0
   21.8708  -21.7885  -12.1856 C   0  0  0  0  0  0  0  0  0  0  0  0
   20.4932  -21.6433  -12.1109 O   0  0  0  0  0  0  0  0  0  0  0  0
   24.1964  -19.0142  -13.5764 C   0  0  0  0  0  0  0  0  0  0  0  0
   24.3236  -18.8247  -14.9345 C   0  0  0  0  0  0  0  0  0  0  0  0
   22.3017  -22.5461  -13.0923 O   0  0  0  0  0  0  0  0  0  0  0  0
  1  2  1  0
  3  2  1  0
  4  5  1  0
  4  3  1  0
  5  1  1  0
  5  6  1  1
  6  7  2  0
  8  6  1  0
  8  9  1  0
  9 20  1  0
  9 10  1  1
 11 10  1  0
 11 12  2  0
 13 12  1  0
 14 13  1  0
 15 14  2  0
 16 15  1  0
 17 16  2  0
 17 18  1  0
 18 19  2  0
 19 14  1  0
 19 11  1  0
 20 21  2  0
 22 23  1  0
 23 33  2  0
 23 24  1  0
 24 25  2  0
 25 26  1  0
 26 27  1  0
 28 27  1  6
 28 30  1  0
 29 28  1  0
 29 20  1  0
 30 31  1  0
 32 26  2  0
 33 32  1  0
 34 30  2  0
M  END
$$$$
