PWY.pdb
     RDKit          3D

 34 37  0  0  1  0  0  0  0  0999 V2000
   28.0886  -23.3706  -16.9050 N   0  0  0  0  0  0  0  0  0  0  0  0
   28.8880  -23.7909  -18.0593 C   0  0  0  0  0  0  0  0  0  0  0  0
   29.2002  -22.5493  -18.8442 C   0  0  0  0  0  0  0  0  0  0  0  0
   28.5780  -21.4302  -18.0195 C   0  0  0  0  0  0  0  0  0  0  0  0
   28.6556  -22.0679  -16.6246 C   0  0  1  0  0  0  0  0  0  0  0  0
   27.8873  -21.3030  -15.6410 C   0  0  0  0  0  0  0  0  0  0  0  0
   28.1769  -20.0998  -15.3208 O   0  0  0  0  0  0  0  0  0  0  0  0
   26.7798  -21.9271  -15.0232 N   0  0  0  0  0  0  0  0  0  0  0  0
   25.7793  -21.1885  -14.2276 C   0  0  1  0  0  0  0  0  0  0  0  0
   24.4411  -21.4050  -14.8157 C   0  0  0  0  0  0  0  0  0  0  0  0
   23.2729  -20.9052  -14.0938 C   0  0  0  0  0  0  0  0  0  0  0  0
   22.9827  -19.6010  -13.7041 C   0  0  0  0  0  0  0  0  0  0  0  0
   21.8143  -19.5519  -13.0557 N   0  0  0  0  0  0  0  0  0  0  0  0
   21.3031  -20.8033  -12.9977 C   0  0  0  0  0  0  0  0  0  0  0  0
   20.1237  -21.2935  -12.4552 C   0  0  0  0  0  0  0  0  0  0  0  0
   19.8195  -22.6341  -12.5426 C   0  0  0  0  0  0  0  0  0  0  0  0
   20.7057  -23.4775  -13.1767 C   0  0  0  0  0  0  0  0  0  0  0  0
   21.8898  -22.9755  -13.7189 C   0  0  0  0  0  0  0  0  0  0  0  0
   22.1791  -21.6474  -13.6263 C   0  0  0  0  0  0  0  0  0  0  0  0
   26.0194  -21.4500  -12.8379 C   0  0  0  0  0  0  0  0  0  0  0  0
   26.2563  -22.6504  -12.4663 O   0  0  0  0  0  0  0  0  0  0  0  0
   28.0731  -19.8826   -4.4970 O   0  0  0  0  0  0  0  0  0  0  0  0
   27.8874  -19.8332   -5.8551 C   0  0  0  0  0  0  0  0  0  0  0  0
   26.9155  -19.0047   -6.3888 C   0  0  0  0  0  0  0  0  0  0  0  0
   26.6899  -18.9193   -7.7463 C   0  0  0  0  0  0  0  0  0  0  0  0
   27.4864  -19.7080   -8.5747 C   0  0  0  0  0  0  0  0  0  0  0  0
   27.2589  -19.6391  -10.0191 C   0  0  0  0  0  0  0  0  0  0  0  0
   26.2692  -20.7320  -10.4417 C   0  0  2  0  0  0  0  0  0  0  0  0
   26.0127  -20.4271  -11.8596 N   0  0  0  0  0  0  0  0  0  0  0  0
   25.0304  -20.6680   -9.6862 C   0  0  0  0  0  0  0  0  0  0  0  0
   24.8421  -21.4197   -8.5355 O   0  0  0  0  0  0  0  0  0  0  0  0
   28.4560  -20.5361   -8.0596 C   0  0  0  0  0  0  0  0  0  0  0  0
   28.6722  -20.6130   -6.7016 C   0  0  0  0  0  0  0  0  0  0  0  0
   24.0705  -19.9335  -10.0338 O   0  0  0  0  0  0  0  0  0  0  0  0
  1  2  1  0
  3  2  1  0
  4  5  1  0
  4  3  1  0
  5  1  1  0
  5  6  1  1
  6  7  2  0
  8  6  1  0
  8  9  1  0
  9 20  1  0
  9 10  1  6
 11 10  1  0
 11 12  2  0
 13 12  1  0
 14 13  1  0
 15 14  2  0
 16 15  1  0
 17 16  2  0
 17 18  1  0
 18 19  2  0
 19 14  1  0
 19 11  1  0
 20 21  2  0
 22 23  1  0
 23 33  2  0
 23 24  1  0
 24 25  2  0
 25 26  1  0
 26 27  1  0
 28 27  1  1
 28 30  1  0
 29 28  1  0
 29 20  1  0
 30 31  1  0
 32 26  2  0
 33 32  1  0
 34 30  2  0
M  END
$$$$
