PWY.pdb
     RDKit          3D

 34 37  0  0  1  0  0  0  0  0999 V2000
   23.7520  -22.6125  -20.6964 N   0  0  0  0  0  0  0  0  0  0  0  0
   24.7833  -22.9979  -21.6638 C   0  0  0  0  0  0  0  0  0  0  0  0
   25.1896  -21.7449  -22.3850 C   0  0  0  0  0  0  0  0  0  0  0  0
   24.3661  -20.6540  -21.7132 C   0  0  0  0  0  0  0  0  0  0  0  0
   24.1928  -21.2844  -20.3236 C   0  0  1  0  0  0  0  0  0  0  0  0
   23.2105  -20.5537  -19.5212 C   0  0  0  0  0  0  0  0  0  0  0  0
   22.7775  -20.9833  -18.3977 O   0  0  0  0  0  0  0  0  0  0  0  0
   22.7244  -19.3219  -20.0153 N   0  0  0  0  0  0  0  0  0  0  0  0
   21.7027  -18.5195  -19.3140 C   0  0  1  0  0  0  0  0  0  0  0  0
   21.8963  -17.0935  -19.6498 C   0  0  0  0  0  0  0  0  0  0  0  0
   20.8421  -16.1448  -19.2974 C   0  0  0  0  0  0  0  0  0  0  0  0
   20.7234  -15.3602  -18.1540 C   0  0  0  0  0  0  0  0  0  0  0  0
   19.6087  -14.6231  -18.2018 N   0  0  0  0  0  0  0  0  0  0  0  0
   18.9654  -14.8931  -19.3611 C   0  0  0  0  0  0  0  0  0  0  0  0
   17.7877  -14.3952  -19.8999 C   0  0  0  0  0  0  0  0  0  0  0  0
   17.3452  -14.8280  -21.1305 C   0  0  0  0  0  0  0  0  0  0  0  0
   18.0917  -15.7624  -21.8149 C   0  0  0  0  0  0  0  0  0  0  0  0
   19.2749  -16.2580  -21.2649 C   0  0  0  0  0  0  0  0  0  0  0  0
   19.7020  -15.8218  -20.0470 C   0  0  0  0  0  0  0  0  0  0  0  0
   20.4262  -19.1478  -19.4960 C   0  0  0  0  0  0  0  0  0  0  0  0
   20.1544  -19.6800  -20.6266 O   0  0  0  0  0  0  0  0  0  0  0  0
   18.3711  -23.8424  -13.9698 O   0  0  0  0  0  0  0  0  0  0  0  0
   18.3546  -23.2081  -15.1858 C   0  0  0  0  0  0  0  0  0  0  0  0
   19.5430  -22.9594  -15.8505 C   0  0  0  0  0  0  0  0  0  0  0  0
   19.5796  -22.3254  -17.0743 C   0  0  0  0  0  0  0  0  0  0  0  0
   18.3601  -21.9379  -17.6270 C   0  0  0  0  0  0  0  0  0  0  0  0
   18.3759  -21.2560  -18.9222 C   0  0  0  0  0  0  0  0  0  0  0  0
   18.1131  -19.7580  -18.7238 C   0  0  2  0  0  0  0  0  0  0  0  0
   19.4556  -19.2094  -18.4676 N   0  0  0  0  0  0  0  0  0  0  0  0
   17.2451  -19.5022  -17.5876 C   0  0  0  0  0  0  0  0  0  0  0  0
   17.7284  -18.9324  -16.4187 O   0  0  0  0  0  0  0  0  0  0  0  0
   17.1712  -22.1779  -16.9790 C   0  0  0  0  0  0  0  0  0  0  0  0
   17.1471  -22.8121  -15.7567 C   0  0  0  0  0  0  0  0  0  0  0  0
   16.0193  -19.7826  -17.6040 O   0  0  0  0  0  0  0  0  0  0  0  0
  1  2  1  0
  3  2  1  0
  4  5  1  0
  4  3  1  0
  5  1  1  0
  5  6  1  1
  6  7  2  0
  8  6  1  0
  8  9  1  0
  9 20  1  0
  9 10  1  6
 11 10  1  0
 11 12  2  0
 13 12  1  0
 14 13  1  0
 15 14  2  0
 16 15  1  0
 17 16  2  0
 17 18  1  0
 18 19  2  0
 19 14  1  0
 19 11  1  0
 20 21  2  0
 22 23  1  0
 23 33  2  0
 23 24  1  0
 24 25  2  0
 25 26  1  0
 26 27  1  0
 28 27  1  1
 28 30  1  0
 29 28  1  0
 29 20  1  0
 30 31  1  0
 32 26  2  0
 33 32  1  0
 34 30  2  0
M  END
$$$$
