PWY.pdb
     RDKit          3D

 34 37  0  0  1  0  0  0  0  0999 V2000
   17.9667  -13.3126  -21.4586 N   0  0  0  0  0  0  0  0  0  0  0  0
   18.6242  -14.5081  -21.9938 C   0  0  0  0  0  0  0  0  0  0  0  0
   19.8562  -14.7318  -21.1648 C   0  0  0  0  0  0  0  0  0  0  0  0
   19.7957  -13.6287  -20.1164 C   0  0  0  0  0  0  0  0  0  0  0  0
   18.2751  -13.4248  -20.0481 C   0  0  1  0  0  0  0  0  0  0  0  0
   17.9279  -12.2257  -19.2837 C   0  0  0  0  0  0  0  0  0  0  0  0
   18.1940  -12.0969  -18.0400 O   0  0  0  0  0  0  0  0  0  0  0  0
   17.2709  -11.1696  -19.9551 N   0  0  0  0  0  0  0  0  0  0  0  0
   16.7958   -9.9514  -19.2697 C   0  0  1  0  0  0  0  0  0  0  0  0
   17.2561   -8.7653  -20.0214 C   0  0  0  0  0  0  0  0  0  0  0  0
   18.6930   -8.5680  -20.2009 C   0  0  0  0  0  0  0  0  0  0  0  0
   19.7316   -8.8939  -19.3336 C   0  0  0  0  0  0  0  0  0  0  0  0
   20.9111   -8.5475  -19.8598 N   0  0  0  0  0  0  0  0  0  0  0  0
   20.6924   -7.9904  -21.0732 C   0  0  0  0  0  0  0  0  0  0  0  0
   21.5646   -7.4829  -22.0257 C   0  0  0  0  0  0  0  0  0  0  0  0
   21.0837   -6.9756  -23.2127 C   0  0  0  0  0  0  0  0  0  0  0  0
   19.7240   -6.9810  -23.4362 C   0  0  0  0  0  0  0  0  0  0  0  0
   18.8543   -7.4931  -22.4722 C   0  0  0  0  0  0  0  0  0  0  0  0
   19.3423   -7.9923  -21.3023 C   0  0  0  0  0  0  0  0  0  0  0  0
   15.4083  -10.1215  -18.9484 C   0  0  0  0  0  0  0  0  0  0  0  0
   14.6084  -10.5312  -19.8581 O   0  0  0  0  0  0  0  0  0  0  0  0
    8.0823  -11.7040  -14.6502 O   0  0  0  0  0  0  0  0  0  0  0  0
    9.3633  -11.5927  -15.1277 C   0  0  0  0  0  0  0  0  0  0  0  0
   10.3582  -11.0711  -14.3190 C   0  0  0  0  0  0  0  0  0  0  0  0
   11.6605  -10.9386  -14.7519 C   0  0  0  0  0  0  0  0  0  0  0  0
   11.9444  -11.3544  -16.0516 C   0  0  0  0  0  0  0  0  0  0  0  0
   13.3192  -11.2156  -16.5350 C   0  0  0  0  0  0  0  0  0  0  0  0
   13.4438   -9.9480  -17.3895 C   0  0  2  0  0  0  0  0  0  0  0  0
   14.8894   -9.8607  -17.6576 N   0  0  0  0  0  0  0  0  0  0  0  0
   12.9967   -8.7637  -16.6772 C   0  0  0  0  0  0  0  0  0  0  0  0
   13.8842   -7.9591  -15.9776 O   0  0  0  0  0  0  0  0  0  0  0  0
   10.9670  -11.8745  -16.8673 C   0  0  0  0  0  0  0  0  0  0  0  0
    9.6694  -12.0020  -16.4237 C   0  0  0  0  0  0  0  0  0  0  0  0
   11.7903   -8.4091  -16.6572 O   0  0  0  0  0  0  0  0  0  0  0  0
  1  2  1  0
  3  2  1  0
  4  5  1  0
  4  3  1  0
  5  1  1  0
  5  6  1  1
  6  7  2  0
  8  6  1  0
  8  9  1  0
  9 20  1  0
  9 10  1  6
 11 10  1  0
 11 12  2  0
 13 12  1  0
 14 13  1  0
 15 14  2  0
 16 15  1  0
 17 16  2  0
 17 18  1  0
 18 19  2  0
 19 14  1  0
 19 11  1  0
 20 21  2  0
 22 23  1  0
 23 33  2  0
 23 24  1  0
 24 25  2  0
 25 26  1  0
 26 27  1  0
 28 27  1  1
 28 30  1  0
 29 28  1  0
 29 20  1  0
 30 31  1  0
 32 26  2  0
 33 32  1  0
 34 30  2  0
M  END
$$$$
