PWY.pdb
     RDKit          3D

 34 37  0  0  1  0  0  0  0  0999 V2000
   28.2997  -21.9778  -20.0171 N   0  0  0  0  0  0  0  0  0  0  0  0
   29.3882  -22.5397  -20.8218 C   0  0  0  0  0  0  0  0  0  0  0  0
   30.4820  -21.5110  -20.8482 C   0  0  0  0  0  0  0  0  0  0  0  0
   29.9499  -20.3901  -19.9650 C   0  0  0  0  0  0  0  0  0  0  0  0
   29.0375  -21.2067  -19.0382 C   0  0  1  0  0  0  0  0  0  0  0  0
   28.1846  -20.3394  -18.2239 C   0  0  0  0  0  0  0  0  0  0  0  0
   28.6547  -19.4931  -17.3891 O   0  0  0  0  0  0  0  0  0  0  0  0
   26.7831  -20.4474  -18.3719 N   0  0  0  0  0  0  0  0  0  0  0  0
   25.8265  -19.6212  -17.6091 C   0  0  1  0  0  0  0  0  0  0  0  0
   24.7838  -19.1193  -18.5282 C   0  0  0  0  0  0  0  0  0  0  0  0
   23.6334  -18.4185  -17.9616 C   0  0  0  0  0  0  0  0  0  0  0  0
   23.5996  -17.1966  -17.2962 C   0  0  0  0  0  0  0  0  0  0  0  0
   22.3506  -16.8974  -16.9236 N   0  0  0  0  0  0  0  0  0  0  0  0
   21.5321  -17.8969  -17.3254 C   0  0  0  0  0  0  0  0  0  0  0  0
   20.1608  -18.0711  -17.2041 C   0  0  0  0  0  0  0  0  0  0  0  0
   19.5509  -19.1919  -17.7228 C   0  0  0  0  0  0  0  0  0  0  0  0
   20.3256  -20.1351  -18.3625 C   0  0  0  0  0  0  0  0  0  0  0  0
   21.7043  -19.9517  -18.4793 C   0  0  0  0  0  0  0  0  0  0  0  0
   22.2956  -18.8385  -17.9623 C   0  0  0  0  0  0  0  0  0  0  0  0
   25.4697  -20.3259  -16.4119 C   0  0  0  0  0  0  0  0  0  0  0  0
   25.2986  -21.5920  -16.4672 O   0  0  0  0  0  0  0  0  0  0  0  0
   23.6155  -21.6411   -7.9531 O   0  0  0  0  0  0  0  0  0  0  0  0
   24.0737  -21.1346   -9.1426 C   0  0  0  0  0  0  0  0  0  0  0  0
   23.2362  -20.3678   -9.9342 C   0  0  0  0  0  0  0  0  0  0  0  0
   23.6489  -19.8363  -11.1376 C   0  0  0  0  0  0  0  0  0  0  0  0
   24.9582  -20.1019  -11.5351 C   0  0  0  0  0  0  0  0  0  0  0  0
   25.4153  -19.5540  -12.8133 C   0  0  0  0  0  0  0  0  0  0  0  0
   24.8978  -20.4236  -13.9659 C   0  0  2  0  0  0  0  0  0  0  0  0
   25.3071  -19.6743  -15.1660 N   0  0  0  0  0  0  0  0  0  0  0  0
   23.4526  -20.5656  -13.9360 C   0  0  0  0  0  0  0  0  0  0  0  0
   22.8467  -21.7313  -13.4903 O   0  0  0  0  0  0  0  0  0  0  0  0
   25.8022  -20.8620  -10.7598 C   0  0  0  0  0  0  0  0  0  0  0  0
   25.3787  -21.3877   -9.5594 C   0  0  0  0  0  0  0  0  0  0  0  0
   22.6809  -19.6459  -14.3105 O   0  0  0  0  0  0  0  0  0  0  0  0
  1  2  1  0
  3  2  1  0
  4  5  1  0
  4  3  1  0
  5  1  1  0
  5  6  1  6
  6  7  2  0
  8  6  1  0
  8  9  1  0
  9 20  1  0
  9 10  1  6
 11 10  1  0
 11 12  2  0
 13 12  1  0
 14 13  1  0
 15 14  2  0
 16 15  1  0
 17 16  2  0
 17 18  1  0
 18 19  2  0
 19 14  1  0
 19 11  1  0
 20 21  2  0
 22 23  1  0
 23 33  2  0
 23 24  1  0
 24 25  2  0
 25 26  1  0
 26 27  1  0
 28 27  1  1
 28 30  1  0
 29 28  1  0
 29 20  1  0
 30 31  1  0
 32 26  2  0
 33 32  1  0
 34 30  2  0
M  END
$$$$
