PWY.pdb
     RDKit          3D

 34 37  0  0  1  0  0  0  0  0999 V2000
   27.8859  -20.4600  -17.0046 N   0  0  0  0  0  0  0  0  0  0  0  0
   28.8660  -20.2676  -18.0771 C   0  0  0  0  0  0  0  0  0  0  0  0
   30.0545  -21.1193  -17.7347 C   0  0  0  0  0  0  0  0  0  0  0  0
   29.6385  -21.8274  -16.4521 C   0  0  0  0  0  0  0  0  0  0  0  0
   28.1161  -21.8459  -16.6531 C   0  0  1  0  0  0  0  0  0  0  0  0
   27.4183  -22.2562  -15.4335 C   0  0  0  0  0  0  0  0  0  0  0  0
   27.5640  -23.4128  -14.9088 O   0  0  0  0  0  0  0  0  0  0  0  0
   26.5484  -21.3297  -14.8150 N   0  0  0  0  0  0  0  0  0  0  0  0
   26.0885  -21.4647  -13.4187 C   0  0  1  0  0  0  0  0  0  0  0  0
   27.0895  -20.8521  -12.5207 C   0  0  0  0  0  0  0  0  0  0  0  0
   26.7202  -20.6082  -11.1279 C   0  0  0  0  0  0  0  0  0  0  0  0
   25.5187  -20.1255  -10.6175 C   0  0  0  0  0  0  0  0  0  0  0  0
   25.5747  -20.0368   -9.2845 N   0  0  0  0  0  0  0  0  0  0  0  0
   26.7965  -20.4522   -8.8780 C   0  0  0  0  0  0  0  0  0  0  0  0
   27.3574  -20.5697   -7.6142 C   0  0  0  0  0  0  0  0  0  0  0  0
   28.6417  -21.0440   -7.4619 C   0  0  0  0  0  0  0  0  0  0  0  0
   29.3577  -21.3983   -8.5847 C   0  0  0  0  0  0  0  0  0  0  0  0
   28.7855  -21.2762   -9.8518 C   0  0  0  0  0  0  0  0  0  0  0  0
   27.5141  -20.8062   -9.9893 C   0  0  0  0  0  0  0  0  0  0  0  0
   24.7100  -21.0741  -13.3534 C   0  0  0  0  0  0  0  0  0  0  0  0
   24.3488  -19.9836  -13.9153 O   0  0  0  0  0  0  0  0  0  0  0  0
   16.0642  -22.0211  -12.3789 O   0  0  0  0  0  0  0  0  0  0  0  0
   17.4240  -22.1939  -12.3302 C   0  0  0  0  0  0  0  0  0  0  0  0
   18.1134  -21.9161  -11.1625 C   0  0  0  0  0  0  0  0  0  0  0  0
   19.4795  -22.0736  -11.0626 C   0  0  0  0  0  0  0  0  0  0  0  0
   20.1520  -22.5290  -12.1953 C   0  0  0  0  0  0  0  0  0  0  0  0
   21.6041  -22.6960  -12.1143 C   0  0  0  0  0  0  0  0  0  0  0  0
   22.3020  -21.4968  -12.7679 C   0  0  2  0  0  0  0  0  0  0  0  0
   23.7289  -21.8548  -12.6966 N   0  0  0  0  0  0  0  0  0  0  0  0
   22.0611  -20.2625  -12.0410 C   0  0  0  0  0  0  0  0  0  0  0  0
   21.1379  -19.3270  -12.4848 O   0  0  0  0  0  0  0  0  0  0  0  0
   19.4813  -22.8092  -13.3627 C   0  0  0  0  0  0  0  0  0  0  0  0
   18.1164  -22.6481  -13.4505 C   0  0  0  0  0  0  0  0  0  0  0  0
   22.6730  -19.9796  -10.9793 O   0  0  0  0  0  0  0  0  0  0  0  0
  1  2  1  0
  3  2  1  0
  4  5  1  0
  4  3  1  0
  5  1  1  0
  5  6  1  1
  6  7  2  0
  8  6  1  0
  8  9  1  0
  9 20  1  0
  9 10  1  1
 11 10  1  0
 11 12  2  0
 13 12  1  0
 14 13  1  0
 15 14  2  0
 16 15  1  0
 17 16  2  0
 17 18  1  0
 18 19  2  0
 19 14  1  0
 19 11  1  0
 20 21  2  0
 22 23  1  0
 23 33  2  0
 23 24  1  0
 24 25  2  0
 25 26  1  0
 26 27  1  0
 28 27  1  1
 28 30  1  0
 29 28  1  0
 29 20  1  0
 30 31  1  0
 32 26  2  0
 33 32  1  0
 34 30  2  0
M  END
$$$$
