EAA.pdb
     RDKit          3D

 20 19  0  0  1  0  0  0  0  0999 V2000
    8.5917  -17.4758   14.4454 N   0  0  0  0  0  0  0  0  0  0  0  0
    8.8469  -18.0820   15.7419 C   0  0  1  0  0  0  0  0  0  0  0  0
   10.2950  -18.2454   16.0269 C   0  0  0  0  0  0  0  0  0  0  0  0
   11.1319  -18.1971   14.7795 C   0  0  0  0  0  0  0  0  0  0  0  0
   12.5557  -18.4351   14.9986 C   0  0  0  0  0  0  0  0  0  0  0  0
   13.4556  -18.1464   14.1871 O   0  0  0  0  0  0  0  0  0  0  0  0
    8.2267  -17.1691   16.7651 C   0  0  0  0  0  0  0  0  0  0  0  0
    8.3955  -15.9235   16.7509 O   0  0  0  0  0  0  0  0  0  0  0  0
   12.9210  -19.0333   16.2161 O   0  0  0  0  0  0  0  0  0  0  0  0
    5.7218  -17.6318   19.5437 C   0  0  0  0  0  0  0  0  0  0  0  0
    6.6464  -16.8175   18.6629 C   0  0  2  0  0  0  0  0  0  0  0  0
    7.4114  -17.6943   17.8046 N   0  0  0  0  0  0  0  0  0  0  0  0
    7.5211  -15.9095   19.4439 C   0  0  0  0  0  0  0  0  0  0  0  0
    8.6650  -16.2638   19.8815 O   0  0  0  0  0  0  0  0  0  0  0  0
    7.3829  -12.2860   20.5868 C   0  0  0  0  0  0  0  0  0  0  0  0
    7.9381  -13.6922   20.5541 C   0  0  2  0  0  0  0  0  0  0  0  0
    7.1337  -14.5790   19.7541 N   0  0  0  0  0  0  0  0  0  0  0  0
    7.9675  -14.2142   21.9409 C   0  0  0  0  0  0  0  0  0  0  0  0
    8.8998  -13.7394   22.8496 O   0  0  0  0  0  0  0  0  0  0  0  0
    7.1693  -15.0937   22.3582 O   0  0  0  0  0  0  0  0  0  0  0  0
  2  1  1  6
  3  2  1  0
  4  5  1  0
  4  3  1  0
  5  6  2  0
  7  2  1  0
  8  7  2  0
  9  5  1  0
 11 10  1  1
 11 13  1  0
 11 12  1  0
 12  7  1  0
 13 17  1  0
 14 13  2  0
 16 18  1  0
 16 15  1  1
 17 16  1  0
 18 20  2  0
 18 19  1  0
M  END
$$$$
