EAA.pdb
     RDKit          3D

 20 19  0  0  1  0  0  0  0  0999 V2000
    7.8597  -16.7924   17.8286 N   0  0  0  0  0  0  0  0  0  0  0  0
    9.2896  -16.6081   18.0166 C   0  0  1  0  0  0  0  0  0  0  0  0
   10.0387  -16.5658   16.7351 C   0  0  0  0  0  0  0  0  0  0  0  0
    9.1271  -16.5556   15.5404 C   0  0  0  0  0  0  0  0  0  0  0  0
    9.8165  -16.4693   14.2562 C   0  0  0  0  0  0  0  0  0  0  0  0
   11.0541  -16.4506   14.1161 O   0  0  0  0  0  0  0  0  0  0  0  0
    9.4554  -15.3023   18.7463 C   0  0  0  0  0  0  0  0  0  0  0  0
   10.5751  -14.8795   19.1303 O   0  0  0  0  0  0  0  0  0  0  0  0
    9.0130  -16.4032   13.1057 O   0  0  0  0  0  0  0  0  0  0  0  0
    7.3266  -12.3230   19.4882 C   0  0  0  0  0  0  0  0  0  0  0  0
    8.4702  -13.2663   19.7983 C   0  0  2  0  0  0  0  0  0  0  0  0
    8.3282  -14.4846   19.0325 N   0  0  0  0  0  0  0  0  0  0  0  0
    8.6031  -13.5398   21.2498 C   0  0  0  0  0  0  0  0  0  0  0  0
    8.7809  -12.6164   22.1108 O   0  0  0  0  0  0  0  0  0  0  0  0
    7.5857  -16.1024   23.6585 C   0  0  0  0  0  0  0  0  0  0  0  0
    8.6607  -15.1541   23.1769 C   0  0  2  0  0  0  0  0  0  0  0  0
    8.5399  -14.8585   21.7728 N   0  0  0  0  0  0  0  0  0  0  0  0
    9.9799  -15.7891   23.4071 C   0  0  0  0  0  0  0  0  0  0  0  0
   10.4370  -16.0096   24.6966 O   0  0  0  0  0  0  0  0  0  0  0  0
   10.7372  -16.1530   22.4696 O   0  0  0  0  0  0  0  0  0  0  0  0
  2  1  1  6
  3  2  1  0
  4  5  1  0
  4  3  1  0
  5  6  2  0
  7  2  1  0
  8  7  2  0
  9  5  1  0
 11 10  1  1
 11 13  1  0
 11 12  1  0
 12  7  1  0
 13 17  1  0
 14 13  2  0
 16 18  1  0
 16 15  1  6
 17 16  1  0
 18 20  2  0
 18 19  1  0
M  END
$$$$
