EAA.pdb
     RDKit          3D

 20 19  0  0  1  0  0  0  0  0999 V2000
    7.6383  -13.4560   16.4863 N   0  0  0  0  0  0  0  0  0  0  0  0
    8.0338  -14.7289   17.0668 C   0  0  1  0  0  0  0  0  0  0  0  0
    9.4185  -15.1231   16.7029 C   0  0  0  0  0  0  0  0  0  0  0  0
    9.4710  -15.9099   15.4235 C   0  0  0  0  0  0  0  0  0  0  0  0
   10.7982  -16.4101   15.0769 C   0  0  0  0  0  0  0  0  0  0  0  0
   11.0894  -16.9575   13.9965 O   0  0  0  0  0  0  0  0  0  0  0  0
    7.9270  -14.5646   18.5590 C   0  0  0  0  0  0  0  0  0  0  0  0
    8.4797  -13.6196   19.1767 O   0  0  0  0  0  0  0  0  0  0  0  0
   11.8083  -16.2558   16.0411 O   0  0  0  0  0  0  0  0  0  0  0  0
    5.9139  -16.1073   21.3119 C   0  0  0  0  0  0  0  0  0  0  0  0
    7.1286  -15.3766   20.7784 C   0  0  2  0  0  0  0  0  0  0  0  0
    7.1818  -15.4915   19.3380 N   0  0  0  0  0  0  0  0  0  0  0  0
    8.3891  -15.8302   21.4147 C   0  0  0  0  0  0  0  0  0  0  0  0
    9.1909  -16.6448   20.8498 O   0  0  0  0  0  0  0  0  0  0  0  0
   10.2767  -15.0891   24.6252 C   0  0  0  0  0  0  0  0  0  0  0  0
    9.9195  -15.9124   23.4081 C   0  0  2  0  0  0  0  0  0  0  0  0
    8.7824  -15.3804   22.7029 N   0  0  0  0  0  0  0  0  0  0  0  0
    9.5890  -17.2862   23.8551 C   0  0  0  0  0  0  0  0  0  0  0  0
    8.2784  -17.7358   23.8304 O   0  0  0  0  0  0  0  0  0  0  0  0
   10.4568  -18.0981   24.2704 O   0  0  0  0  0  0  0  0  0  0  0  0
  2  1  1  6
  3  2  1  0
  4  5  1  0
  4  3  1  0
  5  6  2  0
  7  2  1  0
  8  7  2  0
  9  5  1  0
 11 10  1  1
 11 13  1  0
 11 12  1  0
 12  7  1  0
 13 17  1  0
 14 13  2  0
 16 18  1  0
 16 15  1  1
 17 16  1  0
 18 20  2  0
 18 19  1  0
M  END
$$$$
