EAA.pdb
     RDKit          3D

 20 19  0  0  1  0  0  0  0  0999 V2000
   10.3741  -16.9133   20.4654 N   0  0  0  0  0  0  0  0  0  0  0  0
   10.9159  -17.4647   21.6967 C   0  0  1  0  0  0  0  0  0  0  0  0
   12.3912  -17.3242   21.7911 C   0  0  0  0  0  0  0  0  0  0  0  0
   13.1159  -18.3040   20.9117 C   0  0  0  0  0  0  0  0  0  0  0  0
   14.5687  -18.2847   21.0562 C   0  0  0  0  0  0  0  0  0  0  0  0
   15.1886  -18.7248   22.0430 O   0  0  0  0  0  0  0  0  0  0  0  0
   10.2599  -16.7111   22.8222 C   0  0  0  0  0  0  0  0  0  0  0  0
   10.3002  -15.4578   22.9109 O   0  0  0  0  0  0  0  0  0  0  0  0
   15.3061  -17.7264   19.9988 O   0  0  0  0  0  0  0  0  0  0  0  0
    7.7414  -17.5200   25.4491 C   0  0  0  0  0  0  0  0  0  0  0  0
    8.8779  -16.6839   24.8987 C   0  0  2  0  0  0  0  0  0  0  0  0
    9.5572  -17.4045   23.8451 N   0  0  0  0  0  0  0  0  0  0  0  0
    9.8176  -16.2368   25.9554 C   0  0  0  0  0  0  0  0  0  0  0  0
   10.9110  -16.8429   26.2056 O   0  0  0  0  0  0  0  0  0  0  0  0
   10.0704  -13.2855   28.3301 C   0  0  0  0  0  0  0  0  0  0  0  0
   10.4240  -14.6655   27.8226 C   0  0  2  0  0  0  0  0  0  0  0  0
    9.5536  -15.0964   26.7594 N   0  0  0  0  0  0  0  0  0  0  0  0
   10.2952  -15.6229   28.9465 C   0  0  0  0  0  0  0  0  0  0  0  0
    9.2809  -16.5672   28.9510 O   0  0  0  0  0  0  0  0  0  0  0  0
   11.0784  -15.6307   29.9320 O   0  0  0  0  0  0  0  0  0  0  0  0
  2  1  1  6
  3  2  1  0
  4  5  1  0
  4  3  1  0
  5  6  2  0
  7  2  1  0
  8  7  2  0
  9  5  1  0
 11 10  1  1
 11 13  1  0
 11 12  1  0
 12  7  1  0
 13 17  1  0
 14 13  2  0
 16 18  1  0
 16 15  1  1
 17 16  1  0
 18 20  2  0
 18 19  1  0
M  END
$$$$
