EAA.pdb
     RDKit          3D

 20 19  0  0  1  0  0  0  0  0999 V2000
   12.5463  -17.9645   16.9340 N   0  0  0  0  0  0  0  0  0  0  0  0
   12.8234  -18.5838   18.2198 C   0  0  1  0  0  0  0  0  0  0  0  0
   14.1682  -18.2399   18.7474 C   0  0  0  0  0  0  0  0  0  0  0  0
   15.2740  -18.7183   17.8491 C   0  0  0  0  0  0  0  0  0  0  0  0
   16.6183  -18.4512   18.3523 C   0  0  0  0  0  0  0  0  0  0  0  0
   17.5639  -19.2612   18.3125 O   0  0  0  0  0  0  0  0  0  0  0  0
   11.7634  -18.0873   19.1657 C   0  0  0  0  0  0  0  0  0  0  0  0
   11.2233  -16.9587   19.0442 O   0  0  0  0  0  0  0  0  0  0  0  0
   16.8460  -17.1861   18.9191 O   0  0  0  0  0  0  0  0  0  0  0  0
    9.5020  -19.6821   21.6419 C   0  0  0  0  0  0  0  0  0  0  0  0
   10.2314  -18.4721   21.0964 C   0  0  2  0  0  0  0  0  0  0  0  0
   11.3267  -18.8939   20.2518 N   0  0  0  0  0  0  0  0  0  0  0  0
   10.6838  -17.5511   22.1671 C   0  0  0  0  0  0  0  0  0  0  0  0
   11.8644  -17.5812   22.6475 O   0  0  0  0  0  0  0  0  0  0  0  0
    9.2012  -14.5840   24.0223 C   0  0  0  0  0  0  0  0  0  0  0  0
   10.2383  -15.6509   23.7527 C   0  0  2  0  0  0  0  0  0  0  0  0
    9.8215  -16.5715   22.7268 N   0  0  0  0  0  0  0  0  0  0  0  0
   10.4568  -16.4156   25.0033 C   0  0  0  0  0  0  0  0  0  0  0  0
   11.1479  -15.8472   26.0615 O   0  0  0  0  0  0  0  0  0  0  0  0
   10.0383  -17.5912   25.1686 O   0  0  0  0  0  0  0  0  0  0  0  0
  2  1  1  6
  3  2  1  0
  4  5  1  0
  4  3  1  0
  5  6  2  0
  7  2  1  0
  8  7  2  0
  9  5  1  0
 11 10  1  1
 11 13  1  0
 11 12  1  0
 12  7  1  0
 13 17  1  0
 14 13  2  0
 16 18  1  0
 16 15  1  1
 17 16  1  0
 18 20  2  0
 18 19  1  0
M  END
$$$$
