EAA.pdb
     RDKit          3D

 20 19  0  0  1  0  0  0  0  0999 V2000
    8.9345  -13.1002   17.7141 N   0  0  0  0  0  0  0  0  0  0  0  0
    8.9138  -14.4403   18.2775 C   0  0  1  0  0  0  0  0  0  0  0  0
   10.2733  -15.0066   18.4679 C   0  0  0  0  0  0  0  0  0  0  0  0
   11.2274  -14.0125   19.0680 C   0  0  0  0  0  0  0  0  0  0  0  0
   12.5979  -14.4976   19.2035 C   0  0  0  0  0  0  0  0  0  0  0  0
   13.3452  -14.2498   20.1689 O   0  0  0  0  0  0  0  0  0  0  0  0
    8.2178  -14.3294   19.6072 C   0  0  0  0  0  0  0  0  0  0  0  0
    8.3918  -13.3555   20.3826 O   0  0  0  0  0  0  0  0  0  0  0  0
   13.0949  -15.2998   18.1628 O   0  0  0  0  0  0  0  0  0  0  0  0
    5.7273  -16.4264   21.5151 C   0  0  0  0  0  0  0  0  0  0  0  0
    6.6780  -15.2614   21.3344 C   0  0  2  0  0  0  0  0  0  0  0  0
    7.3207  -15.3431   20.0417 N   0  0  0  0  0  0  0  0  0  0  0  0
    7.6658  -15.1583   22.4358 C   0  0  0  0  0  0  0  0  0  0  0  0
    8.8295  -15.6747   22.3672 O   0  0  0  0  0  0  0  0  0  0  0  0
    7.8453  -13.4312   25.8133 C   0  0  0  0  0  0  0  0  0  0  0  0
    8.2753  -14.4326   24.7649 C   0  0  2  0  0  0  0  0  0  0  0  0
    7.3724  -14.4720   23.6438 N   0  0  0  0  0  0  0  0  0  0  0  0
    8.3028  -15.7771   25.3878 C   0  0  0  0  0  0  0  0  0  0  0  0
    9.3041  -16.1144   26.2845 O   0  0  0  0  0  0  0  0  0  0  0  0
    7.4420  -16.6624   25.1433 O   0  0  0  0  0  0  0  0  0  0  0  0
  2  1  1  1
  3  2  1  0
  4  5  1  0
  4  3  1  0
  5  6  2  0
  7  2  1  0
  8  7  2  0
  9  5  1  0
 11 10  1  1
 11 13  1  0
 11 12  1  0
 12  7  1  0
 13 17  1  0
 14 13  2  0
 16 18  1  0
 16 15  1  1
 17 16  1  0
 18 20  2  0
 18 19  1  0
M  END
$$$$
