EAA.pdb
     RDKit          3D

 20 19  0  0  1  0  0  0  0  0999 V2000
    8.8298  -15.0360   14.9861 N   0  0  0  0  0  0  0  0  0  0  0  0
    8.1597  -15.7460   16.0634 C   0  0  1  0  0  0  0  0  0  0  0  0
    8.3479  -17.2171   15.9889 C   0  0  0  0  0  0  0  0  0  0  0  0
    7.1830  -17.9101   15.3399 C   0  0  0  0  0  0  0  0  0  0  0  0
    6.7309  -19.1109   16.0366 C   0  0  0  0  0  0  0  0  0  0  0  0
    7.4853  -19.9773   16.5182 O   0  0  0  0  0  0  0  0  0  0  0  0
    8.7481  -15.2218   17.3456 C   0  0  0  0  0  0  0  0  0  0  0  0
    9.9638  -15.3553   17.6361 O   0  0  0  0  0  0  0  0  0  0  0  0
    5.3431  -19.2879   16.1647 O   0  0  0  0  0  0  0  0  0  0  0  0
    7.4755  -13.1456   20.2210 C   0  0  0  0  0  0  0  0  0  0  0  0
    8.4991  -14.0054   19.5091 C   0  0  2  0  0  0  0  0  0  0  0  0
    7.9328  -14.5435   18.2923 N   0  0  0  0  0  0  0  0  0  0  0  0
    9.0491  -15.0723   20.3801 C   0  0  0  0  0  0  0  0  0  0  0  0
    8.5339  -16.2363   20.4516 O   0  0  0  0  0  0  0  0  0  0  0  0
   12.1410  -15.5562   22.5109 C   0  0  0  0  0  0  0  0  0  0  0  0
   10.7233  -15.8614   22.0823 C   0  0  2  0  0  0  0  0  0  0  0  0
   10.1930  -14.8596   21.1942 N   0  0  0  0  0  0  0  0  0  0  0  0
    9.8700  -15.9087   23.2932 C   0  0  0  0  0  0  0  0  0  0  0  0
   10.0949  -16.8624   24.2731 O   0  0  0  0  0  0  0  0  0  0  0  0
    8.9200  -15.1072   23.4926 O   0  0  0  0  0  0  0  0  0  0  0  0
  2  1  1  6
  3  2  1  0
  4  5  1  0
  4  3  1  0
  5  6  2  0
  7  2  1  0
  8  7  2  0
  9  5  1  0
 11 10  1  1
 11 13  1  0
 11 12  1  0
 12  7  1  0
 13 17  1  0
 14 13  2  0
 16 18  1  0
 16 15  1  1
 17 16  1  0
 18 20  2  0
 18 19  1  0
M  END
$$$$
