EAA.pdb
     RDKit          3D

 20 19  0  0  1  0  0  0  0  0999 V2000
   11.3233  -19.1774   22.3200 N   0  0  0  0  0  0  0  0  0  0  0  0
   12.2471  -18.0684   22.4942 C   0  0  1  0  0  0  0  0  0  0  0  0
   12.7538  -17.5322   21.2054 C   0  0  0  0  0  0  0  0  0  0  0  0
   11.9206  -17.9745   20.0355 C   0  0  0  0  0  0  0  0  0  0  0  0
   12.6746  -18.1843   18.8029 C   0  0  0  0  0  0  0  0  0  0  0  0
   12.9156  -19.2984   18.3004 O   0  0  0  0  0  0  0  0  0  0  0  0
   11.4872  -16.9963   23.2279 C   0  0  0  0  0  0  0  0  0  0  0  0
   11.9709  -15.8581   23.4530 O   0  0  0  0  0  0  0  0  0  0  0  0
   13.1562  -17.0382   18.1486 O   0  0  0  0  0  0  0  0  0  0  0  0
    8.0121  -16.6170   24.6209 C   0  0  0  0  0  0  0  0  0  0  0  0
    9.4797  -16.2591   24.5119 C   0  0  2  0  0  0  0  0  0  0  0  0
   10.1689  -17.2385   23.7016 N   0  0  0  0  0  0  0  0  0  0  0  0
   10.1228  -16.0891   25.8374 C   0  0  0  0  0  0  0  0  0  0  0  0
   10.9544  -16.9310   26.3119 O   0  0  0  0  0  0  0  0  0  0  0  0
   10.0365  -13.4727   28.5994 C   0  0  0  0  0  0  0  0  0  0  0  0
   10.5193  -14.7331   27.9176 C   0  0  2  0  0  0  0  0  0  0  0  0
    9.8486  -14.9684   26.6652 N   0  0  0  0  0  0  0  0  0  0  0  0
   10.2476  -15.8816   28.8140 C   0  0  0  0  0  0  0  0  0  0  0  0
   11.0978  -16.1626   29.8716 O   0  0  0  0  0  0  0  0  0  0  0  0
    9.2568  -16.6443   28.6680 O   0  0  0  0  0  0  0  0  0  0  0  0
  2  1  1  6
  3  2  1  0
  4  5  1  0
  4  3  1  0
  5  6  2  0
  7  2  1  0
  8  7  2  0
  9  5  1  0
 11 10  1  1
 11 13  1  0
 11 12  1  0
 12  7  1  0
 13 17  1  0
 14 13  2  0
 16 18  1  0
 16 15  1  1
 17 16  1  0
 18 20  2  0
 18 19  1  0
M  END
$$$$
