EAA.pdb
     RDKit          3D

 20 19  0  0  1  0  0  0  0  0999 V2000
    7.9685  -17.1887   17.6872 N   0  0  0  0  0  0  0  0  0  0  0  0
    9.3872  -16.8714   17.6728 C   0  0  1  0  0  0  0  0  0  0  0  0
    9.9692  -16.8948   16.3068 C   0  0  0  0  0  0  0  0  0  0  0  0
    8.9372  -16.6522   15.2417 C   0  0  0  0  0  0  0  0  0  0  0  0
    9.4344  -15.9323   14.0727 C   0  0  0  0  0  0  0  0  0  0  0  0
    8.7728  -15.1075   13.4141 O   0  0  0  0  0  0  0  0  0  0  0  0
    9.5178  -15.4910   18.2580 C   0  0  0  0  0  0  0  0  0  0  0  0
   10.6312  -14.9389   18.4466 O   0  0  0  0  0  0  0  0  0  0  0  0
   10.7548  -16.1998   13.6747 O   0  0  0  0  0  0  0  0  0  0  0  0
    7.2371  -12.6531   19.1021 C   0  0  0  0  0  0  0  0  0  0  0  0
    8.4820  -13.4870   19.3227 C   0  0  2  0  0  0  0  0  0  0  0  0
    8.3627  -14.7480   18.6253 N   0  0  0  0  0  0  0  0  0  0  0  0
    8.7896  -13.6791   20.7607 C   0  0  0  0  0  0  0  0  0  0  0  0
    9.0677  -12.7095   21.5406 O   0  0  0  0  0  0  0  0  0  0  0  0
    8.2177  -16.1745   23.4158 C   0  0  0  0  0  0  0  0  0  0  0  0
    9.1447  -15.1898   22.7392 C   0  0  2  0  0  0  0  0  0  0  0  0
    8.7927  -14.9660   21.3610 N   0  0  0  0  0  0  0  0  0  0  0  0
   10.5209  -15.7379   22.7851 C   0  0  0  0  0  0  0  0  0  0  0  0
   11.1765  -15.8875   23.9968 O   0  0  0  0  0  0  0  0  0  0  0  0
   11.1529  -16.0879   21.7541 O   0  0  0  0  0  0  0  0  0  0  0  0
  2  1  1  6
  3  2  1  0
  4  5  1  0
  4  3  1  0
  5  6  2  0
  7  2  1  0
  8  7  2  0
  9  5  1  0
 11 10  1  1
 11 13  1  0
 11 12  1  0
 12  7  1  0
 13 17  1  0
 14 13  2  0
 16 18  1  0
 16 15  1  6
 17 16  1  0
 18 20  2  0
 18 19  1  0
M  END
$$$$
