EAA.pdb
     RDKit          3D

 20 19  0  0  1  0  0  0  0  0999 V2000
    8.6669  -18.0238   23.3702 N   0  0  0  0  0  0  0  0  0  0  0  0
    9.9733  -17.3939   23.2690 C   0  0  1  0  0  0  0  0  0  0  0  0
   10.5784  -17.5350   21.9202 C   0  0  0  0  0  0  0  0  0  0  0  0
   10.8060  -18.9720   21.5436 C   0  0  0  0  0  0  0  0  0  0  0  0
   11.4262  -19.1619   20.2355 C   0  0  0  0  0  0  0  0  0  0  0  0
   10.8279  -19.0670   19.1470 O   0  0  0  0  0  0  0  0  0  0  0  0
    9.7659  -15.9369   23.5838 C   0  0  0  0  0  0  0  0  0  0  0  0
   10.6811  -15.0830   23.4683 O   0  0  0  0  0  0  0  0  0  0  0  0
   12.7959  -19.4736   20.2198 O   0  0  0  0  0  0  0  0  0  0  0  0
    6.8574  -13.7049   24.3130 C   0  0  0  0  0  0  0  0  0  0  0  0
    8.3194  -14.0853   24.4215 C   0  0  2  0  0  0  0  0  0  0  0  0
    8.5017  -15.4658   24.0319 N   0  0  0  0  0  0  0  0  0  0  0  0
    8.8785  -13.8139   25.7681 C   0  0  0  0  0  0  0  0  0  0  0  0
    8.8066  -12.6695   26.3254 O   0  0  0  0  0  0  0  0  0  0  0  0
    8.9766  -14.1495   28.8162 C   0  0  0  0  0  0  0  0  0  0  0  0
   10.0498  -14.5987   27.8502 C   0  0  2  0  0  0  0  0  0  0  0  0
    9.5335  -14.8215   26.5245 N   0  0  0  0  0  0  0  0  0  0  0  0
   10.6211  -15.8727   28.3473 C   0  0  0  0  0  0  0  0  0  0  0  0
   10.5457  -17.0229   27.5781 O   0  0  0  0  0  0  0  0  0  0  0  0
   11.1905  -15.9772   29.4651 O   0  0  0  0  0  0  0  0  0  0  0  0
  2  1  1  6
  3  2  1  0
  4  5  1  0
  4  3  1  0
  5  6  2  0
  7  2  1  0
  8  7  2  0
  9  5  1  0
 11 10  1  1
 11 13  1  0
 11 12  1  0
 12  7  1  0
 13 17  1  0
 14 13  2  0
 16 18  1  0
 16 15  1  1
 17 16  1  0
 18 20  2  0
 18 19  1  0
M  END
$$$$
