EAA.pdb
     RDKit          3D

 20 19  0  0  1  0  0  0  0  0999 V2000
    9.9511  -15.5250   15.6312 N   0  0  0  0  0  0  0  0  0  0  0  0
    9.0681  -15.8844   16.7288 C   0  0  1  0  0  0  0  0  0  0  0  0
    9.3368  -17.2435   17.2634 C   0  0  0  0  0  0  0  0  0  0  0  0
    8.0763  -18.0347   17.4725 C   0  0  0  0  0  0  0  0  0  0  0  0
    7.9640  -18.6536   18.7902 C   0  0  0  0  0  0  0  0  0  0  0  0
    8.8585  -19.3280   19.3350 O   0  0  0  0  0  0  0  0  0  0  0  0
    9.2950  -14.8594   17.8072 C   0  0  0  0  0  0  0  0  0  0  0  0
   10.4317  -14.6266   18.2907 O   0  0  0  0  0  0  0  0  0  0  0  0
    6.7548  -18.4662   19.4804 O   0  0  0  0  0  0  0  0  0  0  0  0
    7.1724  -12.3125   19.5928 C   0  0  0  0  0  0  0  0  0  0  0  0
    8.4077  -13.1703   19.4142 C   0  0  2  0  0  0  0  0  0  0  0  0
    8.2093  -14.1031   18.3272 N   0  0  0  0  0  0  0  0  0  0  0  0
    8.8069  -13.8588   20.6656 C   0  0  0  0  0  0  0  0  0  0  0  0
    9.1137  -13.2282   21.7304 O   0  0  0  0  0  0  0  0  0  0  0  0
    8.4419  -17.3382   22.0071 C   0  0  0  0  0  0  0  0  0  0  0  0
    9.0974  -15.9755   21.9916 C   0  0  2  0  0  0  0  0  0  0  0  0
    8.8719  -15.2746   20.7541 N   0  0  0  0  0  0  0  0  0  0  0  0
   10.5580  -16.1587   22.1634 C   0  0  0  0  0  0  0  0  0  0  0  0
   11.0603  -16.7557   23.3087 O   0  0  0  0  0  0  0  0  0  0  0  0
   11.3997  -15.7920   21.3021 O   0  0  0  0  0  0  0  0  0  0  0  0
  2  1  1  6
  3  2  1  0
  4  5  1  0
  4  3  1  0
  5  6  2  0
  7  2  1  0
  8  7  2  0
  9  5  1  0
 11 10  1  1
 11 13  1  0
 11 12  1  0
 12  7  1  0
 13 17  1  0
 14 13  2  0
 16 18  1  0
 16 15  1  6
 17 16  1  0
 18 20  2  0
 18 19  1  0
M  END
$$$$
