FAY.pdb
     RDKit          3D

 29 30  0  0  1  0  0  0  0  0999 V2000
   25.3977  -19.8331  -16.3790 N   0  0  0  0  0  0  0  0  0  0  0  0
   24.8786  -18.8088  -15.4629 C   0  0  1  0  0  0  0  0  0  0  0  0
   25.5897  -17.5137  -15.6575 C   0  0  0  0  0  0  0  0  0  0  0  0
   27.0267  -17.6502  -15.8966 C   0  0  0  0  0  0  0  0  0  0  0  0
   27.5922  -17.3303  -17.1331 C   0  0  0  0  0  0  0  0  0  0  0  0
   28.9410  -17.4481  -17.3853 C   0  0  0  0  0  0  0  0  0  0  0  0
   29.7773  -17.8987  -16.3856 C   0  0  0  0  0  0  0  0  0  0  0  0
   29.2577  -18.2279  -15.1415 C   0  0  0  0  0  0  0  0  0  0  0  0
   27.9069  -18.0973  -14.9276 C   0  0  0  0  0  0  0  0  0  0  0  0
   23.4020  -18.7292  -15.5450 C   0  0  0  0  0  0  0  0  0  0  0  0
   22.7973  -17.7712  -15.0063 O   0  0  0  0  0  0  0  0  0  0  0  0
   20.5591  -20.2401  -17.4156 C   0  0  0  0  0  0  0  0  0  0  0  0
   21.1671  -19.6280  -16.1575 C   0  0  2  0  0  0  0  0  0  0  0  0
   22.6130  -19.7018  -16.2167 N   0  0  0  0  0  0  0  0  0  0  0  0
   20.6688  -20.3358  -14.9383 C   0  0  0  0  0  0  0  0  0  0  0  0
   19.4310  -20.4391  -14.7294 O   0  0  0  0  0  0  0  0  0  0  0  0
   26.5263  -19.6885  -10.2893 O   0  0  0  0  0  0  0  0  0  0  0  0
   25.4270  -20.3844  -10.7745 C   0  0  0  0  0  0  0  0  0  0  0  0
   24.3002  -20.5094   -9.9916 C   0  0  0  0  0  0  0  0  0  0  0  0
   23.2306  -21.1994  -10.4921 C   0  0  0  0  0  0  0  0  0  0  0  0
   23.2558  -21.7683  -11.7541 C   0  0  0  0  0  0  0  0  0  0  0  0
   22.1071  -22.5069  -12.2830 C   0  0  0  0  0  0  0  0  0  0  0  0
   21.0135  -21.6023  -12.8213 C   0  0  2  0  0  0  0  0  0  0  0  0
   21.5342  -20.9076  -13.9876 N   0  0  0  0  0  0  0  0  0  0  0  0
   20.4439  -20.6944  -11.8335 C   0  0  0  0  0  0  0  0  0  0  0  0
   19.6911  -21.1690  -10.7672 O   0  0  0  0  0  0  0  0  0  0  0  0
   24.4010  -21.6258  -12.5161 C   0  0  0  0  0  0  0  0  0  0  0  0
   25.4883  -20.9338  -12.0280 C   0  0  0  0  0  0  0  0  0  0  0  0
   20.6028  -19.4508  -11.8950 O   0  0  0  0  0  0  0  0  0  0  0  0
  2  1  1  6
  2  3  1  0
  4  3  1  0
  4  9  1  0
  5  4  2  0
  6  5  1  0
  6  7  2  0
  7  8  1  0
  8  9  2  0
 10  2  1  0
 11 10  2  0
 13 12  1  6
 13 14  1  0
 14 10  1  0
 15 13  1  0
 15 16  2  0
 18 17  1  0
 19 18  2  0
 20 19  1  0
 21 20  2  0
 21 27  1  0
 23 22  1  1
 22 21  1  0
 23 24  1  0
 24 15  1  0
 25 23  1  0
 26 25  1  0
 27 28  2  0
 28 18  1  0
 29 25  2  0
M  END
$$$$
