FAY.pdb
     RDKit          3D

 29 30  0  0  1  0  0  0  0  0999 V2000
   27.4625   -9.3289  -17.6206 N   0  0  0  0  0  0  0  0  0  0  0  0
   26.0606   -9.5253  -17.2283 C   0  0  1  0  0  0  0  0  0  0  0  0
   25.9705  -10.1906  -15.8978 C   0  0  0  0  0  0  0  0  0  0  0  0
   26.6005  -11.5100  -15.8447 C   0  0  0  0  0  0  0  0  0  0  0  0
   26.1216  -12.5765  -16.6092 C   0  0  0  0  0  0  0  0  0  0  0  0
   26.6957  -13.8279  -16.5795 C   0  0  0  0  0  0  0  0  0  0  0  0
   27.7875  -14.0501  -15.7667 C   0  0  0  0  0  0  0  0  0  0  0  0
   28.2962  -13.0185  -14.9901 C   0  0  0  0  0  0  0  0  0  0  0  0
   27.6966  -11.7837  -15.0464 C   0  0  0  0  0  0  0  0  0  0  0  0
   25.2989   -8.2608  -17.3473 C   0  0  0  0  0  0  0  0  0  0  0  0
   25.8160   -7.1823  -16.9690 O   0  0  0  0  0  0  0  0  0  0  0  0
   22.6747   -6.8233  -19.4089 C   0  0  0  0  0  0  0  0  0  0  0  0
   23.3206   -6.9200  -18.0303 C   0  0  2  0  0  0  0  0  0  0  0  0
   23.9825   -8.2001  -17.8792 N   0  0  0  0  0  0  0  0  0  0  0  0
   22.2929   -6.7464  -16.9581 C   0  0  0  0  0  0  0  0  0  0  0  0
   21.5780   -7.7212  -16.6045 O   0  0  0  0  0  0  0  0  0  0  0  0
   18.5175   -6.1664   -9.4404 O   0  0  0  0  0  0  0  0  0  0  0  0
   19.2880   -6.2064  -10.5949 C   0  0  0  0  0  0  0  0  0  0  0  0
   18.6728   -6.1527  -11.8266 C   0  0  0  0  0  0  0  0  0  0  0  0
   19.4536   -6.1936  -12.9487 C   0  0  0  0  0  0  0  0  0  0  0  0
   20.8330   -6.2866  -12.8743 C   0  0  0  0  0  0  0  0  0  0  0  0
   21.6627   -6.3313  -14.0802 C   0  0  0  0  0  0  0  0  0  0  0  0
   21.1621   -5.4152  -15.1822 C   0  0  2  0  0  0  0  0  0  0  0  0
   22.0779   -5.5178  -16.3068 N   0  0  0  0  0  0  0  0  0  0  0  0
   20.9381   -4.0373  -14.7631 C   0  0  0  0  0  0  0  0  0  0  0  0
   19.6659   -3.5766  -14.4497 O   0  0  0  0  0  0  0  0  0  0  0  0
   21.4213   -6.3386  -11.6237 C   0  0  0  0  0  0  0  0  0  0  0  0
   20.6502   -6.2986  -10.4822 C   0  0  0  0  0  0  0  0  0  0  0  0
   21.8730   -3.2056  -14.6648 O   0  0  0  0  0  0  0  0  0  0  0  0
  2  1  1  1
  2  3  1  0
  4  3  1  0
  4  9  1  0
  5  4  2  0
  6  5  1  0
  6  7  2  0
  7  8  1  0
  8  9  2  0
 10  2  1  0
 11 10  2  0
 13 12  1  6
 13 14  1  0
 14 10  1  0
 15 13  1  0
 15 16  2  0
 18 17  1  0
 19 18  2  0
 20 19  1  0
 21 20  2  0
 21 27  1  0
 23 22  1  1
 22 21  1  0
 23 24  1  0
 24 15  1  0
 25 23  1  0
 26 25  1  0
 27 28  2  0
 28 18  1  0
 29 25  2  0
M  END
$$$$
