FAY.pdb
     RDKit          3D

 29 30  0  0  1  0  0  0  0  0999 V2000
   28.7683  -20.5878   -9.8455 N   0  0  0  0  0  0  0  0  0  0  0  0
   27.3975  -21.0310   -9.5589 C   0  0  1  0  0  0  0  0  0  0  0  0
   26.8692  -20.3639   -8.3355 C   0  0  0  0  0  0  0  0  0  0  0  0
   27.7593  -20.4467   -7.1772 C   0  0  0  0  0  0  0  0  0  0  0  0
   27.8375  -19.4102   -6.2441 C   0  0  0  0  0  0  0  0  0  0  0  0
   28.6653  -19.4620   -5.1447 C   0  0  0  0  0  0  0  0  0  0  0  0
   29.4535  -20.5761   -4.9457 C   0  0  0  0  0  0  0  0  0  0  0  0
   29.4072  -21.6295   -5.8481 C   0  0  0  0  0  0  0  0  0  0  0  0
   28.5690  -21.5413   -6.9330 C   0  0  0  0  0  0  0  0  0  0  0  0
   26.5409  -20.9018  -10.7601 C   0  0  0  0  0  0  0  0  0  0  0  0
   26.6324  -19.8826  -11.4857 O   0  0  0  0  0  0  0  0  0  0  0  0
   24.7307  -22.9963  -13.1396 C   0  0  0  0  0  0  0  0  0  0  0  0
   24.7919  -21.7019  -12.3346 C   0  0  2  0  0  0  0  0  0  0  0  0
   25.5980  -21.8927  -11.1456 N   0  0  0  0  0  0  0  0  0  0  0  0
   23.4160  -21.2578  -11.9533 C   0  0  0  0  0  0  0  0  0  0  0  0
   22.8667  -21.7206  -10.9187 O   0  0  0  0  0  0  0  0  0  0  0  0
   18.7169  -15.3137  -15.8007 O   0  0  0  0  0  0  0  0  0  0  0  0
   19.3477  -16.1152  -14.8584 C   0  0  0  0  0  0  0  0  0  0  0  0
   20.6857  -16.4108  -15.0018 C   0  0  0  0  0  0  0  0  0  0  0  0
   21.2841  -17.2021  -14.0604 C   0  0  0  0  0  0  0  0  0  0  0  0
   20.5821  -17.7066  -12.9789 C   0  0  0  0  0  0  0  0  0  0  0  0
   21.2292  -18.5545  -11.9753 C   0  0  0  0  0  0  0  0  0  0  0  0
   21.3015  -20.0141  -12.3856 C   0  0  2  0  0  0  0  0  0  0  0  0
   22.6841  -20.3248  -12.7108 N   0  0  0  0  0  0  0  0  0  0  0  0
   20.3763  -20.3864  -13.4486 C   0  0  0  0  0  0  0  0  0  0  0  0
   20.8206  -20.6127  -14.7449 O   0  0  0  0  0  0  0  0  0  0  0  0
   19.2404  -17.3923  -12.8623 C   0  0  0  0  0  0  0  0  0  0  0  0
   18.6210  -16.5963  -13.8014 C   0  0  0  0  0  0  0  0  0  0  0  0
   19.1443  -20.5202  -13.2493 O   0  0  0  0  0  0  0  0  0  0  0  0
  2  1  1  6
  2  3  1  0
  4  3  1  0
  4  9  1  0
  5  4  2  0
  6  5  1  0
  6  7  2  0
  7  8  1  0
  8  9  2  0
 10  2  1  0
 11 10  2  0
 13 12  1  1
 13 14  1  0
 14 10  1  0
 15 13  1  0
 15 16  2  0
 18 17  1  0
 19 18  2  0
 20 19  1  0
 21 20  2  0
 21 27  1  0
 23 22  1  6
 22 21  1  0
 23 24  1  0
 24 15  1  0
 25 23  1  0
 26 25  1  0
 27 28  2  0
 28 18  1  0
 29 25  2  0
M  END
$$$$
