FAY.pdb
     RDKit          3D

 29 30  0  0  1  0  0  0  0  0999 V2000
   28.6119  -20.8786  -14.2959 N   0  0  0  0  0  0  0  0  0  0  0  0
   27.2922  -21.1000  -13.6899 C   0  0  1  0  0  0  0  0  0  0  0  0
   27.0818  -20.1885  -12.5297 C   0  0  0  0  0  0  0  0  0  0  0  0
   27.9270  -20.4869  -11.3733 C   0  0  0  0  0  0  0  0  0  0  0  0
   29.3175  -20.3712  -11.4392 C   0  0  0  0  0  0  0  0  0  0  0  0
   30.1367  -20.6444  -10.3665 C   0  0  0  0  0  0  0  0  0  0  0  0
   29.5743  -21.0492   -9.1741 C   0  0  0  0  0  0  0  0  0  0  0  0
   28.1968  -21.1775   -9.0644 C   0  0  0  0  0  0  0  0  0  0  0  0
   27.4121  -20.8960  -10.1564 C   0  0  0  0  0  0  0  0  0  0  0  0
   26.2274  -21.0583  -14.7182 C   0  0  0  0  0  0  0  0  0  0  0  0
   26.1464  -20.0757  -15.4940 O   0  0  0  0  0  0  0  0  0  0  0  0
   23.8354  -23.3188  -16.4261 C   0  0  0  0  0  0  0  0  0  0  0  0
   24.2060  -21.9541  -15.8537 C   0  0  2  0  0  0  0  0  0  0  0  0
   25.2687  -22.0950  -14.8788 N   0  0  0  0  0  0  0  0  0  0  0  0
   23.0136  -21.3115  -15.2205 C   0  0  0  0  0  0  0  0  0  0  0  0
   22.8217  -21.4194  -13.9804 O   0  0  0  0  0  0  0  0  0  0  0  0
   17.1529  -15.7572  -12.3860 O   0  0  0  0  0  0  0  0  0  0  0  0
   18.1978  -16.4882  -12.9356 C   0  0  0  0  0  0  0  0  0  0  0  0
   18.7549  -17.5247  -12.2190 C   0  0  0  0  0  0  0  0  0  0  0  0
   19.7828  -18.2295  -12.7822 C   0  0  0  0  0  0  0  0  0  0  0  0
   20.2699  -17.9271  -14.0424 C   0  0  0  0  0  0  0  0  0  0  0  0
   21.3718  -18.6854  -14.6387 C   0  0  0  0  0  0  0  0  0  0  0  0
   20.9174  -19.9687  -15.3100 C   0  0  2  0  0  0  0  0  0  0  0  0
   22.0701  -20.5729  -15.9583 N   0  0  0  0  0  0  0  0  0  0  0  0
   19.7850  -19.8064  -16.2132 C   0  0  0  0  0  0  0  0  0  0  0  0
   18.4972  -20.1524  -15.8246 O   0  0  0  0  0  0  0  0  0  0  0  0
   19.6902  -16.8812  -14.7371 C   0  0  0  0  0  0  0  0  0  0  0  0
   18.6535  -16.1601  -14.1853 C   0  0  0  0  0  0  0  0  0  0  0  0
   19.9139  -19.3505  -17.3755 O   0  0  0  0  0  0  0  0  0  0  0  0
  2  1  1  6
  2  3  1  0
  4  3  1  0
  4  9  1  0
  5  4  2  0
  6  5  1  0
  6  7  2  0
  7  8  1  0
  8  9  2  0
 10  2  1  0
 11 10  2  0
 13 12  1  1
 13 14  1  0
 14 10  1  0
 15 13  1  0
 15 16  2  0
 18 17  1  0
 19 18  2  0
 20 19  1  0
 21 20  2  0
 21 27  1  0
 23 22  1  6
 22 21  1  0
 23 24  1  0
 24 15  1  0
 25 23  1  0
 26 25  1  0
 27 28  2  0
 28 18  1  0
 29 25  2  0
M  END
$$$$
