FAY.pdb
     RDKit          3D

 29 30  0  0  1  0  0  0  0  0999 V2000
   21.5812  -19.8313  -10.4313 N   0  0  0  0  0  0  0  0  0  0  0  0
   22.6249  -19.7569  -11.4623 C   0  0  1  0  0  0  0  0  0  0  0  0
   23.5917  -20.8821  -11.3202 C   0  0  0  0  0  0  0  0  0  0  0  0
   24.3782  -20.8432  -10.0870 C   0  0  0  0  0  0  0  0  0  0  0  0
   25.7172  -20.4457  -10.0902 C   0  0  0  0  0  0  0  0  0  0  0  0
   26.4803  -20.3987   -8.9448 C   0  0  0  0  0  0  0  0  0  0  0  0
   25.9116  -20.7558   -7.7402 C   0  0  0  0  0  0  0  0  0  0  0  0
   24.5839  -21.1572   -7.6912 C   0  0  0  0  0  0  0  0  0  0  0  0
   23.8545  -21.1913   -8.8549 C   0  0  0  0  0  0  0  0  0  0  0  0
   22.0251  -19.6150  -12.8089 C   0  0  0  0  0  0  0  0  0  0  0  0
   20.7924  -19.7878  -12.9648 O   0  0  0  0  0  0  0  0  0  0  0  0
   23.2262  -17.9340  -15.9436 C   0  0  0  0  0  0  0  0  0  0  0  0
   22.1623  -18.5903  -15.0692 C   0  0  2  0  0  0  0  0  0  0  0  0
   22.7872  -19.2859  -13.9623 N   0  0  0  0  0  0  0  0  0  0  0  0
   21.3401  -19.5452  -15.8741 C   0  0  0  0  0  0  0  0  0  0  0  0
   20.6463  -19.1250  -16.8376 O   0  0  0  0  0  0  0  0  0  0  0  0
   23.9972  -20.2508  -21.4037 O   0  0  0  0  0  0  0  0  0  0  0  0
   23.3422  -20.8685  -20.3465 C   0  0  0  0  0  0  0  0  0  0  0  0
   23.8423  -20.7432  -19.0688 C   0  0  0  0  0  0  0  0  0  0  0  0
   23.1790  -21.3609  -18.0446 C   0  0  0  0  0  0  0  0  0  0  0  0
   22.0291  -22.1007  -18.2617 C   0  0  0  0  0  0  0  0  0  0  0  0
   21.3248  -22.7606  -17.1602 C   0  0  0  0  0  0  0  0  0  0  0  0
   20.4409  -21.8153  -16.3669 C   0  0  2  0  0  0  0  0  0  0  0  0
   21.3007  -20.9255  -15.6034 N   0  0  0  0  0  0  0  0  0  0  0  0
   19.4416  -22.4791  -15.5390 C   0  0  0  0  0  0  0  0  0  0  0  0
   18.5156  -23.3555  -16.0898 O   0  0  0  0  0  0  0  0  0  0  0  0
   21.5516  -22.2081  -19.5553 C   0  0  0  0  0  0  0  0  0  0  0  0
   22.2070  -21.5924  -20.5996 C   0  0  0  0  0  0  0  0  0  0  0  0
   19.3676  -22.2949  -14.2996 O   0  0  0  0  0  0  0  0  0  0  0  0
  2  1  1  1
  2  3  1  0
  4  3  1  0
  4  9  1  0
  5  4  2  0
  6  5  1  0
  6  7  2  0
  7  8  1  0
  8  9  2  0
 10  2  1  0
 11 10  2  0
 13 12  1  6
 13 14  1  0
 14 10  1  0
 15 13  1  0
 15 16  2  0
 18 17  1  0
 19 18  2  0
 20 19  1  0
 21 20  2  0
 21 27  1  0
 23 22  1  1
 22 21  1  0
 23 24  1  0
 24 15  1  0
 25 23  1  0
 26 25  1  0
 27 28  2  0
 28 18  1  0
 29 25  2  0
M  END
$$$$
