FAY.pdb
     RDKit          3D

 29 30  0  0  1  0  0  0  0  0999 V2000
   25.8634  -33.0348  -13.5204 N   0  0  0  0  0  0  0  0  0  0  0  0
   24.7746  -32.9942  -12.5352 C   0  0  1  0  0  0  0  0  0  0  0  0
   23.9650  -34.2443  -12.5875 C   0  0  0  0  0  0  0  0  0  0  0  0
   23.0511  -34.3180  -13.7277 C   0  0  0  0  0  0  0  0  0  0  0  0
   23.2256  -35.2644  -14.7401 C   0  0  0  0  0  0  0  0  0  0  0  0
   22.3804  -35.3569  -15.8235 C   0  0  0  0  0  0  0  0  0  0  0  0
   21.3155  -34.4864  -15.9245 C   0  0  0  0  0  0  0  0  0  0  0  0
   21.1047  -33.5302  -14.9410 C   0  0  0  0  0  0  0  0  0  0  0  0
   21.9693  -33.4686  -13.8751 C   0  0  0  0  0  0  0  0  0  0  0  0
   25.2922  -32.6409  -11.1933 C   0  0  0  0  0  0  0  0  0  0  0  0
   26.4724  -32.9314  -10.8829 O   0  0  0  0  0  0  0  0  0  0  0  0
   24.0632  -30.9276   -8.0570 C   0  0  0  0  0  0  0  0  0  0  0  0
   25.0340  -31.7685   -8.8803 C   0  0  2  0  0  0  0  0  0  0  0  0
   24.5067  -31.9748  -10.2141 N   0  0  0  0  0  0  0  0  0  0  0  0
   25.2764  -33.0865   -8.2171 C   0  0  0  0  0  0  0  0  0  0  0  0
   24.8890  -34.1513   -8.7672 O   0  0  0  0  0  0  0  0  0  0  0  0
   27.8136  -40.5441   -5.3330 O   0  0  0  0  0  0  0  0  0  0  0  0
   27.6136  -39.2548   -5.8083 C   0  0  0  0  0  0  0  0  0  0  0  0
   28.4318  -38.2345   -5.3749 C   0  0  0  0  0  0  0  0  0  0  0  0
   28.2146  -36.9735   -5.8578 C   0  0  0  0  0  0  0  0  0  0  0  0
   27.2019  -36.7035   -6.7624 C   0  0  0  0  0  0  0  0  0  0  0  0
   26.9744  -35.3503   -7.2742 C   0  0  0  0  0  0  0  0  0  0  0  0
   26.1255  -34.4980   -6.3485 C   0  0  2  0  0  0  0  0  0  0  0  0
   25.9323  -33.2015   -6.9775 N   0  0  0  0  0  0  0  0  0  0  0  0
   26.6394  -34.3924   -4.9886 C   0  0  0  0  0  0  0  0  0  0  0  0
   27.3979  -33.3004   -4.5871 O   0  0  0  0  0  0  0  0  0  0  0  0
   26.3972  -37.7484   -7.1787 C   0  0  0  0  0  0  0  0  0  0  0  0
   26.6015  -39.0254   -6.7026 C   0  0  0  0  0  0  0  0  0  0  0  0
   26.4251  -35.2730   -4.1202 O   0  0  0  0  0  0  0  0  0  0  0  0
  2  1  1  6
  2  3  1  0
  4  3  1  0
  4  9  1  0
  5  4  2  0
  6  5  1  0
  6  7  2  0
  7  8  1  0
  8  9  2  0
 10  2  1  0
 11 10  2  0
 13 12  1  1
 13 14  1  0
 14 10  1  0
 15 13  1  0
 15 16  2  0
 18 17  1  0
 19 18  2  0
 20 19  1  0
 21 20  2  0
 21 27  1  0
 23 22  1  6
 22 21  1  0
 23 24  1  0
 24 15  1  0
 25 23  1  0
 26 25  1  0
 27 28  2  0
 28 18  1  0
 29 25  2  0
M  END
$$$$
