FAY.pdb
     RDKit          3D

 29 30  0  0  1  0  0  0  0  0999 V2000
   28.4474  -21.2915   -8.6111 N   0  0  0  0  0  0  0  0  0  0  0  0
   27.1589  -20.5861   -8.6092 C   0  0  1  0  0  0  0  0  0  0  0  0
   27.2234  -19.3662   -7.7556 C   0  0  0  0  0  0  0  0  0  0  0  0
   27.7475  -19.6041   -6.4105 C   0  0  0  0  0  0  0  0  0  0  0  0
   27.1281  -20.5003   -5.5362 C   0  0  0  0  0  0  0  0  0  0  0  0
   27.6002  -20.7442   -4.2658 C   0  0  0  0  0  0  0  0  0  0  0  0
   28.7286  -20.0837   -3.8271 C   0  0  0  0  0  0  0  0  0  0  0  0
   29.3757  -19.1844   -4.6630 C   0  0  0  0  0  0  0  0  0  0  0  0
   28.8749  -18.9673   -5.9237 C   0  0  0  0  0  0  0  0  0  0  0  0
   26.6831  -20.3560   -9.9927 C   0  0  0  0  0  0  0  0  0  0  0  0
   27.3183  -19.5850  -10.7515 O   0  0  0  0  0  0  0  0  0  0  0  0
   26.3780  -21.4043  -12.7622 C   0  0  0  0  0  0  0  0  0  0  0  0
   25.2163  -20.8643  -11.9339 C   0  0  2  0  0  0  0  0  0  0  0  0
   25.5183  -20.9754  -10.5210 N   0  0  0  0  0  0  0  0  0  0  0  0
   23.9591  -21.6103  -12.2479 C   0  0  0  0  0  0  0  0  0  0  0  0
   23.6053  -22.5827  -11.5299 O   0  0  0  0  0  0  0  0  0  0  0  0
   16.6032  -17.7102  -11.1173 O   0  0  0  0  0  0  0  0  0  0  0  0
   17.8747  -18.2085  -11.3688 C   0  0  0  0  0  0  0  0  0  0  0  0
   18.3186  -19.3191  -10.6849 C   0  0  0  0  0  0  0  0  0  0  0  0
   19.5747  -19.7905  -10.9506 C   0  0  0  0  0  0  0  0  0  0  0  0
   20.4000  -19.1827  -11.8814 C   0  0  0  0  0  0  0  0  0  0  0  0
   21.7444  -19.6924  -12.1598 C   0  0  0  0  0  0  0  0  0  0  0  0
   21.7493  -20.8652  -13.1234 C   0  0  2  0  0  0  0  0  0  0  0  0
   23.1291  -21.2729  -13.3329 N   0  0  0  0  0  0  0  0  0  0  0  0
   21.0394  -20.6199  -14.3726 C   0  0  0  0  0  0  0  0  0  0  0  0
   19.7732  -21.1444  -14.5976 O   0  0  0  0  0  0  0  0  0  0  0  0
   19.9261  -18.0697  -12.5517 C   0  0  0  0  0  0  0  0  0  0  0  0
   18.6631  -17.5808  -12.2968 C   0  0  0  0  0  0  0  0  0  0  0  0
   21.5304  -19.9295  -15.2988 O   0  0  0  0  0  0  0  0  0  0  0  0
  2  1  1  6
  2  3  1  0
  4  3  1  0
  4  9  1  0
  5  4  2  0
  6  5  1  0
  6  7  2  0
  7  8  1  0
  8  9  2  0
 10  2  1  0
 11 10  2  0
 13 12  1  6
 13 14  1  0
 14 10  1  0
 15 13  1  0
 15 16  2  0
 18 17  1  0
 19 18  2  0
 20 19  1  0
 21 20  2  0
 21 27  1  0
 23 22  1  1
 22 21  1  0
 23 24  1  0
 24 15  1  0
 25 23  1  0
 26 25  1  0
 27 28  2  0
 28 18  1  0
 29 25  2  0
M  END
$$$$
