FAY.pdb
     RDKit          3D

 29 30  0  0  1  0  0  0  0  0999 V2000
   24.6246  -20.6820   -8.8174 N   0  0  0  0  0  0  0  0  0  0  0  0
   25.6075  -20.2277   -9.8101 C   0  0  1  0  0  0  0  0  0  0  0  0
   26.9668  -20.7455   -9.4860 C   0  0  0  0  0  0  0  0  0  0  0  0
   27.5689  -20.1427   -8.2965 C   0  0  0  0  0  0  0  0  0  0  0  0
   28.4615  -20.8550   -7.4922 C   0  0  0  0  0  0  0  0  0  0  0  0
   29.0436  -20.3123   -6.3683 C   0  0  0  0  0  0  0  0  0  0  0  0
   28.7414  -19.0148   -6.0118 C   0  0  0  0  0  0  0  0  0  0  0  0
   27.8592  -18.2706   -6.7826 C   0  0  0  0  0  0  0  0  0  0  0  0
   27.2985  -18.8463   -7.8969 C   0  0  0  0  0  0  0  0  0  0  0  0
   25.1397  -20.5183  -11.1848 C   0  0  0  0  0  0  0  0  0  0  0  0
   24.4220  -21.5243  -11.4007 O   0  0  0  0  0  0  0  0  0  0  0  0
   25.4588  -19.0221  -14.6423 C   0  0  0  0  0  0  0  0  0  0  0  0
   25.0091  -20.0666  -13.6255 C   0  0  2  0  0  0  0  0  0  0  0  0
   25.4669  -19.7008  -12.3002 N   0  0  0  0  0  0  0  0  0  0  0  0
   25.5368  -21.4162  -13.9940 C   0  0  0  0  0  0  0  0  0  0  0  0
   26.6852  -21.7701  -13.6169 O   0  0  0  0  0  0  0  0  0  0  0  0
   19.2219  -25.2622  -14.3664 O   0  0  0  0  0  0  0  0  0  0  0  0
   20.5985  -25.1013  -14.2813 C   0  0  0  0  0  0  0  0  0  0  0  0
   21.1307  -24.2949  -13.2990 C   0  0  0  0  0  0  0  0  0  0  0  0
   22.4895  -24.1527  -13.2361 C   0  0  0  0  0  0  0  0  0  0  0  0
   23.3319  -24.7943  -14.1280 C   0  0  0  0  0  0  0  0  0  0  0  0
   24.7860  -24.6362  -14.0554 C   0  0  0  0  0  0  0  0  0  0  0  0
   25.3300  -23.6512  -15.0741 C   0  0  2  0  0  0  0  0  0  0  0  0
   24.7970  -22.3353  -14.7606 N   0  0  0  0  0  0  0  0  0  0  0  0
   25.1023  -24.0343  -16.4619 C   0  0  0  0  0  0  0  0  0  0  0  0
   24.3799  -23.2209  -17.3254 O   0  0  0  0  0  0  0  0  0  0  0  0
   22.7680  -25.5970  -15.1028 C   0  0  0  0  0  0  0  0  0  0  0  0
   21.4008  -25.7520  -15.1812 C   0  0  0  0  0  0  0  0  0  0  0  0
   25.5426  -25.1070  -16.9427 O   0  0  0  0  0  0  0  0  0  0  0  0
  2  1  1  1
  2  3  1  0
  4  3  1  0
  4  9  1  0
  5  4  2  0
  6  5  1  0
  6  7  2  0
  7  8  1  0
  8  9  2  0
 10  2  1  0
 11 10  2  0
 13 12  1  6
 13 14  1  0
 14 10  1  0
 15 13  1  0
 15 16  2  0
 18 17  1  0
 19 18  2  0
 20 19  1  0
 21 20  2  0
 21 27  1  0
 23 22  1  1
 22 21  1  0
 23 24  1  0
 24 15  1  0
 25 23  1  0
 26 25  1  0
 27 28  2  0
 28 18  1  0
 29 25  2  0
M  END
$$$$
