FAY.pdb
     RDKit          3D

 29 30  0  0  1  0  0  0  0  0999 V2000
   27.7029  -20.2044  -12.4639 N   0  0  0  0  0  0  0  0  0  0  0  0
   26.8362  -21.3059  -12.0246 C   0  0  1  0  0  0  0  0  0  0  0  0
   26.1983  -20.9892  -10.7155 C   0  0  0  0  0  0  0  0  0  0  0  0
   27.1489  -20.7327   -9.6332 C   0  0  0  0  0  0  0  0  0  0  0  0
   26.7999  -19.9539   -8.5274 C   0  0  0  0  0  0  0  0  0  0  0  0
   27.6738  -19.6975   -7.4945 C   0  0  0  0  0  0  0  0  0  0  0  0
   28.9473  -20.2248   -7.5416 C   0  0  0  0  0  0  0  0  0  0  0  0
   29.3363  -21.0044   -8.6219 C   0  0  0  0  0  0  0  0  0  0  0  0
   28.4365  -21.2383   -9.6334 C   0  0  0  0  0  0  0  0  0  0  0  0
   25.8953  -21.6960  -13.0997 C   0  0  0  0  0  0  0  0  0  0  0  0
   25.4376  -20.8233  -13.8760 O   0  0  0  0  0  0  0  0  0  0  0  0
   24.4575  -24.8842  -14.5322 C   0  0  0  0  0  0  0  0  0  0  0  0
   24.6882  -23.3773  -14.4759 C   0  0  2  0  0  0  0  0  0  0  0  0
   25.4720  -23.0368  -13.3057 N   0  0  0  0  0  0  0  0  0  0  0  0
   23.3824  -22.6493  -14.4459 C   0  0  0  0  0  0  0  0  0  0  0  0
   23.0302  -21.9430  -15.4274 O   0  0  0  0  0  0  0  0  0  0  0  0
   18.7584  -15.9431  -13.1122 O   0  0  0  0  0  0  0  0  0  0  0  0
   19.6158  -17.0349  -13.0799 C   0  0  0  0  0  0  0  0  0  0  0  0
   19.7922  -17.7279  -11.9022 C   0  0  0  0  0  0  0  0  0  0  0  0
   20.6419  -18.7995  -11.8963 C   0  0  0  0  0  0  0  0  0  0  0  0
   21.3207  -19.1983  -13.0352 C   0  0  0  0  0  0  0  0  0  0  0  0
   22.2301  -20.3461  -13.0211 C   0  0  0  0  0  0  0  0  0  0  0  0
   21.5096  -21.6784  -13.1213 C   0  0  2  0  0  0  0  0  0  0  0  0
   22.5039  -22.7145  -13.3487 N   0  0  0  0  0  0  0  0  0  0  0  0
   20.4326  -21.7071  -14.1030 C   0  0  0  0  0  0  0  0  0  0  0  0
   20.6574  -22.1258  -15.4081 O   0  0  0  0  0  0  0  0  0  0  0  0
   21.1229  -18.4827  -14.2020 C   0  0  0  0  0  0  0  0  0  0  0  0
   20.2704  -17.4002  -14.2266 C   0  0  0  0  0  0  0  0  0  0  0  0
   19.2597  -21.3590  -13.8225 O   0  0  0  0  0  0  0  0  0  0  0  0
  2  1  1  6
  2  3  1  0
  4  3  1  0
  4  9  1  0
  5  4  2  0
  6  5  1  0
  6  7  2  0
  7  8  1  0
  8  9  2  0
 10  2  1  0
 11 10  2  0
 13 12  1  1
 13 14  1  0
 14 10  1  0
 15 13  1  0
 15 16  2  0
 18 17  1  0
 19 18  2  0
 20 19  1  0
 21 20  2  0
 21 27  1  0
 23 22  1  6
 22 21  1  0
 23 24  1  0
 24 15  1  0
 25 23  1  0
 26 25  1  0
 27 28  2  0
 28 18  1  0
 29 25  2  0
M  END
$$$$
