FAY.pdb
     RDKit          3D

 29 30  0  0  1  0  0  0  0  0999 V2000
   29.0402  -21.4637  -10.3764 N   0  0  0  0  0  0  0  0  0  0  0  0
   27.5928  -21.2473  -10.2502 C   0  0  1  0  0  0  0  0  0  0  0  0
   27.3075  -20.0133   -9.4649 C   0  0  0  0  0  0  0  0  0  0  0  0
   27.6918  -20.0986   -8.0557 C   0  0  0  0  0  0  0  0  0  0  0  0
   29.0328  -20.0833   -7.6649 C   0  0  0  0  0  0  0  0  0  0  0  0
   29.4227  -20.1611   -6.3464 C   0  0  0  0  0  0  0  0  0  0  0  0
   28.4606  -20.2584   -5.3631 C   0  0  0  0  0  0  0  0  0  0  0  0
   27.1161  -20.2771   -5.7067 C   0  0  0  0  0  0  0  0  0  0  0  0
   26.7659  -20.1975   -7.0328 C   0  0  0  0  0  0  0  0  0  0  0  0
   26.9339  -21.3108  -11.5751 C   0  0  0  0  0  0  0  0  0  0  0  0
   27.3000  -20.5372  -12.4923 O   0  0  0  0  0  0  0  0  0  0  0  0
   25.0954  -23.5324  -13.7708 C   0  0  0  0  0  0  0  0  0  0  0  0
   25.1971  -22.1448  -13.1453 C   0  0  2  0  0  0  0  0  0  0  0  0
   25.8843  -22.2217  -11.8719 N   0  0  0  0  0  0  0  0  0  0  0  0
   23.8359  -21.5554  -12.9565 C   0  0  0  0  0  0  0  0  0  0  0  0
   23.3980  -21.3355  -11.7962 O   0  0  0  0  0  0  0  0  0  0  0  0
   17.1297  -16.3821  -12.5776 O   0  0  0  0  0  0  0  0  0  0  0  0
   18.3040  -17.1132  -12.6983 C   0  0  0  0  0  0  0  0  0  0  0  0
   19.1498  -16.8732  -13.7591 C   0  0  0  0  0  0  0  0  0  0  0  0
   20.3003  -17.6065  -13.8557 C   0  0  0  0  0  0  0  0  0  0  0  0
   20.6293  -18.5735  -12.9212 C   0  0  0  0  0  0  0  0  0  0  0  0
   21.8624  -19.3558  -13.0318 C   0  0  0  0  0  0  0  0  0  0  0  0
   21.6831  -20.6433  -13.8156 C   0  0  2  0  0  0  0  0  0  0  0  0
   22.9970  -21.2251  -14.0368 N   0  0  0  0  0  0  0  0  0  0  0  0
   20.9187  -20.4954  -15.0479 C   0  0  0  0  0  0  0  0  0  0  0  0
   19.5450  -20.6990  -15.0733 O   0  0  0  0  0  0  0  0  0  0  0  0
   19.7602  -18.7914  -11.8677 C   0  0  0  0  0  0  0  0  0  0  0  0
   18.5965  -18.0620  -11.7543 C   0  0  0  0  0  0  0  0  0  0  0  0
   21.4566  -20.1797  -16.1372 O   0  0  0  0  0  0  0  0  0  0  0  0
  2  1  1  6
  2  3  1  0
  4  3  1  0
  4  9  1  0
  5  4  2  0
  6  5  1  0
  6  7  2  0
  7  8  1  0
  8  9  2  0
 10  2  1  0
 11 10  2  0
 13 12  1  1
 13 14  1  0
 14 10  1  0
 15 13  1  0
 15 16  2  0
 18 17  1  0
 19 18  2  0
 20 19  1  0
 21 20  2  0
 21 27  1  0
 23 22  1  6
 22 21  1  0
 23 24  1  0
 24 15  1  0
 25 23  1  0
 26 25  1  0
 27 28  2  0
 28 18  1  0
 29 25  2  0
M  END
$$$$
