FAY.pdb
     RDKit          3D

 29 30  0  0  1  0  0  0  0  0999 V2000
   28.1150  -21.0769  -16.5882 N   0  0  0  0  0  0  0  0  0  0  0  0
   28.3140  -20.1086  -15.5017 C   0  0  1  0  0  0  0  0  0  0  0  0
   27.4451  -18.9127  -15.6913 C   0  0  0  0  0  0  0  0  0  0  0  0
   27.7496  -18.1365  -16.8936 C   0  0  0  0  0  0  0  0  0  0  0  0
   26.8793  -18.1152  -17.9859 C   0  0  0  0  0  0  0  0  0  0  0  0
   27.1401  -17.3929  -19.1290 C   0  0  0  0  0  0  0  0  0  0  0  0
   28.3036  -16.6570  -19.2111 C   0  0  0  0  0  0  0  0  0  0  0  0
   29.1968  -16.6496  -18.1490 C   0  0  0  0  0  0  0  0  0  0  0  0
   28.9020  -17.3827  -17.0251 C   0  0  0  0  0  0  0  0  0  0  0  0
   28.1906  -20.7671  -14.1809 C   0  0  0  0  0  0  0  0  0  0  0  0
   27.2194  -21.5268  -13.9502 O   0  0  0  0  0  0  0  0  0  0  0  0
   29.9897  -20.7249  -10.8559 C   0  0  0  0  0  0  0  0  0  0  0  0
   28.8079  -20.9895  -11.7835 C   0  0  2  0  0  0  0  0  0  0  0  0
   29.1346  -20.5815  -13.1350 N   0  0  0  0  0  0  0  0  0  0  0  0
   27.5951  -20.2559  -11.3074 C   0  0  0  0  0  0  0  0  0  0  0  0
   27.2826  -19.1500  -11.8230 O   0  0  0  0  0  0  0  0  0  0  0  0
   19.2232  -19.4256  -11.5200 O   0  0  0  0  0  0  0  0  0  0  0  0
   20.5802  -19.7203  -11.5253 C   0  0  0  0  0  0  0  0  0  0  0  0
   21.4335  -18.9864  -12.3200 C   0  0  0  0  0  0  0  0  0  0  0  0
   22.7656  -19.2960  -12.3076 C   0  0  0  0  0  0  0  0  0  0  0  0
   23.2691  -20.3194  -11.5226 C   0  0  0  0  0  0  0  0  0  0  0  0
   24.6966  -20.6462  -11.5154 C   0  0  0  0  0  0  0  0  0  0  0  0
   25.3707  -20.3428  -10.1897 C   0  0  2  0  0  0  0  0  0  0  0  0
   26.7630  -20.7505  -10.2862 N   0  0  0  0  0  0  0  0  0  0  0  0
   24.6973  -20.9116   -9.0288 C   0  0  0  0  0  0  0  0  0  0  0  0
   24.6116  -22.2857   -8.8462 O   0  0  0  0  0  0  0  0  0  0  0  0
   22.3877  -21.0380  -10.7357 C   0  0  0  0  0  0  0  0  0  0  0  0
   21.0421  -20.7399  -10.7356 C   0  0  0  0  0  0  0  0  0  0  0  0
   24.1663  -20.1966   -8.1442 O   0  0  0  0  0  0  0  0  0  0  0  0
  2  1  1  6
  2  3  1  0
  4  3  1  0
  4  9  1  0
  5  4  2  0
  6  5  1  0
  6  7  2  0
  7  8  1  0
  8  9  2  0
 10  2  1  0
 11 10  2  0
 13 12  1  1
 13 14  1  0
 14 10  1  0
 15 13  1  0
 15 16  2  0
 18 17  1  0
 19 18  2  0
 20 19  1  0
 21 20  2  0
 21 27  1  0
 23 22  1  6
 22 21  1  0
 23 24  1  0
 24 15  1  0
 25 23  1  0
 26 25  1  0
 27 28  2  0
 28 18  1  0
 29 25  2  0
M  END
$$$$
