FAY.pdb
     RDKit          3D

 29 30  0  0  1  0  0  0  0  0999 V2000
   28.1575  -21.1883  -15.7017 N   0  0  0  0  0  0  0  0  0  0  0  0
   27.3785  -20.2781  -14.8518 C   0  0  1  0  0  0  0  0  0  0  0  0
   26.5879  -19.3247  -15.6807 C   0  0  0  0  0  0  0  0  0  0  0  0
   27.4015  -18.3722  -16.4368 C   0  0  0  0  0  0  0  0  0  0  0  0
   27.7837  -18.6278  -17.7557 C   0  0  0  0  0  0  0  0  0  0  0  0
   28.5478  -17.7489  -18.4908 C   0  0  0  0  0  0  0  0  0  0  0  0
   28.9583  -16.5658  -17.9132 C   0  0  0  0  0  0  0  0  0  0  0  0
   28.6012  -16.2714  -16.6048 C   0  0  0  0  0  0  0  0  0  0  0  0
   27.8380  -17.1730  -15.9032 C   0  0  0  0  0  0  0  0  0  0  0  0
   26.5927  -21.0360  -13.8511 C   0  0  0  0  0  0  0  0  0  0  0  0
   25.9158  -22.0291  -14.2105 O   0  0  0  0  0  0  0  0  0  0  0  0
   25.6853  -20.6907  -10.1972 C   0  0  0  0  0  0  0  0  0  0  0  0
   25.4636  -21.1370  -11.6391 C   0  0  2  0  0  0  0  0  0  0  0  0
   26.5623  -20.6920  -12.4726 N   0  0  0  0  0  0  0  0  0  0  0  0
   24.1727  -20.5932  -12.1621 C   0  0  0  0  0  0  0  0  0  0  0  0
   24.1099  -19.4066  -12.5797 O   0  0  0  0  0  0  0  0  0  0  0  0
   17.6860  -18.6808  -17.1872 O   0  0  0  0  0  0  0  0  0  0  0  0
   18.7904  -19.1029  -16.4590 C   0  0  0  0  0  0  0  0  0  0  0  0
   19.2907  -20.3717  -16.6543 C   0  0  0  0  0  0  0  0  0  0  0  0
   20.3792  -20.7638  -15.9251 C   0  0  0  0  0  0  0  0  0  0  0  0
   20.9822  -19.9227  -15.0054 C   0  0  0  0  0  0  0  0  0  0  0  0
   22.1469  -20.3498  -14.2270 C   0  0  0  0  0  0  0  0  0  0  0  0
   21.7871  -20.8384  -12.8356 C   0  0  2  0  0  0  0  0  0  0  0  0
   22.9934  -21.3590  -12.2129 N   0  0  0  0  0  0  0  0  0  0  0  0
   20.6808  -21.7866  -12.7988 C   0  0  0  0  0  0  0  0  0  0  0  0
   19.3818  -21.3696  -12.5384 O   0  0  0  0  0  0  0  0  0  0  0  0
   20.4572  -18.6551  -14.8316 C   0  0  0  0  0  0  0  0  0  0  0  0
   19.3608  -18.2430  -15.5578 C   0  0  0  0  0  0  0  0  0  0  0  0
   20.8433  -23.0152  -12.9984 O   0  0  0  0  0  0  0  0  0  0  0  0
  2  1  1  6
  2  3  1  0
  4  3  1  0
  4  9  1  0
  5  4  2  0
  6  5  1  0
  6  7  2  0
  7  8  1  0
  8  9  2  0
 10  2  1  0
 11 10  2  0
 13 12  1  1
 13 14  1  0
 14 10  1  0
 15 13  1  0
 15 16  2  0
 18 17  1  0
 19 18  2  0
 20 19  1  0
 21 20  2  0
 21 27  1  0
 23 22  1  6
 22 21  1  0
 23 24  1  0
 24 15  1  0
 25 23  1  0
 26 25  1  0
 27 28  2  0
 28 18  1  0
 29 25  2  0
M  END
$$$$
