FAY.pdb
     RDKit          3D

 29 30  0  0  1  0  0  0  0  0999 V2000
   19.9135   -4.7495  -17.2128 N   0  0  0  0  0  0  0  0  0  0  0  0
   20.9259   -5.7303  -17.6258 C   0  0  1  0  0  0  0  0  0  0  0  0
   21.5279   -6.4027  -16.4399 C   0  0  0  0  0  0  0  0  0  0  0  0
   22.3654   -5.5290  -15.6178 C   0  0  0  0  0  0  0  0  0  0  0  0
   23.6834   -5.2365  -15.9762 C   0  0  0  0  0  0  0  0  0  0  0  0
   24.4934   -4.4169  -15.2221 C   0  0  0  0  0  0  0  0  0  0  0  0
   23.9954   -3.8564  -14.0646 C   0  0  0  0  0  0  0  0  0  0  0  0
   22.6910   -4.1203  -13.6708 C   0  0  0  0  0  0  0  0  0  0  0  0
   21.9133   -4.9429  -14.4492 C   0  0  0  0  0  0  0  0  0  0  0  0
   20.3819   -6.6467  -18.6542 C   0  0  0  0  0  0  0  0  0  0  0  0
   19.2380   -7.1406  -18.5082 O   0  0  0  0  0  0  0  0  0  0  0  0
   21.3038   -7.8717  -22.0964 C   0  0  0  0  0  0  0  0  0  0  0  0
   20.5027   -7.8980  -20.7984 C   0  0  2  0  0  0  0  0  0  0  0  0
   21.1015   -7.0064  -19.8256 N   0  0  0  0  0  0  0  0  0  0  0  0
   20.4426   -9.2874  -20.2491 C   0  0  0  0  0  0  0  0  0  0  0  0
   21.3793   -9.7230  -19.5286 O   0  0  0  0  0  0  0  0  0  0  0  0
   13.0930  -11.2208  -21.0081 O   0  0  0  0  0  0  0  0  0  0  0  0
   14.3789  -11.3311  -20.4956 C   0  0  0  0  0  0  0  0  0  0  0  0
   14.9762  -12.5701  -20.4152 C   0  0  0  0  0  0  0  0  0  0  0  0
   16.2432  -12.6524  -19.9068 C   0  0  0  0  0  0  0  0  0  0  0  0
   16.9304  -11.5302  -19.4763 C   0  0  0  0  0  0  0  0  0  0  0  0
   18.2865  -11.6261  -18.9317 C   0  0  0  0  0  0  0  0  0  0  0  0
   19.3646  -11.5185  -19.9949 C   0  0  2  0  0  0  0  0  0  0  0  0
   19.3651  -10.1561  -20.5025 N   0  0  0  0  0  0  0  0  0  0  0  0
   19.2648  -12.5137  -21.0551 C   0  0  0  0  0  0  0  0  0  0  0  0
   19.4150  -13.8686  -20.7889 O   0  0  0  0  0  0  0  0  0  0  0  0
   16.3044  -10.3006  -19.5697 C   0  0  0  0  0  0  0  0  0  0  0  0
   15.0280  -10.1988  -20.0794 C   0  0  0  0  0  0  0  0  0  0  0  0
   19.0403  -12.2010  -22.2498 O   0  0  0  0  0  0  0  0  0  0  0  0
  2  1  1  1
  2  3  1  0
  4  3  1  0
  4  9  1  0
  5  4  2  0
  6  5  1  0
  6  7  2  0
  7  8  1  0
  8  9  2  0
 10  2  1  0
 11 10  2  0
 13 12  1  6
 13 14  1  0
 14 10  1  0
 15 13  1  0
 15 16  2  0
 18 17  1  0
 19 18  2  0
 20 19  1  0
 21 20  2  0
 21 27  1  0
 23 22  1  1
 22 21  1  0
 23 24  1  0
 24 15  1  0
 25 23  1  0
 26 25  1  0
 27 28  2  0
 28 18  1  0
 29 25  2  0
M  END
$$$$
