FAY.pdb
     RDKit          3D

 29 30  0  0  1  0  0  0  0  0999 V2000
   26.4584  -17.6459  -17.2363 N   0  0  0  0  0  0  0  0  0  0  0  0
   25.8029  -17.5233  -15.9275 C   0  0  1  0  0  0  0  0  0  0  0  0
   25.0680  -16.2312  -15.8214 C   0  0  0  0  0  0  0  0  0  0  0  0
   25.9216  -15.0472  -15.9229 C   0  0  0  0  0  0  0  0  0  0  0  0
   26.7062  -14.6216  -14.8486 C   0  0  0  0  0  0  0  0  0  0  0  0
   27.5193  -13.5121  -14.9168 C   0  0  0  0  0  0  0  0  0  0  0  0
   27.5698  -12.7837  -16.0867 C   0  0  0  0  0  0  0  0  0  0  0  0
   26.8065  -13.1710  -17.1792 C   0  0  0  0  0  0  0  0  0  0  0  0
   26.0074  -14.2836  -17.0731 C   0  0  0  0  0  0  0  0  0  0  0  0
   24.9947  -18.7279  -15.6291 C   0  0  0  0  0  0  0  0  0  0  0  0
   24.7148  -19.5355  -16.5474 O   0  0  0  0  0  0  0  0  0  0  0  0
   24.4297  -20.9778  -12.8675 C   0  0  0  0  0  0  0  0  0  0  0  0
   23.8234  -20.2806  -14.0815 C   0  0  2  0  0  0  0  0  0  0  0  0
   24.5066  -19.0268  -14.3283 N   0  0  0  0  0  0  0  0  0  0  0  0
   22.3642  -20.0341  -13.8681 C   0  0  0  0  0  0  0  0  0  0  0  0
   21.9813  -19.2678  -12.9447 O   0  0  0  0  0  0  0  0  0  0  0  0
   21.4774  -14.4529  -16.1642 O   0  0  0  0  0  0  0  0  0  0  0  0
   20.9704  -15.7390  -16.0337 C   0  0  0  0  0  0  0  0  0  0  0  0
   21.6538  -16.8000  -16.5863 C   0  0  0  0  0  0  0  0  0  0  0  0
   21.1338  -18.0569  -16.4439 C   0  0  0  0  0  0  0  0  0  0  0  0
   19.9490  -18.2833  -15.7642 C   0  0  0  0  0  0  0  0  0  0  0  0
   19.3974  -19.6319  -15.6169 C   0  0  0  0  0  0  0  0  0  0  0  0
   19.9598  -20.3783  -14.4208 C   0  0  2  0  0  0  0  0  0  0  0  0
   21.3706  -20.6297  -14.6667 N   0  0  0  0  0  0  0  0  0  0  0  0
   19.2263  -21.5872  -14.0673 C   0  0  0  0  0  0  0  0  0  0  0  0
   17.8988  -21.5329  -13.6624 O   0  0  0  0  0  0  0  0  0  0  0  0
   19.2860  -17.1981  -15.2206 C   0  0  0  0  0  0  0  0  0  0  0  0
   19.7953  -15.9245  -15.3542 C   0  0  0  0  0  0  0  0  0  0  0  0
   19.7506  -22.7268  -14.1104 O   0  0  0  0  0  0  0  0  0  0  0  0
  2  1  1  6
  2  3  1  0
  4  3  1  0
  4  9  1  0
  5  4  2  0
  6  5  1  0
  6  7  2  0
  7  8  1  0
  8  9  2  0
 10  2  1  0
 11 10  2  0
 13 12  1  1
 13 14  1  0
 14 10  1  0
 15 13  1  0
 15 16  2  0
 18 17  1  0
 19 18  2  0
 20 19  1  0
 21 20  2  0
 21 27  1  0
 23 22  1  6
 22 21  1  0
 23 24  1  0
 24 15  1  0
 25 23  1  0
 26 25  1  0
 27 28  2  0
 28 18  1  0
 29 25  2  0
M  END
$$$$
