YMM.pdb
     RDKit          3D

 29 29  0  0  1  0  0  0  0  0999 V2000
    9.7229  -12.6622   20.1773 O   0  0  0  0  0  0  0  0  0  0  0  0
    8.7058  -13.6188   20.3033 C   0  0  0  0  0  0  0  0  0  0  0  0
    8.5784  -14.6653   19.4183 C   0  0  0  0  0  0  0  0  0  0  0  0
    7.5729  -15.5979   19.5557 C   0  0  0  0  0  0  0  0  0  0  0  0
    6.6456  -15.5303   20.5846 C   0  0  0  0  0  0  0  0  0  0  0  0
    5.5553  -16.5228   20.7523 C   0  0  0  0  0  0  0  0  0  0  0  0
    6.1108  -17.6848   21.5388 C   0  0  2  0  0  0  0  0  0  0  0  0
    5.3070  -18.8485   21.2278 N   0  0  0  0  0  0  0  0  0  0  0  0
    6.1438  -17.4052   22.9956 C   0  0  0  0  0  0  0  0  0  0  0  0
    5.1096  -17.2136   23.6649 O   0  0  0  0  0  0  0  0  0  0  0  0
    6.7715  -14.4834   21.4712 C   0  0  0  0  0  0  0  0  0  0  0  0
    7.7915  -13.5361   21.3329 C   0  0  0  0  0  0  0  0  0  0  0  0
    8.3762  -20.2629   28.0902 C   0  0  0  0  0  0  0  0  0  0  0  0
    6.6758  -19.8542   27.6363 S   0  0  0  0  0  0  0  0  0  0  0  0
    6.6464  -19.5988   25.8149 C   0  0  0  0  0  0  0  0  0  0  0  0
    7.8301  -18.7403   25.4806 C   0  0  0  0  0  0  0  0  0  0  0  0
    7.4580  -17.3067   25.1115 C   0  0  2  0  0  0  0  0  0  0  0  0
    7.4169  -17.3606   23.6236 N   0  0  0  0  0  0  0  0  0  0  0  0
    8.5236  -16.3325   25.4517 C   0  0  0  0  0  0  0  0  0  0  0  0
    9.5713  -16.2607   24.7121 O   0  0  0  0  0  0  0  0  0  0  0  0
    5.1093  -11.9846   27.2018 C   0  0  0  0  0  0  0  0  0  0  0  0
    6.5529  -12.7337   28.0174 S   0  0  0  0  0  0  0  0  0  0  0  0
    7.9040  -12.8069   26.7758 C   0  0  0  0  0  0  0  0  0  0  0  0
    9.0954  -13.3597   27.4860 C   0  0  0  0  0  0  0  0  0  0  0  0
    9.6408  -14.5736   26.8049 C   0  0  2  0  0  0  0  0  0  0  0  0
    8.4965  -15.4509   26.5350 N   0  0  0  0  0  0  0  0  0  0  0  0
   10.6244  -15.3396   27.5655 C   0  0  0  0  0  0  0  0  0  0  0  0
   10.3386  -16.4565   28.0432 O   0  0  0  0  0  0  0  0  0  0  0  0
   11.8971  -14.8445   27.7726 O   0  0  0  0  0  0  0  0  0  0  0  0
  2 12  2  0
  2  1  1  0
  3  2  1  0
  4  5  1  0
  4  3  2  0
  5 11  2  0
  6  5  1  0
  6  7  1  0
  7  9  1  0
  7  8  1  1
  9 18  1  0
 10  9  2  0
 11 12  1  0
 13 14  1  0
 14 15  1  0
 16 15  1  0
 17 16  1  1
 18 17  1  0
 19 17  1  0
 19 20  2  0
 22 21  1  0
 22 23  1  0
 23 24  1  0
 25 24  1  1
 25 27  1  0
 26 25  1  0
 26 19  1  0
 27 28  2  0
 27 29  1  0
M  END
$$$$
