YMM.pdb
     RDKit          3D

 29 29  0  0  1  0  0  0  0  0999 V2000
    6.9373  -12.4722   16.5653 O   0  0  0  0  0  0  0  0  0  0  0  0
    7.7266  -13.3826   17.2822 C   0  0  0  0  0  0  0  0  0  0  0  0
    8.4412  -13.0053   18.3964 C   0  0  0  0  0  0  0  0  0  0  0  0
    9.2125  -13.9123   19.0906 C   0  0  0  0  0  0  0  0  0  0  0  0
    9.3073  -15.2411   18.7052 C   0  0  0  0  0  0  0  0  0  0  0  0
   10.1310  -16.2349   19.4371 C   0  0  0  0  0  0  0  0  0  0  0  0
    9.2352  -16.9255   20.4361 C   0  0  2  0  0  0  0  0  0  0  0  0
    8.0311  -17.3281   19.7397 N   0  0  0  0  0  0  0  0  0  0  0  0
    8.9386  -16.0629   21.6063 C   0  0  0  0  0  0  0  0  0  0  0  0
    8.5166  -14.8957   21.4888 O   0  0  0  0  0  0  0  0  0  0  0  0
    8.5928  -15.6204   17.5901 C   0  0  0  0  0  0  0  0  0  0  0  0
    7.8095  -14.7009   16.8845 C   0  0  0  0  0  0  0  0  0  0  0  0
    6.3210  -12.4530   26.4524 C   0  0  0  0  0  0  0  0  0  0  0  0
    7.0956  -13.2879   25.0498 S   0  0  0  0  0  0  0  0  0  0  0  0
    6.5874  -15.0542   25.1211 C   0  0  0  0  0  0  0  0  0  0  0  0
    7.2512  -15.7411   23.9646 C   0  0  0  0  0  0  0  0  0  0  0  0
    8.7725  -15.7940   24.0790 C   0  0  2  0  0  0  0  0  0  0  0  0
    9.1530  -16.6161   22.8968 N   0  0  0  0  0  0  0  0  0  0  0  0
    9.2317  -16.5556   25.2662 C   0  0  0  0  0  0  0  0  0  0  0  0
    9.0200  -17.8212   25.3234 O   0  0  0  0  0  0  0  0  0  0  0  0
    9.5956  -13.1313   28.4656 C   0  0  0  0  0  0  0  0  0  0  0  0
   10.8089  -13.8687   29.6034 S   0  0  0  0  0  0  0  0  0  0  0  0
   10.8821  -15.6660   29.2332 C   0  0  0  0  0  0  0  0  0  0  0  0
   11.6475  -15.7997   27.9583 C   0  0  0  0  0  0  0  0  0  0  0  0
   10.9926  -16.7500   27.0081 C   0  0  2  0  0  0  0  0  0  0  0  0
    9.8993  -16.0120   26.3662 N   0  0  0  0  0  0  0  0  0  0  0  0
   10.4291  -17.9575   27.6060 C   0  0  0  0  0  0  0  0  0  0  0  0
   11.1676  -18.8787   28.0100 O   0  0  0  0  0  0  0  0  0  0  0  0
    9.0624  -18.1068   27.7392 O   0  0  0  0  0  0  0  0  0  0  0  0
  2 12  2  0
  2  1  1  0
  3  2  1  0
  4  5  1  0
  4  3  2  0
  5 11  2  0
  6  5  1  0
  6  7  1  0
  7  9  1  0
  7  8  1  6
  9 18  1  0
 10  9  2  0
 11 12  1  0
 13 14  1  0
 14 15  1  0
 16 15  1  0
 17 16  1  1
 18 17  1  0
 19 17  1  0
 19 20  2  0
 22 21  1  0
 22 23  1  0
 23 24  1  0
 25 24  1  1
 25 27  1  0
 26 25  1  0
 26 19  1  0
 27 28  2  0
 27 29  1  0
M  END
$$$$
