YMM.pdb
     RDKit          3D

 29 29  0  0  1  0  0  0  0  0999 V2000
    3.9529  -24.1857   24.5425 O   0  0  0  0  0  0  0  0  0  0  0  0
    4.8566  -23.1441   24.2893 C   0  0  0  0  0  0  0  0  0  0  0  0
    5.8047  -23.2299   23.2952 C   0  0  0  0  0  0  0  0  0  0  0  0
    6.6861  -22.1971   23.0584 C   0  0  0  0  0  0  0  0  0  0  0  0
    6.6630  -21.0279   23.8037 C   0  0  0  0  0  0  0  0  0  0  0  0
    7.6016  -19.9033   23.5666 C   0  0  0  0  0  0  0  0  0  0  0  0
    6.8108  -18.7648   22.9700 C   0  0  2  0  0  0  0  0  0  0  0  0
    6.3681  -19.1805   21.6555 N   0  0  0  0  0  0  0  0  0  0  0  0
    7.5973  -17.5077   22.9201 C   0  0  0  0  0  0  0  0  0  0  0  0
    8.7018  -17.4304   22.3471 O   0  0  0  0  0  0  0  0  0  0  0  0
    5.7148  -20.9404   24.7993 C   0  0  0  0  0  0  0  0  0  0  0  0
    4.8196  -21.9879   25.0407 C   0  0  0  0  0  0  0  0  0  0  0  0
    6.3941  -11.4328   25.1506 C   0  0  0  0  0  0  0  0  0  0  0  0
    6.5971  -12.7975   26.3171 S   0  0  0  0  0  0  0  0  0  0  0  0
    6.3513  -14.3581   25.3752 C   0  0  0  0  0  0  0  0  0  0  0  0
    6.7365  -14.0696   23.9545 C   0  0  0  0  0  0  0  0  0  0  0  0
    7.7451  -15.0627   23.3830 C   0  0  2  0  0  0  0  0  0  0  0  0
    7.0446  -16.3654   23.5580 N   0  0  0  0  0  0  0  0  0  0  0  0
    8.9817  -15.1558   24.1969 C   0  0  0  0  0  0  0  0  0  0  0  0
    9.8607  -14.2225   24.1165 O   0  0  0  0  0  0  0  0  0  0  0  0
   10.6528  -12.9207   29.0782 C   0  0  0  0  0  0  0  0  0  0  0  0
   10.9276  -14.6494   29.5746 S   0  0  0  0  0  0  0  0  0  0  0  0
   11.4246  -15.5768   28.0695 C   0  0  0  0  0  0  0  0  0  0  0  0
   10.2525  -15.5345   27.1458 C   0  0  0  0  0  0  0  0  0  0  0  0
   10.5528  -16.1757   25.8292 C   0  0  2  0  0  0  0  0  0  0  0  0
    9.2936  -16.1949   25.0768 N   0  0  0  0  0  0  0  0  0  0  0  0
   11.0600  -17.5439   25.8908 C   0  0  0  0  0  0  0  0  0  0  0  0
   10.3780  -18.5010   25.4713 O   0  0  0  0  0  0  0  0  0  0  0  0
   12.3099  -17.8097   26.4151 O   0  0  0  0  0  0  0  0  0  0  0  0
  2 12  2  0
  2  1  1  0
  3  2  1  0
  4  5  1  0
  4  3  2  0
  5 11  2  0
  6  5  1  0
  6  7  1  0
  7  9  1  0
  7  8  1  6
  9 18  1  0
 10  9  2  0
 11 12  1  0
 13 14  1  0
 14 15  1  0
 16 15  1  0
 17 16  1  1
 18 17  1  0
 19 17  1  0
 19 20  2  0
 22 21  1  0
 22 23  1  0
 23 24  1  0
 25 24  1  1
 25 27  1  0
 26 25  1  0
 26 19  1  0
 27 28  2  0
 27 29  1  0
M  END
$$$$
