YMM.pdb
     RDKit          3D

 29 29  0  0  1  0  0  0  0  0999 V2000
   10.7807  -24.2801   17.3852 O   0  0  0  0  0  0  0  0  0  0  0  0
   10.9054  -23.0871   18.1111 C   0  0  0  0  0  0  0  0  0  0  0  0
    9.8600  -22.5669   18.8399 C   0  0  0  0  0  0  0  0  0  0  0  0
    9.9984  -21.3930   19.5487 C   0  0  0  0  0  0  0  0  0  0  0  0
   11.1886  -20.6814   19.5638 C   0  0  0  0  0  0  0  0  0  0  0  0
   11.3606  -19.4160   20.3194 C   0  0  0  0  0  0  0  0  0  0  0  0
   10.4317  -18.3918   19.7149 C   0  0  2  0  0  0  0  0  0  0  0  0
   10.9084  -18.1029   18.3784 N   0  0  0  0  0  0  0  0  0  0  0  0
   10.3362  -17.1676   20.5477 C   0  0  0  0  0  0  0  0  0  0  0  0
   11.1395  -16.2202   20.4414 O   0  0  0  0  0  0  0  0  0  0  0  0
   12.2360  -21.2006   18.8347 C   0  0  0  0  0  0  0  0  0  0  0  0
   12.0969  -22.3920   18.1149 C   0  0  0  0  0  0  0  0  0  0  0  0
    7.5757  -12.4923   19.4312 C   0  0  0  0  0  0  0  0  0  0  0  0
    8.1883  -13.4619   20.8273 S   0  0  0  0  0  0  0  0  0  0  0  0
    7.0348  -14.8766   21.0538 C   0  0  0  0  0  0  0  0  0  0  0  0
    7.5543  -15.6755   22.2121 C   0  0  0  0  0  0  0  0  0  0  0  0
    9.0740  -15.8181   22.2211 C   0  0  2  0  0  0  0  0  0  0  0  0
    9.2783  -17.1014   21.4932 N   0  0  0  0  0  0  0  0  0  0  0  0
    9.6213  -16.0338   23.5828 C   0  0  0  0  0  0  0  0  0  0  0  0
    9.5308  -17.1964   24.1214 O   0  0  0  0  0  0  0  0  0  0  0  0
    7.3806  -12.3033   27.6007 C   0  0  0  0  0  0  0  0  0  0  0  0
    8.8661  -12.7042   28.5717 S   0  0  0  0  0  0  0  0  0  0  0  0
    9.5181  -14.2997   27.9378 C   0  0  0  0  0  0  0  0  0  0  0  0
    9.5362  -14.1827   26.4495 C   0  0  0  0  0  0  0  0  0  0  0  0
   10.3764  -15.2433   25.8139 C   0  0  2  0  0  0  0  0  0  0  0  0
   10.2516  -15.0620   24.3635 N   0  0  0  0  0  0  0  0  0  0  0  0
   10.0047  -16.6202   26.1280 C   0  0  0  0  0  0  0  0  0  0  0  0
   10.5077  -17.2146   27.1032 O   0  0  0  0  0  0  0  0  0  0  0  0
    9.0845  -17.2970   25.3515 O   0  0  0  0  0  0  0  0  0  0  0  0
  2 12  2  0
  2  1  1  0
  3  2  1  0
  4  5  1  0
  4  3  2  0
  5 11  2  0
  6  5  1  0
  6  7  1  0
  7  9  1  0
  7  8  1  6
  9 18  1  0
 10  9  2  0
 11 12  1  0
 13 14  1  0
 14 15  1  0
 16 15  1  0
 17 16  1  1
 18 17  1  0
 19 17  1  0
 19 20  2  0
 22 21  1  0
 22 23  1  0
 23 24  1  0
 25 24  1  1
 25 27  1  0
 26 25  1  0
 26 19  1  0
 27 28  2  0
 27 29  1  0
M  END
$$$$
