YMM.pdb
     RDKit          3D

 29 29  0  0  1  0  0  0  0  0999 V2000
    7.0671  -22.7086   17.2219 O   0  0  0  0  0  0  0  0  0  0  0  0
    7.7017  -21.8000   18.0806 C   0  0  0  0  0  0  0  0  0  0  0  0
    9.0129  -21.4226   17.8993 C   0  0  0  0  0  0  0  0  0  0  0  0
    9.6226  -20.5280   18.7522 C   0  0  0  0  0  0  0  0  0  0  0  0
    8.9516  -19.9666   19.8282 C   0  0  0  0  0  0  0  0  0  0  0  0
    9.5874  -19.0017   20.7590 C   0  0  0  0  0  0  0  0  0  0  0  0
    9.0361  -17.6322   20.4460 C   0  0  2  0  0  0  0  0  0  0  0  0
    9.4156  -17.3073   19.0868 N   0  0  0  0  0  0  0  0  0  0  0  0
    9.5046  -16.6096   21.4136 C   0  0  0  0  0  0  0  0  0  0  0  0
   10.5886  -16.0082   21.2808 O   0  0  0  0  0  0  0  0  0  0  0  0
    7.6392  -20.3434   20.0113 C   0  0  0  0  0  0  0  0  0  0  0  0
    7.0190  -21.2513   19.1464 C   0  0  0  0  0  0  0  0  0  0  0  0
    6.2668  -11.7860   26.5976 C   0  0  0  0  0  0  0  0  0  0  0  0
    6.1891  -12.8574   25.1449 S   0  0  0  0  0  0  0  0  0  0  0  0
    7.8771  -13.5394   24.8822 C   0  0  0  0  0  0  0  0  0  0  0  0
    7.7606  -14.5760   23.8044 C   0  0  0  0  0  0  0  0  0  0  0  0
    9.0870  -15.2479   23.4594 C   0  0  2  0  0  0  0  0  0  0  0  0
    8.6644  -16.3264   22.5231 N   0  0  0  0  0  0  0  0  0  0  0  0
    9.6991  -15.9377   24.6212 C   0  0  0  0  0  0  0  0  0  0  0  0
    8.9822  -16.7323   25.3317 O   0  0  0  0  0  0  0  0  0  0  0  0
    8.8624  -13.4041   28.9240 C   0  0  0  0  0  0  0  0  0  0  0  0
   10.4471  -13.9185   29.6552 S   0  0  0  0  0  0  0  0  0  0  0  0
   11.0205  -15.3974   28.7297 C   0  0  0  0  0  0  0  0  0  0  0  0
   10.8892  -15.0613   27.2809 C   0  0  0  0  0  0  0  0  0  0  0  0
   11.4179  -16.1495   26.4028 C   0  0  2  0  0  0  0  0  0  0  0  0
   11.0281  -15.8059   25.0309 N   0  0  0  0  0  0  0  0  0  0  0  0
   10.9206  -17.4927   26.6879 C   0  0  0  0  0  0  0  0  0  0  0  0
   11.6890  -18.3899   27.0904 O   0  0  0  0  0  0  0  0  0  0  0  0
    9.5848  -17.8008   26.5195 O   0  0  0  0  0  0  0  0  0  0  0  0
  2 12  2  0
  2  1  1  0
  3  2  1  0
  4  5  1  0
  4  3  2  0
  5 11  2  0
  6  5  1  0
  6  7  1  0
  7  9  1  0
  7  8  1  6
  9 18  1  0
 10  9  2  0
 11 12  1  0
 13 14  1  0
 14 15  1  0
 16 15  1  0
 17 16  1  1
 18 17  1  0
 19 17  1  0
 19 20  2  0
 22 21  1  0
 22 23  1  0
 23 24  1  0
 25 24  1  1
 25 27  1  0
 26 25  1  0
 26 19  1  0
 27 28  2  0
 27 29  1  0
M  END
$$$$
