YMM.pdb
     RDKit          3D

 29 29  0  0  1  0  0  0  0  0999 V2000
    9.2354  -19.3645   30.5636 O   0  0  0  0  0  0  0  0  0  0  0  0
    8.9475  -19.3226   29.1921 C   0  0  0  0  0  0  0  0  0  0  0  0
    7.9593  -18.5121   28.6811 C   0  0  0  0  0  0  0  0  0  0  0  0
    7.6884  -18.4819   27.3301 C   0  0  0  0  0  0  0  0  0  0  0  0
    8.3922  -19.2603   26.4235 C   0  0  0  0  0  0  0  0  0  0  0  0
    8.1181  -19.2440   24.9653 C   0  0  0  0  0  0  0  0  0  0  0  0
    6.7357  -18.6728   24.7655 C   0  0  2  0  0  0  0  0  0  0  0  0
    5.9247  -19.6968   24.1406 N   0  0  0  0  0  0  0  0  0  0  0  0
    6.7610  -17.4209   23.9695 C   0  0  0  0  0  0  0  0  0  0  0  0
    6.4972  -17.3958   22.7512 O   0  0  0  0  0  0  0  0  0  0  0  0
    9.3815  -20.0723   26.9332 C   0  0  0  0  0  0  0  0  0  0  0  0
    9.6575  -20.1040   28.3043 C   0  0  0  0  0  0  0  0  0  0  0  0
    6.2435  -11.2125   25.9218 C   0  0  0  0  0  0  0  0  0  0  0  0
    5.3662  -12.7311   26.3562 S   0  0  0  0  0  0  0  0  0  0  0  0
    5.6363  -13.9258   24.9840 C   0  0  0  0  0  0  0  0  0  0  0  0
    7.0966  -13.8713   24.6458 C   0  0  0  0  0  0  0  0  0  0  0  0
    7.5789  -15.0700   23.8332 C   0  0  2  0  0  0  0  0  0  0  0  0
    7.1020  -16.2213   24.6490 N   0  0  0  0  0  0  0  0  0  0  0  0
    9.0575  -15.1824   23.8001 C   0  0  0  0  0  0  0  0  0  0  0  0
    9.7313  -14.4075   23.0285 O   0  0  0  0  0  0  0  0  0  0  0  0
   10.2597  -14.5338   29.7065 C   0  0  0  0  0  0  0  0  0  0  0  0
   11.3970  -15.4463   28.6183 S   0  0  0  0  0  0  0  0  0  0  0  0
   10.8654  -15.1339   26.8884 C   0  0  0  0  0  0  0  0  0  0  0  0
   11.6780  -16.0458   26.0298 C   0  0  0  0  0  0  0  0  0  0  0  0
   11.2790  -15.9649   24.5914 C   0  0  2  0  0  0  0  0  0  0  0  0
    9.8168  -16.0786   24.5562 N   0  0  0  0  0  0  0  0  0  0  0  0
   11.8310  -16.9994   23.7207 C   0  0  0  0  0  0  0  0  0  0  0  0
   11.1059  -17.9040   23.2588 O   0  0  0  0  0  0  0  0  0  0  0  0
   13.1712  -16.9989   23.3868 O   0  0  0  0  0  0  0  0  0  0  0  0
  2 12  2  0
  2  1  1  0
  3  2  1  0
  4  5  1  0
  4  3  2  0
  5 11  2  0
  6  5  1  0
  6  7  1  0
  7  9  1  0
  7  8  1  6
  9 18  1  0
 10  9  2  0
 11 12  1  0
 13 14  1  0
 14 15  1  0
 16 15  1  0
 17 16  1  1
 18 17  1  0
 19 17  1  0
 19 20  2  0
 22 21  1  0
 22 23  1  0
 23 24  1  0
 25 24  1  1
 25 27  1  0
 26 25  1  0
 26 19  1  0
 27 28  2  0
 27 29  1  0
M  END
$$$$
