YMM.pdb
     RDKit          3D

 29 29  0  0  1  0  0  0  0  0999 V2000
    6.8919  -11.1155   25.9931 O   0  0  0  0  0  0  0  0  0  0  0  0
    6.7678  -12.5109   25.9363 C   0  0  0  0  0  0  0  0  0  0  0  0
    6.0039  -13.2103   26.8427 C   0  0  0  0  0  0  0  0  0  0  0  0
    5.8917  -14.5823   26.7735 C   0  0  0  0  0  0  0  0  0  0  0  0
    6.5377  -15.3224   25.7946 C   0  0  0  0  0  0  0  0  0  0  0  0
    6.4313  -16.7994   25.7006 C   0  0  0  0  0  0  0  0  0  0  0  0
    6.2690  -17.1550   24.2429 C   0  0  2  0  0  0  0  0  0  0  0  0
    5.7195  -18.4931   24.1770 N   0  0  0  0  0  0  0  0  0  0  0  0
    7.5467  -17.0413   23.4972 C   0  0  0  0  0  0  0  0  0  0  0  0
    8.3859  -17.9626   23.4610 O   0  0  0  0  0  0  0  0  0  0  0  0
    7.3029  -14.6239   24.8866 C   0  0  0  0  0  0  0  0  0  0  0  0
    7.4176  -13.2314   24.9557 C   0  0  0  0  0  0  0  0  0  0  0  0
    9.0668  -12.5177   18.8334 C   0  0  0  0  0  0  0  0  0  0  0  0
    7.4130  -13.1359   19.2168 S   0  0  0  0  0  0  0  0  0  0  0  0
    7.6230  -14.7215   20.1250 C   0  0  0  0  0  0  0  0  0  0  0  0
    8.7416  -14.5139   21.1025 C   0  0  0  0  0  0  0  0  0  0  0  0
    9.0249  -15.7356   21.9727 C   0  0  2  0  0  0  0  0  0  0  0  0
    7.7948  -15.8246   22.8078 N   0  0  0  0  0  0  0  0  0  0  0  0
   10.1434  -15.5161   22.9219 C   0  0  0  0  0  0  0  0  0  0  0  0
   10.4962  -14.3159   23.2134 O   0  0  0  0  0  0  0  0  0  0  0  0
   10.3753  -13.8854   28.1113 C   0  0  0  0  0  0  0  0  0  0  0  0
    9.8755  -15.6273   27.9489 S   0  0  0  0  0  0  0  0  0  0  0  0
   11.0797  -16.4378   26.8239 C   0  0  0  0  0  0  0  0  0  0  0  0
   11.2617  -15.5108   25.6678 C   0  0  0  0  0  0  0  0  0  0  0  0
   11.9329  -16.1808   24.5122 C   0  0  2  0  0  0  0  0  0  0  0  0
   10.8747  -16.5235   23.5557 N   0  0  0  0  0  0  0  0  0  0  0  0
   12.6671  -17.4034   24.8268 C   0  0  0  0  0  0  0  0  0  0  0  0
   12.2348  -18.5203   24.4760 O   0  0  0  0  0  0  0  0  0  0  0  0
   13.8604  -17.3508   25.5203 O   0  0  0  0  0  0  0  0  0  0  0  0
  2 12  2  0
  2  1  1  0
  3  2  1  0
  4  5  1  0
  4  3  2  0
  5 11  2  0
  6  5  1  0
  6  7  1  0
  7  9  1  0
  7  8  1  1
  9 18  1  0
 10  9  2  0
 11 12  1  0
 13 14  1  0
 14 15  1  0
 16 15  1  0
 17 16  1  6
 18 17  1  0
 19 17  1  0
 19 20  2  0
 22 21  1  0
 22 23  1  0
 23 24  1  0
 25 24  1  1
 25 27  1  0
 26 25  1  0
 26 19  1  0
 27 28  2  0
 27 29  1  0
M  END
$$$$
