YMM.pdb
     RDKit          3D

 29 29  0  0  1  0  0  0  0  0999 V2000
   14.6549  -23.1011   33.5637 O   0  0  0  0  0  0  0  0  0  0  0  0
   14.2009  -22.4425   32.4123 C   0  0  0  0  0  0  0  0  0  0  0  0
   13.8784  -21.1044   32.4197 C   0  0  0  0  0  0  0  0  0  0  0  0
   13.4336  -20.4711   31.2792 C   0  0  0  0  0  0  0  0  0  0  0  0
   13.2893  -21.1442   30.0754 C   0  0  0  0  0  0  0  0  0  0  0  0
   12.8126  -20.4832   28.8354 C   0  0  0  0  0  0  0  0  0  0  0  0
   11.3204  -20.2961   28.9609 C   0  0  2  0  0  0  0  0  0  0  0  0
   10.7280  -21.6056   29.1373 N   0  0  0  0  0  0  0  0  0  0  0  0
   10.7495  -19.5804   27.7933 C   0  0  0  0  0  0  0  0  0  0  0  0
   10.1965  -20.1752   26.8474 O   0  0  0  0  0  0  0  0  0  0  0  0
   13.6115  -22.4837   30.0663 C   0  0  0  0  0  0  0  0  0  0  0  0
   14.0632  -23.1277   31.2231 C   0  0  0  0  0  0  0  0  0  0  0  0
   10.5470  -13.7238   29.6349 C   0  0  0  0  0  0  0  0  0  0  0  0
    9.6577  -13.8783   28.0698 S   0  0  0  0  0  0  0  0  0  0  0  0
    9.5551  -15.6726   27.6784 C   0  0  0  0  0  0  0  0  0  0  0  0
   10.7656  -16.0048   26.8574 C   0  0  0  0  0  0  0  0  0  0  0  0
   10.8470  -17.4764   26.4600 C   0  0  2  0  0  0  0  0  0  0  0  0
   10.8518  -18.1639   27.7813 N   0  0  0  0  0  0  0  0  0  0  0  0
   12.1374  -17.8259   25.8174 C   0  0  0  0  0  0  0  0  0  0  0  0
   12.4202  -17.3358   24.6642 O   0  0  0  0  0  0  0  0  0  0  0  0
   17.3117  -20.4130   29.9553 C   0  0  0  0  0  0  0  0  0  0  0  0
   17.1431  -19.1698   28.6375 S   0  0  0  0  0  0  0  0  0  0  0  0
   15.7522  -19.7001   27.5620 C   0  0  0  0  0  0  0  0  0  0  0  0
   15.4662  -18.5520   26.6513 C   0  0  0  0  0  0  0  0  0  0  0  0
   14.3862  -18.8716   25.6684 C   0  0  2  0  0  0  0  0  0  0  0  0
   13.1121  -18.6633   26.3650 N   0  0  0  0  0  0  0  0  0  0  0  0
   14.3918  -20.2331   25.1400 C   0  0  0  0  0  0  0  0  0  0  0  0
   13.5752  -21.0838   25.5484 O   0  0  0  0  0  0  0  0  0  0  0  0
   15.3027  -20.6106   24.1728 O   0  0  0  0  0  0  0  0  0  0  0  0
  2 12  2  0
  2  1  1  0
  3  2  1  0
  4  5  1  0
  4  3  2  0
  5 11  2  0
  6  5  1  0
  6  7  1  0
  7  9  1  0
  7  8  1  6
  9 18  1  0
 10  9  2  0
 11 12  1  0
 13 14  1  0
 14 15  1  0
 16 15  1  0
 17 16  1  1
 18 17  1  0
 19 17  1  0
 19 20  2  0
 22 21  1  0
 22 23  1  0
 23 24  1  0
 25 24  1  1
 25 27  1  0
 26 25  1  0
 26 19  1  0
 27 28  2  0
 27 29  1  0
M  END
$$$$
