YMM.pdb
     RDKit          3D

 29 29  0  0  1  0  0  0  0  0999 V2000
    7.7760  -22.7349   17.2717 O   0  0  0  0  0  0  0  0  0  0  0  0
    8.3725  -21.8436   18.1747 C   0  0  0  0  0  0  0  0  0  0  0  0
    7.6449  -21.2035   19.1522 C   0  0  0  0  0  0  0  0  0  0  0  0
    8.2461  -20.3302   20.0329 C   0  0  0  0  0  0  0  0  0  0  0  0
    9.6040  -20.0539   19.9796 C   0  0  0  0  0  0  0  0  0  0  0  0
   10.2725  -19.1178   20.9170 C   0  0  0  0  0  0  0  0  0  0  0  0
    9.7657  -17.7285   20.6159 C   0  0  2  0  0  0  0  0  0  0  0  0
   10.3742  -17.2999   19.3738 N   0  0  0  0  0  0  0  0  0  0  0  0
   10.0419  -16.7832   21.7257 C   0  0  0  0  0  0  0  0  0  0  0  0
   11.1467  -16.2240   21.8704 O   0  0  0  0  0  0  0  0  0  0  0  0
   10.3337  -20.6936   19.0017 C   0  0  0  0  0  0  0  0  0  0  0  0
    9.7249  -21.5803   18.1072 C   0  0  0  0  0  0  0  0  0  0  0  0
    6.0311  -12.0395   26.4196 C   0  0  0  0  0  0  0  0  0  0  0  0
    6.0599  -13.3932   25.2233 S   0  0  0  0  0  0  0  0  0  0  0  0
    7.8005  -13.9759   25.1044 C   0  0  0  0  0  0  0  0  0  0  0  0
    7.8535  -14.9460   23.9616 C   0  0  0  0  0  0  0  0  0  0  0  0
    9.2391  -15.5448   23.7346 C   0  0  2  0  0  0  0  0  0  0  0  0
    8.9878  -16.5253   22.6420 N   0  0  0  0  0  0  0  0  0  0  0  0
    9.7156  -16.3415   24.8915 C   0  0  0  0  0  0  0  0  0  0  0  0
    9.7092  -17.6240   24.8188 O   0  0  0  0  0  0  0  0  0  0  0  0
   10.5264  -12.8913   28.3969 C   0  0  0  0  0  0  0  0  0  0  0  0
   10.2712  -14.0294   29.7933 S   0  0  0  0  0  0  0  0  0  0  0  0
   10.3665  -15.7386   29.1286 C   0  0  0  0  0  0  0  0  0  0  0  0
   11.4525  -15.7293   28.1041 C   0  0  0  0  0  0  0  0  0  0  0  0
   11.1197  -16.5878   26.9264 C   0  0  2  0  0  0  0  0  0  0  0  0
   10.1913  -15.8145   26.0945 N   0  0  0  0  0  0  0  0  0  0  0  0
   10.4879  -17.8683   27.2331 C   0  0  0  0  0  0  0  0  0  0  0  0
    9.2458  -17.9882   27.2317 O   0  0  0  0  0  0  0  0  0  0  0  0
   11.2531  -18.9789   27.5311 O   0  0  0  0  0  0  0  0  0  0  0  0
  2 12  2  0
  2  1  1  0
  3  2  1  0
  4  5  1  0
  4  3  2  0
  5 11  2  0
  6  5  1  0
  6  7  1  0
  7  9  1  0
  7  8  1  6
  9 18  1  0
 10  9  2  0
 11 12  1  0
 13 14  1  0
 14 15  1  0
 16 15  1  0
 17 16  1  1
 18 17  1  0
 19 17  1  0
 19 20  2  0
 22 21  1  0
 22 23  1  0
 23 24  1  0
 25 24  1  1
 25 27  1  0
 26 25  1  0
 26 19  1  0
 27 28  2  0
 27 29  1  0
M  END
$$$$
