YMM.pdb
     RDKit          3D

 29 29  0  0  1  0  0  0  0  0999 V2000
    8.2606  -24.1578   18.1917 O   0  0  0  0  0  0  0  0  0  0  0  0
    8.2343  -22.7959   18.5236 C   0  0  0  0  0  0  0  0  0  0  0  0
    7.4911  -21.8868   17.8055 C   0  0  0  0  0  0  0  0  0  0  0  0
    7.4755  -20.5510   18.1446 C   0  0  0  0  0  0  0  0  0  0  0  0
    8.2020  -20.0584   19.2182 C   0  0  0  0  0  0  0  0  0  0  0  0
    8.2002  -18.6249   19.6016 C   0  0  0  0  0  0  0  0  0  0  0  0
    8.6452  -18.5353   21.0409 C   0  0  2  0  0  0  0  0  0  0  0  0
    7.5596  -19.0223   21.8661 N   0  0  0  0  0  0  0  0  0  0  0  0
    9.0512  -17.1575   21.4126 C   0  0  0  0  0  0  0  0  0  0  0  0
    9.8604  -16.4919   20.7369 O   0  0  0  0  0  0  0  0  0  0  0  0
    8.9467  -20.9669   19.9379 C   0  0  0  0  0  0  0  0  0  0  0  0
    8.9634  -22.3230   19.5949 C   0  0  0  0  0  0  0  0  0  0  0  0
    6.4672  -12.3355   26.5926 C   0  0  0  0  0  0  0  0  0  0  0  0
    7.2016  -12.5851   24.9608 S   0  0  0  0  0  0  0  0  0  0  0  0
    7.1040  -14.3842   24.5908 C   0  0  0  0  0  0  0  0  0  0  0  0
    7.4827  -14.5492   23.1489 C   0  0  0  0  0  0  0  0  0  0  0  0
    8.8466  -15.2046   22.9484 C   0  0  2  0  0  0  0  0  0  0  0  0
    8.4791  -16.6023   22.5880 N   0  0  0  0  0  0  0  0  0  0  0  0
    9.6258  -15.3028   24.2068 C   0  0  0  0  0  0  0  0  0  0  0  0
   10.0815  -14.2322   24.7509 O   0  0  0  0  0  0  0  0  0  0  0  0
    9.8270  -13.9314   29.9091 C   0  0  0  0  0  0  0  0  0  0  0  0
    8.6690  -14.8309   28.8318 S   0  0  0  0  0  0  0  0  0  0  0  0
    9.4647  -14.9855   27.1840 C   0  0  0  0  0  0  0  0  0  0  0  0
   10.2627  -16.2468   27.2213 C   0  0  0  0  0  0  0  0  0  0  0  0
   10.9557  -16.5104   25.9232 C   0  0  2  0  0  0  0  0  0  0  0  0
    9.9200  -16.4883   24.8845 N   0  0  0  0  0  0  0  0  0  0  0  0
   11.6603  -17.7861   25.8278 C   0  0  0  0  0  0  0  0  0  0  0  0
   12.6194  -18.0478   26.5820 O   0  0  0  0  0  0  0  0  0  0  0  0
   11.2790  -18.7347   24.8991 O   0  0  0  0  0  0  0  0  0  0  0  0
  2 12  2  0
  2  1  1  0
  3  2  1  0
  4  5  1  0
  4  3  2  0
  5 11  2  0
  6  5  1  0
  6  7  1  0
  7  9  1  0
  7  8  1  1
  9 18  1  0
 10  9  2  0
 11 12  1  0
 13 14  1  0
 14 15  1  0
 16 15  1  0
 17 16  1  1
 18 17  1  0
 19 17  1  0
 19 20  2  0
 22 21  1  0
 22 23  1  0
 23 24  1  0
 25 24  1  1
 25 27  1  0
 26 25  1  0
 26 19  1  0
 27 28  2  0
 27 29  1  0
M  END
$$$$
