YMM.pdb
     RDKit          3D

 29 29  0  0  1  0  0  0  0  0999 V2000
    6.9000  -19.0444   30.5548 O   0  0  0  0  0  0  0  0  0  0  0  0
    7.2200  -19.0323   29.1898 C   0  0  0  0  0  0  0  0  0  0  0  0
    7.5412  -20.1842   28.5082 C   0  0  0  0  0  0  0  0  0  0  0  0
    7.8534  -20.1559   27.1661 C   0  0  0  0  0  0  0  0  0  0  0  0
    7.8597  -18.9747   26.4394 C   0  0  0  0  0  0  0  0  0  0  0  0
    8.1923  -18.9203   24.9943 C   0  0  0  0  0  0  0  0  0  0  0  0
    7.0579  -18.2176   24.2895 C   0  0  2  0  0  0  0  0  0  0  0  0
    5.9485  -19.1450   24.2126 N   0  0  0  0  0  0  0  0  0  0  0  0
    7.4591  -17.7184   22.9510 C   0  0  0  0  0  0  0  0  0  0  0  0
    7.5457  -18.4643   21.9558 O   0  0  0  0  0  0  0  0  0  0  0  0
    7.5387  -17.8209   27.1201 C   0  0  0  0  0  0  0  0  0  0  0  0
    7.2216  -17.8481   28.4824 C   0  0  0  0  0  0  0  0  0  0  0  0
    7.4375  -11.6277   21.4243 C   0  0  0  0  0  0  0  0  0  0  0  0
    6.3257  -12.8583   20.7073 S   0  0  0  0  0  0  0  0  0  0  0  0
    6.7776  -14.4868   21.4333 C   0  0  0  0  0  0  0  0  0  0  0  0
    8.2675  -14.6131   21.3154 C   0  0  0  0  0  0  0  0  0  0  0  0
    8.8136  -15.9254   21.8719 C   0  0  2  0  0  0  0  0  0  0  0  0
    7.7488  -16.3333   22.8302 N   0  0  0  0  0  0  0  0  0  0  0  0
   10.0394  -15.7369   22.6855 C   0  0  0  0  0  0  0  0  0  0  0  0
   10.6386  -14.6008   22.6682 O   0  0  0  0  0  0  0  0  0  0  0  0
    8.6898  -15.3199   28.5860 C   0  0  0  0  0  0  0  0  0  0  0  0
   10.0337  -14.7005   27.5273 S   0  0  0  0  0  0  0  0  0  0  0  0
   10.2740  -15.9238   26.1789 C   0  0  0  0  0  0  0  0  0  0  0  0
   11.3841  -15.3983   25.3300 C   0  0  0  0  0  0  0  0  0  0  0  0
   11.8159  -16.3878   24.2959 C   0  0  2  0  0  0  0  0  0  0  0  0
   10.6252  -16.7080   23.5011 N   0  0  0  0  0  0  0  0  0  0  0  0
   12.3650  -17.6408   24.8071 C   0  0  0  0  0  0  0  0  0  0  0  0
   11.7240  -18.7076   24.7150 O   0  0  0  0  0  0  0  0  0  0  0  0
   13.6100  -17.6737   25.4042 O   0  0  0  0  0  0  0  0  0  0  0  0
  2 12  2  0
  2  1  1  0
  3  2  1  0
  4  5  1  0
  4  3  2  0
  5 11  2  0
  6  5  1  0
  6  7  1  0
  7  9  1  0
  7  8  1  6
  9 18  1  0
 10  9  2  0
 11 12  1  0
 13 14  1  0
 14 15  1  0
 16 15  1  0
 17 16  1  1
 18 17  1  0
 19 17  1  0
 19 20  2  0
 22 21  1  0
 22 23  1  0
 23 24  1  0
 25 24  1  1
 25 27  1  0
 26 25  1  0
 26 19  1  0
 27 28  2  0
 27 29  1  0
M  END
$$$$
