FQC.pdb
     RDKit          3D

 27 27  0  0  1  0  0  0  0  0999 V2000
   27.9013  -21.7170  -10.4231 N   0  0  0  0  0  0  0  0  0  0  0  0
   26.6841  -20.9616  -10.1900 C   0  0  1  0  0  0  0  0  0  0  0  0
   26.8550  -19.7323   -9.3843 C   0  0  0  0  0  0  0  0  0  0  0  0
   27.4460  -19.9158   -8.0419 C   0  0  0  0  0  0  0  0  0  0  0  0
   28.8072  -19.8454   -7.8301 C   0  0  0  0  0  0  0  0  0  0  0  0
   29.3667  -20.0175   -6.5815 C   0  0  0  0  0  0  0  0  0  0  0  0
   28.5729  -20.2711   -5.4766 C   0  0  0  0  0  0  0  0  0  0  0  0
   27.2134  -20.3431   -5.6779 C   0  0  0  0  0  0  0  0  0  0  0  0
   26.6556  -20.1713   -6.9244 C   0  0  0  0  0  0  0  0  0  0  0  0
   25.8908  -20.8323  -11.4336 C   0  0  0  0  0  0  0  0  0  0  0  0
   26.2661  -20.2003  -12.4405 O   0  0  0  0  0  0  0  0  0  0  0  0
   26.9643  -22.6814  -14.8771 N   0  0  0  0  0  0  0  0  0  0  0  0
   25.5426  -22.8043  -15.0366 C   0  0  0  0  0  0  0  0  0  0  0  0
   25.0492  -22.5396  -16.1564 O   0  0  0  0  0  0  0  0  0  0  0  0
   24.7195  -23.2219  -13.9166 C   0  0  0  0  0  0  0  0  0  0  0  0
   23.5379  -22.3750  -13.5834 C   0  0  0  0  0  0  0  0  0  0  0  0
   23.7557  -21.2601  -12.6280 C   0  0  2  0  0  0  0  0  0  0  0  0
   24.5907  -21.4649  -11.5105 N   0  0  0  0  0  0  0  0  0  0  0  0
   22.5031  -20.5060  -12.4236 C   0  0  0  0  0  0  0  0  0  0  0  0
   22.4651  -19.7621  -11.3840 O   0  0  0  0  0  0  0  0  0  0  0  0
   21.3510  -20.5135  -13.2306 N   0  0  0  0  0  0  0  0  0  0  0  0
   20.7024  -19.2837  -13.6757 C   0  0  1  0  0  0  0  0  0  0  0  0
   21.6331  -18.2735  -14.2496 C   0  0  0  0  0  0  0  0  0  0  0  0
   20.9796  -16.6264  -13.7626 S   0  0  0  0  0  0  0  0  0  0  0  0
   19.6480  -19.6554  -14.6483 C   0  0  0  0  0  0  0  0  0  0  0  0
   19.9015  -20.3695  -15.6674 O   0  0  0  0  0  0  0  0  0  0  0  0
   18.3269  -19.2505  -14.5097 O   0  0  0  0  0  0  0  0  0  0  0  0
  2  1  1  6
  2  3  1  0
  4  3  1  0
  5  4  2  0
  6  5  1  0
  7  6  2  0
  7  8  1  0
  8  9  2  0
  9  4  1  0
 10 18  1  0
 10  2  1  0
 11 10  2  0
 13 12  1  0
 14 13  2  0
 15 13  1  0
 17 16  1  1
 16 15  1  0
 17 18  1  0
 19 21  1  0
 19 17  1  0
 20 19  2  0
 22 25  1  0
 22 21  1  0
 22 23  1  6
 24 23  1  0
 25 27  1  0
 26 25  2  0
M  END
$$$$
