FQC.pdb
     RDKit          3D

 27 27  0  0  1  0  0  0  0  0999 V2000
   28.6549  -21.2477   -9.2255 N   0  0  0  0  0  0  0  0  0  0  0  0
   27.2572  -20.8704   -9.1222 C   0  0  1  0  0  0  0  0  0  0  0  0
   26.9763  -19.7590   -8.1866 C   0  0  0  0  0  0  0  0  0  0  0  0
   27.6999  -19.7998   -6.8983 C   0  0  0  0  0  0  0  0  0  0  0  0
   28.3735  -18.7010   -6.4068 C   0  0  0  0  0  0  0  0  0  0  0  0
   29.0526  -18.7313   -5.2069 C   0  0  0  0  0  0  0  0  0  0  0  0
   29.0851  -19.8817   -4.4383 C   0  0  0  0  0  0  0  0  0  0  0  0
   28.4157  -20.9833   -4.9204 C   0  0  0  0  0  0  0  0  0  0  0  0
   27.7382  -20.9524   -6.1181 C   0  0  0  0  0  0  0  0  0  0  0  0
   26.6286  -20.7836  -10.4601 C   0  0  0  0  0  0  0  0  0  0  0  0
   27.2648  -20.6731  -11.5265 O   0  0  0  0  0  0  0  0  0  0  0  0
   25.9226  -24.4477  -14.2132 N   0  0  0  0  0  0  0  0  0  0  0  0
   24.8646  -23.6137  -14.7099 C   0  0  0  0  0  0  0  0  0  0  0  0
   24.3748  -23.8856  -15.8296 O   0  0  0  0  0  0  0  0  0  0  0  0
   24.3941  -22.4901  -13.9208 C   0  0  0  0  0  0  0  0  0  0  0  0
   25.0894  -22.2236  -12.6286 C   0  0  0  0  0  0  0  0  0  0  0  0
   24.5605  -21.1153  -11.7948 C   0  0  2  0  0  0  0  0  0  0  0  0
   25.1850  -20.8208  -10.5655 N   0  0  0  0  0  0  0  0  0  0  0  0
   23.0850  -21.0964  -11.8405 C   0  0  0  0  0  0  0  0  0  0  0  0
   22.4917  -21.7763  -10.9342 O   0  0  0  0  0  0  0  0  0  0  0  0
   22.2596  -20.4264  -12.7616 N   0  0  0  0  0  0  0  0  0  0  0  0
   20.9420  -19.9132  -12.3989 C   0  0  1  0  0  0  0  0  0  0  0  0
   20.8995  -18.4431  -12.1682 C   0  0  0  0  0  0  0  0  0  0  0  0
   19.3644  -18.1090  -11.2146 S   0  0  0  0  0  0  0  0  0  0  0  0
   19.9914  -20.3172  -13.4614 C   0  0  0  0  0  0  0  0  0  0  0  0
   20.3511  -20.4208  -14.6750 O   0  0  0  0  0  0  0  0  0  0  0  0
   18.6582  -20.6058  -13.2014 O   0  0  0  0  0  0  0  0  0  0  0  0
  2  1  1  6
  2  3  1  0
  4  3  1  0
  5  4  2  0
  6  5  1  0
  7  6  2  0
  7  8  1  0
  8  9  2  0
  9  4  1  0
 10 18  1  0
 10  2  1  0
 11 10  2  0
 13 12  1  0
 14 13  2  0
 15 13  1  0
 17 16  1  1
 16 15  1  0
 17 18  1  0
 19 21  1  0
 19 17  1  0
 20 19  2  0
 22 25  1  0
 22 21  1  0
 22 23  1  6
 24 23  1  0
 25 27  1  0
 26 25  2  0
M  END
$$$$
