FQC.pdb
     RDKit          3D

 27 27  0  0  1  0  0  0  0  0999 V2000
   25.6593  -16.3021  -21.6275 N   0  0  0  0  0  0  0  0  0  0  0  0
   25.5050  -15.4302  -20.4775 C   0  0  1  0  0  0  0  0  0  0  0  0
   26.6717  -14.5686  -20.1842 C   0  0  0  0  0  0  0  0  0  0  0  0
   27.9872  -15.2425  -20.1752 C   0  0  0  0  0  0  0  0  0  0  0  0
   28.3878  -16.0430  -19.1257 C   0  0  0  0  0  0  0  0  0  0  0  0
   29.6141  -16.6735  -19.1085 C   0  0  0  0  0  0  0  0  0  0  0  0
   30.5033  -16.5256  -20.1586 C   0  0  0  0  0  0  0  0  0  0  0  0
   30.1126  -15.7288  -21.2105 C   0  0  0  0  0  0  0  0  0  0  0  0
   28.8884  -15.0997  -21.2270 C   0  0  0  0  0  0  0  0  0  0  0  0
   24.1798  -14.7695  -20.4837 C   0  0  0  0  0  0  0  0  0  0  0  0
   23.5481  -14.4778  -21.5181 O   0  0  0  0  0  0  0  0  0  0  0  0
   19.3189  -15.1084  -16.2932 N   0  0  0  0  0  0  0  0  0  0  0  0
   18.9795  -14.0684  -17.2232 C   0  0  0  0  0  0  0  0  0  0  0  0
   17.8380  -13.5595  -17.1489 O   0  0  0  0  0  0  0  0  0  0  0  0
   19.9469  -13.6373  -18.2155 C   0  0  0  0  0  0  0  0  0  0  0  0
   21.2884  -14.2886  -18.1904 C   0  0  0  0  0  0  0  0  0  0  0  0
   22.2820  -13.8240  -19.1905 C   0  0  2  0  0  0  0  0  0  0  0  0
   23.5575  -14.4238  -19.2229 N   0  0  0  0  0  0  0  0  0  0  0  0
   22.2051  -12.3582  -19.3491 C   0  0  0  0  0  0  0  0  0  0  0  0
   22.9759  -11.6756  -18.5904 O   0  0  0  0  0  0  0  0  0  0  0  0
   21.3847  -11.6281  -20.2279 N   0  0  0  0  0  0  0  0  0  0  0  0
   21.4917  -10.1794  -20.3728 C   0  0  1  0  0  0  0  0  0  0  0  0
   21.1766   -9.6754  -21.7376 C   0  0  0  0  0  0  0  0  0  0  0  0
   21.4441   -7.8577  -21.6969 S   0  0  0  0  0  0  0  0  0  0  0  0
   20.6126   -9.5573  -19.3549 C   0  0  0  0  0  0  0  0  0  0  0  0
   19.4700  -10.0368  -19.0766 O   0  0  0  0  0  0  0  0  0  0  0  0
   20.9778   -8.4203  -18.6462 O   0  0  0  0  0  0  0  0  0  0  0  0
  2  1  1  6
  2  3  1  0
  4  3  1  0
  5  4  2  0
  6  5  1  0
  7  6  2  0
  7  8  1  0
  8  9  2  0
  9  4  1  0
 10 18  1  0
 10  2  1  0
 11 10  2  0
 13 12  1  0
 14 13  2  0
 15 13  1  0
 17 16  1  1
 16 15  1  0
 17 18  1  0
 19 21  1  0
 19 17  1  0
 20 19  2  0
 22 25  1  0
 22 21  1  0
 22 23  1  6
 24 23  1  0
 25 27  1  0
 26 25  2  0
M  END
$$$$
