FQC.pdb
     RDKit          3D

 27 27  0  0  1  0  0  0  0  0999 V2000
   23.6726  -13.5138  -18.2030 N   0  0  0  0  0  0  0  0  0  0  0  0
   23.8209  -12.6718  -17.0303 C   0  0  1  0  0  0  0  0  0  0  0  0
   25.2075  -12.5284  -16.5340 C   0  0  0  0  0  0  0  0  0  0  0  0
   25.9210  -13.7880  -16.2353 C   0  0  0  0  0  0  0  0  0  0  0  0
   26.7719  -14.3765  -17.1477 C   0  0  0  0  0  0  0  0  0  0  0  0
   27.4396  -15.5525  -16.8778 C   0  0  0  0  0  0  0  0  0  0  0  0
   27.2798  -16.1972  -15.6636 C   0  0  0  0  0  0  0  0  0  0  0  0
   26.4329  -15.6176  -14.7467 C   0  0  0  0  0  0  0  0  0  0  0  0
   25.7667  -14.4438  -15.0168 C   0  0  0  0  0  0  0  0  0  0  0  0
   23.0352  -11.4242  -17.1672 C   0  0  0  0  0  0  0  0  0  0  0  0
   22.9436  -10.7671  -18.2227 O   0  0  0  0  0  0  0  0  0  0  0  0
   17.2218  -10.1099  -15.4122 N   0  0  0  0  0  0  0  0  0  0  0  0
   17.7549   -8.8604  -15.8774 C   0  0  0  0  0  0  0  0  0  0  0  0
   16.9647   -7.9011  -16.0281 O   0  0  0  0  0  0  0  0  0  0  0  0
   19.1726   -8.7367  -16.1620 C   0  0  0  0  0  0  0  0  0  0  0  0
   20.0222   -9.9421  -15.9399 C   0  0  0  0  0  0  0  0  0  0  0  0
   21.4848   -9.7811  -16.1353 C   0  0  2  0  0  0  0  0  0  0  0  0
   22.3229  -10.9087  -16.0168 N   0  0  0  0  0  0  0  0  0  0  0  0
   21.9469   -8.5128  -15.5374 C   0  0  0  0  0  0  0  0  0  0  0  0
   22.3373   -8.5809  -14.3214 O   0  0  0  0  0  0  0  0  0  0  0  0
   22.0031   -7.2445  -16.1429 N   0  0  0  0  0  0  0  0  0  0  0  0
   22.4329   -6.0524  -15.4181 C   0  0  1  0  0  0  0  0  0  0  0  0
   22.6521   -4.8579  -16.2790 C   0  0  0  0  0  0  0  0  0  0  0  0
   23.3136   -3.5394  -15.1829 S   0  0  0  0  0  0  0  0  0  0  0  0
   21.4278   -5.7771  -14.3645 C   0  0  0  0  0  0  0  0  0  0  0  0
   21.7653   -5.5682  -13.1581 O   0  0  0  0  0  0  0  0  0  0  0  0
   20.0648   -5.7303  -14.6257 O   0  0  0  0  0  0  0  0  0  0  0  0
  2  1  1  6
  2  3  1  0
  4  3  1  0
  5  4  2  0
  6  5  1  0
  7  6  2  0
  7  8  1  0
  8  9  2  0
  9  4  1  0
 10 18  1  0
 10  2  1  0
 11 10  2  0
 13 12  1  0
 14 13  2  0
 15 13  1  0
 17 16  1  1
 16 15  1  0
 17 18  1  0
 19 21  1  0
 19 17  1  0
 20 19  2  0
 22 25  1  0
 22 21  1  0
 22 23  1  6
 24 23  1  0
 25 27  1  0
 26 25  2  0
M  END
$$$$
