FQC.pdb
     RDKit          3D

 27 27  0  0  1  0  0  0  0  0999 V2000
   28.7744  -20.7070   -9.2316 N   0  0  0  0  0  0  0  0  0  0  0  0
   27.3447  -20.7059   -8.9819 C   0  0  1  0  0  0  0  0  0  0  0  0
   26.8994  -19.8033   -7.8972 C   0  0  0  0  0  0  0  0  0  0  0  0
   27.6658  -19.8812   -6.6357 C   0  0  0  0  0  0  0  0  0  0  0  0
   28.3557  -18.7967   -6.1351 C   0  0  0  0  0  0  0  0  0  0  0  0
   29.0748  -18.8615   -4.9601 C   0  0  0  0  0  0  0  0  0  0  0  0
   29.1328  -20.0339   -4.2270 C   0  0  0  0  0  0  0  0  0  0  0  0
   28.4475  -21.1214   -4.7184 C   0  0  0  0  0  0  0  0  0  0  0  0
   27.7301  -21.0561   -5.8912 C   0  0  0  0  0  0  0  0  0  0  0  0
   26.5824  -20.6426  -10.2497 C   0  0  0  0  0  0  0  0  0  0  0  0
   26.6953  -19.7279  -11.0893 O   0  0  0  0  0  0  0  0  0  0  0  0
   24.4776  -25.2414  -14.1723 N   0  0  0  0  0  0  0  0  0  0  0  0
   23.9230  -24.0076  -14.6539 C   0  0  0  0  0  0  0  0  0  0  0  0
   23.3015  -24.0243  -15.7407 O   0  0  0  0  0  0  0  0  0  0  0  0
   24.0931  -22.7868  -13.8878 C   0  0  0  0  0  0  0  0  0  0  0  0
   24.8465  -22.8846  -12.6044 C   0  0  0  0  0  0  0  0  0  0  0  0
   24.8949  -21.6670  -11.7568 C   0  0  2  0  0  0  0  0  0  0  0  0
   25.6345  -21.6931  -10.5568 N   0  0  0  0  0  0  0  0  0  0  0  0
   23.5785  -20.9988  -11.7410 C   0  0  0  0  0  0  0  0  0  0  0  0
   22.9790  -20.9778  -10.6114 O   0  0  0  0  0  0  0  0  0  0  0  0
   22.9075  -20.3906  -12.8173 N   0  0  0  0  0  0  0  0  0  0  0  0
   21.6120  -19.7365  -12.6594 C   0  0  1  0  0  0  0  0  0  0  0  0
   21.6347  -18.2671  -12.8972 C   0  0  0  0  0  0  0  0  0  0  0  0
   20.2016  -17.5688  -11.9830 S   0  0  0  0  0  0  0  0  0  0  0  0
   20.6517  -20.4115  -13.5640 C   0  0  0  0  0  0  0  0  0  0  0  0
   20.9759  -20.7609  -14.7411 O   0  0  0  0  0  0  0  0  0  0  0  0
   19.3476  -20.7029  -13.1865 O   0  0  0  0  0  0  0  0  0  0  0  0
  2  1  1  6
  2  3  1  0
  4  3  1  0
  5  4  2  0
  6  5  1  0
  7  6  2  0
  7  8  1  0
  8  9  2  0
  9  4  1  0
 10 18  1  0
 10  2  1  0
 11 10  2  0
 13 12  1  0
 14 13  2  0
 15 13  1  0
 17 16  1  1
 16 15  1  0
 17 18  1  0
 19 21  1  0
 19 17  1  0
 20 19  2  0
 22 25  1  0
 22 21  1  0
 22 23  1  6
 24 23  1  0
 25 27  1  0
 26 25  2  0
M  END
$$$$
