FQC.pdb
     RDKit          3D

 27 27  0  0  1  0  0  0  0  0999 V2000
   23.9028   -9.4865  -18.0113 N   0  0  0  0  0  0  0  0  0  0  0  0
   23.7136   -9.0841  -16.6297 C   0  0  1  0  0  0  0  0  0  0  0  0
   24.9513   -8.7052  -15.9129 C   0  0  0  0  0  0  0  0  0  0  0  0
   26.0843   -9.6464  -16.0370 C   0  0  0  0  0  0  0  0  0  0  0  0
   26.1012  -10.8565  -15.3751 C   0  0  0  0  0  0  0  0  0  0  0  0
   27.1550  -11.7392  -15.4838 C   0  0  0  0  0  0  0  0  0  0  0  0
   28.2525  -11.4411  -16.2726 C   0  0  0  0  0  0  0  0  0  0  0  0
   28.2448  -10.2359  -16.9370 C   0  0  0  0  0  0  0  0  0  0  0  0
   27.1926   -9.3553  -16.8280 C   0  0  0  0  0  0  0  0  0  0  0  0
   22.5632   -8.1613  -16.4963 C   0  0  0  0  0  0  0  0  0  0  0  0
   22.3250   -7.2219  -17.2805 O   0  0  0  0  0  0  0  0  0  0  0  0
   16.9873  -10.9503  -16.1738 N   0  0  0  0  0  0  0  0  0  0  0  0
   17.5016   -9.8676  -15.3833 C   0  0  0  0  0  0  0  0  0  0  0  0
   16.8627   -9.5270  -14.3619 O   0  0  0  0  0  0  0  0  0  0  0  0
   18.7276   -9.1986  -15.7780 C   0  0  0  0  0  0  0  0  0  0  0  0
   19.2067   -8.0828  -14.9121 C   0  0  0  0  0  0  0  0  0  0  0  0
   20.5251   -7.4886  -15.2465 C   0  0  2  0  0  0  0  0  0  0  0  0
   21.6441   -8.3341  -15.3909 N   0  0  0  0  0  0  0  0  0  0  0  0
   20.7126   -6.2142  -14.5252 C   0  0  0  0  0  0  0  0  0  0  0  0
   21.3537   -6.2890  -13.4212 O   0  0  0  0  0  0  0  0  0  0  0  0
   20.2669   -4.9352  -14.9049 N   0  0  0  0  0  0  0  0  0  0  0  0
   20.6359   -3.7301  -14.1684 C   0  0  1  0  0  0  0  0  0  0  0  0
   22.0894   -3.4107  -14.2050 C   0  0  0  0  0  0  0  0  0  0  0  0
   22.5362   -3.2171  -15.9771 S   0  0  0  0  0  0  0  0  0  0  0  0
   19.8267   -2.6089  -14.7015 C   0  0  0  0  0  0  0  0  0  0  0  0
   19.1113   -2.7380  -15.7428 O   0  0  0  0  0  0  0  0  0  0  0  0
   19.7986   -1.3564  -14.1025 O   0  0  0  0  0  0  0  0  0  0  0  0
  2  1  1  6
  2  3  1  0
  4  3  1  0
  5  4  2  0
  6  5  1  0
  7  6  2  0
  7  8  1  0
  8  9  2  0
  9  4  1  0
 10 18  1  0
 10  2  1  0
 11 10  2  0
 13 12  1  0
 14 13  2  0
 15 13  1  0
 17 16  1  1
 16 15  1  0
 17 18  1  0
 19 21  1  0
 19 17  1  0
 20 19  2  0
 22 25  1  0
 22 21  1  0
 22 23  1  6
 24 23  1  0
 25 27  1  0
 26 25  2  0
M  END
$$$$
