FQC.pdb
     RDKit          3D

 27 27  0  0  1  0  0  0  0  0999 V2000
   25.6204  -18.9847   -7.7519 N   0  0  0  0  0  0  0  0  0  0  0  0
   26.5135  -19.8689   -8.4778 C   0  0  1  0  0  0  0  0  0  0  0  0
   27.1351  -20.9368   -7.6637 C   0  0  0  0  0  0  0  0  0  0  0  0
   27.8493  -20.4909   -6.4488 C   0  0  0  0  0  0  0  0  0  0  0  0
   29.1644  -20.0765   -6.4885 C   0  0  0  0  0  0  0  0  0  0  0  0
   29.8386  -19.6609   -5.3595 C   0  0  0  0  0  0  0  0  0  0  0  0
   29.2129  -19.6432   -4.1251 C   0  0  0  0  0  0  0  0  0  0  0  0
   27.9007  -20.0549   -4.0755 C   0  0  0  0  0  0  0  0  0  0  0  0
   27.2284  -20.4695   -5.2027 C   0  0  0  0  0  0  0  0  0  0  0  0
   25.9197  -20.2830   -9.7695 C   0  0  0  0  0  0  0  0  0  0  0  0
   24.7361  -20.6482   -9.9105 O   0  0  0  0  0  0  0  0  0  0  0  0
   26.9926  -21.0486  -15.7674 N   0  0  0  0  0  0  0  0  0  0  0  0
   28.1081  -21.2608  -14.8886 C   0  0  0  0  0  0  0  0  0  0  0  0
   28.9701  -22.1052  -15.2221 O   0  0  0  0  0  0  0  0  0  0  0  0
   28.2114  -20.5087  -13.6516 C   0  0  0  0  0  0  0  0  0  0  0  0
   27.0985  -19.5703  -13.3271 C   0  0  0  0  0  0  0  0  0  0  0  0
   26.1930  -19.9570  -12.2164 C   0  0  2  0  0  0  0  0  0  0  0  0
   26.7446  -20.2787  -10.9594 N   0  0  0  0  0  0  0  0  0  0  0  0
   25.0904  -20.7989  -12.7213 C   0  0  0  0  0  0  0  0  0  0  0  0
   25.3309  -22.0536  -12.7805 O   0  0  0  0  0  0  0  0  0  0  0  0
   23.8153  -20.3851  -13.1473 N   0  0  0  0  0  0  0  0  0  0  0  0
   22.7995  -21.3303  -13.6009 C   0  0  1  0  0  0  0  0  0  0  0  0
   21.4003  -20.9084  -13.3178 C   0  0  0  0  0  0  0  0  0  0  0  0
   20.3197  -22.2981  -13.8457 S   0  0  0  0  0  0  0  0  0  0  0  0
   23.0085  -21.5573  -15.0503 C   0  0  0  0  0  0  0  0  0  0  0  0
   22.9738  -22.7220  -15.5555 O   0  0  0  0  0  0  0  0  0  0  0  0
   23.2535  -20.5210  -15.9415 O   0  0  0  0  0  0  0  0  0  0  0  0
  2  1  1  1
  2  3  1  0
  4  3  1  0
  5  4  2  0
  6  5  1  0
  7  6  2  0
  7  8  1  0
  8  9  2  0
  9  4  1  0
 10 18  1  0
 10  2  1  0
 11 10  2  0
 13 12  1  0
 14 13  2  0
 15 13  1  0
 17 16  1  6
 16 15  1  0
 17 18  1  0
 19 21  1  0
 19 17  1  0
 20 19  2  0
 22 25  1  0
 22 21  1  0
 22 23  1  6
 24 23  1  0
 25 27  1  0
 26 25  2  0
M  END
$$$$
