FQC.pdb
     RDKit          3D

 27 27  0  0  1  0  0  0  0  0999 V2000
   28.2605  -20.9214   -9.3096 N   0  0  0  0  0  0  0  0  0  0  0  0
   26.8447  -20.6316   -9.1754 C   0  0  1  0  0  0  0  0  0  0  0  0
   26.4944  -19.7255   -8.0593 C   0  0  0  0  0  0  0  0  0  0  0  0
   27.3209  -19.8514   -6.8403 C   0  0  0  0  0  0  0  0  0  0  0  0
   26.8338  -20.4313   -5.6874 C   0  0  0  0  0  0  0  0  0  0  0  0
   27.5975  -20.5508   -4.5453 C   0  0  0  0  0  0  0  0  0  0  0  0
   28.9010  -20.0871   -4.5111 C   0  0  0  0  0  0  0  0  0  0  0  0
   29.3959  -19.5070   -5.6568 C   0  0  0  0  0  0  0  0  0  0  0  0
   28.6331  -19.3880   -6.7962 C   0  0  0  0  0  0  0  0  0  0  0  0
   26.2361  -20.3270  -10.4905 C   0  0  0  0  0  0  0  0  0  0  0  0
   26.4556  -19.2850  -11.1387 O   0  0  0  0  0  0  0  0  0  0  0  0
   26.4998  -21.4063  -15.9914 N   0  0  0  0  0  0  0  0  0  0  0  0
   26.9524  -22.1922  -14.8782 C   0  0  0  0  0  0  0  0  0  0  0  0
   28.0034  -22.8588  -15.0146 O   0  0  0  0  0  0  0  0  0  0  0  0
   26.1950  -22.2017  -13.6402 C   0  0  0  0  0  0  0  0  0  0  0  0
   25.0070  -21.3038  -13.5587 C   0  0  0  0  0  0  0  0  0  0  0  0
   24.5388  -20.9268  -12.2016 C   0  0  2  0  0  0  0  0  0  0  0  0
   25.3198  -21.2794  -11.0819 N   0  0  0  0  0  0  0  0  0  0  0  0
   23.0749  -21.0880  -12.0994 C   0  0  0  0  0  0  0  0  0  0  0  0
   22.6447  -21.5765  -10.9985 O   0  0  0  0  0  0  0  0  0  0  0  0
   22.1035  -20.7741  -13.0670 N   0  0  0  0  0  0  0  0  0  0  0  0
   20.7711  -20.2972  -12.7087 C   0  0  1  0  0  0  0  0  0  0  0  0
   20.7645  -19.0411  -11.9099 C   0  0  0  0  0  0  0  0  0  0  0  0
   19.0220  -18.7568  -11.3995 S   0  0  0  0  0  0  0  0  0  0  0  0
   19.9951  -20.1404  -13.9614 C   0  0  0  0  0  0  0  0  0  0  0  0
   18.7989  -20.5551  -14.0620 O   0  0  0  0  0  0  0  0  0  0  0  0
   20.5207  -19.5357  -15.0955 O   0  0  0  0  0  0  0  0  0  0  0  0
  2  1  1  6
  2  3  1  0
  4  3  1  0
  5  4  2  0
  6  5  1  0
  7  6  2  0
  7  8  1  0
  8  9  2  0
  9  4  1  0
 10 18  1  0
 10  2  1  0
 11 10  2  0
 13 12  1  0
 14 13  2  0
 15 13  1  0
 17 16  1  6
 16 15  1  0
 17 18  1  0
 19 21  1  0
 19 17  1  0
 20 19  2  0
 22 25  1  0
 22 21  1  0
 22 23  1  6
 24 23  1  0
 25 27  1  0
 26 25  2  0
M  END
$$$$
