FQC.pdb
     RDKit          3D

 27 27  0  0  1  0  0  0  0  0999 V2000
   25.1691  -11.1126  -18.4159 N   0  0  0  0  0  0  0  0  0  0  0  0
   24.2140  -11.2750  -17.3352 C   0  0  1  0  0  0  0  0  0  0  0  0
   24.8045  -11.6330  -16.0265 C   0  0  0  0  0  0  0  0  0  0  0  0
   25.7414  -12.7762  -16.0308 C   0  0  0  0  0  0  0  0  0  0  0  0
   25.3232  -14.0589  -16.3181 C   0  0  0  0  0  0  0  0  0  0  0  0
   26.1902  -15.1313  -16.3222 C   0  0  0  0  0  0  0  0  0  0  0  0
   27.5330  -14.9597  -16.0342 C   0  0  0  0  0  0  0  0  0  0  0  0
   27.9598  -13.6834  -15.7463 C   0  0  0  0  0  0  0  0  0  0  0  0
   27.0938  -12.6136  -15.7424 C   0  0  0  0  0  0  0  0  0  0  0  0
   23.2190  -10.1784  -17.3341 C   0  0  0  0  0  0  0  0  0  0  0  0
   23.4228   -9.0480  -17.8188 O   0  0  0  0  0  0  0  0  0  0  0  0
   16.7902  -10.3884  -17.5801 N   0  0  0  0  0  0  0  0  0  0  0  0
   17.1889   -9.0091  -17.5625 C   0  0  0  0  0  0  0  0  0  0  0  0
   16.3293   -8.1426  -17.8413 O   0  0  0  0  0  0  0  0  0  0  0  0
   18.5562   -8.6524  -17.2314 C   0  0  0  0  0  0  0  0  0  0  0  0
   19.5251   -9.7689  -17.0335 C   0  0  0  0  0  0  0  0  0  0  0  0
   20.9343   -9.3965  -16.7533 C   0  0  2  0  0  0  0  0  0  0  0  0
   21.9210  -10.4035  -16.7333 N   0  0  0  0  0  0  0  0  0  0  0  0
   20.9930   -8.3532  -15.7105 C   0  0  0  0  0  0  0  0  0  0  0  0
   21.1411   -8.7729  -14.5115 O   0  0  0  0  0  0  0  0  0  0  0  0
   20.9004   -6.9598  -15.8790 N   0  0  0  0  0  0  0  0  0  0  0  0
   21.1103   -6.0251  -14.7775 C   0  0  1  0  0  0  0  0  0  0  0  0
   22.5337   -5.6497  -14.5557 C   0  0  0  0  0  0  0  0  0  0  0  0
   22.5400   -4.4042  -13.2043 S   0  0  0  0  0  0  0  0  0  0  0  0
   20.2738   -4.8291  -15.0339 C   0  0  0  0  0  0  0  0  0  0  0  0
   19.7860   -4.5891  -16.1816 O   0  0  0  0  0  0  0  0  0  0  0  0
   19.9719   -3.9022  -14.0449 O   0  0  0  0  0  0  0  0  0  0  0  0
  2  1  1  6
  2  3  1  0
  4  3  1  0
  5  4  2  0
  6  5  1  0
  7  6  2  0
  7  8  1  0
  8  9  2  0
  9  4  1  0
 10 18  1  0
 10  2  1  0
 11 10  2  0
 13 12  1  0
 14 13  2  0
 15 13  1  0
 17 16  1  1
 16 15  1  0
 17 18  1  0
 19 21  1  0
 19 17  1  0
 20 19  2  0
 22 25  1  0
 22 21  1  0
 22 23  1  6
 24 23  1  0
 25 27  1  0
 26 25  2  0
M  END
$$$$
