FQC.pdb
     RDKit          3D

 27 27  0  0  1  0  0  0  0  0999 V2000
   28.1325  -21.3615   -9.8539 N   0  0  0  0  0  0  0  0  0  0  0  0
   26.7174  -21.0725   -9.7112 C   0  0  1  0  0  0  0  0  0  0  0  0
   26.3975  -19.9369   -8.8181 C   0  0  0  0  0  0  0  0  0  0  0  0
   27.1066  -19.9143   -7.5214 C   0  0  0  0  0  0  0  0  0  0  0  0
   26.9653  -20.9282   -6.5968 C   0  0  0  0  0  0  0  0  0  0  0  0
   27.6215  -20.9138   -5.3840 C   0  0  0  0  0  0  0  0  0  0  0  0
   28.4595  -19.8667   -5.0425 C   0  0  0  0  0  0  0  0  0  0  0  0
   28.6070  -18.8503   -5.9586 C   0  0  0  0  0  0  0  0  0  0  0  0
   27.9516  -18.8653   -7.1689 C   0  0  0  0  0  0  0  0  0  0  0  0
   26.0340  -21.0937  -11.0246 C   0  0  0  0  0  0  0  0  0  0  0  0
   26.5367  -20.6657  -12.0821 O   0  0  0  0  0  0  0  0  0  0  0  0
   26.3247  -24.2442  -15.0502 N   0  0  0  0  0  0  0  0  0  0  0  0
   24.9576  -24.0043  -14.6825 C   0  0  0  0  0  0  0  0  0  0  0  0
   24.1119  -23.8875  -15.5981 O   0  0  0  0  0  0  0  0  0  0  0  0
   24.5897  -23.9002  -13.2824 C   0  0  0  0  0  0  0  0  0  0  0  0
   23.5365  -22.9067  -12.9244 C   0  0  0  0  0  0  0  0  0  0  0  0
   23.9933  -21.6220  -12.3379 C   0  0  2  0  0  0  0  0  0  0  0  0
   24.6941  -21.6350  -11.1145 N   0  0  0  0  0  0  0  0  0  0  0  0
   22.9724  -20.5742  -12.5365 C   0  0  0  0  0  0  0  0  0  0  0  0
   22.3921  -20.1551  -11.4767 O   0  0  0  0  0  0  0  0  0  0  0  0
   22.5616  -19.9896  -13.7481 N   0  0  0  0  0  0  0  0  0  0  0  0
   21.5120  -18.9769  -13.8092 C   0  0  1  0  0  0  0  0  0  0  0  0
   21.8997  -17.7361  -14.5346 C   0  0  0  0  0  0  0  0  0  0  0  0
   20.7654  -16.4139  -13.9493 S   0  0  0  0  0  0  0  0  0  0  0  0
   20.3150  -19.6027  -14.4185 C   0  0  0  0  0  0  0  0  0  0  0  0
   19.1638  -19.0751  -14.3225 O   0  0  0  0  0  0  0  0  0  0  0  0
   20.3740  -20.7954  -15.1273 O   0  0  0  0  0  0  0  0  0  0  0  0
  2  1  1  6
  2  3  1  0
  4  3  1  0
  5  4  2  0
  6  5  1  0
  7  6  2  0
  7  8  1  0
  8  9  2  0
  9  4  1  0
 10 18  1  0
 10  2  1  0
 11 10  2  0
 13 12  1  0
 14 13  2  0
 15 13  1  0
 17 16  1  1
 16 15  1  0
 17 18  1  0
 19 21  1  0
 19 17  1  0
 20 19  2  0
 22 25  1  0
 22 21  1  0
 22 23  1  6
 24 23  1  0
 25 27  1  0
 26 25  2  0
M  END
$$$$
