FQC.pdb
     RDKit          3D

 27 27  0  0  1  0  0  0  0  0999 V2000
   26.1239  -19.5918  -11.8663 N   0  0  0  0  0  0  0  0  0  0  0  0
   25.8308  -20.9806  -11.5637 C   0  0  1  0  0  0  0  0  0  0  0  0
   25.5005  -21.2565  -10.1480 C   0  0  0  0  0  0  0  0  0  0  0  0
   26.5592  -20.9452   -9.1645 C   0  0  0  0  0  0  0  0  0  0  0  0
   26.3335  -20.1060   -8.0933 C   0  0  0  0  0  0  0  0  0  0  0  0
   27.3161  -19.8088   -7.1725 C   0  0  0  0  0  0  0  0  0  0  0  0
   28.5851  -20.3488   -7.2890 C   0  0  0  0  0  0  0  0  0  0  0  0
   28.8199  -21.1874   -8.3547 C   0  0  0  0  0  0  0  0  0  0  0  0
   27.8387  -21.4836   -9.2733 C   0  0  0  0  0  0  0  0  0  0  0  0
   24.9284  -21.5685  -12.5800 C   0  0  0  0  0  0  0  0  0  0  0  0
   23.9035  -21.0071  -13.0143 O   0  0  0  0  0  0  0  0  0  0  0  0
   26.6120  -26.1121  -16.7097 N   0  0  0  0  0  0  0  0  0  0  0  0
   26.7670  -24.6946  -16.8784 C   0  0  0  0  0  0  0  0  0  0  0  0
   27.5667  -24.2881  -17.7517 O   0  0  0  0  0  0  0  0  0  0  0  0
   26.0102  -23.7772  -16.0465 C   0  0  0  0  0  0  0  0  0  0  0  0
   25.0131  -24.3688  -15.1085 C   0  0  0  0  0  0  0  0  0  0  0  0
   24.4069  -23.4571  -14.1062 C   0  0  2  0  0  0  0  0  0  0  0  0
   25.2280  -22.8796  -13.1161 N   0  0  0  0  0  0  0  0  0  0  0  0
   23.0783  -23.9536  -13.6966 C   0  0  0  0  0  0  0  0  0  0  0  0
   23.0080  -24.4476  -12.5190 O   0  0  0  0  0  0  0  0  0  0  0  0
   21.8885  -23.9519  -14.4469 N   0  0  0  0  0  0  0  0  0  0  0  0
   20.5705  -23.9486  -13.8192 C   0  0  1  0  0  0  0  0  0  0  0  0
   20.3619  -22.8482  -12.8385 C   0  0  0  0  0  0  0  0  0  0  0  0
   19.2365  -23.5092  -11.5447 S   0  0  0  0  0  0  0  0  0  0  0  0
   19.5560  -23.9047  -14.8985 C   0  0  0  0  0  0  0  0  0  0  0  0
   19.7339  -23.2223  -15.9547 O   0  0  0  0  0  0  0  0  0  0  0  0
   18.3565  -24.6005  -14.8255 O   0  0  0  0  0  0  0  0  0  0  0  0
  2  1  1  1
  2  3  1  0
  4  3  1  0
  5  4  2  0
  6  5  1  0
  7  6  2  0
  7  8  1  0
  8  9  2  0
  9  4  1  0
 10 18  1  0
 10  2  1  0
 11 10  2  0
 13 12  1  0
 14 13  2  0
 15 13  1  0
 17 16  1  1
 16 15  1  0
 17 18  1  0
 19 21  1  0
 19 17  1  0
 20 19  2  0
 22 25  1  0
 22 21  1  0
 22 23  1  1
 24 23  1  0
 25 27  1  0
 26 25  2  0
M  END
$$$$
