FQC.pdb
     RDKit          3D

 27 27  0  0  1  0  0  0  0  0999 V2000
   25.4507  -21.7117   -7.3617 N   0  0  0  0  0  0  0  0  0  0  0  0
   25.8243  -20.6622   -8.2919 C   0  0  1  0  0  0  0  0  0  0  0  0
   27.1963  -20.1346   -8.1222 C   0  0  0  0  0  0  0  0  0  0  0  0
   27.5634  -19.7163   -6.7528 C   0  0  0  0  0  0  0  0  0  0  0  0
   28.8788  -19.6223   -6.3485 C   0  0  0  0  0  0  0  0  0  0  0  0
   29.2298  -19.2349   -5.0724 C   0  0  0  0  0  0  0  0  0  0  0  0
   28.2619  -18.9207   -4.1343 C   0  0  0  0  0  0  0  0  0  0  0  0
   26.9465  -19.0113   -4.5284 C   0  0  0  0  0  0  0  0  0  0  0  0
   26.5969  -19.3981   -5.8023 C   0  0  0  0  0  0  0  0  0  0  0  0
   25.4130  -21.0029   -9.6730 C   0  0  0  0  0  0  0  0  0  0  0  0
   25.4174  -22.1591  -10.1394 O   0  0  0  0  0  0  0  0  0  0  0  0
   20.5650  -21.7222  -12.4737 N   0  0  0  0  0  0  0  0  0  0  0  0
   20.7659  -20.5641  -11.6491 C   0  0  0  0  0  0  0  0  0  0  0  0
   19.7614  -20.0301  -11.1264 O   0  0  0  0  0  0  0  0  0  0  0  0
   22.1045  -20.0420  -11.4439 C   0  0  0  0  0  0  0  0  0  0  0  0
   23.2223  -20.7292  -12.1528 C   0  0  0  0  0  0  0  0  0  0  0  0
   24.5955  -20.2317  -11.8878 C   0  0  2  0  0  0  0  0  0  0  0  0
   24.9794  -19.9453  -10.5617 N   0  0  0  0  0  0  0  0  0  0  0  0
   25.0145  -19.2907  -12.9453 C   0  0  0  0  0  0  0  0  0  0  0  0
   24.5913  -18.0902  -12.8212 O   0  0  0  0  0  0  0  0  0  0  0  0
   25.8158  -19.5590  -14.0698 N   0  0  0  0  0  0  0  0  0  0  0  0
   26.5110  -18.5044  -14.8018 C   0  0  1  0  0  0  0  0  0  0  0  0
   27.8668  -18.1855  -14.2762 C   0  0  0  0  0  0  0  0  0  0  0  0
   28.5588  -16.8843  -15.3742 S   0  0  0  0  0  0  0  0  0  0  0  0
   26.5689  -18.9062  -16.2270 C   0  0  0  0  0  0  0  0  0  0  0  0
   26.1117  -20.0221  -16.6252 O   0  0  0  0  0  0  0  0  0  0  0  0
   27.1217  -18.0961  -17.2100 O   0  0  0  0  0  0  0  0  0  0  0  0
  2  1  1  1
  2  3  1  0
  4  3  1  0
  5  4  2  0
  6  5  1  0
  7  6  2  0
  7  8  1  0
  8  9  2  0
  9  4  1  0
 10 18  1  0
 10  2  1  0
 11 10  2  0
 13 12  1  0
 14 13  2  0
 15 13  1  0
 17 16  1  1
 16 15  1  0
 17 18  1  0
 19 21  1  0
 19 17  1  0
 20 19  2  0
 22 25  1  0
 22 21  1  0
 22 23  1  1
 24 23  1  0
 25 27  1  0
 26 25  2  0
M  END
$$$$
