FQC.pdb
     RDKit          3D

 27 27  0  0  1  0  0  0  0  0999 V2000
   26.4502  -18.3458   -7.8060 N   0  0  0  0  0  0  0  0  0  0  0  0
   26.8850  -19.6602   -8.2414 C   0  0  1  0  0  0  0  0  0  0  0  0
   26.9676  -20.6786   -7.1712 C   0  0  0  0  0  0  0  0  0  0  0  0
   27.8408  -20.3442   -6.0264 C   0  0  0  0  0  0  0  0  0  0  0  0
   27.3256  -20.0111   -4.7909 C   0  0  0  0  0  0  0  0  0  0  0  0
   28.1331  -19.6958   -3.7184 C   0  0  0  0  0  0  0  0  0  0  0  0
   29.5115  -19.7015   -3.8416 C   0  0  0  0  0  0  0  0  0  0  0  0
   30.0351  -20.0326   -5.0706 C   0  0  0  0  0  0  0  0  0  0  0  0
   29.2285  -20.3472   -6.1406 C   0  0  0  0  0  0  0  0  0  0  0  0
   26.1940  -20.0645   -9.4871 C   0  0  0  0  0  0  0  0  0  0  0  0
   24.9686  -19.9396   -9.6798 O   0  0  0  0  0  0  0  0  0  0  0  0
   29.0405  -21.7048  -15.2112 N   0  0  0  0  0  0  0  0  0  0  0  0
   27.6860  -21.3087  -15.4758 C   0  0  0  0  0  0  0  0  0  0  0  0
   27.3016  -21.2789  -16.6670 O   0  0  0  0  0  0  0  0  0  0  0  0
   26.8055  -20.9536  -14.3780 C   0  0  0  0  0  0  0  0  0  0  0  0
   27.3738  -21.0098  -13.0003 C   0  0  0  0  0  0  0  0  0  0  0  0
   26.4598  -20.6742  -11.8800 C   0  0  2  0  0  0  0  0  0  0  0  0
   26.9648  -20.6501  -10.5638 N   0  0  0  0  0  0  0  0  0  0  0  0
   25.1332  -21.2841  -12.0983 C   0  0  0  0  0  0  0  0  0  0  0  0
   25.0004  -22.4883  -11.6886 O   0  0  0  0  0  0  0  0  0  0  0  0
   24.0060  -20.7014  -12.7054 N   0  0  0  0  0  0  0  0  0  0  0  0
   22.7197  -21.3873  -12.7828 C   0  0  1  0  0  0  0  0  0  0  0  0
   21.6027  -20.6725  -12.1065 C   0  0  0  0  0  0  0  0  0  0  0  0
   20.2685  -21.9107  -11.8535 S   0  0  0  0  0  0  0  0  0  0  0  0
   22.4178  -21.6216  -14.2146 C   0  0  0  0  0  0  0  0  0  0  0  0
   22.9315  -20.9077  -15.1307 O   0  0  0  0  0  0  0  0  0  0  0  0
   21.5618  -22.6275  -14.6431 O   0  0  0  0  0  0  0  0  0  0  0  0
  2  1  1  1
  2  3  1  0
  4  3  1  0
  5  4  2  0
  6  5  1  0
  7  6  2  0
  7  8  1  0
  8  9  2  0
  9  4  1  0
 10 18  1  0
 10  2  1  0
 11 10  2  0
 13 12  1  0
 14 13  2  0
 15 13  1  0
 17 16  1  6
 16 15  1  0
 17 18  1  0
 19 21  1  0
 19 17  1  0
 20 19  2  0
 22 25  1  0
 22 21  1  0
 22 23  1  6
 24 23  1  0
 25 27  1  0
 26 25  2  0
M  END
$$$$
