KHM.pdb
     RDKit          3D

 28 28  0  0  1  0  0  0  0  0999 V2000
   28.7451  -31.5379  -16.0996 N   0  0  0  0  0  0  0  0  0  0  0  0
   28.2682  -30.8257  -17.2517 C   0  0  1  0  0  0  0  0  0  0  0  0
   27.3263  -31.6580  -18.0543 C   0  0  0  0  0  0  0  0  0  0  0  0
   27.8336  -32.3158  -19.2713 C   0  0  0  0  0  0  0  0  0  0  0  0
   29.1532  -31.7826  -19.7233 C   0  0  0  0  0  0  0  0  0  0  0  0
   29.5773  -32.3880  -21.0233 C   0  0  0  0  0  0  0  0  0  0  0  0
   30.8725  -31.8844  -21.4630 N   0  0  0  0  0  0  0  0  0  0  0  0
   27.4953  -29.5887  -16.8616 C   0  0  0  0  0  0  0  0  0  0  0  0
   26.5644  -29.6177  -16.0485 O   0  0  0  0  0  0  0  0  0  0  0  0
   27.8687  -28.3832  -17.4584 N   0  0  0  0  0  0  0  0  0  0  0  0
   27.1795  -27.1124  -17.1695 C   0  0  1  0  0  0  0  0  0  0  0  0
   28.1465  -26.0248  -17.5129 C   0  0  0  0  0  0  0  0  0  0  0  0
   27.5842  -24.6726  -17.4485 C   0  0  0  0  0  0  0  0  0  0  0  0
   27.3153  -24.0130  -16.2491 C   0  0  0  0  0  0  0  0  0  0  0  0
   26.8091  -22.7991  -16.6023 N   0  0  0  0  0  0  0  0  0  0  0  0
   26.7556  -22.6847  -17.9283 C   0  0  0  0  0  0  0  0  0  0  0  0
   27.2323  -23.8369  -18.4408 N   0  0  0  0  0  0  0  0  0  0  0  0
   25.9291  -27.0794  -17.9387 C   0  0  0  0  0  0  0  0  0  0  0  0
   25.9270  -27.6137  -19.0835 O   0  0  0  0  0  0  0  0  0  0  0  0
   20.1814  -30.6188  -18.5890 C   0  0  0  0  0  0  0  0  0  0  0  0
   20.7949  -29.2997  -17.5338 S   0  0  0  0  0  0  0  0  0  0  0  0
   22.0332  -28.3486  -18.4953 C   0  0  0  0  0  0  0  0  0  0  0  0
   22.4548  -27.1992  -17.6296 C   0  0  0  0  0  0  0  0  0  0  0  0
   23.5205  -26.4004  -18.3329 C   0  0  2  0  0  0  0  0  0  0  0  0
   24.7397  -26.4909  -17.4786 N   0  0  0  0  0  0  0  0  0  0  0  0
   23.1434  -24.9785  -18.3331 C   0  0  0  0  0  0  0  0  0  0  0  0
   23.3109  -24.2995  -17.2895 O   0  0  0  0  0  0  0  0  0  0  0  0
   22.6090  -24.3012  -19.4090 O   0  0  0  0  0  0  0  0  0  0  0  0
  2  1  1  1
  2  3  1  0
  3  4  1  0
  5  4  1  0
  5  6  1  0
  7  6  1  0
  8  9  2  0
  8  2  1  0
 10  8  1  0
 11 10  1  0
 11 12  1  6
 12 13  1  0
 13 17  1  0
 13 14  2  0
 14 15  1  0
 16 15  1  0
 17 16  2  0
 18 25  1  0
 18 11  1  0
 19 18  2  0
 20 21  1  0
 21 22  1  0
 23 22  1  0
 24 23  1  1
 24 25  1  0
 26 28  1  0
 26 24  1  0
 27 26  2  0
M  END
$$$$
