KHM.pdb
     RDKit          3D

 28 28  0  0  1  0  0  0  0  0999 V2000
   26.1967  -22.2376  -16.1965 N   0  0  0  0  0  0  0  0  0  0  0  0
   25.0601  -21.4637  -16.6099 C   0  0  1  0  0  0  0  0  0  0  0  0
   24.4644  -22.0010  -17.8671 C   0  0  0  0  0  0  0  0  0  0  0  0
   25.3702  -22.5181  -18.9078 C   0  0  0  0  0  0  0  0  0  0  0  0
   24.6520  -23.0394  -20.1088 C   0  0  0  0  0  0  0  0  0  0  0  0
   25.6047  -23.4744  -21.1762 C   0  0  0  0  0  0  0  0  0  0  0  0
   24.9132  -24.0468  -22.3245 N   0  0  0  0  0  0  0  0  0  0  0  0
   23.9556  -21.5023  -15.5811 C   0  0  0  0  0  0  0  0  0  0  0  0
   23.6884  -22.5210  -14.9335 O   0  0  0  0  0  0  0  0  0  0  0  0
   23.2270  -20.3292  -15.3767 N   0  0  0  0  0  0  0  0  0  0  0  0
   22.1314  -20.2414  -14.3941 C   0  0  1  0  0  0  0  0  0  0  0  0
   21.9998  -18.7940  -14.0429 C   0  0  0  0  0  0  0  0  0  0  0  0
   20.9186  -18.4963  -13.0989 C   0  0  0  0  0  0  0  0  0  0  0  0
   20.0781  -19.4740  -12.5664 C   0  0  0  0  0  0  0  0  0  0  0  0
   19.2181  -18.8118  -11.7440 N   0  0  0  0  0  0  0  0  0  0  0  0
   19.4836  -17.5066  -11.7461 C   0  0  0  0  0  0  0  0  0  0  0  0
   20.5273  -17.3201  -12.5789 N   0  0  0  0  0  0  0  0  0  0  0  0
   20.9274  -20.8344  -14.9899 C   0  0  0  0  0  0  0  0  0  0  0  0
   20.7040  -20.6114  -16.2133 O   0  0  0  0  0  0  0  0  0  0  0  0
   16.1996  -26.9531  -14.8496 C   0  0  0  0  0  0  0  0  0  0  0  0
   17.2370  -25.8486  -13.8833 S   0  0  0  0  0  0  0  0  0  0  0  0
   17.4744  -24.3136  -14.8578 C   0  0  0  0  0  0  0  0  0  0  0  0
   18.5800  -23.5512  -14.1911 C   0  0  0  0  0  0  0  0  0  0  0  0
   18.8460  -22.2779  -14.9503 C   0  0  2  0  0  0  0  0  0  0  0  0
   20.0127  -21.6318  -14.2826 N   0  0  0  0  0  0  0  0  0  0  0  0
   17.7191  -21.3518  -14.7588 C   0  0  0  0  0  0  0  0  0  0  0  0
   17.7712  -20.5062  -13.8313 O   0  0  0  0  0  0  0  0  0  0  0  0
   16.5766  -21.3246  -15.5308 O   0  0  0  0  0  0  0  0  0  0  0  0
  2  1  1  1
  2  3  1  0
  3  4  1  0
  5  4  1  0
  5  6  1  0
  7  6  1  0
  8  9  2  0
  8  2  1  0
 10  8  1  0
 11 10  1  0
 11 12  1  6
 12 13  1  0
 13 17  1  0
 13 14  2  0
 14 15  1  0
 16 15  1  0
 17 16  2  0
 18 25  1  0
 18 11  1  0
 19 18  2  0
 20 21  1  0
 21 22  1  0
 23 22  1  0
 24 23  1  1
 24 25  1  0
 26 28  1  0
 26 24  1  0
 27 26  2  0
M  END
$$$$
