KHM.pdb
     RDKit          3D

 28 28  0  0  1  0  0  0  0  0999 V2000
   21.6660  -12.6219  -19.7144 N   0  0  0  0  0  0  0  0  0  0  0  0
   21.1976  -11.3003  -20.0237 C   0  0  1  0  0  0  0  0  0  0  0  0
   20.2156  -11.3199  -21.1458 C   0  0  0  0  0  0  0  0  0  0  0  0
   20.5074  -12.1621  -22.3191 C   0  0  0  0  0  0  0  0  0  0  0  0
   19.4316  -12.1248  -23.3540 C   0  0  0  0  0  0  0  0  0  0  0  0
   19.7540  -13.0069  -24.5177 C   0  0  0  0  0  0  0  0  0  0  0  0
   18.6354  -13.1167  -25.4456 N   0  0  0  0  0  0  0  0  0  0  0  0
   20.4743  -10.6774  -18.8538 C   0  0  0  0  0  0  0  0  0  0  0  0
   19.2919  -10.9295  -18.5952 O   0  0  0  0  0  0  0  0  0  0  0  0
   21.1936   -9.7878  -18.0537 N   0  0  0  0  0  0  0  0  0  0  0  0
   20.6001   -9.1274  -16.8769 C   0  0  1  0  0  0  0  0  0  0  0  0
   21.2777   -9.7159  -15.6810 C   0  0  0  0  0  0  0  0  0  0  0  0
   20.8827   -9.1138  -14.4043 C   0  0  0  0  0  0  0  0  0  0  0  0
   19.8015   -9.5664  -13.6479 C   0  0  0  0  0  0  0  0  0  0  0  0
   19.7598   -8.7637  -12.5486 N   0  0  0  0  0  0  0  0  0  0  0  0
   20.7394   -7.8622  -12.5927 C   0  0  0  0  0  0  0  0  0  0  0  0
   21.4240   -8.0826  -13.7330 N   0  0  0  0  0  0  0  0  0  0  0  0
   20.7761   -7.6769  -17.0230 C   0  0  0  0  0  0  0  0  0  0  0  0
   21.8977   -7.2567  -17.4252 O   0  0  0  0  0  0  0  0  0  0  0  0
   16.2922   -2.1444  -16.4823 C   0  0  0  0  0  0  0  0  0  0  0  0
   17.1206   -2.6083  -18.0082 S   0  0  0  0  0  0  0  0  0  0  0  0
   18.7920   -3.2217  -17.5696 C   0  0  0  0  0  0  0  0  0  0  0  0
   18.6613   -4.6996  -17.3531 C   0  0  0  0  0  0  0  0  0  0  0  0
   19.9917   -5.2695  -16.9367 C   0  0  2  0  0  0  0  0  0  0  0  0
   19.7750   -6.7324  -16.7427 N   0  0  0  0  0  0  0  0  0  0  0  0
   20.3533   -4.7450  -15.6107 C   0  0  0  0  0  0  0  0  0  0  0  0
   19.8564   -5.2744  -14.5855 O   0  0  0  0  0  0  0  0  0  0  0  0
   21.2173   -3.6943  -15.3835 O   0  0  0  0  0  0  0  0  0  0  0  0
  2  1  1  1
  2  3  1  0
  3  4  1  0
  5  4  1  0
  5  6  1  0
  7  6  1  0
  8  9  2  0
  8  2  1  0
 10  8  1  0
 11 10  1  0
 11 12  1  1
 12 13  1  0
 13 17  1  0
 13 14  2  0
 14 15  1  0
 16 15  1  0
 17 16  2  0
 18 25  1  0
 18 11  1  0
 19 18  2  0
 20 21  1  0
 21 22  1  0
 23 22  1  0
 24 23  1  1
 24 25  1  0
 26 28  1  0
 26 24  1  0
 27 26  2  0
M  END
$$$$
