KHM.pdb
     RDKit          3D

 28 28  0  0  1  0  0  0  0  0999 V2000
   23.5616  -13.7914  -14.8273 N   0  0  0  0  0  0  0  0  0  0  0  0
   24.2128  -12.9090  -15.7541 C   0  0  1  0  0  0  0  0  0  0  0  0
   24.5561  -13.6111  -17.0243 C   0  0  0  0  0  0  0  0  0  0  0  0
   25.3004  -14.8803  -16.9454 C   0  0  0  0  0  0  0  0  0  0  0  0
   25.5970  -15.3039  -15.5445 C   0  0  0  0  0  0  0  0  0  0  0  0
   26.3568  -16.5913  -15.5061 C   0  0  0  0  0  0  0  0  0  0  0  0
   27.7981  -16.3749  -15.5213 N   0  0  0  0  0  0  0  0  0  0  0  0
   23.3197  -11.7571  -16.1483 C   0  0  0  0  0  0  0  0  0  0  0  0
   23.5730  -11.0205  -17.1084 O   0  0  0  0  0  0  0  0  0  0  0  0
   22.1737  -11.5411  -15.3810 N   0  0  0  0  0  0  0  0  0  0  0  0
   21.2071  -10.4715  -15.6893 C   0  0  1  0  0  0  0  0  0  0  0  0
   19.9264  -10.8604  -15.0228 C   0  0  0  0  0  0  0  0  0  0  0  0
   19.1005  -11.7924  -15.7962 C   0  0  0  0  0  0  0  0  0  0  0  0
   19.4479  -12.2464  -17.0687 C   0  0  0  0  0  0  0  0  0  0  0  0
   18.4429  -13.0836  -17.4477 N   0  0  0  0  0  0  0  0  0  0  0  0
   17.5180  -13.1634  -16.4926 C   0  0  0  0  0  0  0  0  0  0  0  0
   17.9275  -12.3693  -15.4829 N   0  0  0  0  0  0  0  0  0  0  0  0
   21.7683   -9.1947  -15.2298 C   0  0  0  0  0  0  0  0  0  0  0  0
   22.4304   -9.1949  -14.1538 O   0  0  0  0  0  0  0  0  0  0  0  0
   24.6548   -2.3449  -17.4932 C   0  0  0  0  0  0  0  0  0  0  0  0
   23.9602   -3.9534  -17.8934 S   0  0  0  0  0  0  0  0  0  0  0  0
   23.4230   -4.7337  -16.3235 C   0  0  0  0  0  0  0  0  0  0  0  0
   22.8154   -6.0548  -16.6893 C   0  0  0  0  0  0  0  0  0  0  0  0
   22.2736   -6.7223  -15.4527 C   0  0  2  0  0  0  0  0  0  0  0  0
   21.6128   -7.9776  -15.9134 N   0  0  0  0  0  0  0  0  0  0  0  0
   21.1975   -5.8957  -14.8843 C   0  0  0  0  0  0  0  0  0  0  0  0
   20.0159   -6.0771  -15.2703 O   0  0  0  0  0  0  0  0  0  0  0  0
   21.3729   -4.9113  -13.9344 O   0  0  0  0  0  0  0  0  0  0  0  0
  2  1  1  1
  2  3  1  0
  3  4  1  0
  5  4  1  0
  5  6  1  0
  7  6  1  0
  8  9  2  0
  8  2  1  0
 10  8  1  0
 11 10  1  0
 11 12  1  1
 12 13  1  0
 13 17  1  0
 13 14  2  0
 14 15  1  0
 16 15  1  0
 17 16  2  0
 18 25  1  0
 18 11  1  0
 19 18  2  0
 20 21  1  0
 21 22  1  0
 23 22  1  0
 24 23  1  6
 24 25  1  0
 26 28  1  0
 26 24  1  0
 27 26  2  0
M  END
$$$$
