KHM.pdb
     RDKit          3D

 28 28  0  0  1  0  0  0  0  0999 V2000
   22.1850  -21.9140  -15.9723 N   0  0  0  0  0  0  0  0  0  0  0  0
   22.6394  -21.9967  -14.6127 C   0  0  1  0  0  0  0  0  0  0  0  0
   23.5636  -20.8750  -14.2787 C   0  0  0  0  0  0  0  0  0  0  0  0
   24.7033  -20.6141  -15.1754 C   0  0  0  0  0  0  0  0  0  0  0  0
   25.5961  -21.7977  -15.3539 C   0  0  0  0  0  0  0  0  0  0  0  0
   26.6152  -21.5644  -16.4230 C   0  0  0  0  0  0  0  0  0  0  0  0
   27.3965  -22.7626  -16.7030 N   0  0  0  0  0  0  0  0  0  0  0  0
   21.4936  -21.8918  -13.6348 C   0  0  0  0  0  0  0  0  0  0  0  0
   21.6703  -21.7904  -12.4154 O   0  0  0  0  0  0  0  0  0  0  0  0
   20.1993  -21.9136  -14.1573 N   0  0  0  0  0  0  0  0  0  0  0  0
   19.0010  -21.8462  -13.3011 C   0  0  1  0  0  0  0  0  0  0  0  0
   18.2743  -20.6007  -13.6963 C   0  0  0  0  0  0  0  0  0  0  0  0
   18.8127  -19.3724  -13.1046 C   0  0  0  0  0  0  0  0  0  0  0  0
   19.1640  -19.2624  -11.7591 C   0  0  0  0  0  0  0  0  0  0  0  0
   19.6166  -17.9879  -11.6000 N   0  0  0  0  0  0  0  0  0  0  0  0
   19.5613  -17.3265  -12.7548 C   0  0  0  0  0  0  0  0  0  0  0  0
   19.0676  -18.1812  -13.6730 N   0  0  0  0  0  0  0  0  0  0  0  0
   18.2316  -23.0834  -13.4846 C   0  0  0  0  0  0  0  0  0  0  0  0
   17.8515  -23.3732  -14.6541 O   0  0  0  0  0  0  0  0  0  0  0  0
   20.0839  -28.3835   -9.6168 C   0  0  0  0  0  0  0  0  0  0  0  0
   19.5311  -28.0475  -11.2935 S   0  0  0  0  0  0  0  0  0  0  0  0
   18.4608  -26.5596  -11.2388 C   0  0  0  0  0  0  0  0  0  0  0  0
   17.9510  -26.3488  -12.6330 C   0  0  0  0  0  0  0  0  0  0  0  0
   17.0312  -25.1565  -12.6605 C   0  0  2  0  0  0  0  0  0  0  0  0
   17.8944  -23.9602  -12.4405 N   0  0  0  0  0  0  0  0  0  0  0  0
   16.1284  -25.2104  -11.5003 C   0  0  0  0  0  0  0  0  0  0  0  0
   15.1828  -26.0375  -11.4970 O   0  0  0  0  0  0  0  0  0  0  0  0
   16.2305  -24.4129  -10.3798 O   0  0  0  0  0  0  0  0  0  0  0  0
  2  1  1  6
  2  3  1  0
  3  4  1  0
  5  4  1  0
  5  6  1  0
  7  6  1  0
  8  9  2  0
  8  2  1  0
 10  8  1  0
 11 10  1  0
 11 12  1  6
 12 13  1  0
 13 17  1  0
 13 14  2  0
 14 15  1  0
 16 15  1  0
 17 16  2  0
 18 25  1  0
 18 11  1  0
 19 18  2  0
 20 21  1  0
 21 22  1  0
 23 22  1  0
 24 23  1  1
 24 25  1  0
 26 28  1  0
 26 24  1  0
 27 26  2  0
M  END
$$$$
