KHM.pdb
     RDKit          3D

 28 28  0  0  1  0  0  0  0  0999 V2000
   24.0311  -18.0385  -20.3022 N   0  0  0  0  0  0  0  0  0  0  0  0
   23.6173  -17.6659  -18.9787 C   0  0  1  0  0  0  0  0  0  0  0  0
   22.4094  -16.7920  -19.0123 C   0  0  0  0  0  0  0  0  0  0  0  0
   21.7907  -16.4997  -20.3172 C   0  0  0  0  0  0  0  0  0  0  0  0
   20.9324  -17.6113  -20.8250 C   0  0  0  0  0  0  0  0  0  0  0  0
   20.1816  -17.2114  -22.0549 C   0  0  0  0  0  0  0  0  0  0  0  0
   19.3239  -16.0567  -21.8193 N   0  0  0  0  0  0  0  0  0  0  0  0
   23.2311  -18.8714  -18.1555 C   0  0  0  0  0  0  0  0  0  0  0  0
   22.6851  -19.8643  -18.6500 O   0  0  0  0  0  0  0  0  0  0  0  0
   23.5135  -18.8331  -16.7889 N   0  0  0  0  0  0  0  0  0  0  0  0
   23.3408  -20.0070  -15.9138 C   0  0  1  0  0  0  0  0  0  0  0  0
   24.4448  -19.9443  -14.9074 C   0  0  0  0  0  0  0  0  0  0  0  0
   24.4343  -21.0358  -13.9290 C   0  0  0  0  0  0  0  0  0  0  0  0
   23.3839  -21.9460  -13.8107 C   0  0  0  0  0  0  0  0  0  0  0  0
   23.7425  -22.7931  -12.8065 N   0  0  0  0  0  0  0  0  0  0  0  0
   24.9332  -22.4549  -12.3147 C   0  0  0  0  0  0  0  0  0  0  0  0
   25.3517  -21.3767  -13.0075 N   0  0  0  0  0  0  0  0  0  0  0  0
   21.9905  -19.9602  -15.3388 C   0  0  0  0  0  0  0  0  0  0  0  0
   21.6102  -18.8754  -14.8144 O   0  0  0  0  0  0  0  0  0  0  0  0
   17.4117  -24.7539  -12.3745 C   0  0  0  0  0  0  0  0  0  0  0  0
   17.3010  -24.1413  -14.0604 S   0  0  0  0  0  0  0  0  0  0  0  0
   17.8572  -22.3941  -14.0550 C   0  0  0  0  0  0  0  0  0  0  0  0
   19.1975  -22.3706  -14.7268 C   0  0  0  0  0  0  0  0  0  0  0  0
   19.7759  -20.9819  -14.6535 C   0  0  2  0  0  0  0  0  0  0  0  0
   21.0999  -21.0463  -15.3371 N   0  0  0  0  0  0  0  0  0  0  0  0
   20.0716  -20.6503  -13.2511 C   0  0  0  0  0  0  0  0  0  0  0  0
   19.3160  -19.8574  -12.6360 O   0  0  0  0  0  0  0  0  0  0  0  0
   21.1342  -21.1486  -12.5268 O   0  0  0  0  0  0  0  0  0  0  0  0
  2  1  1  6
  2  3  1  0
  3  4  1  0
  5  4  1  0
  5  6  1  0
  7  6  1  0
  8  9  2  0
  8  2  1  0
 10  8  1  0
 11 10  1  0
 11 12  1  1
 12 13  1  0
 13 17  1  0
 13 14  2  0
 14 15  1  0
 16 15  1  0
 17 16  2  0
 18 25  1  0
 18 11  1  0
 19 18  2  0
 20 21  1  0
 21 22  1  0
 23 22  1  0
 24 23  1  1
 24 25  1  0
 26 28  1  0
 26 24  1  0
 27 26  2  0
M  END
$$$$
