KHM.pdb
     RDKit          3D

 28 28  0  0  1  0  0  0  0  0999 V2000
   21.1026  -12.5676  -17.8045 N   0  0  0  0  0  0  0  0  0  0  0  0
   21.4983  -11.8267  -18.9691 C   0  0  1  0  0  0  0  0  0  0  0  0
   20.7518  -12.2761  -20.1794 C   0  0  0  0  0  0  0  0  0  0  0  0
   19.3169  -12.5832  -20.0450 C   0  0  0  0  0  0  0  0  0  0  0  0
   18.4823  -11.9878  -21.1307 C   0  0  0  0  0  0  0  0  0  0  0  0
   17.0337  -12.3148  -20.9558 C   0  0  0  0  0  0  0  0  0  0  0  0
   16.8208  -13.3074  -19.9098 N   0  0  0  0  0  0  0  0  0  0  0  0
   21.1970  -10.3545  -18.8220 C   0  0  0  0  0  0  0  0  0  0  0  0
   21.5808   -9.5141  -19.6436 O   0  0  0  0  0  0  0  0  0  0  0  0
   20.4565   -9.9587  -17.7067 N   0  0  0  0  0  0  0  0  0  0  0  0
   20.0973   -8.5510  -17.4565 C   0  0  1  0  0  0  0  0  0  0  0  0
   18.7521   -8.5723  -16.8039 C   0  0  0  0  0  0  0  0  0  0  0  0
   18.2597   -7.2553  -16.3895 C   0  0  0  0  0  0  0  0  0  0  0  0
   18.0816   -6.1925  -17.2753 C   0  0  0  0  0  0  0  0  0  0  0  0
   17.6172   -5.1584  -16.5206 N   0  0  0  0  0  0  0  0  0  0  0  0
   17.5045   -5.5263  -15.2454 C   0  0  0  0  0  0  0  0  0  0  0  0
   17.9001   -6.8130  -15.1721 N   0  0  0  0  0  0  0  0  0  0  0  0
   21.1575   -7.9407  -16.6442 C   0  0  0  0  0  0  0  0  0  0  0  0
   21.7338   -8.6664  -15.7854 O   0  0  0  0  0  0  0  0  0  0  0  0
   27.0446   -2.9491  -16.3437 C   0  0  0  0  0  0  0  0  0  0  0  0
   25.7190   -3.7439  -17.2607 S   0  0  0  0  0  0  0  0  0  0  0  0
   24.6370   -4.5949  -16.0494 C   0  0  0  0  0  0  0  0  0  0  0  0
   23.5668   -5.2832  -16.8425 C   0  0  0  0  0  0  0  0  0  0  0  0
   22.6452   -6.0258  -15.9110 C   0  0  2  0  0  0  0  0  0  0  0  0
   21.5671   -6.6027  -16.7651 N   0  0  0  0  0  0  0  0  0  0  0  0
   21.9730   -5.0654  -15.0222 C   0  0  0  0  0  0  0  0  0  0  0  0
   20.9469   -4.4664  -15.4305 O   0  0  0  0  0  0  0  0  0  0  0  0
   22.3774   -4.7553  -13.7407 O   0  0  0  0  0  0  0  0  0  0  0  0
  2  1  1  1
  2  3  1  0
  3  4  1  0
  5  4  1  0
  5  6  1  0
  7  6  1  0
  8  9  2  0
  8  2  1  0
 10  8  1  0
 11 10  1  0
 11 12  1  1
 12 13  1  0
 13 17  1  0
 13 14  2  0
 14 15  1  0
 16 15  1  0
 17 16  2  0
 18 25  1  0
 18 11  1  0
 19 18  2  0
 20 21  1  0
 21 22  1  0
 23 22  1  0
 24 23  1  6
 24 25  1  0
 26 28  1  0
 26 24  1  0
 27 26  2  0
M  END
$$$$
