KHM.pdb
     RDKit          3D

 28 28  0  0  1  0  0  0  0  0999 V2000
   26.4822  -16.5519  -17.2298 N   0  0  0  0  0  0  0  0  0  0  0  0
   26.8338  -17.7726  -16.5602 C   0  0  1  0  0  0  0  0  0  0  0  0
   28.2804  -17.7975  -16.1985 C   0  0  0  0  0  0  0  0  0  0  0  0
   29.2758  -17.7737  -17.2847 C   0  0  0  0  0  0  0  0  0  0  0  0
   29.2935  -19.0273  -18.0958 C   0  0  0  0  0  0  0  0  0  0  0  0
   30.3978  -19.0170  -19.1041 C   0  0  0  0  0  0  0  0  0  0  0  0
   30.3772  -20.2052  -19.9481 N   0  0  0  0  0  0  0  0  0  0  0  0
   26.0812  -17.9322  -15.2610 C   0  0  0  0  0  0  0  0  0  0  0  0
   26.0610  -17.0507  -14.3942 O   0  0  0  0  0  0  0  0  0  0  0  0
   25.3935  -19.1303  -15.0600 N   0  0  0  0  0  0  0  0  0  0  0  0
   24.5556  -19.3698  -13.8709 C   0  0  1  0  0  0  0  0  0  0  0  0
   23.3838  -20.1716  -14.3397 C   0  0  0  0  0  0  0  0  0  0  0  0
   22.4421  -20.5435  -13.2797 C   0  0  0  0  0  0  0  0  0  0  0  0
   22.5561  -20.0944  -11.9640 C   0  0  0  0  0  0  0  0  0  0  0  0
   21.5088  -20.6496  -11.2936 N   0  0  0  0  0  0  0  0  0  0  0  0
   20.7755  -21.3997  -12.1144 C   0  0  0  0  0  0  0  0  0  0  0  0
   21.3533  -21.3302  -13.3304 N   0  0  0  0  0  0  0  0  0  0  0  0
   25.3783  -20.0339  -12.8519 C   0  0  0  0  0  0  0  0  0  0  0  0
   26.0945  -21.0089  -13.2161 O   0  0  0  0  0  0  0  0  0  0  0  0
   27.9315  -19.8117   -5.4044 C   0  0  0  0  0  0  0  0  0  0  0  0
   26.9781  -19.0452   -6.7210 S   0  0  0  0  0  0  0  0  0  0  0  0
   27.0384  -20.1618   -8.1742 C   0  0  0  0  0  0  0  0  0  0  0  0
   26.2566  -19.4890   -9.2624 C   0  0  0  0  0  0  0  0  0  0  0  0
   26.2999  -20.3304  -10.5108 C   0  0  2  0  0  0  0  0  0  0  0  0
   25.4156  -19.6508  -11.5012 N   0  0  0  0  0  0  0  0  0  0  0  0
   25.6670  -21.6313  -10.2442 C   0  0  0  0  0  0  0  0  0  0  0  0
   24.4230  -21.6853  -10.0772 O   0  0  0  0  0  0  0  0  0  0  0  0
   26.3353  -22.8348  -10.1612 O   0  0  0  0  0  0  0  0  0  0  0  0
  2  1  1  1
  2  3  1  0
  3  4  1  0
  5  4  1  0
  5  6  1  0
  7  6  1  0
  8  9  2  0
  8  2  1  0
 10  8  1  0
 11 10  1  0
 11 12  1  6
 12 13  1  0
 13 17  1  0
 13 14  2  0
 14 15  1  0
 16 15  1  0
 17 16  2  0
 18 25  1  0
 18 11  1  0
 19 18  2  0
 20 21  1  0
 21 22  1  0
 23 22  1  0
 24 23  1  1
 24 25  1  0
 26 28  1  0
 26 24  1  0
 27 26  2  0
M  END
$$$$
