KHM.pdb
     RDKit          3D

 28 28  0  0  1  0  0  0  0  0999 V2000
   24.7308  -16.2552  -17.1823 N   0  0  0  0  0  0  0  0  0  0  0  0
   24.6887  -15.0768  -18.0017 C   0  0  1  0  0  0  0  0  0  0  0  0
   24.3289  -15.4066  -19.4108 C   0  0  0  0  0  0  0  0  0  0  0  0
   25.1692  -16.3710  -20.1423 C   0  0  0  0  0  0  0  0  0  0  0  0
   25.0634  -17.7640  -19.6147 C   0  0  0  0  0  0  0  0  0  0  0  0
   25.9735  -18.7008  -20.3430 C   0  0  0  0  0  0  0  0  0  0  0  0
   25.9269  -20.0481  -19.7888 N   0  0  0  0  0  0  0  0  0  0  0  0
   23.6372  -14.1037  -17.5248 C   0  0  0  0  0  0  0  0  0  0  0  0
   23.1533  -13.2370  -18.2618 O   0  0  0  0  0  0  0  0  0  0  0  0
   23.2170  -14.2114  -16.1979 N   0  0  0  0  0  0  0  0  0  0  0  0
   22.2186  -13.3001  -15.6094 C   0  0  1  0  0  0  0  0  0  0  0  0
   21.3539  -14.1414  -14.7261 C   0  0  0  0  0  0  0  0  0  0  0  0
   20.2987  -14.8738  -15.4325 C   0  0  0  0  0  0  0  0  0  0  0  0
   20.0628  -14.7437  -16.8012 C   0  0  0  0  0  0  0  0  0  0  0  0
   19.0179  -15.5729  -17.0749 N   0  0  0  0  0  0  0  0  0  0  0  0
   18.6109  -16.1907  -15.9672 C   0  0  0  0  0  0  0  0  0  0  0  0
   19.4005  -15.7574  -14.9641 N   0  0  0  0  0  0  0  0  0  0  0  0
   22.9311  -12.2211  -14.9135 C   0  0  0  0  0  0  0  0  0  0  0  0
   23.5942  -12.5225  -13.8812 O   0  0  0  0  0  0  0  0  0  0  0  0
   28.3539  -10.8361  -16.9045 C   0  0  0  0  0  0  0  0  0  0  0  0
   27.0444   -9.6186  -16.7231 S   0  0  0  0  0  0  0  0  0  0  0  0
   25.8041  -10.3048  -15.5599 C   0  0  0  0  0  0  0  0  0  0  0  0
   24.7071   -9.2879  -15.4567 C   0  0  0  0  0  0  0  0  0  0  0  0
   23.6175   -9.8087  -14.5568 C   0  0  2  0  0  0  0  0  0  0  0  0
   22.9188  -10.8786  -15.3261 N   0  0  0  0  0  0  0  0  0  0  0  0
   22.6134   -8.7543  -14.3464 C   0  0  0  0  0  0  0  0  0  0  0  0
   21.6192   -8.6928  -15.1118 O   0  0  0  0  0  0  0  0  0  0  0  0
   22.6643   -7.7994  -13.3527 O   0  0  0  0  0  0  0  0  0  0  0  0
  2  1  1  1
  2  3  1  0
  3  4  1  0
  5  4  1  0
  5  6  1  0
  7  6  1  0
  8  9  2  0
  8  2  1  0
 10  8  1  0
 11 10  1  0
 11 12  1  1
 12 13  1  0
 13 17  1  0
 13 14  2  0
 14 15  1  0
 16 15  1  0
 17 16  2  0
 18 25  1  0
 18 11  1  0
 19 18  2  0
 20 21  1  0
 21 22  1  0
 23 22  1  0
 24 23  1  6
 24 25  1  0
 26 28  1  0
 26 24  1  0
 27 26  2  0
M  END
$$$$
