KHM.pdb
     RDKit          3D

 28 28  0  0  1  0  0  0  0  0999 V2000
   14.1398  -11.3898  -12.9534 N   0  0  0  0  0  0  0  0  0  0  0  0
   13.9117  -11.1145  -11.5627 C   0  0  1  0  0  0  0  0  0  0  0  0
   13.9907  -12.3571  -10.7419 C   0  0  0  0  0  0  0  0  0  0  0  0
   13.1384  -13.4997  -11.1148 C   0  0  0  0  0  0  0  0  0  0  0  0
   13.3178  -14.6847  -10.2239 C   0  0  0  0  0  0  0  0  0  0  0  0
   12.4305  -15.8185  -10.6279 C   0  0  0  0  0  0  0  0  0  0  0  0
   12.6447  -17.0001   -9.8018 N   0  0  0  0  0  0  0  0  0  0  0  0
   14.9577  -10.1819  -11.0004 C   0  0  0  0  0  0  0  0  0  0  0  0
   15.0289   -9.9154   -9.7952 O   0  0  0  0  0  0  0  0  0  0  0  0
   15.8629   -9.6152  -11.8994 N   0  0  0  0  0  0  0  0  0  0  0  0
   16.8813   -8.6344  -11.4817 C   0  0  1  0  0  0  0  0  0  0  0  0
   17.9215   -8.6286  -12.5557 C   0  0  0  0  0  0  0  0  0  0  0  0
   19.0402   -7.7138  -12.3096 C   0  0  0  0  0  0  0  0  0  0  0  0
   19.1554   -6.9409  -11.1541 C   0  0  0  0  0  0  0  0  0  0  0  0
   20.3113   -6.2352  -11.2973 N   0  0  0  0  0  0  0  0  0  0  0  0
   20.8967   -6.5304  -12.4567 C   0  0  0  0  0  0  0  0  0  0  0  0
   20.1121   -7.4376  -13.0723 N   0  0  0  0  0  0  0  0  0  0  0  0
   16.2183   -7.3413  -11.2703 C   0  0  0  0  0  0  0  0  0  0  0  0
   15.4875   -6.8947  -12.1990 O   0  0  0  0  0  0  0  0  0  0  0  0
   12.4482   -2.9665   -6.1901 C   0  0  0  0  0  0  0  0  0  0  0  0
   13.3754   -4.4524   -6.5928 S   0  0  0  0  0  0  0  0  0  0  0  0
   14.1674   -4.1887   -8.2255 C   0  0  0  0  0  0  0  0  0  0  0  0
   14.8915   -5.4585   -8.5589 C   0  0  0  0  0  0  0  0  0  0  0  0
   15.5778   -5.3146   -9.8918 C   0  0  2  0  0  0  0  0  0  0  0  0
   16.3486   -6.5743  -10.1008 N   0  0  0  0  0  0  0  0  0  0  0  0
   16.5846   -4.2452   -9.8087 C   0  0  0  0  0  0  0  0  0  0  0  0
   17.7663   -4.5383   -9.4989 O   0  0  0  0  0  0  0  0  0  0  0  0
   16.3425   -2.9092  -10.0503 O   0  0  0  0  0  0  0  0  0  0  0  0
  2  1  1  6
  2  3  1  0
  3  4  1  0
  5  4  1  0
  5  6  1  0
  7  6  1  0
  8  9  2  0
  8  2  1  0
 10  8  1  0
 11 10  1  0
 11 12  1  6
 12 13  1  0
 13 17  1  0
 13 14  2  0
 14 15  1  0
 16 15  1  0
 17 16  2  0
 18 25  1  0
 18 11  1  0
 19 18  2  0
 20 21  1  0
 21 22  1  0
 23 22  1  0
 24 23  1  1
 24 25  1  0
 26 28  1  0
 26 24  1  0
 27 26  2  0
M  END
$$$$
