KHM.pdb
     RDKit          3D

 28 28  0  0  1  0  0  0  0  0999 V2000
   32.6572  -32.3019  -19.4270 N   0  0  0  0  0  0  0  0  0  0  0  0
   32.1363  -31.6234  -18.2737 C   0  0  1  0  0  0  0  0  0  0  0  0
   32.3326  -30.1486  -18.3753 C   0  0  0  0  0  0  0  0  0  0  0  0
   33.6471  -29.5891  -18.0143 C   0  0  0  0  0  0  0  0  0  0  0  0
   34.6224  -30.6230  -17.5566 C   0  0  0  0  0  0  0  0  0  0  0  0
   35.9312  -30.0135  -17.1674 C   0  0  0  0  0  0  0  0  0  0  0  0
   36.9050  -31.0214  -16.7670 N   0  0  0  0  0  0  0  0  0  0  0  0
   30.6479  -31.8321  -18.1294 C   0  0  0  0  0  0  0  0  0  0  0  0
   29.9140  -32.0622  -19.0974 O   0  0  0  0  0  0  0  0  0  0  0  0
   30.1103  -31.7559  -16.8434 N   0  0  0  0  0  0  0  0  0  0  0  0
   28.6955  -32.0585  -16.5598 C   0  0  1  0  0  0  0  0  0  0  0  0
   28.6061  -32.2972  -15.0865 C   0  0  0  0  0  0  0  0  0  0  0  0
   27.2552  -32.5968  -14.6029 C   0  0  0  0  0  0  0  0  0  0  0  0
   26.1379  -32.6441  -15.4368 C   0  0  0  0  0  0  0  0  0  0  0  0
   25.0866  -32.9483  -14.6265 N   0  0  0  0  0  0  0  0  0  0  0  0
   25.4947  -33.0866  -13.3661 C   0  0  0  0  0  0  0  0  0  0  0  0
   26.8253  -32.8698  -13.3589 N   0  0  0  0  0  0  0  0  0  0  0  0
   27.8773  -30.9401  -17.0454 C   0  0  0  0  0  0  0  0  0  0  0  0
   28.2578  -29.7675  -16.7686 O   0  0  0  0  0  0  0  0  0  0  0  0
   22.9006  -28.5452  -22.5487 C   0  0  0  0  0  0  0  0  0  0  0  0
   23.8411  -29.8790  -21.7962 S   0  0  0  0  0  0  0  0  0  0  0  0
   24.5129  -29.2583  -20.2069 C   0  0  0  0  0  0  0  0  0  0  0  0
   25.3131  -30.3795  -19.6147 C   0  0  0  0  0  0  0  0  0  0  0  0
   25.9363  -29.9276  -18.3202 C   0  0  2  0  0  0  0  0  0  0  0  0
   26.7007  -31.0963  -17.7964 N   0  0  0  0  0  0  0  0  0  0  0  0
   24.8769  -29.6740  -17.3316 C   0  0  0  0  0  0  0  0  0  0  0  0
   24.3913  -30.6398  -16.6916 O   0  0  0  0  0  0  0  0  0  0  0  0
   24.3540  -28.4335  -17.0318 O   0  0  0  0  0  0  0  0  0  0  0  0
  2  1  1  6
  2  3  1  0
  3  4  1  0
  5  4  1  0
  5  6  1  0
  7  6  1  0
  8  9  2  0
  8  2  1  0
 10  8  1  0
 11 10  1  0
 11 12  1  1
 12 13  1  0
 13 17  1  0
 13 14  2  0
 14 15  1  0
 16 15  1  0
 17 16  2  0
 18 25  1  0
 18 11  1  0
 19 18  2  0
 20 21  1  0
 21 22  1  0
 23 22  1  0
 24 23  1  6
 24 25  1  0
 26 28  1  0
 26 24  1  0
 27 26  2  0
M  END
$$$$
