KHM.pdb
     RDKit          3D

 28 28  0  0  1  0  0  0  0  0999 V2000
   26.4101  -22.9968  -16.0333 N   0  0  0  0  0  0  0  0  0  0  0  0
   27.4398  -22.0822  -15.6271 C   0  0  1  0  0  0  0  0  0  0  0  0
   27.8546  -21.1954  -16.7521 C   0  0  0  0  0  0  0  0  0  0  0  0
   28.8217  -21.7146  -17.7350 C   0  0  0  0  0  0  0  0  0  0  0  0
   28.1965  -22.5874  -18.7730 C   0  0  0  0  0  0  0  0  0  0  0  0
   29.2157  -23.1357  -19.7200 C   0  0  0  0  0  0  0  0  0  0  0  0
   30.4528  -22.3655  -19.6963 N   0  0  0  0  0  0  0  0  0  0  0  0
   26.9652  -21.1606  -14.5292 C   0  0  0  0  0  0  0  0  0  0  0  0
   27.5856  -20.1414  -14.2051 O   0  0  0  0  0  0  0  0  0  0  0  0
   25.7797  -21.4988  -13.8744 N   0  0  0  0  0  0  0  0  0  0  0  0
   25.1515  -20.6175  -12.8734 C   0  0  1  0  0  0  0  0  0  0  0  0
   23.6876  -20.6156  -13.1779 C   0  0  0  0  0  0  0  0  0  0  0  0
   23.2929  -19.6924  -14.2458 C   0  0  0  0  0  0  0  0  0  0  0  0
   24.1805  -18.8069  -14.8574 C   0  0  0  0  0  0  0  0  0  0  0  0
   23.4463  -18.1316  -15.7845 N   0  0  0  0  0  0  0  0  0  0  0  0
   22.1817  -18.5496  -15.7716 C   0  0  0  0  0  0  0  0  0  0  0  0
   22.0946  -19.5065  -14.8259 N   0  0  0  0  0  0  0  0  0  0  0  0
   25.4938  -21.1189  -11.5363 C   0  0  0  0  0  0  0  0  0  0  0  0
   25.5363  -22.3704  -11.3690 O   0  0  0  0  0  0  0  0  0  0  0  0
   27.7220  -19.2050   -4.2343 C   0  0  0  0  0  0  0  0  0  0  0  0
   27.5635  -18.7437   -5.9640 S   0  0  0  0  0  0  0  0  0  0  0  0
   26.7600  -20.1395   -6.8406 C   0  0  0  0  0  0  0  0  0  0  0  0
   26.6871  -19.7502   -8.2867 C   0  0  0  0  0  0  0  0  0  0  0  0
   26.0158  -20.8458   -9.0724 C   0  0  2  0  0  0  0  0  0  0  0  0
   25.7755  -20.2922  -10.4363 N   0  0  0  0  0  0  0  0  0  0  0  0
   24.6809  -21.1016   -8.5096 C   0  0  0  0  0  0  0  0  0  0  0  0
   23.6788  -20.5564   -9.0357 O   0  0  0  0  0  0  0  0  0  0  0  0
   24.4209  -21.9131   -7.4252 O   0  0  0  0  0  0  0  0  0  0  0  0
  2  1  1  6
  2  3  1  0
  3  4  1  0
  5  4  1  0
  5  6  1  0
  7  6  1  0
  8  9  2  0
  8  2  1  0
 10  8  1  0
 11 10  1  0
 11 12  1  6
 12 13  1  0
 13 17  1  0
 13 14  2  0
 14 15  1  0
 16 15  1  0
 17 16  2  0
 18 25  1  0
 18 11  1  0
 19 18  2  0
 20 21  1  0
 21 22  1  0
 23 22  1  0
 24 23  1  1
 24 25  1  0
 26 28  1  0
 26 24  1  0
 27 26  2  0
M  END
$$$$
