KHM.pdb
     RDKit          3D

 28 28  0  0  1  0  0  0  0  0999 V2000
   28.0136  -20.0089  -16.0285 N   0  0  0  0  0  0  0  0  0  0  0  0
   28.1264  -18.8370  -15.2064 C   0  0  1  0  0  0  0  0  0  0  0  0
   27.8984  -17.5936  -15.9974 C   0  0  0  0  0  0  0  0  0  0  0  0
   28.2174  -17.6086  -17.4359 C   0  0  0  0  0  0  0  0  0  0  0  0
   29.6519  -17.9121  -17.7186 C   0  0  0  0  0  0  0  0  0  0  0  0
   29.9815  -17.7237  -19.1649 C   0  0  0  0  0  0  0  0  0  0  0  0
   29.7571  -18.9385  -19.9385 N   0  0  0  0  0  0  0  0  0  0  0  0
   27.0888  -18.8238  -14.1095 C   0  0  0  0  0  0  0  0  0  0  0  0
   26.8656  -17.8219  -13.4204 O   0  0  0  0  0  0  0  0  0  0  0  0
   26.3722  -20.0014  -13.8890 N   0  0  0  0  0  0  0  0  0  0  0  0
   25.3744  -20.1283  -12.8111 C   0  0  1  0  0  0  0  0  0  0  0  0
   24.3084  -21.0377  -13.3331 C   0  0  0  0  0  0  0  0  0  0  0  0
   23.3128  -20.3778  -14.1828 C   0  0  0  0  0  0  0  0  0  0  0  0
   23.2860  -19.0002  -14.4000 C   0  0  0  0  0  0  0  0  0  0  0  0
   22.2312  -18.7794  -15.2326 N   0  0  0  0  0  0  0  0  0  0  0  0
   21.6242  -19.9272  -15.5296 C   0  0  0  0  0  0  0  0  0  0  0  0
   22.2924  -20.9031  -14.8828 N   0  0  0  0  0  0  0  0  0  0  0  0
   26.0555  -20.6185  -11.6062 C   0  0  0  0  0  0  0  0  0  0  0  0
   26.8638  -21.5808  -11.7361 O   0  0  0  0  0  0  0  0  0  0  0  0
   30.3364  -19.3664   -6.3420 C   0  0  0  0  0  0  0  0  0  0  0  0
   28.5920  -18.9514   -6.2210 S   0  0  0  0  0  0  0  0  0  0  0  0
   27.6442  -20.2851   -7.0488 C   0  0  0  0  0  0  0  0  0  0  0  0
   27.2484  -19.7556   -8.3946 C   0  0  0  0  0  0  0  0  0  0  0  0
   26.3748  -20.7614   -9.0970 C   0  0  2  0  0  0  0  0  0  0  0  0
   25.8619  -20.0829  -10.3222 N   0  0  0  0  0  0  0  0  0  0  0  0
   25.1881  -21.0366   -8.2724 C   0  0  0  0  0  0  0  0  0  0  0  0
   24.0707  -20.5948   -8.6390 O   0  0  0  0  0  0  0  0  0  0  0  0
   25.1901  -21.7605   -7.0985 O   0  0  0  0  0  0  0  0  0  0  0  0
  2  1  1  6
  2  3  1  0
  3  4  1  0
  5  4  1  0
  5  6  1  0
  7  6  1  0
  8  9  2  0
  8  2  1  0
 10  8  1  0
 11 10  1  0
 11 12  1  6
 12 13  1  0
 13 17  1  0
 13 14  2  0
 14 15  1  0
 16 15  1  0
 17 16  2  0
 18 25  1  0
 18 11  1  0
 19 18  2  0
 20 21  1  0
 21 22  1  0
 23 22  1  0
 24 23  1  1
 24 25  1  0
 26 28  1  0
 26 24  1  0
 27 26  2  0
M  END
$$$$
