KHM.pdb
     RDKit          3D

 28 28  0  0  1  0  0  0  0  0999 V2000
   24.2761  -22.5579  -15.8112 N   0  0  0  0  0  0  0  0  0  0  0  0
   25.4054  -23.3308  -15.3762 C   0  0  1  0  0  0  0  0  0  0  0  0
   26.2609  -23.7394  -16.5275 C   0  0  0  0  0  0  0  0  0  0  0  0
   25.6755  -24.6093  -17.5627 C   0  0  0  0  0  0  0  0  0  0  0  0
   26.5068  -25.8137  -17.8598 C   0  0  0  0  0  0  0  0  0  0  0  0
   25.9347  -27.0469  -17.2369 C   0  0  0  0  0  0  0  0  0  0  0  0
   26.7173  -28.2339  -17.5580 N   0  0  0  0  0  0  0  0  0  0  0  0
   26.3029  -22.5375  -14.4570 C   0  0  0  0  0  0  0  0  0  0  0  0
   27.5059  -22.7900  -14.3250 O   0  0  0  0  0  0  0  0  0  0  0  0
   25.7237  -21.4870  -13.7430 N   0  0  0  0  0  0  0  0  0  0  0  0
   26.4860  -20.6724  -12.7793 C   0  0  1  0  0  0  0  0  0  0  0  0
   26.1416  -19.2471  -13.0719 C   0  0  0  0  0  0  0  0  0  0  0  0
   26.8166  -18.6908  -14.2482 C   0  0  0  0  0  0  0  0  0  0  0  0
   27.7259  -19.4135  -15.0207 C   0  0  0  0  0  0  0  0  0  0  0  0
   28.1273  -18.5645  -16.0069 N   0  0  0  0  0  0  0  0  0  0  0  0
   27.5231  -17.3843  -15.8799 C   0  0  0  0  0  0  0  0  0  0  0  0
   26.7209  -17.4686  -14.7997 N   0  0  0  0  0  0  0  0  0  0  0  0
   26.1390  -21.1157  -11.4231 C   0  0  0  0  0  0  0  0  0  0  0  0
   24.9701  -21.5530  -11.2267 O   0  0  0  0  0  0  0  0  0  0  0  0
   28.1736  -19.3418   -4.1975 C   0  0  0  0  0  0  0  0  0  0  0  0
   28.1206  -18.8457   -5.9240 S   0  0  0  0  0  0  0  0  0  0  0  0
   26.9251  -19.9405   -6.7810 C   0  0  0  0  0  0  0  0  0  0  0  0
   27.4451  -20.1330   -8.1741 C   0  0  0  0  0  0  0  0  0  0  0  0
   26.5467  -21.0819   -8.9229 C   0  0  2  0  0  0  0  0  0  0  0  0
   27.0267  -21.0820  -10.3351 N   0  0  0  0  0  0  0  0  0  0  0  0
   25.1842  -20.5291   -8.9694 C   0  0  0  0  0  0  0  0  0  0  0  0
   24.9091  -19.6469   -9.8203 O   0  0  0  0  0  0  0  0  0  0  0  0
   24.1485  -20.9049   -8.1399 O   0  0  0  0  0  0  0  0  0  0  0  0
  2  1  1  6
  2  3  1  0
  3  4  1  0
  5  4  1  0
  5  6  1  0
  7  6  1  0
  8  9  2  0
  8  2  1  0
 10  8  1  0
 11 10  1  0
 11 12  1  1
 12 13  1  0
 13 17  1  0
 13 14  2  0
 14 15  1  0
 16 15  1  0
 17 16  2  0
 18 25  1  0
 18 11  1  0
 19 18  2  0
 20 21  1  0
 21 22  1  0
 23 22  1  0
 24 23  1  1
 24 25  1  0
 26 28  1  0
 26 24  1  0
 27 26  2  0
M  END
$$$$
