KHM.pdb
     RDKit          3D

 28 28  0  0  1  0  0  0  0  0999 V2000
   28.4033  -21.1584  -17.9711 N   0  0  0  0  0  0  0  0  0  0  0  0
   27.6297  -20.1127  -17.3631 C   0  0  1  0  0  0  0  0  0  0  0  0
   26.7516  -19.4355  -18.3602 C   0  0  0  0  0  0  0  0  0  0  0  0
   27.1298  -19.4949  -19.7831 C   0  0  0  0  0  0  0  0  0  0  0  0
   26.0646  -20.0775  -20.6525 C   0  0  0  0  0  0  0  0  0  0  0  0
   26.4958  -20.1467  -22.0827 C   0  0  0  0  0  0  0  0  0  0  0  0
   26.4586  -21.5095  -22.5985 N   0  0  0  0  0  0  0  0  0  0  0  0
   26.7049  -20.6510  -16.2978 C   0  0  0  0  0  0  0  0  0  0  0  0
   25.7488  -21.3891  -16.5615 O   0  0  0  0  0  0  0  0  0  0  0  0
   26.9646  -20.2837  -14.9763 N   0  0  0  0  0  0  0  0  0  0  0  0
   26.1384  -20.7535  -13.8493 C   0  0  1  0  0  0  0  0  0  0  0  0
   26.8471  -20.3255  -12.6043 C   0  0  0  0  0  0  0  0  0  0  0  0
   26.1640  -20.6959  -11.3614 C   0  0  0  0  0  0  0  0  0  0  0  0
   24.9956  -21.4572  -11.3291 C   0  0  0  0  0  0  0  0  0  0  0  0
   24.6765  -21.5859  -10.0115 N   0  0  0  0  0  0  0  0  0  0  0  0
   25.5710  -20.9556   -9.2520 C   0  0  0  0  0  0  0  0  0  0  0  0
   26.4801  -20.4122  -10.0860 N   0  0  0  0  0  0  0  0  0  0  0  0
   24.7883  -20.1967  -14.0024 C   0  0  0  0  0  0  0  0  0  0  0  0
   24.6855  -18.9759  -14.3110 O   0  0  0  0  0  0  0  0  0  0  0  0
   17.4783  -21.7807  -16.1120 C   0  0  0  0  0  0  0  0  0  0  0  0
   19.1115  -22.3759  -15.6558 S   0  0  0  0  0  0  0  0  0  0  0  0
   20.0548  -20.9536  -14.9853 C   0  0  0  0  0  0  0  0  0  0  0  0
   21.4467  -21.4477  -14.7276 C   0  0  0  0  0  0  0  0  0  0  0  0
   22.2612  -20.3545  -14.0873 C   0  0  2  0  0  0  0  0  0  0  0  0
   23.6086  -20.9385  -13.8263 N   0  0  0  0  0  0  0  0  0  0  0  0
   21.7029  -20.0428  -12.7625 C   0  0  0  0  0  0  0  0  0  0  0  0
   21.9944  -20.7773  -11.7859 O   0  0  0  0  0  0  0  0  0  0  0  0
   20.8649  -18.9830  -12.4858 O   0  0  0  0  0  0  0  0  0  0  0  0
  2  1  1  6
  2  3  1  0
  3  4  1  0
  5  4  1  0
  5  6  1  0
  7  6  1  0
  8  9  2  0
  8  2  1  0
 10  8  1  0
 11 10  1  0
 11 12  1  1
 12 13  1  0
 13 17  1  0
 13 14  2  0
 14 15  1  0
 16 15  1  0
 17 16  2  0
 18 25  1  0
 18 11  1  0
 19 18  2  0
 20 21  1  0
 21 22  1  0
 23 22  1  0
 24 23  1  1
 24 25  1  0
 26 28  1  0
 26 24  1  0
 27 26  2  0
M  END
$$$$
