KGA.pdb
     RDKit          3D

 19 18  0  0  1  0  0  0  0  0999 V2000
   20.9709  -11.3450  -17.7977 N   0  0  0  0  0  0  0  0  0  0  0  0
   19.7857  -11.3266  -16.9230 C   0  0  1  0  0  0  0  0  0  0  0  0
   19.4569  -12.7102  -16.4582 C   0  0  0  0  0  0  0  0  0  0  0  0
   18.8247  -13.5963  -17.4878 C   0  0  0  0  0  0  0  0  0  0  0  0
   18.4907  -14.9588  -16.9208 C   0  0  0  0  0  0  0  0  0  0  0  0
   17.8321  -15.8451  -17.9557 C   0  0  0  0  0  0  0  0  0  0  0  0
   17.4614  -17.1319  -17.4195 N   0  0  0  0  0  0  0  0  0  0  0  0
   20.0710  -10.4566  -15.7550 C   0  0  0  0  0  0  0  0  0  0  0  0
   19.2664  -10.2611  -14.8292 O   0  0  0  0  0  0  0  0  0  0  0  0
   21.3290   -9.8092  -15.6836 N   0  0  0  0  0  0  0  0  0  0  0  0
   21.6201   -8.9936  -14.5274 C   0  0  0  0  0  0  0  0  0  0  0  0
   21.8177   -7.5996  -14.9413 C   0  0  0  0  0  0  0  0  0  0  0  0
   22.5657   -7.2408  -15.8878 O   0  0  0  0  0  0  0  0  0  0  0  0
   19.9107   -4.5239  -14.1861 C   0  0  0  0  0  0  0  0  0  0  0  0
   21.2182   -5.1894  -14.5539 C   0  0  2  0  0  0  0  0  0  0  0  0
   21.1050   -6.5843  -14.2108 N   0  0  0  0  0  0  0  0  0  0  0  0
   22.3694   -4.6070  -13.8696 C   0  0  0  0  0  0  0  0  0  0  0  0
   22.7453   -5.0056  -12.7309 O   0  0  0  0  0  0  0  0  0  0  0  0
   23.0802   -3.5868  -14.4743 O   0  0  0  0  0  0  0  0  0  0  0  0
  2  1  1  6
  3  2  1  0
  4  3  1  0
  5  4  1  0
  6  5  1  0
  7  6  1  0
  8  9  2  0
  8  2  1  0
 10  8  1  0
 11 10  1  0
 11 12  1  0
 12 16  1  0
 12 13  2  0
 15 14  1  1
 15 17  1  0
 16 15  1  0
 17 19  1  0
 18 17  2  0
M  END
$$$$
