KGA.pdb
     RDKit          3D

 19 18  0  0  1  0  0  0  0  0999 V2000
   25.9114  -22.2436  -14.3665 N   0  0  0  0  0  0  0  0  0  0  0  0
   25.7637  -20.8528  -13.9041 C   0  0  1  0  0  0  0  0  0  0  0  0
   25.3243  -20.8207  -12.4742 C   0  0  0  0  0  0  0  0  0  0  0  0
   24.0078  -21.4796  -12.1958 C   0  0  0  0  0  0  0  0  0  0  0  0
   22.9270  -20.9817  -13.1302 C   0  0  0  0  0  0  0  0  0  0  0  0
   21.6115  -21.6885  -12.8849 C   0  0  0  0  0  0  0  0  0  0  0  0
   20.5351  -21.1303  -13.6662 N   0  0  0  0  0  0  0  0  0  0  0  0
   27.0706  -20.1639  -14.0457 C   0  0  0  0  0  0  0  0  0  0  0  0
   27.8530  -19.9705  -13.1006 O   0  0  0  0  0  0  0  0  0  0  0  0
   27.4553  -19.6976  -15.3268 N   0  0  0  0  0  0  0  0  0  0  0  0
   28.7298  -19.0314  -15.4641 C   0  0  0  0  0  0  0  0  0  0  0  0
   28.9146  -18.5967  -16.8534 C   0  0  0  0  0  0  0  0  0  0  0  0
   29.9117  -17.9489  -17.2664 O   0  0  0  0  0  0  0  0  0  0  0  0
   27.1776  -19.6863  -19.9457 C   0  0  0  0  0  0  0  0  0  0  0  0
   28.0372  -18.6845  -19.2073 C   0  0  2  0  0  0  0  0  0  0  0  0
   27.8829  -18.9384  -17.7974 N   0  0  0  0  0  0  0  0  0  0  0  0
   27.6801  -17.2987  -19.4989 C   0  0  0  0  0  0  0  0  0  0  0  0
   26.8452  -16.6594  -18.7981 O   0  0  0  0  0  0  0  0  0  0  0  0
   28.2657  -16.6530  -20.5721 O   0  0  0  0  0  0  0  0  0  0  0  0
  2  1  1  1
  3  2  1  0
  4  3  1  0
  5  4  1  0
  6  5  1  0
  7  6  1  0
  8  9  2  0
  8  2  1  0
 10  8  1  0
 11 10  1  0
 11 12  1  0
 12 16  1  0
 12 13  2  0
 15 14  1  6
 15 17  1  0
 16 15  1  0
 17 19  1  0
 18 17  2  0
M  END
$$$$
