KGA.pdb
     RDKit          3D

 19 18  0  0  1  0  0  0  0  0999 V2000
   19.5856  -11.4702  -16.2076 N   0  0  0  0  0  0  0  0  0  0  0  0
   18.1753  -11.0865  -16.3923 C   0  0  1  0  0  0  0  0  0  0  0  0
   17.2788  -12.0008  -15.6183 C   0  0  0  0  0  0  0  0  0  0  0  0
   17.5134  -13.4638  -15.8404 C   0  0  0  0  0  0  0  0  0  0  0  0
   16.5745  -14.3110  -15.0095 C   0  0  0  0  0  0  0  0  0  0  0  0
   16.7287  -15.7832  -15.3245 C   0  0  0  0  0  0  0  0  0  0  0  0
   15.9513  -16.6172  -14.4409 N   0  0  0  0  0  0  0  0  0  0  0  0
   17.9978   -9.6898  -15.9229 C   0  0  0  0  0  0  0  0  0  0  0  0
   16.9097   -9.0909  -15.9394 O   0  0  0  0  0  0  0  0  0  0  0  0
   19.1270   -8.9931  -15.4268 N   0  0  0  0  0  0  0  0  0  0  0  0
   18.9501   -7.6381  -14.9582 C   0  0  0  0  0  0  0  0  0  0  0  0
   20.2595   -7.0292  -14.6969 C   0  0  0  0  0  0  0  0  0  0  0  0
   21.3153   -7.6819  -14.4880 O   0  0  0  0  0  0  0  0  0  0  0  0
   21.3398   -3.4366  -14.7752 C   0  0  0  0  0  0  0  0  0  0  0  0
   21.5786   -4.9006  -14.4796 C   0  0  2  0  0  0  0  0  0  0  0  0
   20.3302   -5.5915  -14.6806 N   0  0  0  0  0  0  0  0  0  0  0  0
   22.0592   -5.1395  -13.1214 C   0  0  0  0  0  0  0  0  0  0  0  0
   23.2481   -4.8859  -12.7761 O   0  0  0  0  0  0  0  0  0  0  0  0
   21.1980   -5.6592  -12.1728 O   0  0  0  0  0  0  0  0  0  0  0  0
  2  1  1  1
  3  2  1  0
  4  3  1  0
  5  4  1  0
  6  5  1  0
  7  6  1  0
  8  9  2  0
  8  2  1  0
 10  8  1  0
 11 10  1  0
 11 12  1  0
 12 16  1  0
 12 13  2  0
 15 14  1  1
 15 17  1  0
 16 15  1  0
 17 19  1  0
 18 17  2  0
M  END
$$$$
