KGA.pdb
     RDKit          3D

 19 18  0  0  1  0  0  0  0  0999 V2000
   25.4113  -21.0234  -10.5762 N   0  0  0  0  0  0  0  0  0  0  0  0
   25.3149  -21.1740  -12.0384 C   0  0  1  0  0  0  0  0  0  0  0  0
   23.9939  -20.6721  -12.5302 C   0  0  0  0  0  0  0  0  0  0  0  0
   22.8077  -21.4918  -12.1230 C   0  0  0  0  0  0  0  0  0  0  0  0
   21.5176  -20.9080  -12.6563 C   0  0  0  0  0  0  0  0  0  0  0  0
   20.3139  -21.6899  -12.1766 C   0  0  0  0  0  0  0  0  0  0  0  0
   19.0719  -21.1291  -12.6498 N   0  0  0  0  0  0  0  0  0  0  0  0
   26.4142  -20.4016  -12.6689 C   0  0  0  0  0  0  0  0  0  0  0  0
   27.0038  -19.4617  -12.1104 O   0  0  0  0  0  0  0  0  0  0  0  0
   26.8205  -20.7489  -13.9808 N   0  0  0  0  0  0  0  0  0  0  0  0
   27.8659  -19.9730  -14.6070 C   0  0  0  0  0  0  0  0  0  0  0  0
   27.2950  -19.1413  -15.6727 C   0  0  0  0  0  0  0  0  0  0  0  0
   26.0705  -19.1017  -15.9614 O   0  0  0  0  0  0  0  0  0  0  0  0
   28.8558  -16.6033  -17.9461 C   0  0  0  0  0  0  0  0  0  0  0  0
   27.7671  -17.5931  -17.5959 C   0  0  2  0  0  0  0  0  0  0  0  0
   28.2028  -18.3212  -16.4313 N   0  0  0  0  0  0  0  0  0  0  0  0
   27.4736  -18.5282  -18.6786 C   0  0  0  0  0  0  0  0  0  0  0  0
   27.9762  -19.6870  -18.7191 O   0  0  0  0  0  0  0  0  0  0  0  0
   26.6208  -18.1479  -19.6984 O   0  0  0  0  0  0  0  0  0  0  0  0
  2  1  1  1
  3  2  1  0
  4  3  1  0
  5  4  1  0
  6  5  1  0
  7  6  1  0
  8  9  2  0
  8  2  1  0
 10  8  1  0
 11 10  1  0
 11 12  1  0
 12 16  1  0
 12 13  2  0
 15 14  1  6
 15 17  1  0
 16 15  1  0
 17 19  1  0
 18 17  2  0
M  END
$$$$
