KGA.pdb
     RDKit          3D

 19 18  0  0  1  0  0  0  0  0999 V2000
   21.4066  -13.0242  -16.0067 N   0  0  0  0  0  0  0  0  0  0  0  0
   21.1712  -12.2774  -17.2544 C   0  0  1  0  0  0  0  0  0  0  0  0
   20.2472  -13.0375  -18.1528 C   0  0  0  0  0  0  0  0  0  0  0  0
   20.8723  -14.1817  -18.8911 C   0  0  0  0  0  0  0  0  0  0  0  0
   19.8570  -14.9219  -19.7341 C   0  0  0  0  0  0  0  0  0  0  0  0
   20.4882  -16.0825  -20.4724 C   0  0  0  0  0  0  0  0  0  0  0  0
   19.5104  -16.8976  -21.1508 N   0  0  0  0  0  0  0  0  0  0  0  0
   20.5750  -10.9613  -16.9149 C   0  0  0  0  0  0  0  0  0  0  0  0
   19.4944  -10.8285  -16.3170 O   0  0  0  0  0  0  0  0  0  0  0  0
   21.2705   -9.7855  -17.2899 N   0  0  0  0  0  0  0  0  0  0  0  0
   20.6624   -8.5055  -17.0091 C   0  0  0  0  0  0  0  0  0  0  0  0
   21.5504   -7.7126  -16.1511 C   0  0  0  0  0  0  0  0  0  0  0  0
   22.5850   -8.1632  -15.5938 O   0  0  0  0  0  0  0  0  0  0  0  0
   21.6279   -4.0428  -15.4293 C   0  0  0  0  0  0  0  0  0  0  0  0
   22.0173   -5.4703  -15.1156 C   0  0  2  0  0  0  0  0  0  0  0  0
   21.2069   -6.3307  -15.9396 N   0  0  0  0  0  0  0  0  0  0  0  0
   21.8310   -5.8187  -13.7096 C   0  0  0  0  0  0  0  0  0  0  0  0
   20.8488   -6.5082  -13.3137 O   0  0  0  0  0  0  0  0  0  0  0  0
   22.7499   -5.3877  -12.7707 O   0  0  0  0  0  0  0  0  0  0  0  0
  2  1  1  1
  3  2  1  0
  4  3  1  0
  5  4  1  0
  6  5  1  0
  7  6  1  0
  8  9  2  0
  8  2  1  0
 10  8  1  0
 11 10  1  0
 11 12  1  0
 12 16  1  0
 12 13  2  0
 15 14  1  1
 15 17  1  0
 16 15  1  0
 17 19  1  0
 18 17  2  0
M  END
$$$$
