KGA.pdb
     RDKit          3D

 19 18  0  0  1  0  0  0  0  0999 V2000
   24.2524  -32.9501   -7.1765 N   0  0  0  0  0  0  0  0  0  0  0  0
   25.5492  -33.6273   -7.3489 C   0  0  1  0  0  0  0  0  0  0  0  0
   26.2015  -33.1919   -8.6232 C   0  0  0  0  0  0  0  0  0  0  0  0
   25.5749  -33.7245   -9.8756 C   0  0  0  0  0  0  0  0  0  0  0  0
   26.3551  -33.3161  -11.1060 C   0  0  0  0  0  0  0  0  0  0  0  0
   25.6553  -33.7481  -12.3764 C   0  0  0  0  0  0  0  0  0  0  0  0
   26.3570  -33.3196  -13.5617 N   0  0  0  0  0  0  0  0  0  0  0  0
   26.4192  -33.2878   -6.1955 C   0  0  0  0  0  0  0  0  0  0  0  0
   26.1593  -32.3898   -5.3777 O   0  0  0  0  0  0  0  0  0  0  0  0
   27.6149  -34.0242   -6.0090 N   0  0  0  0  0  0  0  0  0  0  0  0
   28.4110  -33.7602   -4.8327 C   0  0  0  0  0  0  0  0  0  0  0  0
   28.4661  -34.9617   -3.9918 C   0  0  0  0  0  0  0  0  0  0  0  0
   27.7300  -35.9706   -4.1486 O   0  0  0  0  0  0  0  0  0  0  0  0
   30.7729  -35.8611   -1.1653 C   0  0  0  0  0  0  0  0  0  0  0  0
   29.5940  -36.1309   -2.0737 C   0  0  2  0  0  0  0  0  0  0  0  0
   29.4280  -34.9772   -2.9209 N   0  0  0  0  0  0  0  0  0  0  0  0
   28.3553  -36.3866   -1.3436 C   0  0  0  0  0  0  0  0  0  0  0  0
   27.9741  -37.5571   -1.0582 O   0  0  0  0  0  0  0  0  0  0  0  0
   27.5645  -35.3245   -0.9456 O   0  0  0  0  0  0  0  0  0  0  0  0
  2  1  1  1
  3  2  1  0
  4  3  1  0
  5  4  1  0
  6  5  1  0
  7  6  1  0
  8  9  2  0
  8  2  1  0
 10  8  1  0
 11 10  1  0
 11 12  1  0
 12 16  1  0
 12 13  2  0
 15 14  1  1
 15 17  1  0
 16 15  1  0
 17 19  1  0
 18 17  2  0
M  END
$$$$
