KGA.pdb
     RDKit          3D

 19 18  0  0  1  0  0  0  0  0999 V2000
   14.8498  -10.1721  -10.3159 N   0  0  0  0  0  0  0  0  0  0  0  0
   13.8961   -9.1162   -9.9340 C   0  0  1  0  0  0  0  0  0  0  0  0
   13.0008   -9.5926   -8.8340 C   0  0  0  0  0  0  0  0  0  0  0  0
   11.9924  -10.6261   -9.2339 C   0  0  0  0  0  0  0  0  0  0  0  0
   10.5782  -10.1528   -8.9778 C   0  0  0  0  0  0  0  0  0  0  0  0
    9.5639  -11.2231   -9.3184 C   0  0  0  0  0  0  0  0  0  0  0  0
    8.2175  -10.8295   -8.9818 N   0  0  0  0  0  0  0  0  0  0  0  0
   14.6603   -7.9266   -9.4828 C   0  0  0  0  0  0  0  0  0  0  0  0
   14.1298   -6.8955   -9.0377 O   0  0  0  0  0  0  0  0  0  0  0  0
   16.0744   -7.9604   -9.5604 N   0  0  0  0  0  0  0  0  0  0  0  0
   16.8095   -6.7489   -9.2794 C   0  0  0  0  0  0  0  0  0  0  0  0
   16.7340   -5.8447  -10.4327 C   0  0  0  0  0  0  0  0  0  0  0  0
   16.4007   -6.2022  -11.5926 O   0  0  0  0  0  0  0  0  0  0  0  0
   16.9416   -2.1242  -10.6558 C   0  0  0  0  0  0  0  0  0  0  0  0
   17.0277   -3.4977  -11.2834 C   0  0  2  0  0  0  0  0  0  0  0  0
   17.0645   -4.4610  -10.2125 N   0  0  0  0  0  0  0  0  0  0  0  0
   18.2019   -3.6652  -12.1354 C   0  0  0  0  0  0  0  0  0  0  0  0
   19.1616   -4.4220  -11.8141 O   0  0  0  0  0  0  0  0  0  0  0  0
   18.2801   -2.9808  -13.3343 O   0  0  0  0  0  0  0  0  0  0  0  0
  2  1  1  1
  3  2  1  0
  4  3  1  0
  5  4  1  0
  6  5  1  0
  7  6  1  0
  8  9  2  0
  8  2  1  0
 10  8  1  0
 11 10  1  0
 11 12  1  0
 12 16  1  0
 12 13  2  0
 15 14  1  1
 15 17  1  0
 16 15  1  0
 17 19  1  0
 18 17  2  0
M  END
$$$$
