KGA.pdb
     RDKit          3D

 19 18  0  0  1  0  0  0  0  0999 V2000
   25.7973  -22.1594  -13.1283 N   0  0  0  0  0  0  0  0  0  0  0  0
   25.9171  -20.7431  -12.7412 C   0  0  1  0  0  0  0  0  0  0  0  0
   26.2027  -20.6231  -11.2774 C   0  0  0  0  0  0  0  0  0  0  0  0
   25.1910  -21.2612  -10.3751 C   0  0  0  0  0  0  0  0  0  0  0  0
   23.8747  -20.5154  -10.3984 C   0  0  0  0  0  0  0  0  0  0  0  0
   22.9047  -21.0683   -9.3768 C   0  0  0  0  0  0  0  0  0  0  0  0
   21.6127  -20.4304   -9.4462 N   0  0  0  0  0  0  0  0  0  0  0  0
   27.0197  -20.1290  -13.5221 C   0  0  0  0  0  0  0  0  0  0  0  0
   28.2207  -20.3863  -13.3373 O   0  0  0  0  0  0  0  0  0  0  0  0
   26.6933  -19.1963  -14.5371 N   0  0  0  0  0  0  0  0  0  0  0  0
   27.5907  -18.0883  -14.7699 C   0  0  0  0  0  0  0  0  0  0  0  0
   27.0669  -17.2451  -15.8507 C   0  0  0  0  0  0  0  0  0  0  0  0
   26.0500  -16.5108  -15.7469 O   0  0  0  0  0  0  0  0  0  0  0  0
   28.3618  -16.6034  -19.3166 C   0  0  0  0  0  0  0  0  0  0  0  0
   27.2920  -16.5298  -18.2499 C   0  0  2  0  0  0  0  0  0  0  0  0
   27.7691  -17.2665  -17.1072 N   0  0  0  0  0  0  0  0  0  0  0  0
   26.0098  -17.0762  -18.6862 C   0  0  0  0  0  0  0  0  0  0  0  0
   25.1142  -16.3523  -19.2065 O   0  0  0  0  0  0  0  0  0  0  0  0
   25.7536  -18.4261  -18.5317 O   0  0  0  0  0  0  0  0  0  0  0  0
  2  1  1  6
  3  2  1  0
  4  3  1  0
  5  4  1  0
  6  5  1  0
  7  6  1  0
  8  9  2  0
  8  2  1  0
 10  8  1  0
 11 10  1  0
 11 12  1  0
 12 16  1  0
 12 13  2  0
 15 14  1  6
 15 17  1  0
 16 15  1  0
 17 19  1  0
 18 17  2  0
M  END
$$$$
