KGA.pdb
     RDKit          3D

 19 18  0  0  1  0  0  0  0  0999 V2000
   19.7381  -13.7234  -16.5584 N   0  0  0  0  0  0  0  0  0  0  0  0
   19.1820  -12.3637  -16.6682 C   0  0  1  0  0  0  0  0  0  0  0  0
   18.0092  -12.2026  -15.7531 C   0  0  0  0  0  0  0  0  0  0  0  0
   16.8342  -13.0800  -16.0605 C   0  0  0  0  0  0  0  0  0  0  0  0
   15.6365  -12.7267  -15.2060 C   0  0  0  0  0  0  0  0  0  0  0  0
   14.4476  -13.6070  -15.5248 C   0  0  0  0  0  0  0  0  0  0  0  0
   13.3177  -13.3326  -14.6710 N   0  0  0  0  0  0  0  0  0  0  0  0
   20.2402  -11.3873  -16.3084 C   0  0  0  0  0  0  0  0  0  0  0  0
   21.2935  -11.6964  -15.7272 O   0  0  0  0  0  0  0  0  0  0  0  0
   20.0466  -10.0244  -16.6427 N   0  0  0  0  0  0  0  0  0  0  0  0
   21.1069   -9.0864  -16.3548 C   0  0  0  0  0  0  0  0  0  0  0  0
   20.6130   -8.0429  -15.4489 C   0  0  0  0  0  0  0  0  0  0  0  0
   19.4153   -7.9365  -15.0769 O   0  0  0  0  0  0  0  0  0  0  0  0
   22.4421   -5.2876  -13.6624 C   0  0  0  0  0  0  0  0  0  0  0  0
   21.1860   -6.0384  -14.0447 C   0  0  2  0  0  0  0  0  0  0  0  0
   21.5684   -7.0836  -14.9597 N   0  0  0  0  0  0  0  0  0  0  0  0
   20.1765   -5.1859  -14.6669 C   0  0  0  0  0  0  0  0  0  0  0  0
   19.3702   -4.4927  -13.9839 O   0  0  0  0  0  0  0  0  0  0  0  0
   20.0882   -5.1251  -16.0454 O   0  0  0  0  0  0  0  0  0  0  0  0
  2  1  1  1
  3  2  1  0
  4  3  1  0
  5  4  1  0
  6  5  1  0
  7  6  1  0
  8  9  2  0
  8  2  1  0
 10  8  1  0
 11 10  1  0
 11 12  1  0
 12 16  1  0
 12 13  2  0
 15 14  1  6
 15 17  1  0
 16 15  1  0
 17 19  1  0
 18 17  2  0
M  END
$$$$
