KGA.pdb
     RDKit          3D

 19 18  0  0  1  0  0  0  0  0999 V2000
   17.1936  -23.4186  -10.2402 N   0  0  0  0  0  0  0  0  0  0  0  0
   18.1465  -24.5273  -10.4212 C   0  0  1  0  0  0  0  0  0  0  0  0
   19.2932  -24.0967  -11.2804 C   0  0  0  0  0  0  0  0  0  0  0  0
   18.9911  -23.9952  -12.7445 C   0  0  0  0  0  0  0  0  0  0  0  0
   20.1219  -23.3341  -13.5020 C   0  0  0  0  0  0  0  0  0  0  0  0
   19.7875  -23.1716  -14.9690 C   0  0  0  0  0  0  0  0  0  0  0  0
   20.7699  -22.3825  -15.6711 N   0  0  0  0  0  0  0  0  0  0  0  0
   18.6452  -24.9473   -9.0880 C   0  0  0  0  0  0  0  0  0  0  0  0
   19.4544  -25.8738   -8.9160 O   0  0  0  0  0  0  0  0  0  0  0  0
   18.1775  -24.2585   -7.9419 N   0  0  0  0  0  0  0  0  0  0  0  0
   18.7578  -24.5812   -6.6588 C   0  0  0  0  0  0  0  0  0  0  0  0
   17.9015  -25.5433   -5.9556 C   0  0  0  0  0  0  0  0  0  0  0  0
   16.8983  -26.1053   -6.4676 O   0  0  0  0  0  0  0  0  0  0  0  0
   18.2450  -27.0960   -2.5576 C   0  0  0  0  0  0  0  0  0  0  0  0
   17.4722  -26.8063   -3.8251 C   0  0  2  0  0  0  0  0  0  0  0  0
   18.2393  -25.8578   -4.5920 N   0  0  0  0  0  0  0  0  0  0  0  0
   16.1380  -26.2689   -3.5720 C   0  0  0  0  0  0  0  0  0  0  0  0
   15.8924  -25.0304   -3.6245 O   0  0  0  0  0  0  0  0  0  0  0  0
   15.1010  -27.1301   -3.2641 O   0  0  0  0  0  0  0  0  0  0  0  0
  2  1  1  1
  3  2  1  0
  4  3  1  0
  5  4  1  0
  6  5  1  0
  7  6  1  0
  8  9  2  0
  8  2  1  0
 10  8  1  0
 11 10  1  0
 11 12  1  0
 12 16  1  0
 12 13  2  0
 15 14  1  1
 15 17  1  0
 16 15  1  0
 17 19  1  0
 18 17  2  0
M  END
$$$$
