KGA.pdb
     RDKit          3D

 19 18  0  0  1  0  0  0  0  0999 V2000
   20.5694  -13.2837  -17.9702 N   0  0  0  0  0  0  0  0  0  0  0  0
   19.8836  -12.1467  -17.3324 C   0  0  1  0  0  0  0  0  0  0  0  0
   18.8470  -12.6341  -16.3698 C   0  0  0  0  0  0  0  0  0  0  0  0
   17.7237  -13.4141  -16.9819 C   0  0  0  0  0  0  0  0  0  0  0  0
   16.6756  -13.7813  -15.9542 C   0  0  0  0  0  0  0  0  0  0  0  0
   15.5061  -14.5038  -16.5870 C   0  0  0  0  0  0  0  0  0  0  0  0
   14.5037  -14.8771  -15.6192 N   0  0  0  0  0  0  0  0  0  0  0  0
   20.8911  -11.3258  -16.6157 C   0  0  0  0  0  0  0  0  0  0  0  0
   22.0481  -11.7094  -16.3769 O   0  0  0  0  0  0  0  0  0  0  0  0
   20.5212  -10.0310  -16.1758 N   0  0  0  0  0  0  0  0  0  0  0  0
   21.5152   -9.2171  -15.5150 C   0  0  0  0  0  0  0  0  0  0  0  0
   20.9413   -7.9087  -15.1802 C   0  0  0  0  0  0  0  0  0  0  0  0
   19.8367   -7.4879  -15.6126 O   0  0  0  0  0  0  0  0  0  0  0  0
   22.0758   -5.3059  -12.7315 C   0  0  0  0  0  0  0  0  0  0  0  0
   21.1917   -5.7829  -13.8622 C   0  0  2  0  0  0  0  0  0  0  0  0
   21.6989   -7.0588  -14.2992 N   0  0  0  0  0  0  0  0  0  0  0  0
   21.1551   -4.8563  -14.9904 C   0  0  0  0  0  0  0  0  0  0  0  0
   21.9494   -4.9577  -15.9680 O   0  0  0  0  0  0  0  0  0  0  0  0
   20.2278   -3.8308  -15.0032 O   0  0  0  0  0  0  0  0  0  0  0  0
  2  1  1  1
  3  2  1  0
  4  3  1  0
  5  4  1  0
  6  5  1  0
  7  6  1  0
  8  9  2  0
  8  2  1  0
 10  8  1  0
 11 10  1  0
 11 12  1  0
 12 16  1  0
 12 13  2  0
 15 14  1  1
 15 17  1  0
 16 15  1  0
 17 19  1  0
 18 17  2  0
M  END
$$$$
