KGA.pdb
     RDKit          3D

 19 18  0  0  1  0  0  0  0  0999 V2000
   15.2915   -9.5356  -18.5606 N   0  0  0  0  0  0  0  0  0  0  0  0
   15.8296   -8.4677  -17.7003 C   0  0  1  0  0  0  0  0  0  0  0  0
   15.0065   -8.3316  -16.4584 C   0  0  0  0  0  0  0  0  0  0  0  0
   13.5412   -8.1151  -16.6841 C   0  0  0  0  0  0  0  0  0  0  0  0
   12.7817   -8.0376  -15.3777 C   0  0  0  0  0  0  0  0  0  0  0  0
   11.2891   -7.9399  -15.6076 C   0  0  0  0  0  0  0  0  0  0  0  0
   10.5358   -8.0805  -14.3855 N   0  0  0  0  0  0  0  0  0  0  0  0
   17.2297   -8.8063  -17.3428 C   0  0  0  0  0  0  0  0  0  0  0  0
   17.6617   -9.9689  -17.2769 O   0  0  0  0  0  0  0  0  0  0  0  0
   18.1308   -7.7506  -17.0592 N   0  0  0  0  0  0  0  0  0  0  0  0
   19.4950   -8.0813  -16.7179 C   0  0  0  0  0  0  0  0  0  0  0  0
   19.8886   -7.3646  -15.4993 C   0  0  0  0  0  0  0  0  0  0  0  0
   19.1947   -6.4710  -14.9476 O   0  0  0  0  0  0  0  0  0  0  0  0
   22.6332   -7.9606  -13.0557 C   0  0  0  0  0  0  0  0  0  0  0  0
   21.6462   -7.0359  -13.7327 C   0  0  2  0  0  0  0  0  0  0  0  0
   21.1520   -7.7136  -14.9043 N   0  0  0  0  0  0  0  0  0  0  0  0
   22.2327   -5.7548  -14.1170 C   0  0  0  0  0  0  0  0  0  0  0  0
   22.5952   -5.5116  -15.3029 O   0  0  0  0  0  0  0  0  0  0  0  0
   22.4028   -4.7673  -13.1642 O   0  0  0  0  0  0  0  0  0  0  0  0
  2  1  1  6
  3  2  1  0
  4  3  1  0
  5  4  1  0
  6  5  1  0
  7  6  1  0
  8  9  2  0
  8  2  1  0
 10  8  1  0
 11 10  1  0
 11 12  1  0
 12 16  1  0
 12 13  2  0
 15 14  1  6
 15 17  1  0
 16 15  1  0
 17 19  1  0
 18 17  2  0
M  END
$$$$
