KGA.pdb
     RDKit          3D

 19 18  0  0  1  0  0  0  0  0999 V2000
   27.9068  -19.5226  -17.8248 N   0  0  0  0  0  0  0  0  0  0  0  0
   28.5253  -18.2741  -17.3464 C   0  0  1  0  0  0  0  0  0  0  0  0
   28.1953  -17.1409  -18.2660 C   0  0  0  0  0  0  0  0  0  0  0  0
   26.8457  -17.2154  -18.9124 C   0  0  0  0  0  0  0  0  0  0  0  0
   26.8859  -18.0165  -20.1954 C   0  0  0  0  0  0  0  0  0  0  0  0
   25.5632  -17.9584  -20.9284 C   0  0  0  0  0  0  0  0  0  0  0  0
   25.5081  -18.8833  -22.0340 N   0  0  0  0  0  0  0  0  0  0  0  0
   28.0143  -17.9828  -15.9837 C   0  0  0  0  0  0  0  0  0  0  0  0
   28.4995  -17.1170  -15.2369 O   0  0  0  0  0  0  0  0  0  0  0  0
   26.9119  -18.7291  -15.4997 N   0  0  0  0  0  0  0  0  0  0  0  0
   26.4341  -18.4648  -14.1622 C   0  0  0  0  0  0  0  0  0  0  0  0
   26.6391  -19.6488  -13.3198 C   0  0  0  0  0  0  0  0  0  0  0  0
   27.2926  -20.6649  -13.6728 O   0  0  0  0  0  0  0  0  0  0  0  0
   25.6238  -20.3475   -9.7733 C   0  0  0  0  0  0  0  0  0  0  0  0
   26.1483  -20.7740  -11.1263 C   0  0  2  0  0  0  0  0  0  0  0  0
   26.0505  -19.6372  -12.0061 N   0  0  0  0  0  0  0  0  0  0  0  0
   25.4139  -21.9006  -11.6958 C   0  0  0  0  0  0  0  0  0  0  0  0
   25.7677  -23.0984  -11.5033 O   0  0  0  0  0  0  0  0  0  0  0  0
   24.2944  -21.6647  -12.4722 O   0  0  0  0  0  0  0  0  0  0  0  0
  2  1  1  6
  3  2  1  0
  4  3  1  0
  5  4  1  0
  6  5  1  0
  7  6  1  0
  8  9  2  0
  8  2  1  0
 10  8  1  0
 11 10  1  0
 11 12  1  0
 12 16  1  0
 12 13  2  0
 15 14  1  1
 15 17  1  0
 16 15  1  0
 17 19  1  0
 18 17  2  0
M  END
$$$$
