KGA.pdb
     RDKit          3D

 19 18  0  0  1  0  0  0  0  0999 V2000
   24.2080  -21.3243  -12.0183 N   0  0  0  0  0  0  0  0  0  0  0  0
   24.8469  -20.7851  -13.2313 C   0  0  1  0  0  0  0  0  0  0  0  0
   25.8112  -21.7777  -13.8000 C   0  0  0  0  0  0  0  0  0  0  0  0
   27.2578  -21.4103  -13.6682 C   0  0  0  0  0  0  0  0  0  0  0  0
   27.4639  -20.3181  -12.6416 C   0  0  0  0  0  0  0  0  0  0  0  0
   28.9184  -19.9106  -12.5482 C   0  0  0  0  0  0  0  0  0  0  0  0
   29.3124  -19.0341  -13.6240 N   0  0  0  0  0  0  0  0  0  0  0  0
   23.7909  -20.4795  -14.2284 C   0  0  0  0  0  0  0  0  0  0  0  0
   23.0663  -21.3427  -14.7504 O   0  0  0  0  0  0  0  0  0  0  0  0
   23.5914  -19.1305  -14.6120 N   0  0  0  0  0  0  0  0  0  0  0  0
   22.6529  -18.8470  -15.6731 C   0  0  0  0  0  0  0  0  0  0  0  0
   21.2809  -18.9798  -15.1697 C   0  0  0  0  0  0  0  0  0  0  0  0
   20.9848  -19.4122  -14.0253 O   0  0  0  0  0  0  0  0  0  0  0  0
   18.0113  -17.9280  -16.6797 C   0  0  0  0  0  0  0  0  0  0  0  0
   18.8328  -18.6508  -15.6355 C   0  0  2  0  0  0  0  0  0  0  0  0
   20.2114  -18.5871  -16.0497 N   0  0  0  0  0  0  0  0  0  0  0  0
   18.4365  -20.0455  -15.4599 C   0  0  0  0  0  0  0  0  0  0  0  0
   17.5464  -20.3909  -14.6320 O   0  0  0  0  0  0  0  0  0  0  0  0
   19.0456  -21.0298  -16.2161 O   0  0  0  0  0  0  0  0  0  0  0  0
  2  1  1  1
  3  2  1  0
  4  3  1  0
  5  4  1  0
  6  5  1  0
  7  6  1  0
  8  9  2  0
  8  2  1  0
 10  8  1  0
 11 10  1  0
 11 12  1  0
 12 16  1  0
 12 13  2  0
 15 14  1  6
 15 17  1  0
 16 15  1  0
 17 19  1  0
 18 17  2  0
M  END
$$$$
