KGA.pdb
     RDKit          3D

 19 18  0  0  1  0  0  0  0  0999 V2000
   26.8566  -20.8042  -12.1591 N   0  0  0  0  0  0  0  0  0  0  0  0
   25.6123  -21.3844  -12.6932 C   0  0  1  0  0  0  0  0  0  0  0  0
   24.5164  -21.2967  -11.6783 C   0  0  0  0  0  0  0  0  0  0  0  0
   24.8918  -20.6326  -10.3888 C   0  0  0  0  0  0  0  0  0  0  0  0
   24.3334  -21.3768   -9.1957 C   0  0  0  0  0  0  0  0  0  0  0  0
   24.5790  -20.6235   -7.9063 C   0  0  0  0  0  0  0  0  0  0  0  0
   24.0146  -21.2965   -6.7621 N   0  0  0  0  0  0  0  0  0  0  0  0
   25.2274  -20.6381  -13.9169 C   0  0  0  0  0  0  0  0  0  0  0  0
   26.0107  -19.9212  -14.5612 O   0  0  0  0  0  0  0  0  0  0  0  0
   23.8940  -20.7436  -14.3834 N   0  0  0  0  0  0  0  0  0  0  0  0
   23.5394  -20.0762  -15.6146 C   0  0  0  0  0  0  0  0  0  0  0  0
   22.0819  -20.0926  -15.7852 C   0  0  0  0  0  0  0  0  0  0  0  0
   21.4539  -20.9731  -16.4291 O   0  0  0  0  0  0  0  0  0  0  0  0
   19.4387  -17.7536  -14.4897 C   0  0  0  0  0  0  0  0  0  0  0  0
   19.8962  -18.9578  -15.2822 C   0  0  2  0  0  0  0  0  0  0  0  0
   21.3311  -19.0281  -15.1724 N   0  0  0  0  0  0  0  0  0  0  0  0
   19.5137  -18.8954  -16.6903 C   0  0  0  0  0  0  0  0  0  0  0  0
   20.2262  -18.3091  -17.5538 O   0  0  0  0  0  0  0  0  0  0  0  0
   18.3379  -19.4920  -17.1067 O   0  0  0  0  0  0  0  0  0  0  0  0
  2  1  1  1
  3  2  1  0
  4  3  1  0
  5  4  1  0
  6  5  1  0
  7  6  1  0
  8  9  2  0
  8  2  1  0
 10  8  1  0
 11 10  1  0
 11 12  1  0
 12 16  1  0
 12 13  2  0
 15 14  1  1
 15 17  1  0
 16 15  1  0
 17 19  1  0
 18 17  2  0
M  END
$$$$
