GMM.pdb
     RDKit          3D

 21 20  0  0  1  0  0  0  0  0999 V2000
   20.4873  -15.8941  -17.4304 N   0  0  0  0  0  0  0  0  0  0  0  0
   21.5500  -15.0982  -18.0090 C   0  0  0  0  0  0  0  0  0  0  0  0
   21.9443  -14.0568  -17.0413 C   0  0  0  0  0  0  0  0  0  0  0  0
   21.1363  -13.6625  -16.1703 O   0  0  0  0  0  0  0  0  0  0  0  0
   28.0716  -12.0912  -15.1291 C   0  0  0  0  0  0  0  0  0  0  0  0
   27.3236  -13.7315  -15.1165 S   0  0  0  0  0  0  0  0  0  0  0  0
   25.5022  -13.6386  -15.1244 C   0  0  0  0  0  0  0  0  0  0  0  0
   25.0652  -12.4587  -15.9245 C   0  0  0  0  0  0  0  0  0  0  0  0
   23.5883  -12.3544  -16.1418 C   0  0  2  0  0  0  0  0  0  0  0  0
   23.2248  -13.4453  -17.0263 N   0  0  0  0  0  0  0  0  0  0  0  0
   23.1212  -11.0719  -16.6387 C   0  0  0  0  0  0  0  0  0  0  0  0
   23.3688  -10.6983  -17.8022 O   0  0  0  0  0  0  0  0  0  0  0  0
   17.5727   -6.1493  -18.3832 C   0  0  0  0  0  0  0  0  0  0  0  0
   18.2630   -7.6890  -17.8063 S   0  0  0  0  0  0  0  0  0  0  0  0
   19.9391   -7.6488  -17.2151 C   0  0  0  0  0  0  0  0  0  0  0  0
   20.5637   -8.9413  -16.8596 C   0  0  0  0  0  0  0  0  0  0  0  0
   21.9328   -8.8635  -16.2831 C   0  0  2  0  0  0  0  0  0  0  0  0
   22.3687  -10.2007  -15.8207 N   0  0  0  0  0  0  0  0  0  0  0  0
   21.8772   -8.0075  -15.0549 C   0  0  0  0  0  0  0  0  0  0  0  0
   21.8382   -6.7545  -15.1999 O   0  0  0  0  0  0  0  0  0  0  0  0
   21.8670   -8.5144  -13.7789 O   0  0  0  0  0  0  0  0  0  0  0  0
  1  2  1  0
  2  3  1  0
  3  4  2  0
  6  5  1  0
  7  6  1  0
  8  7  1  0
  9  8  1  6
  9 11  1  0
 10  9  1  0
 10  3  1  0
 11 12  2  0
 13 14  1  0
 15 14  1  0
 16 15  1  0
 17 16  1  1
 18 11  1  0
 18 17  1  0
 19 17  1  0
 19 21  1  0
 20 19  2  0
M  END
$$$$
