GMM.pdb
     RDKit          3D

 21 20  0  0  1  0  0  0  0  0999 V2000
   20.1757  -10.2728  -16.0736 N   0  0  0  0  0  0  0  0  0  0  0  0
   19.0676   -9.3963  -15.7553 C   0  0  0  0  0  0  0  0  0  0  0  0
   19.0039   -9.2234  -14.2916 C   0  0  0  0  0  0  0  0  0  0  0  0
   18.4626  -10.0943  -13.5735 O   0  0  0  0  0  0  0  0  0  0  0  0
   22.7766   -8.7909   -9.1204 C   0  0  0  0  0  0  0  0  0  0  0  0
   22.0256   -9.4996  -10.5983 S   0  0  0  0  0  0  0  0  0  0  0  0
   21.9612   -8.2919  -11.9634 C   0  0  0  0  0  0  0  0  0  0  0  0
   20.8069   -7.3698  -11.7611 C   0  0  0  0  0  0  0  0  0  0  0  0
   19.4780   -7.9211  -12.1727 C   0  0  2  0  0  0  0  0  0  0  0  0
   19.5332   -8.0957  -13.6118 N   0  0  0  0  0  0  0  0  0  0  0  0
   18.3252   -7.1381  -11.7631 C   0  0  0  0  0  0  0  0  0  0  0  0
   17.9645   -6.1312  -12.4041 O   0  0  0  0  0  0  0  0  0  0  0  0
   13.0300   -9.6793   -8.5784 C   0  0  0  0  0  0  0  0  0  0  0  0
   12.9946   -7.9434   -8.1719 S   0  0  0  0  0  0  0  0  0  0  0  0
   14.2197   -6.9106   -8.9420 C   0  0  0  0  0  0  0  0  0  0  0  0
   15.4571   -7.5661   -9.4175 C   0  0  0  0  0  0  0  0  0  0  0  0
   16.3986   -6.7011  -10.1779 C   0  0  2  0  0  0  0  0  0  0  0  0
   17.5702   -7.4893  -10.6224 N   0  0  0  0  0  0  0  0  0  0  0  0
   16.9392   -5.6615   -9.2444 C   0  0  0  0  0  0  0  0  0  0  0  0
   16.1895   -4.6993   -8.9212 O   0  0  0  0  0  0  0  0  0  0  0  0
   18.2084   -5.7000   -8.7220 O   0  0  0  0  0  0  0  0  0  0  0  0
  1  2  1  0
  2  3  1  0
  3  4  2  0
  6  5  1  0
  7  6  1  0
  8  7  1  0
  9  8  1  6
  9 11  1  0
 10  9  1  0
 10  3  1  0
 11 12  2  0
 13 14  1  0
 15 14  1  0
 16 15  1  0
 17 16  1  1
 18 11  1  0
 18 17  1  0
 19 17  1  0
 19 21  1  0
 20 19  2  0
M  END
$$$$
