GMM.pdb
     RDKit          3D

 21 20  0  0  1  0  0  0  0  0999 V2000
   20.8040  -19.9033  -14.6786 N   0  0  0  0  0  0  0  0  0  0  0  0
   21.5260  -19.4400  -15.8455 C   0  0  0  0  0  0  0  0  0  0  0  0
   21.9744  -18.0548  -15.6077 C   0  0  0  0  0  0  0  0  0  0  0  0
   21.3325  -17.3042  -14.8386 O   0  0  0  0  0  0  0  0  0  0  0  0
   28.0432  -16.2062  -16.2961 C   0  0  0  0  0  0  0  0  0  0  0  0
   27.3568  -16.9949  -14.8274 S   0  0  0  0  0  0  0  0  0  0  0  0
   25.5779  -16.6379  -14.6431 C   0  0  0  0  0  0  0  0  0  0  0  0
   25.0344  -16.1261  -15.9339 C   0  0  0  0  0  0  0  0  0  0  0  0
   23.5411  -16.1112  -16.0292 C   0  0  2  0  0  0  0  0  0  0  0  0
   23.1270  -17.4894  -16.2124 N   0  0  0  0  0  0  0  0  0  0  0  0
   22.9912  -15.2371  -17.0508 C   0  0  0  0  0  0  0  0  0  0  0  0
   22.8184  -15.6348  -18.2199 O   0  0  0  0  0  0  0  0  0  0  0  0
   17.5362  -12.1772  -16.2795 C   0  0  0  0  0  0  0  0  0  0  0  0
   18.1892  -11.3527  -17.7195 S   0  0  0  0  0  0  0  0  0  0  0  0
   19.8554  -11.7545  -18.1914 C   0  0  0  0  0  0  0  0  0  0  0  0
   20.6232  -12.6349  -17.2846 C   0  0  0  0  0  0  0  0  0  0  0  0
   21.9808  -13.0230  -17.7527 C   0  0  2  0  0  0  0  0  0  0  0  0
   22.6319  -13.9034  -16.7564 N   0  0  0  0  0  0  0  0  0  0  0  0
   22.8262  -11.7879  -17.8169 C   0  0  0  0  0  0  0  0  0  0  0  0
   23.6255  -11.5596  -16.8674 O   0  0  0  0  0  0  0  0  0  0  0  0
   22.7771  -10.8903  -18.8547 O   0  0  0  0  0  0  0  0  0  0  0  0
  1  2  1  0
  2  3  1  0
  3  4  2  0
  6  5  1  0
  7  6  1  0
  8  7  1  0
  9  8  1  6
  9 11  1  0
 10  9  1  0
 10  3  1  0
 11 12  2  0
 13 14  1  0
 15 14  1  0
 16 15  1  0
 17 16  1  1
 18 11  1  0
 18 17  1  0
 19 17  1  0
 19 21  1  0
 20 19  2  0
M  END
$$$$
