GMM.pdb
     RDKit          3D

 21 20  0  0  1  0  0  0  0  0999 V2000
   20.1092  -12.4458  -20.2159 N   0  0  0  0  0  0  0  0  0  0  0  0
   19.8631  -11.0286  -20.0473 C   0  0  0  0  0  0  0  0  0  0  0  0
   20.4987  -10.5820  -18.7931 C   0  0  0  0  0  0  0  0  0  0  0  0
   19.7976  -10.2391  -17.8144 O   0  0  0  0  0  0  0  0  0  0  0  0
   27.2223  -11.1147  -14.6671 C   0  0  0  0  0  0  0  0  0  0  0  0
   26.1813  -11.4786  -16.0934 S   0  0  0  0  0  0  0  0  0  0  0  0
   24.6283  -10.5234  -16.0520 C   0  0  0  0  0  0  0  0  0  0  0  0
   23.8281  -10.8168  -17.2755 C   0  0  0  0  0  0  0  0  0  0  0  0
   22.5358  -10.0695  -17.3797 C   0  0  2  0  0  0  0  0  0  0  0  0
   21.9040  -10.5101  -18.6090 N   0  0  0  0  0  0  0  0  0  0  0  0
   22.6461   -8.6227  -17.3125 C   0  0  0  0  0  0  0  0  0  0  0  0
   23.2557   -7.9777  -18.1883 O   0  0  0  0  0  0  0  0  0  0  0  0
   19.2457   -1.7698  -17.0002 C   0  0  0  0  0  0  0  0  0  0  0  0
   19.3545   -3.5404  -17.1825 S   0  0  0  0  0  0  0  0  0  0  0  0
   20.8298   -4.3236  -16.5738 C   0  0  0  0  0  0  0  0  0  0  0  0
   20.9134   -5.7954  -16.6906 C   0  0  0  0  0  0  0  0  0  0  0  0
   22.1576   -6.4184  -16.1644 C   0  0  2  0  0  0  0  0  0  0  0  0
   22.0661   -7.8934  -16.2513 N   0  0  0  0  0  0  0  0  0  0  0  0
   22.2590   -6.1033  -14.7034 C   0  0  0  0  0  0  0  0  0  0  0  0
   22.6214   -4.9428  -14.3651 O   0  0  0  0  0  0  0  0  0  0  0  0
   21.9787   -7.0110  -13.7121 O   0  0  0  0  0  0  0  0  0  0  0  0
  1  2  1  0
  2  3  1  0
  3  4  2  0
  6  5  1  0
  7  6  1  0
  8  7  1  0
  9  8  1  6
  9 11  1  0
 10  9  1  0
 10  3  1  0
 11 12  2  0
 13 14  1  0
 15 14  1  0
 16 15  1  0
 17 16  1  1
 18 11  1  0
 18 17  1  0
 19 17  1  0
 19 21  1  0
 20 19  2  0
M  END
$$$$
