GMM.pdb
     RDKit          3D

 21 20  0  0  1  0  0  0  0  0999 V2000
   29.9228  -21.9582  -12.1666 N   0  0  0  0  0  0  0  0  0  0  0  0
   29.0672  -20.7908  -12.2179 C   0  0  0  0  0  0  0  0  0  0  0  0
   27.8244  -21.0798  -11.4775 C   0  0  0  0  0  0  0  0  0  0  0  0
   26.9765  -21.8719  -11.9472 O   0  0  0  0  0  0  0  0  0  0  0  0
   27.5735  -18.5946   -5.6454 C   0  0  0  0  0  0  0  0  0  0  0  0
   27.6357  -20.3956   -5.7028 S   0  0  0  0  0  0  0  0  0  0  0  0
   27.4913  -21.0180   -7.4109 C   0  0  0  0  0  0  0  0  0  0  0  0
   26.4331  -20.2551   -8.1332 C   0  0  0  0  0  0  0  0  0  0  0  0
   26.2263  -20.6573   -9.5597 C   0  0  2  0  0  0  0  0  0  0  0  0
   27.5081  -20.5012  -10.2209 N   0  0  0  0  0  0  0  0  0  0  0  0
   25.1645  -19.9532  -10.2574 C   0  0  0  0  0  0  0  0  0  0  0  0
   25.3568  -18.8323  -10.7686 O   0  0  0  0  0  0  0  0  0  0  0  0
   24.9585  -20.6333  -15.9761 C   0  0  0  0  0  0  0  0  0  0  0  0
   23.3274  -21.1932  -15.5224 S   0  0  0  0  0  0  0  0  0  0  0  0
   22.6740  -20.6036  -13.9778 C   0  0  0  0  0  0  0  0  0  0  0  0
   23.5179  -20.7743  -12.7755 C   0  0  0  0  0  0  0  0  0  0  0  0
   22.9799  -20.1913  -11.5171 C   0  0  2  0  0  0  0  0  0  0  0  0
   23.8742  -20.5136  -10.3821 N   0  0  0  0  0  0  0  0  0  0  0  0
   21.6758  -20.8612  -11.2092 C   0  0  0  0  0  0  0  0  0  0  0  0
   21.7014  -22.0083  -10.6838 O   0  0  0  0  0  0  0  0  0  0  0  0
   20.4532  -20.2930  -11.4690 O   0  0  0  0  0  0  0  0  0  0  0  0
  1  2  1  0
  2  3  1  0
  3  4  2  0
  6  5  1  0
  7  6  1  0
  8  7  1  0
  9  8  1  1
  9 11  1  0
 10  9  1  0
 10  3  1  0
 11 12  2  0
 13 14  1  0
 15 14  1  0
 16 15  1  0
 17 16  1  6
 18 11  1  0
 18 17  1  0
 19 17  1  0
 19 21  1  0
 20 19  2  0
M  END
$$$$
