GMM.pdb
     RDKit          3D

 21 20  0  0  1  0  0  0  0  0999 V2000
   27.2215  -18.1399  -16.1339 N   0  0  0  0  0  0  0  0  0  0  0  0
   27.6150  -17.9060  -14.7598 C   0  0  0  0  0  0  0  0  0  0  0  0
   27.6430  -19.1974  -14.0473 C   0  0  0  0  0  0  0  0  0  0  0  0
   26.8439  -20.1097  -14.3573 O   0  0  0  0  0  0  0  0  0  0  0  0
   32.5545  -21.6762  -11.1680 C   0  0  0  0  0  0  0  0  0  0  0  0
   31.3577  -22.6464  -10.2315 S   0  0  0  0  0  0  0  0  0  0  0  0
   29.6461  -22.1312  -10.5930 C   0  0  0  0  0  0  0  0  0  0  0  0
   29.6606  -20.9673  -11.5251 C   0  0  0  0  0  0  0  0  0  0  0  0
   28.3128  -20.5140  -11.9910 C   0  0  2  0  0  0  0  0  0  0  0  0
   28.5466  -19.4917  -12.9934 N   0  0  0  0  0  0  0  0  0  0  0  0
   27.4142  -20.0561  -10.9456 C   0  0  0  0  0  0  0  0  0  0  0  0
   27.6246  -18.9923  -10.3300 O   0  0  0  0  0  0  0  0  0  0  0  0
   28.7064  -19.1457   -5.6084 C   0  0  0  0  0  0  0  0  0  0  0  0
   26.9252  -19.1666   -5.6906 S   0  0  0  0  0  0  0  0  0  0  0  0
   26.1853  -20.3023   -6.8409 C   0  0  0  0  0  0  0  0  0  0  0  0
   26.6216  -20.2191   -8.2514 C   0  0  0  0  0  0  0  0  0  0  0  0
   25.9798  -21.1811   -9.1870 C   0  0  2  0  0  0  0  0  0  0  0  0
   26.2684  -20.8002  -10.5882 N   0  0  0  0  0  0  0  0  0  0  0  0
   24.4942  -21.0662   -9.0328 C   0  0  0  0  0  0  0  0  0  0  0  0
   23.8214  -20.6450  -10.0138 O   0  0  0  0  0  0  0  0  0  0  0  0
   23.8253  -21.3945   -7.8795 O   0  0  0  0  0  0  0  0  0  0  0  0
  1  2  1  0
  2  3  1  0
  3  4  2  0
  6  5  1  0
  7  6  1  0
  8  7  1  0
  9  8  1  1
  9 11  1  0
 10  9  1  0
 10  3  1  0
 11 12  2  0
 13 14  1  0
 15 14  1  0
 16 15  1  0
 17 16  1  1
 18 11  1  0
 18 17  1  0
 19 17  1  0
 19 21  1  0
 20 19  2  0
M  END
$$$$
