GMM.pdb
     RDKit          3D

 21 20  0  0  1  0  0  0  0  0999 V2000
   28.3469  -22.0161  -15.6203 N   0  0  0  0  0  0  0  0  0  0  0  0
   28.2065  -20.9493  -14.6508 C   0  0  0  0  0  0  0  0  0  0  0  0
   27.2325  -21.3657  -13.6240 C   0  0  0  0  0  0  0  0  0  0  0  0
   26.3149  -22.1680  -13.9093 O   0  0  0  0  0  0  0  0  0  0  0  0
   28.2133  -19.9706   -7.5246 C   0  0  0  0  0  0  0  0  0  0  0  0
   26.4327  -20.1905   -7.3464 S   0  0  0  0  0  0  0  0  0  0  0  0
   25.6624  -20.7234   -8.9112 C   0  0  0  0  0  0  0  0  0  0  0  0
   26.6573  -20.6242  -10.0174 C   0  0  0  0  0  0  0  0  0  0  0  0
   26.1395  -21.0042  -11.3690 C   0  0  2  0  0  0  0  0  0  0  0  0
   27.2619  -20.9035  -12.2826 N   0  0  0  0  0  0  0  0  0  0  0  0
   24.9910  -20.2448  -11.8318 C   0  0  0  0  0  0  0  0  0  0  0  0
   25.1254  -19.1232  -12.3597 O   0  0  0  0  0  0  0  0  0  0  0  0
   20.6519  -20.6926  -17.7715 C   0  0  0  0  0  0  0  0  0  0  0  0
   21.8992  -21.1550  -16.5838 S   0  0  0  0  0  0  0  0  0  0  0  0
   21.6837  -20.5682  -14.9197 C   0  0  0  0  0  0  0  0  0  0  0  0
   22.7687  -20.8509  -13.9553 C   0  0  0  0  0  0  0  0  0  0  0  0
   22.5727  -20.3134  -12.5822 C   0  0  2  0  0  0  0  0  0  0  0  0
   23.6788  -20.7501  -11.7004 N   0  0  0  0  0  0  0  0  0  0  0  0
   21.3313  -20.9269  -12.0105 C   0  0  0  0  0  0  0  0  0  0  0  0
   21.3898  -22.1156  -11.5908 O   0  0  0  0  0  0  0  0  0  0  0  0
   20.1323  -20.2641  -11.9193 O   0  0  0  0  0  0  0  0  0  0  0  0
  1  2  1  0
  2  3  1  0
  3  4  2  0
  6  5  1  0
  7  6  1  0
  8  7  1  0
  9  8  1  1
  9 11  1  0
 10  9  1  0
 10  3  1  0
 11 12  2  0
 13 14  1  0
 15 14  1  0
 16 15  1  0
 17 16  1  6
 18 11  1  0
 18 17  1  0
 19 17  1  0
 19 21  1  0
 20 19  2  0
M  END
$$$$
