GMM.pdb
     RDKit          3D

 21 20  0  0  1  0  0  0  0  0999 V2000
   25.2740  -14.8642  -19.1404 N   0  0  0  0  0  0  0  0  0  0  0  0
   24.5425  -13.6654  -19.4946 C   0  0  0  0  0  0  0  0  0  0  0  0
   24.6567  -12.6953  -18.3891 C   0  0  0  0  0  0  0  0  0  0  0  0
   24.1149  -12.9265  -17.2845 O   0  0  0  0  0  0  0  0  0  0  0  0
   28.6453  -13.3316  -15.4157 C   0  0  0  0  0  0  0  0  0  0  0  0
   27.6813  -11.8209  -15.6133 S   0  0  0  0  0  0  0  0  0  0  0  0
   28.0334  -11.0034  -17.2050 C   0  0  0  0  0  0  0  0  0  0  0  0
   26.9532  -10.0228  -17.5132 C   0  0  0  0  0  0  0  0  0  0  0  0
   25.5607  -10.5550  -17.3830 C   0  0  2  0  0  0  0  0  0  0  0  0
   25.3646  -11.4697  -18.4918 N   0  0  0  0  0  0  0  0  0  0  0  0
   24.5141   -9.5501  -17.3146 C   0  0  0  0  0  0  0  0  0  0  0  0
   23.9839   -9.0949  -18.3473 O   0  0  0  0  0  0  0  0  0  0  0  0
   19.9447   -9.2668  -12.4227 C   0  0  0  0  0  0  0  0  0  0  0  0
   20.1408   -7.5796  -12.9655 S   0  0  0  0  0  0  0  0  0  0  0  0
   21.1203   -7.3116  -14.4246 C   0  0  0  0  0  0  0  0  0  0  0  0
   22.2243   -8.2608  -14.6837 C   0  0  0  0  0  0  0  0  0  0  0  0
   22.9429   -8.0835  -15.9741 C   0  0  2  0  0  0  0  0  0  0  0  0
   24.0586   -9.0516  -16.0742 N   0  0  0  0  0  0  0  0  0  0  0  0
   23.5806   -6.7279  -15.9743 C   0  0  0  0  0  0  0  0  0  0  0  0
   24.7755   -6.6285  -15.5809 O   0  0  0  0  0  0  0  0  0  0  0  0
   22.9331   -5.5870  -16.3796 O   0  0  0  0  0  0  0  0  0  0  0  0
  1  2  1  0
  2  3  1  0
  3  4  2  0
  6  5  1  0
  7  6  1  0
  8  7  1  0
  9  8  1  6
  9 11  1  0
 10  9  1  0
 10  3  1  0
 11 12  2  0
 13 14  1  0
 15 14  1  0
 16 15  1  0
 17 16  1  1
 18 11  1  0
 18 17  1  0
 19 17  1  0
 19 21  1  0
 20 19  2  0
M  END
$$$$
