GMM.pdb
     RDKit          3D

 21 20  0  0  1  0  0  0  0  0999 V2000
   26.5722  -21.9404  -14.9841 N   0  0  0  0  0  0  0  0  0  0  0  0
   25.5092  -20.9620  -14.8830 C   0  0  0  0  0  0  0  0  0  0  0  0
   24.5804  -21.3782  -13.8152 C   0  0  0  0  0  0  0  0  0  0  0  0
   24.6978  -22.5015  -13.2754 O   0  0  0  0  0  0  0  0  0  0  0  0
   25.2214  -20.5305   -8.0742 C   0  0  0  0  0  0  0  0  0  0  0  0
   23.7392  -20.7236   -9.0822 S   0  0  0  0  0  0  0  0  0  0  0  0
   23.7452  -19.5877  -10.5090 C   0  0  0  0  0  0  0  0  0  0  0  0
   22.5231  -19.8135  -11.3330 C   0  0  0  0  0  0  0  0  0  0  0  0
   22.6063  -20.9655  -12.2845 C   0  0  2  0  0  0  0  0  0  0  0  0
   23.5208  -20.5644  -13.3368 N   0  0  0  0  0  0  0  0  0  0  0  0
   21.3356  -21.4282  -12.8145 C   0  0  0  0  0  0  0  0  0  0  0  0
   20.7708  -20.8351  -13.7547 O   0  0  0  0  0  0  0  0  0  0  0  0
   16.0964  -27.5090  -12.9193 C   0  0  0  0  0  0  0  0  0  0  0  0
   17.5316  -26.7106  -12.2246 S   0  0  0  0  0  0  0  0  0  0  0  0
   17.8540  -25.0408  -12.7423 C   0  0  0  0  0  0  0  0  0  0  0  0
   19.1075  -24.4145  -12.2695 C   0  0  0  0  0  0  0  0  0  0  0  0
   19.3941  -23.0549  -12.8006 C   0  0  2  0  0  0  0  0  0  0  0  0
   20.6930  -22.5681  -12.2833 N   0  0  0  0  0  0  0  0  0  0  0  0
   18.3628  -22.1124  -12.2597 C   0  0  0  0  0  0  0  0  0  0  0  0
   17.3828  -21.8110  -12.9955 O   0  0  0  0  0  0  0  0  0  0  0  0
   18.4277  -21.5583  -11.0052 O   0  0  0  0  0  0  0  0  0  0  0  0
  1  2  1  0
  2  3  1  0
  3  4  2  0
  6  5  1  0
  7  6  1  0
  8  7  1  0
  9  8  1  1
  9 11  1  0
 10  9  1  0
 10  3  1  0
 11 12  2  0
 13 14  1  0
 15 14  1  0
 16 15  1  0
 17 16  1  1
 18 11  1  0
 18 17  1  0
 19 17  1  0
 19 21  1  0
 20 19  2  0
M  END
$$$$
