GMM.pdb
     RDKit          3D

 21 20  0  0  1  0  0  0  0  0999 V2000
   15.5653  -11.1703  -11.3393 N   0  0  0  0  0  0  0  0  0  0  0  0
   16.2935  -10.4719  -10.3002 C   0  0  0  0  0  0  0  0  0  0  0  0
   16.5447   -9.0877  -10.7445 C   0  0  0  0  0  0  0  0  0  0  0  0
   16.5562   -8.8058  -11.9641 O   0  0  0  0  0  0  0  0  0  0  0  0
   12.2151   -6.4119   -7.5297 C   0  0  0  0  0  0  0  0  0  0  0  0
   13.9843   -6.0672   -7.5704 S   0  0  0  0  0  0  0  0  0  0  0  0
   14.6240   -6.0414   -9.2780 C   0  0  0  0  0  0  0  0  0  0  0  0
   16.0999   -5.8303   -9.2559 C   0  0  0  0  0  0  0  0  0  0  0  0
   16.8668   -6.6221  -10.2680 C   0  0  2  0  0  0  0  0  0  0  0  0
   16.7840   -8.0097   -9.8531 N   0  0  0  0  0  0  0  0  0  0  0  0
   18.2399   -6.1981  -10.4797 C   0  0  0  0  0  0  0  0  0  0  0  0
   19.0795   -6.2366   -9.5587 O   0  0  0  0  0  0  0  0  0  0  0  0
   22.3566  -10.3315  -12.8373 C   0  0  0  0  0  0  0  0  0  0  0  0
   21.8275   -8.7741  -13.5263 S   0  0  0  0  0  0  0  0  0  0  0  0
   21.1696   -7.5737  -12.3921 C   0  0  0  0  0  0  0  0  0  0  0  0
   20.7025   -6.2902  -12.9590 C   0  0  0  0  0  0  0  0  0  0  0  0
   20.0807   -5.3431  -11.9950 C   0  0  2  0  0  0  0  0  0  0  0  0
   18.6740   -5.7264  -11.7381 N   0  0  0  0  0  0  0  0  0  0  0  0
   20.0221   -3.9907  -12.6368 C   0  0  0  0  0  0  0  0  0  0  0  0
   18.9277   -3.6135  -13.1394 O   0  0  0  0  0  0  0  0  0  0  0  0
   21.0970   -3.1394  -12.7077 O   0  0  0  0  0  0  0  0  0  0  0  0
  1  2  1  0
  2  3  1  0
  3  4  2  0
  6  5  1  0
  7  6  1  0
  8  7  1  0
  9  8  1  1
  9 11  1  0
 10  9  1  0
 10  3  1  0
 11 12  2  0
 13 14  1  0
 15 14  1  0
 16 15  1  0
 17 16  1  6
 18 11  1  0
 18 17  1  0
 19 17  1  0
 19 21  1  0
 20 19  2  0
M  END
$$$$
