CYH.pdb
     RDKit          3D

 29 30  0  0  1  0  0  0  0  0999 V2000
   34.4916  -30.8184  -17.6272 N   0  0  0  0  0  0  0  0  0  0  0  0
   33.2044  -30.4954  -18.1875 C   0  0  1  0  0  0  0  0  0  0  0  0
   33.3212  -30.6432  -19.6941 C   0  0  0  0  0  0  0  0  0  0  0  0
   31.7634  -30.0912  -20.4565 S   0  0  0  0  0  0  0  0  0  0  0  0
   32.1288  -31.3779  -17.6714 C   0  0  0  0  0  0  0  0  0  0  0  0
   32.4202  -32.5546  -17.3709 O   0  0  0  0  0  0  0  0  0  0  0  0
   24.7848  -33.9335  -13.4108 O   0  0  0  0  0  0  0  0  0  0  0  0
   25.8376  -33.2416  -14.0077 C   0  0  0  0  0  0  0  0  0  0  0  0
   25.5935  -32.1625  -14.8305 C   0  0  0  0  0  0  0  0  0  0  0  0
   26.6329  -31.4636  -15.4321 C   0  0  0  0  0  0  0  0  0  0  0  0
   27.9517  -31.8157  -15.2348 C   0  0  0  0  0  0  0  0  0  0  0  0
   29.0837  -31.0949  -15.8654 C   0  0  0  0  0  0  0  0  0  0  0  0
   29.7472  -31.8132  -16.9841 C   0  0  2  0  0  0  0  0  0  0  0  0
   30.7895  -30.9496  -17.5037 N   0  0  0  0  0  0  0  0  0  0  0  0
   28.8150  -32.1245  -18.0673 C   0  0  0  0  0  0  0  0  0  0  0  0
   28.5606  -31.2460  -18.9311 O   0  0  0  0  0  0  0  0  0  0  0  0
   28.1842  -32.9029  -14.4049 C   0  0  0  0  0  0  0  0  0  0  0  0
   27.1544  -33.5975  -13.8071 C   0  0  0  0  0  0  0  0  0  0  0  0
   28.1646  -33.3841  -18.2079 N   0  0  0  0  0  0  0  0  0  0  0  0
   27.2705  -33.6229  -19.3188 C   0  0  1  0  0  0  0  0  0  0  0  0
   27.9406  -33.3925  -20.6537 C   0  0  0  0  0  0  0  0  0  0  0  0
   26.9474  -33.4005  -21.7695 C   0  0  0  0  0  0  0  0  0  0  0  0
   25.7788  -34.1434  -21.8650 C   0  0  0  0  0  0  0  0  0  0  0  0
   25.1489  -33.8762  -23.0243 N   0  0  0  0  0  0  0  0  0  0  0  0
   25.9045  -32.9752  -23.6601 C   0  0  0  0  0  0  0  0  0  0  0  0
   26.9942  -32.6822  -22.9078 N   0  0  0  0  0  0  0  0  0  0  0  0
   26.6467  -34.9657  -19.2496 C   0  0  0  0  0  0  0  0  0  0  0  0
   26.9381  -35.7971  -18.1823 O   0  0  0  0  0  0  0  0  0  0  0  0
   25.8584  -35.3824  -20.1273 O   0  0  0  0  0  0  0  0  0  0  0  0
  2  1  1  1
  3  2  1  0
  4  3  1  0
  5  2  1  0
  5  6  2  0
  7  8  1  0
  8  9  2  0
  9 10  1  0
 11 10  2  0
 11 12  1  0
 13 14  1  0
 13 12  1  1
 14  5  1  0
 15 13  1  0
 16 15  2  0
 17 11  1  0
 18  8  1  0
 18 17  2  0
 19 15  1  0
 20 21  1  6
 20 19  1  0
 21 22  1  0
 22 26  1  0
 23 22  2  0
 23 24  1  0
 24 25  1  0
 26 25  2  0
 27 28  1  0
 27 20  1  0
 29 27  2  0
M  END
$$$$
