CYH.pdb
     RDKit          3D

 29 30  0  0  1  0  0  0  0  0999 V2000
   16.2341  -10.7002  -12.4476 N   0  0  0  0  0  0  0  0  0  0  0  0
   17.0848   -9.5382  -12.4204 C   0  0  1  0  0  0  0  0  0  0  0  0
   17.6083   -9.3324  -13.8307 C   0  0  0  0  0  0  0  0  0  0  0  0
   18.8343   -7.9874  -13.8070 S   0  0  0  0  0  0  0  0  0  0  0  0
   16.3644   -8.3242  -11.9627 C   0  0  0  0  0  0  0  0  0  0  0  0
   15.2427   -8.0795  -12.4545 O   0  0  0  0  0  0  0  0  0  0  0  0
   11.3661   -8.8619   -7.1602 O   0  0  0  0  0  0  0  0  0  0  0  0
   12.5105   -8.2246   -7.6372 C   0  0  0  0  0  0  0  0  0  0  0  0
   13.6851   -8.9252   -7.8115 C   0  0  0  0  0  0  0  0  0  0  0  0
   14.8333   -8.3030   -8.2861 C   0  0  0  0  0  0  0  0  0  0  0  0
   14.8511   -6.9610   -8.6033 C   0  0  0  0  0  0  0  0  0  0  0  0
   16.0600   -6.2654   -9.1067 C   0  0  0  0  0  0  0  0  0  0  0  0
   16.1973   -6.2244  -10.5855 C   0  0  2  0  0  0  0  0  0  0  0  0
   16.8877   -7.4314  -10.9962 N   0  0  0  0  0  0  0  0  0  0  0  0
   16.9717   -5.0674  -11.0338 C   0  0  0  0  0  0  0  0  0  0  0  0
   18.2234   -5.0796  -10.9090 O   0  0  0  0  0  0  0  0  0  0  0  0
   13.6633   -6.2671   -8.4237 C   0  0  0  0  0  0  0  0  0  0  0  0
   12.5230   -6.8826   -7.9531 C   0  0  0  0  0  0  0  0  0  0  0  0
   16.3860   -3.9055  -11.6138 N   0  0  0  0  0  0  0  0  0  0  0  0
   17.2224   -2.8861  -12.2069 C   0  0  1  0  0  0  0  0  0  0  0  0
   18.1260   -3.4410  -13.2838 C   0  0  0  0  0  0  0  0  0  0  0  0
   18.9597   -2.3663  -13.9014 C   0  0  0  0  0  0  0  0  0  0  0  0
   19.7691   -1.4400  -13.2583 C   0  0  0  0  0  0  0  0  0  0  0  0
   20.3616   -0.6331  -14.1582 N   0  0  0  0  0  0  0  0  0  0  0  0
   19.9366   -1.0383  -15.3592 C   0  0  0  0  0  0  0  0  0  0  0  0
   19.0883   -2.0862  -15.2125 N   0  0  0  0  0  0  0  0  0  0  0  0
   16.4284   -1.7373  -12.7037 C   0  0  0  0  0  0  0  0  0  0  0  0
   15.1673   -1.9584  -13.2289 O   0  0  0  0  0  0  0  0  0  0  0  0
   16.8575   -0.5626  -12.6668 O   0  0  0  0  0  0  0  0  0  0  0  0
  2  1  1  6
  3  2  1  0
  4  3  1  0
  5  2  1  0
  5  6  2  0
  7  8  1  0
  8  9  2  0
  9 10  1  0
 11 10  2  0
 11 12  1  0
 13 14  1  0
 13 12  1  1
 14  5  1  0
 15 13  1  0
 16 15  2  0
 17 11  1  0
 18  8  1  0
 18 17  2  0
 19 15  1  0
 20 21  1  6
 20 19  1  0
 21 22  1  0
 22 26  1  0
 23 22  2  0
 23 24  1  0
 24 25  1  0
 26 25  2  0
 27 28  1  0
 27 20  1  0
 29 27  2  0
M  END
$$$$
