CYH.pdb
     RDKit          3D

 29 30  0  0  1  0  0  0  0  0999 V2000
   33.5304    3.8485   -2.7670 N   0  0  0  0  0  0  0  0  0  0  0  0
   32.3490    4.6080   -3.0871 C   0  0  1  0  0  0  0  0  0  0  0  0
   32.6489    5.3918   -4.3525 C   0  0  0  0  0  0  0  0  0  0  0  0
   33.9191    6.6403   -3.9777 S   0  0  0  0  0  0  0  0  0  0  0  0
   31.1622    3.7416   -3.2943 C   0  0  0  0  0  0  0  0  0  0  0  0
   31.3360    2.6039   -3.7794 O   0  0  0  0  0  0  0  0  0  0  0  0
   23.5248   -0.2561   -1.3674 O   0  0  0  0  0  0  0  0  0  0  0  0
   24.6358    0.5812   -1.4572 C   0  0  0  0  0  0  0  0  0  0  0  0
   25.9086    0.0834   -1.2757 C   0  0  0  0  0  0  0  0  0  0  0  0
   27.0249    0.9062   -1.3624 C   0  0  0  0  0  0  0  0  0  0  0  0
   26.9117    2.2538   -1.6327 C   0  0  0  0  0  0  0  0  0  0  0  0
   28.0814    3.1604   -1.7266 C   0  0  0  0  0  0  0  0  0  0  0  0
   28.7031    3.2544   -3.0728 C   0  0  2  0  0  0  0  0  0  0  0  0
   29.8440    4.1431   -2.9685 N   0  0  0  0  0  0  0  0  0  0  0  0
   27.7786    3.7954   -4.0687 C   0  0  0  0  0  0  0  0  0  0  0  0
   27.2919    4.9426   -3.8967 O   0  0  0  0  0  0  0  0  0  0  0  0
   25.6260    2.7427   -1.8133 C   0  0  0  0  0  0  0  0  0  0  0  0
   24.5172    1.9280   -1.7279 C   0  0  0  0  0  0  0  0  0  0  0  0
   27.3874    3.0911   -5.2436 N   0  0  0  0  0  0  0  0  0  0  0  0
   26.5067    3.7129   -6.2069 C   0  0  1  0  0  0  0  0  0  0  0  0
   27.0549    5.0235   -6.7226 C   0  0  0  0  0  0  0  0  0  0  0  0
   26.5735    6.1751   -5.9020 C   0  0  0  0  0  0  0  0  0  0  0  0
   25.5665    6.1790   -4.9467 C   0  0  0  0  0  0  0  0  0  0  0  0
   25.4247    7.4106   -4.4224 N   0  0  0  0  0  0  0  0  0  0  0  0
   26.3286    8.1826   -5.0342 C   0  0  0  0  0  0  0  0  0  0  0  0
   27.0274    7.4428   -5.9306 N   0  0  0  0  0  0  0  0  0  0  0  0
   26.1631    2.7939   -7.3181 C   0  0  0  0  0  0  0  0  0  0  0  0
   25.3745    3.2507   -8.3595 O   0  0  0  0  0  0  0  0  0  0  0  0
   26.5620    1.6086   -7.3524 O   0  0  0  0  0  0  0  0  0  0  0  0
  2  1  1  6
  3  2  1  0
  4  3  1  0
  5  2  1  0
  5  6  2  0
  7  8  1  0
  8  9  2  0
  9 10  1  0
 11 10  2  0
 11 12  1  0
 13 14  1  0
 13 12  1  1
 14  5  1  0
 15 13  1  0
 16 15  2  0
 17 11  1  0
 18  8  1  0
 18 17  2  0
 19 15  1  0
 20 21  1  6
 20 19  1  0
 21 22  1  0
 22 26  1  0
 23 22  2  0
 23 24  1  0
 24 25  1  0
 26 25  2  0
 27 28  1  0
 27 20  1  0
 29 27  2  0
M  END
$$$$
