CYH.pdb
     RDKit          3D

 29 30  0  0  1  0  0  0  0  0999 V2000
   24.8067  -19.5123  -16.2661 N   0  0  0  0  0  0  0  0  0  0  0  0
   23.6434  -19.0782  -15.5360 C   0  0  1  0  0  0  0  0  0  0  0  0
   22.6847  -18.4667  -16.5422 C   0  0  0  0  0  0  0  0  0  0  0  0
   23.3506  -16.8605  -17.0801 S   0  0  0  0  0  0  0  0  0  0  0  0
   22.9819  -20.1948  -14.8163 C   0  0  0  0  0  0  0  0  0  0  0  0
   23.0326  -21.3370  -15.3191 O   0  0  0  0  0  0  0  0  0  0  0  0
   27.6107  -21.4885  -10.1376 O   0  0  0  0  0  0  0  0  0  0  0  0
   26.2577  -21.3579  -10.4472 C   0  0  0  0  0  0  0  0  0  0  0  0
   25.7323  -21.9576  -11.5720 C   0  0  0  0  0  0  0  0  0  0  0  0
   24.3858  -21.8359  -11.8929 C   0  0  0  0  0  0  0  0  0  0  0  0
   23.5162  -21.1122  -11.1042 C   0  0  0  0  0  0  0  0  0  0  0  0
   22.0758  -20.9580  -11.4207 C   0  0  0  0  0  0  0  0  0  0  0  0
   21.7196  -21.1345  -12.8523 C   0  0  2  0  0  0  0  0  0  0  0  0
   22.2970  -20.0268  -13.5884 N   0  0  0  0  0  0  0  0  0  0  0  0
   20.2723  -21.1318  -13.0630 C   0  0  0  0  0  0  0  0  0  0  0  0
   19.7283  -20.1232  -13.5821 O   0  0  0  0  0  0  0  0  0  0  0  0
   24.0568  -20.5137   -9.9754 C   0  0  0  0  0  0  0  0  0  0  0  0
   25.3924  -20.6333   -9.6552 C   0  0  0  0  0  0  0  0  0  0  0  0
   19.4239  -22.2206  -12.7106 N   0  0  0  0  0  0  0  0  0  0  0  0
   18.3329  -22.6051  -13.5780 C   0  0  1  0  0  0  0  0  0  0  0  0
   18.8013  -22.9340  -14.9767 C   0  0  0  0  0  0  0  0  0  0  0  0
   18.5579  -21.7962  -15.9135 C   0  0  0  0  0  0  0  0  0  0  0  0
   17.9275  -20.5895  -15.6431 C   0  0  0  0  0  0  0  0  0  0  0  0
   17.9009  -19.8188  -16.7465 N   0  0  0  0  0  0  0  0  0  0  0  0
   18.5057  -20.5235  -17.7081 C   0  0  0  0  0  0  0  0  0  0  0  0
   18.9060  -21.7207  -17.2124 N   0  0  0  0  0  0  0  0  0  0  0  0
   17.5290  -23.7090  -13.0015 C   0  0  0  0  0  0  0  0  0  0  0  0
   16.1521  -23.6919  -13.1396 O   0  0  0  0  0  0  0  0  0  0  0  0
   18.0513  -24.6664  -12.3883 O   0  0  0  0  0  0  0  0  0  0  0  0
  2  1  1  6
  3  2  1  0
  4  3  1  0
  5  2  1  0
  5  6  2  0
  7  8  1  0
  8  9  2  0
  9 10  1  0
 11 10  2  0
 11 12  1  0
 13 14  1  0
 13 12  1  1
 14  5  1  0
 15 13  1  0
 16 15  2  0
 17 11  1  0
 18  8  1  0
 18 17  2  0
 19 15  1  0
 20 21  1  6
 20 19  1  0
 21 22  1  0
 22 26  1  0
 23 22  2  0
 23 24  1  0
 24 25  1  0
 26 25  2  0
 27 28  1  0
 27 20  1  0
 29 27  2  0
M  END
$$$$
