CYH.pdb
     RDKit          3D

 29 30  0  0  1  0  0  0  0  0999 V2000
   23.6178  -12.8694  -20.2740 N   0  0  0  0  0  0  0  0  0  0  0  0
   23.0900  -14.0488  -19.6373 C   0  0  1  0  0  0  0  0  0  0  0  0
   24.0202  -14.3921  -18.4874 C   0  0  0  0  0  0  0  0  0  0  0  0
   25.5334  -15.1424  -19.1658 S   0  0  0  0  0  0  0  0  0  0  0  0
   21.7097  -13.8453  -19.1319 C   0  0  0  0  0  0  0  0  0  0  0  0
   21.4385  -12.7652  -18.5662 O   0  0  0  0  0  0  0  0  0  0  0  0
   18.7564  -10.2930  -23.6165 O   0  0  0  0  0  0  0  0  0  0  0  0
   18.6804  -11.3690  -22.7334 C   0  0  0  0  0  0  0  0  0  0  0  0
   17.7214  -11.4002  -21.7433 C   0  0  0  0  0  0  0  0  0  0  0  0
   17.6339  -12.4661  -20.8562 C   0  0  0  0  0  0  0  0  0  0  0  0
   18.4990  -13.5380  -20.9248 C   0  0  0  0  0  0  0  0  0  0  0  0
   18.4364  -14.6882  -19.9911 C   0  0  0  0  0  0  0  0  0  0  0  0
   19.3283  -14.5915  -18.8066 C   0  0  2  0  0  0  0  0  0  0  0  0
   20.6869  -14.8161  -19.2604 N   0  0  0  0  0  0  0  0  0  0  0  0
   19.0034  -15.5923  -17.7907 C   0  0  0  0  0  0  0  0  0  0  0  0
   19.7686  -16.5781  -17.6318 O   0  0  0  0  0  0  0  0  0  0  0  0
   19.4592  -13.4950  -21.9252 C   0  0  0  0  0  0  0  0  0  0  0  0
   19.5476  -12.4384  -22.8063 C   0  0  0  0  0  0  0  0  0  0  0  0
   17.8527  -15.5191  -16.9540 N   0  0  0  0  0  0  0  0  0  0  0  0
   17.6890  -16.4464  -15.8569 C   0  0  1  0  0  0  0  0  0  0  0  0
   18.8196  -16.3578  -14.8579 C   0  0  0  0  0  0  0  0  0  0  0  0
   19.5413  -17.6600  -14.7360 C   0  0  0  0  0  0  0  0  0  0  0  0
   19.2401  -18.8629  -15.3597 C   0  0  0  0  0  0  0  0  0  0  0  0
   20.1246  -19.8110  -14.9979 N   0  0  0  0  0  0  0  0  0  0  0  0
   20.9788  -19.2218  -14.1550 C   0  0  0  0  0  0  0  0  0  0  0  0
   20.6328  -17.9207  -13.9914 N   0  0  0  0  0  0  0  0  0  0  0  0
   16.3698  -16.2979  -15.1975 C   0  0  0  0  0  0  0  0  0  0  0  0
   15.7434  -15.0639  -15.1994 O   0  0  0  0  0  0  0  0  0  0  0  0
   15.7934  -17.2542  -14.6331 O   0  0  0  0  0  0  0  0  0  0  0  0
  2  1  1  1
  3  2  1  0
  4  3  1  0
  5  2  1  0
  5  6  2  0
  7  8  1  0
  8  9  2  0
  9 10  1  0
 11 10  2  0
 11 12  1  0
 13 14  1  0
 13 12  1  6
 14  5  1  0
 15 13  1  0
 16 15  2  0
 17 11  1  0
 18  8  1  0
 18 17  2  0
 19 15  1  0
 20 21  1  1
 20 19  1  0
 21 22  1  0
 22 26  1  0
 23 22  2  0
 23 24  1  0
 24 25  1  0
 26 25  2  0
 27 28  1  0
 27 20  1  0
 29 27  2  0
M  END
$$$$
