CYH.pdb
     RDKit          3D

 29 30  0  0  1  0  0  0  0  0999 V2000
   33.9219  -28.9657  -18.2517 N   0  0  0  0  0  0  0  0  0  0  0  0
   33.2671  -30.2365  -18.4280 C   0  0  1  0  0  0  0  0  0  0  0  0
   34.3077  -31.3149  -18.1839 C   0  0  0  0  0  0  0  0  0  0  0  0
   34.8702  -31.9569  -19.7914 S   0  0  0  0  0  0  0  0  0  0  0  0
   32.1232  -30.4135  -17.4995 C   0  0  0  0  0  0  0  0  0  0  0  0
   32.2299  -29.9717  -16.3361 O   0  0  0  0  0  0  0  0  0  0  0  0
   29.8343  -24.7245  -17.1930 O   0  0  0  0  0  0  0  0  0  0  0  0
   29.5592  -26.0899  -17.2519 C   0  0  0  0  0  0  0  0  0  0  0  0
   29.8167  -26.8107  -18.3987 C   0  0  0  0  0  0  0  0  0  0  0  0
   29.5475  -28.1719  -18.4716 C   0  0  0  0  0  0  0  0  0  0  0  0
   29.0123  -28.8622  -17.4043 C   0  0  0  0  0  0  0  0  0  0  0  0
   28.7083  -30.3128  -17.4506 C   0  0  0  0  0  0  0  0  0  0  0  0
   29.7941  -31.2031  -16.9649 C   0  0  2  0  0  0  0  0  0  0  0  0
   30.9181  -31.0586  -17.8694 N   0  0  0  0  0  0  0  0  0  0  0  0
   29.3865  -32.6076  -16.9467 C   0  0  0  0  0  0  0  0  0  0  0  0
   29.5771  -33.3166  -17.9684 O   0  0  0  0  0  0  0  0  0  0  0  0
   28.7578  -28.1261  -16.2563 C   0  0  0  0  0  0  0  0  0  0  0  0
   29.0242  -26.7755  -16.1820 C   0  0  0  0  0  0  0  0  0  0  0  0
   28.7756  -33.2351  -15.8231 N   0  0  0  0  0  0  0  0  0  0  0  0
   28.4783  -34.6497  -15.8504 C   0  0  1  0  0  0  0  0  0  0  0  0
   29.7062  -35.4884  -16.1205 C   0  0  0  0  0  0  0  0  0  0  0  0
   29.3723  -36.9438  -16.1629 C   0  0  0  0  0  0  0  0  0  0  0  0
   28.3736  -37.5681  -16.8973 C   0  0  0  0  0  0  0  0  0  0  0  0
   28.3868  -38.8949  -16.6703 N   0  0  0  0  0  0  0  0  0  0  0  0
   29.3801  -39.1149  -15.8030 C   0  0  0  0  0  0  0  0  0  0  0  0
   29.9812  -37.9398  -15.4912 N   0  0  0  0  0  0  0  0  0  0  0  0
   27.7783  -35.0930  -14.6213 C   0  0  0  0  0  0  0  0  0  0  0  0
   27.4796  -36.4339  -14.4546 O   0  0  0  0  0  0  0  0  0  0  0  0
   27.4429  -34.2944  -13.7184 O   0  0  0  0  0  0  0  0  0  0  0  0
  2  1  1  1
  3  2  1  0
  4  3  1  0
  5  2  1  0
  5  6  2  0
  7  8  1  0
  8  9  2  0
  9 10  1  0
 11 10  2  0
 11 12  1  0
 13 14  1  0
 13 12  1  6
 14  5  1  0
 15 13  1  0
 16 15  2  0
 17 11  1  0
 18  8  1  0
 18 17  2  0
 19 15  1  0
 20 21  1  1
 20 19  1  0
 21 22  1  0
 22 26  1  0
 23 22  2  0
 23 24  1  0
 24 25  1  0
 26 25  2  0
 27 28  1  0
 27 20  1  0
 29 27  2  0
M  END
$$$$
