CYH.pdb
     RDKit          3D

 29 30  0  0  1  0  0  0  0  0999 V2000
   28.3825  -22.4103  -17.6522 N   0  0  0  0  0  0  0  0  0  0  0  0
   27.6781  -21.2725  -17.1194 C   0  0  1  0  0  0  0  0  0  0  0  0
   26.5262  -20.9759  -18.0631 C   0  0  0  0  0  0  0  0  0  0  0  0
   27.0469  -19.6790  -19.2291 S   0  0  0  0  0  0  0  0  0  0  0  0
   27.1631  -21.5205  -15.7499 C   0  0  0  0  0  0  0  0  0  0  0  0
   26.5064  -22.5626  -15.5430 O   0  0  0  0  0  0  0  0  0  0  0  0
   26.3834  -20.6169   -6.8685 O   0  0  0  0  0  0  0  0  0  0  0  0
   26.7173  -20.4901   -8.2160 C   0  0  0  0  0  0  0  0  0  0  0  0
   25.9146  -19.7699   -9.0750 C   0  0  0  0  0  0  0  0  0  0  0  0
   26.2350  -19.6352  -10.4204 C   0  0  0  0  0  0  0  0  0  0  0  0
   27.3662  -20.2137  -10.9566 C   0  0  0  0  0  0  0  0  0  0  0  0
   27.7343  -20.0940  -12.3880 C   0  0  0  0  0  0  0  0  0  0  0  0
   26.9103  -20.9025  -13.3234 C   0  0  2  0  0  0  0  0  0  0  0  0
   27.3805  -20.6330  -14.6682 N   0  0  0  0  0  0  0  0  0  0  0  0
   25.4915  -20.5561  -13.2462 C   0  0  0  0  0  0  0  0  0  0  0  0
   25.0948  -19.4727  -13.7477 O   0  0  0  0  0  0  0  0  0  0  0  0
   28.1657  -20.9356  -10.0823 C   0  0  0  0  0  0  0  0  0  0  0  0
   27.8496  -21.0703   -8.7472 C   0  0  0  0  0  0  0  0  0  0  0  0
   24.5119  -21.3845  -12.6268 N   0  0  0  0  0  0  0  0  0  0  0  0
   23.1454  -20.9290  -12.5019 C   0  0  1  0  0  0  0  0  0  0  0  0
   22.1761  -21.8110  -13.2545 C   0  0  0  0  0  0  0  0  0  0  0  0
   21.9750  -21.3281  -14.6538 C   0  0  0  0  0  0  0  0  0  0  0  0
   22.4951  -20.1844  -15.2437 C   0  0  0  0  0  0  0  0  0  0  0  0
   22.0869  -20.0918  -16.5231 N   0  0  0  0  0  0  0  0  0  0  0  0
   21.3170  -21.1615  -16.7471 C   0  0  0  0  0  0  0  0  0  0  0  0
   21.2443  -21.9143  -15.6214 N   0  0  0  0  0  0  0  0  0  0  0  0
   22.7426  -20.7662  -11.0847 C   0  0  0  0  0  0  0  0  0  0  0  0
   21.5407  -20.1488  -10.7857 O   0  0  0  0  0  0  0  0  0  0  0  0
   23.4537  -21.1693  -10.1374 O   0  0  0  0  0  0  0  0  0  0  0  0
  2  1  1  6
  3  2  1  0
  4  3  1  0
  5  2  1  0
  5  6  2  0
  7  8  1  0
  8  9  2  0
  9 10  1  0
 11 10  2  0
 11 12  1  0
 13 14  1  0
 13 12  1  1
 14  5  1  0
 15 13  1  0
 16 15  2  0
 17 11  1  0
 18  8  1  0
 18 17  2  0
 19 15  1  0
 20 21  1  1
 20 19  1  0
 21 22  1  0
 22 26  1  0
 23 22  2  0
 23 24  1  0
 24 25  1  0
 26 25  2  0
 27 28  1  0
 27 20  1  0
 29 27  2  0
M  END
$$$$
