CYH.pdb
     RDKit          3D

 29 30  0  0  1  0  0  0  0  0999 V2000
   18.3363  -15.9538  -17.0289 N   0  0  0  0  0  0  0  0  0  0  0  0
   18.8398  -14.6055  -17.0887 C   0  0  1  0  0  0  0  0  0  0  0  0
   19.0462  -14.2685  -18.5548 C   0  0  0  0  0  0  0  0  0  0  0  0
   19.7982  -12.6152  -18.6727 S   0  0  0  0  0  0  0  0  0  0  0  0
   17.9099  -13.6296  -16.4682 C   0  0  0  0  0  0  0  0  0  0  0  0
   16.7091  -13.6541  -16.8112 O   0  0  0  0  0  0  0  0  0  0  0  0
   13.6798  -16.3988  -12.4420 O   0  0  0  0  0  0  0  0  0  0  0  0
   14.5536  -15.3425  -12.6950 C   0  0  0  0  0  0  0  0  0  0  0  0
   14.0728  -14.0698  -12.9183 C   0  0  0  0  0  0  0  0  0  0  0  0
   14.9320  -13.0075  -13.1718 C   0  0  0  0  0  0  0  0  0  0  0  0
   16.3002  -13.1766  -13.2116 C   0  0  0  0  0  0  0  0  0  0  0  0
   17.2442  -12.0662  -13.4844 C   0  0  0  0  0  0  0  0  0  0  0  0
   17.4075  -11.7117  -14.9181 C   0  0  2  0  0  0  0  0  0  0  0  0
   18.3187  -12.6735  -15.5072 N   0  0  0  0  0  0  0  0  0  0  0  0
   17.9657  -10.3712  -15.0927 C   0  0  0  0  0  0  0  0  0  0  0  0
   19.1972  -10.1894  -14.9108 O   0  0  0  0  0  0  0  0  0  0  0  0
   16.7715  -14.4616  -12.9852 C   0  0  0  0  0  0  0  0  0  0  0  0
   15.9208  -15.5168  -12.7336 C   0  0  0  0  0  0  0  0  0  0  0  0
   17.1874   -9.2370  -15.4631 N   0  0  0  0  0  0  0  0  0  0  0  0
   17.8046   -7.9343  -15.5748 C   0  0  1  0  0  0  0  0  0  0  0  0
   17.3187   -7.1716  -16.7857 C   0  0  0  0  0  0  0  0  0  0  0  0
   17.8687   -7.7486  -18.0489 C   0  0  0  0  0  0  0  0  0  0  0  0
   18.8164   -8.7537  -18.1850 C   0  0  0  0  0  0  0  0  0  0  0  0
   19.0537   -8.9987  -19.4872 N   0  0  0  0  0  0  0  0  0  0  0  0
   18.2686   -8.1619  -20.1731 C   0  0  0  0  0  0  0  0  0  0  0  0
   17.5487   -7.4024  -19.3105 N   0  0  0  0  0  0  0  0  0  0  0  0
   17.6485   -7.1386  -14.3340 C   0  0  0  0  0  0  0  0  0  0  0  0
   18.2917   -5.9183  -14.2229 O   0  0  0  0  0  0  0  0  0  0  0  0
   16.9508   -7.5305  -13.3722 O   0  0  0  0  0  0  0  0  0  0  0  0
  2  1  1  6
  3  2  1  0
  4  3  1  0
  5  2  1  0
  5  6  2  0
  7  8  1  0
  8  9  2  0
  9 10  1  0
 11 10  2  0
 11 12  1  0
 13 14  1  0
 13 12  1  1
 14  5  1  0
 15 13  1  0
 16 15  2  0
 17 11  1  0
 18  8  1  0
 18 17  2  0
 19 15  1  0
 20 21  1  6
 20 19  1  0
 21 22  1  0
 22 26  1  0
 23 22  2  0
 23 24  1  0
 24 25  1  0
 26 25  2  0
 27 28  1  0
 27 20  1  0
 29 27  2  0
M  END
$$$$
