CYH.pdb
     RDKit          3D

 29 30  0  0  1  0  0  0  0  0999 V2000
   19.6089  -13.3170  -16.0154 N   0  0  0  0  0  0  0  0  0  0  0  0
   19.2934  -12.1155  -16.7447 C   0  0  1  0  0  0  0  0  0  0  0  0
   17.8436  -12.2243  -17.1825 C   0  0  0  0  0  0  0  0  0  0  0  0
   17.7190  -13.5002  -18.4746 S   0  0  0  0  0  0  0  0  0  0  0  0
   19.4874  -10.8932  -15.9259 C   0  0  0  0  0  0  0  0  0  0  0  0
   19.0005  -10.8662  -14.7760 O   0  0  0  0  0  0  0  0  0  0  0  0
   22.4734   -2.6494  -14.0069 O   0  0  0  0  0  0  0  0  0  0  0  0
   22.2817   -3.9545  -14.4580 C   0  0  0  0  0  0  0  0  0  0  0  0
   22.1565   -4.2221  -15.8047 C   0  0  0  0  0  0  0  0  0  0  0  0
   21.9651   -5.5179  -16.2685 C   0  0  0  0  0  0  0  0  0  0  0  0
   21.8915   -6.5919  -15.4065 C   0  0  0  0  0  0  0  0  0  0  0  0
   21.6827   -7.9856  -15.8678 C   0  0  0  0  0  0  0  0  0  0  0  0
   20.3316   -8.5444  -15.6034 C   0  0  2  0  0  0  0  0  0  0  0  0
   20.1973   -9.7576  -16.3859 N   0  0  0  0  0  0  0  0  0  0  0  0
   19.2682   -7.6181  -15.9911 C   0  0  0  0  0  0  0  0  0  0  0  0
   18.9827   -7.4847  -17.2090 O   0  0  0  0  0  0  0  0  0  0  0  0
   22.0190   -6.3097  -14.0542 C   0  0  0  0  0  0  0  0  0  0  0  0
   22.2091   -5.0249  -13.5920 C   0  0  0  0  0  0  0  0  0  0  0  0
   18.5214   -6.8427  -15.0582 N   0  0  0  0  0  0  0  0  0  0  0  0
   17.5258   -5.9029  -15.5230 C   0  0  1  0  0  0  0  0  0  0  0  0
   16.1247   -6.3111  -15.1303 C   0  0  0  0  0  0  0  0  0  0  0  0
   15.1074   -5.3703  -15.6884 C   0  0  0  0  0  0  0  0  0  0  0  0
   15.1877   -4.6221  -16.8547 C   0  0  0  0  0  0  0  0  0  0  0  0
   14.0686   -3.8924  -17.0195 N   0  0  0  0  0  0  0  0  0  0  0  0
   13.2845   -4.1707  -15.9731 C   0  0  0  0  0  0  0  0  0  0  0  0
   13.9056   -5.0638  -15.1633 N   0  0  0  0  0  0  0  0  0  0  0  0
   17.8278   -4.5170  -15.0925 C   0  0  0  0  0  0  0  0  0  0  0  0
   17.0154   -3.4804  -15.5175 O   0  0  0  0  0  0  0  0  0  0  0  0
   18.7986   -4.2439  -14.3521 O   0  0  0  0  0  0  0  0  0  0  0  0
  2  1  1  1
  3  2  1  0
  4  3  1  0
  5  2  1  0
  5  6  2  0
  7  8  1  0
  8  9  2  0
  9 10  1  0
 11 10  2  0
 11 12  1  0
 13 14  1  0
 13 12  1  6
 14  5  1  0
 15 13  1  0
 16 15  2  0
 17 11  1  0
 18  8  1  0
 18 17  2  0
 19 15  1  0
 20 21  1  1
 20 19  1  0
 21 22  1  0
 22 26  1  0
 23 22  2  0
 23 24  1  0
 24 25  1  0
 26 25  2  0
 27 28  1  0
 27 20  1  0
 29 27  2  0
M  END
$$$$
