CYH.pdb
     RDKit          3D

 29 30  0  0  1  0  0  0  0  0999 V2000
   28.2922  -18.7552  -18.3056 N   0  0  0  0  0  0  0  0  0  0  0  0
   26.9848  -18.7949  -18.9089 C   0  0  1  0  0  0  0  0  0  0  0  0
   26.6567  -20.2537  -19.1726 C   0  0  0  0  0  0  0  0  0  0  0  0
   27.6156  -20.8156  -20.6140 S   0  0  0  0  0  0  0  0  0  0  0  0
   25.9457  -18.1885  -18.0401 C   0  0  0  0  0  0  0  0  0  0  0  0
   26.0908  -18.2627  -16.8018 O   0  0  0  0  0  0  0  0  0  0  0  0
   19.9028  -12.2228  -15.4419 O   0  0  0  0  0  0  0  0  0  0  0  0
   20.8683  -13.0043  -16.0748 C   0  0  0  0  0  0  0  0  0  0  0  0
   22.0050  -13.3998  -15.4022 C   0  0  0  0  0  0  0  0  0  0  0  0
   22.9755  -14.1788  -16.0203 C   0  0  0  0  0  0  0  0  0  0  0  0
   22.8472  -14.5906  -17.3302 C   0  0  0  0  0  0  0  0  0  0  0  0
   23.8660  -15.4173  -18.0211 C   0  0  0  0  0  0  0  0  0  0  0  0
   23.8320  -16.8667  -17.6959 C   0  0  2  0  0  0  0  0  0  0  0  0
   24.7991  -17.5307  -18.5478 N   0  0  0  0  0  0  0  0  0  0  0  0
   22.5145  -17.4536  -17.9385 C   0  0  0  0  0  0  0  0  0  0  0  0
   21.9292  -17.2220  -19.0277 O   0  0  0  0  0  0  0  0  0  0  0  0
   21.6992  -14.1863  -17.9962 C   0  0  0  0  0  0  0  0  0  0  0  0
   20.7352  -13.4136  -17.3847 C   0  0  0  0  0  0  0  0  0  0  0  0
   21.8397  -18.2871  -17.0008 N   0  0  0  0  0  0  0  0  0  0  0  0
   20.4583  -18.0310  -16.6597 C   0  0  1  0  0  0  0  0  0  0  0  0
   20.2773  -16.7042  -15.9589 C   0  0  0  0  0  0  0  0  0  0  0  0
   18.8484  -16.4749  -15.5887 C   0  0  0  0  0  0  0  0  0  0  0  0
   18.0026  -17.3240  -14.8885 C   0  0  0  0  0  0  0  0  0  0  0  0
   16.7864  -16.7634  -14.7518 N   0  0  0  0  0  0  0  0  0  0  0  0
   16.8546  -15.5730  -15.3563 C   0  0  0  0  0  0  0  0  0  0  0  0
   18.0984  -15.3909  -15.8651 N   0  0  0  0  0  0  0  0  0  0  0  0
   19.5655  -18.1487  -17.8370 C   0  0  0  0  0  0  0  0  0  0  0  0
   19.7214  -17.2753  -18.8991 O   0  0  0  0  0  0  0  0  0  0  0  0
   18.6665  -19.0158  -17.9099 O   0  0  0  0  0  0  0  0  0  0  0  0
  2  1  1  1
  3  2  1  0
  4  3  1  0
  5  2  1  0
  5  6  2  0
  7  8  1  0
  8  9  2  0
  9 10  1  0
 11 10  2  0
 11 12  1  0
 13 14  1  0
 13 12  1  6
 14  5  1  0
 15 13  1  0
 16 15  2  0
 17 11  1  0
 18  8  1  0
 18 17  2  0
 19 15  1  0
 20 21  1  6
 20 19  1  0
 21 22  1  0
 22 26  1  0
 23 22  2  0
 23 24  1  0
 24 25  1  0
 26 25  2  0
 27 28  1  0
 27 20  1  0
 29 27  2  0
M  END
$$$$
