CYH.pdb
     RDKit          3D

 29 30  0  0  1  0  0  0  0  0999 V2000
   28.6761  -32.6304  -15.0878 N   0  0  0  0  0  0  0  0  0  0  0  0
   27.4254  -33.0114  -14.4831 C   0  0  1  0  0  0  0  0  0  0  0  0
   26.8623  -34.1589  -15.3027 C   0  0  0  0  0  0  0  0  0  0  0  0
   25.2040  -34.5663  -14.6728 S   0  0  0  0  0  0  0  0  0  0  0  0
   27.5885  -33.4284  -13.0684 C   0  0  0  0  0  0  0  0  0  0  0  0
   28.5957  -34.0997  -12.7603 O   0  0  0  0  0  0  0  0  0  0  0  0
   26.5269  -33.0495   -4.1881 O   0  0  0  0  0  0  0  0  0  0  0  0
   26.5230  -32.8573   -5.5688 C   0  0  0  0  0  0  0  0  0  0  0  0
   27.6226  -33.1946   -6.3292 C   0  0  0  0  0  0  0  0  0  0  0  0
   27.6328  -33.0085   -7.7062 C   0  0  0  0  0  0  0  0  0  0  0  0
   26.5477  -32.4796   -8.3733 C   0  0  0  0  0  0  0  0  0  0  0  0
   26.5278  -32.2632   -9.8401 C   0  0  0  0  0  0  0  0  0  0  0  0
   26.8556  -33.4575  -10.6609 C   0  0  2  0  0  0  0  0  0  0  0  0
   26.6577  -33.1017  -12.0525 N   0  0  0  0  0  0  0  0  0  0  0  0
   25.9949  -34.5963  -10.3426 C   0  0  0  0  0  0  0  0  0  0  0  0
   24.7942  -34.5835  -10.7179 O   0  0  0  0  0  0  0  0  0  0  0  0
   25.4477  -32.1444   -7.5973 C   0  0  0  0  0  0  0  0  0  0  0  0
   25.4356  -32.3283   -6.2311 C   0  0  0  0  0  0  0  0  0  0  0  0
   26.4395  -35.7410   -9.6206 N   0  0  0  0  0  0  0  0  0  0  0  0
   25.5171  -36.8096   -9.3083 C   0  0  1  0  0  0  0  0  0  0  0  0
   26.0641  -38.1673   -9.6843 C   0  0  0  0  0  0  0  0  0  0  0  0
   24.9868  -39.2020   -9.7022 C   0  0  0  0  0  0  0  0  0  0  0  0
   23.6133  -39.0026   -9.6859 C   0  0  0  0  0  0  0  0  0  0  0  0
   22.9694  -40.1845   -9.7111 N   0  0  0  0  0  0  0  0  0  0  0  0
   23.9184  -41.1255   -9.7430 C   0  0  0  0  0  0  0  0  0  0  0  0
   25.1414  -40.5394   -9.7378 N   0  0  0  0  0  0  0  0  0  0  0  0
   25.0850  -36.7725   -7.8908 C   0  0  0  0  0  0  0  0  0  0  0  0
   25.6027  -35.8056   -7.0469 O   0  0  0  0  0  0  0  0  0  0  0  0
   24.2618  -37.5895   -7.4216 O   0  0  0  0  0  0  0  0  0  0  0  0
  2  1  1  6
  3  2  1  0
  4  3  1  0
  5  2  1  0
  5  6  2  0
  7  8  1  0
  8  9  2  0
  9 10  1  0
 11 10  2  0
 11 12  1  0
 13 14  1  0
 13 12  1  1
 14  5  1  0
 15 13  1  0
 16 15  2  0
 17 11  1  0
 18  8  1  0
 18 17  2  0
 19 15  1  0
 20 21  1  1
 20 19  1  0
 21 22  1  0
 22 26  1  0
 23 22  2  0
 23 24  1  0
 24 25  1  0
 26 25  2  0
 27 28  1  0
 27 20  1  0
 29 27  2  0
M  END
$$$$
