CYH.pdb
     RDKit          3D

 29 30  0  0  1  0  0  0  0  0999 V2000
   19.9638  -10.1187    7.6889 N   0  0  0  0  0  0  0  0  0  0  0  0
   20.7892  -11.2746    7.4493 C   0  0  1  0  0  0  0  0  0  0  0  0
   21.9999  -11.1573    8.3580 C   0  0  0  0  0  0  0  0  0  0  0  0
   23.3420  -10.3411    7.4385 S   0  0  0  0  0  0  0  0  0  0  0  0
   20.0708  -12.5446    7.7200 C   0  0  0  0  0  0  0  0  0  0  0  0
   19.1756  -12.5456    8.5909 O   0  0  0  0  0  0  0  0  0  0  0  0
   14.1766  -12.9269    4.3013 O   0  0  0  0  0  0  0  0  0  0  0  0
   15.3733  -13.5265    4.6908 C   0  0  0  0  0  0  0  0  0  0  0  0
   15.3752  -14.7651    5.2966 C   0  0  0  0  0  0  0  0  0  0  0  0
   16.5604  -15.3745    5.6900 C   0  0  0  0  0  0  0  0  0  0  0  0
   17.7847  -14.7710    5.4936 C   0  0  0  0  0  0  0  0  0  0  0  0
   19.0669  -15.3911    5.9061 C   0  0  0  0  0  0  0  0  0  0  0  0
   19.5784  -14.9644    7.2342 C   0  0  2  0  0  0  0  0  0  0  0  0
   20.3518  -13.7537    7.0386 N   0  0  0  0  0  0  0  0  0  0  0  0
   20.4410  -15.9769    7.8423 C   0  0  0  0  0  0  0  0  0  0  0  0
   21.5611  -16.2218    7.3246 O   0  0  0  0  0  0  0  0  0  0  0  0
   17.7696  -13.5253    4.8832 C   0  0  0  0  0  0  0  0  0  0  0  0
   16.5949  -12.9189    4.4920 C   0  0  0  0  0  0  0  0  0  0  0  0
   20.0854  -16.7172    9.0063 N   0  0  0  0  0  0  0  0  0  0  0  0
   21.0013  -17.6893    9.5600 C   0  0  1  0  0  0  0  0  0  0  0  0
   21.3600  -17.3858   10.9964 C   0  0  0  0  0  0  0  0  0  0  0  0
   22.2466  -16.1876   11.0942 C   0  0  0  0  0  0  0  0  0  0  0  0
   23.5030  -16.0088   10.5318 C   0  0  0  0  0  0  0  0  0  0  0  0
   23.9861  -14.7920   10.8450 N   0  0  0  0  0  0  0  0  0  0  0  0
   23.0514  -14.2020   11.5969 C   0  0  0  0  0  0  0  0  0  0  0  0
   21.9961  -15.0395   11.7522 N   0  0  0  0  0  0  0  0  0  0  0  0
   20.4975  -19.0751    9.4079 C   0  0  0  0  0  0  0  0  0  0  0  0
   21.2570  -20.1308    9.8810 O   0  0  0  0  0  0  0  0  0  0  0  0
   19.4009  -19.3314    8.8629 O   0  0  0  0  0  0  0  0  0  0  0  0
  2  1  1  1
  3  2  1  0
  4  3  1  0
  5  2  1  0
  5  6  2  0
  7  8  1  0
  8  9  2  0
  9 10  1  0
 11 10  2  0
 11 12  1  0
 13 14  1  0
 13 12  1  6
 14  5  1  0
 15 13  1  0
 16 15  2  0
 17 11  1  0
 18  8  1  0
 18 17  2  0
 19 15  1  0
 20 21  1  1
 20 19  1  0
 21 22  1  0
 22 26  1  0
 23 22  2  0
 23 24  1  0
 24 25  1  0
 26 25  2  0
 27 28  1  0
 27 20  1  0
 29 27  2  0
M  END
$$$$
