CYH.pdb
     RDKit          3D

 29 30  0  0  1  0  0  0  0  0999 V2000
   28.7404  -22.5357  -18.0974 N   0  0  0  0  0  0  0  0  0  0  0  0
   27.9230  -21.4318  -17.6639 C   0  0  1  0  0  0  0  0  0  0  0  0
   26.8454  -21.2318  -18.7147 C   0  0  0  0  0  0  0  0  0  0  0  0
   26.5110  -19.4499  -18.8752 S   0  0  0  0  0  0  0  0  0  0  0  0
   27.3022  -21.6778  -16.3387 C   0  0  0  0  0  0  0  0  0  0  0  0
   26.7753  -22.7905  -16.1280 O   0  0  0  0  0  0  0  0  0  0  0  0
   25.3873  -20.6154   -7.6696 O   0  0  0  0  0  0  0  0  0  0  0  0
   25.8704  -20.5037   -8.9725 C   0  0  0  0  0  0  0  0  0  0  0  0
   26.7643  -21.4264   -9.4729 C   0  0  0  0  0  0  0  0  0  0  0  0
   27.2541  -21.3276  -10.7695 C   0  0  0  0  0  0  0  0  0  0  0  0
   26.8703  -20.3058  -11.6125 C   0  0  0  0  0  0  0  0  0  0  0  0
   27.3776  -20.1681  -12.9990 C   0  0  0  0  0  0  0  0  0  0  0  0
   26.6358  -20.9458  -14.0248 C   0  0  2  0  0  0  0  0  0  0  0  0
   27.2790  -20.7123  -15.3031 N   0  0  0  0  0  0  0  0  0  0  0  0
   25.2365  -20.5316  -14.1231 C   0  0  0  0  0  0  0  0  0  0  0  0
   24.9293  -19.5792  -14.8855 O   0  0  0  0  0  0  0  0  0  0  0  0
   25.9704  -19.3839  -11.0975 C   0  0  0  0  0  0  0  0  0  0  0  0
   25.4833  -19.4803   -9.8114 C   0  0  0  0  0  0  0  0  0  0  0  0
   24.1797  -21.1508  -13.3958 N   0  0  0  0  0  0  0  0  0  0  0  0
   22.8489  -20.5862  -13.4209 C   0  0  1  0  0  0  0  0  0  0  0  0
   22.8672  -19.0750  -13.4198 C   0  0  0  0  0  0  0  0  0  0  0  0
   21.4828  -18.5143  -13.4006 C   0  0  0  0  0  0  0  0  0  0  0  0
   20.4211  -18.8924  -12.5904 C   0  0  0  0  0  0  0  0  0  0  0  0
   19.3327  -18.1516  -12.8704 N   0  0  0  0  0  0  0  0  0  0  0  0
   19.6941  -17.3120  -13.8460 C   0  0  0  0  0  0  0  0  0  0  0  0
   20.9931  -17.5250  -14.1723 N   0  0  0  0  0  0  0  0  0  0  0  0
   22.0421  -21.1181  -14.5449 C   0  0  0  0  0  0  0  0  0  0  0  0
   20.9126  -21.8707  -14.2752 O   0  0  0  0  0  0  0  0  0  0  0  0
   22.3449  -20.9115  -15.7412 O   0  0  0  0  0  0  0  0  0  0  0  0
  2  1  1  6
  3  2  1  0
  4  3  1  0
  5  2  1  0
  5  6  2  0
  7  8  1  0
  8  9  2  0
  9 10  1  0
 11 10  2  0
 11 12  1  0
 13 14  1  0
 13 12  1  1
 14  5  1  0
 15 13  1  0
 16 15  2  0
 17 11  1  0
 18  8  1  0
 18 17  2  0
 19 15  1  0
 20 21  1  6
 20 19  1  0
 21 22  1  0
 22 26  1  0
 23 22  2  0
 23 24  1  0
 24 25  1  0
 26 25  2  0
 27 28  1  0
 27 20  1  0
 29 27  2  0
M  END
$$$$
