CYH.pdb
     RDKit          3D

 29 30  0  0  1  0  0  0  0  0999 V2000
   21.0846   -6.8722  -19.5649 N   0  0  0  0  0  0  0  0  0  0  0  0
   20.9470   -5.7295  -18.6988 C   0  0  1  0  0  0  0  0  0  0  0  0
   20.3232   -4.6160  -19.5212 C   0  0  0  0  0  0  0  0  0  0  0  0
   21.6406   -3.7660  -20.4458 S   0  0  0  0  0  0  0  0  0  0  0  0
   20.1031   -6.0206  -17.5133 C   0  0  0  0  0  0  0  0  0  0  0  0
   19.0338   -6.6428  -17.6850 O   0  0  0  0  0  0  0  0  0  0  0  0
   17.9858   -7.7892   -9.0517 O   0  0  0  0  0  0  0  0  0  0  0  0
   18.6104   -7.4277  -10.2444 C   0  0  0  0  0  0  0  0  0  0  0  0
   18.8936   -8.3749  -11.2055 C   0  0  0  0  0  0  0  0  0  0  0  0
   19.5158   -8.0290  -12.3988 C   0  0  0  0  0  0  0  0  0  0  0  0
   19.8776   -6.7274  -12.6759 C   0  0  0  0  0  0  0  0  0  0  0  0
   20.5472   -6.3255  -13.9364 C   0  0  0  0  0  0  0  0  0  0  0  0
   19.6344   -5.9361  -15.0421 C   0  0  2  0  0  0  0  0  0  0  0  0
   20.4523   -5.6271  -16.1987 N   0  0  0  0  0  0  0  0  0  0  0  0
   18.8355   -4.7579  -14.7063 C   0  0  0  0  0  0  0  0  0  0  0  0
   19.3889   -3.6286  -14.6739 O   0  0  0  0  0  0  0  0  0  0  0  0
   19.5872   -5.7837  -11.7013 C   0  0  0  0  0  0  0  0  0  0  0  0
   18.9699   -6.1248  -10.5167 C   0  0  0  0  0  0  0  0  0  0  0  0
   17.4435   -4.8101  -14.4080 N   0  0  0  0  0  0  0  0  0  0  0  0
   16.7512   -3.6262  -13.9502 C   0  0  1  0  0  0  0  0  0  0  0  0
   16.0917   -2.8737  -15.0828 C   0  0  0  0  0  0  0  0  0  0  0  0
   15.4057   -1.6415  -14.5906 C   0  0  0  0  0  0  0  0  0  0  0  0
   15.8609   -0.7322  -13.6459 C   0  0  0  0  0  0  0  0  0  0  0  0
   14.9574    0.2500  -13.4695 N   0  0  0  0  0  0  0  0  0  0  0  0
   13.9394   -0.0282  -14.2900 C   0  0  0  0  0  0  0  0  0  0  0  0
   14.2027   -1.1706  -14.9717 N   0  0  0  0  0  0  0  0  0  0  0  0
   15.7859   -3.9323  -12.8677 C   0  0  0  0  0  0  0  0  0  0  0  0
   15.2249   -5.1952  -12.7935 O   0  0  0  0  0  0  0  0  0  0  0  0
   15.4542   -3.0850  -12.0089 O   0  0  0  0  0  0  0  0  0  0  0  0
  2  1  1  6
  3  2  1  0
  4  3  1  0
  5  2  1  0
  5  6  2  0
  7  8  1  0
  8  9  2  0
  9 10  1  0
 11 10  2  0
 11 12  1  0
 13 14  1  0
 13 12  1  1
 14  5  1  0
 15 13  1  0
 16 15  2  0
 17 11  1  0
 18  8  1  0
 18 17  2  0
 19 15  1  0
 20 21  1  6
 20 19  1  0
 21 22  1  0
 22 26  1  0
 23 22  2  0
 23 24  1  0
 24 25  1  0
 26 25  2  0
 27 28  1  0
 27 20  1  0
 29 27  2  0
M  END
$$$$
