CYH.pdb
     RDKit          3D

 29 30  0  0  1  0  0  0  0  0999 V2000
   26.1434  -11.1976  -17.6875 N   0  0  0  0  0  0  0  0  0  0  0  0
   26.5589  -10.3424  -16.6055 C   0  0  1  0  0  0  0  0  0  0  0  0
   28.0725  -10.2403  -16.6703 C   0  0  0  0  0  0  0  0  0  0  0  0
   28.7842  -11.8660  -16.2661 S   0  0  0  0  0  0  0  0  0  0  0  0
   25.9535   -8.9903  -16.6926 C   0  0  0  0  0  0  0  0  0  0  0  0
   26.2166   -8.1637  -15.7941 O   0  0  0  0  0  0  0  0  0  0  0  0
   29.4488   -4.7835  -20.9964 O   0  0  0  0  0  0  0  0  0  0  0  0
   28.2250   -5.2840  -20.5545 C   0  0  0  0  0  0  0  0  0  0  0  0
   27.4143   -4.5332  -19.7299 C   0  0  0  0  0  0  0  0  0  0  0  0
   26.1921   -5.0192  -19.2818 C   0  0  0  0  0  0  0  0  0  0  0  0
   25.7354   -6.2703  -19.6396 C   0  0  0  0  0  0  0  0  0  0  0  0
   24.4393   -6.8210  -19.1751 C   0  0  0  0  0  0  0  0  0  0  0  0
   24.4247   -7.3071  -17.7711 C   0  0  2  0  0  0  0  0  0  0  0  0
   25.0929   -8.5936  -17.7448 N   0  0  0  0  0  0  0  0  0  0  0  0
   23.0640   -7.4767  -17.2623 C   0  0  0  0  0  0  0  0  0  0  0  0
   22.3194   -8.3502  -17.7771 O   0  0  0  0  0  0  0  0  0  0  0  0
   26.5600   -7.0159  -20.4695 C   0  0  0  0  0  0  0  0  0  0  0  0
   27.7729   -6.5355  -20.9153 C   0  0  0  0  0  0  0  0  0  0  0  0
   22.5187   -6.6997  -16.2000 N   0  0  0  0  0  0  0  0  0  0  0  0
   21.1668   -6.9347  -15.7445 C   0  0  1  0  0  0  0  0  0  0  0  0
   21.1148   -7.8812  -14.5674 C   0  0  0  0  0  0  0  0  0  0  0  0
   20.6876   -9.2494  -14.9879 C   0  0  0  0  0  0  0  0  0  0  0  0
   20.3998   -9.6959  -16.2703 C   0  0  0  0  0  0  0  0  0  0  0  0
   20.0492  -10.9953  -16.2448 N   0  0  0  0  0  0  0  0  0  0  0  0
   20.1122  -11.3734  -14.9641 C   0  0  0  0  0  0  0  0  0  0  0  0
   20.4975  -10.3232  -14.1975 N   0  0  0  0  0  0  0  0  0  0  0  0
   20.4515   -5.6692  -15.4548 C   0  0  0  0  0  0  0  0  0  0  0  0
   19.1037   -5.7055  -15.1429 O   0  0  0  0  0  0  0  0  0  0  0  0
   21.0238   -4.5569  -15.4814 O   0  0  0  0  0  0  0  0  0  0  0  0
  2  1  1  6
  3  2  1  0
  4  3  1  0
  5  2  1  0
  5  6  2  0
  7  8  1  0
  8  9  2  0
  9 10  1  0
 11 10  2  0
 11 12  1  0
 13 14  1  0
 13 12  1  6
 14  5  1  0
 15 13  1  0
 16 15  2  0
 17 11  1  0
 18  8  1  0
 18 17  2  0
 19 15  1  0
 20 21  1  1
 20 19  1  0
 21 22  1  0
 22 26  1  0
 23 22  2  0
 23 24  1  0
 24 25  1  0
 26 25  2  0
 27 28  1  0
 27 20  1  0
 29 27  2  0
M  END
$$$$
