PNP.pdb
     RDKit          3D

 23 24  0  0  1  0  0  0  0  0999 V2000
    8.5679  -15.2598   19.6287 N   0  0  0  0  0  0  0  0  0  0  0  0
    8.9668  -14.8115   18.2845 C   0  0  0  0  0  0  0  0  0  0  0  0
    7.9799  -13.6570   18.0882 C   0  0  0  0  0  0  0  0  0  0  0  0
    7.7826  -13.0649   19.4667 C   0  0  0  0  0  0  0  0  0  0  0  0
    8.5537  -14.0221   20.3406 C   0  0  1  0  0  0  0  0  0  0  0  0
    7.9971  -14.1292   21.7051 C   0  0  0  0  0  0  0  0  0  0  0  0
    7.8074  -13.0755   22.3765 O   0  0  0  0  0  0  0  0  0  0  0  0
    5.6388  -16.6752   21.8442 N   0  0  0  0  0  0  0  0  0  0  0  0
    5.9546  -17.3970   23.0295 C   0  0  0  0  0  0  0  0  0  0  0  0
    5.5144  -18.5474   23.1939 O   0  0  0  0  0  0  0  0  0  0  0  0
    6.8157  -16.7915   24.0932 C   0  0  0  0  0  0  0  0  0  0  0  0
    7.2460  -15.3750   23.6840 C   0  0  2  0  0  0  0  0  0  0  0  0
    7.6531  -15.3517   22.3295 N   0  0  0  0  0  0  0  0  0  0  0  0
    8.1749  -14.9036   24.7036 C   0  0  0  0  0  0  0  0  0  0  0  0
    9.4002  -15.2155   24.4184 O   0  0  0  0  0  0  0  0  0  0  0  0
    7.9134  -14.1935   25.8873 N   0  0  0  0  0  0  0  0  0  0  0  0
    6.5790  -13.8655   26.3541 C   0  0  0  0  0  0  0  0  0  0  0  0
    6.7313  -12.6165   27.1489 C   0  0  0  0  0  0  0  0  0  0  0  0
    8.2082  -12.2921   27.1675 C   0  0  0  0  0  0  0  0  0  0  0  0
    8.8154  -13.6668   26.8695 C   0  0  1  0  0  0  0  0  0  0  0  0
    8.8550  -14.5033   28.1043 C   0  0  0  0  0  0  0  0  0  0  0  0
    8.0140  -15.4224   28.2736 O   0  0  0  0  0  0  0  0  0  0  0  0
    9.7941  -14.3233   29.1109 O   0  0  0  0  0  0  0  0  0  0  0  0
  1  5  1  0
  2  3  1  0
  2  1  1  0
  3  4  1  0
  4  5  1  0
  5  6  1  1
  6  7  2  0
  8  9  1  0
  9 10  2  0
  9 11  1  0
 12 11  1  1
 12 14  1  0
 13 12  1  0
 13  6  1  0
 14 15  2  0
 14 16  1  0
 16 20  1  0
 16 17  1  0
 17 18  1  0
 19 18  1  0
 20 19  1  0
 21 23  1  0
 20 21  1  1
 22 21  2  0
M  END
$$$$
