PNP.pdb
     RDKit          3D

 23 24  0  0  1  0  0  0  0  0999 V2000
    8.5640  -15.2468   19.6947 N   0  0  0  0  0  0  0  0  0  0  0  0
    8.9165  -14.7571   18.3519 C   0  0  0  0  0  0  0  0  0  0  0  0
    7.9088  -13.6120   18.2162 C   0  0  0  0  0  0  0  0  0  0  0  0
    7.7448  -13.0599   19.6155 C   0  0  0  0  0  0  0  0  0  0  0  0
    8.5544  -14.0289   20.4400 C   0  0  1  0  0  0  0  0  0  0  0  0
    8.0403  -14.1804   21.8169 C   0  0  0  0  0  0  0  0  0  0  0  0
    7.8887  -13.1506   22.5337 O   0  0  0  0  0  0  0  0  0  0  0  0
    6.5386  -18.4113   22.0976 N   0  0  0  0  0  0  0  0  0  0  0  0
    6.0003  -17.4637   23.0129 C   0  0  0  0  0  0  0  0  0  0  0  0
    4.8209  -17.0892   22.8997 O   0  0  0  0  0  0  0  0  0  0  0  0
    6.8355  -16.9035   24.1211 C   0  0  0  0  0  0  0  0  0  0  0  0
    7.3087  -15.4867   23.7639 C   0  0  2  0  0  0  0  0  0  0  0  0
    7.6974  -15.4209   22.4054 N   0  0  0  0  0  0  0  0  0  0  0  0
    8.2674  -15.0898   24.7876 C   0  0  0  0  0  0  0  0  0  0  0  0
    9.4792  -15.4167   24.4636 O   0  0  0  0  0  0  0  0  0  0  0  0
    8.0454  -14.4338   26.0099 N   0  0  0  0  0  0  0  0  0  0  0  0
    6.7301  -14.2237   26.5863 C   0  0  0  0  0  0  0  0  0  0  0  0
    6.8482  -12.9880   27.4072 C   0  0  0  0  0  0  0  0  0  0  0  0
    8.2932  -12.5496   27.3250 C   0  0  0  0  0  0  0  0  0  0  0  0
    8.9782  -13.8641   26.9378 C   0  0  1  0  0  0  0  0  0  0  0  0
    9.1770  -14.7272   28.1385 C   0  0  0  0  0  0  0  0  0  0  0  0
   10.0188  -14.4072   29.0158 O   0  0  0  0  0  0  0  0  0  0  0  0
    8.4665  -15.9004   28.3536 O   0  0  0  0  0  0  0  0  0  0  0  0
  1  5  1  0
  2  3  1  0
  2  1  1  0
  3  4  1  0
  4  5  1  0
  5  6  1  1
  6  7  2  0
  8  9  1  0
  9 10  2  0
  9 11  1  0
 12 11  1  1
 12 14  1  0
 13 12  1  0
 13  6  1  0
 14 15  2  0
 14 16  1  0
 16 20  1  0
 16 17  1  0
 17 18  1  0
 19 18  1  0
 20 19  1  0
 21 23  1  0
 20 21  1  1
 22 21  2  0
M  END
$$$$
