PNP.pdb
     RDKit          3D

 23 24  0  0  1  0  0  0  0  0999 V2000
    9.0252  -15.1908   19.4945 N   0  0  0  0  0  0  0  0  0  0  0  0
    9.3079  -14.6455   18.1567 C   0  0  0  0  0  0  0  0  0  0  0  0
    8.1432  -13.6602   18.0223 C   0  0  0  0  0  0  0  0  0  0  0  0
    7.8933  -13.1477   19.4239 C   0  0  0  0  0  0  0  0  0  0  0  0
    8.8329  -13.9926   20.2470 C   0  0  1  0  0  0  0  0  0  0  0  0
    8.3404  -14.2275   21.6202 C   0  0  0  0  0  0  0  0  0  0  0  0
    8.0202  -13.2368   22.3367 O   0  0  0  0  0  0  0  0  0  0  0  0
    5.2654  -16.6221   22.2005 N   0  0  0  0  0  0  0  0  0  0  0  0
    6.2869  -17.4932   22.6731 C   0  0  0  0  0  0  0  0  0  0  0  0
    6.4240  -18.6218   22.1714 O   0  0  0  0  0  0  0  0  0  0  0  0
    7.2091  -17.0724   23.7739 C   0  0  0  0  0  0  0  0  0  0  0  0
    7.7112  -15.6421   23.5268 C   0  0  2  0  0  0  0  0  0  0  0  0
    8.1974  -15.5081   22.2052 N   0  0  0  0  0  0  0  0  0  0  0  0
    8.5947  -15.3060   24.6364 C   0  0  0  0  0  0  0  0  0  0  0  0
    9.8112  -15.6963   24.4173 O   0  0  0  0  0  0  0  0  0  0  0  0
    8.3000  -14.6479   25.8422 N   0  0  0  0  0  0  0  0  0  0  0  0
    6.9519  -14.3631   26.2980 C   0  0  0  0  0  0  0  0  0  0  0  0
    7.0671  -13.1438   27.1436 C   0  0  0  0  0  0  0  0  0  0  0  0
    8.5371  -12.7934   27.2007 C   0  0  0  0  0  0  0  0  0  0  0  0
    9.1752  -14.1439   26.8599 C   0  0  1  0  0  0  0  0  0  0  0  0
    9.2099  -15.0276   28.0615 C   0  0  0  0  0  0  0  0  0  0  0  0
    8.3814  -15.9655   28.1818 O   0  0  0  0  0  0  0  0  0  0  0  0
   10.1310  -14.8728   29.0887 O   0  0  0  0  0  0  0  0  0  0  0  0
  1  5  1  0
  2  3  1  0
  2  1  1  0
  3  4  1  0
  4  5  1  0
  5  6  1  1
  6  7  2  0
  8  9  1  0
  9 10  2  0
  9 11  1  0
 12 11  1  1
 12 14  1  0
 13 12  1  0
 13  6  1  0
 14 15  2  0
 14 16  1  0
 16 20  1  0
 16 17  1  0
 17 18  1  0
 19 18  1  0
 20 19  1  0
 21 23  1  0
 20 21  1  1
 22 21  2  0
M  END
$$$$
