PNP.pdb
     RDKit          3D

 23 24  0  0  1  0  0  0  0  0999 V2000
    8.5232  -15.1941   19.6219 N   0  0  0  0  0  0  0  0  0  0  0  0
    8.7974  -14.6860   18.2678 C   0  0  0  0  0  0  0  0  0  0  0  0
    7.7878  -13.5360   18.2085 C   0  0  0  0  0  0  0  0  0  0  0  0
    7.7091  -13.0038   19.6228 C   0  0  0  0  0  0  0  0  0  0  0  0
    8.5624  -13.9872   20.3839 C   0  0  1  0  0  0  0  0  0  0  0  0
    8.1302  -14.1572   21.7866 C   0  0  0  0  0  0  0  0  0  0  0  0
    8.0372  -13.1389   22.5293 O   0  0  0  0  0  0  0  0  0  0  0  0
    6.4845  -18.4483   22.1373 N   0  0  0  0  0  0  0  0  0  0  0  0
    6.0576  -17.4684   23.0771 C   0  0  0  0  0  0  0  0  0  0  0  0
    4.8838  -17.0608   23.0618 O   0  0  0  0  0  0  0  0  0  0  0  0
    7.0045  -16.9133   24.0944 C   0  0  0  0  0  0  0  0  0  0  0  0
    7.3958  -15.4749   23.7248 C   0  0  2  0  0  0  0  0  0  0  0  0
    7.8055  -15.4037   22.3727 N   0  0  0  0  0  0  0  0  0  0  0  0
    8.3084  -15.0051   24.7597 C   0  0  0  0  0  0  0  0  0  0  0  0
    9.5323  -15.3557   24.5163 O   0  0  0  0  0  0  0  0  0  0  0  0
    8.0335  -14.2617   25.9196 N   0  0  0  0  0  0  0  0  0  0  0  0
    6.6977  -13.8691   26.3294 C   0  0  0  0  0  0  0  0  0  0  0  0
    6.8733  -12.6123   27.1068 C   0  0  0  0  0  0  0  0  0  0  0  0
    8.3610  -12.3496   27.1758 C   0  0  0  0  0  0  0  0  0  0  0  0
    8.9198  -13.7540   26.9258 C   0  0  1  0  0  0  0  0  0  0  0  0
    8.8778  -14.5671   28.1761 C   0  0  0  0  0  0  0  0  0  0  0  0
    7.9852  -15.4382   28.3350 O   0  0  0  0  0  0  0  0  0  0  0  0
    9.7936  -14.4161   29.2085 O   0  0  0  0  0  0  0  0  0  0  0  0
  1  5  1  0
  2  3  1  0
  2  1  1  0
  3  4  1  0
  4  5  1  0
  5  6  1  1
  6  7  2  0
  8  9  1  0
  9 10  2  0
  9 11  1  0
 12 11  1  1
 12 14  1  0
 13 12  1  0
 13  6  1  0
 14 15  2  0
 14 16  1  0
 16 20  1  0
 16 17  1  0
 17 18  1  0
 19 18  1  0
 20 19  1  0
 21 23  1  0
 20 21  1  1
 22 21  2  0
M  END
$$$$
