PNP.pdb
     RDKit          3D

 23 24  0  0  1  0  0  0  0  0999 V2000
    8.7161  -14.9288   19.3488 N   0  0  0  0  0  0  0  0  0  0  0  0
    8.9008  -14.3157   18.0232 C   0  0  0  0  0  0  0  0  0  0  0  0
    7.6648  -13.4129   17.9761 C   0  0  0  0  0  0  0  0  0  0  0  0
    7.4408  -12.9716   19.4060 C   0  0  0  0  0  0  0  0  0  0  0  0
    8.4729  -13.7762   20.1556 C   0  0  1  0  0  0  0  0  0  0  0  0
    8.0587  -14.0963   21.5374 C   0  0  0  0  0  0  0  0  0  0  0  0
    7.7733  -13.1527   22.3282 O   0  0  0  0  0  0  0  0  0  0  0  0
    5.7462  -17.5096   25.5309 N   0  0  0  0  0  0  0  0  0  0  0  0
    7.1014  -17.3490   25.1266 C   0  0  0  0  0  0  0  0  0  0  0  0
    8.0121  -17.3903   25.9710 O   0  0  0  0  0  0  0  0  0  0  0  0
    7.4549  -17.1291   23.6892 C   0  0  0  0  0  0  0  0  0  0  0  0
    7.5678  -15.6259   23.3952 C   0  0  2  0  0  0  0  0  0  0  0  0
    7.9557  -15.4105   22.0520 N   0  0  0  0  0  0  0  0  0  0  0  0
    8.3765  -15.0458   24.4602 C   0  0  0  0  0  0  0  0  0  0  0  0
    9.6426  -15.2413   24.2629 O   0  0  0  0  0  0  0  0  0  0  0  0
    7.9690  -14.3420   25.6058 N   0  0  0  0  0  0  0  0  0  0  0  0
    6.5829  -14.1834   26.0055 C   0  0  0  0  0  0  0  0  0  0  0  0
    6.5306  -12.9018   26.7602 C   0  0  0  0  0  0  0  0  0  0  0  0
    7.9485  -12.3804   26.8275 C   0  0  0  0  0  0  0  0  0  0  0  0
    8.7470  -13.6687   26.6044 C   0  0  1  0  0  0  0  0  0  0  0  0
    8.8420  -14.4544   27.8692 C   0  0  0  0  0  0  0  0  0  0  0  0
    8.1344  -15.4809   28.0315 O   0  0  0  0  0  0  0  0  0  0  0  0
    9.6915  -14.1105   28.9120 O   0  0  0  0  0  0  0  0  0  0  0  0
  1  5  1  0
  2  3  1  0
  2  1  1  0
  3  4  1  0
  4  5  1  0
  5  6  1  1
  6  7  2  0
  8  9  1  0
  9 10  2  0
  9 11  1  0
 12 11  1  1
 12 14  1  0
 13 12  1  0
 13  6  1  0
 14 15  2  0
 14 16  1  0
 16 20  1  0
 16 17  1  0
 17 18  1  0
 19 18  1  0
 20 19  1  0
 21 23  1  0
 20 21  1  1
 22 21  2  0
M  END
$$$$
