PNP.pdb
     RDKit          3D

 23 24  0  0  1  0  0  0  0  0999 V2000
    8.6069  -15.0294   19.4217 N   0  0  0  0  0  0  0  0  0  0  0  0
    8.9749  -14.5042   18.0966 C   0  0  0  0  0  0  0  0  0  0  0  0
    7.9782  -13.3468   17.9860 C   0  0  0  0  0  0  0  0  0  0  0  0
    7.8072  -12.8339   19.3992 C   0  0  0  0  0  0  0  0  0  0  0  0
    8.6015  -13.8335   20.2019 C   0  0  1  0  0  0  0  0  0  0  0  0
    8.0745  -14.0202   21.5696 C   0  0  0  0  0  0  0  0  0  0  0  0
    7.9579  -13.0148   22.3265 O   0  0  0  0  0  0  0  0  0  0  0  0
    6.3766  -18.2664   21.7413 N   0  0  0  0  0  0  0  0  0  0  0  0
    5.9108  -17.3302   22.7068 C   0  0  0  0  0  0  0  0  0  0  0  0
    4.7332  -16.9347   22.6729 O   0  0  0  0  0  0  0  0  0  0  0  0
    6.8208  -16.8071   23.7734 C   0  0  0  0  0  0  0  0  0  0  0  0
    7.2454  -15.3673   23.4485 C   0  0  2  0  0  0  0  0  0  0  0  0
    7.6819  -15.2693   22.1066 N   0  0  0  0  0  0  0  0  0  0  0  0
    8.1467  -14.9415   24.5120 C   0  0  0  0  0  0  0  0  0  0  0  0
    9.3819  -15.2206   24.2354 O   0  0  0  0  0  0  0  0  0  0  0  0
    7.8513  -14.3023   25.7277 N   0  0  0  0  0  0  0  0  0  0  0  0
    6.5029  -14.0775   26.2149 C   0  0  0  0  0  0  0  0  0  0  0  0
    6.5850  -12.8584   27.0646 C   0  0  0  0  0  0  0  0  0  0  0  0
    8.0396  -12.4458   27.0911 C   0  0  0  0  0  0  0  0  0  0  0  0
    8.7269  -13.7662   26.7286 C   0  0  1  0  0  0  0  0  0  0  0  0
    8.8261  -14.6532   27.9241 C   0  0  0  0  0  0  0  0  0  0  0  0
    8.0302  -15.6161   28.0659 O   0  0  0  0  0  0  0  0  0  0  0  0
    9.7744  -14.4750   28.9224 O   0  0  0  0  0  0  0  0  0  0  0  0
  1  5  1  0
  2  3  1  0
  2  1  1  0
  3  4  1  0
  4  5  1  0
  5  6  1  1
  6  7  2  0
  8  9  1  0
  9 10  2  0
  9 11  1  0
 12 11  1  1
 12 14  1  0
 13 12  1  0
 13  6  1  0
 14 15  2  0
 14 16  1  0
 16 20  1  0
 16 17  1  0
 17 18  1  0
 19 18  1  0
 20 19  1  0
 21 23  1  0
 20 21  1  1
 22 21  2  0
M  END
$$$$
