PNP.pdb
     RDKit          3D

 23 24  0  0  1  0  0  0  0  0999 V2000
    8.5228  -14.9368   19.3831 N   0  0  0  0  0  0  0  0  0  0  0  0
    8.6593  -14.2923   18.0667 C   0  0  0  0  0  0  0  0  0  0  0  0
    7.5312  -13.2608   18.1601 C   0  0  0  0  0  0  0  0  0  0  0  0
    7.4814  -12.8582   19.6179 C   0  0  0  0  0  0  0  0  0  0  0  0
    8.4789  -13.7994   20.2452 C   0  0  1  0  0  0  0  0  0  0  0  0
    8.1524  -14.1306   21.6477 C   0  0  0  0  0  0  0  0  0  0  0  0
    8.0801  -13.1992   22.4988 O   0  0  0  0  0  0  0  0  0  0  0  0
    5.7556  -17.3882   25.6883 N   0  0  0  0  0  0  0  0  0  0  0  0
    7.0885  -17.4004   25.1894 C   0  0  0  0  0  0  0  0  0  0  0  0
    8.0402  -17.6078   25.9611 O   0  0  0  0  0  0  0  0  0  0  0  0
    7.3696  -17.1661   23.7384 C   0  0  0  0  0  0  0  0  0  0  0  0
    7.5603  -15.6657   23.4712 C   0  0  2  0  0  0  0  0  0  0  0  0
    7.9093  -15.4428   22.1186 N   0  0  0  0  0  0  0  0  0  0  0  0
    8.4416  -15.1583   24.5155 C   0  0  0  0  0  0  0  0  0  0  0  0
    9.6753  -15.4993   24.3107 O   0  0  0  0  0  0  0  0  0  0  0  0
    8.1294  -14.3894   25.6490 N   0  0  0  0  0  0  0  0  0  0  0  0
    6.7764  -14.0370   26.0381 C   0  0  0  0  0  0  0  0  0  0  0  0
    6.8968  -12.7498   26.7753 C   0  0  0  0  0  0  0  0  0  0  0  0
    8.3724  -12.4264   26.8443 C   0  0  0  0  0  0  0  0  0  0  0  0
    8.9879  -13.8149   26.6433 C   0  0  1  0  0  0  0  0  0  0  0  0
    8.9691  -14.5883   27.9191 C   0  0  0  0  0  0  0  0  0  0  0  0
    8.1627  -15.5411   28.0699 O   0  0  0  0  0  0  0  0  0  0  0  0
    9.8148  -14.3117   28.9847 O   0  0  0  0  0  0  0  0  0  0  0  0
  1  5  1  0
  2  3  1  0
  2  1  1  0
  3  4  1  0
  4  5  1  0
  5  6  1  1
  6  7  2  0
  8  9  1  0
  9 10  2  0
  9 11  1  0
 12 11  1  6
 12 14  1  0
 13 12  1  0
 13  6  1  0
 14 15  2  0
 14 16  1  0
 16 20  1  0
 16 17  1  0
 17 18  1  0
 19 18  1  0
 20 19  1  0
 21 23  1  0
 20 21  1  1
 22 21  2  0
M  END
$$$$
