PNP.pdb
     RDKit          3D

 23 24  0  0  1  0  0  0  0  0999 V2000
    8.5550  -15.0651   19.6079 N   0  0  0  0  0  0  0  0  0  0  0  0
    8.8038  -14.4819   18.2794 C   0  0  0  0  0  0  0  0  0  0  0  0
    7.8037  -13.3225   18.3092 C   0  0  0  0  0  0  0  0  0  0  0  0
    7.7612  -12.8721   19.7532 C   0  0  0  0  0  0  0  0  0  0  0  0
    8.6222  -13.9045   20.4369 C   0  0  1  0  0  0  0  0  0  0  0  0
    8.2195  -14.1517   21.8370 C   0  0  0  0  0  0  0  0  0  0  0  0
    8.2020  -13.1857   22.6517 O   0  0  0  0  0  0  0  0  0  0  0  0
    6.2432  -18.0704   21.8049 N   0  0  0  0  0  0  0  0  0  0  0  0
    5.9282  -17.3541   22.9937 C   0  0  0  0  0  0  0  0  0  0  0  0
    4.7545  -17.0178   23.2254 O   0  0  0  0  0  0  0  0  0  0  0  0
    6.9937  -16.9941   23.9809 C   0  0  0  0  0  0  0  0  0  0  0  0
    7.5089  -15.5728   23.7098 C   0  0  2  0  0  0  0  0  0  0  0  0
    7.8437  -15.4183   22.3442 N   0  0  0  0  0  0  0  0  0  0  0  0
    8.5243  -15.2912   24.7170 C   0  0  0  0  0  0  0  0  0  0  0  0
    9.6848  -15.7537   24.3716 O   0  0  0  0  0  0  0  0  0  0  0  0
    8.3998  -14.6178   25.9436 N   0  0  0  0  0  0  0  0  0  0  0  0
    7.1374  -14.1438   26.4801 C   0  0  0  0  0  0  0  0  0  0  0  0
    7.4810  -12.9701   27.3281 C   0  0  0  0  0  0  0  0  0  0  0  0
    8.9877  -12.8430   27.3022 C   0  0  0  0  0  0  0  0  0  0  0  0
    9.3966  -14.2672   26.9127 C   0  0  1  0  0  0  0  0  0  0  0  0
    9.3669  -15.1670   28.1025 C   0  0  0  0  0  0  0  0  0  0  0  0
    8.4164  -15.9744   28.2621 O   0  0  0  0  0  0  0  0  0  0  0  0
   10.3566  -15.1676   29.0761 O   0  0  0  0  0  0  0  0  0  0  0  0
  1  5  1  0
  2  3  1  0
  2  1  1  0
  3  4  1  0
  4  5  1  0
  5  6  1  1
  6  7  2  0
  8  9  1  0
  9 10  2  0
  9 11  1  0
 12 11  1  6
 12 14  1  0
 13 12  1  0
 13  6  1  0
 14 15  2  0
 14 16  1  0
 16 20  1  0
 16 17  1  0
 17 18  1  0
 19 18  1  0
 20 19  1  0
 21 23  1  0
 20 21  1  1
 22 21  2  0
M  END
$$$$
