PNP.pdb
     RDKit          3D

 23 24  0  0  1  0  0  0  0  0999 V2000
    8.1039  -15.2787   20.2534 N   0  0  0  0  0  0  0  0  0  0  0  0
    8.2217  -14.8981   18.8362 C   0  0  0  0  0  0  0  0  0  0  0  0
    7.5731  -13.5115   18.8811 C   0  0  0  0  0  0  0  0  0  0  0  0
    7.9343  -12.9482   20.2382 C   0  0  0  0  0  0  0  0  0  0  0  0
    8.6255  -14.1156   20.8968 C   0  0  1  0  0  0  0  0  0  0  0  0
    8.4610  -14.1263   22.3652 C   0  0  0  0  0  0  0  0  0  0  0  0
    8.9174  -13.1617   23.0423 O   0  0  0  0  0  0  0  0  0  0  0  0
    7.7094  -17.7488   23.7117 N   0  0  0  0  0  0  0  0  0  0  0  0
    6.6326  -17.3340   24.5449 C   0  0  0  0  0  0  0  0  0  0  0  0
    5.7826  -18.1589   24.9205 O   0  0  0  0  0  0  0  0  0  0  0  0
    6.5026  -15.9088   24.9824 C   0  0  0  0  0  0  0  0  0  0  0  0
    7.7085  -15.0925   24.4941 C   0  0  2  0  0  0  0  0  0  0  0  0
    7.8158  -15.1597   23.0853 N   0  0  0  0  0  0  0  0  0  0  0  0
    8.8503  -15.4980   25.3045 C   0  0  0  0  0  0  0  0  0  0  0  0
    9.6735  -16.2433   24.6360 O   0  0  0  0  0  0  0  0  0  0  0  0
    9.1452  -15.1935   26.6439 N   0  0  0  0  0  0  0  0  0  0  0  0
    8.1678  -14.6915   27.5920 C   0  0  0  0  0  0  0  0  0  0  0  0
    8.9430  -13.8837   28.5725 C   0  0  0  0  0  0  0  0  0  0  0  0
   10.3983  -14.0052   28.1798 C   0  0  0  0  0  0  0  0  0  0  0  0
   10.3770  -15.3051   27.3692 C   0  0  1  0  0  0  0  0  0  0  0  0
   10.3921  -16.4904   28.2752 C   0  0  0  0  0  0  0  0  0  0  0  0
    9.3455  -17.1635   28.4546 O   0  0  0  0  0  0  0  0  0  0  0  0
   11.5280  -16.9095   28.9547 O   0  0  0  0  0  0  0  0  0  0  0  0
  1  5  1  0
  2  3  1  0
  2  1  1  0
  3  4  1  0
  4  5  1  0
  5  6  1  1
  6  7  2  0
  8  9  1  0
  9 10  2  0
  9 11  1  0
 12 11  1  1
 12 14  1  0
 13 12  1  0
 13  6  1  0
 14 15  2  0
 14 16  1  0
 16 20  1  0
 16 17  1  0
 17 18  1  0
 19 18  1  0
 20 19  1  0
 21 23  1  0
 20 21  1  1
 22 21  2  0
M  END
$$$$
