PNP.pdb
     RDKit          3D

 23 24  0  0  1  0  0  0  0  0999 V2000
    9.0054  -17.1386   20.1642 N   0  0  0  0  0  0  0  0  0  0  0  0
    9.4209  -17.1943   18.7531 C   0  0  0  0  0  0  0  0  0  0  0  0
    8.3354  -16.3162   18.1240 C   0  0  0  0  0  0  0  0  0  0  0  0
    8.0160  -15.2700   19.1695 C   0  0  0  0  0  0  0  0  0  0  0  0
    8.8358  -15.7328   20.3478 C   0  0  1  0  0  0  0  0  0  0  0  0
    8.2289  -15.3733   21.6461 C   0  0  0  0  0  0  0  0  0  0  0  0
    7.9968  -14.1574   21.9009 O   0  0  0  0  0  0  0  0  0  0  0  0
    5.6647  -17.6009   22.4741 N   0  0  0  0  0  0  0  0  0  0  0  0
    5.9780  -17.9680   23.8131 C   0  0  0  0  0  0  0  0  0  0  0  0
    5.5644  -19.0443   24.2765 O   0  0  0  0  0  0  0  0  0  0  0  0
    6.8045  -17.0740   24.6831 C   0  0  0  0  0  0  0  0  0  0  0  0
    7.3221  -15.8766   23.8724 C   0  0  2  0  0  0  0  0  0  0  0  0
    7.8806  -16.3107   22.6475 N   0  0  0  0  0  0  0  0  0  0  0  0
    8.1437  -15.0784   24.7739 C   0  0  0  0  0  0  0  0  0  0  0  0
    9.4037  -15.1703   24.4838 O   0  0  0  0  0  0  0  0  0  0  0  0
    7.7534  -14.2699   25.8544 N   0  0  0  0  0  0  0  0  0  0  0  0
    6.3848  -14.1541   26.3234 C   0  0  0  0  0  0  0  0  0  0  0  0
    6.2842  -12.7972   26.9263 C   0  0  0  0  0  0  0  0  0  0  0  0
    7.6625  -12.1811   26.8393 C   0  0  0  0  0  0  0  0  0  0  0  0
    8.5372  -13.4327   26.7150 C   0  0  1  0  0  0  0  0  0  0  0  0
    8.7612  -14.0530   28.0533 C   0  0  0  0  0  0  0  0  0  0  0  0
    9.5082  -13.4914   28.8943 O   0  0  0  0  0  0  0  0  0  0  0  0
    8.1764  -15.2513   28.4398 O   0  0  0  0  0  0  0  0  0  0  0  0
  1  5  1  0
  2  3  1  0
  2  1  1  0
  3  4  1  0
  4  5  1  0
  5  6  1  1
  6  7  2  0
  8  9  1  0
  9 10  2  0
  9 11  1  0
 12 11  1  1
 12 14  1  0
 13 12  1  0
 13  6  1  0
 14 15  2  0
 14 16  1  0
 16 20  1  0
 16 17  1  0
 17 18  1  0
 19 18  1  0
 20 19  1  0
 21 23  1  0
 20 21  1  1
 22 21  2  0
M  END
$$$$
