PNP.pdb
     RDKit          3D

 23 24  0  0  1  0  0  0  0  0999 V2000
    8.3114  -15.0386   19.9748 N   0  0  0  0  0  0  0  0  0  0  0  0
    8.5091  -14.6973   18.5565 C   0  0  0  0  0  0  0  0  0  0  0  0
    7.9995  -13.2532   18.5595 C   0  0  0  0  0  0  0  0  0  0  0  0
    8.3734  -12.7033   19.9188 C   0  0  0  0  0  0  0  0  0  0  0  0
    8.9256  -13.9208   20.6168 C   0  0  1  0  0  0  0  0  0  0  0  0
    8.7165  -13.8884   22.0792 C   0  0  0  0  0  0  0  0  0  0  0  0
    9.2806  -12.9864   22.7614 O   0  0  0  0  0  0  0  0  0  0  0  0
    5.6386  -13.8243   26.5377 N   0  0  0  0  0  0  0  0  0  0  0  0
    6.1768  -15.0605   26.0820 C   0  0  0  0  0  0  0  0  0  0  0  0
    6.4624  -15.9535   26.8975 O   0  0  0  0  0  0  0  0  0  0  0  0
    6.4080  -15.3089   24.6245 C   0  0  0  0  0  0  0  0  0  0  0  0
    7.7442  -14.6908   24.1870 C   0  0  2  0  0  0  0  0  0  0  0  0
    7.9134  -14.8132   22.7880 N   0  0  0  0  0  0  0  0  0  0  0  0
    8.7707  -15.2344   25.0677 C   0  0  0  0  0  0  0  0  0  0  0  0
    9.3952  -16.2298   24.5206 O   0  0  0  0  0  0  0  0  0  0  0  0
    9.1401  -14.8301   26.3614 N   0  0  0  0  0  0  0  0  0  0  0  0
    8.3177  -13.9874   27.2098 C   0  0  0  0  0  0  0  0  0  0  0  0
    9.2705  -13.2610   28.0926 C   0  0  0  0  0  0  0  0  0  0  0  0
   10.6520  -13.7757   27.7555 C   0  0  0  0  0  0  0  0  0  0  0  0
   10.3157  -15.1309   27.1252 C   0  0  1  0  0  0  0  0  0  0  0  0
   10.0555  -16.1522   28.1813 C   0  0  0  0  0  0  0  0  0  0  0  0
    8.8837  -16.5514   28.4009 O   0  0  0  0  0  0  0  0  0  0  0  0
   11.0606  -16.7070   28.9618 O   0  0  0  0  0  0  0  0  0  0  0  0
  1  5  1  0
  2  3  1  0
  2  1  1  0
  3  4  1  0
  4  5  1  0
  5  6  1  1
  6  7  2  0
  8  9  1  0
  9 10  2  0
  9 11  1  0
 12 11  1  1
 12 14  1  0
 13 12  1  0
 13  6  1  0
 14 15  2  0
 14 16  1  0
 16 20  1  0
 16 17  1  0
 17 18  1  0
 19 18  1  0
 20 19  1  0
 21 23  1  0
 20 21  1  1
 22 21  2  0
M  END
$$$$
