PNP.pdb
     RDKit          3D

 23 24  0  0  1  0  0  0  0  0999 V2000
    8.2716  -15.4574   19.4003 N   0  0  0  0  0  0  0  0  0  0  0  0
    8.6207  -15.1898   17.9954 C   0  0  0  0  0  0  0  0  0  0  0  0
    7.8690  -13.8725   17.7835 C   0  0  0  0  0  0  0  0  0  0  0  0
    7.9267  -13.1634   19.1190 C   0  0  0  0  0  0  0  0  0  0  0  0
    8.5722  -14.1992   20.0049 C   0  0  1  0  0  0  0  0  0  0  0  0
    8.1391  -14.0999   21.4140 C   0  0  0  0  0  0  0  0  0  0  0  0
    8.3666  -13.0340   22.0538 O   0  0  0  0  0  0  0  0  0  0  0  0
    7.8797  -17.5822   23.4456 N   0  0  0  0  0  0  0  0  0  0  0  0
    6.5336  -17.3386   23.8383 C   0  0  0  0  0  0  0  0  0  0  0  0
    5.8078  -18.2830   24.1927 O   0  0  0  0  0  0  0  0  0  0  0  0
    5.9688  -15.9528   23.8329 C   0  0  0  0  0  0  0  0  0  0  0  0
    7.0578  -14.9383   23.4537 C   0  0  2  0  0  0  0  0  0  0  0  0
    7.4734  -15.1331   22.1157 N   0  0  0  0  0  0  0  0  0  0  0  0
    8.0595  -14.9771   24.5119 C   0  0  0  0  0  0  0  0  0  0  0  0
    9.0789  -15.7066   24.1820 O   0  0  0  0  0  0  0  0  0  0  0  0
    8.0502  -14.3539   25.7709 N   0  0  0  0  0  0  0  0  0  0  0  0
    6.8527  -13.8363   26.4068 C   0  0  0  0  0  0  0  0  0  0  0  0
    7.3150  -12.7225   27.2790 C   0  0  0  0  0  0  0  0  0  0  0  0
    8.8220  -12.6769   27.1613 C   0  0  0  0  0  0  0  0  0  0  0  0
    9.1236  -14.1023   26.6875 C   0  0  1  0  0  0  0  0  0  0  0  0
    9.1162  -15.0518   27.8383 C   0  0  0  0  0  0  0  0  0  0  0  0
    8.1010  -15.7558   28.0717 O   0  0  0  0  0  0  0  0  0  0  0  0
   10.1968  -15.2111   28.6953 O   0  0  0  0  0  0  0  0  0  0  0  0
  1  5  1  0
  2  3  1  0
  2  1  1  0
  3  4  1  0
  4  5  1  0
  5  6  1  1
  6  7  2  0
  8  9  1  0
  9 10  2  0
  9 11  1  0
 12 11  1  1
 12 14  1  0
 13 12  1  0
 13  6  1  0
 14 15  2  0
 14 16  1  0
 16 20  1  0
 16 17  1  0
 17 18  1  0
 19 18  1  0
 20 19  1  0
 21 23  1  0
 20 21  1  1
 22 21  2  0
M  END
$$$$
