RDP.pdb
     RDKit          3D

 27 27  0  0  1  0  0  0  0  0999 V2000
   26.5341  -28.2392  -16.8120 N   0  0  0  0  0  0  0  0  0  0  0  0
   27.9003  -28.6139  -16.6996 C   0  0  0  0  0  0  0  0  0  0  0  0
   28.2315  -29.8587  -16.7507 N   0  0  0  0  0  0  0  0  0  0  0  0
   28.9211  -27.6443  -16.5310 N   0  0  0  0  0  0  0  0  0  0  0  0
   28.6696  -26.2136  -16.5115 C   0  0  0  0  0  0  0  0  0  0  0  0
   29.4492  -25.5010  -17.6041 C   0  0  0  0  0  0  0  0  0  0  0  0
   28.5535  -25.2573  -18.7916 C   0  0  0  0  0  0  0  0  0  0  0  0
   27.7116  -23.9993  -18.5907 C   0  0  2  0  0  0  0  0  0  0  0  0
   27.9071  -23.4348  -17.3060 N   0  0  0  0  0  0  0  0  0  0  0  0
   26.3074  -24.3376  -18.9298 C   0  0  0  0  0  0  0  0  0  0  0  0
   26.1441  -24.9507  -20.0303 O   0  0  0  0  0  0  0  0  0  0  0  0
   29.2064  -30.1550  -16.6135 N   0  0  0  0  0  0  0  0  0  0  0  0
   25.2184  -24.0235  -18.1239 C   0  0  2  0  0  0  0  0  0  0  0  0
   23.8629  -24.4338  -18.5542 C   0  0  0  0  0  0  0  0  0  0  0  0
   23.9882  -25.9641  -18.5183 C   0  0  0  0  0  0  0  0  0  0  0  0
   22.6945  -26.5882  -18.7509 O   0  0  0  0  0  0  0  0  0  0  0  0
   22.1745  -26.4415  -19.9017 C   0  0  0  0  0  0  0  0  0  0  0  0
   22.8656  -23.9237  -17.5996 O   0  0  0  0  0  0  0  0  0  0  0  0
   23.1202  -24.1061  -16.3527 O   0  0  0  0  0  0  0  0  0  0  0  0
   21.9743  -27.3307  -17.8277 N   0  0  0  0  0  0  0  0  0  0  0  0
   21.6648  -23.2510  -17.9083 C   0  0  0  0  0  0  0  0  0  0  0  0
   21.0660  -23.1461  -19.2581 C   0  0  0  0  0  0  0  0  0  0  0  0
   20.1016  -22.0179  -19.2339 C   0  0  0  0  0  0  0  0  0  0  0  0
   20.2913  -21.3906  -17.8769 C   0  0  1  0  0  0  0  0  0  0  0  0
   20.7108  -22.5881  -17.0544 C   0  0  0  0  0  0  0  0  0  0  0  0
   19.5130  -23.4829  -16.8615 O   0  0  0  0  0  0  0  0  0  0  0  0
   18.4830  -23.1441  -16.0050 O   0  0  0  0  0  0  0  0  0  0  0  0
  2  4  1  0
  2  1  1  0
  3  2  2  0
  5  4  1  0
  6  5  1  0
  7  6  1  0
  8  7  1  0
  8  9  1  1
 10 11  2  0
 10  8  1  0
 12 10  1  0
 13 12  1  0
 14 15  1  0
 13 14  1  6
 15 16  2  0
 17 20  1  0
 17 13  1  0
 18 17  2  0
 19 15  1  0
 20 21  1  0
 22 21  1  0
 23 24  1  0
 23 22  1  0
 24 20  1  0
 24 25  1  1
 25 26  1  0
 27 25  2  0
M  END
$$$$
