RDP.pdb
     RDKit          3D

 27 27  0  0  1  0  0  0  0  0999 V2000
   31.3496  -20.6590  -10.2167 N   0  0  0  0  0  0  0  0  0  0  0  0
   31.5673  -21.7125  -11.1454 C   0  0  0  0  0  0  0  0  0  0  0  0
   32.6048  -22.4684  -11.0280 N   0  0  0  0  0  0  0  0  0  0  0  0
   30.6634  -21.9576  -12.2101 N   0  0  0  0  0  0  0  0  0  0  0  0
   29.5013  -21.1284  -12.4794 C   0  0  0  0  0  0  0  0  0  0  0  0
   28.5842  -21.0537  -11.2700 C   0  0  0  0  0  0  0  0  0  0  0  0
   27.3335  -20.2917  -11.6263 C   0  0  0  0  0  0  0  0  0  0  0  0
   26.0854  -21.1070  -11.2957 C   0  0  2  0  0  0  0  0  0  0  0  0
   26.4126  -22.3673  -10.7371 N   0  0  0  0  0  0  0  0  0  0  0  0
   25.2401  -21.1515  -12.5142 C   0  0  0  0  0  0  0  0  0  0  0  0
   25.5703  -22.0243  -13.3760 O   0  0  0  0  0  0  0  0  0  0  0  0
   32.8175  -23.1909  -11.7278 N   0  0  0  0  0  0  0  0  0  0  0  0
   24.1522  -20.3133  -12.7336 C   0  0  1  0  0  0  0  0  0  0  0  0
   23.3903  -20.4391  -13.9964 C   0  0  0  0  0  0  0  0  0  0  0  0
   22.0973  -19.6900  -13.6414 C   0  0  0  0  0  0  0  0  0  0  0  0
   21.1728  -20.5698  -12.9425 O   0  0  0  0  0  0  0  0  0  0  0  0
   20.1662  -20.0319  -12.3822 C   0  0  0  0  0  0  0  0  0  0  0  0
   24.1363  -19.7961  -15.0900 O   0  0  0  0  0  0  0  0  0  0  0  0
   24.8106  -18.7453  -14.7834 O   0  0  0  0  0  0  0  0  0  0  0  0
   21.2906  -21.9467  -12.8312 N   0  0  0  0  0  0  0  0  0  0  0  0
   24.1946  -20.2148  -16.4358 C   0  0  0  0  0  0  0  0  0  0  0  0
   23.4247  -21.3384  -17.0159 C   0  0  0  0  0  0  0  0  0  0  0  0
   24.0891  -21.7288  -18.2846 C   0  0  0  0  0  0  0  0  0  0  0  0
   25.3456  -20.8978  -18.3219 C   0  0  1  0  0  0  0  0  0  0  0  0
   24.9071  -19.6659  -17.5625 C   0  0  0  0  0  0  0  0  0  0  0  0
   23.9466  -18.8860  -18.4239 O   0  0  0  0  0  0  0  0  0  0  0  0
   22.5862  -18.8891  -18.1822 O   0  0  0  0  0  0  0  0  0  0  0  0
  2  4  1  0
  2  1  1  0
  3  2  2  0
  5  4  1  0
  6  5  1  0
  7  6  1  0
  8  7  1  0
  8  9  1  6
 10 11  2  0
 10  8  1  0
 12 10  1  0
 13 12  1  0
 14 15  1  0
 13 14  1  6
 15 16  2  0
 17 20  1  0
 17 13  1  0
 18 17  2  0
 19 15  1  0
 20 21  1  0
 22 21  1  0
 23 24  1  0
 23 22  1  0
 24 20  1  0
 24 25  1  6
 25 26  1  0
 27 25  2  0
M  END
$$$$
