RDP.pdb
     RDKit          3D

 27 27  0  0  1  0  0  0  0  0999 V2000
   31.1982  -24.0403  -15.0393 N   0  0  0  0  0  0  0  0  0  0  0  0
   31.4828  -24.4647  -16.3654 C   0  0  0  0  0  0  0  0  0  0  0  0
   32.6320  -24.9785  -16.6430 N   0  0  0  0  0  0  0  0  0  0  0  0
   30.5257  -24.3367  -17.4037 N   0  0  0  0  0  0  0  0  0  0  0  0
   29.1968  -23.7849  -17.2028 C   0  0  0  0  0  0  0  0  0  0  0  0
   29.2207  -22.2656  -17.2252 C   0  0  0  0  0  0  0  0  0  0  0  0
   28.4035  -21.7271  -16.0789 C   0  0  0  0  0  0  0  0  0  0  0  0
   26.9908  -22.3064  -16.0968 C   0  0  2  0  0  0  0  0  0  0  0  0
   26.5048  -22.4678  -17.4178 N   0  0  0  0  0  0  0  0  0  0  0  0
   26.1489  -21.4692  -15.2071 C   0  0  0  0  0  0  0  0  0  0  0  0
   26.7173  -21.0538  -14.1498 O   0  0  0  0  0  0  0  0  0  0  0  0
   32.8689  -25.2630  -17.6021 N   0  0  0  0  0  0  0  0  0  0  0  0
   24.8254  -21.1390  -15.4782 C   0  0  1  0  0  0  0  0  0  0  0  0
   24.0874  -20.2828  -14.5225 C   0  0  0  0  0  0  0  0  0  0  0  0
   23.2792  -19.3942  -15.4797 C   0  0  0  0  0  0  0  0  0  0  0  0
   22.2503  -18.6651  -14.7537 O   0  0  0  0  0  0  0  0  0  0  0  0
   22.6205  -17.6593  -14.0698 C   0  0  0  0  0  0  0  0  0  0  0  0
   23.2315  -21.1205  -13.6672 O   0  0  0  0  0  0  0  0  0  0  0  0
   22.7050  -22.1545  -14.2208 O   0  0  0  0  0  0  0  0  0  0  0  0
   20.8977  -18.9692  -14.7396 N   0  0  0  0  0  0  0  0  0  0  0  0
   22.9337  -20.9121  -12.3042 C   0  0  0  0  0  0  0  0  0  0  0  0
   23.3869  -19.7569  -11.4968 C   0  0  0  0  0  0  0  0  0  0  0  0
   23.2587  -20.1324  -10.0664 C   0  0  0  0  0  0  0  0  0  0  0  0
   22.8705  -21.5882  -10.0935 C   0  0  1  0  0  0  0  0  0  0  0  0
   22.1057  -21.6653  -11.3957 C   0  0  0  0  0  0  0  0  0  0  0  0
   20.7873  -20.9552  -11.2223 O   0  0  0  0  0  0  0  0  0  0  0  0
   19.7531  -21.5100  -10.4930 O   0  0  0  0  0  0  0  0  0  0  0  0
  2  4  1  0
  2  1  1  0
  3  2  2  0
  5  4  1  0
  6  5  1  0
  7  6  1  0
  8  7  1  0
  8  9  1  6
 10 11  2  0
 10  8  1  0
 12 10  1  0
 13 12  1  0
 14 15  1  0
 13 14  1  1
 15 16  2  0
 17 20  1  0
 17 13  1  0
 18 17  2  0
 19 15  1  0
 20 21  1  0
 22 21  1  0
 23 24  1  0
 23 22  1  0
 24 20  1  0
 24 25  1  1
 25 26  1  0
 27 25  2  0
M  END
$$$$
