RDP.pdb
     RDKit          3D

 27 27  0  0  1  0  0  0  0  0999 V2000
   25.3259  -19.5161   -8.2476 N   0  0  0  0  0  0  0  0  0  0  0  0
   26.1621  -20.6627   -8.3238 C   0  0  0  0  0  0  0  0  0  0  0  0
   26.5040  -21.2814   -7.2458 N   0  0  0  0  0  0  0  0  0  0  0  0
   26.6360  -21.1504   -9.5681 N   0  0  0  0  0  0  0  0  0  0  0  0
   26.1675  -20.6563  -10.8514 C   0  0  0  0  0  0  0  0  0  0  0  0
   25.2060  -21.6363  -11.5027 C   0  0  0  0  0  0  0  0  0  0  0  0
   24.7272  -21.0803  -12.8193 C   0  0  0  0  0  0  0  0  0  0  0  0
   23.7705  -22.0522  -13.5062 C   0  0  2  0  0  0  0  0  0  0  0  0
   24.4269  -23.2423  -13.9068 N   0  0  0  0  0  0  0  0  0  0  0  0
   23.0773  -21.3126  -14.5896 C   0  0  0  0  0  0  0  0  0  0  0  0
   23.6305  -21.3719  -15.7315 O   0  0  0  0  0  0  0  0  0  0  0  0
   27.0726  -22.1372   -7.2822 N   0  0  0  0  0  0  0  0  0  0  0  0
   21.9008  -20.5939  -14.4073 C   0  0  2  0  0  0  0  0  0  0  0  0
   21.3163  -19.8670  -15.5567 C   0  0  0  0  0  0  0  0  0  0  0  0
   19.8299  -19.8435  -15.1710 C   0  0  0  0  0  0  0  0  0  0  0  0
   19.2347  -21.1592  -15.3503 O   0  0  0  0  0  0  0  0  0  0  0  0
   18.7700  -21.7350  -14.3164 C   0  0  0  0  0  0  0  0  0  0  0  0
   21.9024  -18.5196  -15.6393 O   0  0  0  0  0  0  0  0  0  0  0  0
   22.1436  -17.9302  -14.5224 O   0  0  0  0  0  0  0  0  0  0  0  0
   19.1286  -21.8447  -16.5506 N   0  0  0  0  0  0  0  0  0  0  0  0
   22.2329  -17.8105  -16.8130 C   0  0  0  0  0  0  0  0  0  0  0  0
   21.9051  -18.2388  -18.1917 C   0  0  0  0  0  0  0  0  0  0  0  0
   22.7928  -17.4901  -19.1163 C   0  0  0  0  0  0  0  0  0  0  0  0
   23.7381  -16.7456  -18.2091 C   0  0  1  0  0  0  0  0  0  0  0  0
   22.8685  -16.5288  -16.9911 C   0  0  0  0  0  0  0  0  0  0  0  0
   21.8204  -15.4981  -17.3254 O   0  0  0  0  0  0  0  0  0  0  0  0
   22.0933  -14.1442  -17.2849 O   0  0  0  0  0  0  0  0  0  0  0  0
  2  4  1  0
  2  1  1  0
  3  2  2  0
  5  4  1  0
  6  5  1  0
  7  6  1  0
  8  7  1  0
  8  9  1  6
 10 11  2  0
 10  8  1  0
 12 10  1  0
 13 12  1  0
 14 15  1  0
 13 14  1  6
 15 16  2  0
 17 20  1  0
 17 13  1  0
 18 17  2  0
 19 15  1  0
 20 21  1  0
 22 21  1  0
 23 24  1  0
 23 22  1  0
 24 20  1  0
 24 25  1  1
 25 26  1  0
 27 25  2  0
M  END
$$$$
