RDP.pdb
     RDKit          3D

 27 27  0  0  1  0  0  0  0  0999 V2000
   21.5850  -21.9362   -7.0628 N   0  0  0  0  0  0  0  0  0  0  0  0
   21.3500  -21.0091   -8.1141 C   0  0  0  0  0  0  0  0  0  0  0  0
   20.3285  -20.2245   -8.0625 N   0  0  0  0  0  0  0  0  0  0  0  0
   22.2189  -20.9228   -9.2312 N   0  0  0  0  0  0  0  0  0  0  0  0
   23.5802  -21.4304   -9.2266 C   0  0  0  0  0  0  0  0  0  0  0  0
   24.5918  -20.2974   -9.1791 C   0  0  0  0  0  0  0  0  0  0  0  0
   25.7039  -20.5670  -10.1600 C   0  0  0  0  0  0  0  0  0  0  0  0
   25.1445  -20.9989  -11.5135 C   0  0  2  0  0  0  0  0  0  0  0  0
   25.2890  -22.3928  -11.7223 N   0  0  0  0  0  0  0  0  0  0  0  0
   25.7568  -20.1335  -12.5515 C   0  0  0  0  0  0  0  0  0  0  0  0
   26.1834  -19.0091  -12.1426 O   0  0  0  0  0  0  0  0  0  0  0  0
   20.1559  -19.5282   -8.7990 N   0  0  0  0  0  0  0  0  0  0  0  0
   25.8752  -20.4937  -13.8896 C   0  0  2  0  0  0  0  0  0  0  0  0
   26.4580  -19.5261  -14.8462 C   0  0  0  0  0  0  0  0  0  0  0  0
   26.8889  -20.4577  -15.9886 C   0  0  0  0  0  0  0  0  0  0  0  0
   28.0904  -21.1926  -15.6229 O   0  0  0  0  0  0  0  0  0  0  0  0
   27.9987  -22.4581  -15.5432 C   0  0  0  0  0  0  0  0  0  0  0  0
   25.4286  -18.5592  -15.2603 O   0  0  0  0  0  0  0  0  0  0  0  0
   24.2190  -18.9928  -15.3025 O   0  0  0  0  0  0  0  0  0  0  0  0
   29.3308  -20.6358  -15.3519 N   0  0  0  0  0  0  0  0  0  0  0  0
   25.6285  -17.2070  -15.6089 C   0  0  0  0  0  0  0  0  0  0  0  0
   26.9456  -16.5454  -15.7479 C   0  0  0  0  0  0  0  0  0  0  0  0
   26.7211  -15.0801  -15.6707 C   0  0  0  0  0  0  0  0  0  0  0  0
   25.2608  -14.9414  -15.3255 C   0  0  1  0  0  0  0  0  0  0  0  0
   24.6853  -16.1799  -15.9748 C   0  0  0  0  0  0  0  0  0  0  0  0
   24.7100  -15.9946  -17.4707 O   0  0  0  0  0  0  0  0  0  0  0  0
   25.6056  -16.6754  -18.2729 O   0  0  0  0  0  0  0  0  0  0  0  0
  2  4  1  0
  2  1  1  0
  3  2  2  0
  5  4  1  0
  6  5  1  0
  7  6  1  0
  8  7  1  0
  8  9  1  6
 10 11  2  0
 10  8  1  0
 12 10  1  0
 13 12  1  0
 14 15  1  0
 13 14  1  1
 15 16  2  0
 17 20  1  0
 17 13  1  0
 18 17  2  0
 19 15  1  0
 20 21  1  0
 22 21  1  0
 23 24  1  0
 23 22  1  0
 24 20  1  0
 24 25  1  6
 25 26  1  0
 27 25  2  0
M  END
$$$$
