RDP.pdb
     RDKit          3D

 27 27  0  0  1  0  0  0  0  0999 V2000
   30.1820  -24.4029  -15.7112 N   0  0  0  0  0  0  0  0  0  0  0  0
   30.3870  -24.0080  -17.0609 C   0  0  0  0  0  0  0  0  0  0  0  0
   30.9094  -24.8353  -17.9002 N   0  0  0  0  0  0  0  0  0  0  0  0
   30.0283  -22.7134  -17.5148 N   0  0  0  0  0  0  0  0  0  0  0  0
   29.1037  -21.8453  -16.8061 C   0  0  0  0  0  0  0  0  0  0  0  0
   27.8350  -22.5876  -16.4204 C   0  0  0  0  0  0  0  0  0  0  0  0
   26.8691  -21.6361  -15.7622 C   0  0  0  0  0  0  0  0  0  0  0  0
   25.6597  -21.3800  -16.6584 C   0  0  2  0  0  0  0  0  0  0  0  0
   26.0381  -20.8342  -17.9100 N   0  0  0  0  0  0  0  0  0  0  0  0
   24.6853  -20.5746  -15.8817 C   0  0  0  0  0  0  0  0  0  0  0  0
   24.8353  -19.3154  -15.9565 O   0  0  0  0  0  0  0  0  0  0  0  0
   31.1431  -24.5437  -18.8580 N   0  0  0  0  0  0  0  0  0  0  0  0
   23.6637  -21.1234  -15.1141 C   0  0  1  0  0  0  0  0  0  0  0  0
   22.6670  -20.2223  -14.4931 C   0  0  0  0  0  0  0  0  0  0  0  0
   22.0323  -19.5777  -15.7342 C   0  0  0  0  0  0  0  0  0  0  0  0
   20.8542  -18.8080  -15.3641 O   0  0  0  0  0  0  0  0  0  0  0  0
   21.0211  -17.8346  -14.5634 C   0  0  0  0  0  0  0  0  0  0  0  0
   21.7047  -21.0141  -13.7101 O   0  0  0  0  0  0  0  0  0  0  0  0
   21.2731  -22.0948  -14.2566 O   0  0  0  0  0  0  0  0  0  0  0  0
   19.5611  -19.0410  -15.8065 N   0  0  0  0  0  0  0  0  0  0  0  0
   21.2120  -20.7159  -12.4225 C   0  0  0  0  0  0  0  0  0  0  0  0
   21.3480  -19.4113  -11.7358 C   0  0  0  0  0  0  0  0  0  0  0  0
   21.1183  -19.6415  -10.2875 C   0  0  0  0  0  0  0  0  0  0  0  0
   21.0059  -21.1386  -10.1581 C   0  0  1  0  0  0  0  0  0  0  0  0
   20.4305  -21.5088  -11.5066 C   0  0  0  0  0  0  0  0  0  0  0  0
   18.9942  -21.0537  -11.5583 O   0  0  0  0  0  0  0  0  0  0  0  0
   18.0001  -21.7025  -10.8512 O   0  0  0  0  0  0  0  0  0  0  0  0
  2  4  1  0
  2  1  1  0
  3  2  2  0
  5  4  1  0
  6  5  1  0
  7  6  1  0
  8  7  1  0
  8  9  1  6
 10 11  2  0
 10  8  1  0
 12 10  1  0
 13 12  1  0
 14 15  1  0
 13 14  1  1
 15 16  2  0
 17 20  1  0
 17 13  1  0
 18 17  2  0
 19 15  1  0
 20 21  1  0
 22 21  1  0
 23 24  1  0
 23 22  1  0
 24 20  1  0
 24 25  1  1
 25 26  1  0
 27 25  2  0
M  END
$$$$
