RDP.pdb
     RDKit          3D

 27 27  0  0  1  0  0  0  0  0999 V2000
   24.1697  -21.0590   -8.3114 N   0  0  0  0  0  0  0  0  0  0  0  0
   25.4909  -20.5389   -8.2499 C   0  0  0  0  0  0  0  0  0  0  0  0
   26.2504  -20.8307   -7.2500 N   0  0  0  0  0  0  0  0  0  0  0  0
   26.0023  -19.6979   -9.2706 N   0  0  0  0  0  0  0  0  0  0  0  0
   25.7631  -19.9220  -10.6859 C   0  0  0  0  0  0  0  0  0  0  0  0
   26.8165  -20.8385  -11.2856 C   0  0  0  0  0  0  0  0  0  0  0  0
   26.5780  -20.9872  -12.7664 C   0  0  0  0  0  0  0  0  0  0  0  0
   25.1463  -21.4388  -13.0455 C   0  0  2  0  0  0  0  0  0  0  0  0
   24.9496  -22.8016  -12.7114 N   0  0  0  0  0  0  0  0  0  0  0  0
   24.8238  -21.0746  -14.4472 C   0  0  0  0  0  0  0  0  0  0  0  0
   25.2585  -21.8746  -15.3329 O   0  0  0  0  0  0  0  0  0  0  0  0
   27.2110  -20.4692   -7.1894 N   0  0  0  0  0  0  0  0  0  0  0  0
   24.0970  -19.9446  -14.8065 C   0  0  2  0  0  0  0  0  0  0  0  0
   23.7779  -19.7184  -16.2341 C   0  0  0  0  0  0  0  0  0  0  0  0
   22.7531  -18.5788  -16.1345 C   0  0  0  0  0  0  0  0  0  0  0  0
   21.5048  -19.0626  -15.5646 O   0  0  0  0  0  0  0  0  0  0  0  0
   21.0475  -18.4446  -14.5520 C   0  0  0  0  0  0  0  0  0  0  0  0
   24.9975  -19.3231  -16.9567 O   0  0  0  0  0  0  0  0  0  0  0  0
   25.8580  -18.6345  -16.2946 O   0  0  0  0  0  0  0  0  0  0  0  0
   20.7662  -20.1410  -16.0269 N   0  0  0  0  0  0  0  0  0  0  0  0
   25.3242  -19.6254  -18.2952 C   0  0  0  0  0  0  0  0  0  0  0  0
   24.4149  -20.2628  -19.2743 C   0  0  0  0  0  0  0  0  0  0  0  0
   25.2507  -20.8059  -20.3743 C   0  0  0  0  0  0  0  0  0  0  0  0
   26.6682  -20.5952  -19.9082 C   0  0  1  0  0  0  0  0  0  0  0  0
   26.5176  -19.3543  -19.0573 C   0  0  0  0  0  0  0  0  0  0  0  0
   26.2692  -18.1761  -19.9644 O   0  0  0  0  0  0  0  0  0  0  0  0
   27.2957  -17.5624  -20.6564 O   0  0  0  0  0  0  0  0  0  0  0  0
  2  4  1  0
  2  1  1  0
  3  2  2  0
  5  4  1  0
  6  5  1  0
  7  6  1  0
  8  7  1  0
  8  9  1  6
 10 11  2  0
 10  8  1  0
 12 10  1  0
 13 12  1  0
 14 15  1  0
 13 14  1  1
 15 16  2  0
 17 20  1  0
 17 13  1  0
 18 17  2  0
 19 15  1  0
 20 21  1  0
 22 21  1  0
 23 24  1  0
 23 22  1  0
 24 20  1  0
 24 25  1  6
 25 26  1  0
 27 25  2  0
M  END
$$$$
