RDP.pdb
     RDKit          3D

 27 27  0  0  1  0  0  0  0  0999 V2000
   41.8376   -6.2648  -12.8750 N   0  0  0  0  0  0  0  0  0  0  0  0
   40.8979   -5.8165  -11.9076 C   0  0  0  0  0  0  0  0  0  0  0  0
   41.3108   -5.3471  -10.7803 N   0  0  0  0  0  0  0  0  0  0  0  0
   39.5023   -5.8722  -12.1517 N   0  0  0  0  0  0  0  0  0  0  0  0
   38.8778   -6.8748  -12.9977 C   0  0  0  0  0  0  0  0  0  0  0  0
   37.8596   -6.2487  -13.9361 C   0  0  0  0  0  0  0  0  0  0  0  0
   37.3356   -7.2933  -14.8880 C   0  0  0  0  0  0  0  0  0  0  0  0
   36.1827   -8.0735  -14.2606 C   0  0  2  0  0  0  0  0  0  0  0  0
   36.6465   -9.1612  -13.4800 N   0  0  0  0  0  0  0  0  0  0  0  0
   35.2348   -8.4279  -15.3455 C   0  0  0  0  0  0  0  0  0  0  0  0
   35.4210   -9.5632  -15.8839 O   0  0  0  0  0  0  0  0  0  0  0  0
   40.6469   -5.0429  -10.0565 N   0  0  0  0  0  0  0  0  0  0  0  0
   34.2002   -7.6016  -15.7711 C   0  0  2  0  0  0  0  0  0  0  0  0
   33.2966   -8.0746  -16.8438 C   0  0  0  0  0  0  0  0  0  0  0  0
   32.0252   -7.2679  -16.5411 C   0  0  0  0  0  0  0  0  0  0  0  0
   30.9455   -7.6623  -17.4333 O   0  0  0  0  0  0  0  0  0  0  0  0
   31.2109   -8.5324  -18.3214 C   0  0  0  0  0  0  0  0  0  0  0  0
   33.8756   -7.7495  -18.1572 O   0  0  0  0  0  0  0  0  0  0  0  0
   34.5396   -6.6513  -18.2347 O   0  0  0  0  0  0  0  0  0  0  0  0
   29.6486   -7.1731  -17.4030 N   0  0  0  0  0  0  0  0  0  0  0  0
   33.7844   -8.5181  -19.3364 C   0  0  0  0  0  0  0  0  0  0  0  0
   33.0046   -9.7678  -19.4844 C   0  0  0  0  0  0  0  0  0  0  0  0
   33.5222  -10.4798  -20.6796 C   0  0  0  0  0  0  0  0  0  0  0  0
   34.7208   -9.6731  -21.1077 C   0  0  1  0  0  0  0  0  0  0  0  0
   34.3206   -8.2871  -20.6546 C   0  0  0  0  0  0  0  0  0  0  0  0
   33.2213   -7.7848  -21.5557 O   0  0  0  0  0  0  0  0  0  0  0  0
   33.4869   -7.2772  -22.8130 O   0  0  0  0  0  0  0  0  0  0  0  0
  2  4  1  0
  2  1  1  0
  3  2  2  0
  5  4  1  0
  6  5  1  0
  7  6  1  0
  8  7  1  0
  8  9  1  6
 10 11  2  0
 10  8  1  0
 12 10  1  0
 13 12  1  0
 14 15  1  0
 13 14  1  1
 15 16  2  0
 17 20  1  0
 17 13  1  0
 18 17  2  0
 19 15  1  0
 20 21  1  0
 22 21  1  0
 23 24  1  0
 23 22  1  0
 24 20  1  0
 24 25  1  6
 25 26  1  0
 27 25  2  0
M  END
$$$$
