RDP.pdb
     RDKit          3D

 27 27  0  0  1  0  0  0  0  0999 V2000
   17.8364  -16.6187    1.3698 N   0  0  0  0  0  0  0  0  0  0  0  0
   17.0566  -17.5104    2.1550 C   0  0  0  0  0  0  0  0  0  0  0  0
   16.9660  -18.7515    1.8186 N   0  0  0  0  0  0  0  0  0  0  0  0
   16.3674  -17.0666    3.3120 N   0  0  0  0  0  0  0  0  0  0  0  0
   16.0540  -15.6717    3.5703 C   0  0  0  0  0  0  0  0  0  0  0  0
   16.9513  -15.0956    4.6530 C   0  0  0  0  0  0  0  0  0  0  0  0
   16.6174  -13.6420    4.8702 C   0  0  0  0  0  0  0  0  0  0  0  0
   17.8486  -12.7628    4.6637 C   0  0  2  0  0  0  0  0  0  0  0  0
   18.2846  -12.7757    3.3157 N   0  0  0  0  0  0  0  0  0  0  0  0
   18.8655  -13.1686    5.6650 C   0  0  0  0  0  0  0  0  0  0  0  0
   19.6850  -14.0596    5.2804 O   0  0  0  0  0  0  0  0  0  0  0  0
   16.4101  -19.4135    2.3753 N   0  0  0  0  0  0  0  0  0  0  0  0
   18.9489  -12.6326    6.9456 C   0  0  1  0  0  0  0  0  0  0  0  0
   20.0611  -13.0496    7.8289 C   0  0  0  0  0  0  0  0  0  0  0  0
   19.9451  -12.0196    8.9623 C   0  0  0  0  0  0  0  0  0  0  0  0
   20.8125  -10.8796    8.7073 O   0  0  0  0  0  0  0  0  0  0  0  0
   21.8258  -11.0722    7.9640 C   0  0  0  0  0  0  0  0  0  0  0  0
   19.8355  -14.4288    8.2904 O   0  0  0  0  0  0  0  0  0  0  0  0
   18.6150  -14.8323    8.3152 O   0  0  0  0  0  0  0  0  0  0  0  0
   20.6340   -9.5974    9.2037 N   0  0  0  0  0  0  0  0  0  0  0  0
   20.8165  -15.3552    8.7015 C   0  0  0  0  0  0  0  0  0  0  0  0
   22.2639  -15.0696    8.8251 C   0  0  0  0  0  0  0  0  0  0  0  0
   22.9781  -16.3709    8.8332 C   0  0  0  0  0  0  0  0  0  0  0  0
   21.9047  -17.3903    8.5511 C   0  0  1  0  0  0  0  0  0  0  0  0
   20.6930  -16.7178    9.1560 C   0  0  0  0  0  0  0  0  0  0  0  0
   20.8224  -16.7529   10.6575 O   0  0  0  0  0  0  0  0  0  0  0  0
   20.5446  -17.8946   11.3846 O   0  0  0  0  0  0  0  0  0  0  0  0
  2  4  1  0
  2  1  1  0
  3  2  2  0
  5  4  1  0
  6  5  1  0
  7  6  1  0
  8  7  1  0
  8  9  1  6
 10 11  2  0
 10  8  1  0
 12 10  1  0
 13 12  1  0
 14 15  1  0
 13 14  1  1
 15 16  2  0
 17 20  1  0
 17 13  1  0
 18 17  2  0
 19 15  1  0
 20 21  1  0
 22 21  1  0
 23 24  1  0
 23 22  1  0
 24 20  1  0
 24 25  1  1
 25 26  1  0
 27 25  2  0
M  END
$$$$
