RDP.pdb
     RDKit          3D

 27 27  0  0  1  0  0  0  0  0999 V2000
   22.9507  -21.4455  -10.1515 N   0  0  0  0  0  0  0  0  0  0  0  0
   23.7035  -21.2544   -8.9613 C   0  0  0  0  0  0  0  0  0  0  0  0
   23.2465  -21.6854   -7.8357 N   0  0  0  0  0  0  0  0  0  0  0  0
   24.9585  -20.5946   -8.9787 N   0  0  0  0  0  0  0  0  0  0  0  0
   25.3305  -19.6099   -9.9801 C   0  0  0  0  0  0  0  0  0  0  0  0
   26.7920  -19.7473  -10.3732 C   0  0  0  0  0  0  0  0  0  0  0  0
   27.0001  -21.0439  -11.1128 C   0  0  0  0  0  0  0  0  0  0  0  0
   28.0820  -20.8954  -12.1801 C   0  0  2  0  0  0  0  0  0  0  0  0
   29.2184  -20.2088  -11.6857 N   0  0  0  0  0  0  0  0  0  0  0  0
   27.4505  -20.2973  -13.3821 C   0  0  0  0  0  0  0  0  0  0  0  0
   27.6337  -19.0492  -13.5310 O   0  0  0  0  0  0  0  0  0  0  0  0
   23.7536  -21.5176   -6.9572 N   0  0  0  0  0  0  0  0  0  0  0  0
   26.7035  -21.0203  -14.3059 C   0  0  1  0  0  0  0  0  0  0  0  0
   26.1919  -20.3331  -15.5130 C   0  0  0  0  0  0  0  0  0  0  0  0
   26.1859  -21.4827  -16.5315 C   0  0  0  0  0  0  0  0  0  0  0  0
   27.5454  -21.9029  -16.8356 O   0  0  0  0  0  0  0  0  0  0  0  0
   28.3225  -21.0374  -17.3490 C   0  0  0  0  0  0  0  0  0  0  0  0
   24.8447  -19.8038  -15.2470 O   0  0  0  0  0  0  0  0  0  0  0  0
   24.2799  -20.1943  -14.1600 O   0  0  0  0  0  0  0  0  0  0  0  0
   28.0721  -23.1664  -16.6161 N   0  0  0  0  0  0  0  0  0  0  0  0
   24.1117  -18.9094  -16.0547 C   0  0  0  0  0  0  0  0  0  0  0  0
   24.4961  -18.4762  -17.4172 C   0  0  0  0  0  0  0  0  0  0  0  0
   23.7419  -17.2344  -17.7218 C   0  0  0  0  0  0  0  0  0  0  0  0
   23.0421  -16.8938  -16.4314 C   0  0  1  0  0  0  0  0  0  0  0  0
   22.8395  -18.2681  -15.8341 C   0  0  0  0  0  0  0  0  0  0  0  0
   21.7782  -18.9863  -16.6281 O   0  0  0  0  0  0  0  0  0  0  0  0
   20.4327  -18.8151  -16.3648 O   0  0  0  0  0  0  0  0  0  0  0  0
  2  4  1  0
  2  1  1  0
  3  2  2  0
  5  4  1  0
  6  5  1  0
  7  6  1  0
  8  7  1  0
  8  9  1  1
 10 11  2  0
 10  8  1  0
 12 10  1  0
 13 12  1  0
 14 15  1  0
 13 14  1  1
 15 16  2  0
 17 20  1  0
 17 13  1  0
 18 17  2  0
 19 15  1  0
 20 21  1  0
 22 21  1  0
 23 24  1  0
 23 22  1  0
 24 20  1  0
 24 25  1  6
 25 26  1  0
 27 25  2  0
M  END
$$$$
