RDP.pdb
     RDKit          3D

 27 27  0  0  1  0  0  0  0  0999 V2000
   28.9388  -17.9955  -17.8078 N   0  0  0  0  0  0  0  0  0  0  0  0
   28.4253  -16.7486  -17.3593 C   0  0  0  0  0  0  0  0  0  0  0  0
   28.7288  -15.6651  -17.9883 N   0  0  0  0  0  0  0  0  0  0  0  0
   27.5781  -16.6630  -16.2255 N   0  0  0  0  0  0  0  0  0  0  0  0
   27.1862  -17.8147  -15.4314 C   0  0  0  0  0  0  0  0  0  0  0  0
   25.9966  -18.5315  -16.0481 C   0  0  0  0  0  0  0  0  0  0  0  0
   24.7236  -18.0620  -15.3918 C   0  0  0  0  0  0  0  0  0  0  0  0
   23.5096  -18.7729  -15.9854 C   0  0  2  0  0  0  0  0  0  0  0  0
   23.1527  -18.2393  -17.2485 N   0  0  0  0  0  0  0  0  0  0  0  0
   22.4348  -18.7599  -14.9627 C   0  0  0  0  0  0  0  0  0  0  0  0
   22.1301  -17.6146  -14.5055 O   0  0  0  0  0  0  0  0  0  0  0  0
   28.3921  -14.7498  -17.6626 N   0  0  0  0  0  0  0  0  0  0  0  0
   21.7811  -19.9014  -14.5111 C   0  0  1  0  0  0  0  0  0  0  0  0
   20.8356  -19.7881  -13.3779 C   0  0  0  0  0  0  0  0  0  0  0  0
   19.4873  -19.9442  -14.0966 C   0  0  0  0  0  0  0  0  0  0  0  0
   19.0001  -18.6520  -14.5549 O   0  0  0  0  0  0  0  0  0  0  0  0
   18.9760  -17.7038  -13.7083 C   0  0  0  0  0  0  0  0  0  0  0  0
   21.0914  -20.8676  -12.4108 O   0  0  0  0  0  0  0  0  0  0  0  0
   21.4834  -21.9914  -12.8970 O   0  0  0  0  0  0  0  0  0  0  0  0
   18.5574  -18.3599  -15.8359 N   0  0  0  0  0  0  0  0  0  0  0  0
   20.9583  -20.7970  -11.0083 C   0  0  0  0  0  0  0  0  0  0  0  0
   20.4512  -19.6276  -10.2552 C   0  0  0  0  0  0  0  0  0  0  0  0
   20.8877  -19.7798   -8.8446 C   0  0  0  0  0  0  0  0  0  0  0  0
   21.7892  -20.9872   -8.8585 C   0  0  1  0  0  0  0  0  0  0  0  0
   21.1884  -21.7909   -9.9896 C   0  0  0  0  0  0  0  0  0  0  0  0
   19.8642  -22.3486   -9.5334 O   0  0  0  0  0  0  0  0  0  0  0  0
   18.6666  -21.8943  -10.0516 O   0  0  0  0  0  0  0  0  0  0  0  0
  2  4  1  0
  2  1  1  0
  3  2  2  0
  5  4  1  0
  6  5  1  0
  7  6  1  0
  8  7  1  0
  8  9  1  6
 10 11  2  0
 10  8  1  0
 12 10  1  0
 13 12  1  0
 14 15  1  0
 13 14  1  1
 15 16  2  0
 17 20  1  0
 17 13  1  0
 18 17  2  0
 19 15  1  0
 20 21  1  0
 22 21  1  0
 23 24  1  0
 23 22  1  0
 24 20  1  0
 24 25  1  1
 25 26  1  0
 27 25  2  0
M  END
$$$$
