RDP.pdb
     RDKit          3D

 27 27  0  0  1  0  0  0  0  0999 V2000
   13.4690   -8.4190   -8.7504 N   0  0  0  0  0  0  0  0  0  0  0  0
   12.7577   -9.6255   -8.9918 C   0  0  0  0  0  0  0  0  0  0  0  0
   11.6767   -9.8763   -8.3358 N   0  0  0  0  0  0  0  0  0  0  0  0
   13.2101  -10.5719   -9.9459 N   0  0  0  0  0  0  0  0  0  0  0  0
   13.1210  -10.3654  -11.3812 C   0  0  0  0  0  0  0  0  0  0  0  0
   13.6688  -11.5591  -12.1457 C   0  0  0  0  0  0  0  0  0  0  0  0
   15.0350  -11.2306  -12.6909 C   0  0  0  0  0  0  0  0  0  0  0  0
   15.3892  -12.1445  -13.8618 C   0  0  2  0  0  0  0  0  0  0  0  0
   15.1124  -13.5034  -13.5714 N   0  0  0  0  0  0  0  0  0  0  0  0
   16.7891  -11.8507  -14.2557 C   0  0  0  0  0  0  0  0  0  0  0  0
   17.6829  -12.4584  -13.5884 O   0  0  0  0  0  0  0  0  0  0  0  0
   11.1854  -10.7729   -8.4445 N   0  0  0  0  0  0  0  0  0  0  0  0
   17.1387  -10.9775  -15.2802 C   0  0  1  0  0  0  0  0  0  0  0  0
   18.5705  -10.7788  -15.5988 C   0  0  0  0  0  0  0  0  0  0  0  0
   18.4936  -10.3657  -17.0760 C   0  0  0  0  0  0  0  0  0  0  0  0
   18.1650  -11.5115  -17.9105 O   0  0  0  0  0  0  0  0  0  0  0  0
   18.9595  -12.5035  -17.8785 C   0  0  0  0  0  0  0  0  0  0  0  0
   19.1253   -9.7191  -14.7414 O   0  0  0  0  0  0  0  0  0  0  0  0
   18.2867   -8.8670  -14.2684 O   0  0  0  0  0  0  0  0  0  0  0  0
   17.0602  -11.6199  -18.7410 N   0  0  0  0  0  0  0  0  0  0  0  0
   20.4774   -9.5440  -14.3794 C   0  0  0  0  0  0  0  0  0  0  0  0
   21.6212  -10.2807  -14.9631 C   0  0  0  0  0  0  0  0  0  0  0  0
   22.7654  -10.1457  -14.0271 C   0  0  0  0  0  0  0  0  0  0  0  0
   22.1867   -9.4456  -12.8247 C   0  0  1  0  0  0  0  0  0  0  0  0
   21.0942   -8.6176  -13.4630 C   0  0  0  0  0  0  0  0  0  0  0  0
   21.7332   -7.4984  -14.2450 O   0  0  0  0  0  0  0  0  0  0  0  0
   21.7877   -7.5149  -15.6255 O   0  0  0  0  0  0  0  0  0  0  0  0
  2  4  1  0
  2  1  1  0
  3  2  2  0
  5  4  1  0
  6  5  1  0
  7  6  1  0
  8  7  1  0
  8  9  1  1
 10 11  2  0
 10  8  1  0
 12 10  1  0
 13 12  1  0
 14 15  1  0
 13 14  1  1
 15 16  2  0
 17 20  1  0
 17 13  1  0
 18 17  2  0
 19 15  1  0
 20 21  1  0
 22 21  1  0
 23 24  1  0
 23 22  1  0
 24 20  1  0
 24 25  1  6
 25 26  1  0
 27 25  2  0
M  END
$$$$
