RDP.pdb
     RDKit          3D

 27 27  0  0  1  0  0  0  0  0999 V2000
   19.6330  -22.2331   -9.5037 N   0  0  0  0  0  0  0  0  0  0  0  0
   19.9971  -22.4271   -8.1437 C   0  0  0  0  0  0  0  0  0  0  0  0
   19.3441  -23.2684   -7.4174 N   0  0  0  0  0  0  0  0  0  0  0  0
   21.0720  -21.7121   -7.5572 N   0  0  0  0  0  0  0  0  0  0  0  0
   21.9195  -20.7932   -8.2974 C   0  0  0  0  0  0  0  0  0  0  0  0
   22.9891  -21.5370   -9.0797 C   0  0  0  0  0  0  0  0  0  0  0  0
   23.7749  -20.5629   -9.9195 C   0  0  0  0  0  0  0  0  0  0  0  0
   23.4230  -20.7099  -11.3981 C   0  0  2  0  0  0  0  0  0  0  0  0
   22.8821  -21.9874  -11.6860 N   0  0  0  0  0  0  0  0  0  0  0  0
   24.6224  -20.3346  -12.1866 C   0  0  0  0  0  0  0  0  0  0  0  0
   25.1104  -19.1909  -11.9270 O   0  0  0  0  0  0  0  0  0  0  0  0
   19.6257  -23.4642   -6.4482 N   0  0  0  0  0  0  0  0  0  0  0  0
   25.2026  -21.1517  -13.1509 C   0  0  1  0  0  0  0  0  0  0  0  0
   26.2277  -20.5822  -14.0542 C   0  0  0  0  0  0  0  0  0  0  0  0
   26.8201  -21.8560  -14.6749 C   0  0  0  0  0  0  0  0  0  0  0  0
   27.8483  -21.5195  -15.6480 O   0  0  0  0  0  0  0  0  0  0  0  0
   28.0486  -20.2860  -15.8823 C   0  0  0  0  0  0  0  0  0  0  0  0
   25.5809  -19.7134  -15.0506 O   0  0  0  0  0  0  0  0  0  0  0  0
   24.5232  -20.1777  -15.6153 O   0  0  0  0  0  0  0  0  0  0  0  0
   28.6321  -22.4253  -16.3460 N   0  0  0  0  0  0  0  0  0  0  0  0
   25.9949  -18.4242  -15.4459 C   0  0  0  0  0  0  0  0  0  0  0  0
   27.2810  -17.7892  -15.0793 C   0  0  0  0  0  0  0  0  0  0  0  0
   27.1364  -16.3277  -15.2947 C   0  0  0  0  0  0  0  0  0  0  0  0
   25.6819  -16.1412  -15.6418 C   0  0  1  0  0  0  0  0  0  0  0  0
   25.3678  -17.4589  -16.3138 C   0  0  0  0  0  0  0  0  0  0  0  0
   26.0473  -17.4870  -17.6592 O   0  0  0  0  0  0  0  0  0  0  0  0
   25.6241  -16.6884  -18.7043 O   0  0  0  0  0  0  0  0  0  0  0  0
  2  4  1  0
  2  1  1  0
  3  2  2  0
  5  4  1  0
  6  5  1  0
  7  6  1  0
  8  7  1  0
  8  9  1  1
 10 11  2  0
 10  8  1  0
 12 10  1  0
 13 12  1  0
 14 15  1  0
 13 14  1  1
 15 16  2  0
 17 20  1  0
 17 13  1  0
 18 17  2  0
 19 15  1  0
 20 21  1  0
 22 21  1  0
 23 24  1  0
 23 22  1  0
 24 20  1  0
 24 25  1  6
 25 26  1  0
 27 25  2  0
M  END
$$$$
