RDP.pdb
     RDKit          3D

 27 27  0  0  1  0  0  0  0  0999 V2000
   17.8956  -21.9285  -12.2329 N   0  0  0  0  0  0  0  0  0  0  0  0
   17.4229  -22.4622  -13.4624 C   0  0  0  0  0  0  0  0  0  0  0  0
   16.3208  -23.1301  -13.4915 N   0  0  0  0  0  0  0  0  0  0  0  0
   18.1391  -22.2775  -14.6721 N   0  0  0  0  0  0  0  0  0  0  0  0
   19.4529  -21.6606  -14.7374 C   0  0  0  0  0  0  0  0  0  0  0  0
   19.6892  -20.7383  -13.5530 C   0  0  0  0  0  0  0  0  0  0  0  0
   21.0779  -20.1576  -13.6296 C   0  0  0  0  0  0  0  0  0  0  0  0
   22.1240  -21.1887  -13.2125 C   0  0  2  0  0  0  0  0  0  0  0  0
   21.9920  -21.5506  -11.8490 N   0  0  0  0  0  0  0  0  0  0  0  0
   23.4553  -20.6648  -13.6054 C   0  0  0  0  0  0  0  0  0  0  0  0
   23.8176  -19.5986  -13.0176 O   0  0  0  0  0  0  0  0  0  0  0  0
   15.9439  -23.4948  -14.3758 N   0  0  0  0  0  0  0  0  0  0  0  0
   24.2796  -21.2714  -14.5471 C   0  0  2  0  0  0  0  0  0  0  0  0
   25.5608  -20.6227  -14.9060 C   0  0  0  0  0  0  0  0  0  0  0  0
   26.2730  -21.7601  -15.6529 C   0  0  0  0  0  0  0  0  0  0  0  0
   27.5513  -21.3047  -16.1779 O   0  0  0  0  0  0  0  0  0  0  0  0
   28.5626  -21.3971  -15.4129 C   0  0  0  0  0  0  0  0  0  0  0  0
   25.3006  -19.4559  -15.7644 O   0  0  0  0  0  0  0  0  0  0  0  0
   24.2720  -19.5274  -16.5323 O   0  0  0  0  0  0  0  0  0  0  0  0
   27.7674  -20.7765  -17.4414 N   0  0  0  0  0  0  0  0  0  0  0  0
   26.0563  -18.2665  -15.8284 C   0  0  0  0  0  0  0  0  0  0  0  0
   27.3003  -18.0020  -15.0705 C   0  0  0  0  0  0  0  0  0  0  0  0
   27.5164  -16.5334  -15.0631 C   0  0  0  0  0  0  0  0  0  0  0  0
   26.2747  -15.9676  -15.7024 C   0  0  2  0  0  0  0  0  0  0  0  0
   25.8901  -17.0881  -16.6421 C   0  0  0  0  0  0  0  0  0  0  0  0
   26.8814  -17.1259  -17.7773 O   0  0  0  0  0  0  0  0  0  0  0  0
   27.7663  -18.1752  -17.9350 O   0  0  0  0  0  0  0  0  0  0  0  0
  2  4  1  0
  2  1  1  0
  3  2  2  0
  5  4  1  0
  6  5  1  0
  7  6  1  0
  8  7  1  0
  8  9  1  1
 10 11  2  0
 10  8  1  0
 12 10  1  0
 13 12  1  0
 14 15  1  0
 13 14  1  1
 15 16  2  0
 17 20  1  0
 17 13  1  0
 18 17  2  0
 19 15  1  0
 20 21  1  0
 22 21  1  0
 23 24  1  0
 23 22  1  0
 24 20  1  0
 24 25  1  6
 25 26  1  0
 27 25  2  0
M  END
$$$$
