RDP.pdb
     RDKit          3D

 27 27  0  0  1  0  0  0  0  0999 V2000
   27.4262  -21.8525  -12.3098 N   0  0  0  0  0  0  0  0  0  0  0  0
   26.3570  -21.9862  -11.3832 C   0  0  0  0  0  0  0  0  0  0  0  0
   26.5616  -21.7660  -10.1297 N   0  0  0  0  0  0  0  0  0  0  0  0
   25.0557  -22.3595  -11.8052 N   0  0  0  0  0  0  0  0  0  0  0  0
   24.7166  -22.6525  -13.1872 C   0  0  0  0  0  0  0  0  0  0  0  0
   23.5329  -21.8212  -13.6533 C   0  0  0  0  0  0  0  0  0  0  0  0
   23.6708  -20.4094  -13.1439 C   0  0  0  0  0  0  0  0  0  0  0  0
   22.4812  -19.5551  -13.5759 C   0  0  2  0  0  0  0  0  0  0  0  0
   21.3182  -20.3378  -13.7816 N   0  0  0  0  0  0  0  0  0  0  0  0
   22.9111  -18.7374  -14.7368 C   0  0  0  0  0  0  0  0  0  0  0  0
   22.2954  -18.9667  -15.8239 O   0  0  0  0  0  0  0  0  0  0  0  0
   25.7947  -21.8267   -9.4476 N   0  0  0  0  0  0  0  0  0  0  0  0
   23.9140  -17.7756  -14.6782 C   0  0  2  0  0  0  0  0  0  0  0  0
   24.2320  -16.9930  -15.8937 C   0  0  0  0  0  0  0  0  0  0  0  0
   25.0084  -15.8114  -15.2938 C   0  0  0  0  0  0  0  0  0  0  0  0
   25.5058  -14.9395  -16.3473 O   0  0  0  0  0  0  0  0  0  0  0  0
   24.6447  -14.3821  -17.0984 C   0  0  0  0  0  0  0  0  0  0  0  0
   25.0525  -17.8068  -16.8050 O   0  0  0  0  0  0  0  0  0  0  0  0
   25.9027  -18.6002  -16.2565 O   0  0  0  0  0  0  0  0  0  0  0  0
   26.8387  -14.6607  -16.6076 N   0  0  0  0  0  0  0  0  0  0  0  0
   24.9998  -17.8127  -18.2146 C   0  0  0  0  0  0  0  0  0  0  0  0
   24.1963  -16.8864  -19.0441 C   0  0  0  0  0  0  0  0  0  0  0  0
   24.0601  -17.4950  -20.3911 C   0  0  0  0  0  0  0  0  0  0  0  0
   24.6751  -18.8634  -20.2491 C   0  0  1  0  0  0  0  0  0  0  0  0
   25.7141  -18.6102  -19.1801 C   0  0  0  0  0  0  0  0  0  0  0  0
   26.8274  -17.7869  -19.7763 O   0  0  0  0  0  0  0  0  0  0  0  0
   27.7756  -18.3437  -20.6128 O   0  0  0  0  0  0  0  0  0  0  0  0
  2  4  1  0
  2  1  1  0
  3  2  2  0
  5  4  1  0
  6  5  1  0
  7  6  1  0
  8  7  1  0
  8  9  1  6
 10 11  2  0
 10  8  1  0
 12 10  1  0
 13 12  1  0
 14 15  1  0
 13 14  1  1
 15 16  2  0
 17 20  1  0
 17 13  1  0
 18 17  2  0
 19 15  1  0
 20 21  1  0
 22 21  1  0
 23 24  1  0
 23 22  1  0
 24 20  1  0
 24 25  1  6
 25 26  1  0
 27 25  2  0
M  END
$$$$
