QLD.pdb
     RDKit          3D

 26 25  0  0  1  0  0  0  0  0999 V2000
    8.8824  -12.5209   17.4618 N   0  0  0  0  0  0  0  0  0  0  0  0
    8.3125  -13.7809   17.0633 C   0  0  0  0  0  0  0  0  0  0  0  0
    8.0281  -13.9428   15.8435 O   0  0  0  0  0  0  0  0  0  0  0  0
    8.0644  -14.8606   18.0506 C   0  0  0  0  0  0  0  0  0  0  0  0
    8.4213  -14.3366   19.4161 C   0  0  0  0  0  0  0  0  0  0  0  0
    8.2894  -15.3691   20.4991 C   0  0  2  0  0  0  0  0  0  0  0  0
    6.9354  -15.8850   20.4327 N   0  0  0  0  0  0  0  0  0  0  0  0
    8.6342  -14.8802   21.8468 C   0  0  0  0  0  0  0  0  0  0  0  0
    9.8248  -14.6169   22.1736 O   0  0  0  0  0  0  0  0  0  0  0  0
    7.9465  -12.0406   26.4062 C   0  0  0  0  0  0  0  0  0  0  0  0
    6.9536  -13.1540   26.2620 C   0  0  1  0  0  0  0  0  0  0  0  0
    5.6206  -12.5964   26.7828 C   0  0  0  0  0  0  0  0  0  0  0  0
    6.7650  -13.5182   24.8421 C   0  0  0  0  0  0  0  0  0  0  0  0
    7.8355  -14.3077   24.1798 C   0  0  2  0  0  0  0  0  0  0  0  0
    7.6185  -14.6895   22.8259 N   0  0  0  0  0  0  0  0  0  0  0  0
    8.1153  -15.4883   25.0742 C   0  0  0  0  0  0  0  0  0  0  0  0
    7.2174  -16.3578   25.2009 O   0  0  0  0  0  0  0  0  0  0  0  0
    9.3384  -15.6503   25.7670 N   0  0  0  0  0  0  0  0  0  0  0  0
    9.7258  -17.0147   26.1929 C   0  0  1  0  0  0  0  0  0  0  0  0
   10.8790  -17.4217   25.3170 C   0  0  0  0  0  0  0  0  0  0  0  0
   11.5408  -18.6767   25.7034 C   0  0  0  0  0  0  0  0  0  0  0  0
   11.1733  -19.3286   26.7014 O   0  0  0  0  0  0  0  0  0  0  0  0
   10.2231  -16.8807   27.6059 C   0  0  0  0  0  0  0  0  0  0  0  0
   10.5621  -15.6195   28.1348 O   0  0  0  0  0  0  0  0  0  0  0  0
   12.6031  -19.1550   24.9430 O   0  0  0  0  0  0  0  0  0  0  0  0
   10.3630  -17.8507   28.3782 O   0  0  0  0  0  0  0  0  0  0  0  0
  2  1  1  0
  3  2  2  0
  4  2  1  0
  5  6  1  0
  5  4  1  0
  6  8  1  0
  6  7  1  1
  8  9  2  0
 11 10  1  6
 11 12  1  0
 13 11  1  0
 14 13  1  1
 15  8  1  0
 15 14  1  0
 16 14  1  0
 16 17  2  0
 18 16  1  0
 19 23  1  0
 19 18  1  0
 19 20  1  6
 21 20  1  0
 21 25  1  0
 22 21  2  0
 23 24  1  0
 26 23  2  0
M  END
$$$$
