QLD.pdb
     RDKit          3D

 26 25  0  0  1  0  0  0  0  0999 V2000
    8.2409  -12.2832   18.8825 N   0  0  0  0  0  0  0  0  0  0  0  0
    8.1890  -13.5893   18.2802 C   0  0  0  0  0  0  0  0  0  0  0  0
    8.3217  -13.6690   17.0268 O   0  0  0  0  0  0  0  0  0  0  0  0
    7.9862  -14.8086   19.1014 C   0  0  0  0  0  0  0  0  0  0  0  0
    7.7876  -14.3815   20.5313 C   0  0  0  0  0  0  0  0  0  0  0  0
    8.1038  -15.4656   21.5219 C   0  0  2  0  0  0  0  0  0  0  0  0
    6.8981  -16.2546   21.6886 N   0  0  0  0  0  0  0  0  0  0  0  0
    8.6311  -14.9749   22.8084 C   0  0  0  0  0  0  0  0  0  0  0  0
    9.8226  -14.5760   22.9294 O   0  0  0  0  0  0  0  0  0  0  0  0
    5.3313  -12.3713   26.5403 C   0  0  0  0  0  0  0  0  0  0  0  0
    6.4242  -12.7841   25.6014 C   0  0  1  0  0  0  0  0  0  0  0  0
    7.3750  -11.5813   25.5109 C   0  0  0  0  0  0  0  0  0  0  0  0
    7.1912  -13.9241   26.1460 C   0  0  0  0  0  0  0  0  0  0  0  0
    8.2107  -14.5569   25.2696 C   0  0  2  0  0  0  0  0  0  0  0  0
    7.7975  -14.9377   23.9619 N   0  0  0  0  0  0  0  0  0  0  0  0
    8.7927  -15.7086   26.0488 C   0  0  0  0  0  0  0  0  0  0  0  0
    9.1538  -15.4963   27.2332 O   0  0  0  0  0  0  0  0  0  0  0  0
    8.9443  -17.0042   25.5005 N   0  0  0  0  0  0  0  0  0  0  0  0
    9.4977  -18.0701   26.3669 C   0  0  1  0  0  0  0  0  0  0  0  0
    8.9068  -19.3642   25.8785 C   0  0  0  0  0  0  0  0  0  0  0  0
    7.4726  -19.5362   26.1537 C   0  0  0  0  0  0  0  0  0  0  0  0
    6.9946  -19.3232   27.2860 O   0  0  0  0  0  0  0  0  0  0  0  0
   10.9780  -18.0907   26.1020 C   0  0  0  0  0  0  0  0  0  0  0  0
   11.8344  -18.9164   26.8569 O   0  0  0  0  0  0  0  0  0  0  0  0
    6.6218  -19.9461   25.1321 O   0  0  0  0  0  0  0  0  0  0  0  0
   11.5264  -17.3975   25.2213 O   0  0  0  0  0  0  0  0  0  0  0  0
  2  1  1  0
  3  2  2  0
  4  2  1  0
  5  6  1  0
  5  4  1  0
  6  8  1  0
  6  7  1  1
  8  9  2  0
 11 10  1  1
 11 12  1  0
 13 11  1  0
 14 13  1  1
 15  8  1  0
 15 14  1  0
 16 14  1  0
 16 17  2  0
 18 16  1  0
 19 23  1  0
 19 18  1  0
 19 20  1  6
 21 20  1  0
 21 25  1  0
 22 21  2  0
 23 24  1  0
 26 23  2  0
M  END
$$$$
