QLD.pdb
     RDKit          3D

 26 25  0  0  1  0  0  0  0  0999 V2000
    8.9842  -12.1890   18.5477 N   0  0  0  0  0  0  0  0  0  0  0  0
    8.2220  -13.3214   18.0917 C   0  0  0  0  0  0  0  0  0  0  0  0
    7.8864  -13.3578   16.8747 O   0  0  0  0  0  0  0  0  0  0  0  0
    7.8391  -14.4156   19.0180 C   0  0  0  0  0  0  0  0  0  0  0  0
    8.3728  -14.0791   20.3849 C   0  0  0  0  0  0  0  0  0  0  0  0
    8.4360  -15.2657   21.3040 C   0  0  2  0  0  0  0  0  0  0  0  0
    7.1178  -15.8709   21.3087 N   0  0  0  0  0  0  0  0  0  0  0  0
    8.9107  -14.9530   22.6644 C   0  0  0  0  0  0  0  0  0  0  0  0
   10.0646  -14.4862   22.8746 O   0  0  0  0  0  0  0  0  0  0  0  0
    5.8703  -12.5557   26.6296 C   0  0  0  0  0  0  0  0  0  0  0  0
    6.9467  -13.0055   25.6886 C   0  0  1  0  0  0  0  0  0  0  0  0
    8.1072  -12.0172   25.8766 C   0  0  0  0  0  0  0  0  0  0  0  0
    7.4394  -14.3518   26.0481 C   0  0  0  0  0  0  0  0  0  0  0  0
    8.4394  -14.9874   25.1514 C   0  0  2  0  0  0  0  0  0  0  0  0
    8.0672  -15.1721   23.7902 N   0  0  0  0  0  0  0  0  0  0  0  0
    8.8556  -16.2751   25.8155 C   0  0  0  0  0  0  0  0  0  0  0  0
    7.9521  -17.0554   26.2066 O   0  0  0  0  0  0  0  0  0  0  0  0
   10.2108  -16.6318   26.0109 N   0  0  0  0  0  0  0  0  0  0  0  0
   10.5061  -17.9339   26.6514 C   0  0  1  0  0  0  0  0  0  0  0  0
   11.9333  -18.2623   26.3083 C   0  0  0  0  0  0  0  0  0  0  0  0
   12.1761  -18.5769   24.8925 C   0  0  0  0  0  0  0  0  0  0  0  0
   11.2362  -18.7283   24.0866 O   0  0  0  0  0  0  0  0  0  0  0  0
   10.4138  -17.6954   28.1335 C   0  0  0  0  0  0  0  0  0  0  0  0
   10.5079  -16.3926   28.6617 O   0  0  0  0  0  0  0  0  0  0  0  0
   13.4825  -18.7107   24.4332 O   0  0  0  0  0  0  0  0  0  0  0  0
   10.2523  -18.6106   28.9662 O   0  0  0  0  0  0  0  0  0  0  0  0
  2  1  1  0
  3  2  2  0
  4  2  1  0
  5  6  1  0
  5  4  1  0
  6  8  1  0
  6  7  1  1
  8  9  2  0
 11 10  1  1
 11 12  1  0
 13 11  1  0
 14 13  1  1
 15  8  1  0
 15 14  1  0
 16 14  1  0
 16 17  2  0
 18 16  1  0
 19 23  1  0
 19 18  1  0
 19 20  1  1
 21 20  1  0
 21 25  1  0
 22 21  2  0
 23 24  1  0
 26 23  2  0
M  END
$$$$
