QLD.pdb
     RDKit          3D

 26 25  0  0  1  0  0  0  0  0999 V2000
    7.4296  -12.2657   18.9578 N   0  0  0  0  0  0  0  0  0  0  0  0
    8.0451  -13.4681   18.4610 C   0  0  0  0  0  0  0  0  0  0  0  0
    7.7905  -13.8166   17.2741 O   0  0  0  0  0  0  0  0  0  0  0  0
    8.9518  -14.2776   19.3122 C   0  0  0  0  0  0  0  0  0  0  0  0
    8.5028  -14.1341   20.7420 C   0  0  0  0  0  0  0  0  0  0  0  0
    8.8063  -15.3422   21.5816 C   0  0  2  0  0  0  0  0  0  0  0  0
    7.6195  -16.1761   21.5720 N   0  0  0  0  0  0  0  0  0  0  0  0
    9.2574  -15.0303   22.9502 C   0  0  0  0  0  0  0  0  0  0  0  0
   10.4724  -14.8149   23.2164 O   0  0  0  0  0  0  0  0  0  0  0  0
    5.6641  -12.5105   26.4621 C   0  0  0  0  0  0  0  0  0  0  0  0
    6.8471  -12.8824   25.6204 C   0  0  1  0  0  0  0  0  0  0  0  0
    7.7898  -11.6707   25.6644 C   0  0  0  0  0  0  0  0  0  0  0  0
    7.5693  -14.0356   26.1975 C   0  0  0  0  0  0  0  0  0  0  0  0
    8.6339  -14.6693   25.3770 C   0  0  2  0  0  0  0  0  0  0  0  0
    8.3206  -14.9627   24.0200 N   0  0  0  0  0  0  0  0  0  0  0  0
    9.0970  -15.8854   26.1380 C   0  0  0  0  0  0  0  0  0  0  0  0
    9.2137  -15.7911   27.3853 O   0  0  0  0  0  0  0  0  0  0  0  0
    9.4005  -17.1140   25.5052 N   0  0  0  0  0  0  0  0  0  0  0  0
    9.8608  -18.2405   26.3490 C   0  0  1  0  0  0  0  0  0  0  0  0
    9.7039  -19.4850   25.5189 C   0  0  0  0  0  0  0  0  0  0  0  0
   10.1568  -20.7255   26.1658 C   0  0  0  0  0  0  0  0  0  0  0  0
   10.4604  -20.7582   27.3752 O   0  0  0  0  0  0  0  0  0  0  0  0
   11.3273  -18.0064   26.5864 C   0  0  0  0  0  0  0  0  0  0  0  0
   12.1703  -17.5893   25.5373 O   0  0  0  0  0  0  0  0  0  0  0  0
   10.2516  -21.8947   25.4179 O   0  0  0  0  0  0  0  0  0  0  0  0
   11.8754  -18.1619   27.6966 O   0  0  0  0  0  0  0  0  0  0  0  0
  2  1  1  0
  3  2  2  0
  4  2  1  0
  5  6  1  0
  5  4  1  0
  6  8  1  0
  6  7  1  1
  8  9  2  0
 11 10  1  1
 11 12  1  0
 13 11  1  0
 14 13  1  1
 15  8  1  0
 15 14  1  0
 16 14  1  0
 16 17  2  0
 18 16  1  0
 19 23  1  0
 19 18  1  0
 19 20  1  6
 21 20  1  0
 21 25  1  0
 22 21  2  0
 23 24  1  0
 26 23  2  0
M  END
$$$$
