QLD.pdb
     RDKit          3D

 26 25  0  0  1  0  0  0  0  0999 V2000
   11.9974  -16.2467   13.5468 N   0  0  0  0  0  0  0  0  0  0  0  0
   10.6243  -16.0358   13.9228 C   0  0  0  0  0  0  0  0  0  0  0  0
    9.7778  -15.8646   13.0014 O   0  0  0  0  0  0  0  0  0  0  0  0
   10.2097  -16.0191   15.3475 C   0  0  0  0  0  0  0  0  0  0  0  0
   11.4465  -16.1511   16.1958 C   0  0  0  0  0  0  0  0  0  0  0  0
   11.1889  -16.8163   17.5178 C   0  0  2  0  0  0  0  0  0  0  0  0
    9.9401  -17.5433   17.3923 N   0  0  0  0  0  0  0  0  0  0  0  0
   11.1841  -15.8944   18.6685 C   0  0  0  0  0  0  0  0  0  0  0  0
   12.2390  -15.3317   19.0736 O   0  0  0  0  0  0  0  0  0  0  0  0
    6.3374  -13.2687   20.0993 C   0  0  0  0  0  0  0  0  0  0  0  0
    7.7297  -13.6228   19.6720 C   0  0  1  0  0  0  0  0  0  0  0  0
    8.4044  -12.2939   19.3009 C   0  0  0  0  0  0  0  0  0  0  0  0
    8.4934  -14.2190   20.7881 C   0  0  0  0  0  0  0  0  0  0  0  0
    9.8457  -14.7596   20.4933 C   0  0  2  0  0  0  0  0  0  0  0  0
    9.9723  -15.6116   19.3602 N   0  0  0  0  0  0  0  0  0  0  0  0
   10.3349  -15.4105   21.7619 C   0  0  0  0  0  0  0  0  0  0  0  0
   10.2293  -14.7647   22.8344 O   0  0  0  0  0  0  0  0  0  0  0  0
   10.9009  -16.7070   21.7874 N   0  0  0  0  0  0  0  0  0  0  0  0
   11.4196  -17.2186   23.0767 C   0  0  1  0  0  0  0  0  0  0  0  0
   10.9962  -18.6593   23.1634 C   0  0  0  0  0  0  0  0  0  0  0  0
   11.5613  -19.4067   24.2967 C   0  0  0  0  0  0  0  0  0  0  0  0
   11.2964  -19.1023   25.4769 O   0  0  0  0  0  0  0  0  0  0  0  0
   12.9187  -17.1669   22.9685 C   0  0  0  0  0  0  0  0  0  0  0  0
   13.5420  -16.7580   21.7729 O   0  0  0  0  0  0  0  0  0  0  0  0
   12.4128  -20.4800   24.0551 O   0  0  0  0  0  0  0  0  0  0  0  0
   13.6845  -17.4738   23.9047 O   0  0  0  0  0  0  0  0  0  0  0  0
  2  1  1  0
  3  2  2  0
  4  2  1  0
  5  6  1  0
  5  4  1  0
  6  8  1  0
  6  7  1  6
  8  9  2  0
 11 10  1  1
 11 12  1  0
 13 11  1  0
 14 13  1  1
 15  8  1  0
 15 14  1  0
 16 14  1  0
 16 17  2  0
 18 16  1  0
 19 23  1  0
 19 18  1  0
 19 20  1  6
 21 20  1  0
 21 25  1  0
 22 21  2  0
 23 24  1  0
 26 23  2  0
M  END
$$$$
