QLD.pdb
     RDKit          3D

 26 25  0  0  1  0  0  0  0  0999 V2000
    8.1179  -12.3950   17.6355 N   0  0  0  0  0  0  0  0  0  0  0  0
    8.0428  -13.7881   17.9890 C   0  0  0  0  0  0  0  0  0  0  0  0
    8.4244  -14.6369   17.1353 O   0  0  0  0  0  0  0  0  0  0  0  0
    7.5336  -14.2200   19.3142 C   0  0  0  0  0  0  0  0  0  0  0  0
    8.6966  -14.2673   20.2691 C   0  0  0  0  0  0  0  0  0  0  0  0
    8.5305  -15.2935   21.3534 C   0  0  2  0  0  0  0  0  0  0  0  0
    7.1186  -15.6197   21.4180 N   0  0  0  0  0  0  0  0  0  0  0  0
    9.0681  -14.8825   22.6634 C   0  0  0  0  0  0  0  0  0  0  0  0
   10.2861  -14.5901   22.8196 O   0  0  0  0  0  0  0  0  0  0  0  0
    5.6769  -12.4279   26.4923 C   0  0  0  0  0  0  0  0  0  0  0  0
    6.7652  -12.7759   25.5223 C   0  0  1  0  0  0  0  0  0  0  0  0
    7.6659  -11.5346   25.4405 C   0  0  0  0  0  0  0  0  0  0  0  0
    7.5877  -13.8964   26.0249 C   0  0  0  0  0  0  0  0  0  0  0  0
    8.6229  -14.4584   25.1191 C   0  0  2  0  0  0  0  0  0  0  0  0
    8.2145  -14.8032   23.8000 N   0  0  0  0  0  0  0  0  0  0  0  0
    9.2506  -15.6177   25.8501 C   0  0  0  0  0  0  0  0  0  0  0  0
    9.4556  -15.4955   27.0836 O   0  0  0  0  0  0  0  0  0  0  0  0
    9.6120  -16.8238   25.2046 N   0  0  0  0  0  0  0  0  0  0  0  0
   10.3137  -17.8589   25.9979 C   0  0  1  0  0  0  0  0  0  0  0  0
    9.7282  -19.1811   25.5838 C   0  0  0  0  0  0  0  0  0  0  0  0
   10.4240  -20.3629   26.1143 C   0  0  0  0  0  0  0  0  0  0  0  0
   10.5275  -20.5640   27.3410 O   0  0  0  0  0  0  0  0  0  0  0  0
   11.7508  -17.8135   25.5568 C   0  0  0  0  0  0  0  0  0  0  0  0
   12.7528  -18.4752   26.2938 O   0  0  0  0  0  0  0  0  0  0  0  0
   10.9831  -21.2834   25.2336 O   0  0  0  0  0  0  0  0  0  0  0  0
   12.1362  -17.2044   24.5383 O   0  0  0  0  0  0  0  0  0  0  0  0
  2  1  1  0
  3  2  2  0
  4  2  1  0
  5  6  1  0
  5  4  1  0
  6  8  1  0
  6  7  1  1
  8  9  2  0
 11 10  1  1
 11 12  1  0
 13 11  1  0
 14 13  1  1
 15  8  1  0
 15 14  1  0
 16 14  1  0
 16 17  2  0
 18 16  1  0
 19 23  1  0
 19 18  1  0
 19 20  1  6
 21 20  1  0
 21 25  1  0
 22 21  2  0
 23 24  1  0
 26 23  2  0
M  END
$$$$
