QLD.pdb
     RDKit          3D

 26 25  0  0  1  0  0  0  0  0999 V2000
    8.7172  -12.1612   18.4911 N   0  0  0  0  0  0  0  0  0  0  0  0
    7.8894  -13.2328   18.0035 C   0  0  0  0  0  0  0  0  0  0  0  0
    7.7182  -13.3278   16.7558 O   0  0  0  0  0  0  0  0  0  0  0  0
    7.2539  -14.1993   18.9329 C   0  0  0  0  0  0  0  0  0  0  0  0
    7.7206  -13.8817   20.3286 C   0  0  0  0  0  0  0  0  0  0  0  0
    8.1217  -15.1003   21.1101 C   0  0  2  0  0  0  0  0  0  0  0  0
    6.9650  -15.9740   21.1593 N   0  0  0  0  0  0  0  0  0  0  0  0
    8.6580  -14.8092   22.4523 C   0  0  0  0  0  0  0  0  0  0  0  0
    9.7841  -14.2621   22.6136 O   0  0  0  0  0  0  0  0  0  0  0  0
    5.6333  -12.8427   26.6193 C   0  0  0  0  0  0  0  0  0  0  0  0
    6.7424  -13.1357   25.6547 C   0  0  1  0  0  0  0  0  0  0  0  0
    7.8071  -12.0564   25.9005 C   0  0  0  0  0  0  0  0  0  0  0  0
    7.3594  -14.4489   25.9362 C   0  0  0  0  0  0  0  0  0  0  0  0
    8.3475  -14.9754   24.9592 C   0  0  2  0  0  0  0  0  0  0  0  0
    7.9080  -15.1418   23.6158 N   0  0  0  0  0  0  0  0  0  0  0  0
    8.8978  -16.2493   25.5480 C   0  0  0  0  0  0  0  0  0  0  0  0
    8.1426  -17.2523   25.5930 O   0  0  0  0  0  0  0  0  0  0  0  0
   10.2184  -16.3543   26.0450 N   0  0  0  0  0  0  0  0  0  0  0  0
   10.6574  -17.6574   26.5949 C   0  0  1  0  0  0  0  0  0  0  0  0
   12.0991  -17.8218   26.1987 C   0  0  0  0  0  0  0  0  0  0  0  0
   12.3658  -17.7011   24.7577 C   0  0  0  0  0  0  0  0  0  0  0  0
   11.9123  -18.5249   23.9382 O   0  0  0  0  0  0  0  0  0  0  0  0
   10.5857  -17.5195   28.0908 C   0  0  0  0  0  0  0  0  0  0  0  0
   10.8841  -18.6106   28.9309 O   0  0  0  0  0  0  0  0  0  0  0  0
   13.1418  -16.6457   24.2892 O   0  0  0  0  0  0  0  0  0  0  0  0
   10.2667  -16.4597   28.6670 O   0  0  0  0  0  0  0  0  0  0  0  0
  2  1  1  0
  3  2  2  0
  4  2  1  0
  5  6  1  0
  5  4  1  0
  6  8  1  0
  6  7  1  1
  8  9  2  0
 11 10  1  1
 11 12  1  0
 13 11  1  0
 14 13  1  1
 15  8  1  0
 15 14  1  0
 16 14  1  0
 16 17  2  0
 18 16  1  0
 19 23  1  0
 19 18  1  0
 19 20  1  1
 21 20  1  0
 21 25  1  0
 22 21  2  0
 23 24  1  0
 26 23  2  0
M  END
$$$$
