QLD.pdb
     RDKit          3D

 26 25  0  0  1  0  0  0  0  0999 V2000
    6.7024  -19.4845   20.5455 N   0  0  0  0  0  0  0  0  0  0  0  0
    7.1873  -18.6002   19.5188 C   0  0  0  0  0  0  0  0  0  0  0  0
    7.6985  -19.1164   18.4857 O   0  0  0  0  0  0  0  0  0  0  0  0
    7.0923  -17.1264   19.6636 C   0  0  0  0  0  0  0  0  0  0  0  0
    7.6951  -16.7472   20.9901 C   0  0  0  0  0  0  0  0  0  0  0  0
    7.6136  -15.2751   21.2778 C   0  0  2  0  0  0  0  0  0  0  0  0
    8.0508  -14.5827   20.0806 N   0  0  0  0  0  0  0  0  0  0  0  0
    8.3641  -14.8496   22.4735 C   0  0  0  0  0  0  0  0  0  0  0  0
    9.6232  -14.7592   22.4703 O   0  0  0  0  0  0  0  0  0  0  0  0
    5.9141  -11.9051   26.7224 C   0  0  0  0  0  0  0  0  0  0  0  0
    6.8117  -12.3842   25.6219 C   0  0  1  0  0  0  0  0  0  0  0  0
    7.8980  -11.3092   25.4695 C   0  0  0  0  0  0  0  0  0  0  0  0
    7.4796  -13.6495   25.9928 C   0  0  0  0  0  0  0  0  0  0  0  0
    8.2839  -14.3410   24.9521 C   0  0  2  0  0  0  0  0  0  0  0  0
    7.6776  -14.5248   23.6776 N   0  0  0  0  0  0  0  0  0  0  0  0
    8.7512  -15.6383   25.5610 C   0  0  0  0  0  0  0  0  0  0  0  0
    7.9596  -16.6138   25.5495 O   0  0  0  0  0  0  0  0  0  0  0  0
   10.0339  -15.7945   26.1374 N   0  0  0  0  0  0  0  0  0  0  0  0
   10.4165  -17.1338   26.6404 C   0  0  1  0  0  0  0  0  0  0  0  0
   11.7089  -17.4906   25.9586 C   0  0  0  0  0  0  0  0  0  0  0  0
   12.3479  -18.7232   26.4428 C   0  0  0  0  0  0  0  0  0  0  0  0
   11.8183  -19.8408   26.2804 O   0  0  0  0  0  0  0  0  0  0  0  0
   10.6833  -16.9621   28.1105 C   0  0  0  0  0  0  0  0  0  0  0  0
   11.0091  -18.0692   28.9187 O   0  0  0  0  0  0  0  0  0  0  0  0
   13.5726  -18.6496   27.0988 O   0  0  0  0  0  0  0  0  0  0  0  0
   10.6349  -15.8589   28.6916 O   0  0  0  0  0  0  0  0  0  0  0  0
  2  1  1  0
  3  2  2  0
  4  2  1  0
  5  6  1  0
  5  4  1  0
  6  8  1  0
  6  7  1  6
  8  9  2  0
 11 10  1  1
 11 12  1  0
 13 11  1  0
 14 13  1  1
 15  8  1  0
 15 14  1  0
 16 14  1  0
 16 17  2  0
 18 16  1  0
 19 23  1  0
 19 18  1  0
 19 20  1  6
 21 20  1  0
 21 25  1  0
 22 21  2  0
 23 24  1  0
 26 23  2  0
M  END
$$$$
