QLD.pdb
     RDKit          3D

 26 25  0  0  1  0  0  0  0  0999 V2000
    8.8220  -15.1962   14.7123 N   0  0  0  0  0  0  0  0  0  0  0  0
   10.0953  -15.7596   14.3482 C   0  0  0  0  0  0  0  0  0  0  0  0
   10.6868  -15.2832   13.3391 O   0  0  0  0  0  0  0  0  0  0  0  0
   10.6998  -16.8663   15.1303 C   0  0  0  0  0  0  0  0  0  0  0  0
   11.5217  -16.2617   16.2374 C   0  0  0  0  0  0  0  0  0  0  0  0
   11.2847  -16.9096   17.5718 C   0  0  2  0  0  0  0  0  0  0  0  0
   10.0911  -17.7237   17.4435 N   0  0  0  0  0  0  0  0  0  0  0  0
   11.1945  -15.9615   18.6974 C   0  0  0  0  0  0  0  0  0  0  0  0
   12.1794  -15.2564   19.0528 O   0  0  0  0  0  0  0  0  0  0  0  0
    6.2564  -13.5415   19.9998 C   0  0  0  0  0  0  0  0  0  0  0  0
    7.6628  -13.8958   19.6218 C   0  0  1  0  0  0  0  0  0  0  0  0
    8.3394  -12.5715   19.2376 C   0  0  0  0  0  0  0  0  0  0  0  0
    8.3977  -14.4589   20.7739 C   0  0  0  0  0  0  0  0  0  0  0  0
    9.7772  -14.9592   20.5401 C   0  0  2  0  0  0  0  0  0  0  0  0
    9.9771  -15.8154   19.4208 N   0  0  0  0  0  0  0  0  0  0  0  0
   10.2329  -15.5850   21.8336 C   0  0  0  0  0  0  0  0  0  0  0  0
   10.0221  -14.9547   22.8997 O   0  0  0  0  0  0  0  0  0  0  0  0
   10.8811  -16.8414   21.8888 N   0  0  0  0  0  0  0  0  0  0  0  0
   11.3160  -17.3467   23.2112 C   0  0  1  0  0  0  0  0  0  0  0  0
   11.3434  -18.8468   23.1049 C   0  0  0  0  0  0  0  0  0  0  0  0
   10.0241  -19.4959   23.1242 C   0  0  0  0  0  0  0  0  0  0  0  0
    8.9766  -18.8415   23.2981 O   0  0  0  0  0  0  0  0  0  0  0  0
   12.7250  -16.8552   23.3981 C   0  0  0  0  0  0  0  0  0  0  0  0
   13.3293  -16.8642   24.6709 O   0  0  0  0  0  0  0  0  0  0  0  0
    9.9336  -20.8726   22.9450 O   0  0  0  0  0  0  0  0  0  0  0  0
   13.4289  -16.4205   22.4640 O   0  0  0  0  0  0  0  0  0  0  0  0
  2  1  1  0
  3  2  2  0
  4  2  1  0
  5  6  1  0
  5  4  1  0
  6  8  1  0
  6  7  1  6
  8  9  2  0
 11 10  1  1
 11 12  1  0
 13 11  1  0
 14 13  1  1
 15  8  1  0
 15 14  1  0
 16 14  1  0
 16 17  2  0
 18 16  1  0
 19 23  1  0
 19 18  1  0
 19 20  1  6
 21 20  1  0
 21 25  1  0
 22 21  2  0
 23 24  1  0
 26 23  2  0
M  END
$$$$
