QLD.pdb
     RDKit          3D

 26 25  0  0  1  0  0  0  0  0999 V2000
    8.6701  -11.9680   17.6298 N   0  0  0  0  0  0  0  0  0  0  0  0
    8.4670  -13.3465   17.9900 C   0  0  0  0  0  0  0  0  0  0  0  0
    9.2395  -14.2098   17.4870 O   0  0  0  0  0  0  0  0  0  0  0  0
    7.3852  -13.7474   18.9232 C   0  0  0  0  0  0  0  0  0  0  0  0
    7.9119  -13.6278   20.3286 C   0  0  0  0  0  0  0  0  0  0  0  0
    8.1150  -14.9565   20.9993 C   0  0  2  0  0  0  0  0  0  0  0  0
    6.8310  -15.6311   21.0047 N   0  0  0  0  0  0  0  0  0  0  0  0
    8.7050  -14.8700   22.3478 C   0  0  0  0  0  0  0  0  0  0  0  0
    9.9448  -14.7082   22.5215 O   0  0  0  0  0  0  0  0  0  0  0  0
    5.7653  -12.6609   26.6693 C   0  0  0  0  0  0  0  0  0  0  0  0
    6.8052  -12.9868   25.6403 C   0  0  1  0  0  0  0  0  0  0  0  0
    7.9454  -11.9826   25.8647 C   0  0  0  0  0  0  0  0  0  0  0  0
    7.3530  -14.3437   25.8485 C   0  0  0  0  0  0  0  0  0  0  0  0
    8.3252  -14.8605   24.8506 C   0  0  2  0  0  0  0  0  0  0  0  0
    7.8791  -14.9671   23.5033 N   0  0  0  0  0  0  0  0  0  0  0  0
    8.8431  -16.1685   25.3921 C   0  0  0  0  0  0  0  0  0  0  0  0
    8.0629  -17.1531   25.4008 O   0  0  0  0  0  0  0  0  0  0  0  0
   10.1605  -16.3248   25.8840 N   0  0  0  0  0  0  0  0  0  0  0  0
   10.5514  -17.6448   26.4299 C   0  0  1  0  0  0  0  0  0  0  0  0
   11.9959  -17.8459   26.0619 C   0  0  0  0  0  0  0  0  0  0  0  0
   12.2652  -17.9233   24.6184 C   0  0  0  0  0  0  0  0  0  0  0  0
   11.4867  -18.5087   23.8392 O   0  0  0  0  0  0  0  0  0  0  0  0
   10.4523  -17.5191   27.9252 C   0  0  0  0  0  0  0  0  0  0  0  0
   10.0822  -16.2984   28.5236 O   0  0  0  0  0  0  0  0  0  0  0  0
   13.4137  -17.3322   24.1016 O   0  0  0  0  0  0  0  0  0  0  0  0
   10.6848  -18.4616   28.7092 O   0  0  0  0  0  0  0  0  0  0  0  0
  2  1  1  0
  3  2  2  0
  4  2  1  0
  5  6  1  0
  5  4  1  0
  6  8  1  0
  6  7  1  1
  8  9  2  0
 11 10  1  1
 11 12  1  0
 13 11  1  0
 14 13  1  1
 15  8  1  0
 15 14  1  0
 16 14  1  0
 16 17  2  0
 18 16  1  0
 19 23  1  0
 19 18  1  0
 19 20  1  1
 21 20  1  0
 21 25  1  0
 22 21  2  0
 23 24  1  0
 26 23  2  0
M  END
$$$$
