QLD.pdb
     RDKit          3D

 26 25  0  0  1  0  0  0  0  0999 V2000
    7.8570  -18.0652   17.8083 N   0  0  0  0  0  0  0  0  0  0  0  0
    8.6625  -16.9631   18.2641 C   0  0  0  0  0  0  0  0  0  0  0  0
    9.9140  -17.1255   18.3142 O   0  0  0  0  0  0  0  0  0  0  0  0
    8.0476  -15.6732   18.6641 C   0  0  0  0  0  0  0  0  0  0  0  0
    8.6737  -15.2397   19.9628 C   0  0  0  0  0  0  0  0  0  0  0  0
    8.1333  -15.9767   21.1551 C   0  0  2  0  0  0  0  0  0  0  0  0
    6.6883  -15.8590   21.1090 N   0  0  0  0  0  0  0  0  0  0  0  0
    8.6882  -15.5293   22.4458 C   0  0  0  0  0  0  0  0  0  0  0  0
    9.9272  -15.3533   22.6111 O   0  0  0  0  0  0  0  0  0  0  0  0
    5.7798  -12.2805   26.0455 C   0  0  0  0  0  0  0  0  0  0  0  0
    6.8737  -12.8530   25.1958 C   0  0  1  0  0  0  0  0  0  0  0  0
    8.0546  -11.8790   25.3211 C   0  0  0  0  0  0  0  0  0  0  0  0
    7.3164  -14.1655   25.7114 C   0  0  0  0  0  0  0  0  0  0  0  0
    8.2507  -14.9613   24.8737 C   0  0  2  0  0  0  0  0  0  0  0  0
    7.8280  -15.2804   23.5526 N   0  0  0  0  0  0  0  0  0  0  0  0
    8.6110  -16.1858   25.6756 C   0  0  0  0  0  0  0  0  0  0  0  0
    7.7316  -17.0700   25.8286 O   0  0  0  0  0  0  0  0  0  0  0  0
    9.8885  -16.3726   26.2543 N   0  0  0  0  0  0  0  0  0  0  0  0
   10.2799  -17.7425   26.6584 C   0  0  1  0  0  0  0  0  0  0  0  0
   11.4094  -18.1469   25.7510 C   0  0  0  0  0  0  0  0  0  0  0  0
   12.0395  -19.4346   26.0781 C   0  0  0  0  0  0  0  0  0  0  0  0
   11.6262  -20.1442   27.0169 O   0  0  0  0  0  0  0  0  0  0  0  0
   10.8123  -17.6234   28.0599 C   0  0  0  0  0  0  0  0  0  0  0  0
   10.7714  -16.3928   28.7450 O   0  0  0  0  0  0  0  0  0  0  0  0
   13.1231  -19.8790   25.3272 O   0  0  0  0  0  0  0  0  0  0  0  0
   11.3098  -18.5801   28.6878 O   0  0  0  0  0  0  0  0  0  0  0  0
  2  1  1  0
  3  2  2  0
  4  2  1  0
  5  6  1  0
  5  4  1  0
  6  8  1  0
  6  7  1  1
  8  9  2  0
 11 10  1  1
 11 12  1  0
 13 11  1  0
 14 13  1  1
 15  8  1  0
 15 14  1  0
 16 14  1  0
 16 17  2  0
 18 16  1  0
 19 23  1  0
 19 18  1  0
 19 20  1  6
 21 20  1  0
 21 25  1  0
 22 21  2  0
 23 24  1  0
 26 23  2  0
M  END
$$$$
