SFS.pdb
     RDKit          3D

 24 24  0  0  1  0  0  0  0  0999 V2000
   26.4866  -19.0419  -13.9250 O   0  0  0  0  0  0  0  0  0  0  0  0
   27.8576  -19.1053  -13.7099 C   0  0  0  0  0  0  0  0  0  0  0  0
   28.2827  -20.4966  -13.2943 C   0  0  2  0  0  0  0  0  0  0  0  0
   27.9591  -21.4825  -14.2847 N   0  0  0  0  0  0  0  0  0  0  0  0
   27.7219  -20.8895  -11.9998 C   0  0  0  0  0  0  0  0  0  0  0  0
   26.9104  -21.8388  -11.9200 O   0  0  0  0  0  0  0  0  0  0  0  0
   28.1116  -20.1782  -10.8348 N   0  0  0  0  0  0  0  0  0  0  0  0
   27.5830  -20.4673   -9.5341 C   0  0  1  0  0  0  0  0  0  0  0  0
   28.4284  -19.7255   -8.5194 C   0  0  0  0  0  0  0  0  0  0  0  0
   27.9627  -20.0056   -7.1428 C   0  0  0  0  0  0  0  0  0  0  0  0
   28.4642  -21.0747   -6.4019 C   0  0  0  0  0  0  0  0  0  0  0  0
   28.0307  -21.3351   -5.1210 C   0  0  0  0  0  0  0  0  0  0  0  0
   27.0767  -20.5190   -4.5556 C   0  0  0  0  0  0  0  0  0  0  0  0
   26.5661  -19.4549   -5.2704 C   0  0  0  0  0  0  0  0  0  0  0  0
   27.0007  -19.1981   -6.5475 C   0  0  0  0  0  0  0  0  0  0  0  0
   26.1704  -20.0595   -9.4789 C   0  0  0  0  0  0  0  0  0  0  0  0
   25.8378  -18.8551   -9.6252 O   0  0  0  0  0  0  0  0  0  0  0  0
   23.1837  -22.1654  -10.9470 O   0  0  0  0  0  0  0  0  0  0  0  0
   23.1044  -20.8417  -10.5882 C   0  0  0  0  0  0  0  0  0  0  0  0
   23.7349  -20.5620   -9.2339 C   0  0  2  0  0  0  0  0  0  0  0  0
   25.1071  -20.9851   -9.2601 N   0  0  0  0  0  0  0  0  0  0  0  0
   23.0158  -21.2013   -8.1355 C   0  0  0  0  0  0  0  0  0  0  0  0
   23.5947  -21.9773   -7.3411 O   0  0  0  0  0  0  0  0  0  0  0  0
   21.6672  -20.9590   -7.9501 O   0  0  0  0  0  0  0  0  0  0  0  0
  2  1  1  0
  3  2  1  0
  3  4  1  6
  5  3  1  0
  5  6  2  0
  7  5  1  0
  8  7  1  0
  9 10  1  0
  8  9  1  1
 10 15  2  0
 11 10  1  0
 11 12  2  0
 12 13  1  0
 13 14  2  0
 15 14  1  0
 16 21  1  0
 16  8  1  0
 17 16  2  0
 18 19  1  0
 20 19  1  6
 20 21  1  0
 20 22  1  0
 22 23  2  0
 22 24  1  0
M  END
$$$$
