SFS.pdb
     RDKit          3D

 24 24  0  0  1  0  0  0  0  0999 V2000
   18.3991   -7.9201  -20.0190 O   0  0  0  0  0  0  0  0  0  0  0  0
   19.2044   -8.7581  -20.7800 C   0  0  0  0  0  0  0  0  0  0  0  0
   19.4658  -10.0650  -20.0637 C   0  0  2  0  0  0  0  0  0  0  0  0
   18.2536  -10.7652  -19.7507 N   0  0  0  0  0  0  0  0  0  0  0  0
   20.2649   -9.8872  -18.8494 C   0  0  0  0  0  0  0  0  0  0  0  0
   19.7398  -10.0050  -17.7197 O   0  0  0  0  0  0  0  0  0  0  0  0
   21.6451   -9.5789  -18.9711 N   0  0  0  0  0  0  0  0  0  0  0  0
   22.5102   -9.4255  -17.8384 C   0  0  1  0  0  0  0  0  0  0  0  0
   23.8497  -10.0349  -18.1977 C   0  0  0  0  0  0  0  0  0  0  0  0
   24.8038   -9.9056  -17.0738 C   0  0  0  0  0  0  0  0  0  0  0  0
   25.9021   -9.0494  -17.1385 C   0  0  0  0  0  0  0  0  0  0  0  0
   26.7897   -8.9292  -16.0926 C   0  0  0  0  0  0  0  0  0  0  0  0
   26.5888   -9.6735  -14.9518 C   0  0  0  0  0  0  0  0  0  0  0  0
   25.5083  -10.5276  -14.8655 C   0  0  0  0  0  0  0  0  0  0  0  0
   24.6252  -10.6450  -15.9104 C   0  0  0  0  0  0  0  0  0  0  0  0
   22.6262   -7.9979  -17.5016 C   0  0  0  0  0  0  0  0  0  0  0  0
   22.8566   -7.1391  -18.3916 O   0  0  0  0  0  0  0  0  0  0  0  0
   20.8919   -6.0885  -14.1459 O   0  0  0  0  0  0  0  0  0  0  0  0
   21.2131   -5.6153  -15.3949 C   0  0  0  0  0  0  0  0  0  0  0  0
   22.5705   -6.1014  -15.8755 C   0  0  2  0  0  0  0  0  0  0  0  0
   22.4876   -7.5046  -16.1702 N   0  0  0  0  0  0  0  0  0  0  0  0
   23.6365   -5.8355  -14.9136 C   0  0  0  0  0  0  0  0  0  0  0  0
   24.2253   -6.7669  -14.3186 O   0  0  0  0  0  0  0  0  0  0  0  0
   24.0197   -4.5357  -14.6389 O   0  0  0  0  0  0  0  0  0  0  0  0
  2  1  1  0
  3  2  1  0
  3  4  1  1
  5  3  1  0
  5  6  2  0
  7  5  1  0
  8  7  1  0
  9 10  1  0
  8  9  1  6
 10 15  2  0
 11 10  1  0
 11 12  2  0
 12 13  1  0
 13 14  2  0
 15 14  1  0
 16 21  1  0
 16  8  1  0
 17 16  2  0
 18 19  1  0
 20 19  1  1
 20 21  1  0
 20 22  1  0
 22 23  2  0
 22 24  1  0
M  END
$$$$
