SFS.pdb
     RDKit          3D

 24 24  0  0  1  0  0  0  0  0999 V2000
   20.1470  -21.2340  -14.1706 O   0  0  0  0  0  0  0  0  0  0  0  0
   20.7912  -22.1120  -13.3079 C   0  0  0  0  0  0  0  0  0  0  0  0
   21.3432  -21.3865  -12.1003 C   0  0  2  0  0  0  0  0  0  0  0  0
   20.3274  -20.6681  -11.3864 N   0  0  0  0  0  0  0  0  0  0  0  0
   22.4424  -20.4823  -12.4451 C   0  0  0  0  0  0  0  0  0  0  0  0
   22.3023  -19.2431  -12.3429 O   0  0  0  0  0  0  0  0  0  0  0  0
   23.6709  -21.0313  -12.8974 N   0  0  0  0  0  0  0  0  0  0  0  0
   24.8374  -20.2334  -13.1373 C   0  0  1  0  0  0  0  0  0  0  0  0
   25.9966  -20.8847  -12.4114 C   0  0  0  0  0  0  0  0  0  0  0  0
   25.8986  -20.6547  -10.9528 C   0  0  0  0  0  0  0  0  0  0  0  0
   26.0187  -19.3799  -10.4014 C   0  0  0  0  0  0  0  0  0  0  0  0
   25.9275  -19.1661   -9.0440 C   0  0  0  0  0  0  0  0  0  0  0  0
   25.7120  -20.2385   -8.2078 C   0  0  0  0  0  0  0  0  0  0  0  0
   25.5900  -21.5094   -8.7315 C   0  0  0  0  0  0  0  0  0  0  0  0
   25.6814  -21.7190  -10.0855 C   0  0  0  0  0  0  0  0  0  0  0  0
   25.0762  -20.1399  -14.5861 C   0  0  0  0  0  0  0  0  0  0  0  0
   24.9123  -21.1372  -15.3352 O   0  0  0  0  0  0  0  0  0  0  0  0
   23.9851  -17.0934  -16.6667 O   0  0  0  0  0  0  0  0  0  0  0  0
   25.2382  -17.4524  -17.1005 C   0  0  0  0  0  0  0  0  0  0  0  0
   25.6378  -18.8477  -16.6498 C   0  0  2  0  0  0  0  0  0  0  0  0
   25.5007  -18.9359  -15.2229 N   0  0  0  0  0  0  0  0  0  0  0  0
   26.9913  -19.2069  -17.0640 C   0  0  0  0  0  0  0  0  0  0  0  0
   27.9606  -19.1137  -16.2765 O   0  0  0  0  0  0  0  0  0  0  0  0
   27.2303  -19.6616  -18.3476 O   0  0  0  0  0  0  0  0  0  0  0  0
  2  1  1  0
  3  2  1  0
  3  4  1  6
  5  3  1  0
  5  6  2  0
  7  5  1  0
  8  7  1  0
  9 10  1  0
  8  9  1  1
 10 15  2  0
 11 10  1  0
 11 12  2  0
 12 13  1  0
 13 14  2  0
 15 14  1  0
 16 21  1  0
 16  8  1  0
 17 16  2  0
 18 19  1  0
 20 19  1  1
 20 21  1  0
 20 22  1  0
 22 23  2  0
 22 24  1  0
M  END
$$$$
