SFS.pdb
     RDKit          3D

 24 24  0  0  1  0  0  0  0  0999 V2000
   26.3739  -21.4124  -18.5009 O   0  0  0  0  0  0  0  0  0  0  0  0
   27.1682  -20.7598  -17.5664 C   0  0  0  0  0  0  0  0  0  0  0  0
   27.7567  -21.7358  -16.5713 C   0  0  2  0  0  0  0  0  0  0  0  0
   28.1300  -22.9780  -17.1838 N   0  0  0  0  0  0  0  0  0  0  0  0
   26.8621  -21.9885  -15.4397 C   0  0  0  0  0  0  0  0  0  0  0  0
   26.4776  -23.1507  -15.1802 O   0  0  0  0  0  0  0  0  0  0  0  0
   26.4362  -20.8959  -14.6398 N   0  0  0  0  0  0  0  0  0  0  0  0
   25.6416  -21.0607  -13.4582 C   0  0  1  0  0  0  0  0  0  0  0  0
   26.1087  -20.0370  -12.4440 C   0  0  0  0  0  0  0  0  0  0  0  0
   27.3306  -20.5037  -11.7515 C   0  0  0  0  0  0  0  0  0  0  0  0
   27.2818  -21.0673  -10.4774 C   0  0  0  0  0  0  0  0  0  0  0  0
   28.4189  -21.5015   -9.8332 C   0  0  0  0  0  0  0  0  0  0  0  0
   29.6370  -21.3764  -10.4626 C   0  0  0  0  0  0  0  0  0  0  0  0
   29.7092  -20.8215  -11.7240 C   0  0  0  0  0  0  0  0  0  0  0  0
   28.5733  -20.3896  -12.3635 C   0  0  0  0  0  0  0  0  0  0  0  0
   24.2199  -20.8919  -13.7977 C   0  0  0  0  0  0  0  0  0  0  0  0
   23.8364  -19.9398  -14.5251 O   0  0  0  0  0  0  0  0  0  0  0  0
   21.7659  -23.8171  -14.6580 O   0  0  0  0  0  0  0  0  0  0  0  0
   21.1559  -22.9674  -13.7674 C   0  0  0  0  0  0  0  0  0  0  0  0
   21.8270  -21.6054  -13.7020 C   0  0  2  0  0  0  0  0  0  0  0  0
   23.2041  -21.7794  -13.3333 N   0  0  0  0  0  0  0  0  0  0  0  0
   21.1556  -20.6906  -12.7830 C   0  0  0  0  0  0  0  0  0  0  0  0
   21.7147  -20.2909  -11.7361 O   0  0  0  0  0  0  0  0  0  0  0  0
   19.8757  -20.2437  -13.0547 O   0  0  0  0  0  0  0  0  0  0  0  0
  2  1  1  0
  3  2  1  0
  3  4  1  6
  5  3  1  0
  5  6  2  0
  7  5  1  0
  8  7  1  0
  9 10  1  0
  8  9  1  1
 10 15  2  0
 11 10  1  0
 11 12  2  0
 12 13  1  0
 13 14  2  0
 15 14  1  0
 16 21  1  0
 16  8  1  0
 17 16  2  0
 18 19  1  0
 20 19  1  1
 20 21  1  0
 20 22  1  0
 22 23  2  0
 22 24  1  0
M  END
$$$$
