SFS.pdb
     RDKit          3D

 24 24  0  0  1  0  0  0  0  0999 V2000
   29.9093  -21.0564  -12.5748 O   0  0  0  0  0  0  0  0  0  0  0  0
   30.4996  -20.4239  -11.4878 C   0  0  0  0  0  0  0  0  0  0  0  0
   30.3914  -21.2692  -10.2376 C   0  0  2  0  0  0  0  0  0  0  0  0
   31.0455  -22.5378  -10.3808 N   0  0  0  0  0  0  0  0  0  0  0  0
   29.0031  -21.4703   -9.8168 C   0  0  0  0  0  0  0  0  0  0  0  0
   28.4926  -22.6126   -9.8340 O   0  0  0  0  0  0  0  0  0  0  0  0
   28.2432  -20.3505   -9.3885 N   0  0  0  0  0  0  0  0  0  0  0  0
   26.8489  -20.4345   -9.0664 C   0  0  1  0  0  0  0  0  0  0  0  0
   26.5533  -19.3741   -8.0257 C   0  0  0  0  0  0  0  0  0  0  0  0
   27.2596  -19.6700   -6.7593 C   0  0  0  0  0  0  0  0  0  0  0  0
   28.4026  -18.9700   -6.3758 C   0  0  0  0  0  0  0  0  0  0  0  0
   29.0596  -19.2455   -5.1974 C   0  0  0  0  0  0  0  0  0  0  0  0
   28.5763  -20.2383   -4.3748 C   0  0  0  0  0  0  0  0  0  0  0  0
   27.4464  -20.9442   -4.7341 C   0  0  0  0  0  0  0  0  0  0  0  0
   26.7937  -20.6669   -5.9100 C   0  0  0  0  0  0  0  0  0  0  0  0
   26.0525  -20.2449  -10.2889 C   0  0  0  0  0  0  0  0  0  0  0  0
   26.1977  -19.2201  -11.0040 O   0  0  0  0  0  0  0  0  0  0  0  0
   23.8775  -23.3325  -12.2301 O   0  0  0  0  0  0  0  0  0  0  0  0
   24.4308  -22.2178  -12.8118 C   0  0  0  0  0  0  0  0  0  0  0  0
   24.3217  -20.9823  -11.9336 C   0  0  2  0  0  0  0  0  0  0  0  0
   25.0830  -21.1921  -10.7339 N   0  0  0  0  0  0  0  0  0  0  0  0
   22.9387  -20.6372  -11.6166 C   0  0  0  0  0  0  0  0  0  0  0  0
   22.5421  -20.5557  -10.4315 O   0  0  0  0  0  0  0  0  0  0  0  0
   22.0313  -20.3914  -12.6305 O   0  0  0  0  0  0  0  0  0  0  0  0
  2  1  1  0
  3  2  1  0
  3  4  1  6
  5  3  1  0
  5  6  2  0
  7  5  1  0
  8  7  1  0
  9 10  1  0
  8  9  1  1
 10 15  2  0
 11 10  1  0
 11 12  2  0
 12 13  1  0
 13 14  2  0
 15 14  1  0
 16 21  1  0
 16  8  1  0
 17 16  2  0
 18 19  1  0
 20 19  1  6
 20 21  1  0
 20 22  1  0
 22 23  2  0
 22 24  1  0
M  END
$$$$
