SFS.pdb
     RDKit          3D

 24 24  0  0  1  0  0  0  0  0999 V2000
   22.1223   -9.3791  -20.9581 O   0  0  0  0  0  0  0  0  0  0  0  0
   22.8017  -10.5808  -20.8021 C   0  0  0  0  0  0  0  0  0  0  0  0
   24.0148  -10.4124  -19.9137 C   0  0  2  0  0  0  0  0  0  0  0  0
   24.7984  -11.6110  -19.8308 N   0  0  0  0  0  0  0  0  0  0  0  0
   23.6632   -9.9541  -18.5679 C   0  0  0  0  0  0  0  0  0  0  0  0
   23.2658  -10.7665  -17.7031 O   0  0  0  0  0  0  0  0  0  0  0  0
   23.7795   -8.5740  -18.2570 N   0  0  0  0  0  0  0  0  0  0  0  0
   23.4330   -8.0340  -16.9752 C   0  0  1  0  0  0  0  0  0  0  0  0
   24.6806   -7.4061  -16.3887 C   0  0  0  0  0  0  0  0  0  0  0  0
   25.6817   -8.4428  -16.0523 C   0  0  0  0  0  0  0  0  0  0  0  0
   25.5103   -9.3043  -14.9698 C   0  0  0  0  0  0  0  0  0  0  0  0
   26.4420  -10.2689  -14.6569 C   0  0  0  0  0  0  0  0  0  0  0  0
   27.5734  -10.3871  -15.4326 C   0  0  0  0  0  0  0  0  0  0  0  0
   27.7640   -9.5451  -16.5091 C   0  0  0  0  0  0  0  0  0  0  0  0
   26.8329   -8.5843  -16.8182 C   0  0  0  0  0  0  0  0  0  0  0  0
   22.3457   -7.0556  -17.1346 C   0  0  0  0  0  0  0  0  0  0  0  0
   22.3401   -6.2446  -18.0964 O   0  0  0  0  0  0  0  0  0  0  0  0
   18.4681   -7.7892  -16.3446 O   0  0  0  0  0  0  0  0  0  0  0  0
   18.9093   -6.6176  -15.7788 C   0  0  0  0  0  0  0  0  0  0  0  0
   20.1515   -6.0681  -16.4604 C   0  0  2  0  0  0  0  0  0  0  0  0
   21.2488   -6.9649  -16.2270 N   0  0  0  0  0  0  0  0  0  0  0  0
   20.4838   -4.7161  -16.0199 C   0  0  0  0  0  0  0  0  0  0  0  0
   21.4069   -4.5057  -15.2002 O   0  0  0  0  0  0  0  0  0  0  0  0
   19.7773   -3.6312  -16.5050 O   0  0  0  0  0  0  0  0  0  0  0  0
  2  1  1  0
  3  2  1  0
  3  4  1  1
  5  3  1  0
  5  6  2  0
  7  5  1  0
  8  7  1  0
  9 10  1  0
  8  9  1  6
 10 15  2  0
 11 10  1  0
 11 12  2  0
 12 13  1  0
 13 14  2  0
 15 14  1  0
 16 21  1  0
 16  8  1  0
 17 16  2  0
 18 19  1  0
 20 19  1  1
 20 21  1  0
 20 22  1  0
 22 23  2  0
 22 24  1  0
M  END
$$$$
