SFS.pdb
     RDKit          3D

 24 24  0  0  1  0  0  0  0  0999 V2000
   27.2005  -21.0290  -14.5418 O   0  0  0  0  0  0  0  0  0  0  0  0
   26.6199  -21.7183  -13.4845 C   0  0  0  0  0  0  0  0  0  0  0  0
   25.9038  -20.7747  -12.5433 C   0  0  2  0  0  0  0  0  0  0  0  0
   26.2930  -19.4085  -12.7430 N   0  0  0  0  0  0  0  0  0  0  0  0
   26.0849  -21.1428  -11.1374 C   0  0  0  0  0  0  0  0  0  0  0  0
   25.9004  -22.3214  -10.7598 O   0  0  0  0  0  0  0  0  0  0  0  0
   26.4730  -20.1432  -10.2072 N   0  0  0  0  0  0  0  0  0  0  0  0
   26.6836  -20.4158   -8.8158 C   0  0  1  0  0  0  0  0  0  0  0  0
   27.3732  -19.2103   -8.2108 C   0  0  0  0  0  0  0  0  0  0  0  0
   27.7954  -19.4900   -6.8202 C   0  0  0  0  0  0  0  0  0  0  0  0
   27.3198  -18.7416   -5.7445 C   0  0  0  0  0  0  0  0  0  0  0  0
   27.7129  -19.0020   -4.4506 C   0  0  0  0  0  0  0  0  0  0  0  0
   28.5991  -20.0283   -4.2112 C   0  0  0  0  0  0  0  0  0  0  0  0
   29.0829  -20.7823   -5.2607 C   0  0  0  0  0  0  0  0  0  0  0  0
   28.6888  -20.5199   -6.5497 C   0  0  0  0  0  0  0  0  0  0  0  0
   25.3906  -20.6930   -8.1708 C   0  0  0  0  0  0  0  0  0  0  0  0
   24.3668  -20.0200   -8.4564 O   0  0  0  0  0  0  0  0  0  0  0  0
   22.6422  -23.8218   -5.7188 O   0  0  0  0  0  0  0  0  0  0  0  0
   23.8673  -23.4625   -6.2259 C   0  0  0  0  0  0  0  0  0  0  0  0
   23.9353  -21.9937   -6.6104 C   0  0  2  0  0  0  0  0  0  0  0  0
   25.2172  -21.7228   -7.1988 N   0  0  0  0  0  0  0  0  0  0  0  0
   23.6849  -21.1038   -5.4801 C   0  0  0  0  0  0  0  0  0  0  0  0
   24.6197  -20.4991   -4.9066 O   0  0  0  0  0  0  0  0  0  0  0  0
   22.3967  -20.9102   -5.0169 O   0  0  0  0  0  0  0  0  0  0  0  0
  2  1  1  0
  3  2  1  0
  3  4  1  1
  5  3  1  0
  5  6  2  0
  7  5  1  0
  8  7  1  0
  9 10  1  0
  8  9  1  1
 10 15  2  0
 11 10  1  0
 11 12  2  0
 12 13  1  0
 13 14  2  0
 15 14  1  0
 16 21  1  0
 16  8  1  0
 17 16  2  0
 18 19  1  0
 20 19  1  1
 20 21  1  0
 20 22  1  0
 22 23  2  0
 22 24  1  0
M  END
$$$$
