SFS.pdb
     RDKit          3D

 24 24  0  0  1  0  0  0  0  0999 V2000
   15.6195  -11.6053  -11.3577 O   0  0  0  0  0  0  0  0  0  0  0  0
   15.9813  -10.4289  -12.0020 C   0  0  0  0  0  0  0  0  0  0  0  0
   16.5000   -9.4031  -11.0182 C   0  0  2  0  0  0  0  0  0  0  0  0
   15.4809   -8.9525  -10.1148 N   0  0  0  0  0  0  0  0  0  0  0  0
   17.1190   -8.2540  -11.6824 C   0  0  0  0  0  0  0  0  0  0  0  0
   16.4291   -7.2649  -12.0164 O   0  0  0  0  0  0  0  0  0  0  0  0
   18.5142   -8.2771  -11.9428 N   0  0  0  0  0  0  0  0  0  0  0  0
   19.1813   -7.2570  -12.6973 C   0  0  1  0  0  0  0  0  0  0  0  0
   20.5975   -7.1482  -12.1707 C   0  0  0  0  0  0  0  0  0  0  0  0
   21.3630   -6.1336  -12.9288 C   0  0  0  0  0  0  0  0  0  0  0  0
   21.0644   -4.7746  -12.8438 C   0  0  0  0  0  0  0  0  0  0  0  0
   21.7769   -3.8307  -13.5494 C   0  0  0  0  0  0  0  0  0  0  0  0
   22.8119   -4.2382  -14.3608 C   0  0  0  0  0  0  0  0  0  0  0  0
   23.1253   -5.5784  -14.4604 C   0  0  0  0  0  0  0  0  0  0  0  0
   22.4127   -6.5169  -13.7554 C   0  0  0  0  0  0  0  0  0  0  0  0
   19.1494   -7.6061  -14.1262 C   0  0  0  0  0  0  0  0  0  0  0  0
   19.4956   -8.7491  -14.5216 O   0  0  0  0  0  0  0  0  0  0  0  0
   20.2899   -7.9056  -18.1881 O   0  0  0  0  0  0  0  0  0  0  0  0
   20.1864   -7.4597  -16.8929 C   0  0  0  0  0  0  0  0  0  0  0  0
   18.7732   -7.0349  -16.5296 C   0  0  2  0  0  0  0  0  0  0  0  0
   18.7319   -6.6892  -15.1363 N   0  0  0  0  0  0  0  0  0  0  0  0
   17.7802   -8.0598  -16.8394 C   0  0  0  0  0  0  0  0  0  0  0  0
   17.6584   -9.0851  -16.1307 O   0  0  0  0  0  0  0  0  0  0  0  0
   16.9469   -7.9156  -17.9332 O   0  0  0  0  0  0  0  0  0  0  0  0
  2  1  1  0
  3  2  1  0
  3  4  1  6
  5  3  1  0
  5  6  2  0
  7  5  1  0
  8  7  1  0
  9 10  1  0
  8  9  1  1
 10 15  2  0
 11 10  1  0
 11 12  2  0
 12 13  1  0
 13 14  2  0
 15 14  1  0
 16 21  1  0
 16  8  1  0
 17 16  2  0
 18 19  1  0
 20 19  1  1
 20 21  1  0
 20 22  1  0
 22 23  2  0
 22 24  1  0
M  END
$$$$
