SFS.pdb
     RDKit          3D

 24 24  0  0  1  0  0  0  0  0999 V2000
   26.1036  -21.4124  -18.7418 O   0  0  0  0  0  0  0  0  0  0  0  0
   27.1800  -20.6554  -18.2964 C   0  0  0  0  0  0  0  0  0  0  0  0
   28.0347  -21.4384  -17.3239 C   0  0  2  0  0  0  0  0  0  0  0  0
   28.6278  -22.5950  -17.9307 N   0  0  0  0  0  0  0  0  0  0  0  0
   27.2969  -21.8311  -16.1213 C   0  0  0  0  0  0  0  0  0  0  0  0
   27.0906  -23.0389  -15.8678 O   0  0  0  0  0  0  0  0  0  0  0  0
   26.8181  -20.8216  -15.2456 N   0  0  0  0  0  0  0  0  0  0  0  0
   26.0824  -21.1141  -14.0506 C   0  0  1  0  0  0  0  0  0  0  0  0
   26.3982  -20.0306  -13.0401 C   0  0  0  0  0  0  0  0  0  0  0  0
   25.7542  -20.3216  -11.7398 C   0  0  0  0  0  0  0  0  0  0  0  0
   24.4721  -19.8650  -11.4376 C   0  0  0  0  0  0  0  0  0  0  0  0
   23.8731  -20.1358  -10.2276 C   0  0  0  0  0  0  0  0  0  0  0  0
   24.5569  -20.8771   -9.2902 C   0  0  0  0  0  0  0  0  0  0  0  0
   25.8271  -21.3395   -9.5676 C   0  0  0  0  0  0  0  0  0  0  0  0
   26.4215  -21.0676  -10.7753 C   0  0  0  0  0  0  0  0  0  0  0  0
   24.6460  -21.1749  -14.3634 C   0  0  0  0  0  0  0  0  0  0  0  0
   24.0967  -20.2834  -15.0608 O   0  0  0  0  0  0  0  0  0  0  0  0
   20.4748  -23.6902  -14.0939 O   0  0  0  0  0  0  0  0  0  0  0  0
   21.8369  -23.6217  -13.9291 C   0  0  0  0  0  0  0  0  0  0  0  0
   22.3871  -22.2249  -14.1657 C   0  0  2  0  0  0  0  0  0  0  0  0
   23.7995  -22.2279  -13.9054 N   0  0  0  0  0  0  0  0  0  0  0  0
   21.7133  -21.2105  -13.3599 C   0  0  0  0  0  0  0  0  0  0  0  0
   22.1437  -20.8832  -12.2303 O   0  0  0  0  0  0  0  0  0  0  0  0
   20.5749  -20.5857  -13.8345 O   0  0  0  0  0  0  0  0  0  0  0  0
  2  1  1  0
  3  2  1  0
  3  4  1  6
  5  3  1  0
  5  6  2  0
  7  5  1  0
  8  7  1  0
  9 10  1  0
  8  9  1  1
 10 15  2  0
 11 10  1  0
 11 12  2  0
 12 13  1  0
 13 14  2  0
 15 14  1  0
 16 21  1  0
 16  8  1  0
 17 16  2  0
 18 19  1  0
 20 19  1  1
 20 21  1  0
 20 22  1  0
 22 23  2  0
 22 24  1  0
M  END
$$$$
