RMI.pdb
     RDKit          3D

 28 27  0  0  1  0  0  0  0  0999 V2000
   19.2302  -24.0298  -13.0670 N   0  0  0  0  0  0  0  0  0  0  0  0
   18.4135  -24.5170  -11.9823 C   0  0  0  0  0  0  0  0  0  0  0  0
   17.7467  -25.6022  -12.1326 N   0  0  0  0  0  0  0  0  0  0  0  0
   18.3305  -23.8257  -10.7557 N   0  0  0  0  0  0  0  0  0  0  0  0
   19.0720  -22.6001  -10.4632 C   0  0  0  0  0  0  0  0  0  0  0  0
   20.5392  -22.8914  -10.5520 C   0  0  0  0  0  0  0  0  0  0  0  0
   21.3199  -21.7878   -9.8938 C   0  0  0  0  0  0  0  0  0  0  0  0
   21.9063  -22.1808   -8.5716 C   0  0  2  0  0  0  0  0  0  0  0  0
   20.8612  -22.2000   -7.5677 N   0  0  0  0  0  0  0  0  0  0  0  0
   22.9529  -21.2069   -8.1247 C   0  0  0  0  0  0  0  0  0  0  0  0
   22.6217  -20.1048   -7.6118 O   0  0  0  0  0  0  0  0  0  0  0  0
   17.1568  -25.9737  -11.3744 C   0  0  0  0  0  0  0  0  0  0  0  0
   27.7240  -19.5505   -4.1177 S   0  0  0  0  0  0  0  0  0  0  0  0
   28.5182  -19.8770   -5.7232 C   0  0  0  0  0  0  0  0  0  0  0  0
   27.3756  -19.5650   -7.0898 C   0  0  0  0  0  0  0  0  0  0  0  0
   26.4665  -20.7319   -7.2720 C   0  0  2  0  0  0  0  0  0  0  0  0
   25.3015  -20.4009   -8.1756 N   0  0  0  0  0  0  0  0  0  0  0  0
   24.3324  -21.4570   -8.2471 C   0  0  0  0  0  0  0  0  0  0  0  0
   25.7771  -19.9635   -9.5087 O   0  0  0  0  0  0  0  0  0  0  0  0
   26.5780  -18.9948   -9.5636 C   0  0  0  0  0  0  0  0  0  0  0  0
   29.3068  -21.7731  -12.2896 C   0  0  0  0  0  0  0  0  0  0  0  0
   28.2384  -20.9104  -11.6581 C   0  0  2  0  0  0  0  0  0  0  0  0
   27.0187  -20.9496  -12.5142 C   0  0  0  0  0  0  0  0  0  0  0  0
   27.3953  -20.3811  -13.8794 C   0  0  2  0  0  0  0  0  0  0  0  0
   25.8964  -20.0856  -11.9839 N   0  0  0  0  0  0  0  0  0  0  0  0
   25.3812  -20.5747  -10.7279 C   0  0  0  0  0  0  0  0  0  0  0  0
   24.8101  -20.1542  -12.9898 O   0  0  0  0  0  0  0  0  0  0  0  0
   24.8218  -19.4226  -14.1690 O   0  0  0  0  0  0  0  0  0  0  0  0
  1  2  1  0
  2  3  2  0
  4  2  1  0
  5  6  1  0
  5  4  1  0
  7  6  1  0
  8  7  1  0
  8  9  1  1
 10  8  1  0
 10 11  2  0
 12 13  1  0
 13 14  1  0
 16 15  1  1
 15 14  1  0
 16 17  1  0
 17 10  1  0
 18 16  1  0
 19 18  2  0
 21 20  1  0
 22 21  1  0
 22 23  1  1
 24 22  1  0
 24 25  1  1
 25 18  1  0
 26 24  1  0
 27 26  1  0
 28 26  2  0
M  END
$$$$
