RMI.pdb
     RDKit          3D

 28 27  0  0  1  0  0  0  0  0999 V2000
   18.7816  -23.4032  -12.5692 N   0  0  0  0  0  0  0  0  0  0  0  0
   18.6921  -21.9740  -12.3945 C   0  0  0  0  0  0  0  0  0  0  0  0
   17.8371  -21.4915  -11.5692 N   0  0  0  0  0  0  0  0  0  0  0  0
   19.5258  -21.0914  -13.1122 N   0  0  0  0  0  0  0  0  0  0  0  0
   20.4485  -21.5200  -14.1622 C   0  0  0  0  0  0  0  0  0  0  0  0
   21.5821  -22.2698  -13.5312 C   0  0  0  0  0  0  0  0  0  0  0  0
   22.8895  -21.6263  -13.9019 C   0  0  0  0  0  0  0  0  0  0  0  0
   23.3775  -20.6410  -12.8834 C   0  0  2  0  0  0  0  0  0  0  0  0
   23.7769  -19.4173  -13.5496 N   0  0  0  0  0  0  0  0  0  0  0  0
   24.5663  -21.1658  -12.1384 C   0  0  0  0  0  0  0  0  0  0  0  0
   25.2471  -22.1151  -12.6102 O   0  0  0  0  0  0  0  0  0  0  0  0
   17.7711  -20.4771  -11.4039 C   0  0  0  0  0  0  0  0  0  0  0  0
   30.3438  -20.7262  -11.9685 S   0  0  0  0  0  0  0  0  0  0  0  0
   29.0116  -20.9356  -13.1917 C   0  0  0  0  0  0  0  0  0  0  0  0
   27.4350  -21.2942  -12.3819 C   0  0  0  0  0  0  0  0  0  0  0  0
   27.4355  -20.7439  -10.9967 C   0  0  2  0  0  0  0  0  0  0  0  0
   26.1750  -21.1078  -10.2471 N   0  0  0  0  0  0  0  0  0  0  0  0
   24.9837  -20.6444  -10.8997 C   0  0  0  0  0  0  0  0  0  0  0  0
   26.2615  -20.6784   -8.8319 O   0  0  0  0  0  0  0  0  0  0  0  0
   25.4200  -19.8415   -8.4142 C   0  0  0  0  0  0  0  0  0  0  0  0
   29.7098  -21.3091   -3.6986 C   0  0  0  0  0  0  0  0  0  0  0  0
   28.5246  -20.6815   -4.3957 C   0  0  2  0  0  0  0  0  0  0  0  0
   28.4422  -21.2179   -5.7840 C   0  0  0  0  0  0  0  0  0  0  0  0
   29.7227  -20.8159   -6.5103 C   0  0  2  0  0  0  0  0  0  0  0  0
   27.2961  -20.6312   -6.5773 N   0  0  0  0  0  0  0  0  0  0  0  0
   27.2394  -21.1568   -7.9200 C   0  0  0  0  0  0  0  0  0  0  0  0
   27.5526  -19.1738   -6.6596 O   0  0  0  0  0  0  0  0  0  0  0  0
   28.0110  -18.5487   -7.8107 O   0  0  0  0  0  0  0  0  0  0  0  0
  1  2  1  0
  2  3  2  0
  4  2  1  0
  5  6  1  0
  5  4  1  0
  7  6  1  0
  8  7  1  0
  8  9  1  6
 10  8  1  0
 10 11  2  0
 12 13  1  0
 13 14  1  0
 16 15  1  6
 15 14  1  0
 16 17  1  0
 17 10  1  0
 18 16  1  0
 19 18  2  0
 21 20  1  0
 22 21  1  0
 22 23  1  6
 24 22  1  0
 24 25  1  6
 25 18  1  0
 26 24  1  0
 27 26  1  0
 28 26  2  0
M  END
$$$$
