RMI.pdb
     RDKit          3D

 28 27  0  0  1  0  0  0  0  0999 V2000
   29.3530  -27.3936  -15.9738 N   0  0  0  0  0  0  0  0  0  0  0  0
   29.3284  -28.2310  -17.1482 C   0  0  0  0  0  0  0  0  0  0  0  0
   29.4107  -29.5042  -17.0172 N   0  0  0  0  0  0  0  0  0  0  0  0
   29.2154  -27.6808  -18.4419 N   0  0  0  0  0  0  0  0  0  0  0  0
   29.1267  -26.2460  -18.7087 C   0  0  0  0  0  0  0  0  0  0  0  0
   27.6884  -25.8312  -18.6416 C   0  0  0  0  0  0  0  0  0  0  0  0
   27.4345  -25.0718  -17.3688 C   0  0  0  0  0  0  0  0  0  0  0  0
   26.4933  -23.9184  -17.5420 C   0  0  2  0  0  0  0  0  0  0  0  0
   26.9108  -23.1224  -18.6790 N   0  0  0  0  0  0  0  0  0  0  0  0
   26.4888  -23.0287  -16.3370 C   0  0  0  0  0  0  0  0  0  0  0  0
   26.6632  -23.5115  -15.1865 O   0  0  0  0  0  0  0  0  0  0  0  0
   29.4359  -30.1232  -17.8400 C   0  0  0  0  0  0  0  0  0  0  0  0
   26.6638  -16.2607  -15.5781 S   0  0  0  0  0  0  0  0  0  0  0  0
   27.6676  -17.2206  -16.7555 C   0  0  0  0  0  0  0  0  0  0  0  0
   27.6721  -18.9771  -16.3259 C   0  0  0  0  0  0  0  0  0  0  0  0
   26.4229  -19.3267  -15.5918 C   0  0  2  0  0  0  0  0  0  0  0  0
   26.3637  -20.7979  -15.2523 N   0  0  0  0  0  0  0  0  0  0  0  0
   26.2950  -21.6369  -16.4147 C   0  0  0  0  0  0  0  0  0  0  0  0
   25.2801  -21.0705  -14.2796 O   0  0  0  0  0  0  0  0  0  0  0  0
   24.1552  -21.4137  -14.7265 C   0  0  0  0  0  0  0  0  0  0  0  0
   25.6942  -20.1452   -8.5965 C   0  0  0  0  0  0  0  0  0  0  0  0
   25.2948  -19.9693  -10.0436 C   0  0  2  0  0  0  0  0  0  0  0  0
   24.7207  -21.2506  -10.5446 C   0  0  0  0  0  0  0  0  0  0  0  0
   25.8119  -22.3131  -10.4489 C   0  0  1  0  0  0  0  0  0  0  0  0
   24.3105  -21.1860  -11.9987 N   0  0  0  0  0  0  0  0  0  0  0  0
   25.4380  -20.9666  -12.8721 C   0  0  0  0  0  0  0  0  0  0  0  0
   23.3964  -20.0257  -12.1201 O   0  0  0  0  0  0  0  0  0  0  0  0
   22.1107  -20.0158  -11.5977 O   0  0  0  0  0  0  0  0  0  0  0  0
  1  2  1  0
  2  3  2  0
  4  2  1  0
  5  6  1  0
  5  4  1  0
  7  6  1  0
  8  7  1  0
  8  9  1  6
 10  8  1  0
 10 11  2  0
 12 13  1  0
 13 14  1  0
 16 15  1  6
 15 14  1  0
 16 17  1  0
 17 10  1  0
 18 16  1  0
 19 18  2  0
 21 20  1  0
 22 21  1  0
 22 23  1  1
 24 22  1  0
 24 25  1  6
 25 18  1  0
 26 24  1  0
 27 26  1  0
 28 26  2  0
M  END
$$$$
