RMI.pdb
     RDKit          3D

 28 27  0  0  1  0  0  0  0  0999 V2000
   23.3838  -17.1941  -17.3822 N   0  0  0  0  0  0  0  0  0  0  0  0
   22.1531  -17.8590  -17.0296 C   0  0  0  0  0  0  0  0  0  0  0  0
   21.2147  -17.9519  -17.8989 N   0  0  0  0  0  0  0  0  0  0  0  0
   21.9566  -18.4116  -15.7470 N   0  0  0  0  0  0  0  0  0  0  0  0
   22.9699  -18.3972  -14.6932 C   0  0  0  0  0  0  0  0  0  0  0  0
   23.7385  -19.6824  -14.7457 C   0  0  0  0  0  0  0  0  0  0  0  0
   23.8176  -20.2869  -13.3712 C   0  0  0  0  0  0  0  0  0  0  0  0
   25.2151  -20.3653  -12.8355 C   0  0  2  0  0  0  0  0  0  0  0  0
   25.9963  -21.2678  -13.6575 N   0  0  0  0  0  0  0  0  0  0  0  0
   25.2359  -20.8898  -11.4325 C   0  0  0  0  0  0  0  0  0  0  0  0
   24.9182  -22.0852  -11.1933 O   0  0  0  0  0  0  0  0  0  0  0  0
   20.3125  -18.3895  -17.6633 C   0  0  0  0  0  0  0  0  0  0  0  0
   28.4864  -18.5369   -6.3942 S   0  0  0  0  0  0  0  0  0  0  0  0
   27.2807  -19.5461   -5.4761 C   0  0  0  0  0  0  0  0  0  0  0  0
   26.1118  -20.3461   -6.6002 C   0  0  0  0  0  0  0  0  0  0  0  0
   26.3313  -19.8639   -7.9934 C   0  0  1  0  0  0  0  0  0  0  0  0
   25.4182  -20.5567   -8.9781 N   0  0  0  0  0  0  0  0  0  0  0  0
   25.6019  -20.1004  -10.3264 C   0  0  0  0  0  0  0  0  0  0  0  0
   24.0079  -20.4814   -8.5310 O   0  0  0  0  0  0  0  0  0  0  0  0
   23.4058  -19.3833   -8.6515 C   0  0  0  0  0  0  0  0  0  0  0  0
   19.8593  -22.2428  -10.5814 C   0  0  0  0  0  0  0  0  0  0  0  0
   20.8205  -21.4385   -9.7365 C   0  0  2  0  0  0  0  0  0  0  0  0
   20.9328  -22.0768   -8.3941 C   0  0  0  0  0  0  0  0  0  0  0  0
   19.5800  -21.9358   -7.7021 C   0  0  2  0  0  0  0  0  0  0  0  0
   21.9457  -21.3978   -7.4996 N   0  0  0  0  0  0  0  0  0  0  0  0
   23.2965  -21.5773   -7.9743 C   0  0  0  0  0  0  0  0  0  0  0  0
   21.8292  -22.0487   -6.1733 O   0  0  0  0  0  0  0  0  0  0  0  0
   20.8944  -21.6670   -5.2212 O   0  0  0  0  0  0  0  0  0  0  0  0
  1  2  1  0
  2  3  2  0
  4  2  1  0
  5  6  1  0
  5  4  1  0
  7  6  1  0
  8  7  1  0
  8  9  1  6
 10  8  1  0
 10 11  2  0
 12 13  1  0
 13 14  1  0
 16 15  1  6
 15 14  1  0
 16 17  1  0
 17 10  1  0
 18 16  1  0
 19 18  2  0
 21 20  1  0
 22 21  1  0
 22 23  1  1
 24 22  1  0
 24 25  1  1
 25 18  1  0
 26 24  1  0
 27 26  1  0
 28 26  2  0
M  END
$$$$
