RMI.pdb
     RDKit          3D

 28 27  0  0  1  0  0  0  0  0999 V2000
   19.5486  -27.2192  -14.8131 N   0  0  0  0  0  0  0  0  0  0  0  0
   20.0347  -26.0027  -15.4171 C   0  0  0  0  0  0  0  0  0  0  0  0
   19.1961  -25.1413  -15.8640 N   0  0  0  0  0  0  0  0  0  0  0  0
   21.4153  -25.7370  -15.5284 N   0  0  0  0  0  0  0  0  0  0  0  0
   22.4494  -26.5208  -14.8548 C   0  0  0  0  0  0  0  0  0  0  0  0
   23.7900  -25.9454  -15.1968 C   0  0  0  0  0  0  0  0  0  0  0  0
   23.9854  -25.9565  -16.6877 C   0  0  0  0  0  0  0  0  0  0  0  0
   25.3419  -25.4820  -17.1133 C   0  0  2  0  0  0  0  0  0  0  0  0
   26.2907  -26.5719  -17.0012 N   0  0  0  0  0  0  0  0  0  0  0  0
   25.8276  -24.3610  -16.2466 C   0  0  0  0  0  0  0  0  0  0  0  0
   26.7474  -24.5551  -15.4080 O   0  0  0  0  0  0  0  0  0  0  0  0
   19.5153  -24.2676  -16.3060 C   0  0  0  0  0  0  0  0  0  0  0  0
   27.3349  -16.7005  -15.5728 S   0  0  0  0  0  0  0  0  0  0  0  0
   26.7247  -18.1035  -16.5601 C   0  0  0  0  0  0  0  0  0  0  0  0
   26.5637  -19.5918  -15.5456 C   0  0  0  0  0  0  0  0  0  0  0  0
   25.9409  -20.6874  -16.3414 C   0  0  2  0  0  0  0  0  0  0  0  0
   25.8588  -21.9756  -15.5558 N   0  0  0  0  0  0  0  0  0  0  0  0
   25.3001  -23.0580  -16.3148 C   0  0  0  0  0  0  0  0  0  0  0  0
   25.1676  -21.7608  -14.2632 O   0  0  0  0  0  0  0  0  0  0  0  0
   23.9114  -21.8292  -14.2445 C   0  0  0  0  0  0  0  0  0  0  0  0
   26.1968  -20.4610   -8.2744 C   0  0  0  0  0  0  0  0  0  0  0  0
   25.2279  -20.8518   -9.3667 C   0  0  2  0  0  0  0  0  0  0  0  0
   25.9857  -21.0513  -10.6348 C   0  0  0  0  0  0  0  0  0  0  0  0
   26.7497  -19.7621  -10.9229 C   0  0  2  0  0  0  0  0  0  0  0  0
   25.0884  -21.2946  -11.8276 N   0  0  0  0  0  0  0  0  0  0  0  0
   25.8411  -21.4821  -13.0444 C   0  0  0  0  0  0  0  0  0  0  0  0
   24.2593  -20.0753  -11.9777 O   0  0  0  0  0  0  0  0  0  0  0  0
   24.5186  -19.0942  -12.9244 O   0  0  0  0  0  0  0  0  0  0  0  0
  1  2  1  0
  2  3  2  0
  4  2  1  0
  5  6  1  0
  5  4  1  0
  7  6  1  0
  8  7  1  0
  8  9  1  1
 10  8  1  0
 10 11  2  0
 12 13  1  0
 13 14  1  0
 16 15  1  6
 15 14  1  0
 16 17  1  0
 17 10  1  0
 18 16  1  0
 19 18  2  0
 21 20  1  0
 22 21  1  0
 22 23  1  6
 24 22  1  0
 24 25  1  6
 25 18  1  0
 26 24  1  0
 27 26  1  0
 28 26  2  0
M  END
$$$$
