RMI.pdb
     RDKit          3D

 28 27  0  0  1  0  0  0  0  0999 V2000
   30.0429  -21.3681  -17.3610 N   0  0  0  0  0  0  0  0  0  0  0  0
   30.2698  -20.2482  -18.2416 C   0  0  0  0  0  0  0  0  0  0  0  0
   30.9891  -20.4067  -19.2915 N   0  0  0  0  0  0  0  0  0  0  0  0
   29.7173  -18.9784  -17.9744 N   0  0  0  0  0  0  0  0  0  0  0  0
   28.7219  -18.7293  -16.9328 C   0  0  0  0  0  0  0  0  0  0  0  0
   27.5138  -19.5715  -17.2092 C   0  0  0  0  0  0  0  0  0  0  0  0
   26.7649  -19.8259  -15.9304 C   0  0  0  0  0  0  0  0  0  0  0  0
   27.2053  -21.0702  -15.2206 C   0  0  2  0  0  0  0  0  0  0  0  0
   27.2714  -22.1665  -16.1663 N   0  0  0  0  0  0  0  0  0  0  0  0
   26.2421  -21.4551  -14.1399 C   0  0  0  0  0  0  0  0  0  0  0  0
   25.3453  -22.3122  -14.3598 O   0  0  0  0  0  0  0  0  0  0  0  0
   31.2378  -19.6075  -19.8917 C   0  0  0  0  0  0  0  0  0  0  0  0
   26.6457  -19.5754   -7.8807 S   0  0  0  0  0  0  0  0  0  0  0  0
   25.2716  -20.7663   -7.7864 C   0  0  0  0  0  0  0  0  0  0  0  0
   24.7149  -21.2496   -9.4377 C   0  0  0  0  0  0  0  0  0  0  0  0
   25.7324  -20.8590  -10.4544 C   0  0  2  0  0  0  0  0  0  0  0  0
   25.2979  -21.2268  -11.8542 N   0  0  0  0  0  0  0  0  0  0  0  0
   26.2795  -20.8978  -12.8482 C   0  0  0  0  0  0  0  0  0  0  0  0
   23.9611  -20.6638  -12.1554 O   0  0  0  0  0  0  0  0  0  0  0  0
   23.8876  -19.4481  -12.4712 C   0  0  0  0  0  0  0  0  0  0  0  0
   21.1533  -21.8619  -16.1561 C   0  0  0  0  0  0  0  0  0  0  0  0
   21.7719  -21.1592  -14.9694 C   0  0  2  0  0  0  0  0  0  0  0  0
   20.9461  -21.4375  -13.7600 C   0  0  0  0  0  0  0  0  0  0  0  0
   19.5753  -20.8048  -13.9822 C   0  0  2  0  0  0  0  0  0  0  0  0
   21.5090  -20.8123  -12.5032 N   0  0  0  0  0  0  0  0  0  0  0  0
   22.7582  -21.4171  -12.1081 C   0  0  0  0  0  0  0  0  0  0  0  0
   20.5133  -21.0625  -11.4343 O   0  0  0  0  0  0  0  0  0  0  0  0
   19.5114  -20.1602  -11.1056 O   0  0  0  0  0  0  0  0  0  0  0  0
  1  2  1  0
  2  3  2  0
  4  2  1  0
  5  6  1  0
  5  4  1  0
  7  6  1  0
  8  7  1  0
  8  9  1  6
 10  8  1  0
 10 11  2  0
 12 13  1  0
 13 14  1  0
 16 15  1  1
 15 14  1  0
 16 17  1  0
 17 10  1  0
 18 16  1  0
 19 18  2  0
 21 20  1  0
 22 21  1  0
 22 23  1  1
 24 22  1  0
 24 25  1  1
 25 18  1  0
 26 24  1  0
 27 26  1  0
 28 26  2  0
M  END
$$$$
