RMI.pdb
     RDKit          3D

 28 27  0  0  1  0  0  0  0  0999 V2000
   26.7943  -18.0810  -17.8085 N   0  0  0  0  0  0  0  0  0  0  0  0
   25.5420  -18.0138  -17.0957 C   0  0  0  0  0  0  0  0  0  0  0  0
   24.4589  -18.3604  -17.6889 N   0  0  0  0  0  0  0  0  0  0  0  0
   25.4799  -17.5745  -15.7569 N   0  0  0  0  0  0  0  0  0  0  0  0
   26.6447  -17.1274  -14.9947 C   0  0  0  0  0  0  0  0  0  0  0  0
   27.4342  -18.3287  -14.5719 C   0  0  0  0  0  0  0  0  0  0  0  0
   26.7487  -19.0115  -13.4209 C   0  0  0  0  0  0  0  0  0  0  0  0
   27.4515  -20.2529  -12.9615 C   0  0  2  0  0  0  0  0  0  0  0  0
   27.3015  -21.2900  -13.9629 N   0  0  0  0  0  0  0  0  0  0  0  0
   26.8735  -20.7676  -11.6790 C   0  0  0  0  0  0  0  0  0  0  0  0
   25.8669  -21.5250  -11.6913 O   0  0  0  0  0  0  0  0  0  0  0  0
   23.5710  -18.4379  -17.1729 C   0  0  0  0  0  0  0  0  0  0  0  0
   29.3523  -19.9055   -5.5448 S   0  0  0  0  0  0  0  0  0  0  0  0
   27.5498  -19.8753   -5.2890 C   0  0  0  0  0  0  0  0  0  0  0  0
   26.6779  -20.5500   -6.7224 C   0  0  0  0  0  0  0  0  0  0  0  0
   27.3793  -20.1585   -7.9778 C   0  0  2  0  0  0  0  0  0  0  0  0
   26.6839  -20.7039   -9.2035 N   0  0  0  0  0  0  0  0  0  0  0  0
   27.4057  -20.4451  -10.4167 C   0  0  0  0  0  0  0  0  0  0  0  0
   25.2773  -20.2425   -9.2598 O   0  0  0  0  0  0  0  0  0  0  0  0
   25.0630  -19.0096   -9.3905 C   0  0  0  0  0  0  0  0  0  0  0  0
   20.4753  -20.1312  -12.2453 C   0  0  0  0  0  0  0  0  0  0  0  0
   20.8694  -20.1724  -10.7867 C   0  0  2  0  0  0  0  0  0  0  0  0
   22.2840  -20.6311  -10.6822 C   0  0  0  0  0  0  0  0  0  0  0  0
   22.3262  -22.0958  -11.1084 C   0  0  2  0  0  0  0  0  0  0  0  0
   22.8192  -20.5794   -9.2688 N   0  0  0  0  0  0  0  0  0  0  0  0
   24.1572  -21.1114   -9.1747 C   0  0  0  0  0  0  0  0  0  0  0  0
   21.9218  -21.4328   -8.4545 O   0  0  0  0  0  0  0  0  0  0  0  0
   22.3620  -22.5533   -7.7642 O   0  0  0  0  0  0  0  0  0  0  0  0
  1  2  1  0
  2  3  2  0
  4  2  1  0
  5  6  1  0
  5  4  1  0
  7  6  1  0
  8  7  1  0
  8  9  1  6
 10  8  1  0
 10 11  2  0
 12 13  1  0
 13 14  1  0
 16 15  1  1
 15 14  1  0
 16 17  1  0
 17 10  1  0
 18 16  1  0
 19 18  2  0
 21 20  1  0
 22 21  1  0
 22 23  1  6
 24 22  1  0
 24 25  1  1
 25 18  1  0
 26 24  1  0
 27 26  1  0
 28 26  2  0
M  END
$$$$
