RMI.pdb
     RDKit          3D

 28 27  0  0  1  0  0  0  0  0999 V2000
   23.2769  -25.5356  -14.7141 N   0  0  0  0  0  0  0  0  0  0  0  0
   22.0095  -26.2126  -14.8419 C   0  0  0  0  0  0  0  0  0  0  0  0
   21.8410  -27.3494  -14.2724 N   0  0  0  0  0  0  0  0  0  0  0  0
   20.9470  -25.6520  -15.5809 N   0  0  0  0  0  0  0  0  0  0  0  0
   20.8309  -24.2258  -15.8809 C   0  0  0  0  0  0  0  0  0  0  0  0
   20.5253  -23.4896  -14.6121 C   0  0  0  0  0  0  0  0  0  0  0  0
   21.5198  -22.3795  -14.4133 C   0  0  0  0  0  0  0  0  0  0  0  0
   21.3322  -21.6362  -13.1254 C   0  0  2  0  0  0  0  0  0  0  0  0
   20.2665  -20.6661  -13.2800 N   0  0  0  0  0  0  0  0  0  0  0  0
   22.5735  -20.8946  -12.7344 C   0  0  0  0  0  0  0  0  0  0  0  0
   22.8104  -19.7519  -13.2090 O   0  0  0  0  0  0  0  0  0  0  0  0
   20.9653  -27.8786  -14.3894 C   0  0  0  0  0  0  0  0  0  0  0  0
   25.5610  -20.1953   -7.7235 S   0  0  0  0  0  0  0  0  0  0  0  0
   27.0986  -20.0239   -8.6836 C   0  0  0  0  0  0  0  0  0  0  0  0
   26.9139  -20.7277  -10.3390 C   0  0  0  0  0  0  0  0  0  0  0  0
   25.5701  -21.3571  -10.4795 C   0  0  1  0  0  0  0  0  0  0  0  0
   24.8156  -20.8111  -11.6695 N   0  0  0  0  0  0  0  0  0  0  0  0
   23.5246  -21.4152  -11.8373 C   0  0  0  0  0  0  0  0  0  0  0  0
   25.6462  -20.8760  -12.8944 O   0  0  0  0  0  0  0  0  0  0  0  0
   25.6673  -21.9560  -13.5394 C   0  0  0  0  0  0  0  0  0  0  0  0
   27.3691  -16.1864  -15.6111 C   0  0  0  0  0  0  0  0  0  0  0  0
   26.6520  -17.4936  -15.3630 C   0  0  2  0  0  0  0  0  0  0  0  0
   27.6638  -18.5558  -15.0978 C   0  0  0  0  0  0  0  0  0  0  0  0
   28.4063  -18.8216  -16.4043 C   0  0  2  0  0  0  0  0  0  0  0  0
   27.0446  -19.8709  -14.6805 N   0  0  0  0  0  0  0  0  0  0  0  0
   26.4198  -19.7896  -13.3823 C   0  0  0  0  0  0  0  0  0  0  0  0
   28.1580  -20.8458  -14.5998 O   0  0  0  0  0  0  0  0  0  0  0  0
   28.5445  -21.6448  -15.6666 O   0  0  0  0  0  0  0  0  0  0  0  0
  1  2  1  0
  2  3  2  0
  4  2  1  0
  5  6  1  0
  5  4  1  0
  7  6  1  0
  8  7  1  0
  8  9  1  6
 10  8  1  0
 10 11  2  0
 12 13  1  0
 13 14  1  0
 16 15  1  1
 15 14  1  0
 16 17  1  0
 17 10  1  0
 18 16  1  0
 19 18  2  0
 21 20  1  0
 22 21  1  0
 22 23  1  1
 24 22  1  0
 24 25  1  6
 25 18  1  0
 26 24  1  0
 27 26  1  0
 28 26  2  0
M  END
$$$$
