RMI.pdb
     RDKit          3D

 28 27  0  0  1  0  0  0  0  0999 V2000
   29.9718  -22.3316  -18.0038 N   0  0  0  0  0  0  0  0  0  0  0  0
   29.3742  -23.6442  -18.0332 C   0  0  0  0  0  0  0  0  0  0  0  0
   30.1038  -24.6639  -18.3033 N   0  0  0  0  0  0  0  0  0  0  0  0
   28.0014  -23.8338  -17.7709 N   0  0  0  0  0  0  0  0  0  0  0  0
   27.1441  -22.8186  -17.1609 C   0  0  0  0  0  0  0  0  0  0  0  0
   27.5421  -21.4727  -17.6858 C   0  0  0  0  0  0  0  0  0  0  0  0
   27.1533  -20.4049  -16.7011 C   0  0  0  0  0  0  0  0  0  0  0  0
   27.9137  -20.4794  -15.4118 C   0  0  2  0  0  0  0  0  0  0  0  0
   28.3006  -21.8531  -15.1593 N   0  0  0  0  0  0  0  0  0  0  0  0
   27.0797  -20.0187  -14.2559 C   0  0  0  0  0  0  0  0  0  0  0  0
   26.6816  -18.8251  -14.1919 O   0  0  0  0  0  0  0  0  0  0  0  0
   29.6985  -25.6092  -18.3560 C   0  0  0  0  0  0  0  0  0  0  0  0
   21.6033  -21.3445  -13.8415 S   0  0  0  0  0  0  0  0  0  0  0  0
   21.6633  -20.8839  -12.0810 C   0  0  0  0  0  0  0  0  0  0  0  0
   23.3253  -20.3552  -11.6030 C   0  0  0  0  0  0  0  0  0  0  0  0
   24.3106  -20.7646  -12.6437 C   0  0  1  0  0  0  0  0  0  0  0  0
   25.7307  -20.4694  -12.2199 N   0  0  0  0  0  0  0  0  0  0  0  0
   26.7003  -20.8682  -13.2000 C   0  0  0  0  0  0  0  0  0  0  0  0
   26.0059  -21.0283  -10.8759 O   0  0  0  0  0  0  0  0  0  0  0  0
   26.1886  -22.2691  -10.7762 C   0  0  0  0  0  0  0  0  0  0  0  0
   28.6492  -19.7713   -5.5587 C   0  0  0  0  0  0  0  0  0  0  0  0
   27.6727  -20.6620   -6.2920 C   0  0  2  0  0  0  0  0  0  0  0  0
   27.3419  -20.0373   -7.6044 C   0  0  0  0  0  0  0  0  0  0  0  0
   26.6365  -18.7142   -7.3203 C   0  0  2  0  0  0  0  0  0  0  0  0
   26.3833  -20.8668   -8.4289 N   0  0  0  0  0  0  0  0  0  0  0  0
   26.0754  -20.2442   -9.6938 C   0  0  0  0  0  0  0  0  0  0  0  0
   25.1319  -20.9597   -7.6403 O   0  0  0  0  0  0  0  0  0  0  0  0
   24.9897  -21.7932   -6.5398 O   0  0  0  0  0  0  0  0  0  0  0  0
  1  2  1  0
  2  3  2  0
  4  2  1  0
  5  6  1  0
  5  4  1  0
  7  6  1  0
  8  7  1  0
  8  9  1  1
 10  8  1  0
 10 11  2  0
 12 13  1  0
 13 14  1  0
 16 15  1  6
 15 14  1  0
 16 17  1  0
 17 10  1  0
 18 16  1  0
 19 18  2  0
 21 20  1  0
 22 21  1  0
 22 23  1  6
 24 22  1  0
 24 25  1  1
 25 18  1  0
 26 24  1  0
 27 26  1  0
 28 26  2  0
M  END
$$$$
