RMI.pdb
     RDKit          3D

 28 27  0  0  1  0  0  0  0  0999 V2000
   28.2173  -15.4953  -17.9606 N   0  0  0  0  0  0  0  0  0  0  0  0
   27.0138  -15.3114  -17.1867 C   0  0  0  0  0  0  0  0  0  0  0  0
   26.0547  -14.6096  -17.6687 N   0  0  0  0  0  0  0  0  0  0  0  0
   26.8663  -15.8873  -15.9077 N   0  0  0  0  0  0  0  0  0  0  0  0
   27.8592  -16.7684  -15.2951 C   0  0  0  0  0  0  0  0  0  0  0  0
   27.8903  -18.0605  -16.0532 C   0  0  0  0  0  0  0  0  0  0  0  0
   27.0107  -19.0730  -15.3734 C   0  0  0  0  0  0  0  0  0  0  0  0
   27.7784  -20.1525  -14.6723 C   0  0  2  0  0  0  0  0  0  0  0  0
   28.2238  -21.1341  -15.6412 N   0  0  0  0  0  0  0  0  0  0  0  0
   26.9301  -20.8600  -13.6605 C   0  0  0  0  0  0  0  0  0  0  0  0
   26.1391  -21.7732  -14.0174 O   0  0  0  0  0  0  0  0  0  0  0  0
   25.1891  -14.4522  -17.1331 C   0  0  0  0  0  0  0  0  0  0  0  0
   26.9281  -19.4995   -7.2723 S   0  0  0  0  0  0  0  0  0  0  0  0
   25.4941  -20.6194   -7.3382 C   0  0  0  0  0  0  0  0  0  0  0  0
   25.1457  -21.1313   -9.0372 C   0  0  0  0  0  0  0  0  0  0  0  0
   26.2052  -20.6196   -9.9523 C   0  0  2  0  0  0  0  0  0  0  0  0
   25.9218  -20.9739  -11.3936 N   0  0  0  0  0  0  0  0  0  0  0  0
   26.9644  -20.5557  -12.2869 C   0  0  0  0  0  0  0  0  0  0  0  0
   24.5833  -20.4878  -11.8019 O   0  0  0  0  0  0  0  0  0  0  0  0
   24.4343  -19.2533  -11.9933 C   0  0  0  0  0  0  0  0  0  0  0  0
   22.4319  -20.9431  -16.2453 C   0  0  0  0  0  0  0  0  0  0  0  0
   22.8308  -20.5248  -14.8487 C   0  0  2  0  0  0  0  0  0  0  0  0
   21.8977  -21.1549  -13.8717 C   0  0  0  0  0  0  0  0  0  0  0  0
   20.4963  -20.6277  -14.1668 C   0  0  2  0  0  0  0  0  0  0  0  0
   22.2034  -20.7831  -12.4380 N   0  0  0  0  0  0  0  0  0  0  0  0
   23.4590  -21.3349  -11.9896 C   0  0  0  0  0  0  0  0  0  0  0  0
   21.1183  -21.3707  -11.6172 O   0  0  0  0  0  0  0  0  0  0  0  0
   19.9554  -20.6851  -11.2951 O   0  0  0  0  0  0  0  0  0  0  0  0
  1  2  1  0
  2  3  2  0
  4  2  1  0
  5  6  1  0
  5  4  1  0
  7  6  1  0
  8  7  1  0
  8  9  1  6
 10  8  1  0
 10 11  2  0
 12 13  1  0
 13 14  1  0
 16 15  1  1
 15 14  1  0
 16 17  1  0
 17 10  1  0
 18 16  1  0
 19 18  2  0
 21 20  1  0
 22 21  1  0
 22 23  1  1
 24 22  1  0
 24 25  1  1
 25 18  1  0
 26 24  1  0
 27 26  1  0
 28 26  2  0
M  END
$$$$
