RMI.pdb
     RDKit          3D

 28 27  0  0  1  0  0  0  0  0999 V2000
   30.0364  -22.4104  -14.9976 N   0  0  0  0  0  0  0  0  0  0  0  0
   30.0719  -22.5956  -16.4278 C   0  0  0  0  0  0  0  0  0  0  0  0
   30.4089  -23.7360  -16.9082 N   0  0  0  0  0  0  0  0  0  0  0  0
   29.7436  -21.5485  -17.3137 N   0  0  0  0  0  0  0  0  0  0  0  0
   29.1847  -20.2675  -16.8844 C   0  0  0  0  0  0  0  0  0  0  0  0
   27.7337  -20.4581  -16.5625 C   0  0  0  0  0  0  0  0  0  0  0  0
   27.5231  -20.3623  -15.0768 C   0  0  0  0  0  0  0  0  0  0  0  0
   26.1038  -20.6045  -14.6604 C   0  0  2  0  0  0  0  0  0  0  0  0
   25.2087  -20.0879  -15.6765 N   0  0  0  0  0  0  0  0  0  0  0  0
   25.7841  -19.9097  -13.3724 C   0  0  0  0  0  0  0  0  0  0  0  0
   25.2371  -18.7749  -13.3780 O   0  0  0  0  0  0  0  0  0  0  0  0
   30.5216  -23.8738  -17.9227 C   0  0  0  0  0  0  0  0  0  0  0  0
   20.9661  -20.9294  -11.8613 S   0  0  0  0  0  0  0  0  0  0  0  0
   21.2973  -20.4250  -10.1434 C   0  0  0  0  0  0  0  0  0  0  0  0
   23.0416  -20.0075   -9.9126 C   0  0  0  0  0  0  0  0  0  0  0  0
   23.8156  -20.3505  -11.1393 C   0  0  1  0  0  0  0  0  0  0  0  0
   25.2986  -20.1335  -10.9470 N   0  0  0  0  0  0  0  0  0  0  0  0
   26.0676  -20.4676  -12.1118 C   0  0  0  0  0  0  0  0  0  0  0  0
   25.7767  -20.8194   -9.7241 O   0  0  0  0  0  0  0  0  0  0  0  0
   25.7138  -22.0754   -9.6862 C   0  0  0  0  0  0  0  0  0  0  0  0
   29.1640  -18.3383   -6.0525 C   0  0  0  0  0  0  0  0  0  0  0  0
   28.7021  -19.4544   -6.9610 C   0  0  2  0  0  0  0  0  0  0  0  0
   27.4342  -20.0225   -6.4206 C   0  0  0  0  0  0  0  0  0  0  0  0
   27.7984  -20.9313   -5.2501 C   0  0  2  0  0  0  0  0  0  0  0  0
   26.6992  -20.8853   -7.4218 N   0  0  0  0  0  0  0  0  0  0  0  0
   26.3018  -20.1410   -8.5923 C   0  0  0  0  0  0  0  0  0  0  0  0
   25.4745  -21.3625   -6.7370 O   0  0  0  0  0  0  0  0  0  0  0  0
   25.3391  -22.6495   -6.2356 O   0  0  0  0  0  0  0  0  0  0  0  0
  1  2  1  0
  2  3  2  0
  4  2  1  0
  5  6  1  0
  5  4  1  0
  7  6  1  0
  8  7  1  0
  8  9  1  6
 10  8  1  0
 10 11  2  0
 12 13  1  0
 13 14  1  0
 16 15  1  6
 15 14  1  0
 16 17  1  0
 17 10  1  0
 18 16  1  0
 19 18  2  0
 21 20  1  0
 22 21  1  0
 22 23  1  6
 24 22  1  0
 24 25  1  6
 25 18  1  0
 26 24  1  0
 27 26  1  0
 28 26  2  0
M  END
$$$$
