RMI.pdb
     RDKit          3D

 28 27  0  0  1  0  0  0  0  0999 V2000
   27.7555  -21.8661  -16.2012 N   0  0  0  0  0  0  0  0  0  0  0  0
   28.2002  -22.3553  -17.4834 C   0  0  0  0  0  0  0  0  0  0  0  0
   29.2041  -23.1514  -17.5413 N   0  0  0  0  0  0  0  0  0  0  0  0
   27.5548  -21.9778  -18.6792 N   0  0  0  0  0  0  0  0  0  0  0  0
   26.3498  -21.1511  -18.7249 C   0  0  0  0  0  0  0  0  0  0  0  0
   26.7392  -19.7193  -18.5156 C   0  0  0  0  0  0  0  0  0  0  0  0
   26.2321  -19.2414  -17.1832 C   0  0  0  0  0  0  0  0  0  0  0  0
   24.7510  -19.0132  -17.1575 C   0  0  2  0  0  0  0  0  0  0  0  0
   24.4501  -17.7334  -17.7675 N   0  0  0  0  0  0  0  0  0  0  0  0
   24.2245  -18.9874  -15.7554 C   0  0  0  0  0  0  0  0  0  0  0  0
   24.3003  -17.9366  -15.0645 O   0  0  0  0  0  0  0  0  0  0  0  0
   29.4929  -23.5797  -18.4324 C   0  0  0  0  0  0  0  0  0  0  0  0
   18.5625  -20.6417  -13.5663 S   0  0  0  0  0  0  0  0  0  0  0  0
   19.5651  -21.1465  -12.1327 C   0  0  0  0  0  0  0  0  0  0  0  0
   21.2443  -20.4852  -12.2479 C   0  0  0  0  0  0  0  0  0  0  0  0
   21.7254  -20.5555  -13.6568 C   0  0  2  0  0  0  0  0  0  0  0  0
   23.1458  -20.0576  -13.7909 N   0  0  0  0  0  0  0  0  0  0  0  0
   23.6290  -20.1050  -15.1415 C   0  0  0  0  0  0  0  0  0  0  0  0
   24.0392  -20.7512  -12.8342 O   0  0  0  0  0  0  0  0  0  0  0  0
   24.3420  -21.9497  -13.0684 C   0  0  0  0  0  0  0  0  0  0  0  0
   28.8127  -20.1124   -9.2731 C   0  0  0  0  0  0  0  0  0  0  0  0
   27.6704  -20.9895   -9.7319 C   0  0  2  0  0  0  0  0  0  0  0  0
   26.5757  -20.1222  -10.2529 C   0  0  0  0  0  0  0  0  0  0  0  0
   26.0704  -19.2704   -9.0918 C   0  0  2  0  0  0  0  0  0  0  0  0
   25.3870  -20.9095  -10.7571 N   0  0  0  0  0  0  0  0  0  0  0  0
   24.5735  -20.1413  -11.6682 C   0  0  0  0  0  0  0  0  0  0  0  0
   24.5690  -21.2339   -9.5646 O   0  0  0  0  0  0  0  0  0  0  0  0
   23.3443  -20.6369   -9.3004 O   0  0  0  0  0  0  0  0  0  0  0  0
  1  2  1  0
  2  3  2  0
  4  2  1  0
  5  6  1  0
  5  4  1  0
  7  6  1  0
  8  7  1  0
  8  9  1  1
 10  8  1  0
 10 11  2  0
 12 13  1  0
 13 14  1  0
 16 15  1  6
 15 14  1  0
 16 17  1  0
 17 10  1  0
 18 16  1  0
 19 18  2  0
 21 20  1  0
 22 21  1  0
 22 23  1  6
 24 22  1  0
 24 25  1  1
 25 18  1  0
 26 24  1  0
 27 26  1  0
 28 26  2  0
M  END
$$$$
