LPP.pdb
     RDKit          3D

 23 24  0  0  1  0  0  0  0  0999 V2000
   20.9357  -22.4216  -12.1795 C   0  0  0  0  0  0  0  0  0  0  0  0
   20.7710  -21.6965  -13.4864 C   0  0  2  0  0  0  0  0  0  0  0  0
   19.9957  -22.5941  -14.4504 C   0  0  0  0  0  0  0  0  0  0  0  0
   22.0884  -21.3003  -14.0887 C   0  0  0  0  0  0  0  0  0  0  0  0
   22.5149  -19.9877  -13.4614 C   0  0  2  0  0  0  0  0  0  0  0  0
   21.4952  -19.0113  -13.7947 N   0  0  0  0  0  0  0  0  0  0  0  0
   23.8540  -19.5536  -13.9245 C   0  0  0  0  0  0  0  0  0  0  0  0
   23.8757  -18.5610  -14.7341 O   0  0  0  0  0  0  0  0  0  0  0  0
   25.0560  -20.1816  -13.5115 N   0  0  0  0  0  0  0  0  0  0  0  0
   25.1690  -21.3444  -12.6827 C   0  0  0  0  0  0  0  0  0  0  0  0
   26.2637  -20.8653  -11.7108 C   0  0  0  0  0  0  0  0  0  0  0  0
   27.1881  -20.0661  -12.6176 C   0  0  0  0  0  0  0  0  0  0  0  0
   26.3728  -19.7510  -13.8482 C   0  0  1  0  0  0  0  0  0  0  0  0
   26.8656  -20.5695  -15.0087 C   0  0  0  0  0  0  0  0  0  0  0  0
   26.7155  -21.8029  -14.9122 O   0  0  0  0  0  0  0  0  0  0  0  0
   27.4596  -19.9658  -16.1322 N   0  0  0  0  0  0  0  0  0  0  0  0
   27.4585  -18.4967  -16.3296 C   0  0  0  0  0  0  0  0  0  0  0  0
   28.9075  -18.2877  -16.6836 C   0  0  0  0  0  0  0  0  0  0  0  0
   29.3547  -19.5415  -17.3806 C   0  0  0  0  0  0  0  0  0  0  0  0
   28.1236  -20.4949  -17.2531 C   0  0  1  0  0  0  0  0  0  0  0  0
   28.5902  -21.8658  -17.2604 C   0  0  0  0  0  0  0  0  0  0  0  0
   28.3839  -22.6061  -18.4393 O   0  0  0  0  0  0  0  0  0  0  0  0
   29.1478  -22.4414  -16.3362 O   0  0  0  0  0  0  0  0  0  0  0  0
  2  1  1  1
  2  3  1  0
  4  5  1  0
  4  2  1  0
  5  7  1  0
  5  6  1  6
  7  8  2  0
  9 13  1  0
  9  7  1  0
 10  9  1  0
 11 10  1  0
 11 12  1  0
 12 13  1  0
 13 14  1  6
 14 15  2  0
 16 14  1  0
 16 17  1  0
 17 18  1  0
 19 18  1  0
 20 16  1  0
 20 19  1  0
 20 21  1  1
 22 21  1  0
 23 21  2  0
M  END
$$$$
