LPP.pdb
     RDKit          3D

 23 24  0  0  1  0  0  0  0  0999 V2000
   15.6398  -10.7879  -17.2825 C   0  0  0  0  0  0  0  0  0  0  0  0
   16.6109  -11.6457  -16.5196 C   0  0  2  0  0  0  0  0  0  0  0  0
   15.8327  -12.4835  -15.5054 C   0  0  0  0  0  0  0  0  0  0  0  0
   17.6655  -10.8332  -15.8246 C   0  0  0  0  0  0  0  0  0  0  0  0
   18.9587  -10.9805  -16.6016 C   0  0  2  0  0  0  0  0  0  0  0  0
   19.4738  -12.3056  -16.3138 N   0  0  0  0  0  0  0  0  0  0  0  0
   19.9437   -9.9284  -16.2562 C   0  0  0  0  0  0  0  0  0  0  0  0
   20.7240  -10.1880  -15.2739 O   0  0  0  0  0  0  0  0  0  0  0  0
   20.0385   -8.6986  -16.9550 N   0  0  0  0  0  0  0  0  0  0  0  0
   19.2799   -8.3121  -18.1069 C   0  0  0  0  0  0  0  0  0  0  0  0
   20.4118   -7.7470  -18.9856 C   0  0  0  0  0  0  0  0  0  0  0  0
   21.3045   -7.0483  -17.9706 C   0  0  0  0  0  0  0  0  0  0  0  0
   20.9228   -7.6283  -16.6304 C   0  0  1  0  0  0  0  0  0  0  0  0
   20.1675   -6.6050  -15.8293 C   0  0  0  0  0  0  0  0  0  0  0  0
   18.9901   -6.3949  -16.1798 O   0  0  0  0  0  0  0  0  0  0  0  0
   20.7664   -5.9312  -14.7491 N   0  0  0  0  0  0  0  0  0  0  0  0
   22.0677   -6.3556  -14.1802 C   0  0  0  0  0  0  0  0  0  0  0  0
   22.7635   -5.0213  -14.1166 C   0  0  0  0  0  0  0  0  0  0  0  0
   21.6879   -3.9971  -13.8889 C   0  0  0  0  0  0  0  0  0  0  0  0
   20.3650   -4.8227  -13.9827 C   0  0  1  0  0  0  0  0  0  0  0  0
   19.3009   -3.9522  -14.4377 C   0  0  0  0  0  0  0  0  0  0  0  0
   18.3644   -3.5291  -13.4761 O   0  0  0  0  0  0  0  0  0  0  0  0
   19.1396   -3.5496  -15.5814 O   0  0  0  0  0  0  0  0  0  0  0  0
  2  1  1  1
  2  3  1  0
  4  5  1  0
  4  2  1  0
  5  7  1  0
  5  6  1  1
  7  8  2  0
  9 13  1  0
  9  7  1  0
 10  9  1  0
 11 10  1  0
 11 12  1  0
 12 13  1  0
 13 14  1  1
 14 15  2  0
 16 14  1  0
 16 17  1  0
 17 18  1  0
 19 18  1  0
 20 16  1  0
 20 19  1  0
 20 21  1  6
 22 21  1  0
 23 21  2  0
M  END
$$$$
