LPP.pdb
     RDKit          3D

 23 24  0  0  1  0  0  0  0  0999 V2000
   24.0219  -19.5369  -13.9701 C   0  0  0  0  0  0  0  0  0  0  0  0
   23.6671  -20.2711  -12.7068 C   0  0  2  0  0  0  0  0  0  0  0  0
   22.3231  -19.7500  -12.1984 C   0  0  0  0  0  0  0  0  0  0  0  0
   24.7192  -20.1214  -11.6456 C   0  0  0  0  0  0  0  0  0  0  0  0
   25.6224  -21.3374  -11.7062 C   0  0  2  0  0  0  0  0  0  0  0  0
   24.8031  -22.4481  -12.1526 N   0  0  0  0  0  0  0  0  0  0  0  0
   26.2632  -21.6257  -10.4014 C   0  0  0  0  0  0  0  0  0  0  0  0
   25.5959  -22.3673   -9.5977 O   0  0  0  0  0  0  0  0  0  0  0  0
   27.5384  -21.1236  -10.0386 N   0  0  0  0  0  0  0  0  0  0  0  0
   28.3890  -20.2971  -10.8417 C   0  0  0  0  0  0  0  0  0  0  0  0
   29.7294  -21.0280  -10.6375 C   0  0  0  0  0  0  0  0  0  0  0  0
   29.6620  -21.4456   -9.1758 C   0  0  0  0  0  0  0  0  0  0  0  0
   28.2021  -21.3671   -8.8005 C   0  0  1  0  0  0  0  0  0  0  0  0
   27.9726  -20.1923   -7.8913 C   0  0  0  0  0  0  0  0  0  0  0  0
   27.9015  -19.0775   -8.4440 O   0  0  0  0  0  0  0  0  0  0  0  0
   27.8470  -20.3556   -6.4995 N   0  0  0  0  0  0  0  0  0  0  0  0
   27.4861  -21.6571   -5.8887 C   0  0  0  0  0  0  0  0  0  0  0  0
   28.5326  -21.7283   -4.8078 C   0  0  0  0  0  0  0  0  0  0  0  0
   28.8187  -20.3091   -4.4058 C   0  0  0  0  0  0  0  0  0  0  0  0
   27.9891  -19.4620   -5.4232 C   0  0  1  0  0  0  0  0  0  0  0  0
   28.6378  -18.1800   -5.6038 C   0  0  0  0  0  0  0  0  0  0  0  0
   28.2935  -17.1554   -4.7025 O   0  0  0  0  0  0  0  0  0  0  0  0
   29.4583  -17.9037   -6.4679 O   0  0  0  0  0  0  0  0  0  0  0  0
  2  1  1  6
  2  3  1  0
  4  5  1  0
  4  2  1  0
  5  7  1  0
  5  6  1  1
  7  8  2  0
  9 13  1  0
  9  7  1  0
 10  9  1  0
 11 10  1  0
 11 12  1  0
 12 13  1  0
 13 14  1  1
 14 15  2  0
 16 14  1  0
 16 17  1  0
 17 18  1  0
 19 18  1  0
 20 16  1  0
 20 19  1  0
 20 21  1  6
 22 21  1  0
 23 21  2  0
M  END
$$$$
