LPP.pdb
     RDKit          3D

 23 24  0  0  1  0  0  0  0  0999 V2000
   27.1787  -17.5253  -13.4668 C   0  0  0  0  0  0  0  0  0  0  0  0
   26.8959  -18.9923  -13.2974 C   0  0  2  0  0  0  0  0  0  0  0  0
   26.2659  -19.5217  -14.5854 C   0  0  0  0  0  0  0  0  0  0  0  0
   25.9975  -19.2683  -12.1261 C   0  0  0  0  0  0  0  0  0  0  0  0
   25.9263  -20.7703  -11.9336 C   0  0  2  0  0  0  0  0  0  0  0  0
   24.5631  -21.1681  -12.2292 N   0  0  0  0  0  0  0  0  0  0  0  0
   26.3272  -21.1803  -10.5670 C   0  0  0  0  0  0  0  0  0  0  0  0
   25.3965  -21.6549   -9.8255 O   0  0  0  0  0  0  0  0  0  0  0  0
   27.6548  -21.0653  -10.0836 N   0  0  0  0  0  0  0  0  0  0  0  0
   28.7815  -20.5483  -10.8012 C   0  0  0  0  0  0  0  0  0  0  0  0
   29.8216  -21.6350  -10.4694 C   0  0  0  0  0  0  0  0  0  0  0  0
   29.5002  -21.9729   -9.0211 C   0  0  0  0  0  0  0  0  0  0  0  0
   28.1006  -21.4582   -8.7875 C   0  0  1  0  0  0  0  0  0  0  0  0
   28.1460  -20.2427   -7.9043 C   0  0  0  0  0  0  0  0  0  0  0  0
   28.5185  -19.1846   -8.4473 O   0  0  0  0  0  0  0  0  0  0  0  0
   27.7861  -20.3094   -6.5458 N   0  0  0  0  0  0  0  0  0  0  0  0
   26.8994  -21.3732   -6.0173 C   0  0  0  0  0  0  0  0  0  0  0  0
   27.6951  -21.7884   -4.8078 C   0  0  0  0  0  0  0  0  0  0  0  0
   28.4212  -20.5588   -4.3403 C   0  0  0  0  0  0  0  0  0  0  0  0
   28.0990  -19.4979   -5.4409 C   0  0  1  0  0  0  0  0  0  0  0  0
   29.1870  -18.5444   -5.5050 C   0  0  0  0  0  0  0  0  0  0  0  0
   29.2434  -17.5681   -4.4929 O   0  0  0  0  0  0  0  0  0  0  0  0
   30.0631  -18.5079   -6.3579 O   0  0  0  0  0  0  0  0  0  0  0  0
  2  1  1  6
  2  3  1  0
  4  5  1  0
  4  2  1  0
  5  7  1  0
  5  6  1  1
  7  8  2  0
  9 13  1  0
  9  7  1  0
 10  9  1  0
 11 10  1  0
 11 12  1  0
 12 13  1  0
 13 14  1  1
 14 15  2  0
 16 14  1  0
 16 17  1  0
 17 18  1  0
 19 18  1  0
 20 16  1  0
 20 19  1  0
 20 21  1  6
 22 21  1  0
 23 21  2  0
M  END
$$$$
