LPP.pdb
     RDKit          3D

 23 24  0  0  1  0  0  0  0  0999 V2000
   23.0552  -19.5143  -10.6692 C   0  0  0  0  0  0  0  0  0  0  0  0
   24.3244  -19.9098  -11.3718 C   0  0  2  0  0  0  0  0  0  0  0  0
   24.3594  -19.2294  -12.7399 C   0  0  0  0  0  0  0  0  0  0  0  0
   24.4503  -21.3983  -11.5267 C   0  0  0  0  0  0  0  0  0  0  0  0
   25.8984  -21.7158  -11.8433 C   0  0  2  0  0  0  0  0  0  0  0  0
   25.8949  -22.8869  -12.6993 N   0  0  0  0  0  0  0  0  0  0  0  0
   26.7039  -21.9402  -10.6197 C   0  0  0  0  0  0  0  0  0  0  0  0
   26.3076  -22.8844   -9.8498 O   0  0  0  0  0  0  0  0  0  0  0  0
   27.8497  -21.1706  -10.2964 N   0  0  0  0  0  0  0  0  0  0  0  0
   28.4307  -20.1311  -11.0924 C   0  0  0  0  0  0  0  0  0  0  0  0
   29.9143  -20.5361  -11.0056 C   0  0  0  0  0  0  0  0  0  0  0  0
   30.0429  -21.0255   -9.5706 C   0  0  0  0  0  0  0  0  0  0  0  0
   28.6328  -21.3091   -9.1130 C   0  0  1  0  0  0  0  0  0  0  0  0
   28.1990  -20.2646   -8.1229 C   0  0  0  0  0  0  0  0  0  0  0  0
   27.8532  -19.1667   -8.6009 O   0  0  0  0  0  0  0  0  0  0  0  0
   28.1885  -20.5242   -6.7402 N   0  0  0  0  0  0  0  0  0  0  0  0
   28.3547  -21.8923   -6.1945 C   0  0  0  0  0  0  0  0  0  0  0  0
   29.3882  -21.6180   -5.1338 C   0  0  0  0  0  0  0  0  0  0  0  0
   29.1422  -20.2132   -4.6609 C   0  0  0  0  0  0  0  0  0  0  0  0
   28.0253  -19.6902   -5.6199 C   0  0  1  0  0  0  0  0  0  0  0  0
   28.1476  -18.2523   -5.7411 C   0  0  0  0  0  0  0  0  0  0  0  0
   27.4047  -17.4682   -4.8390 O   0  0  0  0  0  0  0  0  0  0  0  0
   28.8373  -17.6546   -6.5555 O   0  0  0  0  0  0  0  0  0  0  0  0
  2  1  1  6
  2  3  1  0
  4  5  1  0
  4  2  1  0
  5  7  1  0
  5  6  1  6
  7  8  2  0
  9 13  1  0
  9  7  1  0
 10  9  1  0
 11 10  1  0
 11 12  1  0
 12 13  1  0
 13 14  1  1
 14 15  2  0
 16 14  1  0
 16 17  1  0
 17 18  1  0
 19 18  1  0
 20 16  1  0
 20 19  1  0
 20 21  1  6
 22 21  1  0
 23 21  2  0
M  END
$$$$
