LPP.pdb
     RDKit          3D

 23 24  0  0  1  0  0  0  0  0999 V2000
   27.4575  -17.5957  -12.3591 C   0  0  0  0  0  0  0  0  0  0  0  0
   27.5763  -19.0591  -12.6831 C   0  0  2  0  0  0  0  0  0  0  0  0
   27.9704  -19.2051  -14.1527 C   0  0  0  0  0  0  0  0  0  0  0  0
   26.3048  -19.8092  -12.4077 C   0  0  0  0  0  0  0  0  0  0  0  0
   26.6699  -21.2384  -12.0579 C   0  0  2  0  0  0  0  0  0  0  0  0
   25.5658  -22.0729  -12.4922 N   0  0  0  0  0  0  0  0  0  0  0  0
   26.9434  -21.4095  -10.6115 C   0  0  0  0  0  0  0  0  0  0  0  0
   25.9315  -21.6842   -9.8755 O   0  0  0  0  0  0  0  0  0  0  0  0
   28.2386  -21.2827  -10.0493 N   0  0  0  0  0  0  0  0  0  0  0  0
   29.4078  -20.7806  -10.7069 C   0  0  0  0  0  0  0  0  0  0  0  0
   30.4249  -21.8587  -10.2875 C   0  0  0  0  0  0  0  0  0  0  0  0
   30.0141  -22.1650   -8.8547 C   0  0  0  0  0  0  0  0  0  0  0  0
   28.6030  -21.6466   -8.7197 C   0  0  1  0  0  0  0  0  0  0  0  0
   28.5940  -20.4119   -7.8624 C   0  0  0  0  0  0  0  0  0  0  0  0
   29.0260  -19.3715   -8.3956 O   0  0  0  0  0  0  0  0  0  0  0  0
   28.1227  -20.4427   -6.5371 N   0  0  0  0  0  0  0  0  0  0  0  0
   27.3902  -21.6089   -5.9887 C   0  0  0  0  0  0  0  0  0  0  0  0
   28.1266  -21.7805   -4.6861 C   0  0  0  0  0  0  0  0  0  0  0  0
   28.5768  -20.4076   -4.2739 C   0  0  0  0  0  0  0  0  0  0  0  0
   28.1803  -19.5081   -5.4881 C   0  0  1  0  0  0  0  0  0  0  0  0
   29.0847  -18.3787   -5.5494 C   0  0  0  0  0  0  0  0  0  0  0  0
   30.4565  -18.6634   -5.6825 O   0  0  0  0  0  0  0  0  0  0  0  0
   28.7674  -17.1986   -5.4962 O   0  0  0  0  0  0  0  0  0  0  0  0
  2  1  1  6
  2  3  1  0
  4  5  1  0
  4  2  1  0
  5  7  1  0
  5  6  1  1
  7  8  2  0
  9 13  1  0
  9  7  1  0
 10  9  1  0
 11 10  1  0
 11 12  1  0
 12 13  1  0
 13 14  1  1
 14 15  2  0
 16 14  1  0
 16 17  1  0
 17 18  1  0
 19 18  1  0
 20 16  1  0
 20 19  1  0
 20 21  1  6
 22 21  1  0
 23 21  2  0
M  END
$$$$
