LPP.pdb
     RDKit          3D

 23 24  0  0  1  0  0  0  0  0999 V2000
   23.2821  -20.1233   -6.9650 C   0  0  0  0  0  0  0  0  0  0  0  0
   23.1373  -20.9091   -8.2387 C   0  0  2  0  0  0  0  0  0  0  0  0
   22.2111  -22.0969   -7.9790 C   0  0  0  0  0  0  0  0  0  0  0  0
   24.4594  -21.3853   -8.7684 C   0  0  0  0  0  0  0  0  0  0  0  0
   25.2477  -20.1720   -9.2209 C   0  0  2  0  0  0  0  0  0  0  0  0
   25.2172  -20.1675  -10.6711 N   0  0  0  0  0  0  0  0  0  0  0  0
   26.6377  -20.1827   -8.7072 C   0  0  0  0  0  0  0  0  0  0  0  0
   27.4902  -20.8393   -9.4025 O   0  0  0  0  0  0  0  0  0  0  0  0
   27.0283  -19.5142   -7.5197 N   0  0  0  0  0  0  0  0  0  0  0  0
   26.1773  -18.7661   -6.6434 C   0  0  0  0  0  0  0  0  0  0  0  0
   27.0486  -17.5117   -6.4435 C   0  0  0  0  0  0  0  0  0  0  0  0
   28.4552  -18.0890   -6.3835 C   0  0  0  0  0  0  0  0  0  0  0  0
   28.3531  -19.4652   -6.9950 C   0  0  1  0  0  0  0  0  0  0  0  0
   28.4857  -20.5099   -5.9224 C   0  0  0  0  0  0  0  0  0  0  0  0
   27.4712  -20.7137   -5.2277 O   0  0  0  0  0  0  0  0  0  0  0  0
   29.6902  -21.2097   -5.7250 N   0  0  0  0  0  0  0  0  0  0  0  0
   30.6172  -21.5123   -6.8414 C   0  0  0  0  0  0  0  0  0  0  0  0
   31.9167  -21.0776   -6.2164 C   0  0  0  0  0  0  0  0  0  0  0  0
   31.7754  -21.3216   -4.7405 C   0  0  0  0  0  0  0  0  0  0  0  0
   30.2866  -21.7669   -4.5800 C   0  0  1  0  0  0  0  0  0  0  0  0
   29.8297  -21.4046   -3.2545 C   0  0  0  0  0  0  0  0  0  0  0  0
   29.6939  -22.4456   -2.3171 O   0  0  0  0  0  0  0  0  0  0  0  0
   29.5503  -20.2766   -2.8726 O   0  0  0  0  0  0  0  0  0  0  0  0
  2  1  1  1
  2  3  1  0
  4  5  1  0
  4  2  1  0
  5  7  1  0
  5  6  1  6
  7  8  2  0
  9 13  1  0
  9  7  1  0
 10  9  1  0
 11 10  1  0
 11 12  1  0
 12 13  1  0
 13 14  1  1
 14 15  2  0
 16 14  1  0
 16 17  1  0
 17 18  1  0
 19 18  1  0
 20 16  1  0
 20 19  1  0
 20 21  1  1
 22 21  1  0
 23 21  2  0
M  END
$$$$
