LPP.pdb
     RDKit          3D

 23 24  0  0  1  0  0  0  0  0999 V2000
   21.3710  -19.7604  -14.8563 C   0  0  0  0  0  0  0  0  0  0  0  0
   22.6306  -19.4561  -15.6190 C   0  0  2  0  0  0  0  0  0  0  0  0
   22.4521  -18.1249  -16.3485 C   0  0  0  0  0  0  0  0  0  0  0  0
   22.9827  -20.5419  -16.5949 C   0  0  0  0  0  0  0  0  0  0  0  0
   24.4535  -20.4063  -16.9365 C   0  0  2  0  0  0  0  0  0  0  0  0
   24.6917  -21.2317  -18.1053 N   0  0  0  0  0  0  0  0  0  0  0  0
   25.3300  -20.7980  -15.8076 C   0  0  0  0  0  0  0  0  0  0  0  0
   25.4203  -22.0544  -15.5742 O   0  0  0  0  0  0  0  0  0  0  0  0
   26.0383  -19.8586  -15.0167 N   0  0  0  0  0  0  0  0  0  0  0  0
   25.9934  -18.4325  -15.1424 C   0  0  0  0  0  0  0  0  0  0  0  0
   27.4997  -18.1181  -15.0742 C   0  0  0  0  0  0  0  0  0  0  0  0
   28.0021  -19.1165  -14.0417 C   0  0  0  0  0  0  0  0  0  0  0  0
   26.9338  -20.1791  -13.9544 C   0  0  1  0  0  0  0  0  0  0  0  0
   26.1978  -20.0553  -12.6496 C   0  0  0  0  0  0  0  0  0  0  0  0
   25.3487  -19.1454  -12.5838 O   0  0  0  0  0  0  0  0  0  0  0  0
   26.4616  -20.9225  -11.5736 N   0  0  0  0  0  0  0  0  0  0  0  0
   27.4784  -21.9977  -11.6598 C   0  0  0  0  0  0  0  0  0  0  0  0
   28.2059  -21.7627  -10.3621 C   0  0  0  0  0  0  0  0  0  0  0  0
   27.1868  -21.2178   -9.4018 C   0  0  0  0  0  0  0  0  0  0  0  0
   25.9114  -21.0283  -10.2839 C   0  0  1  0  0  0  0  0  0  0  0  0
   25.1124  -19.9561   -9.7279 C   0  0  0  0  0  0  0  0  0  0  0  0
   25.5684  -18.6416   -9.9396 O   0  0  0  0  0  0  0  0  0  0  0  0
   24.0766  -20.0862   -9.0903 O   0  0  0  0  0  0  0  0  0  0  0  0
  2  1  1  6
  2  3  1  0
  4  5  1  0
  4  2  1  0
  5  7  1  0
  5  6  1  6
  7  8  2  0
  9 13  1  0
  9  7  1  0
 10  9  1  0
 11 10  1  0
 11 12  1  0
 12 13  1  0
 13 14  1  1
 14 15  2  0
 16 14  1  0
 16 17  1  0
 17 18  1  0
 19 18  1  0
 20 16  1  0
 20 19  1  0
 20 21  1  1
 22 21  1  0
 23 21  2  0
M  END
$$$$
