LPP.pdb
     RDKit          3D

 23 24  0  0  1  0  0  0  0  0999 V2000
   22.5969  -19.5378  -11.4410 C   0  0  0  0  0  0  0  0  0  0  0  0
   23.1561  -20.6396  -12.2979 C   0  0  2  0  0  0  0  0  0  0  0  0
   21.9945  -21.4062  -12.9298 C   0  0  0  0  0  0  0  0  0  0  0  0
   24.0365  -21.5754  -11.5205 C   0  0  0  0  0  0  0  0  0  0  0  0
   25.4373  -21.4854  -12.0931 C   0  0  2  0  0  0  0  0  0  0  0  0
   25.5549  -22.5375  -13.0847 N   0  0  0  0  0  0  0  0  0  0  0  0
   26.4798  -21.6066  -11.0468 C   0  0  0  0  0  0  0  0  0  0  0  0
   26.6574  -22.7790  -10.5617 O   0  0  0  0  0  0  0  0  0  0  0  0
   27.2498  -20.5068  -10.5914 N   0  0  0  0  0  0  0  0  0  0  0  0
   27.1568  -19.1531  -11.0502 C   0  0  0  0  0  0  0  0  0  0  0  0
   28.6534  -18.8374  -11.2328 C   0  0  0  0  0  0  0  0  0  0  0  0
   29.2923  -19.5589  -10.0553 C   0  0  0  0  0  0  0  0  0  0  0  0
   28.2662  -20.5649   -9.5933 C   0  0  1  0  0  0  0  0  0  0  0  0
   27.6787  -20.1269   -8.2809 C   0  0  0  0  0  0  0  0  0  0  0  0
   26.7544  -19.2933   -8.3454 O   0  0  0  0  0  0  0  0  0  0  0  0
   28.1536  -20.6360   -7.0583 N   0  0  0  0  0  0  0  0  0  0  0  0
   29.0488  -21.8156   -6.9910 C   0  0  0  0  0  0  0  0  0  0  0  0
   30.0939  -21.2866   -6.0442 C   0  0  0  0  0  0  0  0  0  0  0  0
   29.3857  -20.3266   -5.1307 C   0  0  0  0  0  0  0  0  0  0  0  0
   27.9424  -20.2481   -5.7233 C   0  0  1  0  0  0  0  0  0  0  0  0
   27.3763  -18.9531   -5.4076 C   0  0  0  0  0  0  0  0  0  0  0  0
   28.0589  -17.8210   -5.8903 O   0  0  0  0  0  0  0  0  0  0  0  0
   26.3586  -18.7509   -4.7597 O   0  0  0  0  0  0  0  0  0  0  0  0
  2  1  1  1
  2  3  1  0
  4  5  1  0
  4  2  1  0
  5  7  1  0
  5  6  1  6
  7  8  2  0
  9 13  1  0
  9  7  1  0
 10  9  1  0
 11 10  1  0
 11 12  1  0
 12 13  1  0
 13 14  1  1
 14 15  2  0
 16 14  1  0
 16 17  1  0
 17 18  1  0
 19 18  1  0
 20 16  1  0
 20 19  1  0
 20 21  1  6
 22 21  1  0
 23 21  2  0
M  END
$$$$
