LPP.pdb
     RDKit          3D

 23 24  0  0  1  0  0  0  0  0999 V2000
   21.5081  -20.0063  -15.1388 C   0  0  0  0  0  0  0  0  0  0  0  0
   22.7115  -19.6978  -15.9858 C   0  0  2  0  0  0  0  0  0  0  0  0
   22.4026  -18.4748  -16.8490 C   0  0  0  0  0  0  0  0  0  0  0  0
   23.1126  -20.8581  -16.8508 C   0  0  0  0  0  0  0  0  0  0  0  0
   24.5553  -20.6541  -17.2694 C   0  0  2  0  0  0  0  0  0  0  0  0
   24.7859  -21.5119  -18.4162 N   0  0  0  0  0  0  0  0  0  0  0  0
   25.5052  -20.9495  -16.1709 C   0  0  0  0  0  0  0  0  0  0  0  0
   25.7667  -22.1875  -15.9699 O   0  0  0  0  0  0  0  0  0  0  0  0
   26.1039  -19.9412  -15.3744 N   0  0  0  0  0  0  0  0  0  0  0  0
   25.9386  -18.5263  -15.5243 C   0  0  0  0  0  0  0  0  0  0  0  0
   27.4089  -18.0800  -15.4162 C   0  0  0  0  0  0  0  0  0  0  0  0
   27.9642  -19.0166  -14.3533 C   0  0  0  0  0  0  0  0  0  0  0  0
   26.9905  -20.1677  -14.2810 C   0  0  1  0  0  0  0  0  0  0  0  0
   26.2063  -20.0915  -13.0008 C   0  0  0  0  0  0  0  0  0  0  0  0
   25.2726  -19.2663  -12.9786 O   0  0  0  0  0  0  0  0  0  0  0  0
   26.5186  -20.9096  -11.8996 N   0  0  0  0  0  0  0  0  0  0  0  0
   27.5909  -21.9315  -11.9568 C   0  0  0  0  0  0  0  0  0  0  0  0
   28.3081  -21.6181  -10.6700 C   0  0  0  0  0  0  0  0  0  0  0  0
   27.2639  -21.0985   -9.7228 C   0  0  0  0  0  0  0  0  0  0  0  0
   25.9780  -21.0044  -10.6050 C   0  0  1  0  0  0  0  0  0  0  0  0
   25.1246  -19.9594  -10.0790 C   0  0  0  0  0  0  0  0  0  0  0  0
   24.0675  -20.3579   -9.2396 O   0  0  0  0  0  0  0  0  0  0  0  0
   25.2366  -18.7609  -10.2962 O   0  0  0  0  0  0  0  0  0  0  0  0
  2  1  1  6
  2  3  1  0
  4  5  1  0
  4  2  1  0
  5  7  1  0
  5  6  1  6
  7  8  2  0
  9 13  1  0
  9  7  1  0
 10  9  1  0
 11 10  1  0
 11 12  1  0
 12 13  1  0
 13 14  1  1
 14 15  2  0
 16 14  1  0
 16 17  1  0
 17 18  1  0
 19 18  1  0
 20 16  1  0
 20 19  1  0
 20 21  1  1
 22 21  1  0
 23 21  2  0
M  END
$$$$
