LPP.pdb
     RDKit          3D

 23 24  0  0  1  0  0  0  0  0999 V2000
   22.7906  -20.2793  -13.0352 C   0  0  0  0  0  0  0  0  0  0  0  0
   23.6428  -20.6986  -11.8695 C   0  0  2  0  0  0  0  0  0  0  0  0
   23.1129  -20.0204  -10.6064 C   0  0  0  0  0  0  0  0  0  0  0  0
   25.0923  -20.3622  -12.0726 C   0  0  0  0  0  0  0  0  0  0  0  0
   25.8732  -21.6608  -12.1157 C   0  0  2  0  0  0  0  0  0  0  0  0
   24.9307  -22.7072  -12.4633 N   0  0  0  0  0  0  0  0  0  0  0  0
   26.5544  -21.9486  -10.8314 C   0  0  0  0  0  0  0  0  0  0  0  0
   26.0037  -22.8346  -10.0878 O   0  0  0  0  0  0  0  0  0  0  0  0
   27.7461  -21.2970  -10.4253 N   0  0  0  0  0  0  0  0  0  0  0  0
   28.4668  -20.3019  -11.1615 C   0  0  0  0  0  0  0  0  0  0  0  0
   29.8987  -20.8467  -11.0015 C   0  0  0  0  0  0  0  0  0  0  0  0
   29.8973  -21.3736   -9.5740 C   0  0  0  0  0  0  0  0  0  0  0  0
   28.4426  -21.5316   -9.2036 C   0  0  1  0  0  0  0  0  0  0  0  0
   28.0511  -20.4700   -8.2139 C   0  0  0  0  0  0  0  0  0  0  0  0
   27.7179  -19.3694   -8.6944 O   0  0  0  0  0  0  0  0  0  0  0  0
   28.0642  -20.7177   -6.8291 N   0  0  0  0  0  0  0  0  0  0  0  0
   28.1947  -22.0864   -6.2750 C   0  0  0  0  0  0  0  0  0  0  0  0
   29.2622  -21.8404   -5.2414 C   0  0  0  0  0  0  0  0  0  0  0  0
   29.0775  -20.4238   -4.7756 C   0  0  0  0  0  0  0  0  0  0  0  0
   27.9574  -19.8692   -5.7128 C   0  0  1  0  0  0  0  0  0  0  0  0
   28.1277  -18.4377   -5.8500 C   0  0  0  0  0  0  0  0  0  0  0  0
   27.4015  -17.6187   -4.9654 O   0  0  0  0  0  0  0  0  0  0  0  0
   28.8449  -17.8727   -6.6640 O   0  0  0  0  0  0  0  0  0  0  0  0
  2  1  1  6
  2  3  1  0
  4  5  1  0
  4  2  1  0
  5  7  1  0
  5  6  1  1
  7  8  2  0
  9 13  1  0
  9  7  1  0
 10  9  1  0
 11 10  1  0
 11 12  1  0
 12 13  1  0
 13 14  1  1
 14 15  2  0
 16 14  1  0
 16 17  1  0
 17 18  1  0
 19 18  1  0
 20 16  1  0
 20 19  1  0
 20 21  1  6
 22 21  1  0
 23 21  2  0
M  END
$$$$
