LPP.pdb
     RDKit          3D

 23 24  0  0  1  0  0  0  0  0999 V2000
   22.6624  -22.5138  -16.1191 C   0  0  0  0  0  0  0  0  0  0  0  0
   23.9139  -23.0746  -16.7355 C   0  0  2  0  0  0  0  0  0  0  0  0
   23.6069  -24.4665  -17.2874 C   0  0  0  0  0  0  0  0  0  0  0  0
   25.0511  -23.1413  -15.7569 C   0  0  0  0  0  0  0  0  0  0  0  0
   26.0484  -22.0599  -16.1228 C   0  0  2  0  0  0  0  0  0  0  0  0
   26.9010  -22.6076  -17.1607 N   0  0  0  0  0  0  0  0  0  0  0  0
   26.8389  -21.6071  -14.9538 C   0  0  0  0  0  0  0  0  0  0  0  0
   27.8950  -22.2834  -14.6919 O   0  0  0  0  0  0  0  0  0  0  0  0
   26.4713  -20.4946  -14.1559 N   0  0  0  0  0  0  0  0  0  0  0  0
   25.3613  -19.6166  -14.3771 C   0  0  0  0  0  0  0  0  0  0  0  0
   26.0596  -18.2588  -14.1736 C   0  0  0  0  0  0  0  0  0  0  0  0
   27.0239  -18.5476  -13.0325 C   0  0  0  0  0  0  0  0  0  0  0  0
   27.1584  -20.0504  -12.9882 C   0  0  1  0  0  0  0  0  0  0  0  0
   26.4494  -20.5895  -11.7774 C   0  0  0  0  0  0  0  0  0  0  0  0
   25.2137  -20.7167  -11.8774 O   0  0  0  0  0  0  0  0  0  0  0  0
   27.1518  -20.9271  -10.6060 N   0  0  0  0  0  0  0  0  0  0  0  0
   28.6107  -21.1898  -10.6106 C   0  0  0  0  0  0  0  0  0  0  0  0
   29.0236  -20.3463   -9.4332 C   0  0  0  0  0  0  0  0  0  0  0  0
   27.8576  -20.3483   -8.4855 C   0  0  0  0  0  0  0  0  0  0  0  0
   26.7420  -21.1071   -9.2730 C   0  0  1  0  0  0  0  0  0  0  0  0
   25.4485  -20.6353   -8.8243 C   0  0  0  0  0  0  0  0  0  0  0  0
   24.6572  -21.5380   -8.0896 O   0  0  0  0  0  0  0  0  0  0  0  0
   24.9784  -19.5239   -9.0244 O   0  0  0  0  0  0  0  0  0  0  0  0
  2  1  1  1
  2  3  1  0
  4  5  1  0
  4  2  1  0
  5  7  1  0
  5  6  1  6
  7  8  2  0
  9 13  1  0
  9  7  1  0
 10  9  1  0
 11 10  1  0
 11 12  1  0
 12 13  1  0
 13 14  1  1
 14 15  2  0
 16 14  1  0
 16 17  1  0
 17 18  1  0
 19 18  1  0
 20 16  1  0
 20 19  1  0
 20 21  1  6
 22 21  1  0
 23 21  2  0
M  END
$$$$
