LPP.pdb
     RDKit          3D

 23 24  0  0  1  0  0  0  0  0999 V2000
   22.5601  -20.0054  -11.9672 C   0  0  0  0  0  0  0  0  0  0  0  0
   23.7775  -20.4805  -11.2234 C   0  0  2  0  0  0  0  0  0  0  0  0
   23.7637  -19.8716   -9.8216 C   0  0  0  0  0  0  0  0  0  0  0  0
   25.0531  -20.1269  -11.9326 C   0  0  0  0  0  0  0  0  0  0  0  0
   25.9294  -21.3635  -11.9657 C   0  0  2  0  0  0  0  0  0  0  0  0
   25.0968  -22.4567  -12.4304 N   0  0  0  0  0  0  0  0  0  0  0  0
   26.5288  -21.6618  -10.6436 C   0  0  0  0  0  0  0  0  0  0  0  0
   25.8803  -22.4817   -9.9031 O   0  0  0  0  0  0  0  0  0  0  0  0
   27.7468  -21.0880  -10.1998 N   0  0  0  0  0  0  0  0  0  0  0  0
   28.5610  -20.1541  -10.9187 C   0  0  0  0  0  0  0  0  0  0  0  0
   29.9451  -20.7935  -10.6993 C   0  0  0  0  0  0  0  0  0  0  0  0
   29.8548  -21.3005   -9.2674 C   0  0  0  0  0  0  0  0  0  0  0  0
   28.3801  -21.3538   -8.9503 C   0  0  1  0  0  0  0  0  0  0  0  0
   28.0263  -20.2552   -7.9872 C   0  0  0  0  0  0  0  0  0  0  0  0
   27.8019  -19.1371   -8.4900 O   0  0  0  0  0  0  0  0  0  0  0  0
   27.9561  -20.4890   -6.6017 N   0  0  0  0  0  0  0  0  0  0  0  0
   27.8409  -21.8552   -6.0384 C   0  0  0  0  0  0  0  0  0  0  0  0
   28.9025  -21.7800   -4.9726 C   0  0  0  0  0  0  0  0  0  0  0  0
   28.9412  -20.3482   -4.5185 C   0  0  0  0  0  0  0  0  0  0  0  0
   27.9575  -19.6244   -5.4927 C   0  0  1  0  0  0  0  0  0  0  0  0
   28.3670  -18.2421   -5.6301 C   0  0  0  0  0  0  0  0  0  0  0  0
   27.8625  -17.3280   -4.6864 O   0  0  0  0  0  0  0  0  0  0  0  0
   29.1115  -17.7940   -6.4910 O   0  0  0  0  0  0  0  0  0  0  0  0
  2  1  1  6
  2  3  1  0
  4  5  1  0
  4  2  1  0
  5  7  1  0
  5  6  1  1
  7  8  2  0
  9 13  1  0
  9  7  1  0
 10  9  1  0
 11 10  1  0
 11 12  1  0
 12 13  1  0
 13 14  1  1
 14 15  2  0
 16 14  1  0
 16 17  1  0
 17 18  1  0
 19 18  1  0
 20 16  1  0
 20 19  1  0
 20 21  1  6
 22 21  1  0
 23 21  2  0
M  END
$$$$
