LPP.pdb
     RDKit          3D

 23 24  0  0  1  0  0  0  0  0999 V2000
   27.4088  -18.6830  -13.7803 C   0  0  0  0  0  0  0  0  0  0  0  0
   26.0488  -19.3212  -13.7177 C   0  0  2  0  0  0  0  0  0  0  0  0
   25.0131  -18.3181  -14.2248 C   0  0  0  0  0  0  0  0  0  0  0  0
   25.6965  -19.7779  -12.3311 C   0  0  0  0  0  0  0  0  0  0  0  0
   26.2110  -21.1934  -12.1589 C   0  0  2  0  0  0  0  0  0  0  0  0
   25.1584  -22.0819  -12.6138 N   0  0  0  0  0  0  0  0  0  0  0  0
   26.5981  -21.4831  -10.7579 C   0  0  0  0  0  0  0  0  0  0  0  0
   25.7074  -22.0516  -10.0335 O   0  0  0  0  0  0  0  0  0  0  0  0
   27.8718  -21.1610  -10.2254 N   0  0  0  0  0  0  0  0  0  0  0  0
   28.9267  -20.4655  -10.9000 C   0  0  0  0  0  0  0  0  0  0  0  0
   30.1144  -21.3745  -10.5315 C   0  0  0  0  0  0  0  0  0  0  0  0
   29.7986  -21.7701   -9.0965 C   0  0  0  0  0  0  0  0  0  0  0  0
   28.3272  -21.4872   -8.9143 C   0  0  1  0  0  0  0  0  0  0  0  0
   28.1454  -20.2866   -8.0282 C   0  0  0  0  0  0  0  0  0  0  0  0
   28.2755  -19.1756   -8.5777 O   0  0  0  0  0  0  0  0  0  0  0  0
   27.8461  -20.4232   -6.6603 N   0  0  0  0  0  0  0  0  0  0  0  0
   27.2874  -21.6756   -6.0977 C   0  0  0  0  0  0  0  0  0  0  0  0
   28.1911  -21.8423   -4.9044 C   0  0  0  0  0  0  0  0  0  0  0  0
   28.5724  -20.4556   -4.4692 C   0  0  0  0  0  0  0  0  0  0  0  0
   27.9547  -19.5385   -5.5728 C   0  0  1  0  0  0  0  0  0  0  0  0
   28.7467  -18.3305   -5.6752 C   0  0  0  0  0  0  0  0  0  0  0  0
   28.3179  -17.2182   -4.9271 O   0  0  0  0  0  0  0  0  0  0  0  0
   29.7553  -18.1861   -6.3522 O   0  0  0  0  0  0  0  0  0  0  0  0
  2  1  1  1
  2  3  1  0
  4  5  1  0
  4  2  1  0
  5  7  1  0
  5  6  1  1
  7  8  2  0
  9 13  1  0
  9  7  1  0
 10  9  1  0
 11 10  1  0
 11 12  1  0
 12 13  1  0
 13 14  1  1
 14 15  2  0
 16 14  1  0
 16 17  1  0
 17 18  1  0
 19 18  1  0
 20 16  1  0
 20 19  1  0
 20 21  1  6
 22 21  1  0
 23 21  2  0
M  END
$$$$
