LPP.pdb
     RDKit          3D

 23 24  0  0  1  0  0  0  0  0999 V2000
   23.1690  -19.7362  -12.5786 C   0  0  0  0  0  0  0  0  0  0  0  0
   23.5395  -21.1262  -12.1411 C   0  0  2  0  0  0  0  0  0  0  0  0
   22.2583  -21.9011  -11.8344 C   0  0  0  0  0  0  0  0  0  0  0  0
   24.4466  -21.1245  -10.9441 C   0  0  0  0  0  0  0  0  0  0  0  0
   25.8551  -20.8342  -11.4238 C   0  0  2  0  0  0  0  0  0  0  0  0
   26.1646  -21.8207  -12.4412 N   0  0  0  0  0  0  0  0  0  0  0  0
   26.8418  -20.8663  -10.3185 C   0  0  0  0  0  0  0  0  0  0  0  0
   27.5008  -21.9566  -10.1832 O   0  0  0  0  0  0  0  0  0  0  0  0
   27.0636  -19.7697   -9.4480 N   0  0  0  0  0  0  0  0  0  0  0  0
   26.2535  -18.5939   -9.3347 C   0  0  0  0  0  0  0  0  0  0  0  0
   27.3552  -17.5174   -9.3446 C   0  0  0  0  0  0  0  0  0  0  0  0
   28.4664  -18.1703   -8.5357 C   0  0  0  0  0  0  0  0  0  0  0  0
   28.1498  -19.6461   -8.5327 C   0  0  1  0  0  0  0  0  0  0  0  0
   27.6794  -20.0631   -7.1672 C   0  0  0  0  0  0  0  0  0  0  0  0
   26.4759  -19.8582   -6.9162 O   0  0  0  0  0  0  0  0  0  0  0  0
   28.5567  -20.6493   -6.2366 N   0  0  0  0  0  0  0  0  0  0  0  0
   29.8514  -21.2462   -6.6426 C   0  0  0  0  0  0  0  0  0  0  0  0
   30.7530  -20.6209   -5.6109 C   0  0  0  0  0  0  0  0  0  0  0  0
   29.9120  -20.4252   -4.3812 C   0  0  0  0  0  0  0  0  0  0  0  0
   28.4775  -20.8347   -4.8450 C   0  0  1  0  0  0  0  0  0  0  0  0
   27.5048  -20.1099   -4.0541 C   0  0  0  0  0  0  0  0  0  0  0  0
   26.8024  -20.8394   -3.0768 O   0  0  0  0  0  0  0  0  0  0  0  0
   27.2361  -18.9209   -4.1560 O   0  0  0  0  0  0  0  0  0  0  0  0
  2  1  1  1
  2  3  1  0
  4  5  1  0
  4  2  1  0
  5  7  1  0
  5  6  1  6
  7  8  2  0
  9 13  1  0
  9  7  1  0
 10  9  1  0
 11 10  1  0
 11 12  1  0
 12 13  1  0
 13 14  1  1
 14 15  2  0
 16 14  1  0
 16 17  1  0
 17 18  1  0
 19 18  1  0
 20 16  1  0
 20 19  1  0
 20 21  1  1
 22 21  1  0
 23 21  2  0
M  END
$$$$
