YFM.pdb
     RDKit          3D

 32 33  0  0  1  0  0  0  0  0999 V2000
   12.2330  -21.3868   15.2118 O   0  0  0  0  0  0  0  0  0  0  0  0
   12.1455  -20.5415   16.3057 C   0  0  0  0  0  0  0  0  0  0  0  0
   11.3052  -20.8697   17.3447 C   0  0  0  0  0  0  0  0  0  0  0  0
   11.2252  -20.0208   18.4303 C   0  0  0  0  0  0  0  0  0  0  0  0
   11.9599  -18.8518   18.5106 C   0  0  0  0  0  0  0  0  0  0  0  0
   11.8578  -17.9528   19.6894 C   0  0  0  0  0  0  0  0  0  0  0  0
   10.6664  -17.0509   19.5079 C   0  0  2  0  0  0  0  0  0  0  0  0
   10.7224  -16.3215   18.2644 N   0  0  0  0  0  0  0  0  0  0  0  0
   10.4040  -16.1847   20.6664 C   0  0  0  0  0  0  0  0  0  0  0  0
   10.8908  -15.0319   20.7755 O   0  0  0  0  0  0  0  0  0  0  0  0
   12.7902  -18.5608   17.4466 C   0  0  0  0  0  0  0  0  0  0  0  0
   12.8946  -19.3872   16.3454 C   0  0  0  0  0  0  0  0  0  0  0  0
    9.5653  -16.6375   21.7333 N   0  0  0  0  0  0  0  0  0  0  0  0
    9.2151  -15.8349   22.8583 C   0  0  1  0  0  0  0  0  0  0  0  0
    7.7671  -15.4362   22.8924 C   0  0  0  0  0  0  0  0  0  0  0  0
    7.4140  -14.5751   24.0348 C   0  0  0  0  0  0  0  0  0  0  0  0
    7.7047  -13.2445   23.9955 C   0  0  0  0  0  0  0  0  0  0  0  0
    7.3696  -12.4515   25.0717 C   0  0  0  0  0  0  0  0  0  0  0  0
    6.7489  -12.9742   26.1830 C   0  0  0  0  0  0  0  0  0  0  0  0
    6.4698  -14.3218   26.1896 C   0  0  0  0  0  0  0  0  0  0  0  0
    6.8005  -15.1190   25.1212 C   0  0  0  0  0  0  0  0  0  0  0  0
    9.7023  -16.4506   24.0930 C   0  0  0  0  0  0  0  0  0  0  0  0
    9.4183  -17.6403   24.3500 O   0  0  0  0  0  0  0  0  0  0  0  0
    9.3169  -13.1067   30.4936 C   0  0  0  0  0  0  0  0  0  0  0  0
   10.4880  -13.5612   29.2566 S   0  0  0  0  0  0  0  0  0  0  0  0
   10.1817  -14.9962   28.2678 C   0  0  0  0  0  0  0  0  0  0  0  0
   11.2641  -15.2371   27.2666 C   0  0  0  0  0  0  0  0  0  0  0  0
   11.0182  -16.2921   26.2590 C   0  0  2  0  0  0  0  0  0  0  0  0
   10.4942  -15.7185   25.0062 N   0  0  0  0  0  0  0  0  0  0  0  0
   10.0376  -17.3249   26.7351 C   0  0  0  0  0  0  0  0  0  0  0  0
   10.3528  -18.3496   27.5890 O   0  0  0  0  0  0  0  0  0  0  0  0
    8.8267  -17.2812   26.3444 O   0  0  0  0  0  0  0  0  0  0  0  0
  2  1  1  0
  2  3  2  0
  4  3  1  0
  5  4  2  0
  6  7  1  0
  6  5  1  0
  7  8  1  6
  9 13  1  0
  9  7  1  0
 10  9  2  0
 11 12  2  0
 11  5  1  0
 12  2  1  0
 14 13  1  0
 14 15  1  1
 16 21  1  0
 16 15  1  0
 17 16  2  0
 18 19  2  0
 18 17  1  0
 19 20  1  0
 20 21  2  0
 22 23  2  0
 22 14  1  0
 24 25  1  0
 26 25  1  0
 27 26  1  0
 28 27  1  1
 28 29  1  0
 29 22  1  0
 30 28  1  0
 31 30  1  0
 32 30  2  0
M  END
$$$$
