YFM.pdb
     RDKit          3D

 32 33  0  0  1  0  0  0  0  0999 V2000
   10.6878  -21.7309   17.0442 O   0  0  0  0  0  0  0  0  0  0  0  0
   10.8112  -20.8598   18.1143 C   0  0  0  0  0  0  0  0  0  0  0  0
    9.7749  -20.7452   19.0121 C   0  0  0  0  0  0  0  0  0  0  0  0
    9.9076  -19.8745   20.0750 C   0  0  0  0  0  0  0  0  0  0  0  0
   11.0457  -19.1131   20.2695 C   0  0  0  0  0  0  0  0  0  0  0  0
   11.1667  -18.1821   21.4212 C   0  0  0  0  0  0  0  0  0  0  0  0
   10.0103  -17.2189   21.3879 C   0  0  2  0  0  0  0  0  0  0  0  0
    9.9078  -16.5378   20.1203 N   0  0  0  0  0  0  0  0  0  0  0  0
    9.9793  -16.2990   22.5343 C   0  0  0  0  0  0  0  0  0  0  0  0
   10.9967  -16.0406   23.2242 O   0  0  0  0  0  0  0  0  0  0  0  0
   12.0610  -19.2589   19.3453 C   0  0  0  0  0  0  0  0  0  0  0  0
   11.9617  -20.1203   18.2707 C   0  0  0  0  0  0  0  0  0  0  0  0
    8.7599  -15.6526   22.9107 N   0  0  0  0  0  0  0  0  0  0  0  0
    8.6282  -14.8228   24.0625 C   0  0  1  0  0  0  0  0  0  0  0  0
    7.4456  -13.8978   24.0122 C   0  0  0  0  0  0  0  0  0  0  0  0
    7.3017  -13.0508   25.2094 C   0  0  0  0  0  0  0  0  0  0  0  0
    6.3225  -13.3217   26.1172 C   0  0  0  0  0  0  0  0  0  0  0  0
    6.1990  -12.5203   27.2316 C   0  0  0  0  0  0  0  0  0  0  0  0
    7.0422  -11.4543   27.4464 C   0  0  0  0  0  0  0  0  0  0  0  0
    8.0202  -11.2089   26.5096 C   0  0  0  0  0  0  0  0  0  0  0  0
    8.1498  -12.0029   25.3964 C   0  0  0  0  0  0  0  0  0  0  0  0
    8.7152  -15.6278   25.2812 C   0  0  0  0  0  0  0  0  0  0  0  0
    7.8298  -16.4730   25.5339 O   0  0  0  0  0  0  0  0  0  0  0  0
   13.0154  -20.3309   25.2960 C   0  0  0  0  0  0  0  0  0  0  0  0
   12.7383  -19.0240   26.4465 S   0  0  0  0  0  0  0  0  0  0  0  0
   11.2001  -18.1505   26.4021 C   0  0  0  0  0  0  0  0  0  0  0  0
   11.1306  -17.0711   27.4327 C   0  0  0  0  0  0  0  0  0  0  0  0
    9.9130  -16.2307   27.4375 C   0  0  2  0  0  0  0  0  0  0  0  0
    9.7905  -15.4655   26.1835 N   0  0  0  0  0  0  0  0  0  0  0  0
    9.8947  -15.2511   28.5755 C   0  0  0  0  0  0  0  0  0  0  0  0
    9.9309  -13.8899   28.4200 O   0  0  0  0  0  0  0  0  0  0  0  0
    9.8425  -15.6709   29.7763 O   0  0  0  0  0  0  0  0  0  0  0  0
  2  1  1  0
  2  3  2  0
  4  3  1  0
  5  4  2  0
  6  7  1  0
  6  5  1  0
  7  8  1  6
  9 13  1  0
  9  7  1  0
 10  9  2  0
 11 12  2  0
 11  5  1  0
 12  2  1  0
 14 13  1  0
 14 15  1  6
 16 21  1  0
 16 15  1  0
 17 16  2  0
 18 19  2  0
 18 17  1  0
 19 20  1  0
 20 21  2  0
 22 23  2  0
 22 14  1  0
 24 25  1  0
 26 25  1  0
 27 26  1  0
 28 27  1  6
 28 29  1  0
 29 22  1  0
 30 28  1  0
 31 30  1  0
 32 30  2  0
M  END
$$$$
