YFM.pdb
     RDKit          3D

 32 33  0  0  1  0  0  0  0  0999 V2000
    8.1851  -15.2221   13.4107 O   0  0  0  0  0  0  0  0  0  0  0  0
    8.6119  -14.9532   14.7008 C   0  0  0  0  0  0  0  0  0  0  0  0
    9.8624  -15.3689   15.0967 C   0  0  0  0  0  0  0  0  0  0  0  0
   10.2784  -15.0960   16.3843 C   0  0  0  0  0  0  0  0  0  0  0  0
    9.4826  -14.4194   17.2908 C   0  0  0  0  0  0  0  0  0  0  0  0
    9.9513  -14.1366   18.6722 C   0  0  0  0  0  0  0  0  0  0  0  0
    9.7740  -15.3770   19.5064 C   0  0  2  0  0  0  0  0  0  0  0  0
    8.5592  -16.0826   19.1781 N   0  0  0  0  0  0  0  0  0  0  0  0
    9.9243  -15.1403   20.9496 C   0  0  0  0  0  0  0  0  0  0  0  0
   10.9585  -14.6318   21.4494 O   0  0  0  0  0  0  0  0  0  0  0  0
    8.2357  -14.0205   16.8523 C   0  0  0  0  0  0  0  0  0  0  0  0
    7.7877  -14.2767   15.5716 C   0  0  0  0  0  0  0  0  0  0  0  0
    8.8723  -15.4899   21.8538 N   0  0  0  0  0  0  0  0  0  0  0  0
    8.7717  -14.9838   23.1828 C   0  0  1  0  0  0  0  0  0  0  0  0
    7.3715  -14.9807   23.7268 C   0  0  0  0  0  0  0  0  0  0  0  0
    7.2135  -14.1868   24.9581 C   0  0  0  0  0  0  0  0  0  0  0  0
    6.5114  -14.6977   26.0082 C   0  0  0  0  0  0  0  0  0  0  0  0
    6.3709  -13.9435   27.1530 C   0  0  0  0  0  0  0  0  0  0  0  0
    6.9236  -12.6877   27.2578 C   0  0  0  0  0  0  0  0  0  0  0  0
    7.6264  -12.2022   26.1786 C   0  0  0  0  0  0  0  0  0  0  0  0
    7.7709  -12.9476   25.0341 C   0  0  0  0  0  0  0  0  0  0  0  0
    9.7559  -15.6329   24.0493 C   0  0  0  0  0  0  0  0  0  0  0  0
   10.9287  -15.2031   24.0911 O   0  0  0  0  0  0  0  0  0  0  0  0
   10.5221  -13.2368   29.3160 C   0  0  0  0  0  0  0  0  0  0  0  0
    9.8390  -14.8378   29.5957 S   0  0  0  0  0  0  0  0  0  0  0  0
   10.2810  -16.1634   28.5102 C   0  0  0  0  0  0  0  0  0  0  0  0
    9.7397  -15.9720   27.1310 C   0  0  0  0  0  0  0  0  0  0  0  0
   10.0291  -17.0380   26.1468 C   0  0  2  0  0  0  0  0  0  0  0  0
    9.4009  -16.7449   24.8459 N   0  0  0  0  0  0  0  0  0  0  0  0
    9.5417  -18.3849   26.5976 C   0  0  0  0  0  0  0  0  0  0  0  0
   10.1244  -19.1192   27.5975 O   0  0  0  0  0  0  0  0  0  0  0  0
    8.5254  -18.9132   26.0417 O   0  0  0  0  0  0  0  0  0  0  0  0
  2  1  1  0
  2  3  2  0
  4  3  1  0
  5  4  2  0
  6  7  1  0
  6  5  1  0
  7  8  1  1
  9 13  1  0
  9  7  1  0
 10  9  2  0
 11 12  2  0
 11  5  1  0
 12  2  1  0
 14 13  1  0
 14 15  1  1
 16 21  1  0
 16 15  1  0
 17 16  2  0
 18 19  2  0
 18 17  1  0
 19 20  1  0
 20 21  2  0
 22 23  2  0
 22 14  1  0
 24 25  1  0
 26 25  1  0
 27 26  1  0
 28 27  1  1
 28 29  1  0
 29 22  1  0
 30 28  1  0
 31 30  1  0
 32 30  2  0
M  END
$$$$
