YFM.pdb
     RDKit          3D

 32 33  0  0  1  0  0  0  0  0999 V2000
   10.4427  -20.4623   15.1177 O   0  0  0  0  0  0  0  0  0  0  0  0
   10.5370  -19.9541   16.4029 C   0  0  0  0  0  0  0  0  0  0  0  0
    9.3913  -19.7855   17.1460 C   0  0  0  0  0  0  0  0  0  0  0  0
    9.4958  -19.2785   18.4256 C   0  0  0  0  0  0  0  0  0  0  0  0
   10.7118  -18.9338   18.9874 C   0  0  0  0  0  0  0  0  0  0  0  0
   10.8005  -18.3896   20.3673 C   0  0  0  0  0  0  0  0  0  0  0  0
   10.8738  -16.8880   20.2910 C   0  0  2  0  0  0  0  0  0  0  0  0
   12.1220  -16.4336   19.7283 N   0  0  0  0  0  0  0  0  0  0  0  0
   10.5414  -16.2191   21.5573 C   0  0  0  0  0  0  0  0  0  0  0  0
   11.4080  -15.9293   22.4191 O   0  0  0  0  0  0  0  0  0  0  0  0
   11.8358  -19.1190   18.2074 C   0  0  0  0  0  0  0  0  0  0  0  0
   11.7676  -19.6237   16.9240 C   0  0  0  0  0  0  0  0  0  0  0  0
    9.1872  -15.8679   21.8565 N   0  0  0  0  0  0  0  0  0  0  0  0
    8.8029  -15.1002   22.9947 C   0  0  1  0  0  0  0  0  0  0  0  0
    7.4539  -14.4526   22.8628 C   0  0  0  0  0  0  0  0  0  0  0  0
    7.0594  -13.6553   24.0375 C   0  0  0  0  0  0  0  0  0  0  0  0
    6.2790  -14.2141   25.0045 C   0  0  0  0  0  0  0  0  0  0  0  0
    5.9168  -13.4561   26.0970 C   0  0  0  0  0  0  0  0  0  0  0  0
    6.3261  -12.1492   26.2316 C   0  0  0  0  0  0  0  0  0  0  0  0
    7.1135  -11.6161   25.2366 C   0  0  0  0  0  0  0  0  0  0  0  0
    7.4787  -12.3649   24.1446 C   0  0  0  0  0  0  0  0  0  0  0  0
    8.9818  -15.8817   24.2186 C   0  0  0  0  0  0  0  0  0  0  0  0
    8.8106  -17.1196   24.1978 O   0  0  0  0  0  0  0  0  0  0  0  0
   12.4462  -13.9279   30.4337 C   0  0  0  0  0  0  0  0  0  0  0  0
   10.7877  -14.5113   30.3019 S   0  0  0  0  0  0  0  0  0  0  0  0
   10.3956  -15.7181   29.0688 C   0  0  0  0  0  0  0  0  0  0  0  0
    9.9415  -15.0950   27.7892 C   0  0  0  0  0  0  0  0  0  0  0  0
    9.7090  -16.0078   26.6483 C   0  0  2  0  0  0  0  0  0  0  0  0
    9.3476  -15.2571   25.4322 N   0  0  0  0  0  0  0  0  0  0  0  0
    8.6128  -16.9980   26.9180 C   0  0  0  0  0  0  0  0  0  0  0  0
    8.8234  -18.2785   27.3590 O   0  0  0  0  0  0  0  0  0  0  0  0
    7.3967  -16.6664   26.7383 O   0  0  0  0  0  0  0  0  0  0  0  0
  2  1  1  0
  2  3  2  0
  4  3  1  0
  5  4  2  0
  6  7  1  0
  6  5  1  0
  7  8  1  1
  9 13  1  0
  9  7  1  0
 10  9  2  0
 11 12  2  0
 11  5  1  0
 12  2  1  0
 14 13  1  0
 14 15  1  6
 16 21  1  0
 16 15  1  0
 17 16  2  0
 18 19  2  0
 18 17  1  0
 19 20  1  0
 20 21  2  0
 22 23  2  0
 22 14  1  0
 24 25  1  0
 26 25  1  0
 27 26  1  0
 28 27  1  1
 28 29  1  0
 29 22  1  0
 30 28  1  0
 31 30  1  0
 32 30  2  0
M  END
$$$$
