YFM.pdb
     RDKit          3D

 32 33  0  0  1  0  0  0  0  0999 V2000
    7.6100  -13.6418   14.8476 O   0  0  0  0  0  0  0  0  0  0  0  0
    8.0203  -13.6836   16.1700 C   0  0  0  0  0  0  0  0  0  0  0  0
    7.0836  -13.5577   17.1700 C   0  0  0  0  0  0  0  0  0  0  0  0
    7.5026  -13.6008   18.4845 C   0  0  0  0  0  0  0  0  0  0  0  0
    8.8310  -13.7660   18.8321 C   0  0  0  0  0  0  0  0  0  0  0  0
    9.2593  -13.8093   20.2544 C   0  0  0  0  0  0  0  0  0  0  0  0
    9.3181  -15.2466   20.6980 C   0  0  2  0  0  0  0  0  0  0  0  0
    8.2301  -16.0258   20.1589 N   0  0  0  0  0  0  0  0  0  0  0  0
    9.4692  -15.4065   22.1516 C   0  0  0  0  0  0  0  0  0  0  0  0
   10.4428  -14.9327   22.7885 O   0  0  0  0  0  0  0  0  0  0  0  0
    9.7374  -13.8883   17.7979 C   0  0  0  0  0  0  0  0  0  0  0  0
    9.3530  -13.8497   16.4723 C   0  0  0  0  0  0  0  0  0  0  0  0
    8.4888  -16.1245   22.9065 N   0  0  0  0  0  0  0  0  0  0  0  0
    8.5129  -16.2380   24.3274 C   0  0  1  0  0  0  0  0  0  0  0  0
    7.2074  -15.8938   24.9862 C   0  0  0  0  0  0  0  0  0  0  0  0
    7.0143  -14.4495   25.2053 C   0  0  0  0  0  0  0  0  0  0  0  0
    7.4994  -13.5559   24.2984 C   0  0  0  0  0  0  0  0  0  0  0  0
    7.3124  -12.2081   24.5169 C   0  0  0  0  0  0  0  0  0  0  0  0
    6.6473  -11.7467   25.6297 C   0  0  0  0  0  0  0  0  0  0  0  0
    6.1702  -12.6764   26.5254 C   0  0  0  0  0  0  0  0  0  0  0  0
    6.3525  -14.0214   26.3148 C   0  0  0  0  0  0  0  0  0  0  0  0
    9.0680  -17.5323   24.7243 C   0  0  0  0  0  0  0  0  0  0  0  0
    9.5246  -18.3069   23.8561 O   0  0  0  0  0  0  0  0  0  0  0  0
   10.0617  -13.0071   28.3624 C   0  0  0  0  0  0  0  0  0  0  0  0
   10.6708  -14.3167   29.3735 S   0  0  0  0  0  0  0  0  0  0  0  0
   11.0589  -15.8723   28.6249 C   0  0  0  0  0  0  0  0  0  0  0  0
   10.0560  -16.2708   27.5918 C   0  0  0  0  0  0  0  0  0  0  0  0
   10.2179  -17.6113   26.9870 C   0  0  2  0  0  0  0  0  0  0  0  0
    9.0975  -17.9245   26.0816 N   0  0  0  0  0  0  0  0  0  0  0  0
   10.2931  -18.7016   28.0167 C   0  0  0  0  0  0  0  0  0  0  0  0
   11.4502  -19.0973   28.6357 O   0  0  0  0  0  0  0  0  0  0  0  0
    9.2376  -19.3225   28.3651 O   0  0  0  0  0  0  0  0  0  0  0  0
  2  1  1  0
  2  3  2  0
  4  3  1  0
  5  4  2  0
  6  7  1  0
  6  5  1  0
  7  8  1  1
  9 13  1  0
  9  7  1  0
 10  9  2  0
 11 12  2  0
 11  5  1  0
 12  2  1  0
 14 13  1  0
 14 15  1  6
 16 21  1  0
 16 15  1  0
 17 16  2  0
 18 19  2  0
 18 17  1  0
 19 20  1  0
 20 21  2  0
 22 23  2  0
 22 14  1  0
 24 25  1  0
 26 25  1  0
 27 26  1  0
 28 27  1  1
 28 29  1  0
 29 22  1  0
 30 28  1  0
 31 30  1  0
 32 30  2  0
M  END
$$$$
