YFM.pdb
     RDKit          3D

 32 33  0  0  1  0  0  0  0  0999 V2000
   11.6583  -22.5824   16.5990 O   0  0  0  0  0  0  0  0  0  0  0  0
   11.3844  -21.4078   17.2802 C   0  0  0  0  0  0  0  0  0  0  0  0
   10.4181  -20.5572   16.7942 C   0  0  0  0  0  0  0  0  0  0  0  0
   10.1526  -19.3893   17.4804 C   0  0  0  0  0  0  0  0  0  0  0  0
   10.8235  -19.0436   18.6393 C   0  0  0  0  0  0  0  0  0  0  0  0
   10.5210  -17.7808   19.3616 C   0  0  0  0  0  0  0  0  0  0  0  0
   10.2742  -18.1003   20.8118 C   0  0  2  0  0  0  0  0  0  0  0  0
    9.2207  -19.0711   20.9818 N   0  0  0  0  0  0  0  0  0  0  0  0
   10.0931  -16.9082   21.6530 C   0  0  0  0  0  0  0  0  0  0  0  0
   10.8916  -15.9387   21.6363 O   0  0  0  0  0  0  0  0  0  0  0  0
   11.7849  -19.9252   19.0918 C   0  0  0  0  0  0  0  0  0  0  0  0
   12.0760  -21.1019   18.4305 C   0  0  0  0  0  0  0  0  0  0  0  0
    8.9745  -16.8112   22.5394 N   0  0  0  0  0  0  0  0  0  0  0  0
    8.7739  -15.7268   23.4429 C   0  0  1  0  0  0  0  0  0  0  0  0
    7.3593  -15.5976   23.9316 C   0  0  0  0  0  0  0  0  0  0  0  0
    7.1595  -14.4968   24.8906 C   0  0  0  0  0  0  0  0  0  0  0  0
    7.6829  -13.2665   24.6284 C   0  0  0  0  0  0  0  0  0  0  0  0
    7.4891  -12.2467   25.5349 C   0  0  0  0  0  0  0  0  0  0  0  0
    6.7794  -12.4445   26.6971 C   0  0  0  0  0  0  0  0  0  0  0  0
    6.2644  -13.6992   26.9306 C   0  0  0  0  0  0  0  0  0  0  0  0
    6.4532  -14.7208   26.0322 C   0  0  0  0  0  0  0  0  0  0  0  0
    9.7803  -15.7573   24.5045 C   0  0  0  0  0  0  0  0  0  0  0  0
   10.6803  -14.8906   24.5348 O   0  0  0  0  0  0  0  0  0  0  0  0
   10.3294  -11.8789   28.5362 C   0  0  0  0  0  0  0  0  0  0  0  0
   10.7886  -13.5635   28.7802 S   0  0  0  0  0  0  0  0  0  0  0  0
   11.0742  -14.5905   27.3680 C   0  0  0  0  0  0  0  0  0  0  0  0
   10.7057  -16.0163   27.6194 C   0  0  0  0  0  0  0  0  0  0  0  0
   10.8389  -16.9508   26.4802 C   0  0  2  0  0  0  0  0  0  0  0  0
    9.7520  -16.7563   25.5036 N   0  0  0  0  0  0  0  0  0  0  0  0
   10.8162  -18.3893   26.9104 C   0  0  0  0  0  0  0  0  0  0  0  0
    9.8604  -19.2929   26.5251 O   0  0  0  0  0  0  0  0  0  0  0  0
   11.7244  -18.8377   27.6817 O   0  0  0  0  0  0  0  0  0  0  0  0
  2  1  1  0
  2  3  2  0
  4  3  1  0
  5  4  2  0
  6  7  1  0
  6  5  1  0
  7  8  1  6
  9 13  1  0
  9  7  1  0
 10  9  2  0
 11 12  2  0
 11  5  1  0
 12  2  1  0
 14 13  1  0
 14 15  1  1
 16 21  1  0
 16 15  1  0
 17 16  2  0
 18 19  2  0
 18 17  1  0
 19 20  1  0
 20 21  2  0
 22 23  2  0
 22 14  1  0
 24 25  1  0
 26 25  1  0
 27 26  1  0
 28 27  1  1
 28 29  1  0
 29 22  1  0
 30 28  1  0
 31 30  1  0
 32 30  2  0
M  END
$$$$
