YFM.pdb
     RDKit          3D

 32 33  0  0  1  0  0  0  0  0999 V2000
    8.1779  -16.3879   13.2364 O   0  0  0  0  0  0  0  0  0  0  0  0
    8.6067  -16.0390   14.5065 C   0  0  0  0  0  0  0  0  0  0  0  0
    9.9031  -16.3121   14.8782 C   0  0  0  0  0  0  0  0  0  0  0  0
   10.3207  -15.9605   16.1460 C   0  0  0  0  0  0  0  0  0  0  0  0
    9.4820  -15.3433   17.0562 C   0  0  0  0  0  0  0  0  0  0  0  0
    9.9534  -14.9736   18.4160 C   0  0  0  0  0  0  0  0  0  0  0  0
    9.5686  -16.0681   19.3753 C   0  0  2  0  0  0  0  0  0  0  0  0
    8.3060  -16.6741   19.0288 N   0  0  0  0  0  0  0  0  0  0  0  0
    9.6391  -15.6631   20.7868 C   0  0  0  0  0  0  0  0  0  0  0  0
   10.6608  -15.1334   21.2902 O   0  0  0  0  0  0  0  0  0  0  0  0
    8.1899  -15.0877   16.6423 C   0  0  0  0  0  0  0  0  0  0  0  0
    7.7390  -15.4259   15.3818 C   0  0  0  0  0  0  0  0  0  0  0  0
    8.5192  -15.8639   21.6541 N   0  0  0  0  0  0  0  0  0  0  0  0
    8.4112  -15.2846   22.9523 C   0  0  1  0  0  0  0  0  0  0  0  0
    7.0676  -14.6752   23.2352 C   0  0  0  0  0  0  0  0  0  0  0  0
    6.9855  -13.9959   24.5402 C   0  0  0  0  0  0  0  0  0  0  0  0
    7.5308  -12.7569   24.6945 C   0  0  0  0  0  0  0  0  0  0  0  0
    7.4474  -12.1341   25.9211 C   0  0  0  0  0  0  0  0  0  0  0  0
    6.8262  -12.7361   26.9912 C   0  0  0  0  0  0  0  0  0  0  0  0
    6.2861  -13.9876   26.8007 C   0  0  0  0  0  0  0  0  0  0  0  0
    6.3650  -14.6150   25.5815 C   0  0  0  0  0  0  0  0  0  0  0  0
    8.8736  -16.2288   23.9699 C   0  0  0  0  0  0  0  0  0  0  0  0
    8.0481  -16.9454   24.5758 O   0  0  0  0  0  0  0  0  0  0  0  0
   12.0624  -12.5031   27.6758 C   0  0  0  0  0  0  0  0  0  0  0  0
   11.3558  -13.8169   28.6154 S   0  0  0  0  0  0  0  0  0  0  0  0
   11.1577  -15.4048   27.8603 C   0  0  0  0  0  0  0  0  0  0  0  0
   10.8021  -15.3045   26.4128 C   0  0  0  0  0  0  0  0  0  0  0  0
   10.7467  -16.5710   25.6500 C   0  0  2  0  0  0  0  0  0  0  0  0
   10.2470  -16.3457   24.2816 N   0  0  0  0  0  0  0  0  0  0  0  0
    9.8599  -17.5946   26.2987 C   0  0  0  0  0  0  0  0  0  0  0  0
   10.2931  -18.5207   27.2115 O   0  0  0  0  0  0  0  0  0  0  0  0
    8.6208  -17.6385   26.0097 O   0  0  0  0  0  0  0  0  0  0  0  0
  2  1  1  0
  2  3  2  0
  4  3  1  0
  5  4  2  0
  6  7  1  0
  6  5  1  0
  7  8  1  6
  9 13  1  0
  9  7  1  0
 10  9  2  0
 11 12  2  0
 11  5  1  0
 12  2  1  0
 14 13  1  0
 14 15  1  1
 16 21  1  0
 16 15  1  0
 17 16  2  0
 18 19  2  0
 18 17  1  0
 19 20  1  0
 20 21  2  0
 22 23  2  0
 22 14  1  0
 24 25  1  0
 26 25  1  0
 27 26  1  0
 28 27  1  1
 28 29  1  0
 29 22  1  0
 30 28  1  0
 31 30  1  0
 32 30  2  0
M  END
$$$$
