YFM.pdb
     RDKit          3D

 32 33  0  0  1  0  0  0  0  0999 V2000
    7.7522  -23.1814   16.9979 O   0  0  0  0  0  0  0  0  0  0  0  0
    8.1387  -22.2876   17.9831 C   0  0  0  0  0  0  0  0  0  0  0  0
    9.4789  -22.0830   18.2184 C   0  0  0  0  0  0  0  0  0  0  0  0
    9.8537  -21.1903   19.2022 C   0  0  0  0  0  0  0  0  0  0  0  0
    8.9297  -20.4939   19.9599 C   0  0  0  0  0  0  0  0  0  0  0  0
    9.3563  -19.5375   21.0141 C   0  0  0  0  0  0  0  0  0  0  0  0
    9.3925  -18.1528   20.4248 C   0  0  2  0  0  0  0  0  0  0  0  0
   10.3800  -18.0334   19.3799 N   0  0  0  0  0  0  0  0  0  0  0  0
    9.4970  -17.0882   21.4333 C   0  0  0  0  0  0  0  0  0  0  0  0
   10.5925  -16.5658   21.7570 O   0  0  0  0  0  0  0  0  0  0  0  0
    7.5961  -20.7291   19.6910 C   0  0  0  0  0  0  0  0  0  0  0  0
    7.1860  -21.6150   18.7145 C   0  0  0  0  0  0  0  0  0  0  0  0
    8.3260  -16.6007   22.0949 N   0  0  0  0  0  0  0  0  0  0  0  0
    8.3513  -15.6038   23.1138 C   0  0  1  0  0  0  0  0  0  0  0  0
    7.0753  -14.8192   23.2272 C   0  0  0  0  0  0  0  0  0  0  0  0
    7.0881  -13.8155   24.3060 C   0  0  0  0  0  0  0  0  0  0  0  0
    7.7297  -12.6282   24.1191 C   0  0  0  0  0  0  0  0  0  0  0  0
    7.7344  -11.6994   25.1373 C   0  0  0  0  0  0  0  0  0  0  0  0
    7.1059  -11.9455   26.3364 C   0  0  0  0  0  0  0  0  0  0  0  0
    6.4673  -13.1548   26.4917 C   0  0  0  0  0  0  0  0  0  0  0  0
    6.4581  -14.0857   25.4818 C   0  0  0  0  0  0  0  0  0  0  0  0
    8.8226  -16.1778   24.3744 C   0  0  0  0  0  0  0  0  0  0  0  0
    7.9976  -16.5846   25.2206 O   0  0  0  0  0  0  0  0  0  0  0  0
   10.3776  -12.6040   28.4690 C   0  0  0  0  0  0  0  0  0  0  0  0
    9.7275  -14.0877   29.1648 S   0  0  0  0  0  0  0  0  0  0  0  0
   10.1212  -15.6376   28.4075 C   0  0  0  0  0  0  0  0  0  0  0  0
    9.7293  -15.6809   26.9665 C   0  0  0  0  0  0  0  0  0  0  0  0
   10.7679  -16.1127   26.0053 C   0  0  2  0  0  0  0  0  0  0  0  0
   10.2040  -16.2812   24.6538 N   0  0  0  0  0  0  0  0  0  0  0  0
   11.4110  -17.4115   26.3984 C   0  0  0  0  0  0  0  0  0  0  0  0
   11.3857  -18.5465   25.6305 O   0  0  0  0  0  0  0  0  0  0  0  0
   12.0289  -17.5061   27.5076 O   0  0  0  0  0  0  0  0  0  0  0  0
  2  1  1  0
  2  3  2  0
  4  3  1  0
  5  4  2  0
  6  7  1  0
  6  5  1  0
  7  8  1  6
  9 13  1  0
  9  7  1  0
 10  9  2  0
 11 12  2  0
 11  5  1  0
 12  2  1  0
 14 13  1  0
 14 15  1  1
 16 21  1  0
 16 15  1  0
 17 16  2  0
 18 19  2  0
 18 17  1  0
 19 20  1  0
 20 21  2  0
 22 23  2  0
 22 14  1  0
 24 25  1  0
 26 25  1  0
 27 26  1  0
 28 27  1  1
 28 29  1  0
 29 22  1  0
 30 28  1  0
 31 30  1  0
 32 30  2  0
M  END
$$$$
