YFM.pdb
     RDKit          3D

 32 33  0  0  1  0  0  0  0  0999 V2000
   12.1316  -21.5963   15.7374 O   0  0  0  0  0  0  0  0  0  0  0  0
   11.8315  -20.8859   16.8881 C   0  0  0  0  0  0  0  0  0  0  0  0
   10.6547  -21.1456   17.5520 C   0  0  0  0  0  0  0  0  0  0  0  0
   10.3648  -20.4323   18.6977 C   0  0  0  0  0  0  0  0  0  0  0  0
   11.2156  -19.4655   19.2020 C   0  0  0  0  0  0  0  0  0  0  0  0
   10.8829  -18.7098   20.4374 C   0  0  0  0  0  0  0  0  0  0  0  0
   10.3425  -17.3600   20.0477 C   0  0  2  0  0  0  0  0  0  0  0  0
   11.0345  -16.8064   18.9093 N   0  0  0  0  0  0  0  0  0  0  0  0
   10.2494  -16.4179   21.1726 C   0  0  0  0  0  0  0  0  0  0  0  0
   11.1337  -15.5588   21.4126 O   0  0  0  0  0  0  0  0  0  0  0  0
   12.3852  -19.2368   18.5049 C   0  0  0  0  0  0  0  0  0  0  0  0
   12.7066  -19.9317   17.3559 C   0  0  0  0  0  0  0  0  0  0  0  0
    9.1212  -16.4498   22.0517 N   0  0  0  0  0  0  0  0  0  0  0  0
    8.9456  -15.5515   23.1448 C   0  0  1  0  0  0  0  0  0  0  0  0
    7.5913  -14.9027   23.1857 C   0  0  0  0  0  0  0  0  0  0  0  0
    7.3538  -14.0977   24.3968 C   0  0  0  0  0  0  0  0  0  0  0  0
    7.8528  -12.8324   24.4778 C   0  0  0  0  0  0  0  0  0  0  0  0
    7.6237  -12.0915   25.6171 C   0  0  0  0  0  0  0  0  0  0  0  0
    6.9031  -12.6017   26.6725 C   0  0  0  0  0  0  0  0  0  0  0  0
    6.4135  -13.8828   26.5575 C   0  0  0  0  0  0  0  0  0  0  0  0
    6.6374  -14.6277   25.4255 C   0  0  0  0  0  0  0  0  0  0  0  0
    9.3480  -16.1912   24.3976 C   0  0  0  0  0  0  0  0  0  0  0  0
    8.5708  -16.9861   24.9689 O   0  0  0  0  0  0  0  0  0  0  0  0
   11.0741  -12.4478   28.9476 C   0  0  0  0  0  0  0  0  0  0  0  0
   10.1727  -13.9516   29.1328 S   0  0  0  0  0  0  0  0  0  0  0  0
   10.8978  -15.4642   28.5696 C   0  0  0  0  0  0  0  0  0  0  0  0
   10.1936  -16.0209   27.3753 C   0  0  0  0  0  0  0  0  0  0  0  0
   11.0433  -16.4997   26.2628 C   0  0  2  0  0  0  0  0  0  0  0  0
   10.6090  -15.9244   24.9769 N   0  0  0  0  0  0  0  0  0  0  0  0
   11.0229  -17.9949   26.1259 C   0  0  0  0  0  0  0  0  0  0  0  0
   11.6471  -18.8557   26.9907 O   0  0  0  0  0  0  0  0  0  0  0  0
   10.3971  -18.5374   25.1589 O   0  0  0  0  0  0  0  0  0  0  0  0
  2  1  1  0
  2  3  2  0
  4  3  1  0
  5  4  2  0
  6  7  1  0
  6  5  1  0
  7  8  1  6
  9 13  1  0
  9  7  1  0
 10  9  2  0
 11 12  2  0
 11  5  1  0
 12  2  1  0
 14 13  1  0
 14 15  1  1
 16 21  1  0
 16 15  1  0
 17 16  2  0
 18 19  2  0
 18 17  1  0
 19 20  1  0
 20 21  2  0
 22 23  2  0
 22 14  1  0
 24 25  1  0
 26 25  1  0
 27 26  1  0
 28 27  1  1
 28 29  1  0
 29 22  1  0
 30 28  1  0
 31 30  1  0
 32 30  2  0
M  END
$$$$
