YFM.pdb
     RDKit          3D

 32 33  0  0  1  0  0  0  0  0999 V2000
   12.7509  -21.5761   16.7959 O   0  0  0  0  0  0  0  0  0  0  0  0
   12.5625  -20.4960   17.6425 C   0  0  0  0  0  0  0  0  0  0  0  0
   11.6344  -19.5353   17.3121 C   0  0  0  0  0  0  0  0  0  0  0  0
   11.4541  -18.4630   18.1623 C   0  0  0  0  0  0  0  0  0  0  0  0
   12.1734  -18.3198   19.3349 C   0  0  0  0  0  0  0  0  0  0  0  0
   11.9625  -17.1567   20.2353 C   0  0  0  0  0  0  0  0  0  0  0  0
   11.0319  -17.5668   21.3451 C   0  0  2  0  0  0  0  0  0  0  0  0
    9.8666  -18.2574   20.8487 N   0  0  0  0  0  0  0  0  0  0  0  0
   10.6967  -16.4704   22.2654 C   0  0  0  0  0  0  0  0  0  0  0  0
   11.5515  -15.6500   22.6827 O   0  0  0  0  0  0  0  0  0  0  0  0
   13.0939  -19.3062   19.6280 C   0  0  0  0  0  0  0  0  0  0  0  0
   13.2999  -20.3920   18.8003 C   0  0  0  0  0  0  0  0  0  0  0  0
    9.3536  -16.2980   22.7269 N   0  0  0  0  0  0  0  0  0  0  0  0
    8.9717  -15.3330   23.7043 C   0  0  1  0  0  0  0  0  0  0  0  0
    7.6348  -14.7000   23.4424 C   0  0  0  0  0  0  0  0  0  0  0  0
    7.2083  -13.7556   24.4900 C   0  0  0  0  0  0  0  0  0  0  0  0
    6.3023  -14.1490   25.4286 C   0  0  0  0  0  0  0  0  0  0  0  0
    5.9117  -13.2548   26.4018 C   0  0  0  0  0  0  0  0  0  0  0  0
    6.4165  -11.9754   26.4455 C   0  0  0  0  0  0  0  0  0  0  0  0
    7.3297  -11.6110   25.4824 C   0  0  0  0  0  0  0  0  0  0  0  0
    7.7241  -12.4963   24.5092 C   0  0  0  0  0  0  0  0  0  0  0  0
    9.1262  -15.8850   25.0505 C   0  0  0  0  0  0  0  0  0  0  0  0
    8.5274  -15.3578   26.0125 O   0  0  0  0  0  0  0  0  0  0  0  0
   10.6637  -12.6496   28.5406 C   0  0  0  0  0  0  0  0  0  0  0  0
   10.3563  -14.3317   28.9699 S   0  0  0  0  0  0  0  0  0  0  0  0
    9.6820  -15.4215   27.7498 C   0  0  0  0  0  0  0  0  0  0  0  0
   10.4465  -16.7009   27.6473 C   0  0  0  0  0  0  0  0  0  0  0  0
   10.9965  -17.0448   26.3175 C   0  0  2  0  0  0  0  0  0  0  0  0
    9.9463  -17.0120   25.2836 N   0  0  0  0  0  0  0  0  0  0  0  0
   11.6240  -18.4088   26.2898 C   0  0  0  0  0  0  0  0  0  0  0  0
   11.1364  -19.4659   25.5665 O   0  0  0  0  0  0  0  0  0  0  0  0
   12.6771  -18.6391   26.9673 O   0  0  0  0  0  0  0  0  0  0  0  0
  2  1  1  0
  2  3  2  0
  4  3  1  0
  5  4  2  0
  6  7  1  0
  6  5  1  0
  7  8  1  6
  9 13  1  0
  9  7  1  0
 10  9  2  0
 11 12  2  0
 11  5  1  0
 12  2  1  0
 14 13  1  0
 14 15  1  6
 16 21  1  0
 16 15  1  0
 17 16  2  0
 18 19  2  0
 18 17  1  0
 19 20  1  0
 20 21  2  0
 22 23  2  0
 22 14  1  0
 24 25  1  0
 26 25  1  0
 27 26  1  0
 28 27  1  1
 28 29  1  0
 29 22  1  0
 30 28  1  0
 31 30  1  0
 32 30  2  0
M  END
$$$$
