YFM.pdb
     RDKit          3D

 32 33  0  0  1  0  0  0  0  0999 V2000
    7.6148  -14.3383   13.8023 O   0  0  0  0  0  0  0  0  0  0  0  0
    7.7109  -14.6014   15.1590 C   0  0  0  0  0  0  0  0  0  0  0  0
    7.8724  -13.5551   16.0379 C   0  0  0  0  0  0  0  0  0  0  0  0
    7.9671  -13.8277   17.3878 C   0  0  0  0  0  0  0  0  0  0  0  0
    7.9055  -15.1156   17.8882 C   0  0  0  0  0  0  0  0  0  0  0  0
    8.0098  -15.3856   19.3457 C   0  0  0  0  0  0  0  0  0  0  0  0
    9.3996  -15.0334   19.8045 C   0  0  2  0  0  0  0  0  0  0  0  0
   10.4140  -15.6339   18.9728 N   0  0  0  0  0  0  0  0  0  0  0  0
    9.6224  -15.2711   21.2381 C   0  0  0  0  0  0  0  0  0  0  0  0
   10.7688  -15.2996   21.7507 O   0  0  0  0  0  0  0  0  0  0  0  0
    7.7430  -16.1353   16.9717 C   0  0  0  0  0  0  0  0  0  0  0  0
    7.6448  -15.8986   15.6150 C   0  0  0  0  0  0  0  0  0  0  0  0
    8.5139  -15.4831   22.1173 N   0  0  0  0  0  0  0  0  0  0  0  0
    8.4189  -14.9132   23.4206 C   0  0  1  0  0  0  0  0  0  0  0  0
    7.0120  -14.6038   23.8468 C   0  0  0  0  0  0  0  0  0  0  0  0
    6.9274  -13.7584   25.0507 C   0  0  0  0  0  0  0  0  0  0  0  0
    8.0687  -13.3205   25.6525 C   0  0  0  0  0  0  0  0  0  0  0  0
    7.9744  -12.5315   26.7785 C   0  0  0  0  0  0  0  0  0  0  0  0
    6.7541  -12.1774   27.3069 C   0  0  0  0  0  0  0  0  0  0  0  0
    5.6215  -12.6369   26.6742 C   0  0  0  0  0  0  0  0  0  0  0  0
    5.7071  -13.4236   25.5516 C   0  0  0  0  0  0  0  0  0  0  0  0
    9.1800  -15.7123   24.3812 C   0  0  0  0  0  0  0  0  0  0  0  0
    9.4682  -16.8989   24.1146 O   0  0  0  0  0  0  0  0  0  0  0  0
   12.3091  -15.3393   31.8033 C   0  0  0  0  0  0  0  0  0  0  0  0
   11.4410  -14.7412   30.3902 S   0  0  0  0  0  0  0  0  0  0  0  0
   11.1945  -15.8217   29.0108 C   0  0  0  0  0  0  0  0  0  0  0  0
   10.5699  -15.1231   27.8473 C   0  0  0  0  0  0  0  0  0  0  0  0
   10.3429  -15.9299   26.6281 C   0  0  2  0  0  0  0  0  0  0  0  0
    9.5983  -15.1620   25.6138 N   0  0  0  0  0  0  0  0  0  0  0  0
    9.5727  -17.1885   26.9064 C   0  0  0  0  0  0  0  0  0  0  0  0
   10.1479  -18.4202   27.0814 O   0  0  0  0  0  0  0  0  0  0  0  0
    8.3030  -17.1521   26.9932 O   0  0  0  0  0  0  0  0  0  0  0  0
  2  1  1  0
  2  3  2  0
  4  3  1  0
  5  4  2  0
  6  7  1  0
  6  5  1  0
  7  8  1  6
  9 13  1  0
  9  7  1  0
 10  9  2  0
 11 12  2  0
 11  5  1  0
 12  2  1  0
 14 13  1  0
 14 15  1  1
 16 21  1  0
 16 15  1  0
 17 16  2  0
 18 19  2  0
 18 17  1  0
 19 20  1  0
 20 21  2  0
 22 23  2  0
 22 14  1  0
 24 25  1  0
 26 25  1  0
 27 26  1  0
 28 27  1  1
 28 29  1  0
 29 22  1  0
 30 28  1  0
 31 30  1  0
 32 30  2  0
M  END
$$$$
