YFM.pdb
     RDKit          3D

 32 33  0  0  1  0  0  0  0  0999 V2000
   12.4304  -21.2965   14.9835 O   0  0  0  0  0  0  0  0  0  0  0  0
   12.3476  -20.4742   16.0953 C   0  0  0  0  0  0  0  0  0  0  0  0
   12.7655  -19.1668   15.9984 C   0  0  0  0  0  0  0  0  0  0  0  0
   12.6788  -18.3556   17.1118 C   0  0  0  0  0  0  0  0  0  0  0  0
   12.1867  -18.8105   18.3217 C   0  0  0  0  0  0  0  0  0  0  0  0
   12.1026  -17.9190   19.5075 C   0  0  0  0  0  0  0  0  0  0  0  0
   10.6618  -17.8106   19.9297 C   0  0  2  0  0  0  0  0  0  0  0  0
    9.7882  -17.5406   18.8138 N   0  0  0  0  0  0  0  0  0  0  0  0
   10.4481  -16.8917   21.0573 C   0  0  0  0  0  0  0  0  0  0  0  0
   11.3594  -16.1607   21.5186 O   0  0  0  0  0  0  0  0  0  0  0  0
   11.7786  -20.1284   18.3749 C   0  0  0  0  0  0  0  0  0  0  0  0
   11.8513  -20.9675   17.2808 C   0  0  0  0  0  0  0  0  0  0  0  0
    9.1640  -16.7981   21.6812 N   0  0  0  0  0  0  0  0  0  0  0  0
    8.8741  -15.9177   22.7644 C   0  0  1  0  0  0  0  0  0  0  0  0
    7.4550  -15.4252   22.7832 C   0  0  0  0  0  0  0  0  0  0  0  0
    7.1653  -14.4877   23.8825 C   0  0  0  0  0  0  0  0  0  0  0  0
    7.5802  -13.1928   23.7955 C   0  0  0  0  0  0  0  0  0  0  0  0
    7.3032  -12.3274   24.8317 C   0  0  0  0  0  0  0  0  0  0  0  0
    6.6177  -12.7429   25.9502 C   0  0  0  0  0  0  0  0  0  0  0  0
    6.2132  -14.0572   26.0055 C   0  0  0  0  0  0  0  0  0  0  0  0
    6.4854  -14.9259   24.9770 C   0  0  0  0  0  0  0  0  0  0  0  0
    9.3293  -16.4993   24.0274 C   0  0  0  0  0  0  0  0  0  0  0  0
    9.1365  -17.7120   24.2602 O   0  0  0  0  0  0  0  0  0  0  0  0
   11.2934  -12.6534   29.2163 C   0  0  0  0  0  0  0  0  0  0  0  0
   11.9849  -14.2501   29.5000 S   0  0  0  0  0  0  0  0  0  0  0  0
   11.4249  -15.6160   28.5245 C   0  0  0  0  0  0  0  0  0  0  0  0
   10.9365  -15.1894   27.1785 C   0  0  0  0  0  0  0  0  0  0  0  0
   10.5712  -16.2644   26.2299 C   0  0  2  0  0  0  0  0  0  0  0  0
    9.9883  -15.7082   24.9954 N   0  0  0  0  0  0  0  0  0  0  0  0
    9.5788  -17.2307   26.8100 C   0  0  0  0  0  0  0  0  0  0  0  0
    9.9185  -18.4136   27.4131 O   0  0  0  0  0  0  0  0  0  0  0  0
    8.3333  -16.9720   26.7589 O   0  0  0  0  0  0  0  0  0  0  0  0
  2  1  1  0
  2  3  2  0
  4  3  1  0
  5  4  2  0
  6  7  1  0
  6  5  1  0
  7  8  1  6
  9 13  1  0
  9  7  1  0
 10  9  2  0
 11 12  2  0
 11  5  1  0
 12  2  1  0
 14 13  1  0
 14 15  1  1
 16 21  1  0
 16 15  1  0
 17 16  2  0
 18 19  2  0
 18 17  1  0
 19 20  1  0
 20 21  2  0
 22 23  2  0
 22 14  1  0
 24 25  1  0
 26 25  1  0
 27 26  1  0
 28 27  1  1
 28 29  1  0
 29 22  1  0
 30 28  1  0
 31 30  1  0
 32 30  2  0
M  END
$$$$
