YFM.pdb
     RDKit          3D

 32 33  0  0  1  0  0  0  0  0999 V2000
   10.6350  -23.5646   17.2781 O   0  0  0  0  0  0  0  0  0  0  0  0
   10.6319  -22.5685   18.2406 C   0  0  0  0  0  0  0  0  0  0  0  0
    9.4351  -22.1604   18.7833 C   0  0  0  0  0  0  0  0  0  0  0  0
    9.4426  -21.1671   19.7418 C   0  0  0  0  0  0  0  0  0  0  0  0
   10.6107  -20.5674   20.1761 C   0  0  0  0  0  0  0  0  0  0  0  0
   10.5949  -19.4996   21.2094 C   0  0  0  0  0  0  0  0  0  0  0  0
   10.3726  -18.1740   20.5316 C   0  0  2  0  0  0  0  0  0  0  0  0
   11.3387  -17.9292   19.4886 N   0  0  0  0  0  0  0  0  0  0  0  0
   10.2476  -17.0488   21.4695 C   0  0  0  0  0  0  0  0  0  0  0  0
   11.2091  -16.2916   21.7522 O   0  0  0  0  0  0  0  0  0  0  0  0
   11.7887  -21.0067   19.6055 C   0  0  0  0  0  0  0  0  0  0  0  0
   11.8177  -21.9978   18.6445 C   0  0  0  0  0  0  0  0  0  0  0  0
    8.9966  -16.7730   22.1062 N   0  0  0  0  0  0  0  0  0  0  0  0
    8.7969  -15.7013   23.0250 C   0  0  1  0  0  0  0  0  0  0  0  0
    7.3642  -15.5126   23.4354 C   0  0  0  0  0  0  0  0  0  0  0  0
    7.1506  -14.3712   24.3425 C   0  0  0  0  0  0  0  0  0  0  0  0
    6.5326  -14.5649   25.5412 C   0  0  0  0  0  0  0  0  0  0  0  0
    6.3385  -13.4879   26.3789 C   0  0  0  0  0  0  0  0  0  0  0  0
    6.7551  -12.2234   26.0308 C   0  0  0  0  0  0  0  0  0  0  0  0
    7.3759  -12.0632   24.8130 C   0  0  0  0  0  0  0  0  0  0  0  0
    7.5730  -13.1314   23.9725 C   0  0  0  0  0  0  0  0  0  0  0  0
    9.7369  -15.8074   24.1412 C   0  0  0  0  0  0  0  0  0  0  0  0
   10.6374  -14.9520   24.2807 O   0  0  0  0  0  0  0  0  0  0  0  0
   10.7401  -12.6895   29.0612 C   0  0  0  0  0  0  0  0  0  0  0  0
   11.7230  -14.1271   28.7864 S   0  0  0  0  0  0  0  0  0  0  0  0
   10.9194  -15.6686   28.4565 C   0  0  0  0  0  0  0  0  0  0  0  0
   10.2689  -15.6931   27.1118 C   0  0  0  0  0  0  0  0  0  0  0  0
   10.4397  -16.9249   26.3104 C   0  0  2  0  0  0  0  0  0  0  0  0
    9.6434  -16.8673   25.0712 N   0  0  0  0  0  0  0  0  0  0  0  0
   10.0312  -18.1602   27.0603 C   0  0  0  0  0  0  0  0  0  0  0  0
   10.7246  -18.6810   28.1216 O   0  0  0  0  0  0  0  0  0  0  0  0
    8.9801  -18.7931   26.7203 O   0  0  0  0  0  0  0  0  0  0  0  0
  2  1  1  0
  2  3  2  0
  4  3  1  0
  5  4  2  0
  6  7  1  0
  6  5  1  0
  7  8  1  6
  9 13  1  0
  9  7  1  0
 10  9  2  0
 11 12  2  0
 11  5  1  0
 12  2  1  0
 14 13  1  0
 14 15  1  1
 16 21  1  0
 16 15  1  0
 17 16  2  0
 18 19  2  0
 18 17  1  0
 19 20  1  0
 20 21  2  0
 22 23  2  0
 22 14  1  0
 24 25  1  0
 26 25  1  0
 27 26  1  0
 28 27  1  1
 28 29  1  0
 29 22  1  0
 30 28  1  0
 31 30  1  0
 32 30  2  0
M  END
$$$$
