KYE.pdb
     RDKit          3D

 31 31  0  0  1  0  0  0  0  0999 V2000
    7.9396  -18.0567   19.6513 N   0  0  0  0  0  0  0  0  0  0  0  0
    9.2619  -17.4789   19.7592 C   0  0  1  0  0  0  0  0  0  0  0  0
    9.5526  -16.7466   18.4548 C   0  0  0  0  0  0  0  0  0  0  0  0
    9.2044  -17.6572   17.2990 C   0  0  0  0  0  0  0  0  0  0  0  0
   10.4048  -18.3190   16.7051 C   0  0  0  0  0  0  0  0  0  0  0  0
   10.0986  -19.1439   15.4945 C   0  0  0  0  0  0  0  0  0  0  0  0
   11.3427  -19.8226   15.1148 N   0  0  0  0  0  0  0  0  0  0  0  0
    9.2628  -16.5424   20.9090 C   0  0  0  0  0  0  0  0  0  0  0  0
   10.3237  -15.9382   21.2124 O   0  0  0  0  0  0  0  0  0  0  0  0
    6.9039  -11.7093   27.9492 O   0  0  0  0  0  0  0  0  0  0  0  0
    6.8773  -12.4975   26.7910 C   0  0  0  0  0  0  0  0  0  0  0  0
    6.4522  -13.8073   26.8255 C   0  0  0  0  0  0  0  0  0  0  0  0
    6.4256  -14.5896   25.6778 C   0  0  0  0  0  0  0  0  0  0  0  0
    6.8203  -14.0995   24.4527 C   0  0  0  0  0  0  0  0  0  0  0  0
    6.8077  -14.8987   23.1995 C   0  0  0  0  0  0  0  0  0  0  0  0
    8.1806  -15.4522   22.8575 C   0  0  2  0  0  0  0  0  0  0  0  0
    8.0873  -16.3100   21.6804 N   0  0  0  0  0  0  0  0  0  0  0  0
    8.7754  -16.1963   23.9916 C   0  0  0  0  0  0  0  0  0  0  0  0
    8.3089  -17.2709   24.3958 O   0  0  0  0  0  0  0  0  0  0  0  0
    7.2477  -12.7735   24.4330 C   0  0  0  0  0  0  0  0  0  0  0  0
    7.2746  -11.9969   25.5701 C   0  0  0  0  0  0  0  0  0  0  0  0
    9.9216  -15.6494   24.6270 N   0  0  0  0  0  0  0  0  0  0  0  0
   10.6850  -16.4486   25.5557 C   0  0  1  0  0  0  0  0  0  0  0  0
   12.1754  -16.2512   25.2950 C   0  0  0  0  0  0  0  0  0  0  0  0
   12.5727  -17.2183   24.2275 C   0  0  0  0  0  0  0  0  0  0  0  0
   14.0040  -17.1213   23.8683 C   0  0  0  0  0  0  0  0  0  0  0  0
   14.4944  -17.7839   22.9414 O   0  0  0  0  0  0  0  0  0  0  0  0
   10.4699  -16.1086   26.9714 C   0  0  0  0  0  0  0  0  0  0  0  0
   11.0601  -16.8931   27.9417 O   0  0  0  0  0  0  0  0  0  0  0  0
   14.8126  -16.2644   24.5920 O   0  0  0  0  0  0  0  0  0  0  0  0
    9.7606  -15.1211   27.2660 O   0  0  0  0  0  0  0  0  0  0  0  0
  2  3  1  0
  2  1  1  6
  3  4  1  0
  4  5  1  0
  5  6  1  0
  6  7  1  0
  8  2  1  0
  8  9  2  0
 10 11  1  0
 11 21  2  0
 12 13  2  0
 12 11  1  0
 13 14  1  0
 14 15  1  0
 14 20  2  0
 16 15  1  1
 16 18  1  0
 16 17  1  0
 17  8  1  0
 18 19  2  0
 21 20  1  0
 22 23  1  0
 22 18  1  0
 23 24  1  6
 24 25  1  0
 25 26  1  0
 26 27  2  0
 28 29  1  0
 28 23  1  0
 30 26  1  0
 31 28  2  0
M  END
$$$$
