KYE.pdb
     RDKit          3D

 31 31  0  0  1  0  0  0  0  0999 V2000
    7.0848  -15.1824   19.9078 N   0  0  0  0  0  0  0  0  0  0  0  0
    8.4214  -14.6290   19.9381 C   0  0  1  0  0  0  0  0  0  0  0  0
    8.3665  -13.2552   19.2809 C   0  0  0  0  0  0  0  0  0  0  0  0
    7.4458  -13.3264   18.0836 C   0  0  0  0  0  0  0  0  0  0  0  0
    8.0198  -14.1297   16.9625 C   0  0  0  0  0  0  0  0  0  0  0  0
    7.1331  -14.2009   15.7590 C   0  0  0  0  0  0  0  0  0  0  0  0
    7.8669  -14.9486   14.7319 N   0  0  0  0  0  0  0  0  0  0  0  0
    8.8454  -14.5263   21.3555 C   0  0  0  0  0  0  0  0  0  0  0  0
   10.0210  -14.1680   21.6240 O   0  0  0  0  0  0  0  0  0  0  0  0
    9.2485  -13.7687   30.1116 O   0  0  0  0  0  0  0  0  0  0  0  0
    8.7901  -13.8994   28.7940 C   0  0  0  0  0  0  0  0  0  0  0  0
    8.9092  -12.8682   27.8885 C   0  0  0  0  0  0  0  0  0  0  0  0
    8.4548  -12.9968   26.5819 C   0  0  0  0  0  0  0  0  0  0  0  0
    7.8652  -14.1550   26.1264 C   0  0  0  0  0  0  0  0  0  0  0  0
    7.3658  -14.3379   24.7383 C   0  0  0  0  0  0  0  0  0  0  0  0
    8.4594  -14.8015   23.7909 C   0  0  2  0  0  0  0  0  0  0  0  0
    7.9502  -14.8246   22.4234 N   0  0  0  0  0  0  0  0  0  0  0  0
    8.9888  -16.1329   24.1663 C   0  0  0  0  0  0  0  0  0  0  0  0
    8.3029  -17.1626   24.0937 O   0  0  0  0  0  0  0  0  0  0  0  0
    7.7515  -15.1892   27.0530 C   0  0  0  0  0  0  0  0  0  0  0  0
    8.2014  -15.0631   28.3486 C   0  0  0  0  0  0  0  0  0  0  0  0
   10.3314  -16.2186   24.6207 N   0  0  0  0  0  0  0  0  0  0  0  0
   10.8933  -17.4985   24.9813 C   0  0  1  0  0  0  0  0  0  0  0  0
   12.2892  -17.6317   24.3796 C   0  0  0  0  0  0  0  0  0  0  0  0
   12.1515  -17.4871   22.8988 C   0  0  0  0  0  0  0  0  0  0  0  0
   13.4342  -17.6589   22.1831 C   0  0  0  0  0  0  0  0  0  0  0  0
   14.0839  -18.7138   22.2446 O   0  0  0  0  0  0  0  0  0  0  0  0
   11.0517  -17.7076   26.4295 C   0  0  0  0  0  0  0  0  0  0  0  0
   11.5080  -18.9300   26.8798 O   0  0  0  0  0  0  0  0  0  0  0  0
   13.9166  -16.6077   21.4254 O   0  0  0  0  0  0  0  0  0  0  0  0
   10.7712  -16.7790   27.2195 O   0  0  0  0  0  0  0  0  0  0  0  0
  2  3  1  0
  2  1  1  1
  3  4  1  0
  4  5  1  0
  5  6  1  0
  6  7  1  0
  8  2  1  0
  8  9  2  0
 10 11  1  0
 11 21  2  0
 12 13  2  0
 12 11  1  0
 13 14  1  0
 14 15  1  0
 14 20  2  0
 16 15  1  1
 16 18  1  0
 16 17  1  0
 17  8  1  0
 18 19  2  0
 21 20  1  0
 22 23  1  0
 22 18  1  0
 23 24  1  6
 24 25  1  0
 25 26  1  0
 26 27  2  0
 28 29  1  0
 28 23  1  0
 30 26  1  0
 31 28  2  0
M  END
$$$$
