KYE.pdb
     RDKit          3D

 31 31  0  0  1  0  0  0  0  0999 V2000
    7.5472  -13.1989   19.6080 N   0  0  0  0  0  0  0  0  0  0  0  0
    7.2365  -14.3854   20.3756 C   0  0  1  0  0  0  0  0  0  0  0  0
    7.5833  -15.5947   19.5156 C   0  0  0  0  0  0  0  0  0  0  0  0
    6.8340  -15.4901   18.2064 C   0  0  0  0  0  0  0  0  0  0  0  0
    7.1364  -16.6204   17.2777 C   0  0  0  0  0  0  0  0  0  0  0  0
    6.5231  -16.4641   15.9215 C   0  0  0  0  0  0  0  0  0  0  0  0
    6.8603  -17.6713   15.1590 N   0  0  0  0  0  0  0  0  0  0  0  0
    8.0519  -14.3594   21.6140 C   0  0  0  0  0  0  0  0  0  0  0  0
    9.2907  -14.1556   21.5335 O   0  0  0  0  0  0  0  0  0  0  0  0
   10.7862  -14.5205   30.0320 O   0  0  0  0  0  0  0  0  0  0  0  0
    9.9889  -14.4959   28.8801 C   0  0  0  0  0  0  0  0  0  0  0  0
    9.4152  -15.6447   28.3813 C   0  0  0  0  0  0  0  0  0  0  0  0
    8.6246  -15.6214   27.2392 C   0  0  0  0  0  0  0  0  0  0  0  0
    8.3744  -14.4555   26.5500 C   0  0  0  0  0  0  0  0  0  0  0  0
    7.5348  -14.3829   25.3255 C   0  0  0  0  0  0  0  0  0  0  0  0
    8.3380  -14.6426   24.0623 C   0  0  2  0  0  0  0  0  0  0  0  0
    7.4640  -14.5604   22.8965 N   0  0  0  0  0  0  0  0  0  0  0  0
    9.0224  -15.9556   24.1018 C   0  0  0  0  0  0  0  0  0  0  0  0
    8.4071  -17.0262   23.9974 O   0  0  0  0  0  0  0  0  0  0  0  0
    8.9610  -13.3019   27.0659 C   0  0  0  0  0  0  0  0  0  0  0  0
    9.7450  -13.3235   28.1980 C   0  0  0  0  0  0  0  0  0  0  0  0
   10.4331  -15.9735   24.2625 N   0  0  0  0  0  0  0  0  0  0  0  0
   11.1432  -17.2302   24.2856 C   0  0  1  0  0  0  0  0  0  0  0  0
   12.4963  -17.0656   23.5999 C   0  0  0  0  0  0  0  0  0  0  0  0
   13.2191  -18.3675   23.7228 C   0  0  0  0  0  0  0  0  0  0  0  0
   14.5464  -18.3514   23.0708 C   0  0  0  0  0  0  0  0  0  0  0  0
   15.2679  -19.3594   23.0260 O   0  0  0  0  0  0  0  0  0  0  0  0
   11.4295  -17.7429   25.6352 C   0  0  0  0  0  0  0  0  0  0  0  0
   11.7269  -19.0819   25.7896 O   0  0  0  0  0  0  0  0  0  0  0  0
   14.9887  -17.1739   22.4965 O   0  0  0  0  0  0  0  0  0  0  0  0
   11.3977  -16.9599   26.6103 O   0  0  0  0  0  0  0  0  0  0  0  0
  2  3  1  0
  2  1  1  6
  3  4  1  0
  4  5  1  0
  5  6  1  0
  6  7  1  0
  8  2  1  0
  8  9  2  0
 10 11  1  0
 11 21  2  0
 12 13  2  0
 12 11  1  0
 13 14  1  0
 14 15  1  0
 14 20  2  0
 16 15  1  1
 16 18  1  0
 16 17  1  0
 17  8  1  0
 18 19  2  0
 21 20  1  0
 22 23  1  0
 22 18  1  0
 23 24  1  1
 24 25  1  0
 25 26  1  0
 26 27  2  0
 28 29  1  0
 28 23  1  0
 30 26  1  0
 31 28  2  0
M  END
$$$$
