KYE.pdb
     RDKit          3D

 31 31  0  0  1  0  0  0  0  0999 V2000
    9.3769  -16.9877   18.4362 N   0  0  0  0  0  0  0  0  0  0  0  0
    8.4113  -17.3549   19.4492 C   0  0  1  0  0  0  0  0  0  0  0  0
    8.6028  -18.8358   19.7533 C   0  0  0  0  0  0  0  0  0  0  0  0
    8.2126  -19.6365   18.5314 C   0  0  0  0  0  0  0  0  0  0  0  0
    8.3660  -21.1085   18.7342 C   0  0  0  0  0  0  0  0  0  0  0  0
    8.0157  -21.9210   17.5271 C   0  0  0  0  0  0  0  0  0  0  0  0
    8.3034  -23.3213   17.8571 N   0  0  0  0  0  0  0  0  0  0  0  0
    8.6672  -16.5255   20.6516 C   0  0  0  0  0  0  0  0  0  0  0  0
    9.8529  -16.2602   20.9779 O   0  0  0  0  0  0  0  0  0  0  0  0
    7.6170  -11.6993   28.0292 O   0  0  0  0  0  0  0  0  0  0  0  0
    7.3980  -12.3745   26.8211 C   0  0  0  0  0  0  0  0  0  0  0  0
    7.8756  -11.8802   25.6274 C   0  0  0  0  0  0  0  0  0  0  0  0
    7.6589  -12.5488   24.4291 C   0  0  0  0  0  0  0  0  0  0  0  0
    6.9595  -13.7339   24.3723 C   0  0  0  0  0  0  0  0  0  0  0  0
    6.7045  -14.4839   23.1145 C   0  0  0  0  0  0  0  0  0  0  0  0
    7.9220  -15.2697   22.6575 C   0  0  2  0  0  0  0  0  0  0  0  0
    7.5991  -16.0204   21.4484 N   0  0  0  0  0  0  0  0  0  0  0  0
    8.4199  -16.1817   23.7130 C   0  0  0  0  0  0  0  0  0  0  0  0
    7.8426  -17.2401   23.9998 O   0  0  0  0  0  0  0  0  0  0  0  0
    6.4825  -14.2218   25.5870 C   0  0  0  0  0  0  0  0  0  0  0  0
    6.6966  -13.5599   26.7757 C   0  0  0  0  0  0  0  0  0  0  0  0
    9.6027  -15.8200   24.4106 N   0  0  0  0  0  0  0  0  0  0  0  0
   10.1531  -16.7048   25.4097 C   0  0  1  0  0  0  0  0  0  0  0  0
   11.6697  -16.7698   25.2553 C   0  0  0  0  0  0  0  0  0  0  0  0
   11.9632  -17.7150   24.1359 C   0  0  0  0  0  0  0  0  0  0  0  0
   13.0688  -17.2531   23.2690 C   0  0  0  0  0  0  0  0  0  0  0  0
   14.0417  -16.6310   23.7218 O   0  0  0  0  0  0  0  0  0  0  0  0
    9.9020  -16.2863   26.7983 C   0  0  0  0  0  0  0  0  0  0  0  0
   10.3189  -17.1069   27.8268 O   0  0  0  0  0  0  0  0  0  0  0  0
   13.0084  -17.5269   21.9150 O   0  0  0  0  0  0  0  0  0  0  0  0
    9.3190  -15.2014   27.0180 O   0  0  0  0  0  0  0  0  0  0  0  0
  2  3  1  0
  2  1  1  6
  3  4  1  0
  4  5  1  0
  5  6  1  0
  6  7  1  0
  8  2  1  0
  8  9  2  0
 10 11  1  0
 11 21  2  0
 12 13  2  0
 12 11  1  0
 13 14  1  0
 14 15  1  0
 14 20  2  0
 16 15  1  1
 16 18  1  0
 16 17  1  0
 17  8  1  0
 18 19  2  0
 21 20  1  0
 22 23  1  0
 22 18  1  0
 23 24  1  6
 24 25  1  0
 25 26  1  0
 26 27  2  0
 28 29  1  0
 28 23  1  0
 30 26  1  0
 31 28  2  0
M  END
$$$$
