KYE.pdb
     RDKit          3D

 31 31  0  0  1  0  0  0  0  0999 V2000
    8.2549  -18.7051   19.3576 N   0  0  0  0  0  0  0  0  0  0  0  0
    9.5625  -18.0920   19.2683 C   0  0  1  0  0  0  0  0  0  0  0  0
    9.5576  -17.1708   18.0545 C   0  0  0  0  0  0  0  0  0  0  0  0
    9.3613  -18.0078   16.8106 C   0  0  0  0  0  0  0  0  0  0  0  0
    8.7720  -17.2299   15.6797 C   0  0  0  0  0  0  0  0  0  0  0  0
    8.5961  -18.0301   14.4273 C   0  0  0  0  0  0  0  0  0  0  0  0
    7.9997  -17.1352   13.4294 N   0  0  0  0  0  0  0  0  0  0  0  0
    9.7994  -17.3284   20.5173 C   0  0  0  0  0  0  0  0  0  0  0  0
   10.8757  -16.6924   20.6574 O   0  0  0  0  0  0  0  0  0  0  0  0
    7.2225  -11.6563   18.8890 O   0  0  0  0  0  0  0  0  0  0  0  0
    7.3845  -12.6186   19.8945 C   0  0  0  0  0  0  0  0  0  0  0  0
    6.6113  -13.7582   19.9266 C   0  0  0  0  0  0  0  0  0  0  0  0
    6.7712  -14.7129   20.9231 C   0  0  0  0  0  0  0  0  0  0  0  0
    7.7054  -14.5708   21.9250 C   0  0  0  0  0  0  0  0  0  0  0  0
    7.9121  -15.5658   23.0098 C   0  0  0  0  0  0  0  0  0  0  0  0
    9.1009  -16.4723   22.7388 C   0  0  2  0  0  0  0  0  0  0  0  0
    8.8342  -17.2978   21.5652 N   0  0  0  0  0  0  0  0  0  0  0  0
    9.4240  -17.3249   23.9060 C   0  0  0  0  0  0  0  0  0  0  0  0
    8.6531  -18.2036   24.3176 O   0  0  0  0  0  0  0  0  0  0  0  0
    8.4800  -13.4136   21.8797 C   0  0  0  0  0  0  0  0  0  0  0  0
    8.3226  -12.4663   20.8924 C   0  0  0  0  0  0  0  0  0  0  0  0
   10.6649  -17.1197   24.5652 N   0  0  0  0  0  0  0  0  0  0  0  0
   11.1913  -18.1325   25.4490 C   0  0  1  0  0  0  0  0  0  0  0  0
   12.6988  -18.2540   25.2468 C   0  0  0  0  0  0  0  0  0  0  0  0
   13.1742  -19.3793   26.1073 C   0  0  0  0  0  0  0  0  0  0  0  0
   14.6340  -19.5969   26.0136 C   0  0  0  0  0  0  0  0  0  0  0  0
   15.3577  -18.8922   25.2937 O   0  0  0  0  0  0  0  0  0  0  0  0
   10.9929  -17.8541   26.8806 C   0  0  0  0  0  0  0  0  0  0  0  0
   10.9273  -16.5410   27.3008 O   0  0  0  0  0  0  0  0  0  0  0  0
   15.2009  -20.6183   26.7535 O   0  0  0  0  0  0  0  0  0  0  0  0
   10.8882  -18.8074   27.6839 O   0  0  0  0  0  0  0  0  0  0  0  0
  2  3  1  0
  2  1  1  1
  3  4  1  0
  4  5  1  0
  5  6  1  0
  6  7  1  0
  8  2  1  0
  8  9  2  0
 10 11  1  0
 11 21  2  0
 12 13  2  0
 12 11  1  0
 13 14  1  0
 14 15  1  0
 14 20  2  0
 16 15  1  1
 16 18  1  0
 16 17  1  0
 17  8  1  0
 18 19  2  0
 21 20  1  0
 22 23  1  0
 22 18  1  0
 23 24  1  1
 24 25  1  0
 25 26  1  0
 26 27  2  0
 28 29  1  0
 28 23  1  0
 30 26  1  0
 31 28  2  0
M  END
$$$$
