KYE.pdb
     RDKit          3D

 31 31  0  0  1  0  0  0  0  0999 V2000
    6.7542  -15.0420   20.4361 N   0  0  0  0  0  0  0  0  0  0  0  0
    8.0570  -14.4219   20.3277 C   0  0  1  0  0  0  0  0  0  0  0  0
    7.8503  -13.0017   19.8154 C   0  0  0  0  0  0  0  0  0  0  0  0
    7.3010  -13.0685   18.4083 C   0  0  0  0  0  0  0  0  0  0  0  0
    8.1522  -13.8898   17.4959 C   0  0  0  0  0  0  0  0  0  0  0  0
    7.6991  -13.8677   16.0697 C   0  0  0  0  0  0  0  0  0  0  0  0
    8.6091  -14.7403   15.3193 N   0  0  0  0  0  0  0  0  0  0  0  0
    8.6790  -14.4187   21.6740 C   0  0  0  0  0  0  0  0  0  0  0  0
    9.8769  -14.0557   21.7999 O   0  0  0  0  0  0  0  0  0  0  0  0
   10.4702  -14.4825   30.2765 O   0  0  0  0  0  0  0  0  0  0  0  0
    9.8016  -14.5081   29.0454 C   0  0  0  0  0  0  0  0  0  0  0  0
    9.2208  -15.6629   28.5695 C   0  0  0  0  0  0  0  0  0  0  0  0
    8.5577  -15.6893   27.3490 C   0  0  0  0  0  0  0  0  0  0  0  0
    8.4470  -14.5688   26.5558 C   0  0  0  0  0  0  0  0  0  0  0  0
    7.7467  -14.5500   25.2447 C   0  0  0  0  0  0  0  0  0  0  0  0
    8.6628  -14.9447   24.0986 C   0  0  2  0  0  0  0  0  0  0  0  0
    7.9500  -14.8180   22.8315 N   0  0  0  0  0  0  0  0  0  0  0  0
    9.1885  -16.3201   24.2590 C   0  0  0  0  0  0  0  0  0  0  0  0
    8.4533  -17.3173   24.2311 O   0  0  0  0  0  0  0  0  0  0  0  0
    9.0390  -13.4084   27.0497 C   0  0  0  0  0  0  0  0  0  0  0  0
    9.6967  -13.3809   28.2595 C   0  0  0  0  0  0  0  0  0  0  0  0
   10.5859  -16.4876   24.4477 N   0  0  0  0  0  0  0  0  0  0  0  0
   11.1391  -17.8092   24.6249 C   0  0  1  0  0  0  0  0  0  0  0  0
   12.4260  -17.9374   23.8152 C   0  0  0  0  0  0  0  0  0  0  0  0
   12.0749  -17.7062   22.3813 C   0  0  0  0  0  0  0  0  0  0  0  0
   13.2496  -17.7682   21.4851 C   0  0  0  0  0  0  0  0  0  0  0  0
   14.3786  -18.0676   21.9027 O   0  0  0  0  0  0  0  0  0  0  0  0
   11.4968  -18.1382   26.0142 C   0  0  0  0  0  0  0  0  0  0  0  0
   11.9524  -19.4091   26.3013 O   0  0  0  0  0  0  0  0  0  0  0  0
   13.0757  -17.4826   20.1434 O   0  0  0  0  0  0  0  0  0  0  0  0
   11.3814  -17.2648   26.9024 O   0  0  0  0  0  0  0  0  0  0  0  0
  2  3  1  0
  2  1  1  1
  3  4  1  0
  4  5  1  0
  5  6  1  0
  6  7  1  0
  8  2  1  0
  8  9  2  0
 10 11  1  0
 11 21  2  0
 12 13  2  0
 12 11  1  0
 13 14  1  0
 14 15  1  0
 14 20  2  0
 16 15  1  1
 16 18  1  0
 16 17  1  0
 17  8  1  0
 18 19  2  0
 21 20  1  0
 22 23  1  0
 22 18  1  0
 23 24  1  6
 24 25  1  0
 25 26  1  0
 26 27  2  0
 28 29  1  0
 28 23  1  0
 30 26  1  0
 31 28  2  0
M  END
$$$$
