KYE.pdb
     RDKit          3D

 31 31  0  0  1  0  0  0  0  0999 V2000
    7.0883  -17.4016   20.6086 N   0  0  0  0  0  0  0  0  0  0  0  0
    8.3246  -16.7437   20.2449 C   0  0  1  0  0  0  0  0  0  0  0  0
    7.9843  -15.6402   19.2506 C   0  0  0  0  0  0  0  0  0  0  0  0
    7.7665  -16.2630   17.8901 C   0  0  0  0  0  0  0  0  0  0  0  0
    8.5388  -15.5760   16.8117 C   0  0  0  0  0  0  0  0  0  0  0  0
    8.1948  -16.0466   15.4333 C   0  0  0  0  0  0  0  0  0  0  0  0
    8.9856  -15.2398   14.4972 N   0  0  0  0  0  0  0  0  0  0  0  0
    8.9284  -16.1836   21.4782 C   0  0  0  0  0  0  0  0  0  0  0  0
   10.0833  -15.6872   21.4299 O   0  0  0  0  0  0  0  0  0  0  0  0
   10.4811  -13.6439   29.8148 O   0  0  0  0  0  0  0  0  0  0  0  0
    9.8568  -14.0419   28.6252 C   0  0  0  0  0  0  0  0  0  0  0  0
    9.5624  -13.1338   27.6321 C   0  0  0  0  0  0  0  0  0  0  0  0
    8.9434  -13.5274   26.4523 C   0  0  0  0  0  0  0  0  0  0  0  0
    8.5938  -14.8383   26.2152 C   0  0  0  0  0  0  0  0  0  0  0  0
    7.9318  -15.3049   24.9688 C   0  0  0  0  0  0  0  0  0  0  0  0
    8.9341  -15.7648   23.9237 C   0  0  2  0  0  0  0  0  0  0  0  0
    8.2295  -16.1944   22.7200 N   0  0  0  0  0  0  0  0  0  0  0  0
    9.8009  -16.8539   24.4299 C   0  0  0  0  0  0  0  0  0  0  0  0
    9.3851  -18.0100   24.5916 O   0  0  0  0  0  0  0  0  0  0  0  0
    8.8976  -15.7454   27.2282 C   0  0  0  0  0  0  0  0  0  0  0  0
    9.5112  -15.3566   28.3982 C   0  0  0  0  0  0  0  0  0  0  0  0
   11.1542  -16.5494   24.7339 N   0  0  0  0  0  0  0  0  0  0  0  0
   12.0622  -17.6008   25.1265 C   0  0  1  0  0  0  0  0  0  0  0  0
   13.4835  -17.2295   24.7138 C   0  0  0  0  0  0  0  0  0  0  0  0
   13.4751  -17.0106   23.2357 C   0  0  0  0  0  0  0  0  0  0  0  0
   14.8149  -16.6962   22.6940 C   0  0  0  0  0  0  0  0  0  0  0  0
   15.4667  -17.5212   22.0358 O   0  0  0  0  0  0  0  0  0  0  0  0
   12.1110  -17.8534   26.5756 C   0  0  0  0  0  0  0  0  0  0  0  0
   12.9015  -18.8825   27.0459 O   0  0  0  0  0  0  0  0  0  0  0  0
   15.3494  -15.4436   22.9329 O   0  0  0  0  0  0  0  0  0  0  0  0
   11.4391  -17.1347   27.3483 O   0  0  0  0  0  0  0  0  0  0  0  0
  2  3  1  0
  2  1  1  1
  3  4  1  0
  4  5  1  0
  5  6  1  0
  6  7  1  0
  8  2  1  0
  8  9  2  0
 10 11  1  0
 11 21  2  0
 12 13  2  0
 12 11  1  0
 13 14  1  0
 14 15  1  0
 14 20  2  0
 16 15  1  1
 16 18  1  0
 16 17  1  0
 17  8  1  0
 18 19  2  0
 21 20  1  0
 22 23  1  0
 22 18  1  0
 23 24  1  1
 24 25  1  0
 25 26  1  0
 26 27  2  0
 28 29  1  0
 28 23  1  0
 30 26  1  0
 31 28  2  0
M  END
$$$$
