KYE.pdb
     RDKit          3D

 31 31  0  0  1  0  0  0  0  0999 V2000
    7.2913  -15.7915   19.7104 N   0  0  0  0  0  0  0  0  0  0  0  0
    8.4554  -14.9337   19.7650 C   0  0  1  0  0  0  0  0  0  0  0  0
    8.1191  -13.6521   19.0122 C   0  0  0  0  0  0  0  0  0  0  0  0
    7.2368  -13.9985   17.8341 C   0  0  0  0  0  0  0  0  0  0  0  0
    7.9619  -13.9249   16.5301 C   0  0  0  0  0  0  0  0  0  0  0  0
    7.0966  -14.2169   15.3444 C   0  0  0  0  0  0  0  0  0  0  0  0
    7.9696  -14.2025   14.1653 N   0  0  0  0  0  0  0  0  0  0  0  0
    8.7543  -14.6531   21.1901 C   0  0  0  0  0  0  0  0  0  0  0  0
    9.8715  -14.1664   21.5025 O   0  0  0  0  0  0  0  0  0  0  0  0
    8.3938  -13.3653   29.9054 O   0  0  0  0  0  0  0  0  0  0  0  0
    8.0526  -13.5978   28.5665 C   0  0  0  0  0  0  0  0  0  0  0  0
    7.9802  -12.5665   27.6562 C   0  0  0  0  0  0  0  0  0  0  0  0
    7.6419  -12.7961   26.3284 C   0  0  0  0  0  0  0  0  0  0  0  0
    7.3630  -14.0592   25.8556 C   0  0  0  0  0  0  0  0  0  0  0  0
    6.9981  -14.3519   24.4446 C   0  0  0  0  0  0  0  0  0  0  0  0
    8.2053  -14.7410   23.6082 C   0  0  2  0  0  0  0  0  0  0  0  0
    7.8035  -14.9223   22.2169 N   0  0  0  0  0  0  0  0  0  0  0  0
    8.8606  -15.9670   24.1193 C   0  0  0  0  0  0  0  0  0  0  0  0
    8.3240  -17.0820   24.0515 O   0  0  0  0  0  0  0  0  0  0  0  0
    7.4401  -15.0922   26.7873 C   0  0  0  0  0  0  0  0  0  0  0  0
    7.7753  -14.8660   28.1039 C   0  0  0  0  0  0  0  0  0  0  0  0
   10.1499  -15.8467   24.7023 N   0  0  0  0  0  0  0  0  0  0  0  0
   10.8409  -17.0208   25.1797 C   0  0  1  0  0  0  0  0  0  0  0  0
   12.3166  -16.9346   24.8013 C   0  0  0  0  0  0  0  0  0  0  0  0
   12.4029  -17.0551   23.3145 C   0  0  0  0  0  0  0  0  0  0  0  0
   13.7940  -17.0117   22.8144 C   0  0  0  0  0  0  0  0  0  0  0  0
   14.6213  -16.1945   23.2460 O   0  0  0  0  0  0  0  0  0  0  0  0
   10.8039  -17.1971   26.6404 C   0  0  0  0  0  0  0  0  0  0  0  0
   11.4020  -18.3122   27.1919 O   0  0  0  0  0  0  0  0  0  0  0  0
   14.1754  -17.9120   21.8367 O   0  0  0  0  0  0  0  0  0  0  0  0
   10.2345  -16.3381   27.3495 O   0  0  0  0  0  0  0  0  0  0  0  0
  2  3  1  0
  2  1  1  1
  3  4  1  0
  4  5  1  0
  5  6  1  0
  6  7  1  0
  8  2  1  0
  8  9  2  0
 10 11  1  0
 11 21  2  0
 12 13  2  0
 12 11  1  0
 13 14  1  0
 14 15  1  0
 14 20  2  0
 16 15  1  1
 16 18  1  0
 16 17  1  0
 17  8  1  0
 18 19  2  0
 21 20  1  0
 22 23  1  0
 22 18  1  0
 23 24  1  1
 24 25  1  0
 25 26  1  0
 26 27  2  0
 28 29  1  0
 28 23  1  0
 30 26  1  0
 31 28  2  0
M  END
$$$$
