KYE.pdb
     RDKit          3D

 31 31  0  0  1  0  0  0  0  0999 V2000
    7.1042  -15.7237   20.4758 N   0  0  0  0  0  0  0  0  0  0  0  0
    8.4768  -15.3005   20.3010 C   0  0  1  0  0  0  0  0  0  0  0  0
    8.4607  -14.0018   19.5041 C   0  0  0  0  0  0  0  0  0  0  0  0
    7.3404  -14.0680   18.4908 C   0  0  0  0  0  0  0  0  0  0  0  0
    7.5606  -13.1562   17.3281 C   0  0  0  0  0  0  0  0  0  0  0  0
    8.1756  -13.8320   16.1428 C   0  0  0  0  0  0  0  0  0  0  0  0
    8.2894  -12.8204   15.0863 N   0  0  0  0  0  0  0  0  0  0  0  0
    9.0701  -15.0952   21.6446 C   0  0  0  0  0  0  0  0  0  0  0  0
   10.2596  -14.6972   21.7401 O   0  0  0  0  0  0  0  0  0  0  0  0
   10.3724  -14.7610   30.4092 O   0  0  0  0  0  0  0  0  0  0  0  0
    9.7821  -14.8358   29.1406 C   0  0  0  0  0  0  0  0  0  0  0  0
    9.5319  -13.7023   28.3990 C   0  0  0  0  0  0  0  0  0  0  0  0
    8.9466  -13.7755   27.1411 C   0  0  0  0  0  0  0  0  0  0  0  0
    8.5882  -14.9779   26.5732 C   0  0  0  0  0  0  0  0  0  0  0  0
    7.9612  -15.1042   25.2313 C   0  0  0  0  0  0  0  0  0  0  0  0
    8.9944  -15.2065   24.1220 C   0  0  2  0  0  0  0  0  0  0  0  0
    8.3226  -15.3387   22.8332 N   0  0  0  0  0  0  0  0  0  0  0  0
    9.9259  -16.3379   24.3362 C   0  0  0  0  0  0  0  0  0  0  0  0
    9.5607  -17.5197   24.2601 O   0  0  0  0  0  0  0  0  0  0  0  0
    8.8472  -16.1156   27.3346 C   0  0  0  0  0  0  0  0  0  0  0  0
    9.4273  -16.0445   28.5817 C   0  0  0  0  0  0  0  0  0  0  0  0
   11.2825  -16.0440   24.6357 N   0  0  0  0  0  0  0  0  0  0  0  0
   12.2667  -17.1000   24.6464 C   0  0  1  0  0  0  0  0  0  0  0  0
   13.5500  -16.6096   23.9825 C   0  0  0  0  0  0  0  0  0  0  0  0
   14.4982  -17.7637   23.9393 C   0  0  0  0  0  0  0  0  0  0  0  0
   15.7930  -17.4201   23.3128 C   0  0  0  0  0  0  0  0  0  0  0  0
   16.5514  -18.2883   22.8549 O   0  0  0  0  0  0  0  0  0  0  0  0
   12.6525  -17.5590   25.9906 C   0  0  0  0  0  0  0  0  0  0  0  0
   13.1203  -18.8483   26.1452 O   0  0  0  0  0  0  0  0  0  0  0  0
   16.1617  -16.0895   23.2394 O   0  0  0  0  0  0  0  0  0  0  0  0
   12.5495  -16.7763   26.9610 O   0  0  0  0  0  0  0  0  0  0  0  0
  2  3  1  0
  2  1  1  1
  3  4  1  0
  4  5  1  0
  5  6  1  0
  6  7  1  0
  8  2  1  0
  8  9  2  0
 10 11  1  0
 11 21  2  0
 12 13  2  0
 12 11  1  0
 13 14  1  0
 14 15  1  0
 14 20  2  0
 16 15  1  1
 16 18  1  0
 16 17  1  0
 17  8  1  0
 18 19  2  0
 21 20  1  0
 22 23  1  0
 22 18  1  0
 23 24  1  1
 24 25  1  0
 25 26  1  0
 26 27  2  0
 28 29  1  0
 28 23  1  0
 30 26  1  0
 31 28  2  0
M  END
$$$$
