KYE.pdb
     RDKit          3D

 31 31  0  0  1  0  0  0  0  0999 V2000
    8.2773  -12.8838   19.0574 N   0  0  0  0  0  0  0  0  0  0  0  0
    7.5842  -13.9379   19.7661 C   0  0  1  0  0  0  0  0  0  0  0  0
    7.5566  -15.1622   18.8591 C   0  0  0  0  0  0  0  0  0  0  0  0
    8.4294  -14.8932   17.6541 C   0  0  0  0  0  0  0  0  0  0  0  0
    8.4164  -16.0177   16.6708 C   0  0  0  0  0  0  0  0  0  0  0  0
    9.3349  -15.8093   15.5077 C   0  0  0  0  0  0  0  0  0  0  0  0
    9.1021  -16.9186   14.5761 N   0  0  0  0  0  0  0  0  0  0  0  0
    8.3281  -14.2176   21.0181 C   0  0  0  0  0  0  0  0  0  0  0  0
    9.4606  -13.6984   21.1926 O   0  0  0  0  0  0  0  0  0  0  0  0
    5.8047  -10.3908   27.3482 O   0  0  0  0  0  0  0  0  0  0  0  0
    6.1329  -11.5399   26.6166 C   0  0  0  0  0  0  0  0  0  0  0  0
    7.3187  -11.6323   25.9218 C   0  0  0  0  0  0  0  0  0  0  0  0
    7.6451  -12.7711   25.1961 C   0  0  0  0  0  0  0  0  0  0  0  0
    6.8051  -13.8607   25.1338 C   0  0  0  0  0  0  0  0  0  0  0  0
    7.1129  -15.0993   24.3716 C   0  0  0  0  0  0  0  0  0  0  0  0
    8.2658  -14.9050   23.4013 C   0  0  2  0  0  0  0  0  0  0  0  0
    7.7890  -15.0627   22.0310 N   0  0  0  0  0  0  0  0  0  0  0  0
    9.3798  -15.8432   23.6706 C   0  0  0  0  0  0  0  0  0  0  0  0
    9.8800  -15.9710   24.7972 O   0  0  0  0  0  0  0  0  0  0  0  0
    5.6096  -13.7531   25.8411 C   0  0  0  0  0  0  0  0  0  0  0  0
    5.2849  -12.6247   26.5609 C   0  0  0  0  0  0  0  0  0  0  0  0
    9.8804  -16.6193   22.5920 N   0  0  0  0  0  0  0  0  0  0  0  0
   10.9801  -17.5300   22.8046 C   0  0  1  0  0  0  0  0  0  0  0  0
   12.2661  -16.9144   22.2611 C   0  0  0  0  0  0  0  0  0  0  0  0
   13.3469  -17.9350   22.4124 C   0  0  0  0  0  0  0  0  0  0  0  0
   14.5153  -17.6670   21.5462 C   0  0  0  0  0  0  0  0  0  0  0  0
   14.7657  -18.3608   20.5489 O   0  0  0  0  0  0  0  0  0  0  0  0
   11.2445  -17.8458   24.2177 C   0  0  0  0  0  0  0  0  0  0  0  0
   11.4819  -19.1581   24.5735 O   0  0  0  0  0  0  0  0  0  0  0  0
   15.3481  -16.6102   21.8646 O   0  0  0  0  0  0  0  0  0  0  0  0
   11.2488  -16.9242   25.0636 O   0  0  0  0  0  0  0  0  0  0  0  0
  2  3  1  0
  2  1  1  6
  3  4  1  0
  4  5  1  0
  5  6  1  0
  6  7  1  0
  8  2  1  0
  8  9  2  0
 10 11  1  0
 11 21  2  0
 12 13  2  0
 12 11  1  0
 13 14  1  0
 14 15  1  0
 14 20  2  0
 16 15  1  1
 16 18  1  0
 16 17  1  0
 17  8  1  0
 18 19  2  0
 21 20  1  0
 22 23  1  0
 22 18  1  0
 23 24  1  1
 24 25  1  0
 25 26  1  0
 26 27  2  0
 28 29  1  0
 28 23  1  0
 30 26  1  0
 31 28  2  0
M  END
$$$$
