KYE.pdb
     RDKit          3D

 31 31  0  0  1  0  0  0  0  0999 V2000
    7.7011  -18.1563   19.2625 N   0  0  0  0  0  0  0  0  0  0  0  0
    9.1065  -17.9031   19.4961 C   0  0  1  0  0  0  0  0  0  0  0  0
    9.6792  -17.2797   18.2291 C   0  0  0  0  0  0  0  0  0  0  0  0
    9.4890  -18.2476   17.0831 C   0  0  0  0  0  0  0  0  0  0  0  0
   10.4005  -17.9658   15.9336 C   0  0  0  0  0  0  0  0  0  0  0  0
   10.2063  -18.8897   14.7724 C   0  0  0  0  0  0  0  0  0  0  0  0
   11.1121  -18.4370   13.7108 N   0  0  0  0  0  0  0  0  0  0  0  0
    9.2222  -16.9753   20.6472 C   0  0  0  0  0  0  0  0  0  0  0  0
   10.3612  -16.5929   21.0200 O   0  0  0  0  0  0  0  0  0  0  0  0
    7.4647  -11.8285   27.6344 O   0  0  0  0  0  0  0  0  0  0  0  0
    7.3365  -12.6061   26.4758 C   0  0  0  0  0  0  0  0  0  0  0  0
    6.6153  -13.7797   26.4769 C   0  0  0  0  0  0  0  0  0  0  0  0
    6.4876  -14.5513   25.3287 C   0  0  0  0  0  0  0  0  0  0  0  0
    7.0720  -14.1855   24.1364 C   0  0  0  0  0  0  0  0  0  0  0  0
    6.9614  -14.9785   22.8840 C   0  0  0  0  0  0  0  0  0  0  0  0
    8.2594  -15.6881   22.5371 C   0  0  2  0  0  0  0  0  0  0  0  0
    8.0707  -16.5053   21.3428 N   0  0  0  0  0  0  0  0  0  0  0  0
    8.7516  -16.5207   23.6589 C   0  0  0  0  0  0  0  0  0  0  0  0
    8.1425  -17.5246   24.0551 O   0  0  0  0  0  0  0  0  0  0  0  0
    7.7981  -12.9965   24.1503 C   0  0  0  0  0  0  0  0  0  0  0  0
    7.9255  -12.2306   25.2878 C   0  0  0  0  0  0  0  0  0  0  0  0
    9.9664  -16.1458   24.2914 N   0  0  0  0  0  0  0  0  0  0  0  0
   10.5868  -17.0300   25.2491 C   0  0  1  0  0  0  0  0  0  0  0  0
   12.1001  -17.0135   25.0546 C   0  0  0  0  0  0  0  0  0  0  0  0
   12.6886  -17.9483   26.0609 C   0  0  0  0  0  0  0  0  0  0  0  0
   14.1570  -18.0744   25.9380 C   0  0  0  0  0  0  0  0  0  0  0  0
   14.6975  -19.1337   25.5853 O   0  0  0  0  0  0  0  0  0  0  0  0
   10.3522  -16.6652   26.6555 C   0  0  0  0  0  0  0  0  0  0  0  0
   10.3723  -17.6588   27.6134 O   0  0  0  0  0  0  0  0  0  0  0  0
   14.9434  -16.9743   26.2266 O   0  0  0  0  0  0  0  0  0  0  0  0
   10.1404  -15.4689   26.9536 O   0  0  0  0  0  0  0  0  0  0  0  0
  2  3  1  0
  2  1  1  6
  3  4  1  0
  4  5  1  0
  5  6  1  0
  6  7  1  0
  8  2  1  0
  8  9  2  0
 10 11  1  0
 11 21  2  0
 12 13  2  0
 12 11  1  0
 13 14  1  0
 14 15  1  0
 14 20  2  0
 16 15  1  1
 16 18  1  0
 16 17  1  0
 17  8  1  0
 18 19  2  0
 21 20  1  0
 22 23  1  0
 22 18  1  0
 23 24  1  6
 24 25  1  0
 25 26  1  0
 26 27  2  0
 28 29  1  0
 28 23  1  0
 30 26  1  0
 31 28  2  0
M  END
$$$$
