KYE.pdb
     RDKit          3D

 31 31  0  0  1  0  0  0  0  0999 V2000
    7.0064  -15.8600   19.9801 N   0  0  0  0  0  0  0  0  0  0  0  0
    8.2296  -15.0877   19.9475 C   0  0  1  0  0  0  0  0  0  0  0  0
    7.8988  -13.7255   19.3498 C   0  0  0  0  0  0  0  0  0  0  0  0
    7.2431  -13.9327   18.0031 C   0  0  0  0  0  0  0  0  0  0  0  0
    8.1559  -13.6174   16.8634 C   0  0  0  0  0  0  0  0  0  0  0  0
    7.5439  -13.8589   15.5191 C   0  0  0  0  0  0  0  0  0  0  0  0
    8.5890  -13.6014   14.5221 N   0  0  0  0  0  0  0  0  0  0  0  0
    8.7271  -14.9540   21.3381 C   0  0  0  0  0  0  0  0  0  0  0  0
    9.7937  -14.3230   21.5544 O   0  0  0  0  0  0  0  0  0  0  0  0
    5.9615  -10.4381   26.9576 O   0  0  0  0  0  0  0  0  0  0  0  0
    6.3458  -11.6814   26.4382 C   0  0  0  0  0  0  0  0  0  0  0  0
    7.5434  -12.2649   26.7886 C   0  0  0  0  0  0  0  0  0  0  0  0
    7.9254  -13.4976   26.2741 C   0  0  0  0  0  0  0  0  0  0  0  0
    7.1314  -14.1965   25.3921 C   0  0  0  0  0  0  0  0  0  0  0  0
    7.4985  -15.5173   24.8175 C   0  0  0  0  0  0  0  0  0  0  0  0
    8.5976  -15.4045   23.7746 C   0  0  2  0  0  0  0  0  0  0  0  0
    8.0236  -15.5248   22.4382 N   0  0  0  0  0  0  0  0  0  0  0  0
    9.6563  -16.4209   23.9742 C   0  0  0  0  0  0  0  0  0  0  0  0
    9.4476  -17.6329   23.8217 O   0  0  0  0  0  0  0  0  0  0  0  0
    5.9235  -13.5942   25.0467 C   0  0  0  0  0  0  0  0  0  0  0  0
    5.5436  -12.3723   25.5560 C   0  0  0  0  0  0  0  0  0  0  0  0
   10.9516  -15.9771   24.3507 N   0  0  0  0  0  0  0  0  0  0  0  0
   12.0240  -16.9295   24.5142 C   0  0  1  0  0  0  0  0  0  0  0  0
   13.3607  -16.2462   24.2410 C   0  0  0  0  0  0  0  0  0  0  0  0
   14.4243  -17.2904   24.3462 C   0  0  0  0  0  0  0  0  0  0  0  0
   15.7825  -16.7520   24.1166 C   0  0  0  0  0  0  0  0  0  0  0  0
   16.0628  -16.0866   23.1081 O   0  0  0  0  0  0  0  0  0  0  0  0
   12.1278  -17.5033   25.8656 C   0  0  0  0  0  0  0  0  0  0  0  0
   12.7249  -18.7380   26.0207 O   0  0  0  0  0  0  0  0  0  0  0  0
   16.7629  -17.0025   25.0589 O   0  0  0  0  0  0  0  0  0  0  0  0
   11.6756  -16.8645   26.8415 O   0  0  0  0  0  0  0  0  0  0  0  0
  2  3  1  0
  2  1  1  1
  3  4  1  0
  4  5  1  0
  5  6  1  0
  6  7  1  0
  8  2  1  0
  8  9  2  0
 10 11  1  0
 11 21  2  0
 12 13  2  0
 12 11  1  0
 13 14  1  0
 14 15  1  0
 14 20  2  0
 16 15  1  1
 16 18  1  0
 16 17  1  0
 17  8  1  0
 18 19  2  0
 21 20  1  0
 22 23  1  0
 22 18  1  0
 23 24  1  1
 24 25  1  0
 25 26  1  0
 26 27  2  0
 28 29  1  0
 28 23  1  0
 30 26  1  0
 31 28  2  0
M  END
$$$$
