MEM.pdb
     RDKit          3D

 26 25  0  0  1  0  0  0  0  0999 V2000
   26.6315  -19.7582   -7.3217 C   0  0  0  0  0  0  0  0  0  0  0  0
   27.9492  -20.3972   -8.3530 S   0  0  0  0  0  0  0  0  0  0  0  0
   27.4237  -21.2995   -9.7885 C   0  0  0  0  0  0  0  0  0  0  0  0
   26.1072  -20.8449  -10.3240 C   0  0  0  0  0  0  0  0  0  0  0  0
   25.7367  -21.5719  -11.5728 C   0  0  2  0  0  0  0  0  0  0  0  0
   26.7774  -21.3400  -12.5591 N   0  0  0  0  0  0  0  0  0  0  0  0
   24.4333  -21.0336  -12.1065 C   0  0  0  0  0  0  0  0  0  0  0  0
   24.2193  -19.8017  -12.0662 O   0  0  0  0  0  0  0  0  0  0  0  0
   23.5043  -21.9241  -12.6295 N   0  0  0  0  0  0  0  0  0  0  0  0
   22.2470  -21.3905  -13.2075 C   0  0  1  0  0  0  0  0  0  0  0  0
   22.5578  -21.0905  -14.6321 C   0  0  0  0  0  0  0  0  0  0  0  0
   23.2287  -19.8110  -14.9466 C   0  0  0  0  0  0  0  0  0  0  0  0
   22.1799  -18.7242  -14.9101 C   0  0  0  0  0  0  0  0  0  0  0  0
   21.0336  -18.9350  -15.3657 O   0  0  0  0  0  0  0  0  0  0  0  0
   21.2514  -22.4457  -12.9667 C   0  0  0  0  0  0  0  0  0  0  0  0
   21.2534  -23.5735  -13.5403 O   0  0  0  0  0  0  0  0  0  0  0  0
   22.4403  -17.4720  -14.3797 O   0  0  0  0  0  0  0  0  0  0  0  0
   19.3150  -23.8243   -7.2810 C   0  0  0  0  0  0  0  0  0  0  0  0
   17.8024  -24.3309   -8.1014 S   0  0  0  0  0  0  0  0  0  0  0  0
   17.9355  -24.2665   -9.8995 C   0  0  0  0  0  0  0  0  0  0  0  0
   19.0598  -23.3526  -10.2965 C   0  0  0  0  0  0  0  0  0  0  0  0
   19.2100  -23.2669  -11.8198 C   0  0  2  0  0  0  0  0  0  0  0  0
   20.2137  -22.2181  -12.0365 N   0  0  0  0  0  0  0  0  0  0  0  0
   17.9482  -22.9385  -12.4972 C   0  0  0  0  0  0  0  0  0  0  0  0
   17.2058  -23.9572  -13.0712 O   0  0  0  0  0  0  0  0  0  0  0  0
   17.5048  -21.7696  -12.5827 O   0  0  0  0  0  0  0  0  0  0  0  0
  2  3  1  0
  2  1  1  0
  3  4  1  0
  5  4  1  0
  5  6  1  6
  7  5  1  0
  7  9  1  0
  8  7  2  0
  9 10  1  0
 10 11  1  6
 11 12  1  0
 12 13  1  0
 13 17  1  0
 13 14  2  0
 15 16  2  0
 15 10  1  0
 18 19  1  0
 20 19  1  0
 20 21  1  0
 22 21  1  1
 22 23  1  0
 22 24  1  0
 23 15  1  0
 24 25  1  0
 26 24  2  0
M  END
$$$$
