MEM.pdb
     RDKit          3D

 26 25  0  0  1  0  0  0  0  0999 V2000
   28.5078  -19.7347   -5.5468 C   0  0  0  0  0  0  0  0  0  0  0  0
   27.5183  -19.5288   -7.0255 S   0  0  0  0  0  0  0  0  0  0  0  0
   28.1923  -20.2519   -8.4999 C   0  0  0  0  0  0  0  0  0  0  0  0
   27.4491  -19.8738   -9.7374 C   0  0  0  0  0  0  0  0  0  0  0  0
   26.4233  -20.8942  -10.1005 C   0  0  2  0  0  0  0  0  0  0  0  0
   27.0733  -21.9353  -10.8771 N   0  0  0  0  0  0  0  0  0  0  0  0
   25.3495  -20.2569  -10.9456 C   0  0  0  0  0  0  0  0  0  0  0  0
   24.6110  -19.3840  -10.4381 O   0  0  0  0  0  0  0  0  0  0  0  0
   25.2106  -20.6586  -12.2681 N   0  0  0  0  0  0  0  0  0  0  0  0
   24.1806  -20.0045  -13.1111 C   0  0  1  0  0  0  0  0  0  0  0  0
   24.8982  -19.5381  -14.3291 C   0  0  0  0  0  0  0  0  0  0  0  0
   24.1097  -18.8935  -15.4011 C   0  0  0  0  0  0  0  0  0  0  0  0
   24.9208  -18.9697  -16.6734 C   0  0  0  0  0  0  0  0  0  0  0  0
   26.1650  -19.0939  -16.6246 O   0  0  0  0  0  0  0  0  0  0  0  0
   23.1566  -21.0400  -13.3154 C   0  0  0  0  0  0  0  0  0  0  0  0
   23.3748  -22.2842  -13.2416 O   0  0  0  0  0  0  0  0  0  0  0  0
   24.3299  -18.9063  -17.9240 O   0  0  0  0  0  0  0  0  0  0  0  0
   18.8253  -23.9269   -8.6536 C   0  0  0  0  0  0  0  0  0  0  0  0
   20.0998  -22.9143   -9.4074 S   0  0  0  0  0  0  0  0  0  0  0  0
   19.7906  -22.6020  -11.1572 C   0  0  0  0  0  0  0  0  0  0  0  0
   20.8732  -21.7248  -11.7190 C   0  0  0  0  0  0  0  0  0  0  0  0
   20.7288  -21.5462  -13.2348 C   0  0  2  0  0  0  0  0  0  0  0  0
   21.8311  -20.6531  -13.6110 N   0  0  0  0  0  0  0  0  0  0  0  0
   19.4310  -20.9737  -13.6179 C   0  0  0  0  0  0  0  0  0  0  0  0
   18.3859  -21.8250  -13.9364 O   0  0  0  0  0  0  0  0  0  0  0  0
   19.2196  -19.7398  -13.6718 O   0  0  0  0  0  0  0  0  0  0  0  0
  2  3  1  0
  2  1  1  0
  3  4  1  0
  5  4  1  0
  5  6  1  6
  7  5  1  0
  7  9  1  0
  8  7  2  0
  9 10  1  0
 10 11  1  6
 11 12  1  0
 12 13  1  0
 13 17  1  0
 13 14  2  0
 15 16  2  0
 15 10  1  0
 18 19  1  0
 20 19  1  0
 20 21  1  0
 22 21  1  1
 22 23  1  0
 22 24  1  0
 23 15  1  0
 24 25  1  0
 26 24  2  0
M  END
$$$$
