MEM.pdb
     RDKit          3D

 26 25  0  0  1  0  0  0  0  0999 V2000
   33.7133   -9.4225  -17.0818 C   0  0  0  0  0  0  0  0  0  0  0  0
   32.8477  -10.9876  -17.1788 S   0  0  0  0  0  0  0  0  0  0  0  0
   32.1095  -11.3537  -18.7511 C   0  0  0  0  0  0  0  0  0  0  0  0
   30.8346  -10.6166  -18.9921 C   0  0  0  0  0  0  0  0  0  0  0  0
   29.7010  -11.2048  -18.2212 C   0  0  2  0  0  0  0  0  0  0  0  0
   29.5536  -12.5940  -18.6189 N   0  0  0  0  0  0  0  0  0  0  0  0
   28.4270  -10.4681  -18.5492 C   0  0  0  0  0  0  0  0  0  0  0  0
   27.8283  -10.7291  -19.6162 O   0  0  0  0  0  0  0  0  0  0  0  0
   27.9529   -9.5175  -17.6542 N   0  0  0  0  0  0  0  0  0  0  0  0
   26.7489   -8.7306  -18.0157 C   0  0  1  0  0  0  0  0  0  0  0  0
   25.8311   -8.8457  -16.8495 C   0  0  0  0  0  0  0  0  0  0  0  0
   24.6053   -8.0189  -16.8404 C   0  0  0  0  0  0  0  0  0  0  0  0
   23.8812   -8.2899  -15.5424 C   0  0  0  0  0  0  0  0  0  0  0  0
   24.3532   -9.0969  -14.7107 O   0  0  0  0  0  0  0  0  0  0  0  0
   27.2612   -7.3839  -18.3104 C   0  0  0  0  0  0  0  0  0  0  0  0
   28.3465   -6.9178  -17.8568 O   0  0  0  0  0  0  0  0  0  0  0  0
   22.6861   -7.6664  -15.2260 O   0  0  0  0  0  0  0  0  0  0  0  0
   31.4353   -3.2774  -22.2458 C   0  0  0  0  0  0  0  0  0  0  0  0
   30.5851   -4.7166  -21.5949 S   0  0  0  0  0  0  0  0  0  0  0  0
   29.0349   -4.2926  -20.7751 C   0  0  0  0  0  0  0  0  0  0  0  0
   28.3886   -5.5343  -20.2298 C   0  0  0  0  0  0  0  0  0  0  0  0
   27.0734   -5.2189  -19.5081 C   0  0  2  0  0  0  0  0  0  0  0  0
   26.5181   -6.5311  -19.1558 N   0  0  0  0  0  0  0  0  0  0  0  0
   26.1361   -4.4559  -20.3436 C   0  0  0  0  0  0  0  0  0  0  0  0
   26.1520   -3.0722  -20.2840 O   0  0  0  0  0  0  0  0  0  0  0  0
   25.3135   -5.0002  -21.1164 O   0  0  0  0  0  0  0  0  0  0  0  0
  2  3  1  0
  2  1  1  0
  3  4  1  0
  5  4  1  0
  5  6  1  6
  7  5  1  0
  7  9  1  0
  8  7  2  0
  9 10  1  0
 10 11  1  1
 11 12  1  0
 12 13  1  0
 13 17  1  0
 13 14  2  0
 15 16  2  0
 15 10  1  0
 18 19  1  0
 20 19  1  0
 20 21  1  0
 22 21  1  6
 22 23  1  0
 22 24  1  0
 23 15  1  0
 24 25  1  0
 26 24  2  0
M  END
$$$$
