MEM.pdb
     RDKit          3D

 26 25  0  0  1  0  0  0  0  0999 V2000
   20.5635  -14.1201  -19.6177 C   0  0  0  0  0  0  0  0  0  0  0  0
   21.4032  -14.5897  -18.1069 S   0  0  0  0  0  0  0  0  0  0  0  0
   21.7216  -13.2651  -16.9690 C   0  0  0  0  0  0  0  0  0  0  0  0
   22.2439  -12.0321  -17.6274 C   0  0  0  0  0  0  0  0  0  0  0  0
   22.6770  -11.0123  -16.6286 C   0  0  2  0  0  0  0  0  0  0  0  0
   22.2791  -11.4711  -15.3092 N   0  0  0  0  0  0  0  0  0  0  0  0
   21.9923   -9.6995  -16.9131 C   0  0  0  0  0  0  0  0  0  0  0  0
   22.2523   -9.0931  -17.9759 O   0  0  0  0  0  0  0  0  0  0  0  0
   21.0891   -9.1993  -15.9837 N   0  0  0  0  0  0  0  0  0  0  0  0
   20.2997   -7.9923  -16.3296 C   0  0  1  0  0  0  0  0  0  0  0  0
   18.9867   -8.1651  -15.6498 C   0  0  0  0  0  0  0  0  0  0  0  0
   18.0019   -7.0661  -15.7420 C   0  0  0  0  0  0  0  0  0  0  0  0
   16.6731   -7.6744  -16.1250 C   0  0  0  0  0  0  0  0  0  0  0  0
   16.0648   -8.4209  -15.3259 O   0  0  0  0  0  0  0  0  0  0  0  0
   21.1262   -6.8653  -15.8721 C   0  0  0  0  0  0  0  0  0  0  0  0
   21.9644   -6.9322  -14.9267 O   0  0  0  0  0  0  0  0  0  0  0  0
   16.0846   -7.4344  -17.3551 O   0  0  0  0  0  0  0  0  0  0  0  0
   23.0073    0.6244  -17.6927 C   0  0  0  0  0  0  0  0  0  0  0  0
   22.1857   -0.9259  -18.0660 S   0  0  0  0  0  0  0  0  0  0  0  0
   22.4056   -2.1564  -16.7650 C   0  0  0  0  0  0  0  0  0  0  0  0
   21.6866   -3.4232  -17.1326 C   0  0  0  0  0  0  0  0  0  0  0  0
   21.8180   -4.4881  -16.0376 C   0  0  2  0  0  0  0  0  0  0  0  0
   21.0031   -5.6127  -16.5124 N   0  0  0  0  0  0  0  0  0  0  0  0
   21.3525   -4.0149  -14.7268 C   0  0  0  0  0  0  0  0  0  0  0  0
   22.2859   -3.6395  -13.7748 O   0  0  0  0  0  0  0  0  0  0  0  0
   20.1395   -3.9331  -14.4232 O   0  0  0  0  0  0  0  0  0  0  0  0
  2  3  1  0
  2  1  1  0
  3  4  1  0
  5  4  1  0
  5  6  1  1
  7  5  1  0
  7  9  1  0
  8  7  2  0
  9 10  1  0
 10 11  1  1
 11 12  1  0
 12 13  1  0
 13 17  1  0
 13 14  2  0
 15 16  2  0
 15 10  1  0
 18 19  1  0
 20 19  1  0
 20 21  1  0
 22 21  1  6
 22 23  1  0
 22 24  1  0
 23 15  1  0
 24 25  1  0
 26 24  2  0
M  END
$$$$
