MEM.pdb
     RDKit          3D

 26 25  0  0  1  0  0  0  0  0999 V2000
   29.5212  -21.2116  -12.6529 C   0  0  0  0  0  0  0  0  0  0  0  0
   29.7162  -21.0388  -14.4249 S   0  0  0  0  0  0  0  0  0  0  0  0
   29.3161  -19.4395  -15.0830 C   0  0  0  0  0  0  0  0  0  0  0  0
   28.1961  -18.7665  -14.3624 C   0  0  0  0  0  0  0  0  0  0  0  0
   26.8674  -19.2941  -14.7885 C   0  0  2  0  0  0  0  0  0  0  0  0
   26.4132  -18.5150  -15.9271 N   0  0  0  0  0  0  0  0  0  0  0  0
   25.8742  -19.1369  -13.6652 C   0  0  0  0  0  0  0  0  0  0  0  0
   25.4927  -17.9896  -13.3437 O   0  0  0  0  0  0  0  0  0  0  0  0
   25.4093  -20.2742  -13.0172 N   0  0  0  0  0  0  0  0  0  0  0  0
   24.4698  -20.1176  -11.8804 C   0  0  1  0  0  0  0  0  0  0  0  0
   23.2091  -20.7827  -12.3092 C   0  0  0  0  0  0  0  0  0  0  0  0
   22.0472  -19.9306  -12.6412 C   0  0  0  0  0  0  0  0  0  0  0  0
   20.8025  -20.6613  -12.1951 C   0  0  0  0  0  0  0  0  0  0  0  0
   20.8826  -21.8151  -11.7174 O   0  0  0  0  0  0  0  0  0  0  0  0
   25.1684  -20.7226  -10.7364 C   0  0  0  0  0  0  0  0  0  0  0  0
   26.0579  -21.6170  -10.8347 O   0  0  0  0  0  0  0  0  0  0  0  0
   19.5437  -20.0933  -12.2950 O   0  0  0  0  0  0  0  0  0  0  0  0
   28.7500  -19.5014   -4.0933 C   0  0  0  0  0  0  0  0  0  0  0  0
   27.8550  -18.9733   -5.5554 S   0  0  0  0  0  0  0  0  0  0  0  0
   26.9220  -20.3160   -6.3181 C   0  0  0  0  0  0  0  0  0  0  0  0
   26.3060  -19.8442   -7.6046 C   0  0  0  0  0  0  0  0  0  0  0  0
   25.5002  -20.9548   -8.2883 C   0  0  2  0  0  0  0  0  0  0  0  0
   24.8513  -20.2960   -9.4281 N   0  0  0  0  0  0  0  0  0  0  0  0
   24.5061  -21.5665   -7.3959 C   0  0  0  0  0  0  0  0  0  0  0  0
   24.9383  -22.3809   -6.3622 O   0  0  0  0  0  0  0  0  0  0  0  0
   23.2727  -21.3867   -7.5244 O   0  0  0  0  0  0  0  0  0  0  0  0
  2  3  1  0
  2  1  1  0
  3  4  1  0
  5  4  1  0
  5  6  1  6
  7  5  1  0
  7  9  1  0
  8  7  2  0
  9 10  1  0
 10 11  1  6
 11 12  1  0
 12 13  1  0
 13 17  1  0
 13 14  2  0
 15 16  2  0
 15 10  1  0
 18 19  1  0
 20 19  1  0
 20 21  1  0
 22 21  1  1
 22 23  1  0
 22 24  1  0
 23 15  1  0
 24 25  1  0
 26 24  2  0
M  END
$$$$
