MEM.pdb
     RDKit          3D

 26 25  0  0  1  0  0  0  0  0999 V2000
   27.8909  -26.1391  -15.3454 C   0  0  0  0  0  0  0  0  0  0  0  0
   28.9548  -25.9272  -16.7706 S   0  0  0  0  0  0  0  0  0  0  0  0
   28.6105  -24.5033  -17.7733 C   0  0  0  0  0  0  0  0  0  0  0  0
   27.9126  -23.4125  -17.0320 C   0  0  0  0  0  0  0  0  0  0  0  0
   27.6702  -22.2221  -17.8978 C   0  0  2  0  0  0  0  0  0  0  0  0
   28.9571  -21.6554  -18.2616 N   0  0  0  0  0  0  0  0  0  0  0  0
   26.8835  -21.1886  -17.1321 C   0  0  0  0  0  0  0  0  0  0  0  0
   27.4898  -20.3934  -16.3804 O   0  0  0  0  0  0  0  0  0  0  0  0
   25.5034  -21.1487  -17.2840 N   0  0  0  0  0  0  0  0  0  0  0  0
   24.7355  -20.0922  -16.5812 C   0  0  1  0  0  0  0  0  0  0  0  0
   23.6787  -19.6630  -17.5377 C   0  0  0  0  0  0  0  0  0  0  0  0
   22.6695  -18.6875  -17.0727 C   0  0  0  0  0  0  0  0  0  0  0  0
   21.4233  -19.4591  -16.7063 C   0  0  0  0  0  0  0  0  0  0  0  0
   21.0854  -19.5838  -15.5079 O   0  0  0  0  0  0  0  0  0  0  0  0
   24.2705  -20.7340  -15.3425 C   0  0  0  0  0  0  0  0  0  0  0  0
   23.9025  -21.9417  -15.2587 O   0  0  0  0  0  0  0  0  0  0  0  0
   20.6183  -20.0494  -17.6658 O   0  0  0  0  0  0  0  0  0  0  0  0
   24.8985  -21.7731   -7.9927 C   0  0  0  0  0  0  0  0  0  0  0  0
   25.3691  -21.1459   -9.6062 S   0  0  0  0  0  0  0  0  0  0  0  0
   24.0214  -20.2736  -10.4295 C   0  0  0  0  0  0  0  0  0  0  0  0
   24.4639  -19.8172  -11.7907 C   0  0  0  0  0  0  0  0  0  0  0  0
   23.8123  -20.6435  -12.9054 C   0  0  2  0  0  0  0  0  0  0  0  0
   24.2236  -19.9809  -14.1489 N   0  0  0  0  0  0  0  0  0  0  0  0
   22.3481  -20.6936  -12.7931 C   0  0  0  0  0  0  0  0  0  0  0  0
   21.5886  -19.7352  -13.4436 O   0  0  0  0  0  0  0  0  0  0  0  0
   21.7450  -21.5698  -12.1309 O   0  0  0  0  0  0  0  0  0  0  0  0
  2  3  1  0
  2  1  1  0
  3  4  1  0
  5  4  1  0
  5  6  1  1
  7  5  1  0
  7  9  1  0
  8  7  2  0
  9 10  1  0
 10 11  1  6
 11 12  1  0
 12 13  1  0
 13 17  1  0
 13 14  2  0
 15 16  2  0
 15 10  1  0
 18 19  1  0
 20 19  1  0
 20 21  1  0
 22 21  1  1
 22 23  1  0
 22 24  1  0
 23 15  1  0
 24 25  1  0
 26 24  2  0
M  END
$$$$
