MEM.pdb
     RDKit          3D

 26 25  0  0  1  0  0  0  0  0999 V2000
   32.7226  -21.2045   -9.8233 C   0  0  0  0  0  0  0  0  0  0  0  0
   32.1297  -22.6695  -10.6661 S   0  0  0  0  0  0  0  0  0  0  0  0
   31.7184  -22.4491  -12.3788 C   0  0  0  0  0  0  0  0  0  0  0  0
   30.5034  -21.6097  -12.5922 C   0  0  0  0  0  0  0  0  0  0  0  0
   30.2752  -21.3236  -14.0384 C   0  0  2  0  0  0  0  0  0  0  0  0
   31.3380  -20.4488  -14.5016 N   0  0  0  0  0  0  0  0  0  0  0  0
   28.9543  -20.6183  -14.2147 C   0  0  0  0  0  0  0  0  0  0  0  0
   28.8217  -19.4529  -13.7797 O   0  0  0  0  0  0  0  0  0  0  0  0
   27.9189  -21.2850  -14.8574 N   0  0  0  0  0  0  0  0  0  0  0  0
   26.6178  -20.5937  -15.0271 C   0  0  1  0  0  0  0  0  0  0  0  0
   26.2706  -20.7431  -16.4669 C   0  0  0  0  0  0  0  0  0  0  0  0
   26.0852  -19.5170  -17.2721 C   0  0  0  0  0  0  0  0  0  0  0  0
   27.4215  -18.8167  -17.3522 C   0  0  0  0  0  0  0  0  0  0  0  0
   28.3979  -19.3767  -17.8989 O   0  0  0  0  0  0  0  0  0  0  0  0
   25.7193  -21.2546  -14.0688 C   0  0  0  0  0  0  0  0  0  0  0  0
   25.7771  -22.4816  -13.7651 O   0  0  0  0  0  0  0  0  0  0  0  0
   27.6163  -17.5481  -16.8326 O   0  0  0  0  0  0  0  0  0  0  0  0
   23.7109  -20.5799   -8.1784 C   0  0  0  0  0  0  0  0  0  0  0  0
   25.3722  -20.4664   -8.8456 S   0  0  0  0  0  0  0  0  0  0  0  0
   25.3863  -20.2912  -10.6412 C   0  0  0  0  0  0  0  0  0  0  0  0
   24.7930  -21.5152  -11.2790 C   0  0  0  0  0  0  0  0  0  0  0  0
   23.8539  -21.1534  -12.4355 C   0  0  2  0  0  0  0  0  0  0  0  0
   24.7171  -20.4966  -13.4244 N   0  0  0  0  0  0  0  0  0  0  0  0
   22.7574  -20.2679  -12.0207 C   0  0  0  0  0  0  0  0  0  0  0  0
   21.7039  -20.7947  -11.2919 O   0  0  0  0  0  0  0  0  0  0  0  0
   22.7268  -19.0458  -12.2962 O   0  0  0  0  0  0  0  0  0  0  0  0
  2  3  1  0
  2  1  1  0
  3  4  1  0
  5  4  1  0
  5  6  1  1
  7  5  1  0
  7  9  1  0
  8  7  2  0
  9 10  1  0
 10 11  1  6
 11 12  1  0
 12 13  1  0
 13 17  1  0
 13 14  2  0
 15 16  2  0
 15 10  1  0
 18 19  1  0
 20 19  1  0
 20 21  1  0
 22 21  1  1
 22 23  1  0
 22 24  1  0
 23 15  1  0
 24 25  1  0
 26 24  2  0
M  END
$$$$
