MEM.pdb
     RDKit          3D

 26 25  0  0  1  0  0  0  0  0999 V2000
   27.3448  -18.7354   -5.8987 C   0  0  0  0  0  0  0  0  0  0  0  0
   28.2528  -20.2779   -5.8325 S   0  0  0  0  0  0  0  0  0  0  0  0
   28.5477  -21.0562   -7.4003 C   0  0  0  0  0  0  0  0  0  0  0  0
   27.7195  -20.4922   -8.5060 C   0  0  0  0  0  0  0  0  0  0  0  0
   27.8706  -21.2761   -9.7662 C   0  0  2  0  0  0  0  0  0  0  0  0
   29.2791  -21.2999  -10.1201 N   0  0  0  0  0  0  0  0  0  0  0  0
   27.1021  -20.6060  -10.8768 C   0  0  0  0  0  0  0  0  0  0  0  0
   27.2865  -19.3887  -11.0986 O   0  0  0  0  0  0  0  0  0  0  0  0
   26.2083  -21.3620  -11.6245 N   0  0  0  0  0  0  0  0  0  0  0  0
   25.4676  -20.7086  -12.7308 C   0  0  1  0  0  0  0  0  0  0  0  0
   26.2024  -21.0720  -13.9733 C   0  0  0  0  0  0  0  0  0  0  0  0
   25.6347  -20.6471  -15.2708 C   0  0  0  0  0  0  0  0  0  0  0  0
   26.5980  -21.0751  -16.3530 C   0  0  0  0  0  0  0  0  0  0  0  0
   26.1828  -21.3301  -17.5056 O   0  0  0  0  0  0  0  0  0  0  0  0
   24.0950  -21.2230  -12.6123 C   0  0  0  0  0  0  0  0  0  0  0  0
   23.7706  -22.2433  -11.9381 O   0  0  0  0  0  0  0  0  0  0  0  0
   27.9567  -21.2004  -16.1171 O   0  0  0  0  0  0  0  0  0  0  0  0
   20.9138  -21.5159   -8.1367 C   0  0  0  0  0  0  0  0  0  0  0  0
   20.0746  -20.3118   -9.1680 S   0  0  0  0  0  0  0  0  0  0  0  0
   20.1495  -20.7305  -10.9213 C   0  0  0  0  0  0  0  0  0  0  0  0
   21.5397  -20.5015  -11.4428 C   0  0  0  0  0  0  0  0  0  0  0  0
   21.6581  -20.8748  -12.9249 C   0  0  2  0  0  0  0  0  0  0  0  0
   23.0457  -20.5540  -13.2799 N   0  0  0  0  0  0  0  0  0  0  0  0
   20.7120  -20.1375  -13.7734 C   0  0  0  0  0  0  0  0  0  0  0  0
   21.1960  -19.1782  -14.6475 O   0  0  0  0  0  0  0  0  0  0  0  0
   19.4749  -20.3350  -13.7459 O   0  0  0  0  0  0  0  0  0  0  0  0
  2  3  1  0
  2  1  1  0
  3  4  1  0
  5  4  1  0
  5  6  1  6
  7  5  1  0
  7  9  1  0
  8  7  2  0
  9 10  1  0
 10 11  1  6
 11 12  1  0
 12 13  1  0
 13 17  1  0
 13 14  2  0
 15 16  2  0
 15 10  1  0
 18 19  1  0
 20 19  1  0
 20 21  1  0
 22 21  1  1
 22 23  1  0
 22 24  1  0
 23 15  1  0
 24 25  1  0
 26 24  2  0
M  END
$$$$
