MEM.pdb
     RDKit          3D

 26 25  0  0  1  0  0  0  0  0999 V2000
   29.9139  -27.8395    5.7521 C   0  0  0  0  0  0  0  0  0  0  0  0
   28.1986  -27.6170    6.2171 S   0  0  0  0  0  0  0  0  0  0  0  0
   27.0357  -28.6424    5.3526 C   0  0  0  0  0  0  0  0  0  0  0  0
   27.1661  -30.0920    5.6817 C   0  0  0  0  0  0  0  0  0  0  0  0
   26.2560  -30.9324    4.8506 C   0  0  2  0  0  0  0  0  0  0  0  0
   24.9390  -30.3200    4.8583 N   0  0  0  0  0  0  0  0  0  0  0  0
   26.1530  -32.3131    5.4473 C   0  0  0  0  0  0  0  0  0  0  0  0
   25.2119  -32.5712    6.2302 O   0  0  0  0  0  0  0  0  0  0  0  0
   27.1091  -33.2624    5.1096 N   0  0  0  0  0  0  0  0  0  0  0  0
   26.9750  -34.6376    5.6486 C   0  0  1  0  0  0  0  0  0  0  0  0
   27.6084  -35.5270    4.6367 C   0  0  0  0  0  0  0  0  0  0  0  0
   27.7118  -36.9701    4.9417 C   0  0  0  0  0  0  0  0  0  0  0  0
   28.3020  -37.6519    3.7295 C   0  0  0  0  0  0  0  0  0  0  0  0
   27.8503  -38.7516    3.3390 O   0  0  0  0  0  0  0  0  0  0  0  0
   27.6255  -34.5842    6.9664 C   0  0  0  0  0  0  0  0  0  0  0  0
   28.7305  -34.0115    7.1945 O   0  0  0  0  0  0  0  0  0  0  0  0
   29.3490  -37.0966    3.0136 O   0  0  0  0  0  0  0  0  0  0  0  0
   26.7783  -31.8067   12.7863 C   0  0  0  0  0  0  0  0  0  0  0  0
   26.1077  -33.4702   12.7579 S   0  0  0  0  0  0  0  0  0  0  0  0
   27.0833  -34.5922   11.7360 C   0  0  0  0  0  0  0  0  0  0  0  0
   26.7730  -34.3620   10.2843 C   0  0  0  0  0  0  0  0  0  0  0  0
   27.6823  -35.1926    9.3713 C   0  0  2  0  0  0  0  0  0  0  0  0
   26.9992  -35.1997    8.0723 N   0  0  0  0  0  0  0  0  0  0  0  0
   27.8881  -36.5603    9.8672 C   0  0  0  0  0  0  0  0  0  0  0  0
   27.3346  -37.6211    9.1695 O   0  0  0  0  0  0  0  0  0  0  0  0
   28.5465  -36.8184   10.9016 O   0  0  0  0  0  0  0  0  0  0  0  0
  2  3  1  0
  2  1  1  0
  3  4  1  0
  5  4  1  0
  5  6  1  1
  7  5  1  0
  7  9  1  0
  8  7  2  0
  9 10  1  0
 10 11  1  6
 11 12  1  0
 12 13  1  0
 13 17  1  0
 13 14  2  0
 15 16  2  0
 15 10  1  0
 18 19  1  0
 20 19  1  0
 20 21  1  0
 22 21  1  1
 22 23  1  0
 22 24  1  0
 23 15  1  0
 24 25  1  0
 26 24  2  0
M  END
$$$$
