MEM.pdb
     RDKit          3D

 26 25  0  0  1  0  0  0  0  0999 V2000
   19.9929  -16.5595  -14.7372 C   0  0  0  0  0  0  0  0  0  0  0  0
   18.2217  -16.3918  -14.9440 S   0  0  0  0  0  0  0  0  0  0  0  0
   17.7054  -15.4572  -16.3621 C   0  0  0  0  0  0  0  0  0  0  0  0
   18.3275  -14.1030  -16.4367 C   0  0  0  0  0  0  0  0  0  0  0  0
   17.7775  -13.3027  -17.5692 C   0  0  2  0  0  0  0  0  0  0  0  0
   18.1962  -13.9271  -18.8120 N   0  0  0  0  0  0  0  0  0  0  0  0
   18.3328  -11.9019  -17.5184 C   0  0  0  0  0  0  0  0  0  0  0  0
   19.3867  -11.6401  -18.1394 O   0  0  0  0  0  0  0  0  0  0  0  0
   17.6558  -10.9388  -16.7810 N   0  0  0  0  0  0  0  0  0  0  0  0
   18.2182   -9.5686  -16.7046 C   0  0  1  0  0  0  0  0  0  0  0  0
   17.0844   -8.6932  -16.2995 C   0  0  0  0  0  0  0  0  0  0  0  0
   17.3697   -7.2735  -16.0008 C   0  0  0  0  0  0  0  0  0  0  0  0
   17.5343   -6.5536  -17.3188 C   0  0  0  0  0  0  0  0  0  0  0  0
   16.6622   -6.6573  -18.2101 O   0  0  0  0  0  0  0  0  0  0  0  0
   19.3304   -9.6774  -15.7487 C   0  0  0  0  0  0  0  0  0  0  0  0
   19.2626  -10.2843  -14.6405 O   0  0  0  0  0  0  0  0  0  0  0  0
   18.6384   -5.7630  -17.5891 O   0  0  0  0  0  0  0  0  0  0  0  0
   26.8572  -11.0242  -15.0534 C   0  0  0  0  0  0  0  0  0  0  0  0
   25.3926  -10.6689  -16.0264 S   0  0  0  0  0  0  0  0  0  0  0  0
   24.0481   -9.9927  -15.0314 C   0  0  0  0  0  0  0  0  0  0  0  0
   22.8147   -9.8393  -15.8753 C   0  0  0  0  0  0  0  0  0  0  0  0
   21.6718   -9.1802  -15.0945 C   0  0  2  0  0  0  0  0  0  0  0  0
   20.5711   -9.0792  -16.0602 N   0  0  0  0  0  0  0  0  0  0  0  0
   22.0337   -7.8579  -14.5660 C   0  0  0  0  0  0  0  0  0  0  0  0
   22.4143   -7.7429  -13.2392 O   0  0  0  0  0  0  0  0  0  0  0  0
   22.0152   -6.8169  -15.2633 O   0  0  0  0  0  0  0  0  0  0  0  0
  2  3  1  0
  2  1  1  0
  3  4  1  0
  5  4  1  0
  5  6  1  6
  7  5  1  0
  7  9  1  0
  8  7  2  0
  9 10  1  0
 10 11  1  1
 11 12  1  0
 12 13  1  0
 13 17  1  0
 13 14  2  0
 15 16  2  0
 15 10  1  0
 18 19  1  0
 20 19  1  0
 20 21  1  0
 22 21  1  6
 22 23  1  0
 22 24  1  0
 23 15  1  0
 24 25  1  0
 26 24  2  0
M  END
$$$$
