MEM.pdb
     RDKit          3D

 26 25  0  0  1  0  0  0  0  0999 V2000
   22.0179  -14.0350  -16.3287 C   0  0  0  0  0  0  0  0  0  0  0  0
   22.3640  -15.7314  -15.8699 S   0  0  0  0  0  0  0  0  0  0  0  0
   23.6192  -16.5394  -16.8303 C   0  0  0  0  0  0  0  0  0  0  0  0
   23.8503  -17.9578  -16.4285 C   0  0  0  0  0  0  0  0  0  0  0  0
   24.4362  -18.0570  -15.0602 C   0  0  2  0  0  0  0  0  0  0  0  0
   25.5140  -17.0889  -14.9562 N   0  0  0  0  0  0  0  0  0  0  0  0
   25.0022  -19.4383  -14.8486 C   0  0  0  0  0  0  0  0  0  0  0  0
   24.2914  -20.4352  -15.1053 O   0  0  0  0  0  0  0  0  0  0  0  0
   26.3012  -19.5649  -14.3731 N   0  0  0  0  0  0  0  0  0  0  0  0
   26.8507  -20.9230  -14.1426 C   0  0  1  0  0  0  0  0  0  0  0  0
   28.2324  -20.8944  -14.6958 C   0  0  0  0  0  0  0  0  0  0  0  0
   28.3988  -20.6848  -16.1500 C   0  0  0  0  0  0  0  0  0  0  0  0
   28.1577  -22.0107  -16.8331 C   0  0  0  0  0  0  0  0  0  0  0  0
   28.3815  -23.0837  -16.2295 O   0  0  0  0  0  0  0  0  0  0  0  0
   26.7348  -21.1282  -12.6911 C   0  0  0  0  0  0  0  0  0  0  0  0
   27.6983  -21.4488  -11.9361 O   0  0  0  0  0  0  0  0  0  0  0  0
   27.6870  -22.0905  -18.1328 O   0  0  0  0  0  0  0  0  0  0  0  0
   27.5594  -19.3054   -6.0080 C   0  0  0  0  0  0  0  0  0  0  0  0
   27.2094  -18.9827   -7.7374 S   0  0  0  0  0  0  0  0  0  0  0  0
   26.1265  -20.2271   -8.4681 C   0  0  0  0  0  0  0  0  0  0  0  0
   26.3230  -20.2651   -9.9571 C   0  0  0  0  0  0  0  0  0  0  0  0
   25.3547  -21.2433  -10.6321 C   0  0  2  0  0  0  0  0  0  0  0  0
   25.4794  -20.9599  -12.0668 N   0  0  0  0  0  0  0  0  0  0  0  0
   23.9676  -21.0728  -10.1787 C   0  0  0  0  0  0  0  0  0  0  0  0
   23.6322  -21.4324   -8.8838 O   0  0  0  0  0  0  0  0  0  0  0  0
   23.0621  -20.6133  -10.9130 O   0  0  0  0  0  0  0  0  0  0  0  0
  2  3  1  0
  2  1  1  0
  3  4  1  0
  5  4  1  0
  5  6  1  6
  7  5  1  0
  7  9  1  0
  8  7  2  0
  9 10  1  0
 10 11  1  1
 11 12  1  0
 12 13  1  0
 13 17  1  0
 13 14  2  0
 15 16  2  0
 15 10  1  0
 18 19  1  0
 20 19  1  0
 20 21  1  0
 22 21  1  1
 22 23  1  0
 22 24  1  0
 23 15  1  0
 24 25  1  0
 26 24  2  0
M  END
$$$$
