TGK.pdb
     RDKit          3D

 21 20  0  0  1  0  0  0  0  0999 V2000
   28.2007  -20.5555  -19.8520 C   0  0  0  0  0  0  0  0  0  0  0  0
   28.0000  -21.8441  -19.0992 C   0  0  1  0  0  0  0  0  0  0  0  0
   28.4885  -22.8725  -19.9254 O   0  0  0  0  0  0  0  0  0  0  0  0
   28.8542  -21.8668  -17.8490 C   0  0  2  0  0  0  0  0  0  0  0  0
   28.7179  -23.1705  -17.2496 N   0  0  0  0  0  0  0  0  0  0  0  0
   28.4886  -20.8316  -16.8893 C   0  0  0  0  0  0  0  0  0  0  0  0
   28.4707  -19.6023  -17.1745 O   0  0  0  0  0  0  0  0  0  0  0  0
   28.1286  -21.1862  -15.5571 N   0  0  0  0  0  0  0  0  0  0  0  0
   27.7263  -20.2038  -14.5804 C   0  0  0  0  0  0  0  0  0  0  0  0
   26.5330  -20.7048  -13.8547 C   0  0  0  0  0  0  0  0  0  0  0  0
   25.7669  -21.5487  -14.4436 O   0  0  0  0  0  0  0  0  0  0  0  0
   26.2206  -20.2796  -12.5415 N   0  0  0  0  0  0  0  0  0  0  0  0
   25.0665  -20.8820  -11.8835 C   0  0  1  0  0  0  0  0  0  0  0  0
   25.0370  -20.4910  -10.4289 C   0  0  0  0  0  0  0  0  0  0  0  0
   23.9171  -21.1712   -9.7234 C   0  0  0  0  0  0  0  0  0  0  0  0
   23.9597  -20.9293   -8.2172 C   0  0  0  0  0  0  0  0  0  0  0  0
   22.7617  -21.5435   -7.5324 C   0  0  0  0  0  0  0  0  0  0  0  0
   22.8184  -21.3966   -6.1082 N   0  0  0  0  0  0  0  0  0  0  0  0
   23.8342  -20.4078  -12.5474 C   0  0  0  0  0  0  0  0  0  0  0  0
   23.8558  -19.2214  -13.0292 O   0  0  0  0  0  0  0  0  0  0  0  0
   22.6705  -21.1242  -12.6980 O   0  0  0  0  0  0  0  0  0  0  0  0
  2  1  1  6
  2  3  1  0
  4  2  1  0
  4  5  1  1
  6  7  2  0
  6  4  1  0
  8  6  1  0
  9  8  1  0
  9 10  1  0
 10 11  2  0
 12 10  1  0
 12 13  1  0
 13 14  1  1
 14 15  1  0
 15 16  1  0
 16 17  1  0
 17 18  1  0
 19 13  1  0
 19 21  1  0
 20 19  2  0
M  END
$$$$
