TGK.pdb
     RDKit          3D

 21 20  0  0  1  0  0  0  0  0999 V2000
   24.3910  -14.0928  -16.3756 C   0  0  0  0  0  0  0  0  0  0  0  0
   25.1567  -12.9750  -17.0328 C   0  0  1  0  0  0  0  0  0  0  0  0
   25.7524  -13.5193  -18.1851 O   0  0  0  0  0  0  0  0  0  0  0  0
   24.2102  -11.8968  -17.5174 C   0  0  2  0  0  0  0  0  0  0  0  0
   24.9887  -10.9255  -18.2439 N   0  0  0  0  0  0  0  0  0  0  0  0
   23.4816  -11.2481  -16.4336 C   0  0  0  0  0  0  0  0  0  0  0  0
   22.5760  -11.8243  -15.7699 O   0  0  0  0  0  0  0  0  0  0  0  0
   23.7782   -9.9005  -16.0784 N   0  0  0  0  0  0  0  0  0  0  0  0
   23.0411   -9.1919  -15.0609 C   0  0  0  0  0  0  0  0  0  0  0  0
   22.7728   -7.8108  -15.5325 C   0  0  0  0  0  0  0  0  0  0  0  0
   23.3039   -7.4254  -16.6348 O   0  0  0  0  0  0  0  0  0  0  0  0
   21.9535   -6.9156  -14.8043 N   0  0  0  0  0  0  0  0  0  0  0  0
   21.7264   -5.5873  -15.3627 C   0  0  1  0  0  0  0  0  0  0  0  0
   20.2502   -5.3458  -15.5413 C   0  0  0  0  0  0  0  0  0  0  0  0
   20.0020   -3.9866  -16.0939 C   0  0  0  0  0  0  0  0  0  0  0  0
   18.5181   -3.7340  -16.3451 C   0  0  0  0  0  0  0  0  0  0  0  0
   18.2938   -2.3755  -16.9661 C   0  0  0  0  0  0  0  0  0  0  0  0
   16.9254   -2.1699  -17.3380 N   0  0  0  0  0  0  0  0  0  0  0  0
   22.2839   -4.5771  -14.4391 C   0  0  0  0  0  0  0  0  0  0  0  0
   22.5528   -3.4266  -14.9332 O   0  0  0  0  0  0  0  0  0  0  0  0
   22.5360   -4.7584  -13.0999 O   0  0  0  0  0  0  0  0  0  0  0  0
  2  1  1  6
  2  3  1  0
  4  2  1  0
  4  5  1  1
  6  7  2  0
  6  4  1  0
  8  6  1  0
  9  8  1  0
  9 10  1  0
 10 11  2  0
 12 10  1  0
 12 13  1  0
 13 14  1  1
 14 15  1  0
 15 16  1  0
 16 17  1  0
 17 18  1  0
 19 13  1  0
 19 21  1  0
 20 19  2  0
M  END
$$$$
