TGK.pdb
     RDKit          3D

 21 20  0  0  1  0  0  0  0  0999 V2000
   26.3106  -13.1832  -20.8627 C   0  0  0  0  0  0  0  0  0  0  0  0
   25.4362  -14.2837  -21.4032 C   0  0  1  0  0  0  0  0  0  0  0  0
   26.0334  -14.7206  -22.5995 O   0  0  0  0  0  0  0  0  0  0  0  0
   25.4447  -15.4753  -20.4686 C   0  0  2  0  0  0  0  0  0  0  0  0
   24.8311  -16.5796  -21.1625 N   0  0  0  0  0  0  0  0  0  0  0  0
   24.7479  -15.2208  -19.2133 C   0  0  0  0  0  0  0  0  0  0  0  0
   25.2316  -14.5122  -18.2876 O   0  0  0  0  0  0  0  0  0  0  0  0
   23.4583  -15.7817  -18.9845 N   0  0  0  0  0  0  0  0  0  0  0  0
   22.7463  -15.5956  -17.7438 C   0  0  0  0  0  0  0  0  0  0  0  0
   22.2413  -16.9097  -17.2750 C   0  0  0  0  0  0  0  0  0  0  0  0
   22.4122  -17.9356  -18.0262 O   0  0  0  0  0  0  0  0  0  0  0  0
   21.5818  -17.0596  -16.0319 N   0  0  0  0  0  0  0  0  0  0  0  0
   21.1350  -18.3949  -15.6507 C   0  0  1  0  0  0  0  0  0  0  0  0
   20.6290  -18.3864  -14.2318 C   0  0  0  0  0  0  0  0  0  0  0  0
   20.0479  -19.7083  -13.8721 C   0  0  0  0  0  0  0  0  0  0  0  0
   21.0921  -20.8207  -13.9091 C   0  0  0  0  0  0  0  0  0  0  0  0
   20.4747  -22.1590  -13.5787 C   0  0  0  0  0  0  0  0  0  0  0  0
   21.4169  -23.2326  -13.6934 N   0  0  0  0  0  0  0  0  0  0  0  0
   20.0484  -18.8149  -16.5601 C   0  0  0  0  0  0  0  0  0  0  0  0
   19.3100  -17.8885  -17.0467 O   0  0  0  0  0  0  0  0  0  0  0  0
   19.7611  -20.1064  -16.9335 O   0  0  0  0  0  0  0  0  0  0  0  0
  2  1  1  1
  2  3  1  0
  4  2  1  0
  4  5  1  6
  6  7  2  0
  6  4  1  0
  8  6  1  0
  9  8  1  0
  9 10  1  0
 10 11  2  0
 12 10  1  0
 12 13  1  0
 13 14  1  1
 14 15  1  0
 15 16  1  0
 16 17  1  0
 17 18  1  0
 19 13  1  0
 19 21  1  0
 20 19  2  0
M  END
$$$$
