TGK.pdb
     RDKit          3D

 21 20  0  0  1  0  0  0  0  0999 V2000
   26.2718  -11.0185  -19.9114 C   0  0  0  0  0  0  0  0  0  0  0  0
   25.2256  -10.5517  -18.9341 C   0  0  1  0  0  0  0  0  0  0  0  0
   23.9876  -10.6453  -19.5955 O   0  0  0  0  0  0  0  0  0  0  0  0
   25.1443  -11.4956  -17.7527 C   0  0  2  0  0  0  0  0  0  0  0  0
   25.0429  -12.8368  -18.2707 N   0  0  0  0  0  0  0  0  0  0  0  0
   24.0182  -11.2107  -16.8712 C   0  0  0  0  0  0  0  0  0  0  0  0
   22.9394  -11.8650  -16.8974 O   0  0  0  0  0  0  0  0  0  0  0  0
   24.1028  -10.1511  -15.9224 N   0  0  0  0  0  0  0  0  0  0  0  0
   23.0044   -9.8056  -15.0535 C   0  0  0  0  0  0  0  0  0  0  0  0
   22.0915   -8.8830  -15.7725 C   0  0  0  0  0  0  0  0  0  0  0  0
   22.4171   -8.4930  -16.9506 O   0  0  0  0  0  0  0  0  0  0  0  0
   20.8816   -8.4261  -15.1978 N   0  0  0  0  0  0  0  0  0  0  0  0
   20.0230   -7.5656  -16.0042 C   0  0  1  0  0  0  0  0  0  0  0  0
   18.5770   -7.8021  -15.6539 C   0  0  0  0  0  0  0  0  0  0  0  0
   17.6930   -6.8781  -16.4149 C   0  0  0  0  0  0  0  0  0  0  0  0
   16.2321   -7.0083  -15.9933 C   0  0  0  0  0  0  0  0  0  0  0  0
   15.3368   -6.1524  -16.8578 C   0  0  0  0  0  0  0  0  0  0  0  0
   13.9488   -6.3524  -16.5638 N   0  0  0  0  0  0  0  0  0  0  0  0
   20.3715   -6.1545  -15.7370 C   0  0  0  0  0  0  0  0  0  0  0  0
   19.9497   -5.2848  -16.5771 O   0  0  0  0  0  0  0  0  0  0  0  0
   21.1025   -5.6910  -14.6689 O   0  0  0  0  0  0  0  0  0  0  0  0
  2  1  1  6
  2  3  1  0
  4  2  1  0
  4  5  1  6
  6  7  2  0
  6  4  1  0
  8  6  1  0
  9  8  1  0
  9 10  1  0
 10 11  2  0
 12 10  1  0
 12 13  1  0
 13 14  1  1
 14 15  1  0
 15 16  1  0
 16 17  1  0
 17 18  1  0
 19 13  1  0
 19 21  1  0
 20 19  2  0
M  END
$$$$
