TGK.pdb
     RDKit          3D

 21 20  0  0  1  0  0  0  0  0999 V2000
   29.1294  -22.3915  -17.5084 C   0  0  0  0  0  0  0  0  0  0  0  0
   28.6239  -21.0144  -17.8488 C   0  0  1  0  0  0  0  0  0  0  0  0
   28.2478  -21.0480  -19.2039 O   0  0  0  0  0  0  0  0  0  0  0  0
   27.3630  -20.7045  -17.0694 C   0  0  2  0  0  0  0  0  0  0  0  0
   26.8572  -19.4398  -17.5408 N   0  0  0  0  0  0  0  0  0  0  0  0
   27.5811  -20.6531  -15.6285 C   0  0  0  0  0  0  0  0  0  0  0  0
   27.8211  -21.6768  -14.9306 O   0  0  0  0  0  0  0  0  0  0  0  0
   27.5283  -19.4062  -14.9411 N   0  0  0  0  0  0  0  0  0  0  0  0
   27.7182  -19.3041  -13.5148 C   0  0  0  0  0  0  0  0  0  0  0  0
   26.4093  -19.4828  -12.8393 C   0  0  0  0  0  0  0  0  0  0  0  0
   25.5746  -18.5086  -12.8523 O   0  0  0  0  0  0  0  0  0  0  0  0
   26.0605  -20.6892  -12.1868 N   0  0  0  0  0  0  0  0  0  0  0  0
   24.7927  -20.7362  -11.4668 C   0  0  1  0  0  0  0  0  0  0  0  0
   23.9430  -21.8660  -11.9874 C   0  0  0  0  0  0  0  0  0  0  0  0
   22.5931  -21.3741  -12.3751 C   0  0  0  0  0  0  0  0  0  0  0  0
   22.5216  -21.0076  -13.8548 C   0  0  0  0  0  0  0  0  0  0  0  0
   21.1473  -20.5022  -14.2254 C   0  0  0  0  0  0  0  0  0  0  0  0
   21.1120  -19.9509  -15.5475 N   0  0  0  0  0  0  0  0  0  0  0  0
   25.0651  -20.9449  -10.0293 C   0  0  0  0  0  0  0  0  0  0  0  0
   26.2190  -21.4059   -9.7194 O   0  0  0  0  0  0  0  0  0  0  0  0
   24.1956  -20.6860   -8.9963 O   0  0  0  0  0  0  0  0  0  0  0  0
  2  1  1  1
  2  3  1  0
  4  2  1  0
  4  5  1  6
  6  7  2  0
  6  4  1  0
  8  6  1  0
  9  8  1  0
  9 10  1  0
 10 11  2  0
 12 10  1  0
 12 13  1  0
 13 14  1  6
 14 15  1  0
 15 16  1  0
 16 17  1  0
 17 18  1  0
 19 13  1  0
 19 21  1  0
 20 19  2  0
M  END
$$$$
