TGK.pdb
     RDKit          3D

 21 20  0  0  1  0  0  0  0  0999 V2000
   27.0917  -18.0296  -13.7739 C   0  0  0  0  0  0  0  0  0  0  0  0
   27.6756  -19.1760  -14.5565 C   0  0  1  0  0  0  0  0  0  0  0  0
   28.3195  -20.0113  -13.6256 O   0  0  0  0  0  0  0  0  0  0  0  0
   26.5746  -20.0090  -15.1787 C   0  0  2  0  0  0  0  0  0  0  0  0
   27.1866  -21.1741  -15.7663 N   0  0  0  0  0  0  0  0  0  0  0  0
   25.8085  -19.2824  -16.1843 C   0  0  0  0  0  0  0  0  0  0  0  0
   26.2445  -19.0449  -17.3446 O   0  0  0  0  0  0  0  0  0  0  0  0
   24.5021  -18.8024  -15.8794 N   0  0  0  0  0  0  0  0  0  0  0  0
   23.7332  -18.0153  -16.8123 C   0  0  0  0  0  0  0  0  0  0  0  0
   22.4036  -17.7272  -16.2202 C   0  0  0  0  0  0  0  0  0  0  0  0
   22.1149  -18.2427  -15.0815 O   0  0  0  0  0  0  0  0  0  0  0  0
   21.4540  -16.9057  -16.8731 N   0  0  0  0  0  0  0  0  0  0  0  0
   20.1181  -16.8114  -16.2950 C   0  0  1  0  0  0  0  0  0  0  0  0
   19.3009  -15.7905  -17.0428 C   0  0  0  0  0  0  0  0  0  0  0  0
   17.9995  -15.5554  -16.3605 C   0  0  0  0  0  0  0  0  0  0  0  0
   17.8983  -14.1419  -15.7940 C   0  0  0  0  0  0  0  0  0  0  0  0
   16.5566  -13.9115  -15.1398 C   0  0  0  0  0  0  0  0  0  0  0  0
   16.3712  -12.5446  -14.7521 N   0  0  0  0  0  0  0  0  0  0  0  0
   19.4616  -18.1324  -16.3863 C   0  0  0  0  0  0  0  0  0  0  0  0
   19.7682  -18.8630  -17.3925 O   0  0  0  0  0  0  0  0  0  0  0  0
   18.5568  -18.6488  -15.4893 O   0  0  0  0  0  0  0  0  0  0  0  0
  2  1  1  1
  2  3  1  0
  4  2  1  0
  4  5  1  6
  6  7  2  0
  6  4  1  0
  8  6  1  0
  9  8  1  0
  9 10  1  0
 10 11  2  0
 12 10  1  0
 12 13  1  0
 13 14  1  6
 14 15  1  0
 15 16  1  0
 16 17  1  0
 17 18  1  0
 19 13  1  0
 19 21  1  0
 20 19  2  0
M  END
$$$$
