TGK.pdb
     RDKit          3D

 21 20  0  0  1  0  0  0  0  0999 V2000
   25.0569  -10.2542  -22.3032 C   0  0  0  0  0  0  0  0  0  0  0  0
   25.2445   -9.7501  -20.8966 C   0  0  1  0  0  0  0  0  0  0  0  0
   24.6139   -8.4943  -20.8325 O   0  0  0  0  0  0  0  0  0  0  0  0
   24.5135  -10.6391  -19.9125 C   0  0  2  0  0  0  0  0  0  0  0  0
   23.1266  -10.6757  -20.3027 N   0  0  0  0  0  0  0  0  0  0  0  0
   24.6356  -10.1838  -18.5326 C   0  0  0  0  0  0  0  0  0  0  0  0
   25.7400  -10.1094  -17.9263 O   0  0  0  0  0  0  0  0  0  0  0  0
   23.4755   -9.7963  -17.8019 N   0  0  0  0  0  0  0  0  0  0  0  0
   23.5537   -9.2121  -16.4853 C   0  0  0  0  0  0  0  0  0  0  0  0
   22.1834   -8.8828  -16.0209 C   0  0  0  0  0  0  0  0  0  0  0  0
   21.2130   -8.9839  -16.8538 O   0  0  0  0  0  0  0  0  0  0  0  0
   21.9215   -8.4638  -14.6947 N   0  0  0  0  0  0  0  0  0  0  0  0
   20.5366   -8.1976  -14.3220 C   0  0  1  0  0  0  0  0  0  0  0  0
   20.4007   -8.1658  -12.8220 C   0  0  0  0  0  0  0  0  0  0  0  0
   19.0024   -7.8449  -12.4266 C   0  0  0  0  0  0  0  0  0  0  0  0
   18.3784   -8.9531  -11.5832 C   0  0  0  0  0  0  0  0  0  0  0  0
   16.9577   -8.6124  -11.2002 C   0  0  0  0  0  0  0  0  0  0  0  0
   16.3596   -9.6260  -10.3829 N   0  0  0  0  0  0  0  0  0  0  0  0
   20.1318   -6.8913  -14.8824 C   0  0  0  0  0  0  0  0  0  0  0  0
   21.0497   -6.0079  -15.0136 O   0  0  0  0  0  0  0  0  0  0  0  0
   18.8629   -6.5401  -15.2783 O   0  0  0  0  0  0  0  0  0  0  0  0
  2  1  1  6
  2  3  1  0
  4  2  1  0
  4  5  1  6
  6  7  2  0
  6  4  1  0
  8  6  1  0
  9  8  1  0
  9 10  1  0
 10 11  2  0
 12 10  1  0
 12 13  1  0
 13 14  1  1
 14 15  1  0
 15 16  1  0
 16 17  1  0
 17 18  1  0
 19 13  1  0
 19 21  1  0
 20 19  2  0
M  END
$$$$
