TGK.pdb
     RDKit          3D

 21 20  0  0  1  0  0  0  0  0999 V2000
   18.2526  -13.8452  -17.9824 C   0  0  0  0  0  0  0  0  0  0  0  0
   18.8190  -13.0181  -16.8586 C   0  0  1  0  0  0  0  0  0  0  0  0
   20.0112  -13.6479  -16.4576 O   0  0  0  0  0  0  0  0  0  0  0  0
   19.2157  -11.6447  -17.3583 C   0  0  2  0  0  0  0  0  0  0  0  0
   20.2149  -11.8234  -18.3816 N   0  0  0  0  0  0  0  0  0  0  0  0
   19.7269  -10.7790  -16.3023 C   0  0  0  0  0  0  0  0  0  0  0  0
   19.0504  -10.4572  -15.2866 O   0  0  0  0  0  0  0  0  0  0  0  0
   21.0481  -10.2522  -16.3860 N   0  0  0  0  0  0  0  0  0  0  0  0
   21.6524   -9.5122  -15.3052 C   0  0  0  0  0  0  0  0  0  0  0  0
   21.5454   -8.0608  -15.5944 C   0  0  0  0  0  0  0  0  0  0  0  0
   21.3527   -7.6900  -16.8074 O   0  0  0  0  0  0  0  0  0  0  0  0
   21.6493   -7.0836  -14.5761 N   0  0  0  0  0  0  0  0  0  0  0  0
   21.5033   -5.6824  -14.9547 C   0  0  1  0  0  0  0  0  0  0  0  0
   20.0443   -5.3295  -15.0819 C   0  0  0  0  0  0  0  0  0  0  0  0
   19.8772   -3.8821  -15.3845 C   0  0  0  0  0  0  0  0  0  0  0  0
   18.4069   -3.4852  -15.4840 C   0  0  0  0  0  0  0  0  0  0  0  0
   18.2575   -1.9987  -15.7067 C   0  0  0  0  0  0  0  0  0  0  0  0
   16.8860   -1.5841  -15.6882 N   0  0  0  0  0  0  0  0  0  0  0  0
   22.1271   -4.8372  -13.9150 C   0  0  0  0  0  0  0  0  0  0  0  0
   22.2210   -5.3388  -12.7404 O   0  0  0  0  0  0  0  0  0  0  0  0
   22.6181   -3.5658  -14.0946 O   0  0  0  0  0  0  0  0  0  0  0  0
  2  1  1  6
  2  3  1  0
  4  2  1  0
  4  5  1  6
  6  7  2  0
  6  4  1  0
  8  6  1  0
  9  8  1  0
  9 10  1  0
 10 11  2  0
 12 10  1  0
 12 13  1  0
 13 14  1  1
 14 15  1  0
 15 16  1  0
 16 17  1  0
 17 18  1  0
 19 13  1  0
 19 21  1  0
 20 19  2  0
M  END
$$$$
