TGK.pdb
     RDKit          3D

 21 20  0  0  1  0  0  0  0  0999 V2000
   23.3063  -19.4853  -18.8349 C   0  0  0  0  0  0  0  0  0  0  0  0
   24.8053  -19.6012  -18.7485 C   0  0  1  0  0  0  0  0  0  0  0  0
   25.3100  -19.2331  -20.0090 O   0  0  0  0  0  0  0  0  0  0  0  0
   25.3593  -18.5941  -17.7626 C   0  0  2  0  0  0  0  0  0  0  0  0
   26.7973  -18.6492  -17.8426 N   0  0  0  0  0  0  0  0  0  0  0  0
   24.9224  -18.8368  -16.3928 C   0  0  0  0  0  0  0  0  0  0  0  0
   25.6778  -18.6922  -15.3923 O   0  0  0  0  0  0  0  0  0  0  0  0
   23.5865  -19.2583  -16.1322 N   0  0  0  0  0  0  0  0  0  0  0  0
   23.0964  -19.4819  -14.7940 C   0  0  0  0  0  0  0  0  0  0  0  0
   21.6570  -19.8360  -14.8597 C   0  0  0  0  0  0  0  0  0  0  0  0
   21.0441  -19.7059  -15.9792 O   0  0  0  0  0  0  0  0  0  0  0  0
   20.9488  -20.3095  -13.7296 N   0  0  0  0  0  0  0  0  0  0  0  0
   19.5547  -20.6994  -13.9095 C   0  0  1  0  0  0  0  0  0  0  0  0
   19.0928  -21.5261  -12.7379 C   0  0  0  0  0  0  0  0  0  0  0  0
   19.6274  -22.9119  -12.8280 C   0  0  0  0  0  0  0  0  0  0  0  0
   19.1913  -23.7708  -11.6442 C   0  0  0  0  0  0  0  0  0  0  0  0
   19.7583  -25.1671  -11.7456 C   0  0  0  0  0  0  0  0  0  0  0  0
   19.4067  -25.9771  -10.6171 N   0  0  0  0  0  0  0  0  0  0  0  0
   18.7252  -19.4805  -14.0115 C   0  0  0  0  0  0  0  0  0  0  0  0
   17.5826  -19.6033  -14.5767 O   0  0  0  0  0  0  0  0  0  0  0  0
   19.0661  -18.2303  -13.5524 O   0  0  0  0  0  0  0  0  0  0  0  0
  2  1  1  6
  2  3  1  0
  4  2  1  0
  4  5  1  1
  6  7  2  0
  6  4  1  0
  8  6  1  0
  9  8  1  0
  9 10  1  0
 10 11  2  0
 12 10  1  0
 12 13  1  0
 13 14  1  1
 14 15  1  0
 15 16  1  0
 16 17  1  0
 17 18  1  0
 19 13  1  0
 19 21  1  0
 20 19  2  0
M  END
$$$$
