TGK.pdb
     RDKit          3D

 21 20  0  0  1  0  0  0  0  0999 V2000
   16.5270  -10.4220  -14.5630 C   0  0  0  0  0  0  0  0  0  0  0  0
   17.9801  -10.6328  -14.8975 C   0  0  1  0  0  0  0  0  0  0  0  0
   18.0300  -11.0107  -16.2516 O   0  0  0  0  0  0  0  0  0  0  0  0
   18.7426   -9.3284  -14.7958 C   0  0  2  0  0  0  0  0  0  0  0  0
   20.0078   -9.5083  -15.4624 N   0  0  0  0  0  0  0  0  0  0  0  0
   18.9564   -8.8983  -13.4191 C   0  0  0  0  0  0  0  0  0  0  0  0
   20.0630   -9.0163  -12.8238 O   0  0  0  0  0  0  0  0  0  0  0  0
   17.8891   -8.3127  -12.6786 N   0  0  0  0  0  0  0  0  0  0  0  0
   18.0188   -7.9642  -11.2849 C   0  0  0  0  0  0  0  0  0  0  0  0
   16.8076   -7.2208  -10.8583 C   0  0  0  0  0  0  0  0  0  0  0  0
   16.0431   -6.7246  -11.7612 O   0  0  0  0  0  0  0  0  0  0  0  0
   16.4766   -7.0464   -9.4934 N   0  0  0  0  0  0  0  0  0  0  0  0
   15.2221   -6.3740   -9.1739 C   0  0  1  0  0  0  0  0  0  0  0  0
   14.6672   -6.9020   -7.8767 C   0  0  0  0  0  0  0  0  0  0  0  0
   13.2091   -7.1729   -7.9993 C   0  0  0  0  0  0  0  0  0  0  0  0
   12.5879   -7.5725   -6.6638 C   0  0  0  0  0  0  0  0  0  0  0  0
   11.1381   -7.9615   -6.8317 C   0  0  0  0  0  0  0  0  0  0  0  0
   10.5349   -8.3497   -5.5912 N   0  0  0  0  0  0  0  0  0  0  0  0
   15.4739   -4.9231   -9.0491 C   0  0  0  0  0  0  0  0  0  0  0  0
   16.5937   -4.5716   -8.5369 O   0  0  0  0  0  0  0  0  0  0  0  0
   14.6187   -3.9184   -9.4357 O   0  0  0  0  0  0  0  0  0  0  0  0
  2  1  1  6
  2  3  1  0
  4  2  1  0
  4  5  1  1
  6  7  2  0
  6  4  1  0
  8  6  1  0
  9  8  1  0
  9 10  1  0
 10 11  2  0
 12 10  1  0
 12 13  1  0
 13 14  1  1
 14 15  1  0
 15 16  1  0
 16 17  1  0
 17 18  1  0
 19 13  1  0
 19 21  1  0
 20 19  2  0
M  END
$$$$
