TGK.pdb
     RDKit          3D

 21 20  0  0  1  0  0  0  0  0999 V2000
   16.6833   -8.0476  -17.5078 C   0  0  0  0  0  0  0  0  0  0  0  0
   17.0634   -9.4826  -17.2546 C   0  0  1  0  0  0  0  0  0  0  0  0
   16.0371  -10.2729  -17.8032 O   0  0  0  0  0  0  0  0  0  0  0  0
   18.3228   -9.8401  -18.0158 C   0  0  2  0  0  0  0  0  0  0  0  0
   18.4437  -11.2762  -18.0115 N   0  0  0  0  0  0  0  0  0  0  0  0
   19.5223   -9.2329  -17.4513 C   0  0  0  0  0  0  0  0  0  0  0  0
   20.1634   -9.7384  -16.4890 O   0  0  0  0  0  0  0  0  0  0  0  0
   20.0247   -8.0111  -17.9852 N   0  0  0  0  0  0  0  0  0  0  0  0
   21.2159   -7.3788  -17.4734 C   0  0  0  0  0  0  0  0  0  0  0  0
   20.8874   -6.6868  -16.2026 C   0  0  0  0  0  0  0  0  0  0  0  0
   19.6983   -6.2331  -16.0412 O   0  0  0  0  0  0  0  0  0  0  0  0
   21.8432   -6.5158  -15.1730 N   0  0  0  0  0  0  0  0  0  0  0  0
   21.4196   -5.8411  -13.9510 C   0  0  1  0  0  0  0  0  0  0  0  0
   21.7686   -6.6792  -12.7489 C   0  0  0  0  0  0  0  0  0  0  0  0
   20.8790   -7.8689  -12.6602 C   0  0  0  0  0  0  0  0  0  0  0  0
   19.5923   -7.5648  -11.8980 C   0  0  0  0  0  0  0  0  0  0  0  0
   18.5691   -8.6577  -12.0978 C   0  0  0  0  0  0  0  0  0  0  0  0
   17.2791   -8.2898  -11.5942 N   0  0  0  0  0  0  0  0  0  0  0  0
   22.1081   -4.5365  -13.8602 C   0  0  0  0  0  0  0  0  0  0  0  0
   23.1721   -4.3934  -14.5584 O   0  0  0  0  0  0  0  0  0  0  0  0
   21.7089   -3.4635  -13.0991 O   0  0  0  0  0  0  0  0  0  0  0  0
  2  1  1  6
  2  3  1  0
  4  2  1  0
  4  5  1  1
  6  7  2  0
  6  4  1  0
  8  6  1  0
  9  8  1  0
  9 10  1  0
 10 11  2  0
 12 10  1  0
 12 13  1  0
 13 14  1  1
 14 15  1  0
 15 16  1  0
 16 17  1  0
 17 18  1  0
 19 13  1  0
 19 21  1  0
 20 19  2  0
M  END
$$$$
