DYQ.pdb
     RDKit          3D

 30 30  0  0  1  0  0  0  0  0999 V2000
    9.6267  -16.4645   18.0342 N   0  0  0  0  0  0  0  0  0  0  0  0
    9.1140  -17.1676   19.1949 C   0  0  1  0  0  0  0  0  0  0  0  0
    9.9034  -18.4588   19.3033 C   0  0  0  0  0  0  0  0  0  0  0  0
    9.5711  -19.3798   18.1858 C   0  0  0  0  0  0  0  0  0  0  0  0
    8.3750  -19.6798   17.8960 O   0  0  0  0  0  0  0  0  0  0  0  0
    9.3352  -16.2986   20.3771 C   0  0  0  0  0  0  0  0  0  0  0  0
   10.4507  -15.7680   20.6104 O   0  0  0  0  0  0  0  0  0  0  0  0
   10.5536  -19.9613   17.3991 O   0  0  0  0  0  0  0  0  0  0  0  0
    7.2056  -12.1160   27.9486 O   0  0  0  0  0  0  0  0  0  0  0  0
    7.1737  -12.7455   26.6915 C   0  0  0  0  0  0  0  0  0  0  0  0
    6.6362  -13.9953   26.5711 C   0  0  0  0  0  0  0  0  0  0  0  0
    6.6153  -14.5993   25.3158 C   0  0  0  0  0  0  0  0  0  0  0  0
    7.1180  -13.9761   24.1996 C   0  0  0  0  0  0  0  0  0  0  0  0
    7.0732  -14.6498   22.9007 C   0  0  0  0  0  0  0  0  0  0  0  0
    8.4050  -15.2361   22.4749 C   0  0  2  0  0  0  0  0  0  0  0  0
    8.2593  -16.0491   21.2843 N   0  0  0  0  0  0  0  0  0  0  0  0
    9.0782  -16.0048   23.5472 C   0  0  0  0  0  0  0  0  0  0  0  0
    8.5898  -17.1236   23.9007 O   0  0  0  0  0  0  0  0  0  0  0  0
    7.6618  -12.7160   24.3119 C   0  0  0  0  0  0  0  0  0  0  0  0
    7.6743  -12.1242   25.5820 C   0  0  0  0  0  0  0  0  0  0  0  0
   15.1833  -15.7639   23.9486 N   0  0  0  0  0  0  0  0  0  0  0  0
   14.9340  -16.5693   25.0898 C   0  0  0  0  0  0  0  0  0  0  0  0
   15.9327  -17.0919   25.6840 O   0  0  0  0  0  0  0  0  0  0  0  0
   13.5477  -16.7595   25.5368 C   0  0  0  0  0  0  0  0  0  0  0  0
   12.5018  -16.0781   24.7631 C   0  0  0  0  0  0  0  0  0  0  0  0
   11.0766  -16.4540   25.0650 C   0  0  2  0  0  0  0  0  0  0  0  0
   10.2382  -15.5805   24.2122 N   0  0  0  0  0  0  0  0  0  0  0  0
   10.6528  -16.4915   26.4363 C   0  0  0  0  0  0  0  0  0  0  0  0
    9.9769  -15.4421   27.0288 O   0  0  0  0  0  0  0  0  0  0  0  0
   10.8911  -17.4904   27.1607 O   0  0  0  0  0  0  0  0  0  0  0  0
  2  1  1  6
  2  3  1  0
  3  4  1  0
  4  5  2  0
  6  2  1  0
  7  6  2  0
  8  4  1  0
  9 10  1  0
 10 20  2  0
 10 11  1  0
 11 12  2  0
 12 13  1  0
 13 14  1  0
 15 14  1  1
 15 16  1  0
 16  6  1  0
 17 15  1  0
 17 27  1  0
 18 17  2  0
 19 13  2  0
 20 19  1  0
 22 21  1  0
 23 22  2  0
 24 22  1  0
 25 24  1  0
 26 27  1  0
 26 25  1  1
 28 26  1  0
 29 28  1  0
 30 28  2  0
M  END
$$$$
