DYQ.pdb
     RDKit          3D

 30 30  0  0  1  0  0  0  0  0999 V2000
   10.3462  -16.5347   17.3115 N   0  0  0  0  0  0  0  0  0  0  0  0
   10.9358  -17.4566   18.2636 C   0  0  1  0  0  0  0  0  0  0  0  0
   12.3227  -17.7874   17.7449 C   0  0  0  0  0  0  0  0  0  0  0  0
   12.2463  -18.5222   16.4557 C   0  0  0  0  0  0  0  0  0  0  0  0
   11.2026  -19.1447   16.0986 O   0  0  0  0  0  0  0  0  0  0  0  0
   11.0005  -16.7643   19.5744 C   0  0  0  0  0  0  0  0  0  0  0  0
   11.9581  -16.0089   19.8786 O   0  0  0  0  0  0  0  0  0  0  0  0
   13.3148  -18.5659   15.5732 O   0  0  0  0  0  0  0  0  0  0  0  0
    7.1317  -11.8824   18.0432 O   0  0  0  0  0  0  0  0  0  0  0  0
    7.4901  -12.8101   19.0375 C   0  0  0  0  0  0  0  0  0  0  0  0
    6.8638  -14.0225   19.0928 C   0  0  0  0  0  0  0  0  0  0  0  0
    7.2353  -14.9256   20.0864 C   0  0  0  0  0  0  0  0  0  0  0  0
    8.2101  -14.6327   21.0089 C   0  0  0  0  0  0  0  0  0  0  0  0
    8.5679  -15.6141   22.0346 C   0  0  0  0  0  0  0  0  0  0  0  0
    9.9161  -16.2683   21.8045 C   0  0  2  0  0  0  0  0  0  0  0  0
    9.9520  -16.9521   20.5274 N   0  0  0  0  0  0  0  0  0  0  0  0
   10.3170  -17.1872   22.8948 C   0  0  0  0  0  0  0  0  0  0  0  0
    9.9252  -18.3955   22.8555 O   0  0  0  0  0  0  0  0  0  0  0  0
    8.8466  -13.4127   20.9605 C   0  0  0  0  0  0  0  0  0  0  0  0
    8.4600  -12.5172   19.9545 C   0  0  0  0  0  0  0  0  0  0  0  0
   16.2325  -18.6415   26.0085 N   0  0  0  0  0  0  0  0  0  0  0  0
   15.2068  -19.1826   25.1907 C   0  0  0  0  0  0  0  0  0  0  0  0
   15.5508  -19.8808   24.1820 O   0  0  0  0  0  0  0  0  0  0  0  0
   13.8048  -18.9216   25.5428 C   0  0  0  0  0  0  0  0  0  0  0  0
   13.0639  -17.9970   24.6750 C   0  0  0  0  0  0  0  0  0  0  0  0
   11.6174  -17.7571   25.0122 C   0  0  2  0  0  0  0  0  0  0  0  0
   11.1138  -16.8141   23.9874 N   0  0  0  0  0  0  0  0  0  0  0  0
   11.2801  -17.3762   26.3549 C   0  0  0  0  0  0  0  0  0  0  0  0
   11.3280  -16.0635   26.7837 O   0  0  0  0  0  0  0  0  0  0  0  0
   10.9315  -18.2351   27.2035 O   0  0  0  0  0  0  0  0  0  0  0  0
  2  1  1  6
  2  3  1  0
  3  4  1  0
  4  5  2  0
  6  2  1  0
  7  6  2  0
  8  4  1  0
  9 10  1  0
 10 20  2  0
 10 11  1  0
 11 12  2  0
 12 13  1  0
 13 14  1  0
 15 14  1  1
 15 16  1  0
 16  6  1  0
 17 15  1  0
 17 27  1  0
 18 17  2  0
 19 13  2  0
 20 19  1  0
 22 21  1  0
 23 22  2  0
 24 22  1  0
 25 24  1  0
 26 27  1  0
 26 25  1  1
 28 26  1  0
 29 28  1  0
 30 28  2  0
M  END
$$$$
