DYQ.pdb
     RDKit          3D

 30 30  0  0  1  0  0  0  0  0999 V2000
   11.2385  -17.6527   17.9792 N   0  0  0  0  0  0  0  0  0  0  0  0
   10.6240  -18.2422   19.1535 C   0  0  1  0  0  0  0  0  0  0  0  0
   11.3466  -19.5515   19.4098 C   0  0  0  0  0  0  0  0  0  0  0  0
   10.8538  -20.6171   18.4991 C   0  0  0  0  0  0  0  0  0  0  0  0
   10.1078  -20.3612   17.5079 O   0  0  0  0  0  0  0  0  0  0  0  0
   10.8104  -17.2933   20.2790 C   0  0  0  0  0  0  0  0  0  0  0  0
   11.8524  -16.5998   20.3958 O   0  0  0  0  0  0  0  0  0  0  0  0
   11.1845  -21.9506   18.6856 O   0  0  0  0  0  0  0  0  0  0  0  0
    6.4127  -12.5448   18.6032 O   0  0  0  0  0  0  0  0  0  0  0  0
    6.9594  -13.3154   19.6448 C   0  0  0  0  0  0  0  0  0  0  0  0
    6.4456  -14.5511   19.9174 C   0  0  0  0  0  0  0  0  0  0  0  0
    7.0031  -15.2966   20.9539 C   0  0  0  0  0  0  0  0  0  0  0  0
    8.0512  -14.8261   21.7069 C   0  0  0  0  0  0  0  0  0  0  0  0
    8.6054  -15.6460   22.7858 C   0  0  0  0  0  0  0  0  0  0  0  0
    9.9241  -16.3047   22.4312 C   0  0  2  0  0  0  0  0  0  0  0  0
    9.7852  -17.1536   21.2651 N   0  0  0  0  0  0  0  0  0  0  0  0
   10.5230  -17.0623   23.5543 C   0  0  0  0  0  0  0  0  0  0  0  0
    9.9175  -18.0889   23.9953 O   0  0  0  0  0  0  0  0  0  0  0  0
    8.5754  -13.5813   21.4390 C   0  0  0  0  0  0  0  0  0  0  0  0
    8.0020  -12.8459   20.3931 C   0  0  0  0  0  0  0  0  0  0  0  0
   16.1780  -17.3340   23.0730 N   0  0  0  0  0  0  0  0  0  0  0  0
   15.8559  -16.2917   23.9804 C   0  0  0  0  0  0  0  0  0  0  0  0
   16.5957  -15.2544   23.9881 O   0  0  0  0  0  0  0  0  0  0  0  0
   14.6901  -16.4498   24.8599 C   0  0  0  0  0  0  0  0  0  0  0  0
   13.8714  -17.6535   24.6664 C   0  0  0  0  0  0  0  0  0  0  0  0
   12.4455  -17.5918   25.1427 C   0  0  2  0  0  0  0  0  0  0  0  0
   11.7334  -16.7235   24.1772 N   0  0  0  0  0  0  0  0  0  0  0  0
   12.1945  -17.2482   26.5140 C   0  0  0  0  0  0  0  0  0  0  0  0
   11.4282  -16.1558   26.8727 O   0  0  0  0  0  0  0  0  0  0  0  0
   12.6755  -17.9329   27.4517 O   0  0  0  0  0  0  0  0  0  0  0  0
  2  1  1  6
  2  3  1  0
  3  4  1  0
  4  5  2  0
  6  2  1  0
  7  6  2  0
  8  4  1  0
  9 10  1  0
 10 20  2  0
 10 11  1  0
 11 12  2  0
 12 13  1  0
 13 14  1  0
 15 14  1  1
 15 16  1  0
 16  6  1  0
 17 15  1  0
 17 27  1  0
 18 17  2  0
 19 13  2  0
 20 19  1  0
 22 21  1  0
 23 22  2  0
 24 22  1  0
 25 24  1  0
 26 27  1  0
 26 25  1  6
 28 26  1  0
 29 28  1  0
 30 28  2  0
M  END
$$$$
