DYQ.pdb
     RDKit          3D

 30 30  0  0  1  0  0  0  0  0999 V2000
   10.0115  -18.3377   21.4737 N   0  0  0  0  0  0  0  0  0  0  0  0
   11.0251  -17.3370   21.7486 C   0  0  1  0  0  0  0  0  0  0  0  0
   11.4472  -16.7677   20.4070 C   0  0  0  0  0  0  0  0  0  0  0  0
   12.4907  -17.6157   19.7749 C   0  0  0  0  0  0  0  0  0  0  0  0
   13.2668  -17.1693   18.8787 O   0  0  0  0  0  0  0  0  0  0  0  0
   10.4047  -16.2966   22.6056 C   0  0  0  0  0  0  0  0  0  0  0  0
   11.0717  -15.3399   23.0747 O   0  0  0  0  0  0  0  0  0  0  0  0
   12.6714  -18.9431   20.1323 O   0  0  0  0  0  0  0  0  0  0  0  0
    7.8550  -12.7478   17.9763 O   0  0  0  0  0  0  0  0  0  0  0  0
    7.6591  -13.2859   19.2608 C   0  0  0  0  0  0  0  0  0  0  0  0
    7.9677  -12.5415   20.3634 C   0  0  0  0  0  0  0  0  0  0  0  0
    7.7653  -13.0951   21.6257 C   0  0  0  0  0  0  0  0  0  0  0  0
    7.2661  -14.3639   21.7926 C   0  0  0  0  0  0  0  0  0  0  0  0
    7.0692  -14.9034   23.1392 C   0  0  0  0  0  0  0  0  0  0  0  0
    8.3435  -15.4191   23.7787 C   0  0  2  0  0  0  0  0  0  0  0  0
    9.0113  -16.3715   22.9145 N   0  0  0  0  0  0  0  0  0  0  0  0
    8.1317  -16.0011   25.1242 C   0  0  0  0  0  0  0  0  0  0  0  0
    7.0131  -15.8248   25.7010 O   0  0  0  0  0  0  0  0  0  0  0  0
    6.9524  -15.1215   20.6864 C   0  0  0  0  0  0  0  0  0  0  0  0
    7.1624  -14.5484   19.4251 C   0  0  0  0  0  0  0  0  0  0  0  0
    5.5836  -20.2192   26.0652 N   0  0  0  0  0  0  0  0  0  0  0  0
    6.9130  -20.7019   25.9512 C   0  0  0  0  0  0  0  0  0  0  0  0
    7.0823  -21.9073   25.5745 O   0  0  0  0  0  0  0  0  0  0  0  0
    8.0273  -19.7973   26.2638 C   0  0  0  0  0  0  0  0  0  0  0  0
    7.6769  -18.4432   26.7117 C   0  0  0  0  0  0  0  0  0  0  0  0
    8.8164  -17.5218   27.0523 C   0  0  2  0  0  0  0  0  0  0  0  0
    9.0935  -16.7481   25.8204 N   0  0  0  0  0  0  0  0  0  0  0  0
    9.9943  -18.0807   27.6538 C   0  0  0  0  0  0  0  0  0  0  0  0
   11.2102  -18.1193   26.9984 O   0  0  0  0  0  0  0  0  0  0  0  0
    9.9610  -18.5692   28.8112 O   0  0  0  0  0  0  0  0  0  0  0  0
  2  1  1  6
  2  3  1  0
  3  4  1  0
  4  5  2  0
  6  2  1  0
  7  6  2  0
  8  4  1  0
  9 10  1  0
 10 20  2  0
 10 11  1  0
 11 12  2  0
 12 13  1  0
 13 14  1  0
 15 14  1  6
 15 16  1  0
 16  6  1  0
 17 15  1  0
 17 27  1  0
 18 17  2  0
 19 13  2  0
 20 19  1  0
 22 21  1  0
 23 22  2  0
 24 22  1  0
 25 24  1  0
 26 27  1  0
 26 25  1  6
 28 26  1  0
 29 28  1  0
 30 28  2  0
M  END
$$$$
