DYQ.pdb
     RDKit          3D

 30 30  0  0  1  0  0  0  0  0999 V2000
   10.4088  -16.8284   18.5433 N   0  0  0  0  0  0  0  0  0  0  0  0
    9.3473  -17.2668   19.4295 C   0  0  1  0  0  0  0  0  0  0  0  0
    9.5391  -18.7583   19.6311 C   0  0  0  0  0  0  0  0  0  0  0  0
    9.2476  -19.5050   18.3800 C   0  0  0  0  0  0  0  0  0  0  0  0
    8.1951  -19.3004   17.7057 O   0  0  0  0  0  0  0  0  0  0  0  0
    9.4970  -16.5257   20.7064 C   0  0  0  0  0  0  0  0  0  0  0  0
   10.6071  -16.4235   21.2873 O   0  0  0  0  0  0  0  0  0  0  0  0
   10.1133  -20.4672   17.8828 O   0  0  0  0  0  0  0  0  0  0  0  0
    6.9645  -11.8649   27.8511 O   0  0  0  0  0  0  0  0  0  0  0  0
    7.0117  -12.4953   26.5949 C   0  0  0  0  0  0  0  0  0  0  0  0
    6.2878  -13.6330   26.3782 C   0  0  0  0  0  0  0  0  0  0  0  0
    6.3499  -14.2402   25.1260 C   0  0  0  0  0  0  0  0  0  0  0  0
    7.1158  -13.7294   24.1064 C   0  0  0  0  0  0  0  0  0  0  0  0
    7.1490  -14.4017   22.8064 C   0  0  0  0  0  0  0  0  0  0  0  0
    8.4133  -15.2045   22.5704 C   0  0  2  0  0  0  0  0  0  0  0  0
    8.3561  -15.9059   21.3038 N   0  0  0  0  0  0  0  0  0  0  0  0
    8.7246  -16.1468   23.6701 C   0  0  0  0  0  0  0  0  0  0  0  0
    8.0367  -17.2096   23.7820 O   0  0  0  0  0  0  0  0  0  0  0  0
    7.8489  -12.5829   24.3162 C   0  0  0  0  0  0  0  0  0  0  0  0
    7.7742  -11.9859   25.5817 C   0  0  0  0  0  0  0  0  0  0  0  0
   13.7569  -18.7569   23.8507 N   0  0  0  0  0  0  0  0  0  0  0  0
   13.3762  -19.1572   25.1578 C   0  0  0  0  0  0  0  0  0  0  0  0
   14.1219  -19.9890   25.7705 O   0  0  0  0  0  0  0  0  0  0  0  0
   12.1527  -18.5956   25.7453 C   0  0  0  0  0  0  0  0  0  0  0  0
   11.4307  -17.5972   24.9461 C   0  0  0  0  0  0  0  0  0  0  0  0
   10.2074  -16.9809   25.5687 C   0  0  2  0  0  0  0  0  0  0  0  0
    9.7435  -15.9485   24.6136 N   0  0  0  0  0  0  0  0  0  0  0  0
   10.2896  -16.5114   26.9231 C   0  0  0  0  0  0  0  0  0  0  0  0
   10.2484  -15.1676   27.2420 O   0  0  0  0  0  0  0  0  0  0  0  0
   10.4115  -17.3156   27.8810 O   0  0  0  0  0  0  0  0  0  0  0  0
  2  1  1  6
  2  3  1  0
  3  4  1  0
  4  5  2  0
  6  2  1  0
  7  6  2  0
  8  4  1  0
  9 10  1  0
 10 20  2  0
 10 11  1  0
 11 12  2  0
 12 13  1  0
 13 14  1  0
 15 14  1  1
 15 16  1  0
 16  6  1  0
 17 15  1  0
 17 27  1  0
 18 17  2  0
 19 13  2  0
 20 19  1  0
 22 21  1  0
 23 22  2  0
 24 22  1  0
 25 24  1  0
 26 27  1  0
 26 25  1  6
 28 26  1  0
 29 28  1  0
 30 28  2  0
M  END
$$$$
