DYQ.pdb
     RDKit          3D

 30 30  0  0  1  0  0  0  0  0999 V2000
   10.3230  -16.5624   18.9466 N   0  0  0  0  0  0  0  0  0  0  0  0
    9.1366  -16.9403   19.6909 C   0  0  1  0  0  0  0  0  0  0  0  0
    9.1333  -18.4560   19.7608 C   0  0  0  0  0  0  0  0  0  0  0  0
    8.8682  -19.0487   18.4244 C   0  0  0  0  0  0  0  0  0  0  0  0
    7.9223  -18.6434   17.6858 O   0  0  0  0  0  0  0  0  0  0  0  0
    9.2463  -16.3377   21.0424 C   0  0  0  0  0  0  0  0  0  0  0  0
   10.2796  -16.4710   21.7457 O   0  0  0  0  0  0  0  0  0  0  0  0
    9.6429  -20.0787   17.9133 O   0  0  0  0  0  0  0  0  0  0  0  0
    6.7938  -11.6197   28.1694 O   0  0  0  0  0  0  0  0  0  0  0  0
    6.8730  -12.1881   26.8855 C   0  0  0  0  0  0  0  0  0  0  0  0
    7.6470  -11.5975   25.9277 C   0  0  0  0  0  0  0  0  0  0  0  0
    7.7102  -12.1784   24.6630 C   0  0  0  0  0  0  0  0  0  0  0  0
    7.0189  -13.3242   24.3528 C   0  0  0  0  0  0  0  0  0  0  0  0
    7.1170  -13.8991   23.0101 C   0  0  0  0  0  0  0  0  0  0  0  0
    8.1847  -14.9681   22.8841 C   0  0  2  0  0  0  0  0  0  0  0  0
    8.1548  -15.5820   21.5719 N   0  0  0  0  0  0  0  0  0  0  0  0
    8.1078  -16.0027   23.9413 C   0  0  0  0  0  0  0  0  0  0  0  0
    7.3081  -16.9787   23.7892 O   0  0  0  0  0  0  0  0  0  0  0  0
    6.2361  -13.9262   25.3124 C   0  0  0  0  0  0  0  0  0  0  0  0
    6.1846  -13.3279   26.5785 C   0  0  0  0  0  0  0  0  0  0  0  0
   12.2951  -18.5663   22.7335 N   0  0  0  0  0  0  0  0  0  0  0  0
   12.1090  -19.3739   23.8853 C   0  0  0  0  0  0  0  0  0  0  0  0
   12.9066  -20.3508   24.0671 O   0  0  0  0  0  0  0  0  0  0  0  0
   11.0180  -19.0482   24.8134 C   0  0  0  0  0  0  0  0  0  0  0  0
   10.2352  -17.8409   24.5195 C   0  0  0  0  0  0  0  0  0  0  0  0
    9.5616  -17.1655   25.6830 C   0  0  2  0  0  0  0  0  0  0  0  0
    8.8687  -15.9841   25.1196 N   0  0  0  0  0  0  0  0  0  0  0  0
   10.3435  -16.8674   26.8498 C   0  0  0  0  0  0  0  0  0  0  0  0
   10.9994  -15.6618   27.0103 O   0  0  0  0  0  0  0  0  0  0  0  0
   10.4686  -17.7061   27.7772 O   0  0  0  0  0  0  0  0  0  0  0  0
  2  1  1  6
  2  3  1  0
  3  4  1  0
  4  5  2  0
  6  2  1  0
  7  6  2  0
  8  4  1  0
  9 10  1  0
 10 20  2  0
 10 11  1  0
 11 12  2  0
 12 13  1  0
 13 14  1  0
 15 14  1  6
 15 16  1  0
 16  6  1  0
 17 15  1  0
 17 27  1  0
 18 17  2  0
 19 13  2  0
 20 19  1  0
 22 21  1  0
 23 22  2  0
 24 22  1  0
 25 24  1  0
 26 27  1  0
 26 25  1  6
 28 26  1  0
 29 28  1  0
 30 28  2  0
M  END
$$$$
