DYQ.pdb
     RDKit          3D

 30 30  0  0  1  0  0  0  0  0999 V2000
   10.2652  -17.5946   19.2033 N   0  0  0  0  0  0  0  0  0  0  0  0
    9.0402  -17.6428   19.9787 C   0  0  1  0  0  0  0  0  0  0  0  0
    8.8130  -19.0987   20.3402 C   0  0  0  0  0  0  0  0  0  0  0  0
    8.4726  -19.8982   19.1350 C   0  0  0  0  0  0  0  0  0  0  0  0
    7.4575  -19.6400   18.4226 O   0  0  0  0  0  0  0  0  0  0  0  0
    9.2457  -16.8113   21.1904 C   0  0  0  0  0  0  0  0  0  0  0  0
   10.3281  -16.8274   21.8296 O   0  0  0  0  0  0  0  0  0  0  0  0
    9.2489  -20.9713   18.7247 O   0  0  0  0  0  0  0  0  0  0  0  0
    7.0802  -11.3340   27.8582 O   0  0  0  0  0  0  0  0  0  0  0  0
    7.0967  -12.0495   26.6476 C   0  0  0  0  0  0  0  0  0  0  0  0
    6.2216  -13.0804   26.4558 C   0  0  0  0  0  0  0  0  0  0  0  0
    6.2562  -13.7749   25.2487 C   0  0  0  0  0  0  0  0  0  0  0  0
    7.1420  -13.4537   24.2491 C   0  0  0  0  0  0  0  0  0  0  0  0
    7.1407  -14.2114   22.9965 C   0  0  0  0  0  0  0  0  0  0  0  0
    8.2723  -15.2151   22.8931 C   0  0  2  0  0  0  0  0  0  0  0  0
    8.1928  -15.9639   21.6552 N   0  0  0  0  0  0  0  0  0  0  0  0
    8.3485  -16.1358   24.0509 C   0  0  0  0  0  0  0  0  0  0  0  0
    7.3993  -16.9580   24.2458 O   0  0  0  0  0  0  0  0  0  0  0  0
    8.0278  -12.4158   24.4340 C   0  0  0  0  0  0  0  0  0  0  0  0
    7.9787  -11.7288   25.6543 C   0  0  0  0  0  0  0  0  0  0  0  0
   10.2556  -21.7548   25.4884 N   0  0  0  0  0  0  0  0  0  0  0  0
   11.0618  -20.6621   25.9000 C   0  0  0  0  0  0  0  0  0  0  0  0
   12.3247  -20.7656   25.7659 O   0  0  0  0  0  0  0  0  0  0  0  0
   10.4111  -19.4669   26.4528 C   0  0  0  0  0  0  0  0  0  0  0  0
   10.1262  -18.3730   25.5152 C   0  0  0  0  0  0  0  0  0  0  0  0
    9.5161  -17.1238   26.0904 C   0  0  2  0  0  0  0  0  0  0  0  0
    9.4129  -16.1679   24.9641 N   0  0  0  0  0  0  0  0  0  0  0  0
   10.1025  -16.5550   27.2713 C   0  0  0  0  0  0  0  0  0  0  0  0
   10.9475  -15.4629   27.2229 O   0  0  0  0  0  0  0  0  0  0  0  0
    9.8719  -17.0408   28.4071 O   0  0  0  0  0  0  0  0  0  0  0  0
  2  1  1  6
  2  3  1  0
  3  4  1  0
  4  5  2  0
  6  2  1  0
  7  6  2  0
  8  4  1  0
  9 10  1  0
 10 20  2  0
 10 11  1  0
 11 12  2  0
 12 13  1  0
 13 14  1  0
 15 14  1  1
 15 16  1  0
 16  6  1  0
 17 15  1  0
 17 27  1  0
 18 17  2  0
 19 13  2  0
 20 19  1  0
 22 21  1  0
 23 22  2  0
 24 22  1  0
 25 24  1  0
 26 27  1  0
 26 25  1  6
 28 26  1  0
 29 28  1  0
 30 28  2  0
M  END
$$$$
