DYQ.pdb
     RDKit          3D

 30 30  0  0  1  0  0  0  0  0999 V2000
    9.3328  -18.0700   20.7430 N   0  0  0  0  0  0  0  0  0  0  0  0
   10.5458  -17.4799   21.2761 C   0  0  1  0  0  0  0  0  0  0  0  0
   11.1974  -16.7221   20.1345 C   0  0  0  0  0  0  0  0  0  0  0  0
   11.7371  -17.6587   19.1151 C   0  0  0  0  0  0  0  0  0  0  0  0
   11.1775  -17.8224   17.9905 O   0  0  0  0  0  0  0  0  0  0  0  0
   10.1515  -16.5650   22.3759 C   0  0  0  0  0  0  0  0  0  0  0  0
   10.9959  -15.8676   22.9930 O   0  0  0  0  0  0  0  0  0  0  0  0
   12.8838  -18.4048   19.3403 O   0  0  0  0  0  0  0  0  0  0  0  0
    8.0292  -12.4529   18.1826 O   0  0  0  0  0  0  0  0  0  0  0  0
    7.8102  -13.0155   19.4528 C   0  0  0  0  0  0  0  0  0  0  0  0
    7.1872  -14.2260   19.5613 C   0  0  0  0  0  0  0  0  0  0  0  0
    6.9810  -14.7638   20.8298 C   0  0  0  0  0  0  0  0  0  0  0  0
    7.3851  -14.1139   21.9706 C   0  0  0  0  0  0  0  0  0  0  0  0
    7.1479  -14.7188   23.2824 C   0  0  0  0  0  0  0  0  0  0  0  0
    8.3080  -15.5569   23.7830 C   0  0  2  0  0  0  0  0  0  0  0  0
    8.7771  -16.4637   22.7547 N   0  0  0  0  0  0  0  0  0  0  0  0
    8.0023  -16.2994   25.0276 C   0  0  0  0  0  0  0  0  0  0  0  0
    7.5198  -15.6663   26.0183 O   0  0  0  0  0  0  0  0  0  0  0  0
    8.0139  -12.8930   21.8704 C   0  0  0  0  0  0  0  0  0  0  0  0
    8.2127  -12.3676   20.5867 C   0  0  0  0  0  0  0  0  0  0  0  0
    7.6174  -20.9913   29.0888 N   0  0  0  0  0  0  0  0  0  0  0  0
    6.7196  -21.2427   28.0192 C   0  0  0  0  0  0  0  0  0  0  0  0
    6.2504  -22.4209   27.8954 O   0  0  0  0  0  0  0  0  0  0  0  0
    6.3682  -20.1421   27.1121 C   0  0  0  0  0  0  0  0  0  0  0  0
    7.4094  -19.6939   26.1783 C   0  0  0  0  0  0  0  0  0  0  0  0
    8.0866  -18.3868   26.4888 C   0  0  2  0  0  0  0  0  0  0  0  0
    8.2090  -17.6768   25.1950 N   0  0  0  0  0  0  0  0  0  0  0  0
    9.3059  -18.4089   27.2466 C   0  0  0  0  0  0  0  0  0  0  0  0
    9.3158  -18.4401   28.6280 O   0  0  0  0  0  0  0  0  0  0  0  0
   10.4246  -18.3927   26.6742 O   0  0  0  0  0  0  0  0  0  0  0  0
  2  1  1  6
  2  3  1  0
  3  4  1  0
  4  5  2  0
  6  2  1  0
  7  6  2  0
  8  4  1  0
  9 10  1  0
 10 20  2  0
 10 11  1  0
 11 12  2  0
 12 13  1  0
 13 14  1  0
 15 14  1  6
 15 16  1  0
 16  6  1  0
 17 15  1  0
 17 27  1  0
 18 17  2  0
 19 13  2  0
 20 19  1  0
 22 21  1  0
 23 22  2  0
 24 22  1  0
 25 24  1  0
 26 27  1  0
 26 25  1  6
 28 26  1  0
 29 28  1  0
 30 28  2  0
M  END
$$$$
