DYQ.pdb
     RDKit          3D

 30 30  0  0  1  0  0  0  0  0999 V2000
    9.5336  -18.4552   19.2659 N   0  0  0  0  0  0  0  0  0  0  0  0
   10.8503  -17.9369   19.5851 C   0  0  1  0  0  0  0  0  0  0  0  0
   11.3285  -17.1829   18.3584 C   0  0  0  0  0  0  0  0  0  0  0  0
   11.6097  -18.1165   17.2373 C   0  0  0  0  0  0  0  0  0  0  0  0
   11.3787  -19.3589   17.3242 O   0  0  0  0  0  0  0  0  0  0  0  0
   10.7033  -17.0320   20.7519 C   0  0  0  0  0  0  0  0  0  0  0  0
   11.6548  -16.3208   21.1632 O   0  0  0  0  0  0  0  0  0  0  0  0
   12.1406  -17.6773   16.0341 O   0  0  0  0  0  0  0  0  0  0  0  0
    7.4254  -12.0627   18.0950 O   0  0  0  0  0  0  0  0  0  0  0  0
    7.5544  -12.9008   19.2170 C   0  0  0  0  0  0  0  0  0  0  0  0
    8.3178  -12.5035   20.2774 C   0  0  0  0  0  0  0  0  0  0  0  0
    8.4311  -13.3501   21.3780 C   0  0  0  0  0  0  0  0  0  0  0  0
    7.7991  -14.5689   21.4270 C   0  0  0  0  0  0  0  0  0  0  0  0
    7.9465  -15.4246   22.6057 C   0  0  0  0  0  0  0  0  0  0  0  0
    9.2597  -16.1813   22.6458 C   0  0  2  0  0  0  0  0  0  0  0  0
    9.4511  -16.9567   21.4368 N   0  0  0  0  0  0  0  0  0  0  0  0
    9.4047  -17.0432   23.8417 C   0  0  0  0  0  0  0  0  0  0  0  0
    9.0072  -18.2488   23.7822 O   0  0  0  0  0  0  0  0  0  0  0  0
    7.0275  -14.9774   20.3622 C   0  0  0  0  0  0  0  0  0  0  0  0
    6.9251  -14.1130   19.2641 C   0  0  0  0  0  0  0  0  0  0  0  0
   13.6217  -19.6080   23.5817 N   0  0  0  0  0  0  0  0  0  0  0  0
   13.5420  -19.9250   24.9625 C   0  0  0  0  0  0  0  0  0  0  0  0
   14.3308  -20.8153   25.4192 O   0  0  0  0  0  0  0  0  0  0  0  0
   12.5660  -19.2150   25.7998 C   0  0  0  0  0  0  0  0  0  0  0  0
   11.7590  -18.1780   25.1438 C   0  0  0  0  0  0  0  0  0  0  0  0
   10.7122  -17.4967   25.9827 C   0  0  2  0  0  0  0  0  0  0  0  0
    9.9607  -16.6180   25.0574 N   0  0  0  0  0  0  0  0  0  0  0  0
   11.1231  -16.8375   27.1903 C   0  0  0  0  0  0  0  0  0  0  0  0
   11.4309  -17.5341   28.3432 O   0  0  0  0  0  0  0  0  0  0  0  0
   11.2116  -15.5852   27.2466 O   0  0  0  0  0  0  0  0  0  0  0  0
  2  1  1  6
  2  3  1  0
  3  4  1  0
  4  5  2  0
  6  2  1  0
  7  6  2  0
  8  4  1  0
  9 10  1  0
 10 20  2  0
 10 11  1  0
 11 12  2  0
 12 13  1  0
 13 14  1  0
 15 14  1  6
 15 16  1  0
 16  6  1  0
 17 15  1  0
 17 27  1  0
 18 17  2  0
 19 13  2  0
 20 19  1  0
 22 21  1  0
 23 22  2  0
 24 22  1  0
 25 24  1  0
 26 27  1  0
 26 25  1  6
 28 26  1  0
 29 28  1  0
 30 28  2  0
M  END
$$$$
