DYQ.pdb
     RDKit          3D

 30 30  0  0  1  0  0  0  0  0999 V2000
    9.1023  -18.3432   21.2204 N   0  0  0  0  0  0  0  0  0  0  0  0
   10.3222  -17.5936   21.4532 C   0  0  1  0  0  0  0  0  0  0  0  0
   10.8519  -17.1930   20.0890 C   0  0  0  0  0  0  0  0  0  0  0  0
   11.2182  -18.3902   19.2890 C   0  0  0  0  0  0  0  0  0  0  0  0
   11.0084  -19.5673   19.7074 O   0  0  0  0  0  0  0  0  0  0  0  0
    9.9670  -16.4036   22.2654 C   0  0  0  0  0  0  0  0  0  0  0  0
   10.8076  -15.5075   22.5310 O   0  0  0  0  0  0  0  0  0  0  0  0
   11.8101  -18.2832   18.0398 O   0  0  0  0  0  0  0  0  0  0  0  0
    7.8482  -12.7714   17.7367 O   0  0  0  0  0  0  0  0  0  0  0  0
    7.6571  -13.1760   19.0699 C   0  0  0  0  0  0  0  0  0  0  0  0
    6.9593  -14.3187   19.3396 C   0  0  0  0  0  0  0  0  0  0  0  0
    6.7825  -14.7000   20.6678 C   0  0  0  0  0  0  0  0  0  0  0  0
    7.2882  -13.9622   21.7104 C   0  0  0  0  0  0  0  0  0  0  0  0
    7.0782  -14.4031   23.0905 C   0  0  0  0  0  0  0  0  0  0  0  0
    8.2427  -15.1891   23.6604 C   0  0  2  0  0  0  0  0  0  0  0  0
    8.6361  -16.2591   22.7660 N   0  0  0  0  0  0  0  0  0  0  0  0
    7.9847  -15.7190   25.0193 C   0  0  0  0  0  0  0  0  0  0  0  0
    6.8081  -15.6468   25.4941 O   0  0  0  0  0  0  0  0  0  0  0  0
    7.9929  -12.8088   21.4476 C   0  0  0  0  0  0  0  0  0  0  0  0
    8.1607  -12.4410   20.1060 C   0  0  0  0  0  0  0  0  0  0  0  0
    6.7150  -20.5274   24.5595 N   0  0  0  0  0  0  0  0  0  0  0  0
    6.9235  -20.7341   25.9478 C   0  0  0  0  0  0  0  0  0  0  0  0
    6.5308  -21.8349   26.4551 O   0  0  0  0  0  0  0  0  0  0  0  0
    7.5828  -19.6816   26.7322 C   0  0  0  0  0  0  0  0  0  0  0  0
    7.9069  -18.4341   26.0283 C   0  0  0  0  0  0  0  0  0  0  0  0
    8.6993  -17.4073   26.7909 C   0  0  2  0  0  0  0  0  0  0  0  0
    8.9627  -16.3074   25.8349 N   0  0  0  0  0  0  0  0  0  0  0  0
    9.8682  -17.8355   27.5063 C   0  0  0  0  0  0  0  0  0  0  0  0
   11.1441  -17.6666   27.0036 O   0  0  0  0  0  0  0  0  0  0  0  0
    9.7725  -18.3945   28.6277 O   0  0  0  0  0  0  0  0  0  0  0  0
  2  1  1  6
  2  3  1  0
  3  4  1  0
  4  5  2  0
  6  2  1  0
  7  6  2  0
  8  4  1  0
  9 10  1  0
 10 20  2  0
 10 11  1  0
 11 12  2  0
 12 13  1  0
 13 14  1  0
 15 14  1  6
 15 16  1  0
 16  6  1  0
 17 15  1  0
 17 27  1  0
 18 17  2  0
 19 13  2  0
 20 19  1  0
 22 21  1  0
 23 22  2  0
 24 22  1  0
 25 24  1  0
 26 27  1  0
 26 25  1  6
 28 26  1  0
 29 28  1  0
 30 28  2  0
M  END
$$$$
