DYQ.pdb
     RDKit          3D

 30 30  0  0  1  0  0  0  0  0999 V2000
   10.6273  -16.6285   19.1145 N   0  0  0  0  0  0  0  0  0  0  0  0
    9.9058  -17.3861   20.1193 C   0  0  1  0  0  0  0  0  0  0  0  0
   10.6718  -18.6805   20.3192 C   0  0  0  0  0  0  0  0  0  0  0  0
   10.8613  -19.3903   19.0277 C   0  0  0  0  0  0  0  0  0  0  0  0
   11.9455  -19.9771   18.7368 O   0  0  0  0  0  0  0  0  0  0  0  0
    9.8845  -16.5741   21.3611 C   0  0  0  0  0  0  0  0  0  0  0  0
   10.9352  -16.3106   21.9989 O   0  0  0  0  0  0  0  0  0  0  0  0
    9.8601  -19.4487   18.0703 O   0  0  0  0  0  0  0  0  0  0  0  0
    6.4290  -11.6013   27.8737 O   0  0  0  0  0  0  0  0  0  0  0  0
    6.6468  -12.3002   26.6729 C   0  0  0  0  0  0  0  0  0  0  0  0
    6.0749  -13.5265   26.4874 C   0  0  0  0  0  0  0  0  0  0  0  0
    6.3046  -14.2004   25.2899 C   0  0  0  0  0  0  0  0  0  0  0  0
    7.0869  -13.6686   24.2938 C   0  0  0  0  0  0  0  0  0  0  0  0
    7.2990  -14.4133   23.0514 C   0  0  0  0  0  0  0  0  0  0  0  0
    8.5385  -15.2862   23.0711 C   0  0  2  0  0  0  0  0  0  0  0  0
    8.6422  -16.0709   21.8573 N   0  0  0  0  0  0  0  0  0  0  0  0
    8.6209  -16.1625   24.2624 C   0  0  0  0  0  0  0  0  0  0  0  0
    7.9043  -17.2113   24.3048 O   0  0  0  0  0  0  0  0  0  0  0  0
    7.6673  -12.4328   24.4724 C   0  0  0  0  0  0  0  0  0  0  0  0
    7.4253  -11.7698   25.6829 C   0  0  0  0  0  0  0  0  0  0  0  0
   12.2797  -19.3209   23.2548 N   0  0  0  0  0  0  0  0  0  0  0  0
   11.9436  -19.2778   24.6327 C   0  0  0  0  0  0  0  0  0  0  0  0
   12.1213  -20.3320   25.3259 O   0  0  0  0  0  0  0  0  0  0  0  0
   11.4155  -18.0286   25.1970 C   0  0  0  0  0  0  0  0  0  0  0  0
   10.1519  -18.1183   25.9400 C   0  0  0  0  0  0  0  0  0  0  0  0
    9.6065  -16.8390   26.5141 C   0  0  2  0  0  0  0  0  0  0  0  0
    9.4491  -15.9153   25.3673 N   0  0  0  0  0  0  0  0  0  0  0  0
   10.2806  -16.2483   27.6359 C   0  0  0  0  0  0  0  0  0  0  0  0
   10.4555  -16.9215   28.8298 O   0  0  0  0  0  0  0  0  0  0  0  0
   10.7356  -15.0784   27.5754 O   0  0  0  0  0  0  0  0  0  0  0  0
  2  1  1  6
  2  3  1  0
  3  4  1  0
  4  5  2  0
  6  2  1  0
  7  6  2  0
  8  4  1  0
  9 10  1  0
 10 20  2  0
 10 11  1  0
 11 12  2  0
 12 13  1  0
 13 14  1  0
 15 14  1  6
 15 16  1  0
 16  6  1  0
 17 15  1  0
 17 27  1  0
 18 17  2  0
 19 13  2  0
 20 19  1  0
 22 21  1  0
 23 22  2  0
 24 22  1  0
 25 24  1  0
 26 27  1  0
 26 25  1  6
 28 26  1  0
 29 28  1  0
 30 28  2  0
M  END
$$$$
