DYQ.pdb
     RDKit          3D

 30 30  0  0  1  0  0  0  0  0999 V2000
   10.4922  -17.2638   17.7646 N   0  0  0  0  0  0  0  0  0  0  0  0
   10.4259  -17.9254   19.0538 C   0  0  1  0  0  0  0  0  0  0  0  0
   11.6044  -18.8791   19.1128 C   0  0  0  0  0  0  0  0  0  0  0  0
   11.5301  -19.8833   18.0203 C   0  0  0  0  0  0  0  0  0  0  0  0
   12.4776  -20.0504   17.1963 O   0  0  0  0  0  0  0  0  0  0  0  0
   10.5266  -16.8772   20.0994 C   0  0  0  0  0  0  0  0  0  0  0  0
   11.5169  -16.1064   20.1720 O   0  0  0  0  0  0  0  0  0  0  0  0
   10.4183  -20.6926   17.8438 O   0  0  0  0  0  0  0  0  0  0  0  0
    7.1715  -12.3623   17.2416 O   0  0  0  0  0  0  0  0  0  0  0  0
    7.4442  -12.9982   18.4659 C   0  0  0  0  0  0  0  0  0  0  0  0
    8.3288  -12.4356   19.3413 C   0  0  0  0  0  0  0  0  0  0  0  0
    8.5834  -13.0834   20.5482 C   0  0  0  0  0  0  0  0  0  0  0  0
    7.9723  -14.2675   20.8818 C   0  0  0  0  0  0  0  0  0  0  0  0
    8.2704  -14.9113   22.1624 C   0  0  0  0  0  0  0  0  0  0  0  0
    9.5246  -15.7627   22.1362 C   0  0  2  0  0  0  0  0  0  0  0  0
    9.4760  -16.7284   21.0569 N   0  0  0  0  0  0  0  0  0  0  0  0
    9.8021  -16.4397   23.4241 C   0  0  0  0  0  0  0  0  0  0  0  0
    8.8621  -17.0700   24.0022 O   0  0  0  0  0  0  0  0  0  0  0  0
    7.0791  -14.8418   20.0052 C   0  0  0  0  0  0  0  0  0  0  0  0
    6.8355  -14.1762   18.7964 C   0  0  0  0  0  0  0  0  0  0  0  0
   11.0632  -20.7665   22.5779 N   0  0  0  0  0  0  0  0  0  0  0  0
   12.1914  -20.7372   23.4379 C   0  0  0  0  0  0  0  0  0  0  0  0
   13.1143  -21.5941   23.2446 O   0  0  0  0  0  0  0  0  0  0  0  0
   12.2489  -19.7253   24.5012 C   0  0  0  0  0  0  0  0  0  0  0  0
   11.1400  -18.7644   24.5632 C   0  0  0  0  0  0  0  0  0  0  0  0
   11.4508  -17.3997   25.1150 C   0  0  2  0  0  0  0  0  0  0  0  0
   11.0508  -16.4369   24.0633 N   0  0  0  0  0  0  0  0  0  0  0  0
   12.7633  -17.1562   25.6440 C   0  0  0  0  0  0  0  0  0  0  0  0
   13.1824  -17.6844   26.8501 O   0  0  0  0  0  0  0  0  0  0  0  0
   13.5879  -16.4377   25.0251 O   0  0  0  0  0  0  0  0  0  0  0  0
  2  1  1  6
  2  3  1  0
  3  4  1  0
  4  5  2  0
  6  2  1  0
  7  6  2  0
  8  4  1  0
  9 10  1  0
 10 20  2  0
 10 11  1  0
 11 12  2  0
 12 13  1  0
 13 14  1  0
 15 14  1  1
 15 16  1  0
 16  6  1  0
 17 15  1  0
 17 27  1  0
 18 17  2  0
 19 13  2  0
 20 19  1  0
 22 21  1  0
 23 22  2  0
 24 22  1  0
 25 24  1  0
 26 27  1  0
 26 25  1  6
 28 26  1  0
 29 28  1  0
 30 28  2  0
M  END
$$$$
