DYQ.pdb
     RDKit          3D

 30 30  0  0  1  0  0  0  0  0999 V2000
    9.2443  -17.8907   20.5593 N   0  0  0  0  0  0  0  0  0  0  0  0
   10.5711  -17.5384   21.0281 C   0  0  1  0  0  0  0  0  0  0  0  0
   11.3363  -17.0288   19.8211 C   0  0  0  0  0  0  0  0  0  0  0  0
   11.3474  -18.0407   18.7333 C   0  0  0  0  0  0  0  0  0  0  0  0
   11.3651  -19.2843   18.9732 O   0  0  0  0  0  0  0  0  0  0  0  0
   10.4151  -16.4790   22.0554 C   0  0  0  0  0  0  0  0  0  0  0  0
   11.4063  -15.8889   22.5548 O   0  0  0  0  0  0  0  0  0  0  0  0
   11.3389  -17.6776   17.3952 O   0  0  0  0  0  0  0  0  0  0  0  0
    6.2175  -10.8677   27.5176 O   0  0  0  0  0  0  0  0  0  0  0  0
    6.5314  -11.7770   26.4917 C   0  0  0  0  0  0  0  0  0  0  0  0
    7.3107  -11.3766   25.4441 C   0  0  0  0  0  0  0  0  0  0  0  0
    7.6087  -12.2945   24.4394 C   0  0  0  0  0  0  0  0  0  0  0  0
    7.1428  -13.5864   24.4721 C   0  0  0  0  0  0  0  0  0  0  0  0
    7.4831  -14.5163   23.3938 C   0  0  0  0  0  0  0  0  0  0  0  0
    8.8758  -15.1030   23.5154 C   0  0  2  0  0  0  0  0  0  0  0  0
    9.1077  -16.1091   22.4987 N   0  0  0  0  0  0  0  0  0  0  0  0
    9.1674  -15.6500   24.8607 C   0  0  0  0  0  0  0  0  0  0  0  0
    9.5588  -14.8583   25.7745 O   0  0  0  0  0  0  0  0  0  0  0  0
    6.3564  -13.9985   25.5246 C   0  0  0  0  0  0  0  0  0  0  0  0
    6.0670  -13.0618   26.5257 C   0  0  0  0  0  0  0  0  0  0  0  0
    6.8814  -21.1635   26.8339 N   0  0  0  0  0  0  0  0  0  0  0  0
    7.4927  -20.6790   28.0192 C   0  0  0  0  0  0  0  0  0  0  0  0
    7.3066  -21.3302   29.0985 O   0  0  0  0  0  0  0  0  0  0  0  0
    8.3116  -19.4615   27.9504 C   0  0  0  0  0  0  0  0  0  0  0  0
    8.3444  -18.7560   26.6627 C   0  0  0  0  0  0  0  0  0  0  0  0
    9.2184  -17.5342   26.5771 C   0  0  2  0  0  0  0  0  0  0  0  0
    9.0391  -17.0035   25.2063 N   0  0  0  0  0  0  0  0  0  0  0  0
   10.5944  -17.6461   26.9717 C   0  0  0  0  0  0  0  0  0  0  0  0
   10.9934  -17.5544   28.2914 O   0  0  0  0  0  0  0  0  0  0  0  0
   11.5000  -17.8261   26.1192 O   0  0  0  0  0  0  0  0  0  0  0  0
  2  1  1  6
  2  3  1  0
  3  4  1  0
  4  5  2  0
  6  2  1  0
  7  6  2  0
  8  4  1  0
  9 10  1  0
 10 20  2  0
 10 11  1  0
 11 12  2  0
 12 13  1  0
 13 14  1  0
 15 14  1  1
 15 16  1  0
 16  6  1  0
 17 15  1  0
 17 27  1  0
 18 17  2  0
 19 13  2  0
 20 19  1  0
 22 21  1  0
 23 22  2  0
 24 22  1  0
 25 24  1  0
 26 27  1  0
 26 25  1  6
 28 26  1  0
 29 28  1  0
 30 28  2  0
M  END
$$$$
