DYQ.pdb
     RDKit          3D

 30 30  0  0  1  0  0  0  0  0999 V2000
    8.7260  -16.1120   20.2460 N   0  0  0  0  0  0  0  0  0  0  0  0
    9.8917  -16.8915   20.6172 C   0  0  1  0  0  0  0  0  0  0  0  0
   10.8827  -16.7597   19.4759 C   0  0  0  0  0  0  0  0  0  0  0  0
   10.3125  -17.2956   18.2129 C   0  0  0  0  0  0  0  0  0  0  0  0
   10.8035  -17.0108   17.0805 O   0  0  0  0  0  0  0  0  0  0  0  0
   10.4337  -16.3144   21.8723 C   0  0  0  0  0  0  0  0  0  0  0  0
   11.6131  -15.8865   21.9499 O   0  0  0  0  0  0  0  0  0  0  0  0
    9.2108  -18.1374   18.2059 O   0  0  0  0  0  0  0  0  0  0  0  0
   10.5498  -14.5800   30.6014 O   0  0  0  0  0  0  0  0  0  0  0  0
   10.1599  -14.7741   29.2643 C   0  0  0  0  0  0  0  0  0  0  0  0
    9.7844  -16.0168   28.8398 C   0  0  0  0  0  0  0  0  0  0  0  0
    9.4020  -16.1853   27.5108 C   0  0  0  0  0  0  0  0  0  0  0  0
    9.3917  -15.1413   26.6182 C   0  0  0  0  0  0  0  0  0  0  0  0
    8.9809  -15.3662   25.2311 C   0  0  0  0  0  0  0  0  0  0  0  0
   10.1049  -15.8507   24.3363 C   0  0  2  0  0  0  0  0  0  0  0  0
    9.6032  -16.2367   23.0328 N   0  0  0  0  0  0  0  0  0  0  0  0
   10.8975  -16.9509   24.9323 C   0  0  0  0  0  0  0  0  0  0  0  0
   10.3522  -18.0888   25.0844 O   0  0  0  0  0  0  0  0  0  0  0  0
    9.7688  -13.8851   27.0376 C   0  0  0  0  0  0  0  0  0  0  0  0
   10.1502  -13.7344   28.3775 C   0  0  0  0  0  0  0  0  0  0  0  0
   16.4611  -18.3177   22.8657 N   0  0  0  0  0  0  0  0  0  0  0  0
   15.8806  -17.1711   23.4672 C   0  0  0  0  0  0  0  0  0  0  0  0
   16.5644  -16.0963   23.4912 O   0  0  0  0  0  0  0  0  0  0  0  0
   14.5258  -17.2703   24.0261 C   0  0  0  0  0  0  0  0  0  0  0  0
   14.4091  -17.7916   25.3942 C   0  0  0  0  0  0  0  0  0  0  0  0
   13.0202  -17.9212   25.9579 C   0  0  2  0  0  0  0  0  0  0  0  0
   12.2316  -16.8264   25.3474 N   0  0  0  0  0  0  0  0  0  0  0  0
   12.8638  -18.0132   27.3822 C   0  0  0  0  0  0  0  0  0  0  0  0
   12.0913  -17.1195   28.0990 O   0  0  0  0  0  0  0  0  0  0  0  0
   13.4376  -18.9175   28.0397 O   0  0  0  0  0  0  0  0  0  0  0  0
  2  1  1  6
  2  3  1  0
  3  4  1  0
  4  5  2  0
  6  2  1  0
  7  6  2  0
  8  4  1  0
  9 10  1  0
 10 20  2  0
 10 11  1  0
 11 12  2  0
 12 13  1  0
 13 14  1  0
 15 14  1  1
 15 16  1  0
 16  6  1  0
 17 15  1  0
 17 27  1  0
 18 17  2  0
 19 13  2  0
 20 19  1  0
 22 21  1  0
 23 22  2  0
 24 22  1  0
 25 24  1  0
 26 27  1  0
 26 25  1  1
 28 26  1  0
 29 28  1  0
 30 28  2  0
M  END
$$$$
