DYQ.pdb
     RDKit          3D

 30 30  0  0  1  0  0  0  0  0999 V2000
   10.4098  -16.4837   19.2710 N   0  0  0  0  0  0  0  0  0  0  0  0
   10.3988  -17.4466   20.3559 C   0  0  1  0  0  0  0  0  0  0  0  0
   11.7294  -18.1738   20.3035 C   0  0  0  0  0  0  0  0  0  0  0  0
   11.9906  -18.7058   18.9411 C   0  0  0  0  0  0  0  0  0  0  0  0
   11.1677  -19.4637   18.3470 O   0  0  0  0  0  0  0  0  0  0  0  0
   10.2465  -16.6899   21.6232 C   0  0  0  0  0  0  0  0  0  0  0  0
   11.1924  -16.5722   22.4427 O   0  0  0  0  0  0  0  0  0  0  0  0
   13.1507  -18.4008   18.2457 O   0  0  0  0  0  0  0  0  0  0  0  0
    6.3886  -11.5512   27.7537 O   0  0  0  0  0  0  0  0  0  0  0  0
    6.6916  -12.2541   26.5740 C   0  0  0  0  0  0  0  0  0  0  0  0
    7.5472  -11.7094   25.6594 C   0  0  0  0  0  0  0  0  0  0  0  0
    7.8328  -12.4239   24.4980 C   0  0  0  0  0  0  0  0  0  0  0  0
    7.2804  -13.6563   24.2473 C   0  0  0  0  0  0  0  0  0  0  0  0
    7.6110  -14.3708   23.0129 C   0  0  0  0  0  0  0  0  0  0  0  0
    8.7581  -15.3501   23.1672 C   0  0  2  0  0  0  0  0  0  0  0  0
    8.9955  -16.0726   21.9338 N   0  0  0  0  0  0  0  0  0  0  0  0
    8.5764  -16.2948   24.2935 C   0  0  0  0  0  0  0  0  0  0  0  0
    7.8804  -17.3424   24.1109 O   0  0  0  0  0  0  0  0  0  0  0  0
    6.4167  -14.2130   25.1638 C   0  0  0  0  0  0  0  0  0  0  0  0
    6.1412  -13.4801   26.3259 C   0  0  0  0  0  0  0  0  0  0  0  0
   13.1362  -18.9158   24.2998 N   0  0  0  0  0  0  0  0  0  0  0  0
   12.2278  -19.7988   24.9389 C   0  0  0  0  0  0  0  0  0  0  0  0
   12.5279  -21.0362   24.9856 O   0  0  0  0  0  0  0  0  0  0  0  0
   10.9941  -19.2521   25.5193 C   0  0  0  0  0  0  0  0  0  0  0  0
   10.8092  -17.7976   25.4353 C   0  0  0  0  0  0  0  0  0  0  0  0
    9.7855  -17.1866   26.3531 C   0  0  2  0  0  0  0  0  0  0  0  0
    9.1285  -16.1148   25.5705 N   0  0  0  0  0  0  0  0  0  0  0  0
   10.2012  -16.7665   27.6616 C   0  0  0  0  0  0  0  0  0  0  0  0
   10.7654  -15.5268   27.8941 O   0  0  0  0  0  0  0  0  0  0  0  0
   10.0729  -17.5239   28.6562 O   0  0  0  0  0  0  0  0  0  0  0  0
  2  1  1  6
  2  3  1  0
  3  4  1  0
  4  5  2  0
  6  2  1  0
  7  6  2  0
  8  4  1  0
  9 10  1  0
 10 20  2  0
 10 11  1  0
 11 12  2  0
 12 13  1  0
 13 14  1  0
 15 14  1  6
 15 16  1  0
 16  6  1  0
 17 15  1  0
 17 27  1  0
 18 17  2  0
 19 13  2  0
 20 19  1  0
 22 21  1  0
 23 22  2  0
 24 22  1  0
 25 24  1  0
 26 27  1  0
 26 25  1  6
 28 26  1  0
 29 28  1  0
 30 28  2  0
M  END
$$$$
