HAQ.pdb
     RDKit          3D

 25 25  0  0  1  0  0  0  0  0999 V2000
    7.2409  -17.1068   20.9958 N   0  0  0  0  0  0  0  0  0  0  0  0
    6.5612  -16.5500   22.1220 C   0  0  1  0  0  0  0  0  0  0  0  0
    5.7593  -17.6117   22.8490 C   0  0  0  0  0  0  0  0  0  0  0  0
    4.6646  -18.0608   21.9733 C   0  0  0  0  0  0  0  0  0  0  0  0
    4.4797  -17.6778   20.6617 C   0  0  0  0  0  0  0  0  0  0  0  0
    3.3641  -18.3223   20.2430 N   0  0  0  0  0  0  0  0  0  0  0  0
    2.8786  -19.0713   21.2493 C   0  0  0  0  0  0  0  0  0  0  0  0
    3.6862  -18.9045   22.3124 N   0  0  0  0  0  0  0  0  0  0  0  0
    7.4310  -15.7889   23.0336 C   0  0  0  0  0  0  0  0  0  0  0  0
    8.6252  -16.1434   23.1448 O   0  0  0  0  0  0  0  0  0  0  0  0
    7.1270  -12.7993   25.3824 C   0  0  0  0  0  0  0  0  0  0  0  0
    7.8251  -13.9822   24.7400 C   0  0  2  0  0  0  0  0  0  0  0  0
    6.9779  -14.6633   23.7991 N   0  0  0  0  0  0  0  0  0  0  0  0
    8.2276  -14.9264   25.8078 C   0  0  0  0  0  0  0  0  0  0  0  0
    7.3800  -15.7502   26.2675 O   0  0  0  0  0  0  0  0  0  0  0  0
   13.1117  -18.2674   25.1616 N   0  0  0  0  0  0  0  0  0  0  0  0
   11.7860  -18.7726   25.4062 C   0  0  0  0  0  0  0  0  0  0  0  0
   11.5662  -19.9040   24.9336 O   0  0  0  0  0  0  0  0  0  0  0  0
   10.7824  -18.0324   26.1371 C   0  0  0  0  0  0  0  0  0  0  0  0
   11.0692  -16.6942   26.6679 C   0  0  0  0  0  0  0  0  0  0  0  0
    9.9683  -15.9218   27.3060 C   0  0  2  0  0  0  0  0  0  0  0  0
    9.5542  -14.9041   26.3087 N   0  0  0  0  0  0  0  0  0  0  0  0
   10.2714  -15.2034   28.5363 C   0  0  0  0  0  0  0  0  0  0  0  0
   10.4089  -15.8057   29.7664 O   0  0  0  0  0  0  0  0  0  0  0  0
   10.4249  -13.9308   28.5020 O   0  0  0  0  0  0  0  0  0  0  0  0
  2  1  1  6
  2  9  1  0
  3  2  1  0
  4  5  2  0
  4  3  1  0
  6  5  1  0
  7  8  2  0
  7  6  1  0
  8  4  1  0
  9 10  2  0
 12 11  1  1
 12 14  1  0
 13 12  1  0
 13  9  1  0
 14 15  2  0
 16 17  1  0
 17 19  1  0
 18 17  2  0
 19 20  1  0
 21 20  1  6
 21 23  1  0
 22 14  1  0
 22 21  1  0
 23 25  2  0
 23 24  1  0
M  END
$$$$
