HAQ.pdb
     RDKit          3D

 25 25  0  0  1  0  0  0  0  0999 V2000
   11.6607  -14.4915   18.1408 N   0  0  0  0  0  0  0  0  0  0  0  0
   12.3426  -15.0032   19.2870 C   0  0  1  0  0  0  0  0  0  0  0  0
   13.3834  -14.0181   19.7819 C   0  0  0  0  0  0  0  0  0  0  0  0
   14.6289  -14.2249   19.0251 C   0  0  0  0  0  0  0  0  0  0  0  0
   14.8881  -15.2861   18.1837 C   0  0  0  0  0  0  0  0  0  0  0  0
   16.1376  -15.0791   17.7030 N   0  0  0  0  0  0  0  0  0  0  0  0
   16.6314  -13.9408   18.2225 C   0  0  0  0  0  0  0  0  0  0  0  0
   15.6951  -13.4205   19.0365 N   0  0  0  0  0  0  0  0  0  0  0  0
   11.4495  -15.4570   20.3654 C   0  0  0  0  0  0  0  0  0  0  0  0
   10.4852  -14.7259   20.6814 O   0  0  0  0  0  0  0  0  0  0  0  0
   10.5519  -18.6206   22.1326 C   0  0  0  0  0  0  0  0  0  0  0  0
   10.7429  -17.1165   22.1200 C   0  0  2  0  0  0  0  0  0  0  0  0
   11.6297  -16.6934   21.0705 N   0  0  0  0  0  0  0  0  0  0  0  0
   11.3015  -16.7032   23.4280 C   0  0  0  0  0  0  0  0  0  0  0  0
   12.5579  -16.6037   23.5692 O   0  0  0  0  0  0  0  0  0  0  0  0
    9.7353  -13.6026   30.0096 N   0  0  0  0  0  0  0  0  0  0  0  0
    9.3934  -14.1384   28.7179 C   0  0  0  0  0  0  0  0  0  0  0  0
    8.3363  -13.6914   28.2337 O   0  0  0  0  0  0  0  0  0  0  0  0
   10.2032  -15.1195   28.0316 C   0  0  0  0  0  0  0  0  0  0  0  0
    9.9530  -15.4530   26.6240 C   0  0  0  0  0  0  0  0  0  0  0  0
   11.0073  -16.1699   25.8559 C   0  0  2  0  0  0  0  0  0  0  0  0
   10.4312  -16.4218   24.5119 N   0  0  0  0  0  0  0  0  0  0  0  0
   11.4580  -17.4575   26.3663 C   0  0  0  0  0  0  0  0  0  0  0  0
   10.7438  -18.6278   26.2440 O   0  0  0  0  0  0  0  0  0  0  0  0
   12.5858  -17.5362   26.9715 O   0  0  0  0  0  0  0  0  0  0  0  0
  2  1  1  6
  2  9  1  0
  3  2  1  0
  4  5  2  0
  4  3  1  0
  6  5  1  0
  7  8  2  0
  7  6  1  0
  8  4  1  0
  9 10  2  0
 12 11  1  1
 12 14  1  0
 13 12  1  0
 13  9  1  0
 14 15  2  0
 16 17  1  0
 17 19  1  0
 18 17  2  0
 19 20  1  0
 21 20  1  1
 21 23  1  0
 22 14  1  0
 22 21  1  0
 23 25  2  0
 23 24  1  0
M  END
$$$$
