HAQ.pdb
     RDKit          3D

 25 25  0  0  1  0  0  0  0  0999 V2000
    9.7132  -14.2139   21.5752 N   0  0  0  0  0  0  0  0  0  0  0  0
    8.4845  -13.7997   22.1745 C   0  0  1  0  0  0  0  0  0  0  0  0
    7.3070  -14.5214   21.5488 C   0  0  0  0  0  0  0  0  0  0  0  0
    7.3554  -14.3305   20.0901 C   0  0  0  0  0  0  0  0  0  0  0  0
    7.4654  -13.1172   19.4442 C   0  0  0  0  0  0  0  0  0  0  0  0
    7.4733  -13.4036   18.1201 N   0  0  0  0  0  0  0  0  0  0  0  0
    7.3728  -14.7344   17.9519 C   0  0  0  0  0  0  0  0  0  0  0  0
    7.3006  -15.2984   19.1712 N   0  0  0  0  0  0  0  0  0  0  0  0
    8.4726  -13.8863   23.6439 C   0  0  0  0  0  0  0  0  0  0  0  0
    9.2202  -14.7255   24.1927 O   0  0  0  0  0  0  0  0  0  0  0  0
    6.8077  -12.0854   26.5619 C   0  0  0  0  0  0  0  0  0  0  0  0
    7.9008  -12.8855   25.8806 C   0  0  2  0  0  0  0  0  0  0  0  0
    7.6480  -13.0580   24.4758 N   0  0  0  0  0  0  0  0  0  0  0  0
    7.9835  -14.2145   26.5290 C   0  0  0  0  0  0  0  0  0  0  0  0
    7.0434  -15.0501   26.3668 O   0  0  0  0  0  0  0  0  0  0  0  0
   10.9951  -18.8162   25.2456 N   0  0  0  0  0  0  0  0  0  0  0  0
   11.6471  -17.5951   25.6409 C   0  0  0  0  0  0  0  0  0  0  0  0
   12.7677  -17.4152   25.1273 O   0  0  0  0  0  0  0  0  0  0  0  0
   11.0587  -16.6493   26.5621 C   0  0  0  0  0  0  0  0  0  0  0  0
    9.6878  -16.8294   27.0553 C   0  0  0  0  0  0  0  0  0  0  0  0
    9.1395  -15.8488   28.0318 C   0  0  2  0  0  0  0  0  0  0  0  0
    9.1098  -14.5444   27.3253 N   0  0  0  0  0  0  0  0  0  0  0  0
    9.8811  -15.6389   29.2677 C   0  0  0  0  0  0  0  0  0  0  0  0
   10.3960  -14.4244   29.6607 O   0  0  0  0  0  0  0  0  0  0  0  0
   10.0821  -16.6283   30.0583 O   0  0  0  0  0  0  0  0  0  0  0  0
  2  1  1  6
  2  9  1  0
  3  2  1  0
  4  5  2  0
  4  3  1  0
  6  5  1  0
  7  8  2  0
  7  6  1  0
  8  4  1  0
  9 10  2  0
 12 11  1  1
 12 14  1  0
 13 12  1  0
 13  9  1  0
 14 15  2  0
 16 17  1  0
 17 19  1  0
 18 17  2  0
 19 20  1  0
 21 20  1  6
 21 23  1  0
 22 14  1  0
 22 21  1  0
 23 25  2  0
 23 24  1  0
M  END
$$$$
