HAQ.pdb
     RDKit          3D

 25 25  0  0  1  0  0  0  0  0999 V2000
   10.0338  -14.3675   20.4575 N   0  0  0  0  0  0  0  0  0  0  0  0
    8.7962  -14.0921   21.1155 C   0  0  1  0  0  0  0  0  0  0  0  0
    7.6543  -14.8396   20.4553 C   0  0  0  0  0  0  0  0  0  0  0  0
    7.6324  -14.5014   19.0228 C   0  0  0  0  0  0  0  0  0  0  0  0
    7.8299  -13.2435   18.4937 C   0  0  0  0  0  0  0  0  0  0  0  0
    7.7256  -13.3876   17.1508 N   0  0  0  0  0  0  0  0  0  0  0  0
    7.4747  -14.6767   16.8596 C   0  0  0  0  0  0  0  0  0  0  0  0
    7.4187  -15.3566   18.0193 N   0  0  0  0  0  0  0  0  0  0  0  0
    8.8296  -14.3020   22.5721 C   0  0  0  0  0  0  0  0  0  0  0  0
    9.7201  -15.0438   23.0422 O   0  0  0  0  0  0  0  0  0  0  0  0
    6.8469  -13.1757   25.6297 C   0  0  0  0  0  0  0  0  0  0  0  0
    7.9480  -13.9173   24.8972 C   0  0  2  0  0  0  0  0  0  0  0  0
    7.8937  -13.6995   23.4771 N   0  0  0  0  0  0  0  0  0  0  0  0
    7.8046  -15.3650   25.1753 C   0  0  0  0  0  0  0  0  0  0  0  0
    6.9261  -16.0378   24.5556 O   0  0  0  0  0  0  0  0  0  0  0  0
   10.3205  -19.2867   22.6792 N   0  0  0  0  0  0  0  0  0  0  0  0
   11.1084  -18.6580   23.7070 C   0  0  0  0  0  0  0  0  0  0  0  0
   12.3328  -18.6314   23.4793 O   0  0  0  0  0  0  0  0  0  0  0  0
   10.5345  -18.1027   24.9119 C   0  0  0  0  0  0  0  0  0  0  0  0
    9.0813  -18.0912   25.1196 C   0  0  0  0  0  0  0  0  0  0  0  0
    8.5350  -17.4523   26.3480 C   0  0  2  0  0  0  0  0  0  0  0  0
    8.6476  -15.9889   26.1300 N   0  0  0  0  0  0  0  0  0  0  0  0
    9.1992  -17.7397   27.6120 C   0  0  0  0  0  0  0  0  0  0  0  0
    9.8803  -16.8025   28.3553 O   0  0  0  0  0  0  0  0  0  0  0  0
    9.1640  -18.9305   28.0865 O   0  0  0  0  0  0  0  0  0  0  0  0
  2  1  1  6
  2  9  1  0
  3  2  1  0
  4  5  2  0
  4  3  1  0
  6  5  1  0
  7  8  2  0
  7  6  1  0
  8  4  1  0
  9 10  2  0
 12 11  1  1
 12 14  1  0
 13 12  1  0
 13  9  1  0
 14 15  2  0
 16 17  1  0
 17 19  1  0
 18 17  2  0
 19 20  1  0
 21 20  1  6
 21 23  1  0
 22 14  1  0
 22 21  1  0
 23 25  2  0
 23 24  1  0
M  END
$$$$
