HAQ.pdb
     RDKit          3D

 25 25  0  0  1  0  0  0  0  0999 V2000
    9.6999  -15.6540   20.0178 N   0  0  0  0  0  0  0  0  0  0  0  0
    8.8747  -15.3281   21.1373 C   0  0  1  0  0  0  0  0  0  0  0  0
    7.4553  -15.0305   20.6948 C   0  0  0  0  0  0  0  0  0  0  0  0
    7.5014  -14.2778   19.4307 C   0  0  0  0  0  0  0  0  0  0  0  0
    7.6099  -12.9079   19.3176 C   0  0  0  0  0  0  0  0  0  0  0  0
    7.6158  -12.6468   17.9884 N   0  0  0  0  0  0  0  0  0  0  0  0
    7.5156  -13.8024   17.3073 C   0  0  0  0  0  0  0  0  0  0  0  0
    7.4455  -14.8031   18.2039 N   0  0  0  0  0  0  0  0  0  0  0  0
    8.9216  -16.3164   22.2272 C   0  0  0  0  0  0  0  0  0  0  0  0
    8.1844  -16.1356   23.2213 O   0  0  0  0  0  0  0  0  0  0  0  0
   10.7101  -19.5951   22.9921 C   0  0  0  0  0  0  0  0  0  0  0  0
    9.8471  -18.3900   23.3112 C   0  0  2  0  0  0  0  0  0  0  0  0
    9.7688  -17.4739   22.2059 N   0  0  0  0  0  0  0  0  0  0  0  0
   10.4275  -17.6938   24.4826 C   0  0  0  0  0  0  0  0  0  0  0  0
   11.3590  -16.8504   24.3117 O   0  0  0  0  0  0  0  0  0  0  0  0
   10.0184  -13.3865   27.2680 N   0  0  0  0  0  0  0  0  0  0  0  0
   10.0892  -14.0992   28.5169 C   0  0  0  0  0  0  0  0  0  0  0  0
   10.3900  -13.3955   29.4998 O   0  0  0  0  0  0  0  0  0  0  0  0
    9.8368  -15.5179   28.6307 C   0  0  0  0  0  0  0  0  0  0  0  0
    9.5332  -16.3278   27.4447 C   0  0  0  0  0  0  0  0  0  0  0  0
   10.5549  -17.2905   26.9497 C   0  0  2  0  0  0  0  0  0  0  0  0
    9.9399  -17.9733   25.7848 N   0  0  0  0  0  0  0  0  0  0  0  0
   10.9969  -18.3359   27.8625 C   0  0  0  0  0  0  0  0  0  0  0  0
   12.0555  -18.2026   28.7323 O   0  0  0  0  0  0  0  0  0  0  0  0
   10.3810  -19.4605   27.8792 O   0  0  0  0  0  0  0  0  0  0  0  0
  2  1  1  6
  2  9  1  0
  3  2  1  0
  4  5  2  0
  4  3  1  0
  6  5  1  0
  7  8  2  0
  7  6  1  0
  8  4  1  0
  9 10  2  0
 12 11  1  6
 12 14  1  0
 13 12  1  0
 13  9  1  0
 14 15  2  0
 16 17  1  0
 17 19  1  0
 18 17  2  0
 19 20  1  0
 21 20  1  1
 21 23  1  0
 22 14  1  0
 22 21  1  0
 23 25  2  0
 23 24  1  0
M  END
$$$$
