HAQ.pdb
     RDKit          3D

 25 25  0  0  1  0  0  0  0  0999 V2000
    9.9966  -15.7286   18.9377 N   0  0  0  0  0  0  0  0  0  0  0  0
    8.8593  -15.3063   19.6919 C   0  0  1  0  0  0  0  0  0  0  0  0
    7.6049  -15.3349   18.8408 C   0  0  0  0  0  0  0  0  0  0  0  0
    7.8666  -14.6093   17.5871 C   0  0  0  0  0  0  0  0  0  0  0  0
    8.0606  -13.2488   17.4745 C   0  0  0  0  0  0  0  0  0  0  0  0
    8.2663  -13.0134   16.1564 N   0  0  0  0  0  0  0  0  0  0  0  0
    8.2027  -14.1752   15.4815 C   0  0  0  0  0  0  0  0  0  0  0  0
    7.9560  -15.1541   16.3708 N   0  0  0  0  0  0  0  0  0  0  0  0
    8.6830  -16.0218   20.9661 C   0  0  0  0  0  0  0  0  0  0  0  0
    7.6703  -15.7644   21.6534 O   0  0  0  0  0  0  0  0  0  0  0  0
   10.5684  -18.6129   23.0328 C   0  0  0  0  0  0  0  0  0  0  0  0
    9.5400  -17.5247   22.7932 C   0  0  2  0  0  0  0  0  0  0  0  0
    9.6129  -16.9975   21.4577 N   0  0  0  0  0  0  0  0  0  0  0  0
    9.7782  -16.4316   23.7638 C   0  0  0  0  0  0  0  0  0  0  0  0
   10.6275  -15.5291   23.4946 O   0  0  0  0  0  0  0  0  0  0  0  0
    5.5155  -12.8873   26.1579 N   0  0  0  0  0  0  0  0  0  0  0  0
    6.7110  -12.5377   26.8799 C   0  0  0  0  0  0  0  0  0  0  0  0
    6.6135  -11.5118   27.5796 O   0  0  0  0  0  0  0  0  0  0  0  0
    7.9323  -13.3070   26.8026 C   0  0  0  0  0  0  0  0  0  0  0  0
    8.0351  -14.4724   25.9159 C   0  0  0  0  0  0  0  0  0  0  0  0
    9.2853  -15.2801   25.9310 C   0  0  2  0  0  0  0  0  0  0  0  0
    9.0575  -16.4002   24.9849 N   0  0  0  0  0  0  0  0  0  0  0  0
    9.6894  -15.8768   27.1968 C   0  0  0  0  0  0  0  0  0  0  0  0
    9.6192  -17.2238   27.4710 O   0  0  0  0  0  0  0  0  0  0  0  0
   10.1424  -15.1254   28.1320 O   0  0  0  0  0  0  0  0  0  0  0  0
  2  1  1  6
  2  9  1  0
  3  2  1  0
  4  5  2  0
  4  3  1  0
  6  5  1  0
  7  8  2  0
  7  6  1  0
  8  4  1  0
  9 10  2  0
 12 11  1  6
 12 14  1  0
 13 12  1  0
 13  9  1  0
 14 15  2  0
 16 17  1  0
 17 19  1  0
 18 17  2  0
 19 20  1  0
 21 20  1  1
 21 23  1  0
 22 14  1  0
 22 21  1  0
 23 25  2  0
 23 24  1  0
M  END
$$$$
