HAQ.pdb
     RDKit          3D

 25 25  0  0  1  0  0  0  0  0999 V2000
   11.5575  -16.3356   19.5212 N   0  0  0  0  0  0  0  0  0  0  0  0
   12.4208  -16.4897   20.6488 C   0  0  1  0  0  0  0  0  0  0  0  0
   13.0975  -15.1779   20.9953 C   0  0  0  0  0  0  0  0  0  0  0  0
   13.9296  -14.7588   19.8558 C   0  0  0  0  0  0  0  0  0  0  0  0
   13.9384  -15.3499   18.6101 C   0  0  0  0  0  0  0  0  0  0  0  0
   14.8402  -14.6533   17.8775 N   0  0  0  0  0  0  0  0  0  0  0  0
   15.3673  -13.6742   18.6343 C   0  0  0  0  0  0  0  0  0  0  0  0
   14.8006  -13.7461   19.8525 N   0  0  0  0  0  0  0  0  0  0  0  0
   11.7775  -17.1094   21.8187 C   0  0  0  0  0  0  0  0  0  0  0  0
   10.7515  -16.5674   22.2855 O   0  0  0  0  0  0  0  0  0  0  0  0
   12.0409  -20.3349   23.7969 C   0  0  0  0  0  0  0  0  0  0  0  0
   11.6153  -18.8952   23.5840 C   0  0  2  0  0  0  0  0  0  0  0  0
   12.2677  -18.3015   22.4487 N   0  0  0  0  0  0  0  0  0  0  0  0
   11.9521  -18.1212   24.8011 C   0  0  0  0  0  0  0  0  0  0  0  0
   13.0838  -17.5558   24.8905 O   0  0  0  0  0  0  0  0  0  0  0  0
    9.5220  -13.4646   27.2832 N   0  0  0  0  0  0  0  0  0  0  0  0
    9.9268  -14.1160   28.5015 C   0  0  0  0  0  0  0  0  0  0  0  0
    9.9544  -13.3747   29.5022 O   0  0  0  0  0  0  0  0  0  0  0  0
   10.2786  -15.5165   28.5676 C   0  0  0  0  0  0  0  0  0  0  0  0
   10.2325  -16.3634   27.3695 C   0  0  0  0  0  0  0  0  0  0  0  0
   11.3787  -17.2690   27.0837 C   0  0  2  0  0  0  0  0  0  0  0  0
   11.0103  -18.0168   25.8563 N   0  0  0  0  0  0  0  0  0  0  0  0
   11.7231  -18.2624   28.0918 C   0  0  0  0  0  0  0  0  0  0  0  0
   12.6001  -18.0366   29.1283 O   0  0  0  0  0  0  0  0  0  0  0  0
   11.1919  -19.4282   28.0356 O   0  0  0  0  0  0  0  0  0  0  0  0
  2  1  1  6
  2  9  1  0
  3  2  1  0
  4  5  2  0
  4  3  1  0
  6  5  1  0
  7  8  2  0
  7  6  1  0
  8  4  1  0
  9 10  2  0
 12 11  1  1
 12 14  1  0
 13 12  1  0
 13  9  1  0
 14 15  2  0
 16 17  1  0
 17 19  1  0
 18 17  2  0
 19 20  1  0
 21 20  1  1
 21 23  1  0
 22 14  1  0
 22 21  1  0
 23 25  2  0
 23 24  1  0
M  END
$$$$
