HAQ.pdb
     RDKit          3D

 25 25  0  0  1  0  0  0  0  0999 V2000
   12.5066  -14.3010   18.6996 N   0  0  0  0  0  0  0  0  0  0  0  0
   11.4648  -15.1816   19.1236 C   0  0  1  0  0  0  0  0  0  0  0  0
   11.9945  -16.5875   19.3277 C   0  0  0  0  0  0  0  0  0  0  0  0
   12.3910  -17.1384   18.0215 C   0  0  0  0  0  0  0  0  0  0  0  0
   11.5568  -17.7977   17.1436 C   0  0  0  0  0  0  0  0  0  0  0  0
   12.3279  -18.1286   16.0801 N   0  0  0  0  0  0  0  0  0  0  0  0
   13.5838  -17.6943   16.2885 C   0  0  0  0  0  0  0  0  0  0  0  0
   13.6142  -17.0849   17.4876 N   0  0  0  0  0  0  0  0  0  0  0  0
   10.7061  -14.6988   20.2889 C   0  0  0  0  0  0  0  0  0  0  0  0
   11.3332  -14.4564   21.3436 O   0  0  0  0  0  0  0  0  0  0  0  0
    7.1033  -13.7654   21.1170 C   0  0  0  0  0  0  0  0  0  0  0  0
    8.5685  -14.0080   21.4225 C   0  0  2  0  0  0  0  0  0  0  0  0
    9.2864  -14.4929   20.2751 N   0  0  0  0  0  0  0  0  0  0  0  0
    8.6617  -15.0046   22.5142 C   0  0  0  0  0  0  0  0  0  0  0  0
    8.9114  -16.2166   22.2362 O   0  0  0  0  0  0  0  0  0  0  0  0
    9.5134  -13.3653   28.7200 N   0  0  0  0  0  0  0  0  0  0  0  0
    9.5592  -14.8015   28.6328 C   0  0  0  0  0  0  0  0  0  0  0  0
    9.8093  -15.3792   29.7077 O   0  0  0  0  0  0  0  0  0  0  0  0
    9.3379  -15.5243   27.4007 C   0  0  0  0  0  0  0  0  0  0  0  0
    9.0772  -14.8114   26.1442 C   0  0  0  0  0  0  0  0  0  0  0  0
    8.6588  -15.5916   24.9475 C   0  0  2  0  0  0  0  0  0  0  0  0
    8.4718  -14.5996   23.8601 N   0  0  0  0  0  0  0  0  0  0  0  0
    7.4207  -16.3537   25.0365 C   0  0  0  0  0  0  0  0  0  0  0  0
    7.3240  -17.6026   25.6071 O   0  0  0  0  0  0  0  0  0  0  0  0
    6.3382  -15.8558   24.5625 O   0  0  0  0  0  0  0  0  0  0  0  0
  2  1  1  1
  2  9  1  0
  3  2  1  0
  4  5  2  0
  4  3  1  0
  6  5  1  0
  7  8  2  0
  7  6  1  0
  8  4  1  0
  9 10  2  0
 12 11  1  6
 12 14  1  0
 13 12  1  0
 13  9  1  0
 14 15  2  0
 16 17  1  0
 17 19  1  0
 18 17  2  0
 19 20  1  0
 21 20  1  1
 21 23  1  0
 22 14  1  0
 22 21  1  0
 23 25  2  0
 23 24  1  0
M  END
$$$$
