HAQ.pdb
     RDKit          3D

 25 25  0  0  1  0  0  0  0  0999 V2000
    8.4918  -17.5129   16.4822 N   0  0  0  0  0  0  0  0  0  0  0  0
    7.7032  -17.4747   17.6726 C   0  0  1  0  0  0  0  0  0  0  0  0
    7.3391  -18.8752   18.1254 C   0  0  0  0  0  0  0  0  0  0  0  0
    6.0417  -19.2416   17.5345 C   0  0  0  0  0  0  0  0  0  0  0  0
    4.8186  -18.7226   17.9029 C   0  0  0  0  0  0  0  0  0  0  0  0
    3.9051  -19.3326   17.1101 N   0  0  0  0  0  0  0  0  0  0  0  0
    4.5330  -20.1914   16.2869 C   0  0  0  0  0  0  0  0  0  0  0  0
    5.8499  -20.1292   16.5550 N   0  0  0  0  0  0  0  0  0  0  0  0
    8.2920  -16.6747   18.7589 C   0  0  0  0  0  0  0  0  0  0  0  0
    9.4444  -16.9645   19.1488 O   0  0  0  0  0  0  0  0  0  0  0  0
    7.3312  -13.6348   20.8524 C   0  0  0  0  0  0  0  0  0  0  0  0
    8.2449  -14.7469   20.3753 C   0  0  2  0  0  0  0  0  0  0  0  0
    7.6111  -15.5816   19.3911 N   0  0  0  0  0  0  0  0  0  0  0  0
    8.6281  -15.5732   21.5432 C   0  0  0  0  0  0  0  0  0  0  0  0
    7.8448  -16.4837   21.9502 O   0  0  0  0  0  0  0  0  0  0  0  0
   13.3824  -18.8304   22.2700 N   0  0  0  0  0  0  0  0  0  0  0  0
   13.2506  -18.4473   23.6514 C   0  0  0  0  0  0  0  0  0  0  0  0
   13.9027  -19.1478   24.4488 O   0  0  0  0  0  0  0  0  0  0  0  0
   12.4273  -17.3426   24.0884 C   0  0  0  0  0  0  0  0  0  0  0  0
   11.7224  -16.4966   23.1176 C   0  0  0  0  0  0  0  0  0  0  0  0
   10.2705  -16.2330   23.3131 C   0  0  2  0  0  0  0  0  0  0  0  0
    9.8649  -15.3425   22.1978 N   0  0  0  0  0  0  0  0  0  0  0  0
    9.8634  -15.5725   24.5457 C   0  0  0  0  0  0  0  0  0  0  0  0
    9.6972  -16.2205   25.7487 O   0  0  0  0  0  0  0  0  0  0  0  0
    9.6391  -14.3099   24.5402 O   0  0  0  0  0  0  0  0  0  0  0  0
  2  1  1  6
  2  9  1  0
  3  2  1  0
  4  5  2  0
  4  3  1  0
  6  5  1  0
  7  8  2  0
  7  6  1  0
  8  4  1  0
  9 10  2  0
 12 11  1  1
 12 14  1  0
 13 12  1  0
 13  9  1  0
 14 15  2  0
 16 17  1  0
 17 19  1  0
 18 17  2  0
 19 20  1  0
 21 20  1  1
 21 23  1  0
 22 14  1  0
 22 21  1  0
 23 25  2  0
 23 24  1  0
M  END
$$$$
