HAQ.pdb
     RDKit          3D

 25 25  0  0  1  0  0  0  0  0999 V2000
    9.1700  -17.3851   17.4214 N   0  0  0  0  0  0  0  0  0  0  0  0
    8.2568  -17.3998   18.5197 C   0  0  1  0  0  0  0  0  0  0  0  0
    7.8874  -18.8211   18.8971 C   0  0  0  0  0  0  0  0  0  0  0  0
    7.1076  -19.4151   17.7990 C   0  0  0  0  0  0  0  0  0  0  0  0
    6.4231  -18.7115   16.8307 C   0  0  0  0  0  0  0  0  0  0  0  0
    5.8534  -19.6443   16.0303 N   0  0  0  0  0  0  0  0  0  0  0  0
    6.1701  -20.8713   16.4815 C   0  0  0  0  0  0  0  0  0  0  0  0
    6.9435  -20.7212   17.5721 N   0  0  0  0  0  0  0  0  0  0  0  0
    8.7012  -16.6136   19.6821 C   0  0  0  0  0  0  0  0  0  0  0  0
    9.8182  -16.8747   20.1803 O   0  0  0  0  0  0  0  0  0  0  0  0
    7.3600  -13.7713   21.8433 C   0  0  0  0  0  0  0  0  0  0  0  0
    8.3781  -14.8038   21.4001 C   0  0  2  0  0  0  0  0  0  0  0  0
    7.9184  -15.5652   20.2705 N   0  0  0  0  0  0  0  0  0  0  0  0
    8.6407  -15.7208   22.5332 C   0  0  0  0  0  0  0  0  0  0  0  0
    7.9485  -16.7760   22.6583 O   0  0  0  0  0  0  0  0  0  0  0  0
   13.6900  -19.1098   23.1256 N   0  0  0  0  0  0  0  0  0  0  0  0
   13.2360  -17.7459   23.0462 C   0  0  0  0  0  0  0  0  0  0  0  0
   14.1350  -16.9113   22.8292 O   0  0  0  0  0  0  0  0  0  0  0  0
   11.8510  -17.3651   23.2078 C   0  0  0  0  0  0  0  0  0  0  0  0
   11.3840  -16.7234   24.4428 C   0  0  0  0  0  0  0  0  0  0  0  0
    9.9439  -16.3690   24.5696 C   0  0  2  0  0  0  0  0  0  0  0  0
    9.6613  -15.4147   23.4691 N   0  0  0  0  0  0  0  0  0  0  0  0
    9.5122  -15.7257   25.8030 C   0  0  0  0  0  0  0  0  0  0  0  0
    9.4746  -16.3535   27.0274 O   0  0  0  0  0  0  0  0  0  0  0  0
    9.1384  -14.4993   25.7773 O   0  0  0  0  0  0  0  0  0  0  0  0
  2  1  1  6
  2  9  1  0
  3  2  1  0
  4  5  2  0
  4  3  1  0
  6  5  1  0
  7  8  2  0
  7  6  1  0
  8  4  1  0
  9 10  2  0
 12 11  1  1
 12 14  1  0
 13 12  1  0
 13  9  1  0
 14 15  2  0
 16 17  1  0
 17 19  1  0
 18 17  2  0
 19 20  1  0
 21 20  1  1
 21 23  1  0
 22 14  1  0
 22 21  1  0
 23 25  2  0
 23 24  1  0
M  END
$$$$
