SHW.pdb
     RDKit          3D

 31 33  0  0  1  0  0  0  0  0999 V2000
   27.1437  -23.9502  -16.8543 O   0  0  0  0  0  0  0  0  0  0  0  0
   27.3556  -23.1726  -18.0000 C   0  0  0  0  0  0  0  0  0  0  0  0
   28.3334  -22.0831  -17.6278 C   0  0  2  0  0  0  0  0  0  0  0  0
   29.6945  -22.5275  -17.5573 N   0  0  0  0  0  0  0  0  0  0  0  0
   27.9519  -21.4359  -16.3407 C   0  0  0  0  0  0  0  0  0  0  0  0
   28.8258  -21.4622  -15.4170 O   0  0  0  0  0  0  0  0  0  0  0  0
   26.7151  -20.8184  -16.1023 N   0  0  0  0  0  0  0  0  0  0  0  0
   26.5082  -20.0391  -14.9146 C   0  0  1  0  0  0  0  0  0  0  0  0
   25.8170  -18.7371  -15.1663 C   0  0  0  0  0  0  0  0  0  0  0  0
   26.7417  -17.7538  -15.7487 C   0  0  0  0  0  0  0  0  0  0  0  0
   27.4102  -16.7793  -15.0198 C   0  0  0  0  0  0  0  0  0  0  0  0
   28.1509  -16.0853  -15.8915 N   0  0  0  0  0  0  0  0  0  0  0  0
   27.9850  -16.5702  -17.1311 C   0  0  0  0  0  0  0  0  0  0  0  0
   27.1060  -17.6071  -17.0253 N   0  0  0  0  0  0  0  0  0  0  0  0
   25.7287  -20.8699  -13.9385 C   0  0  0  0  0  0  0  0  0  0  0  0
   24.8491  -21.6730  -14.3404 O   0  0  0  0  0  0  0  0  0  0  0  0
   25.9438  -20.7911  -12.5412 N   0  0  0  0  0  0  0  0  0  0  0  0
   25.2157  -21.6597  -11.6299 C   0  0  1  0  0  0  0  0  0  0  0  0
   26.2119  -22.0504  -10.5707 C   0  0  0  0  0  0  0  0  0  0  0  0
   26.3800  -21.0528   -9.5220 C   0  0  0  0  0  0  0  0  0  0  0  0
   25.4361  -20.1229   -9.0733 C   0  0  0  0  0  0  0  0  0  0  0  0
   25.9943  -19.3779   -8.1275 N   0  0  0  0  0  0  0  0  0  0  0  0
   27.2705  -19.7605   -7.9152 C   0  0  0  0  0  0  0  0  0  0  0  0
   28.2019  -19.2580   -7.0066 C   0  0  0  0  0  0  0  0  0  0  0  0
   29.4440  -19.8547   -6.9838 C   0  0  0  0  0  0  0  0  0  0  0  0
   29.7321  -20.9103   -7.8395 C   0  0  0  0  0  0  0  0  0  0  0  0
   28.7820  -21.3724   -8.7202 C   0  0  0  0  0  0  0  0  0  0  0  0
   27.5198  -20.7922   -8.7687 C   0  0  0  0  0  0  0  0  0  0  0  0
   23.9799  -21.1162  -11.1241 C   0  0  0  0  0  0  0  0  0  0  0  0
   23.7254  -19.8921  -11.2412 O   0  0  0  0  0  0  0  0  0  0  0  0
   23.0104  -21.8799  -10.4976 O   0  0  0  0  0  0  0  0  0  0  0  0
  1  2  1  0
  3  2  1  0
  3  4  1  1
  5  7  1  0
  5  3  1  0
  6  5  2  0
  8  7  1  0
  8  9  1  6
 10  9  1  0
 11 10  2  0
 12 13  1  0
 12 11  1  0
 13 14  2  0
 14 10  1  0
 15 17  1  0
 15  8  1  0
 16 15  2  0
 18 17  1  0
 18 29  1  0
 18 19  1  1
 20 19  1  0
 21 20  2  0
 22 23  1  0
 22 21  1  0
 23 28  2  0
 24 23  1  0
 24 25  2  0
 25 26  1  0
 26 27  2  0
 28 20  1  0
 28 27  1  0
 29 31  1  0
 30 29  2  0
M  END
$$$$
