SHW.pdb
     RDKit          3D

 31 33  0  0  1  0  0  0  0  0999 V2000
   23.5007   -9.2881  -25.6962 O   0  0  0  0  0  0  0  0  0  0  0  0
   23.6699   -9.2609  -24.3059 C   0  0  0  0  0  0  0  0  0  0  0  0
   24.2017  -10.6128  -23.8925 C   0  0  2  0  0  0  0  0  0  0  0  0
   25.0648  -11.2164  -24.8652 N   0  0  0  0  0  0  0  0  0  0  0  0
   23.0902  -11.5489  -23.5617 C   0  0  0  0  0  0  0  0  0  0  0  0
   22.3741  -11.9392  -24.5376 O   0  0  0  0  0  0  0  0  0  0  0  0
   22.8014  -12.0074  -22.2678 N   0  0  0  0  0  0  0  0  0  0  0  0
   21.7576  -12.9692  -22.0530 C   0  0  1  0  0  0  0  0  0  0  0  0
   22.0738  -13.9666  -20.9847 C   0  0  0  0  0  0  0  0  0  0  0  0
   20.9645  -14.9142  -20.8036 C   0  0  0  0  0  0  0  0  0  0  0  0
   20.8360  -16.1114  -21.4951 C   0  0  0  0  0  0  0  0  0  0  0  0
   19.7107  -16.6897  -21.0597 N   0  0  0  0  0  0  0  0  0  0  0  0
   19.1230  -15.9210  -20.1307 C   0  0  0  0  0  0  0  0  0  0  0  0
   19.9149  -14.8210  -19.9830 N   0  0  0  0  0  0  0  0  0  0  0  0
   20.4961  -12.2268  -21.7246 C   0  0  0  0  0  0  0  0  0  0  0  0
   20.5041  -11.2902  -20.8862 O   0  0  0  0  0  0  0  0  0  0  0  0
   19.2568  -12.5398  -22.3341 N   0  0  0  0  0  0  0  0  0  0  0  0
   18.0446  -11.8329  -21.9523 C   0  0  1  0  0  0  0  0  0  0  0  0
   17.5216  -11.2226  -23.2254 C   0  0  0  0  0  0  0  0  0  0  0  0
   17.5665  -12.1205  -24.3722 C   0  0  0  0  0  0  0  0  0  0  0  0
   17.0926  -13.4349  -24.4425 C   0  0  0  0  0  0  0  0  0  0  0  0
   17.3523  -13.9128  -25.6530 N   0  0  0  0  0  0  0  0  0  0  0  0
   17.9785  -12.9836  -26.4044 C   0  0  0  0  0  0  0  0  0  0  0  0
   18.4115  -13.0657  -27.7278 C   0  0  0  0  0  0  0  0  0  0  0  0
   19.0111  -11.9468  -28.2643 C   0  0  0  0  0  0  0  0  0  0  0  0
   19.1665  -10.7979  -27.4992 C   0  0  0  0  0  0  0  0  0  0  0  0
   18.7245  -10.7629  -26.1971 C   0  0  0  0  0  0  0  0  0  0  0  0
   18.1160  -11.8746  -25.6260 C   0  0  0  0  0  0  0  0  0  0  0  0
   17.0828  -12.6200  -21.2216 C   0  0  0  0  0  0  0  0  0  0  0  0
   17.1963  -13.8689  -21.1576 O   0  0  0  0  0  0  0  0  0  0  0  0
   16.0011  -12.0743  -20.5523 O   0  0  0  0  0  0  0  0  0  0  0  0
  1  2  1  0
  3  2  1  0
  3  4  1  6
  5  7  1  0
  5  3  1  0
  6  5  2  0
  8  7  1  0
  8  9  1  1
 10  9  1  0
 11 10  2  0
 12 13  1  0
 12 11  1  0
 13 14  2  0
 14 10  1  0
 15 17  1  0
 15  8  1  0
 16 15  2  0
 18 17  1  0
 18 29  1  0
 18 19  1  6
 20 19  1  0
 21 20  2  0
 22 23  1  0
 22 21  1  0
 23 28  2  0
 24 23  1  0
 24 25  2  0
 25 26  1  0
 26 27  2  0
 28 20  1  0
 28 27  1  0
 29 31  1  0
 30 29  2  0
M  END
$$$$
