SHW.pdb
     RDKit          3D

 31 33  0  0  1  0  0  0  0  0999 V2000
   26.2656  -19.4791  -18.4558 O   0  0  0  0  0  0  0  0  0  0  0  0
   27.5788  -19.1742  -18.0755 C   0  0  0  0  0  0  0  0  0  0  0  0
   28.1802  -20.4314  -17.4930 C   0  0  2  0  0  0  0  0  0  0  0  0
   28.1591  -21.5507  -18.3885 N   0  0  0  0  0  0  0  0  0  0  0  0
   27.5129  -20.8029  -16.2133 C   0  0  0  0  0  0  0  0  0  0  0  0
   26.7797  -21.8418  -16.2420 O   0  0  0  0  0  0  0  0  0  0  0  0
   27.6472  -20.0867  -15.0146 N   0  0  0  0  0  0  0  0  0  0  0  0
   26.8782  -20.4521  -13.8589 C   0  0  1  0  0  0  0  0  0  0  0  0
   27.5082  -20.0408  -12.5666 C   0  0  0  0  0  0  0  0  0  0  0  0
   26.6560  -20.4053  -11.4254 C   0  0  0  0  0  0  0  0  0  0  0  0
   26.5047  -21.6981  -10.9421 C   0  0  0  0  0  0  0  0  0  0  0  0
   25.6589  -21.6270   -9.9077 N   0  0  0  0  0  0  0  0  0  0  0  0
   25.2690  -20.3583   -9.7132 C   0  0  0  0  0  0  0  0  0  0  0  0
   25.8977  -19.6113  -10.6649 N   0  0  0  0  0  0  0  0  0  0  0  0
   25.5115  -19.8486  -13.9949 C   0  0  0  0  0  0  0  0  0  0  0  0
   25.3688  -18.6792  -14.4334 O   0  0  0  0  0  0  0  0  0  0  0  0
   24.3366  -20.5562  -13.6427 N   0  0  0  0  0  0  0  0  0  0  0  0
   23.1116  -19.8424  -13.3192 C   0  0  1  0  0  0  0  0  0  0  0  0
   22.6805  -19.1879  -14.6048 C   0  0  0  0  0  0  0  0  0  0  0  0
   22.5957  -20.1047  -15.7342 C   0  0  0  0  0  0  0  0  0  0  0  0
   22.1470  -21.4297  -15.7224 C   0  0  0  0  0  0  0  0  0  0  0  0
   22.2571  -21.9233  -16.9494 N   0  0  0  0  0  0  0  0  0  0  0  0
   22.7582  -20.9947  -17.7900 C   0  0  0  0  0  0  0  0  0  0  0  0
   23.0163  -21.0910  -19.1573 C   0  0  0  0  0  0  0  0  0  0  0  0
   23.5148  -19.9695  -19.7842 C   0  0  0  0  0  0  0  0  0  0  0  0
   23.7424  -18.8043  -19.0631 C   0  0  0  0  0  0  0  0  0  0  0  0
   23.4738  -18.7557  -17.7150 C   0  0  0  0  0  0  0  0  0  0  0  0
   22.9708  -19.8695  -17.0527 C   0  0  0  0  0  0  0  0  0  0  0  0
   22.0940  -20.6355  -12.6758 C   0  0  0  0  0  0  0  0  0  0  0  0
   21.0640  -20.0930  -12.2051 O   0  0  0  0  0  0  0  0  0  0  0  0
   22.1713  -22.0107  -12.5393 O   0  0  0  0  0  0  0  0  0  0  0  0
  1  2  1  0
  3  2  1  0
  3  4  1  6
  5  7  1  0
  5  3  1  0
  6  5  2  0
  8  7  1  0
  8  9  1  1
 10  9  1  0
 11 10  2  0
 12 13  1  0
 12 11  1  0
 13 14  2  0
 14 10  1  0
 15 17  1  0
 15  8  1  0
 16 15  2  0
 18 17  1  0
 18 29  1  0
 18 19  1  6
 20 19  1  0
 21 20  2  0
 22 23  1  0
 22 21  1  0
 23 28  2  0
 24 23  1  0
 24 25  2  0
 25 26  1  0
 26 27  2  0
 28 20  1  0
 28 27  1  0
 29 31  1  0
 30 29  2  0
M  END
$$$$
