SHW.pdb
     RDKit          3D

 31 33  0  0  1  0  0  0  0  0999 V2000
   28.6539  -21.7192  -13.9501 O   0  0  0  0  0  0  0  0  0  0  0  0
   27.8825  -21.8520  -15.1117 C   0  0  0  0  0  0  0  0  0  0  0  0
   27.0692  -20.5875  -15.2568 C   0  0  2  0  0  0  0  0  0  0  0  0
   27.8290  -19.4608  -15.7133 N   0  0  0  0  0  0  0  0  0  0  0  0
   26.3813  -20.2421  -13.9806 C   0  0  0  0  0  0  0  0  0  0  0  0
   26.9089  -19.3131  -13.2906 O   0  0  0  0  0  0  0  0  0  0  0  0
   25.2170  -20.8707  -13.5147 N   0  0  0  0  0  0  0  0  0  0  0  0
   24.5213  -20.3564  -12.3692 C   0  0  1  0  0  0  0  0  0  0  0  0
   23.0544  -20.6469  -12.3800 C   0  0  0  0  0  0  0  0  0  0  0  0
   22.3512  -19.7730  -13.3303 C   0  0  0  0  0  0  0  0  0  0  0  0
   22.9504  -18.7346  -14.0306 C   0  0  0  0  0  0  0  0  0  0  0  0
   21.9970  -18.1786  -14.7872 N   0  0  0  0  0  0  0  0  0  0  0  0
   20.8288  -18.8110  -14.6009 C   0  0  0  0  0  0  0  0  0  0  0  0
   21.0660  -19.7996  -13.6924 N   0  0  0  0  0  0  0  0  0  0  0  0
   25.1622  -20.9240  -11.1374 C   0  0  0  0  0  0  0  0  0  0  0  0
   25.5012  -22.1336  -11.0914 O   0  0  0  0  0  0  0  0  0  0  0  0
   25.4128  -20.1370   -9.9872 N   0  0  0  0  0  0  0  0  0  0  0  0
   26.0003  -20.7315   -8.7970 C   0  0  1  0  0  0  0  0  0  0  0  0
   27.0714  -19.7687   -8.3581 C   0  0  0  0  0  0  0  0  0  0  0  0
   27.7066  -20.1276   -7.0967 C   0  0  0  0  0  0  0  0  0  0  0  0
   27.7788  -21.3961   -6.5113 C   0  0  0  0  0  0  0  0  0  0  0  0
   28.4152  -21.2899   -5.3516 N   0  0  0  0  0  0  0  0  0  0  0  0
   28.7771  -20.0100   -5.1257 C   0  0  0  0  0  0  0  0  0  0  0  0
   29.4722  -19.4681   -4.0446 C   0  0  0  0  0  0  0  0  0  0  0  0
   29.7312  -18.1148   -4.0775 C   0  0  0  0  0  0  0  0  0  0  0  0
   29.3073  -17.3444   -5.1527 C   0  0  0  0  0  0  0  0  0  0  0  0
   28.6236  -17.9221   -6.1972 C   0  0  0  0  0  0  0  0  0  0  0  0
   28.3460  -19.2841   -6.1945 C   0  0  0  0  0  0  0  0  0  0  0  0
   25.0589  -21.0961   -7.7678 C   0  0  0  0  0  0  0  0  0  0  0  0
   23.9765  -20.4720   -7.6424 O   0  0  0  0  0  0  0  0  0  0  0  0
   25.2686  -22.1321   -6.8742 O   0  0  0  0  0  0  0  0  0  0  0  0
  1  2  1  0
  3  2  1  0
  3  4  1  1
  5  7  1  0
  5  3  1  0
  6  5  2  0
  8  7  1  0
  8  9  1  6
 10  9  1  0
 11 10  2  0
 12 13  1  0
 12 11  1  0
 13 14  2  0
 14 10  1  0
 15 17  1  0
 15  8  1  0
 16 15  2  0
 18 17  1  0
 18 29  1  0
 18 19  1  1
 20 19  1  0
 21 20  2  0
 22 23  1  0
 22 21  1  0
 23 28  2  0
 24 23  1  0
 24 25  2  0
 25 26  1  0
 26 27  2  0
 28 20  1  0
 28 27  1  0
 29 31  1  0
 30 29  2  0
M  END
$$$$
