SHW.pdb
     RDKit          3D

 31 33  0  0  1  0  0  0  0  0999 V2000
   24.3514  -16.2801  -14.9711 O   0  0  0  0  0  0  0  0  0  0  0  0
   25.5532  -16.2890  -14.2516 C   0  0  0  0  0  0  0  0  0  0  0  0
   26.6327  -16.7779  -15.1881 C   0  0  2  0  0  0  0  0  0  0  0  0
   26.8602  -15.9136  -16.3090 N   0  0  0  0  0  0  0  0  0  0  0  0
   26.3401  -18.1568  -15.6718 C   0  0  0  0  0  0  0  0  0  0  0  0
   25.6645  -18.2447  -16.7458 O   0  0  0  0  0  0  0  0  0  0  0  0
   26.7583  -19.3279  -15.0225 N   0  0  0  0  0  0  0  0  0  0  0  0
   26.4345  -20.6163  -15.5664 C   0  0  1  0  0  0  0  0  0  0  0  0
   27.6297  -21.3904  -16.0228 C   0  0  0  0  0  0  0  0  0  0  0  0
   28.3374  -20.6812  -17.0986 C   0  0  0  0  0  0  0  0  0  0  0  0
   29.6022  -20.1232  -16.9694 C   0  0  0  0  0  0  0  0  0  0  0  0
   29.9035  -19.5718  -18.1507 N   0  0  0  0  0  0  0  0  0  0  0  0
   28.8960  -19.7524  -19.0178 C   0  0  0  0  0  0  0  0  0  0  0  0
   27.9302  -20.4438  -18.3483 N   0  0  0  0  0  0  0  0  0  0  0  0
   25.6729  -21.3858  -14.5280 C   0  0  0  0  0  0  0  0  0  0  0  0
   25.8755  -22.6158  -14.3658 O   0  0  0  0  0  0  0  0  0  0  0  0
   24.7064  -20.7731  -13.6939 N   0  0  0  0  0  0  0  0  0  0  0  0
   23.9617  -21.5590  -12.7229 C   0  0  1  0  0  0  0  0  0  0  0  0
   25.0049  -22.2414  -11.8786 C   0  0  0  0  0  0  0  0  0  0  0  0
   25.6377  -21.3661  -10.9004 C   0  0  0  0  0  0  0  0  0  0  0  0
   25.0079  -20.4910  -10.0090 C   0  0  0  0  0  0  0  0  0  0  0  0
   25.9411  -19.8556   -9.3114 N   0  0  0  0  0  0  0  0  0  0  0  0
   27.1716  -20.2602   -9.6885 C   0  0  0  0  0  0  0  0  0  0  0  0
   28.4175  -19.8619   -9.2041 C   0  0  0  0  0  0  0  0  0  0  0  0
   29.5288  -20.4583   -9.7598 C   0  0  0  0  0  0  0  0  0  0  0  0
   29.3880  -21.4129  -10.7591 C   0  0  0  0  0  0  0  0  0  0  0  0
   28.1385  -21.7741  -11.2065 C   0  0  0  0  0  0  0  0  0  0  0  0
   26.9976  -21.1912  -10.6672 C   0  0  0  0  0  0  0  0  0  0  0  0
   22.9676  -20.8272  -11.9780 C   0  0  0  0  0  0  0  0  0  0  0  0
   22.9493  -19.5718  -11.9999 O   0  0  0  0  0  0  0  0  0  0  0  0
   21.9869  -21.4348  -11.2133 O   0  0  0  0  0  0  0  0  0  0  0  0
  1  2  1  0
  3  2  1  0
  3  4  1  6
  5  7  1  0
  5  3  1  0
  6  5  2  0
  8  7  1  0
  8  9  1  1
 10  9  1  0
 11 10  2  0
 12 13  1  0
 12 11  1  0
 13 14  2  0
 14 10  1  0
 15 17  1  0
 15  8  1  0
 16 15  2  0
 18 17  1  0
 18 29  1  0
 18 19  1  1
 20 19  1  0
 21 20  2  0
 22 23  1  0
 22 21  1  0
 23 28  2  0
 24 23  1  0
 24 25  2  0
 25 26  1  0
 26 27  2  0
 28 20  1  0
 28 27  1  0
 29 31  1  0
 30 29  2  0
M  END
$$$$
