SHW.pdb
     RDKit          3D

 31 33  0  0  1  0  0  0  0  0999 V2000
   27.2668  -16.7887  -13.7703 O   0  0  0  0  0  0  0  0  0  0  0  0
   28.1021  -17.7624  -14.3327 C   0  0  0  0  0  0  0  0  0  0  0  0
   27.2124  -18.7913  -14.9895 C   0  0  2  0  0  0  0  0  0  0  0  0
   26.3186  -18.2428  -15.9670 N   0  0  0  0  0  0  0  0  0  0  0  0
   26.4340  -19.5550  -13.9737 C   0  0  0  0  0  0  0  0  0  0  0  0
   25.3232  -19.0477  -13.6180 O   0  0  0  0  0  0  0  0  0  0  0  0
   26.8512  -20.7679  -13.4059 N   0  0  0  0  0  0  0  0  0  0  0  0
   26.0198  -21.4501  -12.4550 C   0  0  1  0  0  0  0  0  0  0  0  0
   25.9040  -22.9195  -12.7073 C   0  0  0  0  0  0  0  0  0  0  0  0
   25.0778  -23.1868  -13.8936 C   0  0  0  0  0  0  0  0  0  0  0  0
   24.4509  -22.2051  -14.6491 C   0  0  0  0  0  0  0  0  0  0  0  0
   23.8003  -22.8334  -15.6352 N   0  0  0  0  0  0  0  0  0  0  0  0
   23.9836  -24.1589  -15.5414 C   0  0  0  0  0  0  0  0  0  0  0  0
   24.7801  -24.3622  -14.4536 N   0  0  0  0  0  0  0  0  0  0  0  0
   26.5680  -21.1923  -11.0827 C   0  0  0  0  0  0  0  0  0  0  0  0
   27.8079  -21.1060  -10.8942 O   0  0  0  0  0  0  0  0  0  0  0  0
   25.7288  -21.0352   -9.9530 N   0  0  0  0  0  0  0  0  0  0  0  0
   26.2936  -20.9714   -8.6144 C   0  0  1  0  0  0  0  0  0  0  0  0
   27.2783  -19.8330   -8.6514 C   0  0  0  0  0  0  0  0  0  0  0  0
   27.6560  -19.3363   -7.3346 C   0  0  0  0  0  0  0  0  0  0  0  0
   27.2185  -18.1633   -6.7102 C   0  0  0  0  0  0  0  0  0  0  0  0
   27.8220  -18.0619   -5.5327 N   0  0  0  0  0  0  0  0  0  0  0  0
   28.6460  -19.1109   -5.3312 C   0  0  0  0  0  0  0  0  0  0  0  0
   29.4501  -19.4013   -4.2290 C   0  0  0  0  0  0  0  0  0  0  0  0
   30.1861  -20.5655   -4.2763 C   0  0  0  0  0  0  0  0  0  0  0  0
   30.1134  -21.3981   -5.3859 C   0  0  0  0  0  0  0  0  0  0  0  0
   29.3069  -21.0706   -6.4509 C   0  0  0  0  0  0  0  0  0  0  0  0
   28.5522  -19.9034   -6.4348 C   0  0  0  0  0  0  0  0  0  0  0  0
   25.3277  -20.8985   -7.5465 C   0  0  0  0  0  0  0  0  0  0  0  0
   25.5748  -21.4089   -6.4262 O   0  0  0  0  0  0  0  0  0  0  0  0
   24.0984  -20.2747   -7.6710 O   0  0  0  0  0  0  0  0  0  0  0  0
  1  2  1  0
  3  2  1  0
  3  4  1  6
  5  7  1  0
  5  3  1  0
  6  5  2  0
  8  7  1  0
  8  9  1  6
 10  9  1  0
 11 10  2  0
 12 13  1  0
 12 11  1  0
 13 14  2  0
 14 10  1  0
 15 17  1  0
 15  8  1  0
 16 15  2  0
 18 17  1  0
 18 29  1  0
 18 19  1  6
 20 19  1  0
 21 20  2  0
 22 23  1  0
 22 21  1  0
 23 28  2  0
 24 23  1  0
 24 25  2  0
 25 26  1  0
 26 27  2  0
 28 20  1  0
 28 27  1  0
 29 31  1  0
 30 29  2  0
M  END
$$$$
