SHW.pdb
     RDKit          3D

 31 33  0  0  1  0  0  0  0  0999 V2000
   19.5030  -18.5553  -13.3636 O   0  0  0  0  0  0  0  0  0  0  0  0
   18.7625  -19.2880  -14.3000 C   0  0  0  0  0  0  0  0  0  0  0  0
   18.6487  -20.7000  -13.7756 C   0  0  2  0  0  0  0  0  0  0  0  0
   18.0061  -20.7918  -12.4974 N   0  0  0  0  0  0  0  0  0  0  0  0
   19.9842  -21.3584  -13.7117 C   0  0  0  0  0  0  0  0  0  0  0  0
   20.2601  -21.9673  -12.6297 O   0  0  0  0  0  0  0  0  0  0  0  0
   20.9249  -21.3410  -14.7523 N   0  0  0  0  0  0  0  0  0  0  0  0
   22.1739  -22.0352  -14.6153 C   0  0  1  0  0  0  0  0  0  0  0  0
   22.8438  -22.3244  -15.9206 C   0  0  0  0  0  0  0  0  0  0  0  0
   24.0789  -23.0960  -15.7193 C   0  0  0  0  0  0  0  0  0  0  0  0
   24.3397  -23.8803  -14.6036 C   0  0  0  0  0  0  0  0  0  0  0  0
   25.5511  -24.4186  -14.7848 N   0  0  0  0  0  0  0  0  0  0  0  0
   26.0680  -24.0155  -15.9552 C   0  0  0  0  0  0  0  0  0  0  0  0
   25.1404  -23.1938  -16.5239 N   0  0  0  0  0  0  0  0  0  0  0  0
   23.0701  -21.2182  -13.7322 C   0  0  0  0  0  0  0  0  0  0  0  0
   23.0409  -19.9623  -13.7768 O   0  0  0  0  0  0  0  0  0  0  0  0
   23.9758  -21.8130  -12.8206 N   0  0  0  0  0  0  0  0  0  0  0  0
   24.9212  -20.9957  -12.0767 C   0  0  1  0  0  0  0  0  0  0  0  0
   25.2394  -21.7854  -10.8349 C   0  0  0  0  0  0  0  0  0  0  0  0
   26.1261  -21.0948   -9.9075 C   0  0  0  0  0  0  0  0  0  0  0  0
   25.7974  -20.0558   -9.0303 C   0  0  0  0  0  0  0  0  0  0  0  0
   26.8957  -19.6866   -8.3833 N   0  0  0  0  0  0  0  0  0  0  0  0
   27.9509  -20.4272   -8.7809 C   0  0  0  0  0  0  0  0  0  0  0  0
   29.2757  -20.3783   -8.3472 C   0  0  0  0  0  0  0  0  0  0  0  0
   30.1566  -21.2747   -8.9129 C   0  0  0  0  0  0  0  0  0  0  0  0
   29.7194  -22.1787   -9.8726 C   0  0  0  0  0  0  0  0  0  0  0  0
   28.4028  -22.1900  -10.2706 C   0  0  0  0  0  0  0  0  0  0  0  0
   27.4891  -21.2988   -9.7200 C   0  0  0  0  0  0  0  0  0  0  0  0
   26.0734  -20.5597  -12.8255 C   0  0  0  0  0  0  0  0  0  0  0  0
   26.4455  -19.3611  -12.7844 O   0  0  0  0  0  0  0  0  0  0  0  0
   26.8345  -21.4041  -13.6150 O   0  0  0  0  0  0  0  0  0  0  0  0
  1  2  1  0
  3  2  1  0
  3  4  1  1
  5  7  1  0
  5  3  1  0
  6  5  2  0
  8  7  1  0
  8  9  1  6
 10  9  1  0
 11 10  2  0
 12 13  1  0
 12 11  1  0
 13 14  2  0
 14 10  1  0
 15 17  1  0
 15  8  1  0
 16 15  2  0
 18 17  1  0
 18 29  1  0
 18 19  1  1
 20 19  1  0
 21 20  2  0
 22 23  1  0
 22 21  1  0
 23 28  2  0
 24 23  1  0
 24 25  2  0
 25 26  1  0
 26 27  2  0
 28 20  1  0
 28 27  1  0
 29 31  1  0
 30 29  2  0
M  END
$$$$
