SHW.pdb
     RDKit          3D

 31 33  0  0  1  0  0  0  0  0999 V2000
   19.0796  -14.3405  -15.4024 O   0  0  0  0  0  0  0  0  0  0  0  0
   19.4704  -12.9969  -15.4654 C   0  0  0  0  0  0  0  0  0  0  0  0
   20.3385  -12.8396  -16.6915 C   0  0  2  0  0  0  0  0  0  0  0  0
   21.6125  -13.4882  -16.5846 N   0  0  0  0  0  0  0  0  0  0  0  0
   20.5368  -11.4014  -17.0283 C   0  0  0  0  0  0  0  0  0  0  0  0
   21.7015  -10.9319  -16.8272 O   0  0  0  0  0  0  0  0  0  0  0  0
   19.5345  -10.5638  -17.5398 N   0  0  0  0  0  0  0  0  0  0  0  0
   19.8254   -9.1962  -17.8650 C   0  0  1  0  0  0  0  0  0  0  0  0
   18.8955   -8.6117  -18.8797 C   0  0  0  0  0  0  0  0  0  0  0  0
   19.2336   -7.2083  -19.1577 C   0  0  0  0  0  0  0  0  0  0  0  0
   18.5334   -6.1195  -18.6558 C   0  0  0  0  0  0  0  0  0  0  0  0
   19.1376   -5.0220  -19.1258 N   0  0  0  0  0  0  0  0  0  0  0  0
   20.1813   -5.3610  -19.8972 C   0  0  0  0  0  0  0  0  0  0  0  0
   20.2275   -6.7236  -19.9068 N   0  0  0  0  0  0  0  0  0  0  0  0
   19.7929   -8.3954  -16.5969 C   0  0  0  0  0  0  0  0  0  0  0  0
   18.8752   -8.5664  -15.7550 O   0  0  0  0  0  0  0  0  0  0  0  0
   20.7788   -7.4256  -16.2922 N   0  0  0  0  0  0  0  0  0  0  0  0
   20.7231   -6.6799  -15.0449 C   0  0  1  0  0  0  0  0  0  0  0  0
   22.0529   -6.9165  -14.3798 C   0  0  0  0  0  0  0  0  0  0  0  0
   23.1775   -6.3027  -15.0739 C   0  0  0  0  0  0  0  0  0  0  0  0
   23.5229   -4.9473  -15.1015 C   0  0  0  0  0  0  0  0  0  0  0  0
   24.5945   -4.8006  -15.8705 N   0  0  0  0  0  0  0  0  0  0  0  0
   24.9902   -5.9925  -16.3633 C   0  0  0  0  0  0  0  0  0  0  0  0
   26.0713   -6.2880  -17.1936 C   0  0  0  0  0  0  0  0  0  0  0  0
   26.2611   -7.6102  -17.5332 C   0  0  0  0  0  0  0  0  0  0  0  0
   25.3983   -8.5887  -17.0563 C   0  0  0  0  0  0  0  0  0  0  0  0
   24.3441   -8.2504  -16.2401 C   0  0  0  0  0  0  0  0  0  0  0  0
   24.1247   -6.9261  -15.8793 C   0  0  0  0  0  0  0  0  0  0  0  0
   20.3542   -5.2926  -15.1784 C   0  0  0  0  0  0  0  0  0  0  0  0
   20.3971   -4.7254  -16.2979 O   0  0  0  0  0  0  0  0  0  0  0  0
   19.9326   -4.5098  -14.1176 O   0  0  0  0  0  0  0  0  0  0  0  0
  1  2  1  0
  3  2  1  0
  3  4  1  1
  5  7  1  0
  5  3  1  0
  6  5  2  0
  8  7  1  0
  8  9  1  6
 10  9  1  0
 11 10  2  0
 12 13  1  0
 12 11  1  0
 13 14  2  0
 14 10  1  0
 15 17  1  0
 15  8  1  0
 16 15  2  0
 18 17  1  0
 18 29  1  0
 18 19  1  6
 20 19  1  0
 21 20  2  0
 22 23  1  0
 22 21  1  0
 23 28  2  0
 24 23  1  0
 24 25  2  0
 25 26  1  0
 26 27  2  0
 28 20  1  0
 28 27  1  0
 29 31  1  0
 30 29  2  0
M  END
$$$$
