SHW.pdb
     RDKit          3D

 31 33  0  0  1  0  0  0  0  0999 V2000
   22.4552  -12.0031  -21.3007 O   0  0  0  0  0  0  0  0  0  0  0  0
   21.9909  -11.2329  -20.2268 C   0  0  0  0  0  0  0  0  0  0  0  0
   23.0661  -11.2483  -19.1660 C   0  0  2  0  0  0  0  0  0  0  0  0
   23.4244  -12.5647  -18.7255 N   0  0  0  0  0  0  0  0  0  0  0  0
   22.6743  -10.4181  -17.9920 C   0  0  0  0  0  0  0  0  0  0  0  0
   22.0648  -11.0227  -17.0537 O   0  0  0  0  0  0  0  0  0  0  0  0
   22.9346   -9.0448  -17.8727 N   0  0  0  0  0  0  0  0  0  0  0  0
   22.6809   -8.3612  -16.6362 C   0  0  1  0  0  0  0  0  0  0  0  0
   23.9075   -7.7730  -16.0152 C   0  0  0  0  0  0  0  0  0  0  0  0
   24.8864   -8.8200  -15.6884 C   0  0  0  0  0  0  0  0  0  0  0  0
   24.6768   -9.8241  -14.7526 C   0  0  0  0  0  0  0  0  0  0  0  0
   25.7837  -10.5755  -14.7381 N   0  0  0  0  0  0  0  0  0  0  0  0
   26.6801  -10.0987  -15.6148 C   0  0  0  0  0  0  0  0  0  0  0  0
   26.1070   -9.0073  -16.1974 N   0  0  0  0  0  0  0  0  0  0  0  0
   21.6561   -7.2957  -16.8911 C   0  0  0  0  0  0  0  0  0  0  0  0
   21.8329   -6.4405  -17.7953 O   0  0  0  0  0  0  0  0  0  0  0  0
   20.4601   -7.2046  -16.1385 N   0  0  0  0  0  0  0  0  0  0  0  0
   19.5088   -6.1331  -16.3871 C   0  0  1  0  0  0  0  0  0  0  0  0
   18.1708   -6.8109  -16.5181 C   0  0  0  0  0  0  0  0  0  0  0  0
   17.9214   -7.3743  -17.8386 C   0  0  0  0  0  0  0  0  0  0  0  0
   18.8353   -8.0310  -18.6697 C   0  0  0  0  0  0  0  0  0  0  0  0
   18.2179   -8.3626  -19.7966 N   0  0  0  0  0  0  0  0  0  0  0  0
   16.9300   -7.9618  -19.7664 C   0  0  0  0  0  0  0  0  0  0  0  0
   15.9340   -8.1226  -20.7296 C   0  0  0  0  0  0  0  0  0  0  0  0
   14.6826   -7.6293  -20.4292 C   0  0  0  0  0  0  0  0  0  0  0  0
   14.4482   -7.0023  -19.2121 C   0  0  0  0  0  0  0  0  0  0  0  0
   15.4617   -6.8655  -18.2923 C   0  0  0  0  0  0  0  0  0  0  0  0
   16.7352   -7.3516  -18.5645 C   0  0  0  0  0  0  0  0  0  0  0  0
   19.5456   -5.0505  -15.4357 C   0  0  0  0  0  0  0  0  0  0  0  0
   20.3496   -5.0748  -14.4715 O   0  0  0  0  0  0  0  0  0  0  0  0
   18.7280   -3.9365  -15.5156 O   0  0  0  0  0  0  0  0  0  0  0  0
  1  2  1  0
  3  2  1  0
  3  4  1  1
  5  7  1  0
  5  3  1  0
  6  5  2  0
  8  7  1  0
  8  9  1  6
 10  9  1  0
 11 10  2  0
 12 13  1  0
 12 11  1  0
 13 14  2  0
 14 10  1  0
 15 17  1  0
 15  8  1  0
 16 15  2  0
 18 17  1  0
 18 29  1  0
 18 19  1  1
 20 19  1  0
 21 20  2  0
 22 23  1  0
 22 21  1  0
 23 28  2  0
 24 23  1  0
 24 25  2  0
 25 26  1  0
 26 27  2  0
 28 20  1  0
 28 27  1  0
 29 31  1  0
 30 29  2  0
M  END
$$$$
