SHW.pdb
     RDKit          3D

 31 33  0  0  1  0  0  0  0  0999 V2000
   18.2951  -10.9457    4.6374 O   0  0  0  0  0  0  0  0  0  0  0  0
   18.5405  -12.2392    5.1155 C   0  0  0  0  0  0  0  0  0  0  0  0
   19.1762  -12.1002    6.4786 C   0  0  2  0  0  0  0  0  0  0  0  0
   20.4549  -11.4523    6.4565 N   0  0  0  0  0  0  0  0  0  0  0  0
   19.2988  -13.4242    7.1517 C   0  0  0  0  0  0  0  0  0  0  0  0
   20.4342  -13.9919    7.0742 O   0  0  0  0  0  0  0  0  0  0  0  0
   18.2569  -14.0581    7.8450 N   0  0  0  0  0  0  0  0  0  0  0  0
   18.4119  -15.4043    8.3188 C   0  0  1  0  0  0  0  0  0  0  0  0
   17.6430  -15.6907    9.5690 C   0  0  0  0  0  0  0  0  0  0  0  0
   17.8577  -17.0753   10.0140 C   0  0  0  0  0  0  0  0  0  0  0  0
   18.9491  -17.4979   10.7609 C   0  0  0  0  0  0  0  0  0  0  0  0
   18.7906  -18.8102   10.9677 N   0  0  0  0  0  0  0  0  0  0  0  0
   17.6574  -19.2376   10.3909 C   0  0  0  0  0  0  0  0  0  0  0  0
   17.0892  -18.1469    9.8023 N   0  0  0  0  0  0  0  0  0  0  0  0
   17.9991  -16.3386    7.2201 C   0  0  0  0  0  0  0  0  0  0  0  0
   17.1417  -15.9885    6.3702 O   0  0  0  0  0  0  0  0  0  0  0  0
   18.5475  -17.6376    7.0896 N   0  0  0  0  0  0  0  0  0  0  0  0
   18.4129  -18.3762    5.8441 C   0  0  1  0  0  0  0  0  0  0  0  0
   18.9593  -17.4634    4.7787 C   0  0  0  0  0  0  0  0  0  0  0  0
   18.9529  -18.0454    3.4428 C   0  0  0  0  0  0  0  0  0  0  0  0
   17.8683  -18.6170    2.7692 C   0  0  0  0  0  0  0  0  0  0  0  0
   18.2882  -19.0559    1.5893 N   0  0  0  0  0  0  0  0  0  0  0  0
   19.6050  -18.8074    1.4332 C   0  0  0  0  0  0  0  0  0  0  0  0
   20.4321  -19.0873    0.3454 C   0  0  0  0  0  0  0  0  0  0  0  0
   21.7517  -18.7018    0.4425 C   0  0  0  0  0  0  0  0  0  0  0  0
   22.2147  -18.0633    1.5859 C   0  0  0  0  0  0  0  0  0  0  0  0
   21.3625  -17.8084    2.6350 C   0  0  0  0  0  0  0  0  0  0  0  0
   20.0260  -18.1847    2.5689 C   0  0  0  0  0  0  0  0  0  0  0  0
   18.9834  -19.7002    5.8542 C   0  0  0  0  0  0  0  0  0  0  0  0
   18.6270  -20.5555    5.0067 O   0  0  0  0  0  0  0  0  0  0  0  0
   19.9404  -20.1117    6.7655 O   0  0  0  0  0  0  0  0  0  0  0  0
  1  2  1  0
  3  2  1  0
  3  4  1  6
  5  7  1  0
  5  3  1  0
  6  5  2  0
  8  7  1  0
  8  9  1  1
 10  9  1  0
 11 10  2  0
 12 13  1  0
 12 11  1  0
 13 14  2  0
 14 10  1  0
 15 17  1  0
 15  8  1  0
 16 15  2  0
 18 17  1  0
 18 29  1  0
 18 19  1  6
 20 19  1  0
 21 20  2  0
 22 23  1  0
 22 21  1  0
 23 28  2  0
 24 23  1  0
 24 25  2  0
 25 26  1  0
 26 27  2  0
 28 20  1  0
 28 27  1  0
 29 31  1  0
 30 29  2  0
M  END
$$$$
