SHW.pdb
     RDKit          3D

 31 33  0  0  1  0  0  0  0  0999 V2000
   23.4756  -12.8655  -21.5125 O   0  0  0  0  0  0  0  0  0  0  0  0
   24.5037  -11.9531  -21.2431 C   0  0  0  0  0  0  0  0  0  0  0  0
   25.0651  -12.2987  -19.8842 C   0  0  2  0  0  0  0  0  0  0  0  0
   25.3635  -13.6912  -19.7193 N   0  0  0  0  0  0  0  0  0  0  0  0
   24.1506  -11.8516  -18.7957 C   0  0  0  0  0  0  0  0  0  0  0  0
   23.5210  -12.7679  -18.1779 O   0  0  0  0  0  0  0  0  0  0  0  0
   23.9536  -10.5120  -18.4289 N   0  0  0  0  0  0  0  0  0  0  0  0
   22.9639  -10.1641  -17.4491 C   0  0  1  0  0  0  0  0  0  0  0  0
   23.3886   -9.0585  -16.5363 C   0  0  0  0  0  0  0  0  0  0  0  0
   22.3658   -8.7980  -15.5128 C   0  0  0  0  0  0  0  0  0  0  0  0
   21.2094   -9.5494  -15.3519 C   0  0  0  0  0  0  0  0  0  0  0  0
   20.5379   -9.0099  -14.3280 N   0  0  0  0  0  0  0  0  0  0  0  0
   21.2092   -7.9584  -13.8351 C   0  0  0  0  0  0  0  0  0  0  0  0
   22.3433   -7.8400  -14.5825 N   0  0  0  0  0  0  0  0  0  0  0  0
   21.6999   -9.7973  -18.1691 C   0  0  0  0  0  0  0  0  0  0  0  0
   21.7430   -9.2409  -19.2955 O   0  0  0  0  0  0  0  0  0  0  0  0
   20.4192  -10.0570  -17.6237 N   0  0  0  0  0  0  0  0  0  0  0  0
   19.2175   -9.8017  -18.4019 C   0  0  1  0  0  0  0  0  0  0  0  0
   19.3192  -10.7073  -19.6004 C   0  0  0  0  0  0  0  0  0  0  0  0
   19.0039  -12.1011  -19.3153 C   0  0  0  0  0  0  0  0  0  0  0  0
   17.9428  -12.5935  -18.5480 C   0  0  0  0  0  0  0  0  0  0  0  0
   18.0284  -13.9172  -18.5099 N   0  0  0  0  0  0  0  0  0  0  0  0
   19.0965  -14.3430  -19.2155 C   0  0  0  0  0  0  0  0  0  0  0  0
   19.5393  -15.6457  -19.4447 C   0  0  0  0  0  0  0  0  0  0  0  0
   20.6616  -15.8000  -20.2295 C   0  0  0  0  0  0  0  0  0  0  0  0
   21.3071  -14.6896  -20.7583 C   0  0  0  0  0  0  0  0  0  0  0  0
   20.8348  -13.4228  -20.5049 C   0  0  0  0  0  0  0  0  0  0  0  0
   19.7056  -13.2328  -19.7169 C   0  0  0  0  0  0  0  0  0  0  0  0
   17.9807   -9.9084  -17.6689 C   0  0  0  0  0  0  0  0  0  0  0  0
   16.8887   -9.6097  -18.2121 O   0  0  0  0  0  0  0  0  0  0  0  0
   17.9068  -10.3404  -16.3560 O   0  0  0  0  0  0  0  0  0  0  0  0
  1  2  1  0
  3  2  1  0
  3  4  1  6
  5  7  1  0
  5  3  1  0
  6  5  2  0
  8  7  1  0
  8  9  1  6
 10  9  1  0
 11 10  2  0
 12 13  1  0
 12 11  1  0
 13 14  2  0
 14 10  1  0
 15 17  1  0
 15  8  1  0
 16 15  2  0
 18 17  1  0
 18 29  1  0
 18 19  1  6
 20 19  1  0
 21 20  2  0
 22 23  1  0
 22 21  1  0
 23 28  2  0
 24 23  1  0
 24 25  2  0
 25 26  1  0
 26 27  2  0
 28 20  1  0
 28 27  1  0
 29 31  1  0
 30 29  2  0
M  END
$$$$
