SHW.pdb
     RDKit          3D

 31 33  0  0  1  0  0  0  0  0999 V2000
   14.6392  -15.3611  -15.1094 O   0  0  0  0  0  0  0  0  0  0  0  0
   15.8832  -14.7215  -15.0373 C   0  0  0  0  0  0  0  0  0  0  0  0
   16.7269  -15.2529  -16.1720 C   0  0  2  0  0  0  0  0  0  0  0  0
   17.2817  -16.5507  -15.9209 N   0  0  0  0  0  0  0  0  0  0  0  0
   17.8198  -14.3013  -16.5201 C   0  0  0  0  0  0  0  0  0  0  0  0
   18.9133  -14.4443  -15.8866 O   0  0  0  0  0  0  0  0  0  0  0  0
   17.7074  -13.2856  -17.4812 N   0  0  0  0  0  0  0  0  0  0  0  0
   18.8242  -12.4314  -17.7707 C   0  0  1  0  0  0  0  0  0  0  0  0
   18.8508  -11.9394  -19.1825 C   0  0  0  0  0  0  0  0  0  0  0  0
   19.1929  -13.0253  -20.1126 C   0  0  0  0  0  0  0  0  0  0  0  0
   20.2489  -13.9083  -19.9315 C   0  0  0  0  0  0  0  0  0  0  0  0
   20.2373  -14.7435  -20.9768 N   0  0  0  0  0  0  0  0  0  0  0  0
   19.2304  -14.4340  -21.8072 C   0  0  0  0  0  0  0  0  0  0  0  0
   18.5907  -13.3637  -21.2556 N   0  0  0  0  0  0  0  0  0  0  0  0
   18.7942  -11.2788  -16.8110 C   0  0  0  0  0  0  0  0  0  0  0  0
   17.7007  -10.8307  -16.3825 O   0  0  0  0  0  0  0  0  0  0  0  0
   19.9768  -10.6518  -16.3488 N   0  0  0  0  0  0  0  0  0  0  0  0
   19.9064   -9.4722  -15.5011 C   0  0  1  0  0  0  0  0  0  0  0  0
   21.2646   -9.3603  -14.8609 C   0  0  0  0  0  0  0  0  0  0  0  0
   21.4559   -8.1369  -14.0927 C   0  0  0  0  0  0  0  0  0  0  0  0
   21.1601   -7.9259  -12.7417 C   0  0  0  0  0  0  0  0  0  0  0  0
   21.4543   -6.6682  -12.4370 N   0  0  0  0  0  0  0  0  0  0  0  0
   21.9355   -6.0194  -13.5176 C   0  0  0  0  0  0  0  0  0  0  0  0
   22.3761   -4.7008  -13.6304 C   0  0  0  0  0  0  0  0  0  0  0  0
   22.8438   -4.2967  -14.8622 C   0  0  0  0  0  0  0  0  0  0  0  0
   22.8653   -5.1837  -15.9309 C   0  0  0  0  0  0  0  0  0  0  0  0
   22.4197   -6.4754  -15.7734 C   0  0  0  0  0  0  0  0  0  0  0  0
   21.9414   -6.9143  -14.5443 C   0  0  0  0  0  0  0  0  0  0  0  0
   19.4495   -8.2735  -16.1589 C   0  0  0  0  0  0  0  0  0  0  0  0
   19.7834   -8.0287  -17.3444 O   0  0  0  0  0  0  0  0  0  0  0  0
   18.6296   -7.3365  -15.5541 O   0  0  0  0  0  0  0  0  0  0  0  0
  1  2  1  0
  3  2  1  0
  3  4  1  1
  5  7  1  0
  5  3  1  0
  6  5  2  0
  8  7  1  0
  8  9  1  6
 10  9  1  0
 11 10  2  0
 12 13  1  0
 12 11  1  0
 13 14  2  0
 14 10  1  0
 15 17  1  0
 15  8  1  0
 16 15  2  0
 18 17  1  0
 18 29  1  0
 18 19  1  6
 20 19  1  0
 21 20  2  0
 22 23  1  0
 22 21  1  0
 23 28  2  0
 24 23  1  0
 24 25  2  0
 25 26  1  0
 26 27  2  0
 28 20  1  0
 28 27  1  0
 29 31  1  0
 30 29  2  0
M  END
$$$$
