SHW.pdb
     RDKit          3D

 31 33  0  0  1  0  0  0  0  0999 V2000
   28.1984  -25.6851  -18.3442 O   0  0  0  0  0  0  0  0  0  0  0  0
   28.0558  -24.8726  -17.2122 C   0  0  0  0  0  0  0  0  0  0  0  0
   29.0023  -23.7068  -17.3751 C   0  0  2  0  0  0  0  0  0  0  0  0
   30.3755  -24.0388  -17.1312 N   0  0  0  0  0  0  0  0  0  0  0  0
   28.6025  -22.5647  -16.5050 C   0  0  0  0  0  0  0  0  0  0  0  0
   29.0167  -22.6011  -15.3031 O   0  0  0  0  0  0  0  0  0  0  0  0
   27.8155  -21.4843  -16.9307 N   0  0  0  0  0  0  0  0  0  0  0  0
   27.5060  -20.4104  -16.0297 C   0  0  1  0  0  0  0  0  0  0  0  0
   27.0148  -19.1762  -16.7164 C   0  0  0  0  0  0  0  0  0  0  0  0
   26.7213  -18.1136  -15.7438 C   0  0  0  0  0  0  0  0  0  0  0  0
   26.9017  -18.2350  -14.3725 C   0  0  0  0  0  0  0  0  0  0  0  0
   26.5288  -17.0703  -13.8295 N   0  0  0  0  0  0  0  0  0  0  0  0
   26.1228  -16.2213  -14.7853 C   0  0  0  0  0  0  0  0  0  0  0  0
   26.2487  -16.8850  -15.9696 N   0  0  0  0  0  0  0  0  0  0  0  0
   26.4900  -20.9044  -15.0427 C   0  0  0  0  0  0  0  0  0  0  0  0
   25.4202  -21.4344  -15.4360 O   0  0  0  0  0  0  0  0  0  0  0  0
   26.6851  -20.8001  -13.6440 N   0  0  0  0  0  0  0  0  0  0  0  0
   25.6797  -21.2955  -12.7174 C   0  0  1  0  0  0  0  0  0  0  0  0
   26.4533  -21.9255  -11.5898 C   0  0  0  0  0  0  0  0  0  0  0  0
   26.4828  -21.1232  -10.3737 C   0  0  0  0  0  0  0  0  0  0  0  0
   25.5200  -20.2081   -9.9348 C   0  0  0  0  0  0  0  0  0  0  0  0
   25.9393  -19.6675   -8.7976 N   0  0  0  0  0  0  0  0  0  0  0  0
   27.1394  -20.1742   -8.4468 C   0  0  0  0  0  0  0  0  0  0  0  0
   27.9208  -19.8944   -7.3258 C   0  0  0  0  0  0  0  0  0  0  0  0
   29.1104  -20.5791   -7.2011 C   0  0  0  0  0  0  0  0  0  0  0  0
   29.4932  -21.5036   -8.1646 C   0  0  0  0  0  0  0  0  0  0  0  0
   28.6904  -21.7466   -9.2547 C   0  0  0  0  0  0  0  0  0  0  0  0
   27.4848  -21.0726   -9.4104 C   0  0  0  0  0  0  0  0  0  0  0  0
   24.6970  -20.3243  -12.3054 C   0  0  0  0  0  0  0  0  0  0  0  0
   23.6155  -20.6919  -11.7840 O   0  0  0  0  0  0  0  0  0  0  0  0
   24.8700  -18.9580  -12.4437 O   0  0  0  0  0  0  0  0  0  0  0  0
  1  2  1  0
  3  2  1  0
  3  4  1  1
  5  7  1  0
  5  3  1  0
  6  5  2  0
  8  7  1  0
  8  9  1  6
 10  9  1  0
 11 10  2  0
 12 13  1  0
 12 11  1  0
 13 14  2  0
 14 10  1  0
 15 17  1  0
 15  8  1  0
 16 15  2  0
 18 17  1  0
 18 29  1  0
 18 19  1  1
 20 19  1  0
 21 20  2  0
 22 23  1  0
 22 21  1  0
 23 28  2  0
 24 23  1  0
 24 25  2  0
 25 26  1  0
 26 27  2  0
 28 20  1  0
 28 27  1  0
 29 31  1  0
 30 29  2  0
M  END
$$$$
