SHW.pdb
     RDKit          3D

 31 33  0  0  1  0  0  0  0  0999 V2000
   17.3378  -18.4099  -24.6341 O   0  0  0  0  0  0  0  0  0  0  0  0
   18.2938  -17.3973  -24.4833 C   0  0  0  0  0  0  0  0  0  0  0  0
   19.5828  -18.0579  -24.0550 C   0  0  2  0  0  0  0  0  0  0  0  0
   19.9495  -19.1858  -24.8603 N   0  0  0  0  0  0  0  0  0  0  0  0
   19.5279  -18.4639  -22.6221 C   0  0  0  0  0  0  0  0  0  0  0  0
   18.7229  -19.4057  -22.3346 O   0  0  0  0  0  0  0  0  0  0  0  0
   20.2950  -17.8778  -21.6043 N   0  0  0  0  0  0  0  0  0  0  0  0
   20.1695  -18.3290  -20.2473 C   0  0  1  0  0  0  0  0  0  0  0  0
   21.3761  -18.0487  -19.4097 C   0  0  0  0  0  0  0  0  0  0  0  0
   22.5084  -18.8929  -19.8177 C   0  0  0  0  0  0  0  0  0  0  0  0
   22.8596  -20.0852  -19.1988 C   0  0  0  0  0  0  0  0  0  0  0  0
   23.9306  -20.5562  -19.8480 N   0  0  0  0  0  0  0  0  0  0  0  0
   24.2733  -19.7244  -20.8430 C   0  0  0  0  0  0  0  0  0  0  0  0
   23.3794  -18.6955  -20.8108 N   0  0  0  0  0  0  0  0  0  0  0  0
   18.9523  -17.6868  -19.6503 C   0  0  0  0  0  0  0  0  0  0  0  0
   18.7994  -16.4399  -19.6945 O   0  0  0  0  0  0  0  0  0  0  0  0
   17.9340  -18.4422  -19.0198 N   0  0  0  0  0  0  0  0  0  0  0  0
   16.7107  -17.8009  -18.5647 C   0  0  1  0  0  0  0  0  0  0  0  0
   16.0961  -17.1947  -19.7982 C   0  0  0  0  0  0  0  0  0  0  0  0
   15.4353  -18.1621  -20.6647 C   0  0  0  0  0  0  0  0  0  0  0  0
   16.0380  -19.0607  -21.5515 C   0  0  0  0  0  0  0  0  0  0  0  0
   15.0847  -19.7436  -22.1728 N   0  0  0  0  0  0  0  0  0  0  0  0
   13.8664  -19.3498  -21.7476 C   0  0  0  0  0  0  0  0  0  0  0  0
   12.6074  -19.8157  -22.1263 C   0  0  0  0  0  0  0  0  0  0  0  0
   11.5140  -19.2453  -21.5110 C   0  0  0  0  0  0  0  0  0  0  0  0
   11.6846  -18.2500  -20.5571 C   0  0  0  0  0  0  0  0  0  0  0  0
   12.9460  -17.8212  -20.2155 C   0  0  0  0  0  0  0  0  0  0  0  0
   14.0695  -18.3755  -20.8178 C   0  0  0  0  0  0  0  0  0  0  0  0
   15.8250  -18.6456  -17.8027 C   0  0  0  0  0  0  0  0  0  0  0  0
   14.6938  -18.2306  -17.4493 O   0  0  0  0  0  0  0  0  0  0  0  0
   16.1431  -19.9378  -17.4219 O   0  0  0  0  0  0  0  0  0  0  0  0
  1  2  1  0
  3  2  1  0
  3  4  1  6
  5  7  1  0
  5  3  1  0
  6  5  2  0
  8  7  1  0
  8  9  1  1
 10  9  1  0
 11 10  2  0
 12 13  1  0
 12 11  1  0
 13 14  2  0
 14 10  1  0
 15 17  1  0
 15  8  1  0
 16 15  2  0
 18 17  1  0
 18 29  1  0
 18 19  1  6
 20 19  1  0
 21 20  2  0
 22 23  1  0
 22 21  1  0
 23 28  2  0
 24 23  1  0
 24 25  2  0
 25 26  1  0
 26 27  2  0
 28 20  1  0
 28 27  1  0
 29 31  1  0
 30 29  2  0
M  END
$$$$
