NWV.pdb
     RDKit          3D

 30 31  0  0  1  0  0  0  0  0999 V2000
   11.0130  -18.4029   19.1046 N   0  0  0  0  0  0  0  0  0  0  0  0
   10.8595  -16.9853   18.9243 C   0  0  0  0  0  0  0  0  0  0  0  0
   11.1271  -16.5388   17.7826 O   0  0  0  0  0  0  0  0  0  0  0  0
   10.4068  -16.1403   20.0543 C   0  0  0  0  0  0  0  0  0  0  0  0
   10.3146  -16.9789   21.3026 C   0  0  2  0  0  0  0  0  0  0  0  0
    9.2212  -17.8983   21.2629 N   0  0  0  0  0  0  0  0  0  0  0  0
   10.2833  -16.2073   22.5429 C   0  0  0  0  0  0  0  0  0  0  0  0
   11.2115  -15.3658   22.7549 O   0  0  0  0  0  0  0  0  0  0  0  0
    9.2490  -16.3585   23.5316 N   0  0  0  0  0  0  0  0  0  0  0  0
    9.4784  -15.8137   24.8390 C   0  0  1  0  0  0  0  0  0  0  0  0
    8.3437  -16.0978   25.7873 C   0  0  0  0  0  0  0  0  0  0  0  0
    7.1830  -15.2143   25.5462 C   0  0  0  0  0  0  0  0  0  0  0  0
    5.9696  -15.6333   25.0466 C   0  0  0  0  0  0  0  0  0  0  0  0
    5.1365  -14.5877   24.9496 N   0  0  0  0  0  0  0  0  0  0  0  0
    5.7835  -13.4790   25.3794 C   0  0  0  0  0  0  0  0  0  0  0  0
    5.3582  -12.1677   25.4749 C   0  0  0  0  0  0  0  0  0  0  0  0
    6.2403  -11.2252   25.9572 C   0  0  0  0  0  0  0  0  0  0  0  0
    7.5073  -11.5918   26.3304 C   0  0  0  0  0  0  0  0  0  0  0  0
    7.9354  -12.9058   26.2355 C   0  0  0  0  0  0  0  0  0  0  0  0
    7.0551  -13.8607   25.7515 C   0  0  0  0  0  0  0  0  0  0  0  0
   10.7546  -16.3730   25.4175 C   0  0  0  0  0  0  0  0  0  0  0  0
   11.8676  -16.0385   24.9399 O   0  0  0  0  0  0  0  0  0  0  0  0
   10.8678  -14.5262   27.5812 C   0  0  0  0  0  0  0  0  0  0  0  0
   10.6166  -15.7586   28.4219 C   0  0  2  0  0  0  0  0  0  0  0  0
   11.1095  -15.5133   29.8172 C   0  0  0  0  0  0  0  0  0  0  0  0
   11.3475  -16.9272   27.7679 C   0  0  2  0  0  0  0  0  0  0  0  0
   10.7275  -17.2849   26.5090 N   0  0  0  0  0  0  0  0  0  0  0  0
   11.3771  -18.0968   28.6691 C   0  0  0  0  0  0  0  0  0  0  0  0
   12.1506  -18.1011   29.6663 O   0  0  0  0  0  0  0  0  0  0  0  0
   10.5884  -19.2135   28.4798 O   0  0  0  0  0  0  0  0  0  0  0  0
  2  1  1  0
  2  3  2  0
  4  5  1  0
  4  2  1  0
  5  7  1  0
  5  6  1  6
  7  8  2  0
  9 10  1  0
  9  7  1  0
 11 12  1  0
 10 11  1  1
 12 13  2  0
 14 13  1  0
 15 14  1  0
 16 15  2  0
 17 16  1  0
 18 19  1  0
 18 17  2  0
 19 20  2  0
 20 15  1  0
 20 12  1  0
 21 10  1  0
 21 22  2  0
 24 23  1  6
 24 26  1  0
 25 24  1  0
 26 27  1  6
 26 28  1  0
 27 21  1  0
 28 29  2  0
 28 30  1  0
M  END
$$$$
