NWV.pdb
     RDKit          3D

 30 31  0  0  1  0  0  0  0  0999 V2000
    6.3584  -13.7345   18.5477 N   0  0  0  0  0  0  0  0  0  0  0  0
    7.6044  -14.3770   18.8641 C   0  0  0  0  0  0  0  0  0  0  0  0
    8.1364  -15.0411   17.9420 O   0  0  0  0  0  0  0  0  0  0  0  0
    8.1885  -14.2327   20.2183 C   0  0  0  0  0  0  0  0  0  0  0  0
    8.3947  -15.5967   20.8240 C   0  0  2  0  0  0  0  0  0  0  0  0
    7.1873  -16.3596   20.8743 N   0  0  0  0  0  0  0  0  0  0  0  0
    9.0388  -15.5800   22.1352 C   0  0  0  0  0  0  0  0  0  0  0  0
   10.0502  -14.8291   22.3023 O   0  0  0  0  0  0  0  0  0  0  0  0
    8.5780  -16.3746   23.2426 N   0  0  0  0  0  0  0  0  0  0  0  0
    9.3383  -16.3448   24.4590 C   0  0  1  0  0  0  0  0  0  0  0  0
    8.4635  -16.3707   25.6845 C   0  0  0  0  0  0  0  0  0  0  0  0
    7.4479  -15.2963   25.6655 C   0  0  0  0  0  0  0  0  0  0  0  0
    6.1215  -15.4775   25.3410 C   0  0  0  0  0  0  0  0  0  0  0  0
    5.4737  -14.3067   25.4209 N   0  0  0  0  0  0  0  0  0  0  0  0
    6.3555  -13.3502   25.7949 C   0  0  0  0  0  0  0  0  0  0  0  0
    6.1783  -11.9973   26.0136 C   0  0  0  0  0  0  0  0  0  0  0  0
    7.2686  -11.2460   26.3956 C   0  0  0  0  0  0  0  0  0  0  0  0
    8.4951  -11.8379   26.5518 C   0  0  0  0  0  0  0  0  0  0  0  0
    8.6746  -13.1939   26.3331 C   0  0  0  0  0  0  0  0  0  0  0  0
    7.5838  -13.9576   25.9486 C   0  0  0  0  0  0  0  0  0  0  0  0
   10.2866  -17.5173   24.5070 C   0  0  0  0  0  0  0  0  0  0  0  0
    9.8656  -18.6826   24.2983 O   0  0  0  0  0  0  0  0  0  0  0  0
   14.5157  -17.0182   25.0732 C   0  0  0  0  0  0  0  0  0  0  0  0
   13.9181  -18.1589   24.2792 C   0  0  2  0  0  0  0  0  0  0  0  0
   13.8092  -17.7539   22.8389 C   0  0  0  0  0  0  0  0  0  0  0  0
   12.5505  -18.4773   24.8757 C   0  0  2  0  0  0  0  0  0  0  0  0
   11.6689  -17.3319   24.7872 N   0  0  0  0  0  0  0  0  0  0  0  0
   12.6803  -18.9101   26.2817 C   0  0  0  0  0  0  0  0  0  0  0  0
   13.2468  -20.0051   26.5514 O   0  0  0  0  0  0  0  0  0  0  0  0
   12.2064  -18.1682   27.3448 O   0  0  0  0  0  0  0  0  0  0  0  0
  2  1  1  0
  2  3  2  0
  4  5  1  0
  4  2  1  0
  5  7  1  0
  5  6  1  1
  7  8  2  0
  9 10  1  0
  9  7  1  0
 11 12  1  0
 10 11  1  1
 12 13  2  0
 14 13  1  0
 15 14  1  0
 16 15  2  0
 17 16  1  0
 18 19  1  0
 18 17  2  0
 19 20  2  0
 20 15  1  0
 20 12  1  0
 21 10  1  0
 21 22  2  0
 24 23  1  1
 24 26  1  0
 25 24  1  0
 26 27  1  1
 26 28  1  0
 27 21  1  0
 28 29  2  0
 28 30  1  0
M  END
$$$$
