NWV.pdb
     RDKit          3D

 30 31  0  0  1  0  0  0  0  0999 V2000
   11.7543  -18.2920   18.6762 N   0  0  0  0  0  0  0  0  0  0  0  0
   12.7436  -17.7369   19.5587 C   0  0  0  0  0  0  0  0  0  0  0  0
   13.9403  -17.9938   19.2827 O   0  0  0  0  0  0  0  0  0  0  0  0
   12.3235  -16.9130   20.7165 C   0  0  0  0  0  0  0  0  0  0  0  0
   10.8214  -16.7979   20.7320 C   0  0  2  0  0  0  0  0  0  0  0  0
   10.3114  -16.1525   19.5633 N   0  0  0  0  0  0  0  0  0  0  0  0
   10.2800  -16.1699   21.9350 C   0  0  0  0  0  0  0  0  0  0  0  0
   10.5028  -14.9332   22.1237 O   0  0  0  0  0  0  0  0  0  0  0  0
    9.5071  -16.8895   22.9121 N   0  0  0  0  0  0  0  0  0  0  0  0
    9.0071  -16.1656   24.0455 C   0  0  1  0  0  0  0  0  0  0  0  0
    7.6665  -16.6735   24.5063 C   0  0  0  0  0  0  0  0  0  0  0  0
    6.8018  -15.5844   25.0084 C   0  0  0  0  0  0  0  0  0  0  0  0
    5.4953  -15.7448   25.4143 C   0  0  0  0  0  0  0  0  0  0  0  0
    4.9982  -14.5650   25.8113 N   0  0  0  0  0  0  0  0  0  0  0  0
    5.9604  -13.6229   25.6736 C   0  0  0  0  0  0  0  0  0  0  0  0
    5.9408  -12.2684   25.9464 C   0  0  0  0  0  0  0  0  0  0  0  0
    7.0829  -11.5346   25.7091 C   0  0  0  0  0  0  0  0  0  0  0  0
    8.2059  -12.1450   25.2139 C   0  0  0  0  0  0  0  0  0  0  0  0
    8.2274  -13.5027   24.9398 C   0  0  0  0  0  0  0  0  0  0  0  0
    7.0834  -14.2488   25.1753 C   0  0  0  0  0  0  0  0  0  0  0  0
    9.9861  -16.2533   25.1902 C   0  0  0  0  0  0  0  0  0  0  0  0
   11.0227  -16.9558   25.0858 O   0  0  0  0  0  0  0  0  0  0  0  0
   10.4836  -13.2972   28.0049 C   0  0  0  0  0  0  0  0  0  0  0  0
   10.3814  -14.6801   28.6096 C   0  0  2  0  0  0  0  0  0  0  0  0
   11.3536  -14.7950   29.7462 C   0  0  0  0  0  0  0  0  0  0  0  0
   10.6835  -15.6942   27.5105 C   0  0  2  0  0  0  0  0  0  0  0  0
    9.7600  -15.5479   26.4046 N   0  0  0  0  0  0  0  0  0  0  0  0
   10.6275  -17.0719   28.0392 C   0  0  0  0  0  0  0  0  0  0  0  0
    9.5257  -17.6865   28.0738 O   0  0  0  0  0  0  0  0  0  0  0  0
   11.7376  -17.7438   28.5095 O   0  0  0  0  0  0  0  0  0  0  0  0
  2  1  1  0
  2  3  2  0
  4  5  1  0
  4  2  1  0
  5  7  1  0
  5  6  1  6
  7  8  2  0
  9 10  1  0
  9  7  1  0
 11 12  1  0
 10 11  1  1
 12 13  2  0
 14 13  1  0
 15 14  1  0
 16 15  2  0
 17 16  1  0
 18 19  1  0
 18 17  2  0
 19 20  2  0
 20 15  1  0
 20 12  1  0
 21 10  1  0
 21 22  2  0
 24 23  1  6
 24 26  1  0
 25 24  1  0
 26 27  1  6
 26 28  1  0
 27 21  1  0
 28 29  2  0
 28 30  1  0
M  END
$$$$
