NWV.pdb
     RDKit          3D

 30 31  0  0  1  0  0  0  0  0999 V2000
    7.6445  -17.3724   18.0095 N   0  0  0  0  0  0  0  0  0  0  0  0
    7.6928  -15.9589   18.2651 C   0  0  0  0  0  0  0  0  0  0  0  0
    7.3365  -15.2117   17.3222 O   0  0  0  0  0  0  0  0  0  0  0  0
    8.1449  -15.4607   19.5855 C   0  0  0  0  0  0  0  0  0  0  0  0
    8.4610  -16.6298   20.4817 C   0  0  2  0  0  0  0  0  0  0  0  0
    7.3128  -17.4369   20.7511 N   0  0  0  0  0  0  0  0  0  0  0  0
    9.1291  -16.2662   21.7291 C   0  0  0  0  0  0  0  0  0  0  0  0
   10.1992  -15.5841   21.6651 O   0  0  0  0  0  0  0  0  0  0  0  0
    8.6284  -16.6459   23.0234 N   0  0  0  0  0  0  0  0  0  0  0  0
    9.4064  -16.2990   24.1779 C   0  0  1  0  0  0  0  0  0  0  0  0
    8.5974  -16.3324   25.4475 C   0  0  0  0  0  0  0  0  0  0  0  0
    7.4774  -15.3675   25.4188 C   0  0  0  0  0  0  0  0  0  0  0  0
    6.1730  -15.6897   25.1149 C   0  0  0  0  0  0  0  0  0  0  0  0
    5.4102  -14.5894   25.1783 N   0  0  0  0  0  0  0  0  0  0  0  0
    6.1938  -13.5401   25.5211 C   0  0  0  0  0  0  0  0  0  0  0  0
    5.8820  -12.2077   25.7135 C   0  0  0  0  0  0  0  0  0  0  0  0
    6.8940  -11.3412   26.0659 C   0  0  0  0  0  0  0  0  0  0  0  0
    8.1759  -11.8018   26.2191 C   0  0  0  0  0  0  0  0  0  0  0  0
    8.4903  -13.1371   26.0266 C   0  0  0  0  0  0  0  0  0  0  0  0
    7.4791  -14.0160   25.6720 C   0  0  0  0  0  0  0  0  0  0  0  0
   10.5775  -17.2401   24.3162 C   0  0  0  0  0  0  0  0  0  0  0  0
   10.4049  -18.4826   24.2433 O   0  0  0  0  0  0  0  0  0  0  0  0
   14.1070  -16.4406   22.7528 C   0  0  0  0  0  0  0  0  0  0  0  0
   14.3047  -16.9707   24.1559 C   0  0  2  0  0  0  0  0  0  0  0  0
   15.4670  -17.9189   24.1661 C   0  0  0  0  0  0  0  0  0  0  0  0
   13.0135  -17.6639   24.5798 C   0  0  2  0  0  0  0  0  0  0  0  0
   11.8942  -16.7463   24.5305 N   0  0  0  0  0  0  0  0  0  0  0  0
   13.1447  -18.2313   25.9368 C   0  0  0  0  0  0  0  0  0  0  0  0
   12.7923  -17.5497   26.9388 O   0  0  0  0  0  0  0  0  0  0  0  0
   13.6428  -19.4954   26.1796 O   0  0  0  0  0  0  0  0  0  0  0  0
  2  1  1  0
  2  3  2  0
  4  5  1  0
  4  2  1  0
  5  7  1  0
  5  6  1  1
  7  8  2  0
  9 10  1  0
  9  7  1  0
 11 12  1  0
 10 11  1  1
 12 13  2  0
 14 13  1  0
 15 14  1  0
 16 15  2  0
 17 16  1  0
 18 19  1  0
 18 17  2  0
 19 20  2  0
 20 15  1  0
 20 12  1  0
 21 10  1  0
 21 22  2  0
 24 23  1  6
 24 26  1  0
 25 24  1  0
 26 27  1  1
 26 28  1  0
 27 21  1  0
 28 29  2  0
 28 30  1  0
M  END
$$$$
