NWV.pdb
     RDKit          3D

 30 31  0  0  1  0  0  0  0  0999 V2000
   14.3728  -15.3795   19.1971 N   0  0  0  0  0  0  0  0  0  0  0  0
   13.1098  -16.0299   18.9797 C   0  0  0  0  0  0  0  0  0  0  0  0
   13.1051  -16.9697   18.1484 O   0  0  0  0  0  0  0  0  0  0  0  0
   11.9083  -15.5795   19.7210 C   0  0  0  0  0  0  0  0  0  0  0  0
   11.5902  -16.5701   20.8108 C   0  0  2  0  0  0  0  0  0  0  0  0
   10.8910  -17.7157   20.3198 N   0  0  0  0  0  0  0  0  0  0  0  0
   10.8849  -15.9976   21.9550 C   0  0  0  0  0  0  0  0  0  0  0  0
   11.3191  -14.9113   22.4510 O   0  0  0  0  0  0  0  0  0  0  0  0
    9.7224  -16.6090   22.5424 N   0  0  0  0  0  0  0  0  0  0  0  0
    9.0711  -15.9247   23.6222 C   0  0  1  0  0  0  0  0  0  0  0  0
    7.6669  -16.4178   23.8515 C   0  0  0  0  0  0  0  0  0  0  0  0
    6.8675  -15.4669   24.6532 C   0  0  0  0  0  0  0  0  0  0  0  0
    5.7605  -15.8076   25.3989 C   0  0  0  0  0  0  0  0  0  0  0  0
    5.2701  -14.7160   26.0027 N   0  0  0  0  0  0  0  0  0  0  0  0
    6.0394  -13.6542   25.6662 C   0  0  0  0  0  0  0  0  0  0  0  0
    5.9474  -12.3239   26.0288 C   0  0  0  0  0  0  0  0  0  0  0  0
    6.8823  -11.4421   25.5314 C   0  0  0  0  0  0  0  0  0  0  0  0
    7.8755  -11.8857   24.6974 C   0  0  0  0  0  0  0  0  0  0  0  0
    7.9693  -13.2188   24.3328 C   0  0  0  0  0  0  0  0  0  0  0  0
    7.0335  -14.1131   24.8281 C   0  0  0  0  0  0  0  0  0  0  0  0
    9.8643  -16.0901   24.8949 C   0  0  0  0  0  0  0  0  0  0  0  0
   10.8449  -16.8748   24.9337 O   0  0  0  0  0  0  0  0  0  0  0  0
    9.9865  -13.1278   27.7880 C   0  0  0  0  0  0  0  0  0  0  0  0
    9.8717  -14.5290   28.3468 C   0  0  2  0  0  0  0  0  0  0  0  0
   10.7172  -14.6390   29.5809 C   0  0  0  0  0  0  0  0  0  0  0  0
   10.3311  -15.5023   27.2654 C   0  0  2  0  0  0  0  0  0  0  0  0
    9.5231  -15.3667   26.0713 N   0  0  0  0  0  0  0  0  0  0  0  0
   10.2799  -16.8938   27.7572 C   0  0  0  0  0  0  0  0  0  0  0  0
    9.2081  -17.5535   27.6632 O   0  0  0  0  0  0  0  0  0  0  0  0
   11.3629  -17.5312   28.3280 O   0  0  0  0  0  0  0  0  0  0  0  0
  2  1  1  0
  2  3  2  0
  4  5  1  0
  4  2  1  0
  5  7  1  0
  5  6  1  6
  7  8  2  0
  9 10  1  0
  9  7  1  0
 11 12  1  0
 10 11  1  1
 12 13  2  0
 14 13  1  0
 15 14  1  0
 16 15  2  0
 17 16  1  0
 18 19  1  0
 18 17  2  0
 19 20  2  0
 20 15  1  0
 20 12  1  0
 21 10  1  0
 21 22  2  0
 24 23  1  6
 24 26  1  0
 25 24  1  0
 26 27  1  6
 26 28  1  0
 27 21  1  0
 28 29  2  0
 28 30  1  0
M  END
$$$$
