NWV.pdb
     RDKit          3D

 30 31  0  0  1  0  0  0  0  0999 V2000
    7.6033  -13.5980   17.2978 N   0  0  0  0  0  0  0  0  0  0  0  0
    7.8741  -14.6472   18.2420 C   0  0  0  0  0  0  0  0  0  0  0  0
    7.6314  -15.8165   17.8573 O   0  0  0  0  0  0  0  0  0  0  0  0
    8.4103  -14.3155   19.5831 C   0  0  0  0  0  0  0  0  0  0  0  0
    8.0436  -15.4074   20.5543 C   0  0  2  0  0  0  0  0  0  0  0  0
    6.6313  -15.5178   20.7434 N   0  0  0  0  0  0  0  0  0  0  0  0
    8.7221  -15.3153   21.8450 C   0  0  0  0  0  0  0  0  0  0  0  0
    9.5516  -14.3698   22.0257 O   0  0  0  0  0  0  0  0  0  0  0  0
    8.4917  -16.2464   22.9174 N   0  0  0  0  0  0  0  0  0  0  0  0
    9.3055  -16.1376   24.0940 C   0  0  1  0  0  0  0  0  0  0  0  0
    8.5354  -16.4297   25.3546 C   0  0  0  0  0  0  0  0  0  0  0  0
    7.5028  -15.4067   25.6251 C   0  0  0  0  0  0  0  0  0  0  0  0
    6.1448  -15.6263   25.5550 C   0  0  0  0  0  0  0  0  0  0  0  0
    5.4891  -14.4970   25.8575 N   0  0  0  0  0  0  0  0  0  0  0  0
    6.3970  -13.5300   26.1278 C   0  0  0  0  0  0  0  0  0  0  0  0
    6.2241  -12.2071   26.4880 C   0  0  0  0  0  0  0  0  0  0  0  0
    7.3443  -11.4352   26.7080 C   0  0  0  0  0  0  0  0  0  0  0  0
    8.5955  -11.9778   26.5697 C   0  0  0  0  0  0  0  0  0  0  0  0
    8.7707  -13.3037   26.2087 C   0  0  0  0  0  0  0  0  0  0  0  0
    7.6499  -14.0878   25.9853 C   0  0  0  0  0  0  0  0  0  0  0  0
   10.4776  -17.0833   24.0034 C   0  0  0  0  0  0  0  0  0  0  0  0
   10.2908  -18.3050   23.7761 O   0  0  0  0  0  0  0  0  0  0  0  0
   13.9201  -15.9353   22.4239 C   0  0  0  0  0  0  0  0  0  0  0  0
   14.2005  -16.7706   23.6538 C   0  0  2  0  0  0  0  0  0  0  0  0
   15.3354  -17.7081   23.3655 C   0  0  0  0  0  0  0  0  0  0  0  0
   12.9239  -17.5288   24.0046 C   0  0  2  0  0  0  0  0  0  0  0  0
   11.8110  -16.6173   24.1716 N   0  0  0  0  0  0  0  0  0  0  0  0
   13.1112  -18.3307   25.2304 C   0  0  0  0  0  0  0  0  0  0  0  0
   12.8139  -17.8384   26.3538 O   0  0  0  0  0  0  0  0  0  0  0  0
   13.6046  -19.6197   25.2190 O   0  0  0  0  0  0  0  0  0  0  0  0
  2  1  1  0
  2  3  2  0
  4  5  1  0
  4  2  1  0
  5  7  1  0
  5  6  1  1
  7  8  2  0
  9 10  1  0
  9  7  1  0
 11 12  1  0
 10 11  1  1
 12 13  2  0
 14 13  1  0
 15 14  1  0
 16 15  2  0
 17 16  1  0
 18 19  1  0
 18 17  2  0
 19 20  2  0
 20 15  1  0
 20 12  1  0
 21 10  1  0
 21 22  2  0
 24 23  1  6
 24 26  1  0
 25 24  1  0
 26 27  1  1
 26 28  1  0
 27 21  1  0
 28 29  2  0
 28 30  1  0
M  END
$$$$
