NWV.pdb
     RDKit          3D

 30 31  0  0  1  0  0  0  0  0999 V2000
    7.1057  -13.9193   17.6149 N   0  0  0  0  0  0  0  0  0  0  0  0
    8.0584  -14.8294   18.1891 C   0  0  0  0  0  0  0  0  0  0  0  0
    8.4399  -15.7712   17.4529 O   0  0  0  0  0  0  0  0  0  0  0  0
    8.5339  -14.6243   19.5775 C   0  0  0  0  0  0  0  0  0  0  0  0
    8.4748  -15.9303   20.3264 C   0  0  2  0  0  0  0  0  0  0  0  0
    7.1522  -16.4691   20.3804 N   0  0  0  0  0  0  0  0  0  0  0  0
    9.0572  -15.8811   21.6655 C   0  0  0  0  0  0  0  0  0  0  0  0
   10.1320  -15.2244   21.8334 O   0  0  0  0  0  0  0  0  0  0  0  0
    8.4672  -16.5420   22.7991 N   0  0  0  0  0  0  0  0  0  0  0  0
    9.1429  -16.4517   24.0617 C   0  0  1  0  0  0  0  0  0  0  0  0
    8.2145  -16.6684   25.2273 C   0  0  0  0  0  0  0  0  0  0  0  0
    7.2385  -15.5674   25.3730 C   0  0  0  0  0  0  0  0  0  0  0  0
    5.8763  -15.7022   25.2191 C   0  0  0  0  0  0  0  0  0  0  0  0
    5.2807  -14.5179   25.4177 N   0  0  0  0  0  0  0  0  0  0  0  0
    6.2325  -13.5983   25.7019 C   0  0  0  0  0  0  0  0  0  0  0  0
    6.1269  -12.2492   25.9820 C   0  0  0  0  0  0  0  0  0  0  0  0
    7.2801  -11.5405   26.2408 C   0  0  0  0  0  0  0  0  0  0  0  0
    8.4976  -12.1697   26.2179 C   0  0  0  0  0  0  0  0  0  0  0  0
    8.6055  -13.5220   25.9373 C   0  0  0  0  0  0  0  0  0  0  0  0
    7.4511  -14.2430   25.6758 C   0  0  0  0  0  0  0  0  0  0  0  0
   10.2587  -17.4652   24.1266 C   0  0  0  0  0  0  0  0  0  0  0  0
   10.1210  -18.5952   23.5945 O   0  0  0  0  0  0  0  0  0  0  0  0
   13.6781  -17.1590   22.9205 C   0  0  0  0  0  0  0  0  0  0  0  0
   13.8594  -17.5838   24.3612 C   0  0  2  0  0  0  0  0  0  0  0  0
   14.9635  -18.5959   24.4422 C   0  0  0  0  0  0  0  0  0  0  0  0
   12.5340  -18.1615   24.8482 C   0  0  2  0  0  0  0  0  0  0  0  0
   11.4831  -17.1671   24.7865 N   0  0  0  0  0  0  0  0  0  0  0  0
   12.6627  -18.6787   26.2255 C   0  0  0  0  0  0  0  0  0  0  0  0
   12.3165  -17.9574   27.2015 O   0  0  0  0  0  0  0  0  0  0  0  0
   13.1518  -19.9365   26.5150 O   0  0  0  0  0  0  0  0  0  0  0  0
  2  1  1  0
  2  3  2  0
  4  5  1  0
  4  2  1  0
  5  7  1  0
  5  6  1  1
  7  8  2  0
  9 10  1  0
  9  7  1  0
 11 12  1  0
 10 11  1  1
 12 13  2  0
 14 13  1  0
 15 14  1  0
 16 15  2  0
 17 16  1  0
 18 19  1  0
 18 17  2  0
 19 20  2  0
 20 15  1  0
 20 12  1  0
 21 10  1  0
 21 22  2  0
 24 23  1  6
 24 26  1  0
 25 24  1  0
 26 27  1  1
 26 28  1  0
 27 21  1  0
 28 29  2  0
 28 30  1  0
M  END
$$$$
