NWV.pdb
     RDKit          3D

 30 31  0  0  1  0  0  0  0  0999 V2000
   14.9013  -15.9788   19.4255 N   0  0  0  0  0  0  0  0  0  0  0  0
   13.5546  -16.4210   19.1876 C   0  0  0  0  0  0  0  0  0  0  0  0
   13.4106  -17.3257   18.3302 O   0  0  0  0  0  0  0  0  0  0  0  0
   12.4320  -15.8116   19.9389 C   0  0  0  0  0  0  0  0  0  0  0  0
   12.0510  -16.7091   21.0875 C   0  0  2  0  0  0  0  0  0  0  0  0
   11.4308  -17.9204   20.6511 N   0  0  0  0  0  0  0  0  0  0  0  0
   11.2333  -16.0608   22.1100 C   0  0  0  0  0  0  0  0  0  0  0  0
   11.6024  -14.9274   22.5503 O   0  0  0  0  0  0  0  0  0  0  0  0
   10.0309  -16.6486   22.6380 N   0  0  0  0  0  0  0  0  0  0  0  0
    9.3416  -15.9524   23.6862 C   0  0  1  0  0  0  0  0  0  0  0  0
    7.8571  -16.2042   23.6640 C   0  0  0  0  0  0  0  0  0  0  0  0
    7.1387  -15.3823   24.6612 C   0  0  0  0  0  0  0  0  0  0  0  0
    6.3044  -15.8841   25.6357 C   0  0  0  0  0  0  0  0  0  0  0  0
    5.8144  -14.8771   26.3723 N   0  0  0  0  0  0  0  0  0  0  0  0
    6.3145  -13.7122   25.8977 C   0  0  0  0  0  0  0  0  0  0  0  0
    6.1140  -12.4097   26.3137 C   0  0  0  0  0  0  0  0  0  0  0  0
    6.7616  -11.3981   25.6381 C   0  0  0  0  0  0  0  0  0  0  0  0
    7.5827  -11.6892   24.5798 C   0  0  0  0  0  0  0  0  0  0  0  0
    7.7848  -12.9942   24.1614 C   0  0  0  0  0  0  0  0  0  0  0  0
    7.1377  -14.0182   24.8348 C   0  0  0  0  0  0  0  0  0  0  0  0
    9.8900  -16.3636   25.0302 C   0  0  0  0  0  0  0  0  0  0  0  0
   10.4256  -17.4905   25.1790 O   0  0  0  0  0  0  0  0  0  0  0  0
    8.9927  -14.5465   28.8862 C   0  0  0  0  0  0  0  0  0  0  0  0
   10.4139  -14.7026   28.3919 C   0  0  2  0  0  0  0  0  0  0  0  0
   10.8559  -13.4221   27.7475 C   0  0  0  0  0  0  0  0  0  0  0  0
   10.4398  -15.8643   27.4033 C   0  0  2  0  0  0  0  0  0  0  0  0
    9.8143  -15.4915   26.1515 N   0  0  0  0  0  0  0  0  0  0  0  0
    9.7692  -17.0509   27.9718 C   0  0  0  0  0  0  0  0  0  0  0  0
    8.6299  -17.3908   27.5484 O   0  0  0  0  0  0  0  0  0  0  0  0
   10.3297  -17.8296   28.9639 O   0  0  0  0  0  0  0  0  0  0  0  0
  2  1  1  0
  2  3  2  0
  4  5  1  0
  4  2  1  0
  5  7  1  0
  5  6  1  6
  7  8  2  0
  9 10  1  0
  9  7  1  0
 11 12  1  0
 10 11  1  1
 12 13  2  0
 14 13  1  0
 15 14  1  0
 16 15  2  0
 17 16  1  0
 18 19  1  0
 18 17  2  0
 19 20  2  0
 20 15  1  0
 20 12  1  0
 21 10  1  0
 21 22  2  0
 24 23  1  6
 24 26  1  0
 25 24  1  0
 26 27  1  6
 26 28  1  0
 27 21  1  0
 28 29  2  0
 28 30  1  0
M  END
$$$$
