NWV.pdb
     RDKit          3D

 30 31  0  0  1  0  0  0  0  0999 V2000
   13.6279  -16.8596   18.7513 N   0  0  0  0  0  0  0  0  0  0  0  0
   12.8072  -17.5632   19.6983 C   0  0  0  0  0  0  0  0  0  0  0  0
   12.3006  -18.6404   19.3014 O   0  0  0  0  0  0  0  0  0  0  0  0
   12.6013  -17.0070   21.0563 C   0  0  0  0  0  0  0  0  0  0  0  0
   11.1458  -17.1184   21.4291 C   0  0  2  0  0  0  0  0  0  0  0  0
   10.2901  -16.4667   20.4881 N   0  0  0  0  0  0  0  0  0  0  0  0
   10.8382  -16.6739   22.7864 C   0  0  0  0  0  0  0  0  0  0  0  0
   11.7463  -16.0810   23.4487 O   0  0  0  0  0  0  0  0  0  0  0  0
    9.5546  -16.8775   23.4036 N   0  0  0  0  0  0  0  0  0  0  0  0
    9.4109  -16.5434   24.7915 C   0  0  1  0  0  0  0  0  0  0  0  0
    7.9716  -16.3517   25.1905 C   0  0  0  0  0  0  0  0  0  0  0  0
    7.4187  -15.0778   24.6829 C   0  0  0  0  0  0  0  0  0  0  0  0
    7.0101  -14.8627   23.3851 C   0  0  0  0  0  0  0  0  0  0  0  0
    6.5613  -13.6063   23.2561 N   0  0  0  0  0  0  0  0  0  0  0  0
    6.6672  -12.9849   24.4540 C   0  0  0  0  0  0  0  0  0  0  0  0
    6.3387  -11.6973   24.8333 C   0  0  0  0  0  0  0  0  0  0  0  0
    6.5541  -11.3237   26.1421 C   0  0  0  0  0  0  0  0  0  0  0  0
    7.0823  -12.2169   27.0377 C   0  0  0  0  0  0  0  0  0  0  0  0
    7.4122  -13.5080   26.6593 C   0  0  0  0  0  0  0  0  0  0  0  0
    7.1991  -13.8928   25.3450 C   0  0  0  0  0  0  0  0  0  0  0  0
   10.0198  -17.6236   25.6509 C   0  0  0  0  0  0  0  0  0  0  0  0
   10.7630  -18.4979   25.1390 O   0  0  0  0  0  0  0  0  0  0  0  0
   12.5621  -17.2726   26.3899 C   0  0  0  0  0  0  0  0  0  0  0  0
   12.0278  -17.0893   27.7934 C   0  0  2  0  0  0  0  0  0  0  0  0
   13.1153  -17.3971   28.7796 C   0  0  0  0  0  0  0  0  0  0  0  0
   10.8354  -18.0254   27.9653 C   0  0  2  0  0  0  0  0  0  0  0  0
    9.7687  -17.6766   27.0501 N   0  0  0  0  0  0  0  0  0  0  0  0
   10.3409  -17.9936   29.3564 C   0  0  0  0  0  0  0  0  0  0  0  0
    9.6380  -17.0224   29.7505 O   0  0  0  0  0  0  0  0  0  0  0  0
   10.6092  -18.9892   30.2740 O   0  0  0  0  0  0  0  0  0  0  0  0
  2  1  1  0
  2  3  2  0
  4  5  1  0
  4  2  1  0
  5  7  1  0
  5  6  1  6
  7  8  2  0
  9 10  1  0
  9  7  1  0
 11 12  1  0
 10 11  1  1
 12 13  2  0
 14 13  1  0
 15 14  1  0
 16 15  2  0
 17 16  1  0
 18 19  1  0
 18 17  2  0
 19 20  2  0
 20 15  1  0
 20 12  1  0
 21 10  1  0
 21 22  2  0
 24 23  1  6
 24 26  1  0
 25 24  1  0
 26 27  1  6
 26 28  1  0
 27 21  1  0
 28 29  2  0
 28 30  1  0
M  END
$$$$
