NWV.pdb
     RDKit          3D

 30 31  0  0  1  0  0  0  0  0999 V2000
   12.2409  -18.8637   17.9410 N   0  0  0  0  0  0  0  0  0  0  0  0
   10.9405  -18.3601   17.5935 C   0  0  0  0  0  0  0  0  0  0  0  0
   10.4607  -18.7646   16.5069 O   0  0  0  0  0  0  0  0  0  0  0  0
   10.2449  -17.4179   18.5014 C   0  0  0  0  0  0  0  0  0  0  0  0
   10.0422  -18.0716   19.8436 C   0  0  2  0  0  0  0  0  0  0  0  0
    8.9070  -18.9397   19.8619 N   0  0  0  0  0  0  0  0  0  0  0  0
    9.9827  -17.1358   20.9640 C   0  0  0  0  0  0  0  0  0  0  0  0
   11.0518  -16.5466   21.3168 O   0  0  0  0  0  0  0  0  0  0  0  0
    8.7688  -16.8530   21.6827 N   0  0  0  0  0  0  0  0  0  0  0  0
    8.8320  -15.9317   22.7808 C   0  0  1  0  0  0  0  0  0  0  0  0
    7.5456  -15.1716   22.9682 C   0  0  0  0  0  0  0  0  0  0  0  0
    7.7238  -13.9794   23.8243 C   0  0  0  0  0  0  0  0  0  0  0  0
    8.4213  -12.8492   23.4587 C   0  0  0  0  0  0  0  0  0  0  0  0
    8.3923  -11.9579   24.4596 N   0  0  0  0  0  0  0  0  0  0  0  0
    7.6832  -12.4840   25.4856 C   0  0  0  0  0  0  0  0  0  0  0  0
    7.3709  -11.9617   26.7263 C   0  0  0  0  0  0  0  0  0  0  0  0
    6.6196  -12.7281   27.5907 C   0  0  0  0  0  0  0  0  0  0  0  0
    6.1976  -13.9778   27.2175 C   0  0  0  0  0  0  0  0  0  0  0  0
    6.5097  -14.5030   25.9743 C   0  0  0  0  0  0  0  0  0  0  0  0
    7.2649  -13.7395   25.0982 C   0  0  0  0  0  0  0  0  0  0  0  0
    9.1590  -16.6671   24.0569 C   0  0  0  0  0  0  0  0  0  0  0  0
    8.4364  -17.6199   24.4429 O   0  0  0  0  0  0  0  0  0  0  0  0
   12.8418  -17.6491   24.6739 C   0  0  0  0  0  0  0  0  0  0  0  0
   12.2797  -17.1501   25.9868 C   0  0  2  0  0  0  0  0  0  0  0  0
   12.7813  -18.0202   27.1011 C   0  0  0  0  0  0  0  0  0  0  0  0
   10.7578  -17.1892   25.8884 C   0  0  2  0  0  0  0  0  0  0  0  0
   10.2845  -16.3017   24.8464 N   0  0  0  0  0  0  0  0  0  0  0  0
   10.1399  -16.8293   27.1805 C   0  0  0  0  0  0  0  0  0  0  0  0
    9.7159  -15.6555   27.3680 O   0  0  0  0  0  0  0  0  0  0  0  0
    9.9954  -17.7241   28.2214 O   0  0  0  0  0  0  0  0  0  0  0  0
  2  1  1  0
  2  3  2  0
  4  5  1  0
  4  2  1  0
  5  7  1  0
  5  6  1  6
  7  8  2  0
  9 10  1  0
  9  7  1  0
 11 12  1  0
 10 11  1  1
 12 13  2  0
 14 13  1  0
 15 14  1  0
 16 15  2  0
 17 16  1  0
 18 19  1  0
 18 17  2  0
 19 20  2  0
 20 15  1  0
 20 12  1  0
 21 10  1  0
 21 22  2  0
 24 23  1  6
 24 26  1  0
 25 24  1  0
 26 27  1  6
 26 28  1  0
 27 21  1  0
 28 29  2  0
 28 30  1  0
M  END
$$$$
