NWV.pdb
     RDKit          3D

 30 31  0  0  1  0  0  0  0  0999 V2000
   12.0548  -17.5179   19.4380 N   0  0  0  0  0  0  0  0  0  0  0  0
   12.0191  -16.0891   19.5888 C   0  0  0  0  0  0  0  0  0  0  0  0
   12.4969  -15.4188   18.6419 O   0  0  0  0  0  0  0  0  0  0  0  0
   11.4392  -15.4885   20.8131 C   0  0  0  0  0  0  0  0  0  0  0  0
   10.9909  -16.5836   21.7456 C   0  0  2  0  0  0  0  0  0  0  0  0
    9.9417  -17.3787   21.1891 N   0  0  0  0  0  0  0  0  0  0  0  0
   10.6221  -16.1209   23.0815 C   0  0  0  0  0  0  0  0  0  0  0  0
   11.2954  -15.1769   23.6014 O   0  0  0  0  0  0  0  0  0  0  0  0
    9.5320  -16.6861   23.8312 N   0  0  0  0  0  0  0  0  0  0  0  0
    9.1853  -16.0778   25.0835 C   0  0  1  0  0  0  0  0  0  0  0  0
    7.7970  -16.4453   25.5364 C   0  0  0  0  0  0  0  0  0  0  0  0
    6.7945  -15.4371   25.1307 C   0  0  0  0  0  0  0  0  0  0  0  0
    5.6102  -15.7238   24.4882 C   0  0  0  0  0  0  0  0  0  0  0  0
    4.9326  -14.5892   24.2642 N   0  0  0  0  0  0  0  0  0  0  0  0
    5.6539  -13.5523   24.7510 C   0  0  0  0  0  0  0  0  0  0  0  0
    5.3866  -12.1966   24.7646 C   0  0  0  0  0  0  0  0  0  0  0  0
    6.3122  -11.3511   25.3369 C   0  0  0  0  0  0  0  0  0  0  0  0
    7.4671  -11.8546   25.8768 C   0  0  0  0  0  0  0  0  0  0  0  0
    7.7367  -13.2134   25.8640 C   0  0  0  0  0  0  0  0  0  0  0  0
    6.8117  -14.0714   25.2906 C   0  0  0  0  0  0  0  0  0  0  0  0
   10.1736  -16.4837   26.1488 C   0  0  0  0  0  0  0  0  0  0  0  0
   11.0706  -17.3260   25.8940 O   0  0  0  0  0  0  0  0  0  0  0  0
   11.2240  -14.0710   29.2527 C   0  0  0  0  0  0  0  0  0  0  0  0
   10.9618  -15.4884   29.7121 C   0  0  2  0  0  0  0  0  0  0  0  0
   11.9933  -15.8762   30.7298 C   0  0  0  0  0  0  0  0  0  0  0  0
   11.0171  -16.3947   28.4861 C   0  0  2  0  0  0  0  0  0  0  0  0
   10.1134  -15.9262   27.4561 N   0  0  0  0  0  0  0  0  0  0  0  0
   10.6924  -17.7886   28.8502 C   0  0  0  0  0  0  0  0  0  0  0  0
    9.4937  -18.1821   28.8199 O   0  0  0  0  0  0  0  0  0  0  0  0
   11.6474  -18.7094   29.2311 O   0  0  0  0  0  0  0  0  0  0  0  0
  2  1  1  0
  2  3  2  0
  4  5  1  0
  4  2  1  0
  5  7  1  0
  5  6  1  6
  7  8  2  0
  9 10  1  0
  9  7  1  0
 11 12  1  0
 10 11  1  1
 12 13  2  0
 14 13  1  0
 15 14  1  0
 16 15  2  0
 17 16  1  0
 18 19  1  0
 18 17  2  0
 19 20  2  0
 20 15  1  0
 20 12  1  0
 21 10  1  0
 21 22  2  0
 24 23  1  6
 24 26  1  0
 25 24  1  0
 26 27  1  6
 26 28  1  0
 27 21  1  0
 28 29  2  0
 28 30  1  0
M  END
$$$$
