NWV.pdb
     RDKit          3D

 30 31  0  0  1  0  0  0  0  0999 V2000
    8.0426  -17.4104   17.8548 N   0  0  0  0  0  0  0  0  0  0  0  0
    7.8109  -16.0377   18.2118 C   0  0  0  0  0  0  0  0  0  0  0  0
    7.3776  -15.2926   17.3000 O   0  0  0  0  0  0  0  0  0  0  0  0
    8.0834  -15.5761   19.5933 C   0  0  0  0  0  0  0  0  0  0  0  0
    8.6451  -16.7166   20.4019 C   0  0  2  0  0  0  0  0  0  0  0  0
    7.7068  -17.7816   20.5684 N   0  0  0  0  0  0  0  0  0  0  0  0
    9.1970  -16.3204   21.6954 C   0  0  0  0  0  0  0  0  0  0  0  0
   10.2013  -15.5421   21.7112 O   0  0  0  0  0  0  0  0  0  0  0  0
    8.6533  -16.7721   22.9486 N   0  0  0  0  0  0  0  0  0  0  0  0
    9.3353  -16.4002   24.1549 C   0  0  1  0  0  0  0  0  0  0  0  0
    8.4715  -16.5639   25.3774 C   0  0  0  0  0  0  0  0  0  0  0  0
    7.4380  -15.5110   25.4732 C   0  0  0  0  0  0  0  0  0  0  0  0
    6.0975  -15.7034   25.2215 C   0  0  0  0  0  0  0  0  0  0  0  0
    5.4355  -14.5513   25.3982 N   0  0  0  0  0  0  0  0  0  0  0  0
    6.3219  -13.5960   25.7648 C   0  0  0  0  0  0  0  0  0  0  0  0
    6.1349  -12.2591   26.0604 C   0  0  0  0  0  0  0  0  0  0  0  0
    7.2334  -11.5051   26.4120 C   0  0  0  0  0  0  0  0  0  0  0  0
    8.4773  -12.0785   26.4640 C   0  0  0  0  0  0  0  0  0  0  0  0
    8.6667  -13.4185   26.1681 C   0  0  0  0  0  0  0  0  0  0  0  0
    7.5677  -14.1849   25.8133 C   0  0  0  0  0  0  0  0  0  0  0  0
   10.5850  -17.2291   24.3210 C   0  0  0  0  0  0  0  0  0  0  0  0
   10.5451  -18.4752   24.1643 O   0  0  0  0  0  0  0  0  0  0  0  0
   14.1111  -16.1624   22.9821 C   0  0  0  0  0  0  0  0  0  0  0  0
   14.2653  -16.6322   24.4119 C   0  0  2  0  0  0  0  0  0  0  0  0
   15.5093  -17.4625   24.5272 C   0  0  0  0  0  0  0  0  0  0  0  0
   13.0207  -17.4358   24.7764 C   0  0  2  0  0  0  0  0  0  0  0  0
   11.8278  -16.6236   24.6562 N   0  0  0  0  0  0  0  0  0  0  0  0
   13.1296  -17.9775   26.1459 C   0  0  0  0  0  0  0  0  0  0  0  0
   12.6363  -17.3371   27.1151 O   0  0  0  0  0  0  0  0  0  0  0  0
   13.7548  -19.1735   26.4352 O   0  0  0  0  0  0  0  0  0  0  0  0
  2  1  1  0
  2  3  2  0
  4  5  1  0
  4  2  1  0
  5  7  1  0
  5  6  1  1
  7  8  2  0
  9 10  1  0
  9  7  1  0
 11 12  1  0
 10 11  1  1
 12 13  2  0
 14 13  1  0
 15 14  1  0
 16 15  2  0
 17 16  1  0
 18 19  1  0
 18 17  2  0
 19 20  2  0
 20 15  1  0
 20 12  1  0
 21 10  1  0
 21 22  2  0
 24 23  1  6
 24 26  1  0
 25 24  1  0
 26 27  1  1
 26 28  1  0
 27 21  1  0
 28 29  2  0
 28 30  1  0
M  END
$$$$
