NWV.pdb
     RDKit          3D

 30 31  0  0  1  0  0  0  0  0999 V2000
   10.0703  -17.2891   18.7459 N   0  0  0  0  0  0  0  0  0  0  0  0
   10.1972  -15.9147   19.1467 C   0  0  0  0  0  0  0  0  0  0  0  0
   10.3676  -15.0811   18.2245 O   0  0  0  0  0  0  0  0  0  0  0  0
   10.1234  -15.5525   20.5817 C   0  0  0  0  0  0  0  0  0  0  0  0
   10.0533  -16.8071   21.4131 C   0  0  2  0  0  0  0  0  0  0  0  0
    8.8818  -17.5784   21.1392 N   0  0  0  0  0  0  0  0  0  0  0  0
   10.1880  -16.5827   22.8505 C   0  0  0  0  0  0  0  0  0  0  0  0
   11.1784  -15.9038   23.2661 O   0  0  0  0  0  0  0  0  0  0  0  0
    9.2495  -17.0956   23.8129 N   0  0  0  0  0  0  0  0  0  0  0  0
    9.5294  -16.8922   25.2053 C   0  0  1  0  0  0  0  0  0  0  0  0
    8.2768  -16.7992   26.0359 C   0  0  0  0  0  0  0  0  0  0  0  0
    7.4411  -15.6409   25.6539 C   0  0  0  0  0  0  0  0  0  0  0  0
    6.3308  -15.7096   24.8415 C   0  0  0  0  0  0  0  0  0  0  0  0
    5.8034  -14.4861   24.6940 N   0  0  0  0  0  0  0  0  0  0  0  0
    6.5513  -13.6058   25.3998 C   0  0  0  0  0  0  0  0  0  0  0  0
    6.4187  -12.2403   25.5653 C   0  0  0  0  0  0  0  0  0  0  0  0
    7.3379  -11.5825   26.3536 C   0  0  0  0  0  0  0  0  0  0  0  0
    8.3556  -12.2770   26.9543 C   0  0  0  0  0  0  0  0  0  0  0  0
    8.4901  -13.6459   26.7896 C   0  0  0  0  0  0  0  0  0  0  0  0
    7.5703  -14.3160   25.9985 C   0  0  0  0  0  0  0  0  0  0  0  0
   10.3863  -18.0169   25.7319 C   0  0  0  0  0  0  0  0  0  0  0  0
   10.6260  -19.0208   25.0153 O   0  0  0  0  0  0  0  0  0  0  0  0
   13.6584  -18.5842   26.1312 C   0  0  0  0  0  0  0  0  0  0  0  0
   13.2014  -18.7465   27.5642 C   0  0  2  0  0  0  0  0  0  0  0  0
   14.0021  -19.8337   28.2175 C   0  0  0  0  0  0  0  0  0  0  0  0
   11.7133  -19.0822   27.5449 C   0  0  2  0  0  0  0  0  0  0  0  0
   10.9386  -17.9669   27.0419 N   0  0  0  0  0  0  0  0  0  0  0  0
   11.2438  -19.4588   28.8934 C   0  0  0  0  0  0  0  0  0  0  0  0
   11.6767  -20.5122   29.4372 O   0  0  0  0  0  0  0  0  0  0  0  0
   10.3365  -18.7070   29.6121 O   0  0  0  0  0  0  0  0  0  0  0  0
  2  1  1  0
  2  3  2  0
  4  5  1  0
  4  2  1  0
  5  7  1  0
  5  6  1  1
  7  8  2  0
  9 10  1  0
  9  7  1  0
 11 12  1  0
 10 11  1  1
 12 13  2  0
 14 13  1  0
 15 14  1  0
 16 15  2  0
 17 16  1  0
 18 19  1  0
 18 17  2  0
 19 20  2  0
 20 15  1  0
 20 12  1  0
 21 10  1  0
 21 22  2  0
 24 23  1  6
 24 26  1  0
 25 24  1  0
 26 27  1  1
 26 28  1  0
 27 21  1  0
 28 29  2  0
 28 30  1  0
M  END
$$$$
