VTC.pdb
     RDKit          3D

 21 20  0  0  1  0  0  0  0  0999 V2000
   17.2798  -15.0810  -18.2377 C   0  0  0  0  0  0  0  0  0  0  0  0
   18.5710  -15.8302  -18.1347 C   0  0  2  0  0  0  0  0  0  0  0  0
   18.2661  -17.2338  -17.6704 C   0  0  0  0  0  0  0  0  0  0  0  0
   19.5323  -15.2174  -17.1511 C   0  0  2  0  0  0  0  0  0  0  0  0
   18.9825  -15.0273  -15.8504 N   0  0  0  0  0  0  0  0  0  0  0  0
   20.0351  -13.9422  -17.7223 C   0  0  0  0  0  0  0  0  0  0  0  0
   20.6364  -13.8739  -18.8184 O   0  0  0  0  0  0  0  0  0  0  0  0
   19.1334  -11.8059  -19.7207 C   0  0  0  0  0  0  0  0  0  0  0  0
   19.2090  -10.9704  -18.4634 C   0  0  1  0  0  0  0  0  0  0  0  0
   17.9877  -11.2430  -17.7886 O   0  0  0  0  0  0  0  0  0  0  0  0
   20.2843  -11.4613  -17.5447 C   0  0  2  0  0  0  0  0  0  0  0  0
   19.8245  -12.7541  -16.9950 N   0  0  0  0  0  0  0  0  0  0  0  0
   20.6297  -10.6058  -16.4174 C   0  0  0  0  0  0  0  0  0  0  0  0
   19.8865  -10.7060  -15.3690 O   0  0  0  0  0  0  0  0  0  0  0  0
   21.7016   -9.6799  -16.3663 N   0  0  0  0  0  0  0  0  0  0  0  0
   22.0140   -8.9992  -15.1575 C   0  0  1  0  0  0  0  0  0  0  0  0
   23.5263   -9.0223  -14.8860 C   0  0  0  0  0  0  0  0  0  0  0  0
   23.9420  -10.7518  -14.5168 S   0  0  0  0  0  0  0  0  0  0  0  0
   21.5007   -7.6202  -15.0949 C   0  0  0  0  0  0  0  0  0  0  0  0
   21.3923   -6.9882  -13.8808 O   0  0  0  0  0  0  0  0  0  0  0  0
   21.1664   -7.0285  -16.1349 O   0  0  0  0  0  0  0  0  0  0  0  0
  2  1  1  1
  2  3  1  0
  4  2  1  0
  4  5  1  1
  6  4  1  0
  6 12  1  0
  7  6  2  0
  9  8  1  6
  9 11  1  0
 10  9  1  0
 11 12  1  1
 11 13  1  0
 13 15  1  0
 14 13  2  0
 15 16  1  0
 16 17  1  6
 17 18  1  0
 19 16  1  0
 19 20  1  0
 21 19  2  0
M  END
$$$$
