VTC.pdb
     RDKit          3D

 21 20  0  0  1  0  0  0  0  0999 V2000
   18.4354  -13.2170  -20.9217 C   0  0  0  0  0  0  0  0  0  0  0  0
   17.8288  -12.3442  -19.8684 C   0  0  2  0  0  0  0  0  0  0  0  0
   18.0722  -10.9044  -20.2514 C   0  0  0  0  0  0  0  0  0  0  0  0
   18.4242  -12.5655  -18.5034 C   0  0  2  0  0  0  0  0  0  0  0  0
   18.3235  -13.9099  -18.0420 N   0  0  0  0  0  0  0  0  0  0  0  0
   17.7875  -11.6149  -17.5567 C   0  0  0  0  0  0  0  0  0  0  0  0
   16.5760  -11.6682  -17.2452 O   0  0  0  0  0  0  0  0  0  0  0  0
   18.1068  -11.3001  -14.1865 C   0  0  0  0  0  0  0  0  0  0  0  0
   18.5598   -9.9469  -14.6847 C   0  0  1  0  0  0  0  0  0  0  0  0
   19.9570  -10.1021  -14.8962 O   0  0  0  0  0  0  0  0  0  0  0  0
   17.9888   -9.6422  -16.0347 C   0  0  2  0  0  0  0  0  0  0  0  0
   18.5862  -10.6060  -16.9829 N   0  0  0  0  0  0  0  0  0  0  0  0
   18.2247   -8.3058  -16.5641 C   0  0  0  0  0  0  0  0  0  0  0  0
   19.0637   -8.2117  -17.5382 O   0  0  0  0  0  0  0  0  0  0  0  0
   17.6201   -7.1066  -16.1110 N   0  0  0  0  0  0  0  0  0  0  0  0
   17.9683   -5.8557  -16.6907 C   0  0  1  0  0  0  0  0  0  0  0  0
   17.0188   -5.4989  -17.8450 C   0  0  0  0  0  0  0  0  0  0  0  0
   17.3971   -3.7790  -18.2907 S   0  0  0  0  0  0  0  0  0  0  0  0
   18.0440   -4.7465  -15.7248 C   0  0  0  0  0  0  0  0  0  0  0  0
   18.8331   -3.6569  -15.9992 O   0  0  0  0  0  0  0  0  0  0  0  0
   17.3974   -4.7937  -14.6650 O   0  0  0  0  0  0  0  0  0  0  0  0
  2  1  1  6
  2  3  1  0
  4  2  1  0
  4  5  1  1
  6  4  1  0
  6 12  1  0
  7  6  2  0
  9  8  1  6
  9 11  1  0
 10  9  1  0
 11 12  1  6
 11 13  1  0
 13 15  1  0
 14 13  2  0
 15 16  1  0
 16 17  1  6
 17 18  1  0
 19 16  1  0
 19 20  1  0
 21 19  2  0
M  END
$$$$
