VTC.pdb
     RDKit          3D

 21 20  0  0  1  0  0  0  0  0999 V2000
   18.1925  -15.8379  -17.9409 C   0  0  0  0  0  0  0  0  0  0  0  0
   18.7465  -14.7876  -17.0303 C   0  0  2  0  0  0  0  0  0  0  0  0
   18.5360  -13.4414  -17.6801 C   0  0  0  0  0  0  0  0  0  0  0  0
   20.2207  -14.9492  -16.7707 C   0  0  2  0  0  0  0  0  0  0  0  0
   20.5812  -16.2366  -16.2777 N   0  0  0  0  0  0  0  0  0  0  0  0
   20.6529  -13.8705  -15.8461 C   0  0  0  0  0  0  0  0  0  0  0  0
   20.3735  -13.8632  -14.6257 O   0  0  0  0  0  0  0  0  0  0  0  0
   24.0050  -13.0215  -15.0377 C   0  0  0  0  0  0  0  0  0  0  0  0
   23.4080  -11.7455  -15.5855 C   0  0  1  0  0  0  0  0  0  0  0  0
   23.6737  -11.8061  -16.9808 O   0  0  0  0  0  0  0  0  0  0  0  0
   21.9154  -11.7463  -15.4688 C   0  0  2  0  0  0  0  0  0  0  0  0
   21.4132  -12.8058  -16.3689 N   0  0  0  0  0  0  0  0  0  0  0  0
   21.2259  -10.5122  -15.8201 C   0  0  0  0  0  0  0  0  0  0  0  0
   20.3582  -10.5873  -16.7705 O   0  0  0  0  0  0  0  0  0  0  0  0
   21.4185   -9.2442  -15.2167 N   0  0  0  0  0  0  0  0  0  0  0  0
   20.6663   -8.1161  -15.6452 C   0  0  1  0  0  0  0  0  0  0  0  0
   19.1682   -8.3131  -15.3657 C   0  0  0  0  0  0  0  0  0  0  0  0
   18.3773   -6.7187  -15.7294 S   0  0  0  0  0  0  0  0  0  0  0  0
   21.1307   -6.8362  -15.0840 C   0  0  0  0  0  0  0  0  0  0  0  0
   20.7345   -5.6553  -15.6616 O   0  0  0  0  0  0  0  0  0  0  0  0
   21.8782   -6.8219  -14.0917 O   0  0  0  0  0  0  0  0  0  0  0  0
  2  1  1  6
  2  3  1  0
  4  2  1  0
  4  5  1  1
  6  4  1  0
  6 12  1  0
  7  6  2  0
  9  8  1  1
  9 11  1  0
 10  9  1  0
 11 12  1  6
 11 13  1  0
 13 15  1  0
 14 13  2  0
 15 16  1  0
 16 17  1  1
 17 18  1  0
 19 16  1  0
 19 20  1  0
 21 19  2  0
M  END
$$$$
