VTC.pdb
     RDKit          3D

 21 20  0  0  1  0  0  0  0  0999 V2000
   18.0746  -12.0978  -14.7990 C   0  0  0  0  0  0  0  0  0  0  0  0
   17.3438  -11.7054  -16.0444 C   0  0  2  0  0  0  0  0  0  0  0  0
   16.1547  -12.6221  -16.2020 C   0  0  0  0  0  0  0  0  0  0  0  0
   18.1866  -11.8254  -17.2862 C   0  0  2  0  0  0  0  0  0  0  0  0
   18.5235  -13.1675  -17.6265 N   0  0  0  0  0  0  0  0  0  0  0  0
   19.3994  -10.9867  -17.1102 C   0  0  0  0  0  0  0  0  0  0  0  0
   20.4981  -11.4459  -16.7236 O   0  0  0  0  0  0  0  0  0  0  0  0
   20.8952   -9.1097  -19.7701 C   0  0  0  0  0  0  0  0  0  0  0  0
   20.6462   -8.0993  -18.6739 C   0  0  1  0  0  0  0  0  0  0  0  0
   19.3528   -7.5835  -18.9612 O   0  0  0  0  0  0  0  0  0  0  0  0
   20.5174   -8.7627  -17.3380 C   0  0  2  0  0  0  0  0  0  0  0  0
   19.3071   -9.6094  -17.3919 N   0  0  0  0  0  0  0  0  0  0  0  0
   20.3886   -7.8905  -16.1784 C   0  0  0  0  0  0  0  0  0  0  0  0
   19.1906   -7.5598  -15.8363 O   0  0  0  0  0  0  0  0  0  0  0  0
   21.4519   -7.3757  -15.3953 N   0  0  0  0  0  0  0  0  0  0  0  0
   21.2020   -6.4187  -14.3736 C   0  0  1  0  0  0  0  0  0  0  0  0
   21.2239   -7.0757  -12.9847 C   0  0  0  0  0  0  0  0  0  0  0  0
   22.8184   -7.9377  -12.8640 S   0  0  0  0  0  0  0  0  0  0  0  0
   22.1040   -5.2551  -14.4070 C   0  0  0  0  0  0  0  0  0  0  0  0
   21.9027   -4.2119  -13.5373 O   0  0  0  0  0  0  0  0  0  0  0  0
   23.0444   -5.2146  -15.2179 O   0  0  0  0  0  0  0  0  0  0  0  0
  2  1  1  1
  2  3  1  0
  4  2  1  0
  4  5  1  1
  6  4  1  0
  6 12  1  0
  7  6  2  0
  9  8  1  6
  9 11  1  0
 10  9  1  0
 11 12  1  6
 11 13  1  0
 13 15  1  0
 14 13  2  0
 15 16  1  0
 16 17  1  1
 17 18  1  0
 19 16  1  0
 19 20  1  0
 21 19  2  0
M  END
$$$$
