VTC.pdb
     RDKit          3D

 21 20  0  0  1  0  0  0  0  0999 V2000
   16.4371  -16.5296  -17.6490 C   0  0  0  0  0  0  0  0  0  0  0  0
   17.0467  -15.4506  -16.8104 C   0  0  2  0  0  0  0  0  0  0  0  0
   16.4668  -14.1278  -17.2493 C   0  0  0  0  0  0  0  0  0  0  0  0
   18.5434  -15.3678  -16.9514 C   0  0  2  0  0  0  0  0  0  0  0  0
   19.2187  -16.5860  -16.6505 N   0  0  0  0  0  0  0  0  0  0  0  0
   19.0311  -14.2503  -16.1036 C   0  0  0  0  0  0  0  0  0  0  0  0
   19.1211  -14.3265  -14.8572 O   0  0  0  0  0  0  0  0  0  0  0  0
   22.2486  -12.8595  -15.9663 C   0  0  0  0  0  0  0  0  0  0  0  0
   21.3566  -11.7084  -16.3713 C   0  0  1  0  0  0  0  0  0  0  0  0
   21.3186  -11.7782  -17.7907 O   0  0  0  0  0  0  0  0  0  0  0  0
   19.9437  -11.9298  -15.9285 C   0  0  2  0  0  0  0  0  0  0  0  0
   19.4098  -13.0485  -16.7337 N   0  0  0  0  0  0  0  0  0  0  0  0
   19.0240  -10.8096  -16.0737 C   0  0  0  0  0  0  0  0  0  0  0  0
   18.3993  -10.7189  -17.1977 O   0  0  0  0  0  0  0  0  0  0  0  0
   18.7529   -9.8166  -15.0994 N   0  0  0  0  0  0  0  0  0  0  0  0
   17.9108   -8.7123  -15.4051 C   0  0  1  0  0  0  0  0  0  0  0  0
   16.7518   -8.6077  -14.4016 C   0  0  0  0  0  0  0  0  0  0  0  0
   15.9023   -7.0469  -14.7792 S   0  0  0  0  0  0  0  0  0  0  0  0
   18.6206   -7.4260  -15.5076 C   0  0  0  0  0  0  0  0  0  0  0  0
   18.2933   -6.5453  -16.5088 O   0  0  0  0  0  0  0  0  0  0  0  0
   19.5126   -7.1362  -14.6929 O   0  0  0  0  0  0  0  0  0  0  0  0
  2  1  1  6
  2  3  1  0
  4  2  1  0
  4  5  1  1
  6  4  1  0
  6 12  1  0
  7  6  2  0
  9  8  1  1
  9 11  1  0
 10  9  1  0
 11 12  1  6
 11 13  1  0
 13 15  1  0
 14 13  2  0
 15 16  1  0
 16 17  1  1
 17 18  1  0
 19 16  1  0
 19 20  1  0
 21 19  2  0
M  END
$$$$
