VTC.pdb
     RDKit          3D

 21 20  0  0  1  0  0  0  0  0999 V2000
   22.3877  -14.1424  -16.2645 C   0  0  0  0  0  0  0  0  0  0  0  0
   23.3771  -13.5601  -17.2243 C   0  0  2  0  0  0  0  0  0  0  0  0
   24.5398  -14.5159  -17.3407 C   0  0  0  0  0  0  0  0  0  0  0  0
   23.9181  -12.2276  -16.7788 C   0  0  2  0  0  0  0  0  0  0  0  0
   24.5277  -12.2546  -15.4911 N   0  0  0  0  0  0  0  0  0  0  0  0
   22.8173  -11.2327  -16.8402 C   0  0  0  0  0  0  0  0  0  0  0  0
   22.2006  -10.9594  -17.8950 O   0  0  0  0  0  0  0  0  0  0  0  0
   19.2388   -8.9969  -14.5382 C   0  0  0  0  0  0  0  0  0  0  0  0
   20.2683  -10.0685  -14.8148 C   0  0  1  0  0  0  0  0  0  0  0  0
   19.5781  -11.0173  -15.6176 O   0  0  0  0  0  0  0  0  0  0  0  0
   21.3757   -9.5522  -15.6801 C   0  0  2  0  0  0  0  0  0  0  0  0
   22.4511  -10.5659  -15.6544 N   0  0  0  0  0  0  0  0  0  0  0  0
   21.9687   -8.2769  -15.3010 C   0  0  0  0  0  0  0  0  0  0  0  0
   22.7313   -8.2823  -14.2617 O   0  0  0  0  0  0  0  0  0  0  0  0
   21.7871   -7.0382  -15.9655 N   0  0  0  0  0  0  0  0  0  0  0  0
   22.3420   -5.8421  -15.4330 C   0  0  1  0  0  0  0  0  0  0  0  0
   22.6571   -4.8349  -16.5499 C   0  0  0  0  0  0  0  0  0  0  0  0
   23.3024   -3.3533  -15.7201 S   0  0  0  0  0  0  0  0  0  0  0  0
   21.5179   -5.2112  -14.3881 C   0  0  0  0  0  0  0  0  0  0  0  0
   20.1832   -4.9850  -14.6172 O   0  0  0  0  0  0  0  0  0  0  0  0
   22.0258   -4.8836  -13.3026 O   0  0  0  0  0  0  0  0  0  0  0  0
  2  1  1  1
  2  3  1  0
  4  2  1  0
  4  5  1  1
  6  4  1  0
  6 12  1  0
  7  6  2  0
  9  8  1  6
  9 11  1  0
 10  9  1  0
 11 12  1  1
 11 13  1  0
 13 15  1  0
 14 13  2  0
 15 16  1  0
 16 17  1  6
 17 18  1  0
 19 16  1  0
 19 20  1  0
 21 19  2  0
M  END
$$$$
