VTC.pdb
     RDKit          3D

 21 20  0  0  1  0  0  0  0  0999 V2000
   26.3791  -16.0973  -16.4516 C   0  0  0  0  0  0  0  0  0  0  0  0
   25.8193  -16.8774  -15.3039 C   0  0  2  0  0  0  0  0  0  0  0  0
   26.6236  -16.5447  -14.0705 C   0  0  0  0  0  0  0  0  0  0  0  0
   25.8892  -18.3669  -15.5124 C   0  0  2  0  0  0  0  0  0  0  0  0
   25.3588  -18.7991  -16.7624 N   0  0  0  0  0  0  0  0  0  0  0  0
   25.2075  -19.0304  -14.3721 C   0  0  0  0  0  0  0  0  0  0  0  0
   23.9904  -18.8786  -14.1207 O   0  0  0  0  0  0  0  0  0  0  0  0
   24.4997  -22.2821  -14.1625 C   0  0  0  0  0  0  0  0  0  0  0  0
   25.3125  -22.0814  -12.9041 C   0  0  1  0  0  0  0  0  0  0  0  0
   26.6510  -22.3397  -13.3075 O   0  0  0  0  0  0  0  0  0  0  0  0
   25.3020  -20.6488  -12.4694 C   0  0  2  0  0  0  0  0  0  0  0  0
   25.9681  -19.8702  -13.5347 N   0  0  0  0  0  0  0  0  0  0  0  0
   25.9732  -20.3354  -11.2151 C   0  0  0  0  0  0  0  0  0  0  0  0
   27.2244  -20.0344  -11.2906 O   0  0  0  0  0  0  0  0  0  0  0  0
   25.3815  -20.3297   -9.9272 N   0  0  0  0  0  0  0  0  0  0  0  0
   26.1899  -20.2730   -8.7587 C   0  0  1  0  0  0  0  0  0  0  0  0
   26.7003  -18.8452   -8.5094 C   0  0  0  0  0  0  0  0  0  0  0  0
   27.5763  -18.8975   -6.9188 S   0  0  0  0  0  0  0  0  0  0  0  0
   25.5370  -20.8045   -7.5504 C   0  0  0  0  0  0  0  0  0  0  0  0
   26.2430  -20.8890   -6.3758 O   0  0  0  0  0  0  0  0  0  0  0  0
   24.3521  -21.1759   -7.5906 O   0  0  0  0  0  0  0  0  0  0  0  0
  2  1  1  6
  2  3  1  0
  4  2  1  0
  4  5  1  6
  6  4  1  0
  6 12  1  0
  7  6  2  0
  9  8  1  6
  9 11  1  0
 10  9  1  0
 11 12  1  6
 11 13  1  0
 13 15  1  0
 14 13  2  0
 15 16  1  0
 16 17  1  1
 17 18  1  0
 19 16  1  0
 19 20  1  0
 21 19  2  0
M  END
$$$$
