VTC.pdb
     RDKit          3D

 21 20  0  0  1  0  0  0  0  0999 V2000
   18.0864  -12.1403  -15.2752 C   0  0  0  0  0  0  0  0  0  0  0  0
   18.2466  -12.1422  -16.7630 C   0  0  2  0  0  0  0  0  0  0  0  0
   17.1176  -12.9485  -17.3579 C   0  0  0  0  0  0  0  0  0  0  0  0
   19.5430  -12.7592  -17.2164 C   0  0  2  0  0  0  0  0  0  0  0  0
   19.6609  -14.1451  -16.9066 N   0  0  0  0  0  0  0  0  0  0  0  0
   20.6619  -11.9737  -16.6365 C   0  0  0  0  0  0  0  0  0  0  0  0
   21.2933  -12.3331  -15.6168 O   0  0  0  0  0  0  0  0  0  0  0  0
   23.6981  -11.2068  -18.3039 C   0  0  0  0  0  0  0  0  0  0  0  0
   23.1517   -9.8604  -17.8877 C   0  0  1  0  0  0  0  0  0  0  0  0
   22.3750   -9.4390  -19.0014 O   0  0  0  0  0  0  0  0  0  0  0  0
   22.1794   -9.9910  -16.7567 C   0  0  2  0  0  0  0  0  0  0  0  0
   21.0288  -10.7673  -17.2649 N   0  0  0  0  0  0  0  0  0  0  0  0
   21.6563   -8.7549  -16.1909 C   0  0  0  0  0  0  0  0  0  0  0  0
   20.4086   -8.5080  -16.4004 O   0  0  0  0  0  0  0  0  0  0  0  0
   22.3872   -7.8046  -15.4349 N   0  0  0  0  0  0  0  0  0  0  0  0
   21.7854   -6.5803  -15.0336 C   0  0  1  0  0  0  0  0  0  0  0  0
   21.5624   -6.5471  -13.5136 C   0  0  0  0  0  0  0  0  0  0  0  0
   20.8965   -4.8985  -13.1414 S   0  0  0  0  0  0  0  0  0  0  0  0
   22.5162   -5.3796  -15.4730 C   0  0  0  0  0  0  0  0  0  0  0  0
   21.8452   -4.1913  -15.6248 O   0  0  0  0  0  0  0  0  0  0  0  0
   23.7351   -5.4385  -15.7062 O   0  0  0  0  0  0  0  0  0  0  0  0
  2  1  1  1
  2  3  1  0
  4  2  1  0
  4  5  1  1
  6  4  1  0
  6 12  1  0
  7  6  2  0
  9  8  1  6
  9 11  1  0
 10  9  1  0
 11 12  1  6
 11 13  1  0
 13 15  1  0
 14 13  2  0
 15 16  1  0
 16 17  1  1
 17 18  1  0
 19 16  1  0
 19 20  1  0
 21 19  2  0
M  END
$$$$
