VTC.pdb
     RDKit          3D

 21 20  0  0  1  0  0  0  0  0999 V2000
   16.4763  -10.0189  -14.6152 C   0  0  0  0  0  0  0  0  0  0  0  0
   16.6825  -10.3004  -16.0703 C   0  0  2  0  0  0  0  0  0  0  0  0
   15.3901  -10.8395  -16.6340 C   0  0  0  0  0  0  0  0  0  0  0  0
   17.7593  -11.3208  -16.3274 C   0  0  2  0  0  0  0  0  0  0  0  0
   17.4593  -12.6164  -15.8157 N   0  0  0  0  0  0  0  0  0  0  0  0
   19.0368  -10.7999  -15.7782 C   0  0  0  0  0  0  0  0  0  0  0  0
   19.5163  -11.1785  -14.6853 O   0  0  0  0  0  0  0  0  0  0  0  0
   22.1864  -11.0834  -17.5590 C   0  0  0  0  0  0  0  0  0  0  0  0
   22.0077   -9.6140  -17.2532 C   0  0  1  0  0  0  0  0  0  0  0  0
   21.3061   -9.1053  -18.3802 O   0  0  0  0  0  0  0  0  0  0  0  0
   21.0880   -9.4057  -16.0903 C   0  0  2  0  0  0  0  0  0  0  0  0
   19.7413   -9.8340  -16.5237 N   0  0  0  0  0  0  0  0  0  0  0  0
   20.9702   -8.0472  -15.5780 C   0  0  0  0  0  0  0  0  0  0  0  0
   19.9444   -7.3711  -15.9682 O   0  0  0  0  0  0  0  0  0  0  0  0
   21.8728   -7.4039  -14.6946 N   0  0  0  0  0  0  0  0  0  0  0  0
   21.7183   -6.0265  -14.3772 C   0  0  1  0  0  0  0  0  0  0  0  0
   22.1536   -5.7410  -12.9314 C   0  0  0  0  0  0  0  0  0  0  0  0
   21.9226   -3.9565  -12.6824 S   0  0  0  0  0  0  0  0  0  0  0  0
   22.4018   -5.1149  -15.3102 C   0  0  0  0  0  0  0  0  0  0  0  0
   21.8328   -3.9041  -15.6193 O   0  0  0  0  0  0  0  0  0  0  0  0
   23.4893   -5.4373  -15.8172 O   0  0  0  0  0  0  0  0  0  0  0  0
  2  1  1  1
  2  3  1  0
  4  2  1  0
  4  5  1  1
  6  4  1  0
  6 12  1  0
  7  6  2  0
  9  8  1  6
  9 11  1  0
 10  9  1  0
 11 12  1  6
 11 13  1  0
 13 15  1  0
 14 13  2  0
 15 16  1  0
 16 17  1  1
 17 18  1  0
 19 16  1  0
 19 20  1  0
 21 19  2  0
M  END
$$$$
