VTC.pdb
     RDKit          3D

 21 20  0  0  1  0  0  0  0  0999 V2000
   16.2630  -12.2834  -17.0494 C   0  0  0  0  0  0  0  0  0  0  0  0
   17.6971  -12.6765  -16.8827 C   0  0  2  0  0  0  0  0  0  0  0  0
   17.7430  -14.1248  -16.4597 C   0  0  0  0  0  0  0  0  0  0  0  0
   18.4133  -11.8668  -15.8347 C   0  0  2  0  0  0  0  0  0  0  0  0
   17.7268  -11.8024  -14.5876 N   0  0  0  0  0  0  0  0  0  0  0  0
   18.6704  -10.5122  -16.3862 C   0  0  0  0  0  0  0  0  0  0  0  0
   19.3117  -10.3146  -17.4432 O   0  0  0  0  0  0  0  0  0  0  0  0
   16.3889   -8.2242  -17.7394 C   0  0  0  0  0  0  0  0  0  0  0  0
   16.9944   -7.5053  -16.5557 C   0  0  1  0  0  0  0  0  0  0  0  0
   16.1736   -7.8851  -15.4588 O   0  0  0  0  0  0  0  0  0  0  0  0
   18.3558   -8.0372  -16.2312 C   0  0  2  0  0  0  0  0  0  0  0  0
   18.1680   -9.3980  -15.6853 N   0  0  0  0  0  0  0  0  0  0  0  0
   19.1448   -7.2845  -15.2654 C   0  0  0  0  0  0  0  0  0  0  0  0
   19.0203   -7.6258  -14.0286 O   0  0  0  0  0  0  0  0  0  0  0  0
   20.0323   -6.2188  -15.5577 N   0  0  0  0  0  0  0  0  0  0  0  0
   20.7021   -5.5262  -14.5119 C   0  0  1  0  0  0  0  0  0  0  0  0
   22.1184   -6.0833  -14.2997 C   0  0  0  0  0  0  0  0  0  0  0  0
   22.8766   -5.0467  -13.0149 S   0  0  0  0  0  0  0  0  0  0  0  0
   20.7452   -4.0650  -14.6906 C   0  0  0  0  0  0  0  0  0  0  0  0
   20.6258   -3.2414  -13.5985 O   0  0  0  0  0  0  0  0  0  0  0  0
   20.8888   -3.5765  -15.8238 O   0  0  0  0  0  0  0  0  0  0  0  0
  2  1  1  1
  2  3  1  0
  4  2  1  0
  4  5  1  1
  6  4  1  0
  6 12  1  0
  7  6  2  0
  9  8  1  6
  9 11  1  0
 10  9  1  0
 11 12  1  1
 11 13  1  0
 13 15  1  0
 14 13  2  0
 15 16  1  0
 16 17  1  6
 17 18  1  0
 19 16  1  0
 19 20  1  0
 21 19  2  0
M  END
$$$$
