VTC.pdb
     RDKit          3D

 21 20  0  0  1  0  0  0  0  0999 V2000
   15.7502  -11.8981  -15.8166 C   0  0  0  0  0  0  0  0  0  0  0  0
   17.1422  -11.4679  -15.4755 C   0  0  2  0  0  0  0  0  0  0  0  0
   17.1544   -9.9632  -15.3541 C   0  0  0  0  0  0  0  0  0  0  0  0
   18.1529  -11.8545  -16.5223 C   0  0  2  0  0  0  0  0  0  0  0  0
   18.2189  -13.2562  -16.7696 N   0  0  0  0  0  0  0  0  0  0  0  0
   19.4741  -11.3091  -16.1195 C   0  0  0  0  0  0  0  0  0  0  0  0
   20.2450  -11.8986  -15.3284 O   0  0  0  0  0  0  0  0  0  0  0  0
   22.3180  -11.0463  -17.9941 C   0  0  0  0  0  0  0  0  0  0  0  0
   22.0185   -9.6138  -17.6159 C   0  0  1  0  0  0  0  0  0  0  0  0
   21.1404   -9.1589  -18.6372 O   0  0  0  0  0  0  0  0  0  0  0  0
   21.2227   -9.5377  -16.3500 C   0  0  2  0  0  0  0  0  0  0  0  0
   19.8775  -10.0694  -16.6539 N   0  0  0  0  0  0  0  0  0  0  0  0
   21.0472   -8.2175  -15.7599 C   0  0  0  0  0  0  0  0  0  0  0  0
   20.0037   -7.5560  -16.1278 O   0  0  0  0  0  0  0  0  0  0  0  0
   21.9115   -7.5970  -14.8236 N   0  0  0  0  0  0  0  0  0  0  0  0
   21.6945   -6.2513  -14.4185 C   0  0  1  0  0  0  0  0  0  0  0  0
   22.0694   -6.0522  -12.9416 C   0  0  0  0  0  0  0  0  0  0  0  0
   21.8955   -4.2734  -12.6166 S   0  0  0  0  0  0  0  0  0  0  0  0
   22.3747   -5.2533  -15.2613 C   0  0  0  0  0  0  0  0  0  0  0  0
   21.7797   -4.0377  -15.4925 O   0  0  0  0  0  0  0  0  0  0  0  0
   23.4828   -5.5075  -15.7624 O   0  0  0  0  0  0  0  0  0  0  0  0
  2  1  1  6
  2  3  1  0
  4  2  1  0
  4  5  1  1
  6  4  1  0
  6 12  1  0
  7  6  2  0
  9  8  1  6
  9 11  1  0
 10  9  1  0
 11 12  1  6
 11 13  1  0
 13 15  1  0
 14 13  2  0
 15 16  1  0
 16 17  1  1
 17 18  1  0
 19 16  1  0
 19 20  1  0
 21 19  2  0
M  END
$$$$
