VTC.pdb
     RDKit          3D

 21 20  0  0  1  0  0  0  0  0999 V2000
   16.6236  -13.7791  -15.8106 C   0  0  0  0  0  0  0  0  0  0  0  0
   16.7780  -13.4901  -17.2706 C   0  0  2  0  0  0  0  0  0  0  0  0
   15.6747  -14.2054  -18.0122 C   0  0  0  0  0  0  0  0  0  0  0  0
   18.0929  -13.9640  -17.8305 C   0  0  2  0  0  0  0  0  0  0  0  0
   18.2778  -15.3747  -17.7515 N   0  0  0  0  0  0  0  0  0  0  0  0
   19.1851  -13.2314  -17.1408 C   0  0  0  0  0  0  0  0  0  0  0  0
   19.9067  -13.7509  -16.2593 O   0  0  0  0  0  0  0  0  0  0  0  0
   22.1437  -12.2908  -18.4007 C   0  0  0  0  0  0  0  0  0  0  0  0
   21.5774  -10.9645  -17.9482 C   0  0  1  0  0  0  0  0  0  0  0  0
   20.8673  -10.4826  -19.0817 O   0  0  0  0  0  0  0  0  0  0  0  0
   20.5411  -11.1474  -16.8833 C   0  0  2  0  0  0  0  0  0  0  0  0
   19.4188  -11.8884  -17.4966 N   0  0  0  0  0  0  0  0  0  0  0  0
   19.9908   -9.9389  -16.2843 C   0  0  0  0  0  0  0  0  0  0  0  0
   18.8977   -9.4877  -16.7976 O   0  0  0  0  0  0  0  0  0  0  0  0
   20.5416   -9.2181  -15.1954 N   0  0  0  0  0  0  0  0  0  0  0  0
   19.9075   -8.0414  -14.7105 C   0  0  1  0  0  0  0  0  0  0  0  0
   20.1542   -7.8620  -13.2044 C   0  0  0  0  0  0  0  0  0  0  0  0
   19.3740   -9.2895  -12.3961 S   0  0  0  0  0  0  0  0  0  0  0  0
   20.2743   -6.8167  -15.4417 C   0  0  0  0  0  0  0  0  0  0  0  0
   19.5802   -5.6540  -15.2146 O   0  0  0  0  0  0  0  0  0  0  0  0
   21.2078   -6.8325  -16.2614 O   0  0  0  0  0  0  0  0  0  0  0  0
  2  1  1  1
  2  3  1  0
  4  2  1  0
  4  5  1  1
  6  4  1  0
  6 12  1  0
  7  6  2  0
  9  8  1  6
  9 11  1  0
 10  9  1  0
 11 12  1  6
 11 13  1  0
 13 15  1  0
 14 13  2  0
 15 16  1  0
 16 17  1  1
 17 18  1  0
 19 16  1  0
 19 20  1  0
 21 19  2  0
M  END
$$$$
