VTC.pdb
     RDKit          3D

 21 20  0  0  1  0  0  0  0  0999 V2000
   17.8544  -12.3353  -17.9250 C   0  0  0  0  0  0  0  0  0  0  0  0
   18.4494  -12.8487  -16.6516 C   0  0  2  0  0  0  0  0  0  0  0  0
   17.6162  -14.0152  -16.1784 C   0  0  0  0  0  0  0  0  0  0  0  0
   18.4694  -11.8201  -15.5524 C   0  0  2  0  0  0  0  0  0  0  0  0
   17.1859  -11.2859  -15.2397 N   0  0  0  0  0  0  0  0  0  0  0  0
   19.4276  -10.7506  -15.9312 C   0  0  0  0  0  0  0  0  0  0  0  0
   20.6448  -10.9632  -16.1332 O   0  0  0  0  0  0  0  0  0  0  0  0
   19.8477   -9.1080  -18.8976 C   0  0  0  0  0  0  0  0  0  0  0  0
   19.4451   -8.0196  -17.9292 C   0  0  1  0  0  0  0  0  0  0  0  0
   18.0239   -8.0583  -17.9311 O   0  0  0  0  0  0  0  0  0  0  0  0
   19.8461   -8.3595  -16.5274 C   0  0  2  0  0  0  0  0  0  0  0  0
   18.9420   -9.4353  -16.0692 N   0  0  0  0  0  0  0  0  0  0  0  0
   19.7811   -7.2864  -15.5444 C   0  0  0  0  0  0  0  0  0  0  0  0
   18.7375   -7.2602  -14.7881 O   0  0  0  0  0  0  0  0  0  0  0  0
   20.7535   -6.2751  -15.3428 N   0  0  0  0  0  0  0  0  0  0  0  0
   20.5290   -5.2310  -14.4040 C   0  0  1  0  0  0  0  0  0  0  0  0
   21.2309   -5.5282  -13.0697 C   0  0  0  0  0  0  0  0  0  0  0  0
   23.0118   -5.3844  -13.3982 S   0  0  0  0  0  0  0  0  0  0  0  0
   20.9001   -3.8927  -14.8940 C   0  0  0  0  0  0  0  0  0  0  0  0
   20.6077   -2.7850  -14.1373 O   0  0  0  0  0  0  0  0  0  0  0  0
   21.4755   -3.7634  -15.9875 O   0  0  0  0  0  0  0  0  0  0  0  0
  2  1  1  6
  2  3  1  0
  4  2  1  0
  4  5  1  6
  6  4  1  0
  6 12  1  0
  7  6  2  0
  9  8  1  6
  9 11  1  0
 10  9  1  0
 11 12  1  1
 11 13  1  0
 13 15  1  0
 14 13  2  0
 15 16  1  0
 16 17  1  1
 17 18  1  0
 19 16  1  0
 19 20  1  0
 21 19  2  0
M  END
$$$$
