KVK.pdb
     RDKit          3D

 26 25  0  0  1  0  0  0  0  0999 V2000
   22.7222  -20.5493   -9.1453 N   0  0  0  0  0  0  0  0  0  0  0  0
   22.7120  -21.1329  -10.4473 C   0  0  1  0  0  0  0  0  0  0  0  0
   21.3861  -21.2164  -11.1270 C   0  0  0  0  0  0  0  0  0  0  0  0
   20.4035  -22.0687  -10.4190 C   0  0  0  0  0  0  0  0  0  0  0  0
   19.0547  -22.2239  -10.9959 C   0  0  0  0  0  0  0  0  0  0  0  0
   18.5629  -23.6345  -10.9951 C   0  0  0  0  0  0  0  0  0  0  0  0
   19.4820  -24.6054  -11.4899 N   0  0  0  0  0  0  0  0  0  0  0  0
   23.6194  -20.3597  -11.3665 C   0  0  0  0  0  0  0  0  0  0  0  0
   23.4659  -19.1074  -11.3907 O   0  0  0  0  0  0  0  0  0  0  0  0
   27.2354  -21.9909  -13.0092 C   0  0  0  0  0  0  0  0  0  0  0  0
   26.9270  -20.5427  -12.7495 C   0  0  1  0  0  0  0  0  0  0  0  0
   27.8370  -19.7084  -13.6245 C   0  0  0  0  0  0  0  0  0  0  0  0
   25.4565  -20.2232  -12.9910 C   0  0  2  0  0  0  0  0  0  0  0  0
   24.6038  -21.0073  -12.1695 N   0  0  0  0  0  0  0  0  0  0  0  0
   25.1991  -20.3669  -14.4394 C   0  0  0  0  0  0  0  0  0  0  0  0
   25.0585  -21.5579  -14.8678 O   0  0  0  0  0  0  0  0  0  0  0  0
   25.1019  -19.2923  -15.3559 N   0  0  0  0  0  0  0  0  0  0  0  0
   24.7835  -19.5069  -16.7471 C   0  0  1  0  0  0  0  0  0  0  0  0
   24.1133  -18.2837  -17.3319 C   0  0  0  0  0  0  0  0  0  0  0  0
   23.6425  -18.4675  -18.7339 C   0  0  0  0  0  0  0  0  0  0  0  0
   23.0430  -17.2214  -19.3463 C   0  0  0  0  0  0  0  0  0  0  0  0
   22.6070  -17.5113  -20.7486 C   0  0  0  0  0  0  0  0  0  0  0  0
   22.0404  -16.3121  -21.3651 N   0  0  0  0  0  0  0  0  0  0  0  0
   26.0029  -19.8936  -17.4942 C   0  0  0  0  0  0  0  0  0  0  0  0
   25.9426  -20.9723  -18.3542 O   0  0  0  0  0  0  0  0  0  0  0  0
   27.0992  -19.2931  -17.3911 O   0  0  0  0  0  0  0  0  0  0  0  0
  2  1  1  1
  3  2  1  0
  4  3  1  0
  4  5  1  0
  6  5  1  0
  6  7  1  0
  8  9  2  0
  8  2  1  0
 11 10  1  6
 11 13  1  0
 12 11  1  0
 13 14  1  1
 14  8  1  0
 15 17  1  0
 15 13  1  0
 16 15  2  0
 18 17  1  0
 18 24  1  0
 18 19  1  6
 20 21  1  0
 20 19  1  0
 21 22  1  0
 23 22  1  0
 24 25  1  0
 26 24  2  0
M  END
$$$$
