KVK.pdb
     RDKit          3D

 26 25  0  0  1  0  0  0  0  0999 V2000
   24.7098  -16.3351  -17.1179 N   0  0  0  0  0  0  0  0  0  0  0  0
   25.0604  -15.1604  -17.8478 C   0  0  1  0  0  0  0  0  0  0  0  0
   24.3593  -14.9532  -19.1487 C   0  0  0  0  0  0  0  0  0  0  0  0
   24.6950  -15.9646  -20.1771 C   0  0  0  0  0  0  0  0  0  0  0  0
   24.5079  -17.3919  -19.8548 C   0  0  0  0  0  0  0  0  0  0  0  0
   24.7617  -18.3039  -21.0104 C   0  0  0  0  0  0  0  0  0  0  0  0
   23.8572  -18.1750  -22.1045 N   0  0  0  0  0  0  0  0  0  0  0  0
   24.7927  -13.9358  -17.0143 C   0  0  0  0  0  0  0  0  0  0  0  0
   23.6851  -13.8934  -16.4111 O   0  0  0  0  0  0  0  0  0  0  0  0
   27.7137  -10.7745  -16.5297 C   0  0  0  0  0  0  0  0  0  0  0  0
   26.7405  -11.1873  -15.4609 C   0  0  1  0  0  0  0  0  0  0  0  0
   26.4543   -9.9772  -14.5987 C   0  0  0  0  0  0  0  0  0  0  0  0
   25.4661  -11.7790  -16.0513 C   0  0  2  0  0  0  0  0  0  0  0  0
   25.7415  -12.8765  -16.9094 N   0  0  0  0  0  0  0  0  0  0  0  0
   24.7197  -10.6792  -16.6979 C   0  0  0  0  0  0  0  0  0  0  0  0
   25.0321  -10.4248  -17.9060 O   0  0  0  0  0  0  0  0  0  0  0  0
   23.7065   -9.9113  -16.0750 N   0  0  0  0  0  0  0  0  0  0  0  0
   23.0492   -8.8235  -16.7588 C   0  0  1  0  0  0  0  0  0  0  0  0
   21.7818   -9.3071  -17.4277 C   0  0  0  0  0  0  0  0  0  0  0  0
   21.0160   -8.2302  -18.1168 C   0  0  0  0  0  0  0  0  0  0  0  0
   19.7927   -8.7257  -18.8551 C   0  0  0  0  0  0  0  0  0  0  0  0
   19.2132   -7.6122  -19.6703 C   0  0  0  0  0  0  0  0  0  0  0  0
   18.0200   -8.0685  -20.3825 N   0  0  0  0  0  0  0  0  0  0  0  0
   22.7997   -7.7074  -15.8172 C   0  0  0  0  0  0  0  0  0  0  0  0
   22.7040   -6.4236  -16.3170 O   0  0  0  0  0  0  0  0  0  0  0  0
   22.6686   -7.8604  -14.5793 O   0  0  0  0  0  0  0  0  0  0  0  0
  2  1  1  1
  3  2  1  0
  4  3  1  0
  4  5  1  0
  6  5  1  0
  6  7  1  0
  8  9  2  0
  8  2  1  0
 11 10  1  6
 11 13  1  0
 12 11  1  0
 13 14  1  6
 14  8  1  0
 15 17  1  0
 15 13  1  0
 16 15  2  0
 18 17  1  0
 18 24  1  0
 18 19  1  1
 20 21  1  0
 20 19  1  0
 21 22  1  0
 23 22  1  0
 24 25  1  0
 26 24  2  0
M  END
$$$$
