KVK.pdb
     RDKit          3D

 26 25  0  0  1  0  0  0  0  0999 V2000
   28.0802  -20.6133  -16.3211 N   0  0  0  0  0  0  0  0  0  0  0  0
   27.5682  -21.9407  -16.4300 C   0  0  1  0  0  0  0  0  0  0  0  0
   28.5770  -23.0392  -16.4811 C   0  0  0  0  0  0  0  0  0  0  0  0
   29.4713  -22.9759  -17.6598 C   0  0  0  0  0  0  0  0  0  0  0  0
   30.2377  -21.7390  -17.9021 C   0  0  0  0  0  0  0  0  0  0  0  0
   30.9803  -21.7400  -19.1983 C   0  0  0  0  0  0  0  0  0  0  0  0
   30.2109  -21.3930  -20.3470 N   0  0  0  0  0  0  0  0  0  0  0  0
   26.6623  -22.2415  -15.2660 C   0  0  0  0  0  0  0  0  0  0  0  0
   26.1537  -23.3959  -15.2289 O   0  0  0  0  0  0  0  0  0  0  0  0
   26.3609  -19.6949  -11.8164 C   0  0  0  0  0  0  0  0  0  0  0  0
   26.0383  -21.1628  -11.8441 C   0  0  1  0  0  0  0  0  0  0  0  0
   25.0563  -21.4452  -10.7280 C   0  0  0  0  0  0  0  0  0  0  0  0
   25.4983  -21.6000  -13.2006 C   0  0  2  0  0  0  0  0  0  0  0  0
   26.3916  -21.2731  -14.2550 N   0  0  0  0  0  0  0  0  0  0  0  0
   24.1470  -21.0207  -13.3524 C   0  0  0  0  0  0  0  0  0  0  0  0
   24.0948  -19.7614  -13.5345 O   0  0  0  0  0  0  0  0  0  0  0  0
   22.9394  -21.7582  -13.3089 N   0  0  0  0  0  0  0  0  0  0  0  0
   21.6610  -21.1380  -13.5621 C   0  0  1  0  0  0  0  0  0  0  0  0
   20.8121  -22.0184  -14.4520 C   0  0  0  0  0  0  0  0  0  0  0  0
   19.5070  -21.4086  -14.8335 C   0  0  0  0  0  0  0  0  0  0  0  0
   18.5772  -22.3563  -15.5577 C   0  0  0  0  0  0  0  0  0  0  0  0
   17.3873  -21.6028  -16.0644 C   0  0  0  0  0  0  0  0  0  0  0  0
   16.4701  -22.5050  -16.7600 N   0  0  0  0  0  0  0  0  0  0  0  0
   20.9895  -20.8154  -12.2816 C   0  0  0  0  0  0  0  0  0  0  0  0
   21.0986  -21.7041  -11.2303 O   0  0  0  0  0  0  0  0  0  0  0  0
   20.3203  -19.7716  -12.0931 O   0  0  0  0  0  0  0  0  0  0  0  0
  2  1  1  1
  3  2  1  0
  4  3  1  0
  4  5  1  0
  6  5  1  0
  6  7  1  0
  8  9  2  0
  8  2  1  0
 11 10  1  6
 11 13  1  0
 12 11  1  0
 13 14  1  6
 14  8  1  0
 15 17  1  0
 15 13  1  0
 16 15  2  0
 18 17  1  0
 18 24  1  0
 18 19  1  6
 20 21  1  0
 20 19  1  0
 21 22  1  0
 23 22  1  0
 24 25  1  0
 26 24  2  0
M  END
$$$$
