KVK.pdb
     RDKit          3D

 26 25  0  0  1  0  0  0  0  0999 V2000
   23.8807  -18.7900  -14.6368 N   0  0  0  0  0  0  0  0  0  0  0  0
   22.6709  -19.4793  -14.9484 C   0  0  1  0  0  0  0  0  0  0  0  0
   22.6169  -20.1585  -16.2761 C   0  0  0  0  0  0  0  0  0  0  0  0
   22.1825  -19.2753  -17.3827 C   0  0  0  0  0  0  0  0  0  0  0  0
   22.6822  -17.8879  -17.4197 C   0  0  0  0  0  0  0  0  0  0  0  0
   22.1310  -17.0840  -18.5518 C   0  0  0  0  0  0  0  0  0  0  0  0
   22.5631  -15.7268  -18.6086 N   0  0  0  0  0  0  0  0  0  0  0  0
   22.3977  -20.5365  -13.9122 C   0  0  0  0  0  0  0  0  0  0  0  0
   22.4205  -21.7348  -14.3074 O   0  0  0  0  0  0  0  0  0  0  0  0
   24.0792  -20.8634  -10.3785 C   0  0  0  0  0  0  0  0  0  0  0  0
   22.5815  -20.9293  -10.2683 C   0  0  1  0  0  0  0  0  0  0  0  0
   22.0977  -19.6129   -9.7001 C   0  0  0  0  0  0  0  0  0  0  0  0
   21.9270  -21.2450  -11.6080 C   0  0  2  0  0  0  0  0  0  0  0  0
   22.1276  -20.2034  -12.5523 N   0  0  0  0  0  0  0  0  0  0  0  0
   20.5064  -21.5601  -11.3491 C   0  0  0  0  0  0  0  0  0  0  0  0
   19.6612  -20.6835  -11.7220 O   0  0  0  0  0  0  0  0  0  0  0  0
   20.0387  -22.7437  -10.7287 N   0  0  0  0  0  0  0  0  0  0  0  0
   18.6430  -22.9372  -10.4165 C   0  0  1  0  0  0  0  0  0  0  0  0
   18.3930  -24.3594   -9.9669 C   0  0  0  0  0  0  0  0  0  0  0  0
   16.9738  -24.6363   -9.6063 C   0  0  0  0  0  0  0  0  0  0  0  0
   16.7128  -26.0712   -9.2062 C   0  0  0  0  0  0  0  0  0  0  0  0
   15.2665  -26.2406   -8.8602 C   0  0  0  0  0  0  0  0  0  0  0  0
   14.9759  -27.6408   -8.5527 N   0  0  0  0  0  0  0  0  0  0  0  0
   18.2041  -21.9420   -9.4106 C   0  0  0  0  0  0  0  0  0  0  0  0
   16.9394  -21.3984   -9.5200 O   0  0  0  0  0  0  0  0  0  0  0  0
   18.9204  -21.5595   -8.4548 O   0  0  0  0  0  0  0  0  0  0  0  0
  2  1  1  1
  3  2  1  0
  4  3  1  0
  4  5  1  0
  6  5  1  0
  6  7  1  0
  8  9  2  0
  8  2  1  0
 11 10  1  6
 11 13  1  0
 12 11  1  0
 13 14  1  6
 14  8  1  0
 15 17  1  0
 15 13  1  0
 16 15  2  0
 18 17  1  0
 18 24  1  0
 18 19  1  1
 20 21  1  0
 20 19  1  0
 21 22  1  0
 23 22  1  0
 24 25  1  0
 26 24  2  0
M  END
$$$$
