KVK.pdb
     RDKit          3D

 26 25  0  0  1  0  0  0  0  0999 V2000
   21.8665  -20.3185  -14.2109 N   0  0  0  0  0  0  0  0  0  0  0  0
   22.1913  -19.6827  -15.4463 C   0  0  1  0  0  0  0  0  0  0  0  0
   21.0915  -19.5813  -16.4499 C   0  0  0  0  0  0  0  0  0  0  0  0
   20.4728  -20.8823  -16.7931 C   0  0  0  0  0  0  0  0  0  0  0  0
   20.2345  -21.2008  -18.2136 C   0  0  0  0  0  0  0  0  0  0  0  0
   19.4755  -22.4704  -18.4224 C   0  0  0  0  0  0  0  0  0  0  0  0
   19.2364  -22.8263  -19.7819 N   0  0  0  0  0  0  0  0  0  0  0  0
   22.6744  -18.2797  -15.1934 C   0  0  0  0  0  0  0  0  0  0  0  0
   22.0680  -17.6251  -14.3010 O   0  0  0  0  0  0  0  0  0  0  0  0
   26.2409  -14.9264  -15.4379 C   0  0  0  0  0  0  0  0  0  0  0  0
   25.7518  -16.3311  -15.6552 C   0  0  1  0  0  0  0  0  0  0  0  0
   26.4198  -17.2210  -14.6298 C   0  0  0  0  0  0  0  0  0  0  0  0
   24.2321  -16.4209  -15.5819 C   0  0  2  0  0  0  0  0  0  0  0  0
   23.7625  -17.7169  -15.9231 N   0  0  0  0  0  0  0  0  0  0  0  0
   23.6786  -15.3375  -16.4213 C   0  0  0  0  0  0  0  0  0  0  0  0
   23.7367  -15.5193  -17.6804 O   0  0  0  0  0  0  0  0  0  0  0  0
   23.1036  -14.1421  -15.9266 N   0  0  0  0  0  0  0  0  0  0  0  0
   22.4982  -13.1701  -16.8050 C   0  0  1  0  0  0  0  0  0  0  0  0
   21.4455  -12.3729  -16.0678 C   0  0  0  0  0  0  0  0  0  0  0  0
   20.7509  -11.3634  -16.9159 C   0  0  0  0  0  0  0  0  0  0  0  0
   19.7295  -10.5352  -16.1689 C   0  0  0  0  0  0  0  0  0  0  0  0
   18.9766   -9.6754  -17.1355 C   0  0  0  0  0  0  0  0  0  0  0  0
   18.1368   -8.7163  -16.4185 N   0  0  0  0  0  0  0  0  0  0  0  0
   23.5421  -12.3071  -17.4053 C   0  0  0  0  0  0  0  0  0  0  0  0
   23.3671  -11.8511  -18.6969 O   0  0  0  0  0  0  0  0  0  0  0  0
   24.5870  -11.9619  -16.8036 O   0  0  0  0  0  0  0  0  0  0  0  0
  2  1  1  1
  3  2  1  0
  4  3  1  0
  4  5  1  0
  6  5  1  0
  6  7  1  0
  8  9  2  0
  8  2  1  0
 11 10  1  1
 11 13  1  0
 12 11  1  0
 13 14  1  6
 14  8  1  0
 15 17  1  0
 15 13  1  0
 16 15  2  0
 18 17  1  0
 18 24  1  0
 18 19  1  1
 20 21  1  0
 20 19  1  0
 21 22  1  0
 23 22  1  0
 24 25  1  0
 26 24  2  0
M  END
$$$$
