KVK.pdb
     RDKit          3D

 26 25  0  0  1  0  0  0  0  0999 V2000
   27.5277  -22.3916  -15.9800 N   0  0  0  0  0  0  0  0  0  0  0  0
   26.2277  -22.9704  -16.0852 C   0  0  1  0  0  0  0  0  0  0  0  0
   26.1377  -24.4442  -15.8693 C   0  0  0  0  0  0  0  0  0  0  0  0
   26.9453  -25.2390  -16.8229 C   0  0  0  0  0  0  0  0  0  0  0  0
   26.8666  -26.7108  -16.7631 C   0  0  0  0  0  0  0  0  0  0  0  0
   27.8173  -27.3984  -17.6877 C   0  0  0  0  0  0  0  0  0  0  0  0
   27.3760  -27.5283  -19.0369 N   0  0  0  0  0  0  0  0  0  0  0  0
   25.2964  -22.3315  -15.0899 C   0  0  0  0  0  0  0  0  0  0  0  0
   25.7494  -22.1523  -13.9258 O   0  0  0  0  0  0  0  0  0  0  0  0
   22.2943  -19.8573  -16.3497 C   0  0  0  0  0  0  0  0  0  0  0  0
   22.7767  -19.8826  -14.9262 C   0  0  1  0  0  0  0  0  0  0  0  0
   21.6907  -19.2892  -14.0555 C   0  0  0  0  0  0  0  0  0  0  0  0
   23.1573  -21.2895  -14.4806 C   0  0  2  0  0  0  0  0  0  0  0  0
   23.9694  -21.9466  -15.4426 N   0  0  0  0  0  0  0  0  0  0  0  0
   21.9083  -22.0084  -14.1524 C   0  0  0  0  0  0  0  0  0  0  0  0
   21.2629  -22.4892  -15.1393 O   0  0  0  0  0  0  0  0  0  0  0  0
   21.3979  -22.1909  -12.8446 N   0  0  0  0  0  0  0  0  0  0  0  0
   20.1849  -22.9335  -12.5993 C   0  0  1  0  0  0  0  0  0  0  0  0
   20.1501  -23.4352  -11.1729 C   0  0  0  0  0  0  0  0  0  0  0  0
   18.8802  -24.1242  -10.8078 C   0  0  0  0  0  0  0  0  0  0  0  0
   18.8045  -24.5384   -9.3552 C   0  0  0  0  0  0  0  0  0  0  0  0
   17.4448  -25.0907   -9.0610 C   0  0  0  0  0  0  0  0  0  0  0  0
   17.2898  -25.3278   -7.6261 N   0  0  0  0  0  0  0  0  0  0  0  0
   19.0041  -22.1042  -12.9347 C   0  0  0  0  0  0  0  0  0  0  0  0
   17.9419  -22.6932  -13.5919 O   0  0  0  0  0  0  0  0  0  0  0  0
   18.9102  -20.8853  -12.6543 O   0  0  0  0  0  0  0  0  0  0  0  0
  2  1  1  1
  3  2  1  0
  4  3  1  0
  4  5  1  0
  6  5  1  0
  6  7  1  0
  8  9  2  0
  8  2  1  0
 11 10  1  6
 11 13  1  0
 12 11  1  0
 13 14  1  6
 14  8  1  0
 15 17  1  0
 15 13  1  0
 16 15  2  0
 18 17  1  0
 18 24  1  0
 18 19  1  1
 20 21  1  0
 20 19  1  0
 21 22  1  0
 23 22  1  0
 24 25  1  0
 26 24  2  0
M  END
$$$$
