KVK.pdb
     RDKit          3D

 26 25  0  0  1  0  0  0  0  0999 V2000
   24.8188  -19.4333  -15.9559 N   0  0  0  0  0  0  0  0  0  0  0  0
   23.7603  -19.0239  -15.0912 C   0  0  1  0  0  0  0  0  0  0  0  0
   22.5163  -18.5310  -15.7519 C   0  0  0  0  0  0  0  0  0  0  0  0
   22.7420  -17.9512  -17.0959 C   0  0  0  0  0  0  0  0  0  0  0  0
   23.1445  -16.5358  -17.1983 C   0  0  0  0  0  0  0  0  0  0  0  0
   23.1478  -16.0151  -18.5985 C   0  0  0  0  0  0  0  0  0  0  0  0
   23.6383  -14.6862  -18.7583 N   0  0  0  0  0  0  0  0  0  0  0  0
   23.3512  -20.1658  -14.1997 C   0  0  0  0  0  0  0  0  0  0  0  0
   23.3215  -21.3120  -14.7268 O   0  0  0  0  0  0  0  0  0  0  0  0
   24.8765  -20.9888  -10.8139 C   0  0  0  0  0  0  0  0  0  0  0  0
   23.3810  -21.0399  -10.6699 C   0  0  1  0  0  0  0  0  0  0  0  0
   22.9503  -19.8413   -9.8527 C   0  0  0  0  0  0  0  0  0  0  0  0
   22.6816  -21.0862  -12.0232 C   0  0  2  0  0  0  0  0  0  0  0  0
   23.0148  -19.9651  -12.8286 N   0  0  0  0  0  0  0  0  0  0  0  0
   21.2331  -21.2414  -11.7735 C   0  0  0  0  0  0  0  0  0  0  0  0
   20.5064  -20.2318  -12.0464 O   0  0  0  0  0  0  0  0  0  0  0  0
   20.6192  -22.4107  -11.2634 N   0  0  0  0  0  0  0  0  0  0  0  0
   19.2014  -22.6446  -11.3976 C   0  0  1  0  0  0  0  0  0  0  0  0
   18.9272  -23.5944  -12.5423 C   0  0  0  0  0  0  0  0  0  0  0  0
   17.4858  -23.9328  -12.7118 C   0  0  0  0  0  0  0  0  0  0  0  0
   17.2096  -24.8743  -13.8627 C   0  0  0  0  0  0  0  0  0  0  0  0
   15.7391  -25.1388  -13.9528 C   0  0  0  0  0  0  0  0  0  0  0  0
   15.4549  -26.0765  -15.0388 N   0  0  0  0  0  0  0  0  0  0  0  0
   18.6424  -23.1308  -10.1148 C   0  0  0  0  0  0  0  0  0  0  0  0
   17.3088  -22.9008   -9.8400 O   0  0  0  0  0  0  0  0  0  0  0  0
   19.3155  -23.7459   -9.2536 O   0  0  0  0  0  0  0  0  0  0  0  0
  2  1  1  6
  3  2  1  0
  4  3  1  0
  4  5  1  0
  6  5  1  0
  6  7  1  0
  8  9  2  0
  8  2  1  0
 11 10  1  6
 11 13  1  0
 12 11  1  0
 13 14  1  1
 14  8  1  0
 15 17  1  0
 15 13  1  0
 16 15  2  0
 18 17  1  0
 18 24  1  0
 18 19  1  6
 20 21  1  0
 20 19  1  0
 21 22  1  0
 23 22  1  0
 24 25  1  0
 26 24  2  0
M  END
$$$$
