KVK.pdb
     RDKit          3D

 26 25  0  0  1  0  0  0  0  0999 V2000
   28.7841  -23.0875  -17.5082 N   0  0  0  0  0  0  0  0  0  0  0  0
   28.1726  -21.8676  -17.0915 C   0  0  1  0  0  0  0  0  0  0  0  0
   27.4518  -21.0931  -18.1439 C   0  0  0  0  0  0  0  0  0  0  0  0
   28.3487  -20.3710  -19.0753 C   0  0  0  0  0  0  0  0  0  0  0  0
   29.6419  -20.9845  -19.4321 C   0  0  0  0  0  0  0  0  0  0  0  0
   30.4445  -20.1708  -20.3941 C   0  0  0  0  0  0  0  0  0  0  0  0
   31.7742  -20.6290  -20.6258 N   0  0  0  0  0  0  0  0  0  0  0  0
   27.1757  -22.1377  -15.9965 C   0  0  0  0  0  0  0  0  0  0  0  0
   26.6195  -23.2704  -16.0050 O   0  0  0  0  0  0  0  0  0  0  0  0
   27.8824  -21.0801  -12.2566 C   0  0  0  0  0  0  0  0  0  0  0  0
   26.4506  -20.8059  -12.6234 C   0  0  1  0  0  0  0  0  0  0  0  0
   26.2783  -19.3070  -12.7399 C   0  0  0  0  0  0  0  0  0  0  0  0
   26.0446  -21.5260  -13.9039 C   0  0  2  0  0  0  0  0  0  0  0  0
   26.8740  -21.1649  -14.9986 N   0  0  0  0  0  0  0  0  0  0  0  0
   24.6061  -21.2687  -14.1253 C   0  0  0  0  0  0  0  0  0  0  0  0
   24.3229  -20.2718  -14.8654 O   0  0  0  0  0  0  0  0  0  0  0  0
   23.5515  -22.0402  -13.5807 N   0  0  0  0  0  0  0  0  0  0  0  0
   22.1704  -21.6458  -13.7217 C   0  0  1  0  0  0  0  0  0  0  0  0
   21.2549  -22.8236  -13.4724 C   0  0  0  0  0  0  0  0  0  0  0  0
   19.8066  -22.4997  -13.6077 C   0  0  0  0  0  0  0  0  0  0  0  0
   18.8992  -23.7066  -13.5229 C   0  0  0  0  0  0  0  0  0  0  0  0
   17.4928  -23.3000  -13.8347 C   0  0  0  0  0  0  0  0  0  0  0  0
   16.6277  -24.4765  -13.9167 N   0  0  0  0  0  0  0  0  0  0  0  0
   21.8742  -20.5019  -12.8282 C   0  0  0  0  0  0  0  0  0  0  0  0
   21.0024  -19.5241  -13.2652 O   0  0  0  0  0  0  0  0  0  0  0  0
   22.3734  -20.3669  -11.6856 O   0  0  0  0  0  0  0  0  0  0  0  0
  2  1  1  6
  3  2  1  0
  4  3  1  0
  4  5  1  0
  6  5  1  0
  6  7  1  0
  8  9  2  0
  8  2  1  0
 11 10  1  6
 11 13  1  0
 12 11  1  0
 13 14  1  6
 14  8  1  0
 15 17  1  0
 15 13  1  0
 16 15  2  0
 18 17  1  0
 18 24  1  0
 18 19  1  1
 20 21  1  0
 20 19  1  0
 21 22  1  0
 23 22  1  0
 24 25  1  0
 26 24  2  0
M  END
$$$$
