KVK.pdb
     RDKit          3D

 26 25  0  0  1  0  0  0  0  0999 V2000
   25.7374  -21.5654   -9.3571 N   0  0  0  0  0  0  0  0  0  0  0  0
   24.5107  -21.1423   -9.9505 C   0  0  1  0  0  0  0  0  0  0  0  0
   23.7069  -20.1505   -9.1777 C   0  0  0  0  0  0  0  0  0  0  0  0
   22.3501  -20.6264   -8.8229 C   0  0  0  0  0  0  0  0  0  0  0  0
   22.2196  -21.8057   -7.9463 C   0  0  0  0  0  0  0  0  0  0  0  0
   20.8081  -22.1170   -7.5693 C   0  0  0  0  0  0  0  0  0  0  0  0
   20.6108  -23.3615   -6.9028 N   0  0  0  0  0  0  0  0  0  0  0  0
   24.7749  -20.5263  -11.2983 C   0  0  0  0  0  0  0  0  0  0  0  0
   25.8680  -19.9106  -11.4342 O   0  0  0  0  0  0  0  0  0  0  0  0
   26.5842  -20.7820  -13.3815 C   0  0  0  0  0  0  0  0  0  0  0  0
   25.3657  -20.8509  -14.2591 C   0  0  1  0  0  0  0  0  0  0  0  0
   25.0532  -22.3103  -14.5088 C   0  0  0  0  0  0  0  0  0  0  0  0
   24.1817  -20.1129  -13.6456 C   0  0  2  0  0  0  0  0  0  0  0  0
   23.8393  -20.6325  -12.3692 N   0  0  0  0  0  0  0  0  0  0  0  0
   23.0769  -20.1450  -14.6270 C   0  0  0  0  0  0  0  0  0  0  0  0
   22.2623  -21.1182  -14.5215 O   0  0  0  0  0  0  0  0  0  0  0  0
   22.8732  -19.1876  -15.6497 N   0  0  0  0  0  0  0  0  0  0  0  0
   21.5624  -18.9236  -16.1930 C   0  0  1  0  0  0  0  0  0  0  0  0
   21.5057  -17.5346  -16.7887 C   0  0  0  0  0  0  0  0  0  0  0  0
   20.1454  -17.1291  -17.2425 C   0  0  0  0  0  0  0  0  0  0  0  0
   20.0980  -15.7629  -17.8894 C   0  0  0  0  0  0  0  0  0  0  0  0
   18.6952  -15.4558  -18.3113 C   0  0  0  0  0  0  0  0  0  0  0  0
   18.6310  -14.1426  -18.9523 N   0  0  0  0  0  0  0  0  0  0  0  0
   21.1971  -19.9731  -17.1728 C   0  0  0  0  0  0  0  0  0  0  0  0
   22.1859  -20.5091  -17.9739 O   0  0  0  0  0  0  0  0  0  0  0  0
   20.0301  -20.4087  -17.3198 O   0  0  0  0  0  0  0  0  0  0  0  0
  2  1  1  1
  3  2  1  0
  4  3  1  0
  4  5  1  0
  6  5  1  0
  6  7  1  0
  8  9  2  0
  8  2  1  0
 11 10  1  1
 11 13  1  0
 12 11  1  0
 13 14  1  1
 14  8  1  0
 15 17  1  0
 15 13  1  0
 16 15  2  0
 18 17  1  0
 18 24  1  0
 18 19  1  6
 20 21  1  0
 20 19  1  0
 21 22  1  0
 23 22  1  0
 24 25  1  0
 26 24  2  0
M  END
$$$$
