KVK.pdb
     RDKit          3D

 26 25  0  0  1  0  0  0  0  0999 V2000
   23.8279  -20.8541   -9.2388 N   0  0  0  0  0  0  0  0  0  0  0  0
   23.7663  -20.9468  -10.6612 C   0  0  1  0  0  0  0  0  0  0  0  0
   22.4540  -20.6190  -11.2916 C   0  0  0  0  0  0  0  0  0  0  0  0
   21.5155  -21.7632  -11.3494 C   0  0  0  0  0  0  0  0  0  0  0  0
   20.1690  -21.5473  -11.9118 C   0  0  0  0  0  0  0  0  0  0  0  0
   19.3515  -22.7944  -12.0013 C   0  0  0  0  0  0  0  0  0  0  0  0
   18.0351  -22.6296  -12.5229 N   0  0  0  0  0  0  0  0  0  0  0  0
   24.7843  -20.0285  -11.2829 C   0  0  0  0  0  0  0  0  0  0  0  0
   24.9803  -18.9256  -10.7018 O   0  0  0  0  0  0  0  0  0  0  0  0
   28.4290  -20.7811  -11.9704 C   0  0  0  0  0  0  0  0  0  0  0  0
   27.8050  -20.2604  -13.2350 C   0  0  1  0  0  0  0  0  0  0  0  0
   27.6002  -21.4321  -14.1703 C   0  0  0  0  0  0  0  0  0  0  0  0
   26.5029  -19.5171  -12.9614 C   0  0  2  0  0  0  0  0  0  0  0  0
   25.4930  -20.3849  -12.4677 N   0  0  0  0  0  0  0  0  0  0  0  0
   26.1298  -18.7977  -14.1974 C   0  0  0  0  0  0  0  0  0  0  0  0
   25.4701  -19.4665  -15.0573 O   0  0  0  0  0  0  0  0  0  0  0  0
   26.4514  -17.4479  -14.4781 N   0  0  0  0  0  0  0  0  0  0  0  0
   26.0155  -16.7996  -15.6916 C   0  0  1  0  0  0  0  0  0  0  0  0
   26.0618  -15.2960  -15.5351 C   0  0  0  0  0  0  0  0  0  0  0  0
   25.6706  -14.5503  -16.7647 C   0  0  0  0  0  0  0  0  0  0  0  0
   25.6548  -13.0481  -16.5902 C   0  0  0  0  0  0  0  0  0  0  0  0
   25.2845  -12.3963  -17.8857 C   0  0  0  0  0  0  0  0  0  0  0  0
   25.3040  -10.9402  -17.7484 N   0  0  0  0  0  0  0  0  0  0  0  0
   26.8236  -17.2726  -16.8397 C   0  0  0  0  0  0  0  0  0  0  0  0
   26.1972  -17.4864  -18.0516 O   0  0  0  0  0  0  0  0  0  0  0  0
   28.0567  -17.4928  -16.7760 O   0  0  0  0  0  0  0  0  0  0  0  0
  2  1  1  1
  3  2  1  0
  4  3  1  0
  4  5  1  0
  6  5  1  0
  6  7  1  0
  8  9  2  0
  8  2  1  0
 11 10  1  1
 11 13  1  0
 12 11  1  0
 13 14  1  6
 14  8  1  0
 15 17  1  0
 15 13  1  0
 16 15  2  0
 18 17  1  0
 18 24  1  0
 18 19  1  1
 20 21  1  0
 20 19  1  0
 21 22  1  0
 23 22  1  0
 24 25  1  0
 26 24  2  0
M  END
$$$$
