KVK.pdb
     RDKit          3D

 26 25  0  0  1  0  0  0  0  0999 V2000
   21.6788  -13.6711  -18.8948 N   0  0  0  0  0  0  0  0  0  0  0  0
   22.3980  -12.4467  -19.0336 C   0  0  1  0  0  0  0  0  0  0  0  0
   21.8229  -11.4420  -19.9752 C   0  0  0  0  0  0  0  0  0  0  0  0
   21.6566  -11.9448  -21.3583 C   0  0  0  0  0  0  0  0  0  0  0  0
   22.8622  -12.2005  -22.1690 C   0  0  0  0  0  0  0  0  0  0  0  0
   22.5631  -12.5678  -23.5857 C   0  0  0  0  0  0  0  0  0  0  0  0
   23.7002  -12.8136  -24.4095 N   0  0  0  0  0  0  0  0  0  0  0  0
   22.5188  -11.7647  -17.6970 C   0  0  0  0  0  0  0  0  0  0  0  0
   21.5279  -11.8609  -16.9216 O   0  0  0  0  0  0  0  0  0  0  0  0
   26.2155  -10.1465  -16.1961 C   0  0  0  0  0  0  0  0  0  0  0  0
   25.0397  -10.5510  -15.3513 C   0  0  1  0  0  0  0  0  0  0  0  0
   25.0955   -9.7571  -14.0643 C   0  0  0  0  0  0  0  0  0  0  0  0
   23.7185  -10.3526  -16.0848 C   0  0  2  0  0  0  0  0  0  0  0  0
   23.6927  -11.0466  -17.3235 N   0  0  0  0  0  0  0  0  0  0  0  0
   23.4860   -8.8977  -16.2026 C   0  0  0  0  0  0  0  0  0  0  0  0
   24.1958   -8.2851  -17.0644 O   0  0  0  0  0  0  0  0  0  0  0  0
   22.5488   -8.1621  -15.4378 N   0  0  0  0  0  0  0  0  0  0  0  0
   22.3812   -6.7386  -15.6063 C   0  0  1  0  0  0  0  0  0  0  0  0
   21.0668   -6.4374  -16.2912 C   0  0  0  0  0  0  0  0  0  0  0  0
   20.8340   -4.9859  -16.5357 C   0  0  0  0  0  0  0  0  0  0  0  0
   19.5493   -4.6884  -17.2761 C   0  0  0  0  0  0  0  0  0  0  0  0
   19.4961   -3.2336  -17.6244 C   0  0  0  0  0  0  0  0  0  0  0  0
   18.2365   -2.9154  -18.2964 N   0  0  0  0  0  0  0  0  0  0  0  0
   22.5062   -6.0534  -14.2988 C   0  0  0  0  0  0  0  0  0  0  0  0
   22.9799   -4.7566  -14.2694 O   0  0  0  0  0  0  0  0  0  0  0  0
   22.2039   -6.5867  -13.2045 O   0  0  0  0  0  0  0  0  0  0  0  0
  2  1  1  1
  3  2  1  0
  4  3  1  0
  4  5  1  0
  6  5  1  0
  6  7  1  0
  8  9  2  0
  8  2  1  0
 11 10  1  6
 11 13  1  0
 12 11  1  0
 13 14  1  6
 14  8  1  0
 15 17  1  0
 15 13  1  0
 16 15  2  0
 18 17  1  0
 18 24  1  0
 18 19  1  1
 20 21  1  0
 20 19  1  0
 21 22  1  0
 23 22  1  0
 24 25  1  0
 26 24  2  0
M  END
$$$$
