KVK.pdb
     RDKit          3D

 26 25  0  0  1  0  0  0  0  0999 V2000
   23.0225  -20.8782  -13.2375 N   0  0  0  0  0  0  0  0  0  0  0  0
   24.2754  -20.1969  -13.1926 C   0  0  1  0  0  0  0  0  0  0  0  0
   25.3635  -20.8590  -12.4151 C   0  0  0  0  0  0  0  0  0  0  0  0
   25.1204  -20.8921  -10.9546 C   0  0  0  0  0  0  0  0  0  0  0  0
   26.2452  -21.2140  -10.0562 C   0  0  0  0  0  0  0  0  0  0  0  0
   25.9022  -21.1057   -8.6063 C   0  0  0  0  0  0  0  0  0  0  0  0
   26.9743  -21.3574   -7.7012 N   0  0  0  0  0  0  0  0  0  0  0  0
   24.8038  -19.9958  -14.5877 C   0  0  0  0  0  0  0  0  0  0  0  0
   24.4511  -20.8434  -15.4536 O   0  0  0  0  0  0  0  0  0  0  0  0
   24.2672  -16.8321  -16.6211 C   0  0  0  0  0  0  0  0  0  0  0  0
   25.7279  -17.1863  -16.6480 C   0  0  1  0  0  0  0  0  0  0  0  0
   26.4533  -16.2431  -15.7131 C   0  0  0  0  0  0  0  0  0  0  0  0
   25.9651  -18.6460  -16.2795 C   0  0  2  0  0  0  0  0  0  0  0  0
   25.6588  -18.9032  -14.9169 N   0  0  0  0  0  0  0  0  0  0  0  0
   27.3523  -18.9844  -16.6611 C   0  0  0  0  0  0  0  0  0  0  0  0
   28.2583  -18.6544  -15.8292 O   0  0  0  0  0  0  0  0  0  0  0  0
   27.7271  -19.6347  -17.8615 N   0  0  0  0  0  0  0  0  0  0  0  0
   29.1101  -19.8820  -18.1916 C   0  0  1  0  0  0  0  0  0  0  0  0
   29.3480  -21.3605  -18.4031 C   0  0  0  0  0  0  0  0  0  0  0  0
   30.7502  -21.6970  -18.7793 C   0  0  0  0  0  0  0  0  0  0  0  0
   30.9940  -23.1773  -18.9704 C   0  0  0  0  0  0  0  0  0  0  0  0
   32.4553  -23.4218  -19.1834 C   0  0  0  0  0  0  0  0  0  0  0  0
   32.7221  -24.8557  -19.2933 N   0  0  0  0  0  0  0  0  0  0  0  0
   29.5048  -19.0730  -19.3682 C   0  0  0  0  0  0  0  0  0  0  0  0
   30.8483  -18.8872  -19.6280 O   0  0  0  0  0  0  0  0  0  0  0  0
   28.6824  -18.5408  -20.1515 O   0  0  0  0  0  0  0  0  0  0  0  0
  2  1  1  6
  3  2  1  0
  4  3  1  0
  4  5  1  0
  6  5  1  0
  6  7  1  0
  8  9  2  0
  8  2  1  0
 11 10  1  1
 11 13  1  0
 12 11  1  0
 13 14  1  1
 14  8  1  0
 15 17  1  0
 15 13  1  0
 16 15  2  0
 18 17  1  0
 18 24  1  0
 18 19  1  6
 20 21  1  0
 20 19  1  0
 21 22  1  0
 23 22  1  0
 24 25  1  0
 26 24  2  0
M  END
$$$$
