KVK.pdb
     RDKit          3D

 26 25  0  0  1  0  0  0  0  0999 V2000
   23.7030  -13.8440  -19.5390 N   0  0  0  0  0  0  0  0  0  0  0  0
   22.5126  -13.7815  -18.7548 C   0  0  1  0  0  0  0  0  0  0  0  0
   21.9748  -15.0826  -18.2598 C   0  0  0  0  0  0  0  0  0  0  0  0
   21.8882  -16.1301  -19.3031 C   0  0  0  0  0  0  0  0  0  0  0  0
   22.7472  -17.3232  -19.1822 C   0  0  0  0  0  0  0  0  0  0  0  0
   22.5697  -18.3029  -20.2958 C   0  0  0  0  0  0  0  0  0  0  0  0
   21.4665  -19.1952  -20.1585 N   0  0  0  0  0  0  0  0  0  0  0  0
   22.7384  -12.9192  -17.5418 C   0  0  0  0  0  0  0  0  0  0  0  0
   21.7925  -12.8561  -16.7089 O   0  0  0  0  0  0  0  0  0  0  0  0
   26.1666  -10.2991  -17.1555 C   0  0  0  0  0  0  0  0  0  0  0  0
   25.5325  -10.9567  -15.9617 C   0  0  1  0  0  0  0  0  0  0  0  0
   25.6626  -10.0130  -14.7860 C   0  0  0  0  0  0  0  0  0  0  0  0
   24.0807  -11.3371  -16.2274 C   0  0  2  0  0  0  0  0  0  0  0  0
   23.9586  -12.2091  -17.3415 N   0  0  0  0  0  0  0  0  0  0  0  0
   23.3056  -10.0849  -16.3528 C   0  0  0  0  0  0  0  0  0  0  0  0
   23.5029   -9.4078  -17.4131 O   0  0  0  0  0  0  0  0  0  0  0  0
   22.3823   -9.6036  -15.3935 N   0  0  0  0  0  0  0  0  0  0  0  0
   21.6900   -8.3494  -15.5679 C   0  0  1  0  0  0  0  0  0  0  0  0
   20.2266   -8.5889  -15.8652 C   0  0  0  0  0  0  0  0  0  0  0  0
   19.4225   -7.3392  -15.9774 C   0  0  0  0  0  0  0  0  0  0  0  0
   17.9454   -7.5794  -16.1951 C   0  0  0  0  0  0  0  0  0  0  0  0
   17.2321   -6.2669  -16.2903 C   0  0  0  0  0  0  0  0  0  0  0  0
   15.7844   -6.4735  -16.3164 N   0  0  0  0  0  0  0  0  0  0  0  0
   21.8907   -7.4879  -14.3794 C   0  0  0  0  0  0  0  0  0  0  0  0
   22.1355   -8.0846  -13.1584 O   0  0  0  0  0  0  0  0  0  0  0  0
   21.8513   -6.2349  -14.4165 O   0  0  0  0  0  0  0  0  0  0  0  0
  2  1  1  1
  3  2  1  0
  4  3  1  0
  4  5  1  0
  6  5  1  0
  6  7  1  0
  8  9  2  0
  8  2  1  0
 11 10  1  6
 11 13  1  0
 12 11  1  0
 13 14  1  6
 14  8  1  0
 15 17  1  0
 15 13  1  0
 16 15  2  0
 18 17  1  0
 18 24  1  0
 18 19  1  1
 20 21  1  0
 20 19  1  0
 21 22  1  0
 23 22  1  0
 24 25  1  0
 26 24  2  0
M  END
$$$$
