KVK.pdb
     RDKit          3D

 26 25  0  0  1  0  0  0  0  0999 V2000
   28.4763  -21.3633  -15.5018 N   0  0  0  0  0  0  0  0  0  0  0  0
   27.9175  -20.4134  -14.5956 C   0  0  1  0  0  0  0  0  0  0  0  0
   27.5409  -19.0889  -15.1709 C   0  0  0  0  0  0  0  0  0  0  0  0
   27.3552  -19.1057  -16.6401 C   0  0  0  0  0  0  0  0  0  0  0  0
   27.1741  -17.8231  -17.3460 C   0  0  0  0  0  0  0  0  0  0  0  0
   26.8519  -17.9793  -18.7963 C   0  0  0  0  0  0  0  0  0  0  0  0
   26.7392  -16.7650  -19.5345 N   0  0  0  0  0  0  0  0  0  0  0  0
   26.6744  -20.9760  -13.9599 C   0  0  0  0  0  0  0  0  0  0  0  0
   26.0435  -21.8446  -14.6233 O   0  0  0  0  0  0  0  0  0  0  0  0
   26.5600  -21.8236  -10.1235 C   0  0  0  0  0  0  0  0  0  0  0  0
   25.2396  -21.2505  -10.5568 C   0  0  1  0  0  0  0  0  0  0  0  0
   25.0972  -19.8812   -9.9285 C   0  0  0  0  0  0  0  0  0  0  0  0
   25.1152  -21.1952  -12.0748 C   0  0  2  0  0  0  0  0  0  0  0  0
   26.2308  -20.5514  -12.6729 N   0  0  0  0  0  0  0  0  0  0  0  0
   23.8143  -20.5709  -12.3950 C   0  0  0  0  0  0  0  0  0  0  0  0
   23.8053  -19.2993  -12.4642 O   0  0  0  0  0  0  0  0  0  0  0  0
   22.6098  -21.2789  -12.6232 N   0  0  0  0  0  0  0  0  0  0  0  0
   21.3745  -20.5979  -12.9285 C   0  0  1  0  0  0  0  0  0  0  0  0
   20.8632  -21.0130  -14.2900 C   0  0  0  0  0  0  0  0  0  0  0  0
   19.5942  -20.3403  -14.6874 C   0  0  0  0  0  0  0  0  0  0  0  0
   19.0334  -20.8220  -16.0067 C   0  0  0  0  0  0  0  0  0  0  0  0
   17.7863  -20.0600  -16.3302 C   0  0  0  0  0  0  0  0  0  0  0  0
   17.1827  -20.5682  -17.5617 N   0  0  0  0  0  0  0  0  0  0  0  0
   20.3820  -20.8391  -11.8554 C   0  0  0  0  0  0  0  0  0  0  0  0
   19.4389  -19.8660  -11.5900 O   0  0  0  0  0  0  0  0  0  0  0  0
   20.3467  -21.8862  -11.1659 O   0  0  0  0  0  0  0  0  0  0  0  0
  2  1  1  6
  3  2  1  0
  4  3  1  0
  4  5  1  0
  6  5  1  0
  6  7  1  0
  8  9  2  0
  8  2  1  0
 11 10  1  6
 11 13  1  0
 12 11  1  0
 13 14  1  6
 14  8  1  0
 15 17  1  0
 15 13  1  0
 16 15  2  0
 18 17  1  0
 18 24  1  0
 18 19  1  6
 20 21  1  0
 20 19  1  0
 21 22  1  0
 23 22  1  0
 24 25  1  0
 26 24  2  0
M  END
$$$$
