EMH.pdb
     RDKit          3D

 28 28  0  0  1  0  0  0  0  0999 V2000
    9.3560  -16.4957   18.7037 N   0  0  0  0  0  0  0  0  0  0  0  0
    8.4575  -16.7785   19.7986 C   0  0  1  0  0  0  0  0  0  0  0  0
    8.2668  -18.2612   19.9643 C   0  0  0  0  0  0  0  0  0  0  0  0
    9.6073  -18.9799   20.0059 C   0  0  0  0  0  0  0  0  0  0  0  0
    9.4258  -20.4378   20.0968 C   0  0  0  0  0  0  0  0  0  0  0  0
    9.1818  -21.1404   19.0933 O   0  0  0  0  0  0  0  0  0  0  0  0
    8.9451  -16.2113   21.0765 C   0  0  0  0  0  0  0  0  0  0  0  0
   10.1754  -16.0458   21.2175 O   0  0  0  0  0  0  0  0  0  0  0  0
    9.5375  -21.0368   21.3673 O   0  0  0  0  0  0  0  0  0  0  0  0
    7.1621  -11.5253   27.0873 C   0  0  0  0  0  0  0  0  0  0  0  0
    6.5027  -12.8977   26.1018 S   0  0  0  0  0  0  0  0  0  0  0  0
    7.8807  -13.6791   25.2249 C   0  0  0  0  0  0  0  0  0  0  0  0
    7.4051  -14.4664   24.0305 C   0  0  0  0  0  0  0  0  0  0  0  0
    8.5129  -15.1950   23.3519 C   0  0  2  0  0  0  0  0  0  0  0  0
    8.0879  -15.8515   22.1433 N   0  0  0  0  0  0  0  0  0  0  0  0
    9.2385  -16.1437   24.2135 C   0  0  0  0  0  0  0  0  0  0  0  0
    8.5467  -17.1280   24.6560 O   0  0  0  0  0  0  0  0  0  0  0  0
   10.5970  -16.0289   24.5620 N   0  0  0  0  0  0  0  0  0  0  0  0
   10.9806  -15.9499   25.9467 C   0  0  1  0  0  0  0  0  0  0  0  0
   10.2373  -14.8884   26.6869 C   0  0  0  0  0  0  0  0  0  0  0  0
   10.7478  -14.7782   28.0666 C   0  0  0  0  0  0  0  0  0  0  0  0
   11.8074  -15.5350   28.5942 C   0  0  0  0  0  0  0  0  0  0  0  0
   12.0151  -15.2029   29.8632 N   0  0  0  0  0  0  0  0  0  0  0  0
   11.1247  -14.2552   30.1733 C   0  0  0  0  0  0  0  0  0  0  0  0
   10.3675  -14.0023   29.0971 N   0  0  0  0  0  0  0  0  0  0  0  0
   10.7126  -17.2681   26.5561 C   0  0  0  0  0  0  0  0  0  0  0  0
    9.6066  -17.8574   26.3289 O   0  0  0  0  0  0  0  0  0  0  0  0
   11.6402  -17.8652   27.3605 O   0  0  0  0  0  0  0  0  0  0  0  0
  2  3  1  0
  2  1  1  6
  3  4  1  0
  4  5  1  0
  5  9  1  0
  5  6  2  0
  7  2  1  0
  8  7  2  0
 11 12  1  0
 11 10  1  0
 12 13  1  0
 14 13  1  1
 14 15  1  0
 15  7  1  0
 16 14  1  0
 16 17  2  0
 18 16  1  0
 19 18  1  0
 19 20  1  1
 21 20  1  0
 22 21  2  0
 23 22  1  0
 24 23  1  0
 24 25  2  0
 25 21  1  0
 26 19  1  0
 26 28  1  0
 27 26  2  0
M  END
$$$$
