EMH.pdb
     RDKit          3D

 28 28  0  0  1  0  0  0  0  0999 V2000
    8.6417  -14.2892   19.5889 N   0  0  0  0  0  0  0  0  0  0  0  0
    8.0284  -15.2504   20.4756 C   0  0  1  0  0  0  0  0  0  0  0  0
    8.3506  -16.6554   20.0462 C   0  0  0  0  0  0  0  0  0  0  0  0
    7.6885  -16.9819   18.7157 C   0  0  0  0  0  0  0  0  0  0  0  0
    7.9359  -18.3803   18.3283 C   0  0  0  0  0  0  0  0  0  0  0  0
    8.9845  -18.7331   17.7487 O   0  0  0  0  0  0  0  0  0  0  0  0
    8.4627  -15.0657   21.8791 C   0  0  0  0  0  0  0  0  0  0  0  0
    9.6591  -14.7765   22.0936 O   0  0  0  0  0  0  0  0  0  0  0  0
    6.9436  -19.3330   18.6338 O   0  0  0  0  0  0  0  0  0  0  0  0
    7.1630  -11.8043   27.4339 C   0  0  0  0  0  0  0  0  0  0  0  0
    6.0212  -11.9218   26.0296 S   0  0  0  0  0  0  0  0  0  0  0  0
    6.8051  -12.9280   24.7444 C   0  0  0  0  0  0  0  0  0  0  0  0
    6.9904  -14.3556   25.1917 C   0  0  0  0  0  0  0  0  0  0  0  0
    7.9906  -15.0856   24.3638 C   0  0  2  0  0  0  0  0  0  0  0  0
    7.5916  -15.2033   22.9857 N   0  0  0  0  0  0  0  0  0  0  0  0
    8.3753  -16.4052   24.8925 C   0  0  0  0  0  0  0  0  0  0  0  0
    7.6599  -17.3905   24.4917 O   0  0  0  0  0  0  0  0  0  0  0  0
    9.4440  -16.6303   25.7798 N   0  0  0  0  0  0  0  0  0  0  0  0
    9.7458  -17.9670   26.2189 C   0  0  1  0  0  0  0  0  0  0  0  0
   11.1672  -18.1219   26.6463 C   0  0  0  0  0  0  0  0  0  0  0  0
   11.3698  -17.5056   27.9713 C   0  0  0  0  0  0  0  0  0  0  0  0
   10.3446  -16.9962   28.7858 C   0  0  0  0  0  0  0  0  0  0  0  0
   10.8578  -16.5044   29.9076 N   0  0  0  0  0  0  0  0  0  0  0  0
   12.1815  -16.6799   29.8455 C   0  0  0  0  0  0  0  0  0  0  0  0
   12.4860  -17.2793   28.6864 N   0  0  0  0  0  0  0  0  0  0  0  0
    8.8457  -18.2756   27.3482 C   0  0  0  0  0  0  0  0  0  0  0  0
    8.0645  -17.3764   27.7991 O   0  0  0  0  0  0  0  0  0  0  0  0
    8.8394  -19.5179   27.9145 O   0  0  0  0  0  0  0  0  0  0  0  0
  2  3  1  0
  2  1  1  6
  3  4  1  0
  4  5  1  0
  5  9  1  0
  5  6  2  0
  7  2  1  0
  8  7  2  0
 11 12  1  0
 11 10  1  0
 12 13  1  0
 14 13  1  1
 14 15  1  0
 15  7  1  0
 16 14  1  0
 16 17  2  0
 18 16  1  0
 19 18  1  0
 19 20  1  1
 21 20  1  0
 22 21  2  0
 23 22  1  0
 24 23  1  0
 24 25  2  0
 25 21  1  0
 26 19  1  0
 26 28  1  0
 27 26  2  0
M  END
$$$$
