EMH.pdb
     RDKit          3D

 28 28  0  0  1  0  0  0  0  0999 V2000
    7.4917  -17.1699   21.2803 N   0  0  0  0  0  0  0  0  0  0  0  0
    8.9214  -17.2577   21.4657 C   0  0  1  0  0  0  0  0  0  0  0  0
    9.6499  -16.6219   20.3136 C   0  0  0  0  0  0  0  0  0  0  0  0
   10.7947  -17.5058   19.8408 C   0  0  0  0  0  0  0  0  0  0  0  0
   11.4761  -16.9152   18.6773 C   0  0  0  0  0  0  0  0  0  0  0  0
   12.7157  -16.7669   18.6386 O   0  0  0  0  0  0  0  0  0  0  0  0
    9.3578  -16.6122   22.7248 C   0  0  0  0  0  0  0  0  0  0  0  0
   10.5833  -16.4699   22.9213 O   0  0  0  0  0  0  0  0  0  0  0  0
   10.6828  -16.5139   17.5840 O   0  0  0  0  0  0  0  0  0  0  0  0
    7.1335  -11.6016   26.7328 C   0  0  0  0  0  0  0  0  0  0  0  0
    6.4324  -12.2467   25.1895 S   0  0  0  0  0  0  0  0  0  0  0  0
    7.5850  -13.4665   24.5097 C   0  0  0  0  0  0  0  0  0  0  0  0
    7.8450  -14.5885   25.4823 C   0  0  0  0  0  0  0  0  0  0  0  0
    8.8459  -15.5651   24.9696 C   0  0  2  0  0  0  0  0  0  0  0  0
    8.4566  -16.1526   23.7143 N   0  0  0  0  0  0  0  0  0  0  0  0
    9.2164  -16.6205   25.9276 C   0  0  0  0  0  0  0  0  0  0  0  0
    8.3355  -17.5334   26.1114 O   0  0  0  0  0  0  0  0  0  0  0  0
   10.4381  -16.6751   26.6237 N   0  0  0  0  0  0  0  0  0  0  0  0
   10.7060  -17.7659   27.5231 C   0  0  1  0  0  0  0  0  0  0  0  0
   12.0889  -18.3061   27.3719 C   0  0  0  0  0  0  0  0  0  0  0  0
   12.2297  -18.9863   26.0704 C   0  0  0  0  0  0  0  0  0  0  0  0
   11.2032  -19.1254   25.1212 C   0  0  0  0  0  0  0  0  0  0  0  0
   11.6501  -19.7924   24.0634 N   0  0  0  0  0  0  0  0  0  0  0  0
   12.9325  -20.0885   24.2971 C   0  0  0  0  0  0  0  0  0  0  0  0
   13.2776  -19.6053   25.4983 N   0  0  0  0  0  0  0  0  0  0  0  0
   10.5110  -17.2638   28.8981 C   0  0  0  0  0  0  0  0  0  0  0  0
   10.1797  -16.0487   29.0873 O   0  0  0  0  0  0  0  0  0  0  0  0
   10.6797  -18.0901   29.9719 O   0  0  0  0  0  0  0  0  0  0  0  0
  2  3  1  0
  2  1  1  6
  3  4  1  0
  4  5  1  0
  5  9  1  0
  5  6  2  0
  7  2  1  0
  8  7  2  0
 11 12  1  0
 11 10  1  0
 12 13  1  0
 14 13  1  1
 14 15  1  0
 15  7  1  0
 16 14  1  0
 16 17  2  0
 18 16  1  0
 19 18  1  0
 19 20  1  1
 21 20  1  0
 22 21  2  0
 23 22  1  0
 24 23  1  0
 24 25  2  0
 25 21  1  0
 26 19  1  0
 26 28  1  0
 27 26  2  0
M  END
$$$$
