EMH.pdb
     RDKit          3D

 28 28  0  0  1  0  0  0  0  0999 V2000
    8.5887  -15.9913   18.9163 N   0  0  0  0  0  0  0  0  0  0  0  0
    7.6468  -15.9896   20.0113 C   0  0  1  0  0  0  0  0  0  0  0  0
    7.0555  -17.3582   20.2099 C   0  0  0  0  0  0  0  0  0  0  0  0
    8.1248  -18.4342   20.0914 C   0  0  0  0  0  0  0  0  0  0  0  0
    7.5605  -19.7725   20.3308 C   0  0  0  0  0  0  0  0  0  0  0  0
    6.3525  -19.9458   20.5971 O   0  0  0  0  0  0  0  0  0  0  0  0
    8.2714  -15.5478   21.2790 C   0  0  0  0  0  0  0  0  0  0  0  0
    9.5136  -15.6296   21.3850 O   0  0  0  0  0  0  0  0  0  0  0  0
    8.4308  -20.8777   20.2494 O   0  0  0  0  0  0  0  0  0  0  0  0
    7.4858  -11.6293   28.1179 C   0  0  0  0  0  0  0  0  0  0  0  0
    6.6100  -12.2937   26.6753 S   0  0  0  0  0  0  0  0  0  0  0  0
    7.7799  -13.2787   25.7061 C   0  0  0  0  0  0  0  0  0  0  0  0
    7.1722  -13.7456   24.4080 C   0  0  0  0  0  0  0  0  0  0  0  0
    8.1056  -14.5937   23.6156 C   0  0  2  0  0  0  0  0  0  0  0  0
    7.5314  -15.0416   22.3738 N   0  0  0  0  0  0  0  0  0  0  0  0
    8.6679  -15.7376   24.3534 C   0  0  0  0  0  0  0  0  0  0  0  0
    7.8557  -16.7040   24.5762 O   0  0  0  0  0  0  0  0  0  0  0  0
    9.9969  -15.8199   24.8084 N   0  0  0  0  0  0  0  0  0  0  0  0
   10.4385  -16.9812   25.5345 C   0  0  1  0  0  0  0  0  0  0  0  0
   11.9051  -17.2198   25.3954 C   0  0  0  0  0  0  0  0  0  0  0  0
   12.2165  -17.6911   24.0326 C   0  0  0  0  0  0  0  0  0  0  0  0
   11.2618  -17.9586   23.0370 C   0  0  0  0  0  0  0  0  0  0  0  0
   11.8651  -18.3729   21.9289 N   0  0  0  0  0  0  0  0  0  0  0  0
   13.1790  -18.3814   22.1749 C   0  0  0  0  0  0  0  0  0  0  0  0
   13.3873  -17.9730   23.4340 N   0  0  0  0  0  0  0  0  0  0  0  0
   10.0970  -16.7707   26.9558 C   0  0  0  0  0  0  0  0  0  0  0  0
    9.6245  -15.6501   27.3341 O   0  0  0  0  0  0  0  0  0  0  0  0
   10.2802  -17.7671   27.8711 O   0  0  0  0  0  0  0  0  0  0  0  0
  2  3  1  0
  2  1  1  6
  3  4  1  0
  4  5  1  0
  5  9  1  0
  5  6  2  0
  7  2  1  0
  8  7  2  0
 11 12  1  0
 11 10  1  0
 12 13  1  0
 14 13  1  1
 14 15  1  0
 15  7  1  0
 16 14  1  0
 16 17  2  0
 18 16  1  0
 19 18  1  0
 19 20  1  1
 21 20  1  0
 22 21  2  0
 23 22  1  0
 24 23  1  0
 24 25  2  0
 25 21  1  0
 26 19  1  0
 26 28  1  0
 27 26  2  0
M  END
$$$$
