EMH.pdb
     RDKit          3D

 28 28  0  0  1  0  0  0  0  0999 V2000
    6.9254  -17.5107   20.8317 N   0  0  0  0  0  0  0  0  0  0  0  0
    8.3430  -17.2490   20.7397 C   0  0  1  0  0  0  0  0  0  0  0  0
    8.6801  -16.5838   19.4334 C   0  0  0  0  0  0  0  0  0  0  0  0
    9.2153  -17.5957   18.4310 C   0  0  0  0  0  0  0  0  0  0  0  0
   10.0370  -16.9393   17.4010 C   0  0  0  0  0  0  0  0  0  0  0  0
    9.9017  -17.1895   16.1848 O   0  0  0  0  0  0  0  0  0  0  0  0
    8.8224  -16.3959   21.8508 C   0  0  0  0  0  0  0  0  0  0  0  0
   10.0367  -16.1046   21.8897 O   0  0  0  0  0  0  0  0  0  0  0  0
   10.9988  -16.0013   17.8259 O   0  0  0  0  0  0  0  0  0  0  0  0
    7.0840  -11.2089   27.5476 C   0  0  0  0  0  0  0  0  0  0  0  0
    6.4475  -12.1991   26.1678 S   0  0  0  0  0  0  0  0  0  0  0  0
    7.7671  -13.3052   25.6078 C   0  0  0  0  0  0  0  0  0  0  0  0
    7.3324  -14.1372   24.4283 C   0  0  0  0  0  0  0  0  0  0  0  0
    8.4039  -15.0577   23.9559 C   0  0  2  0  0  0  0  0  0  0  0  0
    7.9749  -15.8985   22.8689 N   0  0  0  0  0  0  0  0  0  0  0  0
    9.0176  -15.8760   25.0154 C   0  0  0  0  0  0  0  0  0  0  0  0
    8.2966  -16.8401   25.4559 O   0  0  0  0  0  0  0  0  0  0  0  0
   10.3025  -15.6618   25.5476 N   0  0  0  0  0  0  0  0  0  0  0  0
   10.8632  -16.6063   26.4772 C   0  0  1  0  0  0  0  0  0  0  0  0
   12.3552  -16.6224   26.4470 C   0  0  0  0  0  0  0  0  0  0  0  0
   12.8318  -17.2294   25.1897 C   0  0  0  0  0  0  0  0  0  0  0  0
   12.0013  -17.7572   24.1868 C   0  0  0  0  0  0  0  0  0  0  0  0
   12.7388  -18.2340   23.1907 N   0  0  0  0  0  0  0  0  0  0  0  0
   14.0194  -18.0311   23.5162 C   0  0  0  0  0  0  0  0  0  0  0  0
   14.0730  -17.4298   24.7125 N   0  0  0  0  0  0  0  0  0  0  0  0
   10.3927  -16.2321   27.8261 C   0  0  0  0  0  0  0  0  0  0  0  0
    9.9587  -15.0542   28.0410 O   0  0  0  0  0  0  0  0  0  0  0  0
   10.4154  -17.1376   28.8478 O   0  0  0  0  0  0  0  0  0  0  0  0
  2  3  1  0
  2  1  1  1
  3  4  1  0
  4  5  1  0
  5  9  1  0
  5  6  2  0
  7  2  1  0
  8  7  2  0
 11 12  1  0
 11 10  1  0
 12 13  1  0
 14 13  1  1
 14 15  1  0
 15  7  1  0
 16 14  1  0
 16 17  2  0
 18 16  1  0
 19 18  1  0
 19 20  1  1
 21 20  1  0
 22 21  2  0
 23 22  1  0
 24 23  1  0
 24 25  2  0
 25 21  1  0
 26 19  1  0
 26 28  1  0
 27 26  2  0
M  END
$$$$
