EMH.pdb
     RDKit          3D

 28 28  0  0  1  0  0  0  0  0999 V2000
    9.7350  -15.4125   19.9758 N   0  0  0  0  0  0  0  0  0  0  0  0
    8.5345  -15.5729   20.7629 C   0  0  1  0  0  0  0  0  0  0  0  0
    7.8422  -16.8646   20.4247 C   0  0  0  0  0  0  0  0  0  0  0  0
    8.7810  -18.0480   20.6075 C   0  0  0  0  0  0  0  0  0  0  0  0
    8.0878  -19.3208   20.3498 C   0  0  0  0  0  0  0  0  0  0  0  0
    6.8957  -19.3644   19.9794 O   0  0  0  0  0  0  0  0  0  0  0  0
    8.8168  -15.5455   22.2162 C   0  0  0  0  0  0  0  0  0  0  0  0
    9.9573  -15.8788   22.6023 O   0  0  0  0  0  0  0  0  0  0  0  0
    8.8143  -20.5142   20.5321 O   0  0  0  0  0  0  0  0  0  0  0  0
    6.1848  -10.5246   26.4920 C   0  0  0  0  0  0  0  0  0  0  0  0
    7.3162  -11.9418   26.5195 S   0  0  0  0  0  0  0  0  0  0  0  0
    7.0087  -12.9413   25.0413 C   0  0  0  0  0  0  0  0  0  0  0  0
    7.0286  -14.4160   25.3529 C   0  0  0  0  0  0  0  0  0  0  0  0
    8.0940  -15.1409   24.6059 C   0  0  2  0  0  0  0  0  0  0  0  0
    7.8594  -15.1640   23.1858 N   0  0  0  0  0  0  0  0  0  0  0  0
    8.3646  -16.5033   25.0952 C   0  0  0  0  0  0  0  0  0  0  0  0
    7.9337  -17.4533   24.3502 O   0  0  0  0  0  0  0  0  0  0  0  0
    9.0438  -16.8031   26.2906 N   0  0  0  0  0  0  0  0  0  0  0  0
    9.9949  -17.8823   26.3270 C   0  0  1  0  0  0  0  0  0  0  0  0
   11.1303  -17.6768   25.3805 C   0  0  0  0  0  0  0  0  0  0  0  0
   12.1234  -18.7566   25.5356 C   0  0  0  0  0  0  0  0  0  0  0  0
   12.3815  -19.4451   26.7328 C   0  0  0  0  0  0  0  0  0  0  0  0
   13.3348  -20.3494   26.5402 N   0  0  0  0  0  0  0  0  0  0  0  0
   13.7011  -20.2688   25.2572 C   0  0  0  0  0  0  0  0  0  0  0  0
   12.9752  -19.3154   24.6576 N   0  0  0  0  0  0  0  0  0  0  0  0
   10.5049  -17.9763   27.7096 C   0  0  0  0  0  0  0  0  0  0  0  0
   10.5443  -16.9351   28.4420 O   0  0  0  0  0  0  0  0  0  0  0  0
   10.9337  -19.1704   28.2143 O   0  0  0  0  0  0  0  0  0  0  0  0
  2  3  1  0
  2  1  1  6
  3  4  1  0
  4  5  1  0
  5  9  1  0
  5  6  2  0
  7  2  1  0
  8  7  2  0
 11 12  1  0
 11 10  1  0
 12 13  1  0
 14 13  1  1
 14 15  1  0
 15  7  1  0
 16 14  1  0
 16 17  2  0
 18 16  1  0
 19 18  1  0
 19 20  1  6
 21 20  1  0
 22 21  2  0
 23 22  1  0
 24 23  1  0
 24 25  2  0
 25 21  1  0
 26 19  1  0
 26 28  1  0
 27 26  2  0
M  END
$$$$
