EMH.pdb
     RDKit          3D

 28 28  0  0  1  0  0  0  0  0999 V2000
   10.7269  -16.8927   17.2181 N   0  0  0  0  0  0  0  0  0  0  0  0
   11.4101  -17.5680   18.2967 C   0  0  1  0  0  0  0  0  0  0  0  0
   12.8724  -17.7308   17.9845 C   0  0  0  0  0  0  0  0  0  0  0  0
   13.3337  -16.6827   16.9824 C   0  0  0  0  0  0  0  0  0  0  0  0
   14.3077  -17.2471   16.0340 C   0  0  0  0  0  0  0  0  0  0  0  0
   13.9662  -17.6941   14.9188 O   0  0  0  0  0  0  0  0  0  0  0  0
   11.2709  -16.8438   19.5806 C   0  0  0  0  0  0  0  0  0  0  0  0
   12.2929  -16.3284   20.0814 O   0  0  0  0  0  0  0  0  0  0  0  0
   15.6630  -17.2708   16.4190 O   0  0  0  0  0  0  0  0  0  0  0  0
    7.9255  -11.4277   19.3212 C   0  0  0  0  0  0  0  0  0  0  0  0
    7.4994  -12.8268   20.3937 S   0  0  0  0  0  0  0  0  0  0  0  0
    8.9169  -13.9521   20.4473 C   0  0  0  0  0  0  0  0  0  0  0  0
    8.7200  -15.0467   21.4650 C   0  0  0  0  0  0  0  0  0  0  0  0
    9.8653  -15.9981   21.5058 C   0  0  2  0  0  0  0  0  0  0  0  0
   10.0407  -16.7100   20.2670 N   0  0  0  0  0  0  0  0  0  0  0  0
    9.8327  -16.9458   22.6326 C   0  0  0  0  0  0  0  0  0  0  0  0
    9.6498  -18.1744   22.3156 O   0  0  0  0  0  0  0  0  0  0  0  0
    9.9852  -16.5859   23.9844 N   0  0  0  0  0  0  0  0  0  0  0  0
   10.7875  -17.3988   24.8596 C   0  0  1  0  0  0  0  0  0  0  0  0
   12.2113  -17.4803   24.4198 C   0  0  0  0  0  0  0  0  0  0  0  0
   12.4913  -18.8107   23.8470 C   0  0  0  0  0  0  0  0  0  0  0  0
   11.5336  -19.8208   23.6555 C   0  0  0  0  0  0  0  0  0  0  0  0
   12.1073  -20.8965   23.1288 N   0  0  0  0  0  0  0  0  0  0  0  0
   13.4046  -20.6148   22.9725 C   0  0  0  0  0  0  0  0  0  0  0  0
   13.6325  -19.3663   23.4026 N   0  0  0  0  0  0  0  0  0  0  0  0
   10.7125  -16.8035   26.2090 C   0  0  0  0  0  0  0  0  0  0  0  0
   10.5209  -15.5510   26.3385 O   0  0  0  0  0  0  0  0  0  0  0  0
   10.8439  -17.5827   27.3224 O   0  0  0  0  0  0  0  0  0  0  0  0
  2  3  1  0
  2  1  1  6
  3  4  1  0
  4  5  1  0
  5  9  1  0
  5  6  2  0
  7  2  1  0
  8  7  2  0
 11 12  1  0
 11 10  1  0
 12 13  1  0
 14 13  1  6
 14 15  1  0
 15  7  1  0
 16 14  1  0
 16 17  2  0
 18 16  1  0
 19 18  1  0
 19 20  1  6
 21 20  1  0
 22 21  2  0
 23 22  1  0
 24 23  1  0
 24 25  2  0
 25 21  1  0
 26 19  1  0
 26 28  1  0
 27 26  2  0
M  END
$$$$
