EMH.pdb
     RDKit          3D

 28 28  0  0  1  0  0  0  0  0999 V2000
    7.5316  -17.4432   20.6197 N   0  0  0  0  0  0  0  0  0  0  0  0
    8.8825  -16.9445   20.5066 C   0  0  1  0  0  0  0  0  0  0  0  0
    9.0575  -16.1581   19.2364 C   0  0  0  0  0  0  0  0  0  0  0  0
    7.9207  -16.4367   18.2643 C   0  0  0  0  0  0  0  0  0  0  0  0
    8.0596  -15.6318   17.0397 C   0  0  0  0  0  0  0  0  0  0  0  0
    9.0070  -14.8351   16.8729 O   0  0  0  0  0  0  0  0  0  0  0  0
    9.2557  -16.0892   21.6562 C   0  0  0  0  0  0  0  0  0  0  0  0
   10.3444  -15.4784   21.6085 O   0  0  0  0  0  0  0  0  0  0  0  0
    7.0809  -15.7843   16.0376 O   0  0  0  0  0  0  0  0  0  0  0  0
    7.0124  -11.4740   27.5639 C   0  0  0  0  0  0  0  0  0  0  0  0
    6.4773  -12.5634   26.2162 S   0  0  0  0  0  0  0  0  0  0  0  0
    7.9109  -13.5159   25.6542 C   0  0  0  0  0  0  0  0  0  0  0  0
    7.6138  -14.2707   24.3836 C   0  0  0  0  0  0  0  0  0  0  0  0
    8.7662  -15.0991   23.9316 C   0  0  2  0  0  0  0  0  0  0  0  0
    8.4426  -15.9331   22.8037 N   0  0  0  0  0  0  0  0  0  0  0  0
    9.3926  -15.9057   24.9927 C   0  0  0  0  0  0  0  0  0  0  0  0
    9.6823  -15.2727   26.0691 O   0  0  0  0  0  0  0  0  0  0  0  0
    9.6783  -17.2796   24.8891 N   0  0  0  0  0  0  0  0  0  0  0  0
   10.4772  -17.9267   25.8959 C   0  0  1  0  0  0  0  0  0  0  0  0
   11.9324  -17.6292   25.7505 C   0  0  0  0  0  0  0  0  0  0  0  0
   12.4360  -18.1663   24.4722 C   0  0  0  0  0  0  0  0  0  0  0  0
   11.9603  -19.3311   23.8468 C   0  0  0  0  0  0  0  0  0  0  0  0
   12.6258  -19.5445   22.7176 N   0  0  0  0  0  0  0  0  0  0  0  0
   13.5160  -18.5553   22.5918 C   0  0  0  0  0  0  0  0  0  0  0  0
   13.4009  -17.7316   23.6424 N   0  0  0  0  0  0  0  0  0  0  0  0
    9.9978  -17.4563   27.2111 C   0  0  0  0  0  0  0  0  0  0  0  0
    8.9982  -16.6697   27.2762 O   0  0  0  0  0  0  0  0  0  0  0  0
   10.6139  -17.8578   28.3615 O   0  0  0  0  0  0  0  0  0  0  0  0
  2  3  1  0
  2  1  1  1
  3  4  1  0
  4  5  1  0
  5  9  1  0
  5  6  2  0
  7  2  1  0
  8  7  2  0
 11 12  1  0
 11 10  1  0
 12 13  1  0
 14 13  1  1
 14 15  1  0
 15  7  1  0
 16 14  1  0
 16 17  2  0
 18 16  1  0
 19 18  1  0
 19 20  1  6
 21 20  1  0
 22 21  2  0
 23 22  1  0
 24 23  1  0
 24 25  2  0
 25 21  1  0
 26 19  1  0
 26 28  1  0
 27 26  2  0
M  END
$$$$
