EMH.pdb
     RDKit          3D

 28 28  0  0  1  0  0  0  0  0999 V2000
    9.4046  -18.4609   20.5887 N   0  0  0  0  0  0  0  0  0  0  0  0
   10.2607  -17.3142   20.3933 C   0  0  1  0  0  0  0  0  0  0  0  0
   10.0833  -16.7437   19.0129 C   0  0  0  0  0  0  0  0  0  0  0  0
   10.3289  -17.8053   17.9508 C   0  0  0  0  0  0  0  0  0  0  0  0
   10.3429  -17.2146   16.6026 C   0  0  0  0  0  0  0  0  0  0  0  0
   10.0933  -16.0069   16.4043 O   0  0  0  0  0  0  0  0  0  0  0  0
    9.9990  -16.2507   21.3897 C   0  0  0  0  0  0  0  0  0  0  0  0
   10.7360  -15.2419   21.3837 O   0  0  0  0  0  0  0  0  0  0  0  0
   10.6525  -18.0587   15.5177 O   0  0  0  0  0  0  0  0  0  0  0  0
    5.8558  -11.8233   25.9874 C   0  0  0  0  0  0  0  0  0  0  0  0
    6.1578  -13.5558   25.5439 S   0  0  0  0  0  0  0  0  0  0  0  0
    7.0063  -13.5919   23.9448 C   0  0  0  0  0  0  0  0  0  0  0  0
    7.2459  -15.0038   23.4740 C   0  0  0  0  0  0  0  0  0  0  0  0
    8.6953  -15.3232   23.3486 C   0  0  2  0  0  0  0  0  0  0  0  0
    8.9595  -16.3229   22.3470 N   0  0  0  0  0  0  0  0  0  0  0  0
    9.3520  -15.6909   24.6146 C   0  0  0  0  0  0  0  0  0  0  0  0
    9.5730  -16.9429   24.7785 O   0  0  0  0  0  0  0  0  0  0  0  0
    9.7327  -14.7753   25.6129 N   0  0  0  0  0  0  0  0  0  0  0  0
   10.3109  -15.2499   26.8422 C   0  0  1  0  0  0  0  0  0  0  0  0
   10.2227  -14.2447   27.9418 C   0  0  0  0  0  0  0  0  0  0  0  0
   10.6919  -14.8354   29.2096 C   0  0  0  0  0  0  0  0  0  0  0  0
   11.1172  -16.1652   29.3676 C   0  0  0  0  0  0  0  0  0  0  0  0
   11.4678  -16.3829   30.6299 N   0  0  0  0  0  0  0  0  0  0  0  0
   11.2840  -15.2370   31.2933 C   0  0  0  0  0  0  0  0  0  0  0  0
   10.8199  -14.3122   30.4418 N   0  0  0  0  0  0  0  0  0  0  0  0
    9.5872  -16.4785   27.2263 C   0  0  0  0  0  0  0  0  0  0  0  0
   10.2325  -17.4759   27.6856 O   0  0  0  0  0  0  0  0  0  0  0  0
    8.2303  -16.5571   27.0966 O   0  0  0  0  0  0  0  0  0  0  0  0
  2  3  1  0
  2  1  1  1
  3  4  1  0
  4  5  1  0
  5  9  1  0
  5  6  2  0
  7  2  1  0
  8  7  2  0
 11 12  1  0
 11 10  1  0
 12 13  1  0
 14 13  1  1
 14 15  1  0
 15  7  1  0
 16 14  1  0
 16 17  2  0
 18 16  1  0
 19 18  1  0
 19 20  1  1
 21 20  1  0
 22 21  2  0
 23 22  1  0
 24 23  1  0
 24 25  2  0
 25 21  1  0
 26 19  1  0
 26 28  1  0
 27 26  2  0
M  END
$$$$
