EMH.pdb
     RDKit          3D

 28 28  0  0  1  0  0  0  0  0999 V2000
    8.5582  -15.5624   18.8647 N   0  0  0  0  0  0  0  0  0  0  0  0
    7.6656  -15.8443   19.9648 C   0  0  1  0  0  0  0  0  0  0  0  0
    7.2289  -17.2835   19.9436 C   0  0  0  0  0  0  0  0  0  0  0  0
    7.9985  -18.0690   18.8919 C   0  0  0  0  0  0  0  0  0  0  0  0
    7.7030  -19.5082   18.9822 C   0  0  0  0  0  0  0  0  0  0  0  0
    8.3326  -20.3582   18.3179 O   0  0  0  0  0  0  0  0  0  0  0  0
    8.2905  -15.5514   21.2748 C   0  0  0  0  0  0  0  0  0  0  0  0
    9.5359  -15.6034   21.3594 O   0  0  0  0  0  0  0  0  0  0  0  0
    6.6739  -19.9151   19.8544 O   0  0  0  0  0  0  0  0  0  0  0  0
    6.4867  -10.6019   26.5777 C   0  0  0  0  0  0  0  0  0  0  0  0
    6.1739  -12.3639   26.2825 S   0  0  0  0  0  0  0  0  0  0  0  0
    7.3402  -12.9435   25.0246 C   0  0  0  0  0  0  0  0  0  0  0  0
    7.1178  -14.3958   24.6870 C   0  0  0  0  0  0  0  0  0  0  0  0
    8.1218  -14.9143   23.7167 C   0  0  2  0  0  0  0  0  0  0  0  0
    7.5475  -15.2191   22.4323 N   0  0  0  0  0  0  0  0  0  0  0  0
    8.9070  -16.0611   24.2037 C   0  0  0  0  0  0  0  0  0  0  0  0
    8.2594  -17.1603   24.3289 O   0  0  0  0  0  0  0  0  0  0  0  0
   10.2758  -16.0135   24.5262 N   0  0  0  0  0  0  0  0  0  0  0  0
   10.6904  -15.9923   25.9040 C   0  0  1  0  0  0  0  0  0  0  0  0
    9.7729  -15.1904   26.7656 C   0  0  0  0  0  0  0  0  0  0  0  0
   10.2348  -15.2205   28.1663 C   0  0  0  0  0  0  0  0  0  0  0  0
   10.1345  -16.3305   29.0218 C   0  0  0  0  0  0  0  0  0  0  0  0
   10.6334  -16.0305   30.2155 N   0  0  0  0  0  0  0  0  0  0  0  0
   11.0539  -14.7628   30.1596 C   0  0  0  0  0  0  0  0  0  0  0  0
   10.8148  -14.2799   28.9328 N   0  0  0  0  0  0  0  0  0  0  0  0
   10.7279  -17.3909   26.3765 C   0  0  0  0  0  0  0  0  0  0  0  0
    9.8642  -18.2255   25.9527 O   0  0  0  0  0  0  0  0  0  0  0  0
   11.6817  -17.8015   27.2629 O   0  0  0  0  0  0  0  0  0  0  0  0
  2  3  1  0
  2  1  1  6
  3  4  1  0
  4  5  1  0
  5  9  1  0
  5  6  2  0
  7  2  1  0
  8  7  2  0
 11 12  1  0
 11 10  1  0
 12 13  1  0
 14 13  1  1
 14 15  1  0
 15  7  1  0
 16 14  1  0
 16 17  2  0
 18 16  1  0
 19 18  1  0
 19 20  1  1
 21 20  1  0
 22 21  2  0
 23 22  1  0
 24 23  1  0
 24 25  2  0
 25 21  1  0
 26 19  1  0
 26 28  1  0
 27 26  2  0
M  END
$$$$
