EMH.pdb
     RDKit          3D

 28 28  0  0  1  0  0  0  0  0999 V2000
    8.0729  -14.5923   19.4340 N   0  0  0  0  0  0  0  0  0  0  0  0
    7.6358  -15.5323   20.4398 C   0  0  1  0  0  0  0  0  0  0  0  0
    7.9164  -16.9457   20.0085 C   0  0  0  0  0  0  0  0  0  0  0  0
    7.3569  -17.9414   21.0138 C   0  0  0  0  0  0  0  0  0  0  0  0
    7.6128  -19.3270   20.5877 C   0  0  0  0  0  0  0  0  0  0  0  0
    7.0893  -19.8141   19.5635 O   0  0  0  0  0  0  0  0  0  0  0  0
    8.2893  -15.2902   21.7462 C   0  0  0  0  0  0  0  0  0  0  0  0
    9.4951  -14.9633   21.7514 O   0  0  0  0  0  0  0  0  0  0  0  0
    8.4811  -20.1080   21.3761 O   0  0  0  0  0  0  0  0  0  0  0  0
    7.3353  -11.5793   27.2329 C   0  0  0  0  0  0  0  0  0  0  0  0
    6.0429  -12.1350   26.0882 S   0  0  0  0  0  0  0  0  0  0  0  0
    6.8323  -13.0658   24.7507 C   0  0  0  0  0  0  0  0  0  0  0  0
    7.2166  -14.4553   25.1915 C   0  0  0  0  0  0  0  0  0  0  0  0
    8.1920  -15.0961   24.2661 C   0  0  2  0  0  0  0  0  0  0  0  0
    7.6169  -15.4134   22.9851 N   0  0  0  0  0  0  0  0  0  0  0  0
    8.8742  -16.2780   24.8199 C   0  0  0  0  0  0  0  0  0  0  0  0
    8.1367  -17.3130   24.9879 O   0  0  0  0  0  0  0  0  0  0  0  0
   10.2386  -16.3267   25.1610 N   0  0  0  0  0  0  0  0  0  0  0  0
   10.7669  -17.4718   25.8539 C   0  0  1  0  0  0  0  0  0  0  0  0
   12.2105  -17.7051   25.5564 C   0  0  0  0  0  0  0  0  0  0  0  0
   12.3780  -18.1348   24.1551 C   0  0  0  0  0  0  0  0  0  0  0  0
   11.3428  -18.6050   23.3297 C   0  0  0  0  0  0  0  0  0  0  0  0
   11.8233  -18.9164   22.1314 N   0  0  0  0  0  0  0  0  0  0  0  0
   13.1354  -18.6620   22.1546 C   0  0  0  0  0  0  0  0  0  0  0  0
   13.4655  -18.1943   23.3662 N   0  0  0  0  0  0  0  0  0  0  0  0
   10.5843  -17.2368   27.3004 C   0  0  0  0  0  0  0  0  0  0  0  0
   10.9617  -18.1192   28.1377 O   0  0  0  0  0  0  0  0  0  0  0  0
   10.0161  -16.0804   27.7520 O   0  0  0  0  0  0  0  0  0  0  0  0
  2  3  1  0
  2  1  1  6
  3  4  1  0
  4  5  1  0
  5  9  1  0
  5  6  2  0
  7  2  1  0
  8  7  2  0
 11 12  1  0
 11 10  1  0
 12 13  1  0
 14 13  1  1
 14 15  1  0
 15  7  1  0
 16 14  1  0
 16 17  2  0
 18 16  1  0
 19 18  1  0
 19 20  1  1
 21 20  1  0
 22 21  2  0
 23 22  1  0
 24 23  1  0
 24 25  2  0
 25 21  1  0
 26 19  1  0
 26 28  1  0
 27 26  2  0
M  END
$$$$
