DVH.pdb
     RDKit          3D

 26 26  0  0  1  0  0  0  0  0999 V2000
   21.9464  -17.0933  -15.4288 N   0  0  0  0  0  0  0  0  0  0  0  0
   21.9219  -15.9544  -16.2945 C   0  0  1  0  0  0  0  0  0  0  0  0
   20.6003  -15.8347  -17.0051 C   0  0  0  0  0  0  0  0  0  0  0  0
   20.4323  -17.0503  -17.8740 C   0  0  0  0  0  0  0  0  0  0  0  0
   21.4038  -17.5423  -18.5109 O   0  0  0  0  0  0  0  0  0  0  0  0
   22.1446  -14.7203  -15.5000 C   0  0  0  0  0  0  0  0  0  0  0  0
   21.4497  -14.4780  -14.4832 O   0  0  0  0  0  0  0  0  0  0  0  0
   19.2060  -17.6482  -17.9875 O   0  0  0  0  0  0  0  0  0  0  0  0
   25.5123  -12.1603  -16.5524 C   0  0  0  0  0  0  0  0  0  0  0  0
   24.9296  -12.2435  -15.1688 C   0  0  1  0  0  0  0  0  0  0  0  0
   25.1927  -10.9768  -14.3704 C   0  0  0  0  0  0  0  0  0  0  0  0
   23.4549  -12.5861  -15.1868 C   0  0  2  0  0  0  0  0  0  0  0  0
   23.1517  -13.7917  -15.8805 N   0  0  0  0  0  0  0  0  0  0  0  0
   22.7101  -11.4684  -15.8146 C   0  0  0  0  0  0  0  0  0  0  0  0
   22.5418  -11.3749  -17.0588 O   0  0  0  0  0  0  0  0  0  0  0  0
   22.1648  -10.4619  -14.9748 N   0  0  0  0  0  0  0  0  0  0  0  0
   21.4679   -9.3100  -15.4983 C   0  0  1  0  0  0  0  0  0  0  0  0
   19.9747   -9.4087  -15.3942 C   0  0  0  0  0  0  0  0  0  0  0  0
   19.4780  -10.4082  -16.3561 C   0  0  0  0  0  0  0  0  0  0  0  0
   19.6425  -10.3748  -17.7083 C   0  0  0  0  0  0  0  0  0  0  0  0
   19.0360  -11.4759  -18.1992 N   0  0  0  0  0  0  0  0  0  0  0  0
   18.5114  -12.1684  -17.1690 C   0  0  0  0  0  0  0  0  0  0  0  0
   18.7834  -11.5084  -16.0180 N   0  0  0  0  0  0  0  0  0  0  0  0
   21.9714   -8.1036  -14.7618 C   0  0  0  0  0  0  0  0  0  0  0  0
   22.7376   -8.2691  -13.7705 O   0  0  0  0  0  0  0  0  0  0  0  0
   21.6287   -6.8221  -15.1270 O   0  0  0  0  0  0  0  0  0  0  0  0
  2  6  1  0
  2  1  1  1
  3  2  1  0
  3  4  1  0
  4  8  1  0
  4  5  2  0
  6  7  2  0
 10  9  1  6
 10 11  1  0
 10 12  1  0
 12 14  1  0
 12 13  1  6
 13  6  1  0
 14 15  2  0
 16 14  1  0
 16 17  1  0
 17 24  1  0
 17 18  1  1
 19 18  1  0
 19 20  2  0
 21 20  1  0
 22 21  1  0
 23 22  2  0
 23 19  1  0
 24 25  2  0
 24 26  1  0
M  END
$$$$
