DVH.pdb
     RDKit          3D

 26 26  0  0  1  0  0  0  0  0999 V2000
   26.7718  -21.7325  -16.9509 N   0  0  0  0  0  0  0  0  0  0  0  0
   25.4965  -21.6309  -17.5916 C   0  0  1  0  0  0  0  0  0  0  0  0
   24.9370  -22.9900  -17.9168 C   0  0  0  0  0  0  0  0  0  0  0  0
   23.6592  -22.7910  -18.6839 C   0  0  0  0  0  0  0  0  0  0  0  0
   23.6261  -22.0977  -19.7373 O   0  0  0  0  0  0  0  0  0  0  0  0
   24.5433  -20.9300  -16.6948 C   0  0  0  0  0  0  0  0  0  0  0  0
   24.4242  -21.2713  -15.4928 O   0  0  0  0  0  0  0  0  0  0  0  0
   22.4980  -23.3674  -18.2437 O   0  0  0  0  0  0  0  0  0  0  0  0
   22.2924  -17.5099  -18.2641 C   0  0  0  0  0  0  0  0  0  0  0  0
   22.6778  -17.6711  -16.8197 C   0  0  1  0  0  0  0  0  0  0  0  0
   21.7302  -16.9210  -15.8974 C   0  0  0  0  0  0  0  0  0  0  0  0
   22.8005  -19.1256  -16.4175 C   0  0  2  0  0  0  0  0  0  0  0  0
   23.7489  -19.8581  -17.1860 N   0  0  0  0  0  0  0  0  0  0  0  0
   21.4729  -19.7729  -16.5458 C   0  0  0  0  0  0  0  0  0  0  0  0
   21.0535  -20.2597  -17.6285 O   0  0  0  0  0  0  0  0  0  0  0  0
   20.6410  -19.8453  -15.3977 N   0  0  0  0  0  0  0  0  0  0  0  0
   19.3198  -20.4279  -15.4339 C   0  0  1  0  0  0  0  0  0  0  0  0
   19.2016  -21.7054  -14.6565 C   0  0  0  0  0  0  0  0  0  0  0  0
   17.8478  -22.2620  -14.8250 C   0  0  0  0  0  0  0  0  0  0  0  0
   16.8418  -21.7207  -15.5674 C   0  0  0  0  0  0  0  0  0  0  0  0
   15.7831  -22.5489  -15.4469 N   0  0  0  0  0  0  0  0  0  0  0  0
   16.1340  -23.5755  -14.6475 C   0  0  0  0  0  0  0  0  0  0  0  0
   17.4193  -23.4025  -14.2567 N   0  0  0  0  0  0  0  0  0  0  0  0
   18.3580  -19.4004  -14.9135 C   0  0  0  0  0  0  0  0  0  0  0  0
   17.1174  -19.6084  -15.0349 O   0  0  0  0  0  0  0  0  0  0  0  0
   18.7784  -18.2385  -14.3082 O   0  0  0  0  0  0  0  0  0  0  0  0
  2  6  1  0
  2  1  1  1
  3  2  1  0
  3  4  1  0
  4  8  1  0
  4  5  2  0
  6  7  2  0
 10  9  1  6
 10 11  1  0
 10 12  1  0
 12 14  1  0
 12 13  1  6
 13  6  1  0
 14 15  2  0
 16 14  1  0
 16 17  1  0
 17 24  1  0
 17 18  1  1
 19 18  1  0
 19 20  2  0
 21 20  1  0
 22 21  1  0
 23 22  2  0
 23 19  1  0
 24 25  2  0
 24 26  1  0
M  END
$$$$
