DVH.pdb
     RDKit          3D

 26 26  0  0  1  0  0  0  0  0999 V2000
   15.9678   -8.8860   -9.6679 N   0  0  0  0  0  0  0  0  0  0  0  0
   16.7059   -8.9260  -10.8930 C   0  0  1  0  0  0  0  0  0  0  0  0
   15.7880   -8.9171  -12.0860 C   0  0  0  0  0  0  0  0  0  0  0  0
   15.0315  -10.2166  -12.0954 C   0  0  0  0  0  0  0  0  0  0  0  0
   15.3213  -11.1515  -11.2996 O   0  0  0  0  0  0  0  0  0  0  0  0
   17.5989   -7.7429  -10.9750 C   0  0  0  0  0  0  0  0  0  0  0  0
   17.2675   -6.6517  -10.4509 O   0  0  0  0  0  0  0  0  0  0  0  0
   14.0037  -10.4056  -12.9798 O   0  0  0  0  0  0  0  0  0  0  0  0
   20.0861   -6.4745   -9.1908 C   0  0  0  0  0  0  0  0  0  0  0  0
   20.7762   -6.8540  -10.4716 C   0  0  1  0  0  0  0  0  0  0  0  0
   21.4665   -8.2040  -10.3602 C   0  0  0  0  0  0  0  0  0  0  0  0
   19.8414   -6.8107  -11.6618 C   0  0  2  0  0  0  0  0  0  0  0  0
   18.8467   -7.8290  -11.6509 N   0  0  0  0  0  0  0  0  0  0  0  0
   20.6408   -6.9309  -12.9046 C   0  0  0  0  0  0  0  0  0  0  0  0
   21.2796   -7.9730  -13.2063 O   0  0  0  0  0  0  0  0  0  0  0  0
   20.6865   -5.8223  -13.7903 N   0  0  0  0  0  0  0  0  0  0  0  0
   21.3977   -5.8634  -15.0468 C   0  0  1  0  0  0  0  0  0  0  0  0
   20.5068   -5.7554  -16.2488 C   0  0  0  0  0  0  0  0  0  0  0  0
   19.6136   -6.9257  -16.3076 C   0  0  0  0  0  0  0  0  0  0  0  0
   19.9414   -8.1660  -16.7666 C   0  0  0  0  0  0  0  0  0  0  0  0
   18.8359   -8.9298  -16.6409 N   0  0  0  0  0  0  0  0  0  0  0  0
   17.8523   -8.1727  -16.1162 C   0  0  0  0  0  0  0  0  0  0  0  0
   18.3305   -6.9230  -15.9062 N   0  0  0  0  0  0  0  0  0  0  0  0
   22.4052   -4.7515  -15.0329 C   0  0  0  0  0  0  0  0  0  0  0  0
   22.3379   -3.8779  -14.1222 O   0  0  0  0  0  0  0  0  0  0  0  0
   23.4009   -4.6485  -15.9769 O   0  0  0  0  0  0  0  0  0  0  0  0
  2  6  1  0
  2  1  1  1
  3  2  1  0
  3  4  1  0
  4  8  1  0
  4  5  2  0
  6  7  2  0
 10  9  1  1
 10 11  1  0
 10 12  1  0
 12 14  1  0
 12 13  1  1
 13  6  1  0
 14 15  2  0
 16 14  1  0
 16 17  1  0
 17 24  1  0
 17 18  1  6
 19 18  1  0
 19 20  2  0
 21 20  1  0
 22 21  1  0
 23 22  2  0
 23 19  1  0
 24 25  2  0
 24 26  1  0
M  END
$$$$
