DVH.pdb
     RDKit          3D

 26 26  0  0  1  0  0  0  0  0999 V2000
   17.4677  -14.3117  -17.5786 N   0  0  0  0  0  0  0  0  0  0  0  0
   17.4278  -13.2162  -16.6592 C   0  0  1  0  0  0  0  0  0  0  0  0
   18.1223  -13.5588  -15.3684 C   0  0  0  0  0  0  0  0  0  0  0  0
   17.3630  -14.6834  -14.7208 C   0  0  0  0  0  0  0  0  0  0  0  0
   16.1189  -14.6093  -14.5247 O   0  0  0  0  0  0  0  0  0  0  0  0
   18.1014  -12.0375  -17.2598 C   0  0  0  0  0  0  0  0  0  0  0  0
   19.0707  -12.1831  -18.0438 O   0  0  0  0  0  0  0  0  0  0  0  0
   18.0201  -15.8189  -14.3295 O   0  0  0  0  0  0  0  0  0  0  0  0
   16.9538   -9.7355  -19.7528 C   0  0  0  0  0  0  0  0  0  0  0  0
   17.1807   -8.8902  -18.5303 C   0  0  1  0  0  0  0  0  0  0  0  0
   15.8725   -8.5290  -17.8452 C   0  0  0  0  0  0  0  0  0  0  0  0
   18.1505   -9.5321  -17.5608 C   0  0  2  0  0  0  0  0  0  0  0  0
   17.6569  -10.7219  -16.9547 N   0  0  0  0  0  0  0  0  0  0  0  0
   18.4859   -8.5535  -16.4988 C   0  0  0  0  0  0  0  0  0  0  0  0
   17.7478   -8.3528  -15.4987 O   0  0  0  0  0  0  0  0  0  0  0  0
   19.6909   -7.8122  -16.6171 N   0  0  0  0  0  0  0  0  0  0  0  0
   20.1103   -6.8517  -15.6231 C   0  0  1  0  0  0  0  0  0  0  0  0
   21.5821   -6.8843  -15.3350 C   0  0  0  0  0  0  0  0  0  0  0  0
   21.9453   -8.1958  -14.7702 C   0  0  0  0  0  0  0  0  0  0  0  0
   21.1985   -8.9322  -13.9005 C   0  0  0  0  0  0  0  0  0  0  0  0
   21.8995  -10.0566  -13.6444 N   0  0  0  0  0  0  0  0  0  0  0  0
   23.0511  -10.0091  -14.3428 C   0  0  0  0  0  0  0  0  0  0  0  0
   23.0856   -8.8522  -15.0462 N   0  0  0  0  0  0  0  0  0  0  0  0
   19.6949   -5.4925  -16.1042 C   0  0  0  0  0  0  0  0  0  0  0  0
   19.8729   -4.4962  -15.3474 O   0  0  0  0  0  0  0  0  0  0  0  0
   19.1265   -5.2913  -17.3409 O   0  0  0  0  0  0  0  0  0  0  0  0
  2  6  1  0
  2  1  1  6
  3  2  1  0
  3  4  1  0
  4  8  1  0
  4  5  2  0
  6  7  2  0
 10  9  1  6
 10 11  1  0
 10 12  1  0
 12 14  1  0
 12 13  1  1
 13  6  1  0
 14 15  2  0
 16 14  1  0
 16 17  1  0
 17 24  1  0
 17 18  1  6
 19 18  1  0
 19 20  2  0
 21 20  1  0
 22 21  1  0
 23 22  2  0
 23 19  1  0
 24 25  2  0
 24 26  1  0
M  END
$$$$
