DVH.pdb
     RDKit          3D

 26 26  0  0  1  0  0  0  0  0999 V2000
   21.9711  -21.3677  -14.2457 N   0  0  0  0  0  0  0  0  0  0  0  0
   22.3203  -20.5191  -13.1480 C   0  0  1  0  0  0  0  0  0  0  0  0
   21.1376  -20.2691  -12.2510 C   0  0  0  0  0  0  0  0  0  0  0  0
   20.1949  -19.3495  -12.9767 C   0  0  0  0  0  0  0  0  0  0  0  0
   20.4983  -18.8439  -14.0920 O   0  0  0  0  0  0  0  0  0  0  0  0
   23.3942  -21.1582  -12.3466 C   0  0  0  0  0  0  0  0  0  0  0  0
   23.2908  -22.3514  -11.9715 O   0  0  0  0  0  0  0  0  0  0  0  0
   18.9776  -19.0441  -12.4297 O   0  0  0  0  0  0  0  0  0  0  0  0
   26.9286  -21.5903  -13.4293 C   0  0  0  0  0  0  0  0  0  0  0  0
   26.9831  -20.8405  -12.1272 C   0  0  1  0  0  0  0  0  0  0  0  0
   27.3589  -19.3818  -12.3331 C   0  0  0  0  0  0  0  0  0  0  0  0
   25.6991  -20.9713  -11.3355 C   0  0  2  0  0  0  0  0  0  0  0  0
   24.5596  -20.4254  -11.9912 N   0  0  0  0  0  0  0  0  0  0  0  0
   25.8715  -20.2967  -10.0266 C   0  0  0  0  0  0  0  0  0  0  0  0
   25.4501  -19.1323   -9.7989 O   0  0  0  0  0  0  0  0  0  0  0  0
   26.5407  -20.9954   -8.9876 N   0  0  0  0  0  0  0  0  0  0  0  0
   26.8536  -20.3817   -7.7180 C   0  0  1  0  0  0  0  0  0  0  0  0
   27.2604  -21.3615   -6.6575 C   0  0  0  0  0  0  0  0  0  0  0  0
   27.7747  -20.6336   -5.4843 C   0  0  0  0  0  0  0  0  0  0  0  0
   29.0636  -20.2402   -5.2827 C   0  0  0  0  0  0  0  0  0  0  0  0
   29.0935  -19.6090   -4.0903 N   0  0  0  0  0  0  0  0  0  0  0  0
   27.8491  -19.6160   -3.5731 C   0  0  0  0  0  0  0  0  0  0  0  0
   27.0228  -20.2529   -4.4369 N   0  0  0  0  0  0  0  0  0  0  0  0
   27.9429  -19.3778   -7.9573 C   0  0  0  0  0  0  0  0  0  0  0  0
   28.8533  -19.6514   -8.7899 O   0  0  0  0  0  0  0  0  0  0  0  0
   27.9864  -18.1686   -7.3021 O   0  0  0  0  0  0  0  0  0  0  0  0
  2  6  1  0
  2  1  1  6
  3  2  1  0
  3  4  1  0
  4  8  1  0
  4  5  2  0
  6  7  2  0
 10  9  1  6
 10 11  1  0
 10 12  1  0
 12 14  1  0
 12 13  1  6
 13  6  1  0
 14 15  2  0
 16 14  1  0
 16 17  1  0
 17 24  1  0
 17 18  1  1
 19 18  1  0
 19 20  2  0
 21 20  1  0
 22 21  1  0
 23 22  2  0
 23 19  1  0
 24 25  2  0
 24 26  1  0
M  END
$$$$
