DVH.pdb
     RDKit          3D

 26 26  0  0  1  0  0  0  0  0999 V2000
   28.1915  -21.3880  -16.0750 N   0  0  0  0  0  0  0  0  0  0  0  0
   27.4305  -20.4148  -15.3532 C   0  0  1  0  0  0  0  0  0  0  0  0
   26.7956  -19.4161  -16.2834 C   0  0  0  0  0  0  0  0  0  0  0  0
   27.8969  -18.6169  -16.9232 C   0  0  0  0  0  0  0  0  0  0  0  0
   29.0823  -19.0465  -16.9637 O   0  0  0  0  0  0  0  0  0  0  0  0
   26.3570  -21.0929  -14.5839 C   0  0  0  0  0  0  0  0  0  0  0  0
   25.7279  -22.0605  -15.0770 O   0  0  0  0  0  0  0  0  0  0  0  0
   27.6246  -17.3954  -17.4781 O   0  0  0  0  0  0  0  0  0  0  0  0
   26.6475  -21.6198  -10.5749 C   0  0  0  0  0  0  0  0  0  0  0  0
   25.2936  -21.0932  -10.9627 C   0  0  1  0  0  0  0  0  0  0  0  0
   25.0956  -19.6575  -10.5035 C   0  0  0  0  0  0  0  0  0  0  0  0
   25.0245  -21.2387  -12.4455 C   0  0  2  0  0  0  0  0  0  0  0  0
   26.0248  -20.6545  -13.2729 N   0  0  0  0  0  0  0  0  0  0  0  0
   23.7157  -20.6167  -12.7591 C   0  0  0  0  0  0  0  0  0  0  0  0
   23.4749  -19.3973  -12.5586 O   0  0  0  0  0  0  0  0  0  0  0  0
   22.6923  -21.4329  -13.3084 N   0  0  0  0  0  0  0  0  0  0  0  0
   21.3768  -20.9228  -13.6175 C   0  0  1  0  0  0  0  0  0  0  0  0
   20.9665  -21.1354  -15.0447 C   0  0  0  0  0  0  0  0  0  0  0  0
   21.7289  -20.2259  -15.9179 C   0  0  0  0  0  0  0  0  0  0  0  0
   22.0167  -18.9187  -15.6631 C   0  0  0  0  0  0  0  0  0  0  0  0
   22.7287  -18.4667  -16.7166 N   0  0  0  0  0  0  0  0  0  0  0  0
   22.8736  -19.4762  -17.5975 C   0  0  0  0  0  0  0  0  0  0  0  0
   22.2529  -20.5750  -17.1057 N   0  0  0  0  0  0  0  0  0  0  0  0
   20.4050  -21.5822  -12.6834 C   0  0  0  0  0  0  0  0  0  0  0  0
   20.6210  -22.7725  -12.3181 O   0  0  0  0  0  0  0  0  0  0  0  0
   19.2859  -20.9369  -12.2097 O   0  0  0  0  0  0  0  0  0  0  0  0
  2  6  1  0
  2  1  1  6
  3  2  1  0
  3  4  1  0
  4  8  1  0
  4  5  2  0
  6  7  2  0
 10  9  1  6
 10 11  1  0
 10 12  1  0
 12 14  1  0
 12 13  1  6
 13  6  1  0
 14 15  2  0
 16 14  1  0
 16 17  1  0
 17 24  1  0
 17 18  1  6
 19 18  1  0
 19 20  2  0
 21 20  1  0
 22 21  1  0
 23 22  2  0
 23 19  1  0
 24 25  2  0
 24 26  1  0
M  END
$$$$
