DVH.pdb
     RDKit          3D

 26 26  0  0  1  0  0  0  0  0999 V2000
   23.6984  -15.8036  -16.7362 N   0  0  0  0  0  0  0  0  0  0  0  0
   23.2432  -14.5701  -17.3004 C   0  0  1  0  0  0  0  0  0  0  0  0
   21.7760  -14.6278  -17.6320 C   0  0  0  0  0  0  0  0  0  0  0  0
   21.5941  -15.6193  -18.7476 C   0  0  0  0  0  0  0  0  0  0  0  0
   20.5659  -16.3468  -18.8192 O   0  0  0  0  0  0  0  0  0  0  0  0
   23.4657  -13.4674  -16.3316 C   0  0  0  0  0  0  0  0  0  0  0  0
   23.0768  -13.5701  -15.1427 O   0  0  0  0  0  0  0  0  0  0  0  0
   22.5549  -15.7482  -19.7143 O   0  0  0  0  0  0  0  0  0  0  0  0
   25.9622   -9.3441  -15.2021 C   0  0  0  0  0  0  0  0  0  0  0  0
   25.7620  -10.5683  -16.0517 C   0  0  1  0  0  0  0  0  0  0  0  0
   26.8340  -11.6147  -15.7924 C   0  0  0  0  0  0  0  0  0  0  0  0
   24.3739  -11.1530  -15.8979 C   0  0  2  0  0  0  0  0  0  0  0  0
   24.1246  -12.2750  -16.7379 N   0  0  0  0  0  0  0  0  0  0  0  0
   23.3737  -10.0988  -16.1921 C   0  0  0  0  0  0  0  0  0  0  0  0
   23.2316   -9.5942  -17.3368 O   0  0  0  0  0  0  0  0  0  0  0  0
   22.5425   -9.6404  -15.1365 N   0  0  0  0  0  0  0  0  0  0  0  0
   21.5150   -8.6450  -15.3360 C   0  0  1  0  0  0  0  0  0  0  0  0
   20.2690   -8.8950  -14.5392 C   0  0  0  0  0  0  0  0  0  0  0  0
   19.5433  -10.0452  -15.1060 C   0  0  0  0  0  0  0  0  0  0  0  0
   19.8552  -10.7061  -16.2560 C   0  0  0  0  0  0  0  0  0  0  0  0
   18.9389  -11.6864  -16.3996 N   0  0  0  0  0  0  0  0  0  0  0  0
   18.0843  -11.6266  -15.3594 C   0  0  0  0  0  0  0  0  0  0  0  0
   18.4555  -10.6061  -14.5499 N   0  0  0  0  0  0  0  0  0  0  0  0
   22.1058   -7.3097  -14.9900 C   0  0  0  0  0  0  0  0  0  0  0  0
   21.4276   -6.2664  -15.2104 O   0  0  0  0  0  0  0  0  0  0  0  0
   23.3607   -7.1800  -14.4409 O   0  0  0  0  0  0  0  0  0  0  0  0
  2  6  1  0
  2  1  1  1
  3  2  1  0
  3  4  1  0
  4  8  1  0
  4  5  2  0
  6  7  2  0
 10  9  1  1
 10 11  1  0
 10 12  1  0
 12 14  1  0
 12 13  1  6
 13  6  1  0
 14 15  2  0
 16 14  1  0
 16 17  1  0
 17 24  1  0
 17 18  1  1
 19 18  1  0
 19 20  2  0
 21 20  1  0
 22 21  1  0
 23 22  2  0
 23 19  1  0
 24 25  2  0
 24 26  1  0
M  END
$$$$
