DVH.pdb
     RDKit          3D

 26 26  0  0  1  0  0  0  0  0999 V2000
   21.7275  -16.1279  -15.1815 N   0  0  0  0  0  0  0  0  0  0  0  0
   22.0048  -15.1531  -16.1914 C   0  0  1  0  0  0  0  0  0  0  0  0
   20.7754  -14.8379  -17.0008 C   0  0  0  0  0  0  0  0  0  0  0  0
   20.2924  -16.1185  -17.6232 C   0  0  0  0  0  0  0  0  0  0  0  0
   19.0643  -16.4030  -17.6725 O   0  0  0  0  0  0  0  0  0  0  0  0
   22.4860  -13.9007  -15.5558 C   0  0  0  0  0  0  0  0  0  0  0  0
   21.9309  -13.4509  -14.5238 O   0  0  0  0  0  0  0  0  0  0  0  0
   21.1909  -17.0056  -18.1523 O   0  0  0  0  0  0  0  0  0  0  0  0
   26.1806  -10.5985  -15.1695 C   0  0  0  0  0  0  0  0  0  0  0  0
   25.6407  -11.8886  -15.7216 C   0  0  1  0  0  0  0  0  0  0  0  0
   26.3406  -13.0956  -15.1180 C   0  0  0  0  0  0  0  0  0  0  0  0
   24.1376  -11.9924  -15.5719 C   0  0  2  0  0  0  0  0  0  0  0  0
   23.5863  -13.1901  -16.1087 N   0  0  0  0  0  0  0  0  0  0  0  0
   23.5071  -10.8292  -16.2410 C   0  0  0  0  0  0  0  0  0  0  0  0
   23.3226  -10.7760  -17.4853 O   0  0  0  0  0  0  0  0  0  0  0  0
   23.0952   -9.7300  -15.4426 N   0  0  0  0  0  0  0  0  0  0  0  0
   22.1283   -8.7594  -15.9002 C   0  0  1  0  0  0  0  0  0  0  0  0
   20.8093   -9.3583  -16.2898 C   0  0  0  0  0  0  0  0  0  0  0  0
   19.9025   -8.2943  -16.7550 C   0  0  0  0  0  0  0  0  0  0  0  0
   20.2150   -6.9757  -16.8970 C   0  0  0  0  0  0  0  0  0  0  0  0
   19.1010   -6.3602  -17.3458 N   0  0  0  0  0  0  0  0  0  0  0  0
   18.1274   -7.2828  -17.4757 C   0  0  0  0  0  0  0  0  0  0  0  0
   18.6204   -8.4899  -17.1091 N   0  0  0  0  0  0  0  0  0  0  0  0
   21.9485   -7.7493  -14.8053 C   0  0  0  0  0  0  0  0  0  0  0  0
   21.9611   -6.5205  -15.1000 O   0  0  0  0  0  0  0  0  0  0  0  0
   21.7701   -8.1130  -13.4904 O   0  0  0  0  0  0  0  0  0  0  0  0
  2  6  1  0
  2  1  1  1
  3  2  1  0
  3  4  1  0
  4  8  1  0
  4  5  2  0
  6  7  2  0
 10  9  1  1
 10 11  1  0
 10 12  1  0
 12 14  1  0
 12 13  1  6
 13  6  1  0
 14 15  2  0
 16 14  1  0
 16 17  1  0
 17 24  1  0
 17 18  1  1
 19 18  1  0
 19 20  2  0
 21 20  1  0
 22 21  1  0
 23 22  2  0
 23 19  1  0
 24 25  2  0
 24 26  1  0
M  END
$$$$
