DVH.pdb
     RDKit          3D

 26 26  0  0  1  0  0  0  0  0999 V2000
   17.2741  -11.6427  -16.0283 N   0  0  0  0  0  0  0  0  0  0  0  0
   17.9360  -10.5220  -16.6225 C   0  0  1  0  0  0  0  0  0  0  0  0
   16.9600   -9.4295  -16.9683 C   0  0  0  0  0  0  0  0  0  0  0  0
   16.1333   -9.9013  -18.1323 C   0  0  0  0  0  0  0  0  0  0  0  0
   16.5839  -10.7376  -18.9624 O   0  0  0  0  0  0  0  0  0  0  0  0
   18.9395   -9.9763  -15.6743 C   0  0  0  0  0  0  0  0  0  0  0  0
   18.6537   -9.8101  -14.4634 O   0  0  0  0  0  0  0  0  0  0  0  0
   14.8628   -9.4232  -18.3099 O   0  0  0  0  0  0  0  0  0  0  0  0
   23.7342   -9.1777  -14.7397 C   0  0  0  0  0  0  0  0  0  0  0  0
   22.6291   -9.8079  -15.5411 C   0  0  1  0  0  0  0  0  0  0  0  0
   22.5505  -11.3082  -15.3087 C   0  0  0  0  0  0  0  0  0  0  0  0
   21.2914   -9.1424  -15.2962 C   0  0  2  0  0  0  0  0  0  0  0  0
   20.2433   -9.6329  -16.1253 N   0  0  0  0  0  0  0  0  0  0  0  0
   21.4345   -7.6827  -15.5130 C   0  0  0  0  0  0  0  0  0  0  0  0
   21.8626   -7.1922  -16.5907 O   0  0  0  0  0  0  0  0  0  0  0  0
   21.0732   -6.8029  -14.4590 N   0  0  0  0  0  0  0  0  0  0  0  0
   21.2676   -5.3740  -14.5417 C   0  0  1  0  0  0  0  0  0  0  0  0
   20.0109   -4.5808  -14.3374 C   0  0  0  0  0  0  0  0  0  0  0  0
   19.1576   -4.6914  -15.5334 C   0  0  0  0  0  0  0  0  0  0  0  0
   19.5729   -5.0080  -16.7918 C   0  0  0  0  0  0  0  0  0  0  0  0
   18.4743   -4.9997  -17.5755 N   0  0  0  0  0  0  0  0  0  0  0  0
   17.4091   -4.6846  -16.8126 C   0  0  0  0  0  0  0  0  0  0  0  0
   17.8282   -4.4913  -15.5392 N   0  0  0  0  0  0  0  0  0  0  0  0
   22.3024   -4.9986  -13.5221 C   0  0  0  0  0  0  0  0  0  0  0  0
   22.7673   -3.8235  -13.5280 O   0  0  0  0  0  0  0  0  0  0  0  0
   22.7641   -5.8886  -12.5798 O   0  0  0  0  0  0  0  0  0  0  0  0
  2  6  1  0
  2  1  1  1
  3  2  1  0
  3  4  1  0
  4  8  1  0
  4  5  2  0
  6  7  2  0
 10  9  1  1
 10 11  1  0
 10 12  1  0
 12 14  1  0
 12 13  1  6
 13  6  1  0
 14 15  2  0
 16 14  1  0
 16 17  1  0
 17 24  1  0
 17 18  1  1
 19 18  1  0
 19 20  2  0
 21 20  1  0
 22 21  1  0
 23 22  2  0
 23 19  1  0
 24 25  2  0
 24 26  1  0
M  END
$$$$
