DVH.pdb
     RDKit          3D

 26 26  0  0  1  0  0  0  0  0999 V2000
   19.5178  -13.1473  -16.6307 N   0  0  0  0  0  0  0  0  0  0  0  0
   19.5597  -11.7833  -17.0606 C   0  0  1  0  0  0  0  0  0  0  0  0
   18.1859  -11.2763  -17.4091 C   0  0  0  0  0  0  0  0  0  0  0  0
   17.6736  -12.0903  -18.5649 C   0  0  0  0  0  0  0  0  0  0  0  0
   18.3297  -12.1945  -19.6373 O   0  0  0  0  0  0  0  0  0  0  0  0
   20.1146  -10.9361  -15.9751 C   0  0  0  0  0  0  0  0  0  0  0  0
   19.5884  -10.9274  -14.8356 O   0  0  0  0  0  0  0  0  0  0  0  0
   16.4716  -12.7385  -18.4680 O   0  0  0  0  0  0  0  0  0  0  0  0
   23.5542  -11.0362  -14.4783 C   0  0  0  0  0  0  0  0  0  0  0  0
   23.3599   -9.6488  -15.0243 C   0  0  1  0  0  0  0  0  0  0  0  0
   24.1626   -9.4271  -16.2962 C   0  0  0  0  0  0  0  0  0  0  0  0
   21.8981   -9.3128  -15.2307 C   0  0  2  0  0  0  0  0  0  0  0  0
   21.2542  -10.1194  -16.2112 N   0  0  0  0  0  0  0  0  0  0  0  0
   21.7842   -7.8888  -15.6274 C   0  0  0  0  0  0  0  0  0  0  0  0
   22.0153   -7.4865  -16.7978 O   0  0  0  0  0  0  0  0  0  0  0  0
   21.3984   -6.9407  -14.6437 N   0  0  0  0  0  0  0  0  0  0  0  0
   21.2840   -5.5296  -14.9307 C   0  0  1  0  0  0  0  0  0  0  0  0
   19.9397   -4.9528  -14.5984 C   0  0  0  0  0  0  0  0  0  0  0  0
   18.9496   -5.4049  -15.5915 C   0  0  0  0  0  0  0  0  0  0  0  0
   19.2164   -5.8272  -16.8591 C   0  0  0  0  0  0  0  0  0  0  0  0
   18.0304   -6.1467  -17.4182 N   0  0  0  0  0  0  0  0  0  0  0  0
   17.0584   -5.9246  -16.5116 C   0  0  0  0  0  0  0  0  0  0  0  0
   17.6246   -5.4624  -15.3714 N   0  0  0  0  0  0  0  0  0  0  0  0
   22.3663   -4.8238  -14.1678 C   0  0  0  0  0  0  0  0  0  0  0  0
   22.9735   -5.4472  -13.2514 O   0  0  0  0  0  0  0  0  0  0  0  0
   22.7220   -3.5209  -14.4302 O   0  0  0  0  0  0  0  0  0  0  0  0
  2  6  1  0
  2  1  1  1
  3  2  1  0
  3  4  1  0
  4  8  1  0
  4  5  2  0
  6  7  2  0
 10  9  1  6
 10 11  1  0
 10 12  1  0
 12 14  1  0
 12 13  1  6
 13  6  1  0
 14 15  2  0
 16 14  1  0
 16 17  1  0
 17 24  1  0
 17 18  1  1
 19 18  1  0
 19 20  2  0
 21 20  1  0
 22 21  1  0
 23 22  2  0
 23 19  1  0
 24 25  2  0
 24 26  1  0
M  END
$$$$
