DVH.pdb
     RDKit          3D

 26 26  0  0  1  0  0  0  0  0999 V2000
   22.9476  -12.3126  -18.1639 N   0  0  0  0  0  0  0  0  0  0  0  0
   23.0964  -10.8938  -18.0547 C   0  0  1  0  0  0  0  0  0  0  0  0
   22.9514  -10.2231  -19.3945 C   0  0  0  0  0  0  0  0  0  0  0  0
   24.0524  -10.7290  -20.2849 C   0  0  0  0  0  0  0  0  0  0  0  0
   25.2177  -10.9240  -19.8429 O   0  0  0  0  0  0  0  0  0  0  0  0
   22.0586  -10.3533  -17.1410 C   0  0  0  0  0  0  0  0  0  0  0  0
   20.8735  -10.7620  -17.2031 O   0  0  0  0  0  0  0  0  0  0  0  0
   23.8019  -10.9884  -21.6056 O   0  0  0  0  0  0  0  0  0  0  0  0
   21.3366  -10.7419  -13.6791 C   0  0  0  0  0  0  0  0  0  0  0  0
   21.6731   -9.2838  -13.8253 C   0  0  1  0  0  0  0  0  0  0  0  0
   23.0716   -8.9752  -13.3153 C   0  0  0  0  0  0  0  0  0  0  0  0
   21.4837   -8.7907  -15.2443 C   0  0  2  0  0  0  0  0  0  0  0  0
   22.3932   -9.3613  -16.1790 N   0  0  0  0  0  0  0  0  0  0  0  0
   21.6341   -7.3159  -15.2640 C   0  0  0  0  0  0  0  0  0  0  0  0
   22.7502   -6.7459  -15.3846 O   0  0  0  0  0  0  0  0  0  0  0  0
   20.4686   -6.5146  -15.1412 N   0  0  0  0  0  0  0  0  0  0  0  0
   20.4657   -5.1009  -15.4373 C   0  0  1  0  0  0  0  0  0  0  0  0
   21.1441   -4.7531  -16.7292 C   0  0  0  0  0  0  0  0  0  0  0  0
   21.1022   -3.2942  -16.9314 C   0  0  0  0  0  0  0  0  0  0  0  0
   21.6515   -2.3525  -16.1142 C   0  0  0  0  0  0  0  0  0  0  0  0
   21.3816   -1.1528  -16.6702 N   0  0  0  0  0  0  0  0  0  0  0  0
   20.6819   -1.3562  -17.8038 C   0  0  0  0  0  0  0  0  0  0  0  0
   20.5045   -2.6884  -17.9721 N   0  0  0  0  0  0  0  0  0  0  0  0
   19.0364   -4.6444  -15.4502 C   0  0  0  0  0  0  0  0  0  0  0  0
   18.1558   -5.4085  -15.9377 O   0  0  0  0  0  0  0  0  0  0  0  0
   18.6494   -3.4226  -14.9497 O   0  0  0  0  0  0  0  0  0  0  0  0
  2  6  1  0
  2  1  1  6
  3  2  1  0
  3  4  1  0
  4  8  1  0
  4  5  2  0
  6  7  2  0
 10  9  1  6
 10 11  1  0
 10 12  1  0
 12 14  1  0
 12 13  1  6
 13  6  1  0
 14 15  2  0
 16 14  1  0
 16 17  1  0
 17 24  1  0
 17 18  1  6
 19 18  1  0
 19 20  2  0
 21 20  1  0
 22 21  1  0
 23 22  2  0
 23 19  1  0
 24 25  2  0
 24 26  1  0
M  END
$$$$
