DVH.pdb
     RDKit          3D

 26 26  0  0  1  0  0  0  0  0999 V2000
   17.8659  -13.0998  -16.4216 N   0  0  0  0  0  0  0  0  0  0  0  0
   18.2724  -11.8723  -17.0339 C   0  0  1  0  0  0  0  0  0  0  0  0
   17.0850  -11.0739  -17.5016 C   0  0  0  0  0  0  0  0  0  0  0  0
   16.3864  -11.8692  -18.5694 C   0  0  0  0  0  0  0  0  0  0  0  0
   17.0344  -12.5008  -19.4484 O   0  0  0  0  0  0  0  0  0  0  0  0
   19.0346  -11.0564  -16.0555 C   0  0  0  0  0  0  0  0  0  0  0  0
   18.5633  -10.8134  -14.9178 O   0  0  0  0  0  0  0  0  0  0  0  0
   15.0187  -11.9196  -18.6029 O   0  0  0  0  0  0  0  0  0  0  0  0
   23.4928   -9.3084  -14.7575 C   0  0  0  0  0  0  0  0  0  0  0  0
   22.6056  -10.2311  -15.5462 C   0  0  1  0  0  0  0  0  0  0  0  0
   22.7617  -11.6769  -15.1031 C   0  0  0  0  0  0  0  0  0  0  0  0
   21.1548   -9.7992  -15.5132 C   0  0  2  0  0  0  0  0  0  0  0  0
   20.3138  -10.5365  -16.3940 N   0  0  0  0  0  0  0  0  0  0  0  0
   21.0742   -8.3604  -15.8616 C   0  0  0  0  0  0  0  0  0  0  0  0
   21.3367   -7.9217  -17.0121 O   0  0  0  0  0  0  0  0  0  0  0  0
   20.6847   -7.4403  -14.8531 N   0  0  0  0  0  0  0  0  0  0  0  0
   20.6058   -6.0177  -15.0909 C   0  0  1  0  0  0  0  0  0  0  0  0
   19.3469   -5.3877  -14.5729 C   0  0  0  0  0  0  0  0  0  0  0  0
   19.3231   -3.9604  -14.9376 C   0  0  0  0  0  0  0  0  0  0  0  0
   20.0436   -2.9666  -14.3463 C   0  0  0  0  0  0  0  0  0  0  0  0
   19.7230   -1.8227  -14.9865 N   0  0  0  0  0  0  0  0  0  0  0  0
   18.8252   -2.1105  -15.9494 C   0  0  0  0  0  0  0  0  0  0  0  0
   18.5719   -3.4408  -15.9241 N   0  0  0  0  0  0  0  0  0  0  0  0
   21.8121   -5.3862  -14.4605 C   0  0  0  0  0  0  0  0  0  0  0  0
   22.2335   -5.8399  -13.3589 O   0  0  0  0  0  0  0  0  0  0  0  0
   22.4770   -4.3296  -15.0392 O   0  0  0  0  0  0  0  0  0  0  0  0
  2  6  1  0
  2  1  1  1
  3  2  1  0
  3  4  1  0
  4  8  1  0
  4  5  2  0
  6  7  2  0
 10  9  1  1
 10 11  1  0
 10 12  1  0
 12 14  1  0
 12 13  1  6
 13  6  1  0
 14 15  2  0
 16 14  1  0
 16 17  1  0
 17 24  1  0
 17 18  1  1
 19 18  1  0
 19 20  2  0
 21 20  1  0
 22 21  1  0
 23 22  2  0
 23 19  1  0
 24 25  2  0
 24 26  1  0
M  END
$$$$
