DVH.pdb
     RDKit          3D

 26 26  0  0  1  0  0  0  0  0999 V2000
   24.8567  -16.0912  -15.7129 N   0  0  0  0  0  0  0  0  0  0  0  0
   24.0828  -15.1043  -16.4016 C   0  0  1  0  0  0  0  0  0  0  0  0
   22.6476  -15.5353  -16.5443 C   0  0  0  0  0  0  0  0  0  0  0  0
   22.6212  -16.7769  -17.3919 C   0  0  0  0  0  0  0  0  0  0  0  0
   23.3756  -16.9042  -18.3949 O   0  0  0  0  0  0  0  0  0  0  0  0
   24.1196  -13.8267  -15.6464 C   0  0  0  0  0  0  0  0  0  0  0  0
   23.8764  -13.8021  -14.4153 O   0  0  0  0  0  0  0  0  0  0  0  0
   21.7663  -17.8006  -17.0826 O   0  0  0  0  0  0  0  0  0  0  0  0
   25.9637   -9.3086  -15.2646 C   0  0  0  0  0  0  0  0  0  0  0  0
   25.8989  -10.6759  -15.8869 C   0  0  1  0  0  0  0  0  0  0  0  0
   27.0375  -11.5646  -15.4124 C   0  0  0  0  0  0  0  0  0  0  0  0
   24.5558  -11.3410  -15.6722 C   0  0  2  0  0  0  0  0  0  0  0  0
   24.4318  -12.6082  -16.3090 N   0  0  0  0  0  0  0  0  0  0  0  0
   23.4893  -10.4423  -16.1753 C   0  0  0  0  0  0  0  0  0  0  0  0
   23.3812  -10.1251  -17.3889 O   0  0  0  0  0  0  0  0  0  0  0  0
   22.5516   -9.9183  -15.2470 N   0  0  0  0  0  0  0  0  0  0  0  0
   21.4703   -9.0477  -15.6460 C   0  0  1  0  0  0  0  0  0  0  0  0
   20.1143   -9.5436  -15.2394 C   0  0  0  0  0  0  0  0  0  0  0  0
   19.0808   -8.6199  -15.7391 C   0  0  0  0  0  0  0  0  0  0  0  0
   19.0376   -8.0550  -16.9782 C   0  0  0  0  0  0  0  0  0  0  0  0
   17.9308   -7.2835  -17.0133 N   0  0  0  0  0  0  0  0  0  0  0  0
   17.3100   -7.3745  -15.8208 C   0  0  0  0  0  0  0  0  0  0  0  0
   18.0215   -8.2057  -15.0224 N   0  0  0  0  0  0  0  0  0  0  0  0
   21.7380   -7.6943  -15.0557 C   0  0  0  0  0  0  0  0  0  0  0  0
   22.3238   -7.6205  -13.9384 O   0  0  0  0  0  0  0  0  0  0  0  0
   21.3684   -6.5294  -15.6877 O   0  0  0  0  0  0  0  0  0  0  0  0
  2  6  1  0
  2  1  1  1
  3  2  1  0
  3  4  1  0
  4  8  1  0
  4  5  2  0
  6  7  2  0
 10  9  1  1
 10 11  1  0
 10 12  1  0
 12 14  1  0
 12 13  1  6
 13  6  1  0
 14 15  2  0
 16 14  1  0
 16 17  1  0
 17 24  1  0
 17 18  1  1
 19 18  1  0
 19 20  2  0
 21 20  1  0
 22 21  1  0
 23 22  2  0
 23 19  1  0
 24 25  2  0
 24 26  1  0
M  END
$$$$
