CRR.pdb
     RDKit          3D

 29 28  0  0  1  0  0  0  0  0999 V2000
   19.5150  -11.6720  -15.0362 N   0  0  0  0  0  0  0  0  0  0  0  0
   18.2986  -10.9986  -15.4017 C   0  0  1  0  0  0  0  0  0  0  0  0
   17.1019  -11.5385  -14.6514 C   0  0  0  0  0  0  0  0  0  0  0  0
   16.8843  -13.3098  -14.9663 S   0  0  0  0  0  0  0  0  0  0  0  0
   18.4061   -9.5441  -15.2294 C   0  0  0  0  0  0  0  0  0  0  0  0
   19.0897   -9.0949  -14.2525 O   0  0  0  0  0  0  0  0  0  0  0  0
   15.7984   -3.0957  -18.2692 N   0  0  0  0  0  0  0  0  0  0  0  0
   17.0030   -2.4415  -18.6492 C   0  0  0  0  0  0  0  0  0  0  0  0
   17.1343   -1.1708  -18.7251 N   0  0  0  0  0  0  0  0  0  0  0  0
   18.1331   -3.2599  -18.9649 N   0  0  0  0  0  0  0  0  0  0  0  0
   18.0669   -4.6964  -18.9217 C   0  0  0  0  0  0  0  0  0  0  0  0
   17.9320   -5.1543  -17.4562 C   0  0  0  0  0  0  0  0  0  0  0  0
   17.9095   -6.6392  -17.3819 C   0  0  0  0  0  0  0  0  0  0  0  0
   17.9246   -7.2013  -15.9857 C   0  0  2  0  0  0  0  0  0  0  0  0
   17.7729   -8.6603  -16.1159 N   0  0  0  0  0  0  0  0  0  0  0  0
   16.7929   -6.7314  -15.1405 C   0  0  0  0  0  0  0  0  0  0  0  0
   15.6022   -7.1310  -15.3787 O   0  0  0  0  0  0  0  0  0  0  0  0
   18.0585   -0.7364  -18.9589 N   0  0  0  0  0  0  0  0  0  0  0  0
   15.0318   -7.7737   -7.4462 C   0  0  0  0  0  0  0  0  0  0  0  0
   14.0905   -8.0185   -8.4567 N   0  0  0  0  0  0  0  0  0  0  0  0
   13.1805   -8.9498   -8.3607 N   0  0  0  0  0  0  0  0  0  0  0  0
   14.1167   -7.2311   -9.6355 C   0  0  0  0  0  0  0  0  0  0  0  0
   14.7441   -5.9249   -9.6738 C   0  0  0  0  0  0  0  0  0  0  0  0
   14.6723   -5.2750  -11.0407 C   0  0  0  0  0  0  0  0  0  0  0  0
   15.7513   -5.8831  -11.8878 C   0  0  1  0  0  0  0  0  0  0  0  0
   15.9098   -5.2881  -13.2315 N   0  0  0  0  0  0  0  0  0  0  0  0
   16.9589   -5.8407  -14.0477 C   0  0  0  0  0  0  0  0  0  0  0  0
   15.7758   -3.8143  -13.2982 O   0  0  0  0  0  0  0  0  0  0  0  0
   16.7839   -3.1262  -13.5500 O   0  0  0  0  0  0  0  0  0  0  0  0
  2  1  1  1
  2  5  1  0
  2  3  1  0
  4  3  1  0
  5  6  2  0
  7  8  1  0
  8  9  2  0
  8 10  1  0
 10 11  1  0
 11 12  1  0
 12 13  1  0
 14 13  1  6
 15 14  1  0
 15  5  1  0
 16 14  1  0
 17 16  2  0
 18 19  1  0
 19 20  2  0
 19 21  1  0
 21 22  1  0
 22 23  1  0
 23 24  1  0
 25 24  1  6
 25 27  1  0
 25 26  1  0
 26 16  1  0
 27 29  1  0
 28 27  2  0
M  END
$$$$
