CRR.pdb
     RDKit          3D

 29 28  0  0  1  0  0  0  0  0999 V2000
   15.8251  -21.9270  -12.1415 N   0  0  0  0  0  0  0  0  0  0  0  0
   16.8165  -22.1418  -11.1228 C   0  0  1  0  0  0  0  0  0  0  0  0
   16.7794  -21.0690  -10.0578 C   0  0  0  0  0  0  0  0  0  0  0  0
   17.1996  -19.4494  -10.7540 S   0  0  0  0  0  0  0  0  0  0  0  0
   16.7003  -23.4757  -10.5197 C   0  0  0  0  0  0  0  0  0  0  0  0
   15.5933  -23.8081   -9.9834 O   0  0  0  0  0  0  0  0  0  0  0  0
   21.2534  -29.6839   -8.6211 N   0  0  0  0  0  0  0  0  0  0  0  0
   20.4287  -30.6241   -9.2987 C   0  0  0  0  0  0  0  0  0  0  0  0
   20.2962  -31.8466   -8.9440 N   0  0  0  0  0  0  0  0  0  0  0  0
   19.7060  -30.1691  -10.4464 N   0  0  0  0  0  0  0  0  0  0  0  0
   19.7595  -28.7998  -10.8844 C   0  0  0  0  0  0  0  0  0  0  0  0
   18.7999  -27.9540  -10.0245 C   0  0  0  0  0  0  0  0  0  0  0  0
   18.7170  -26.5688  -10.5585 C   0  0  0  0  0  0  0  0  0  0  0  0
   17.6821  -25.6986   -9.8973 C   0  0  2  0  0  0  0  0  0  0  0  0
   17.7796  -24.3718  -10.5286 N   0  0  0  0  0  0  0  0  0  0  0  0
   17.9162  -25.4935   -8.4416 C   0  0  0  0  0  0  0  0  0  0  0  0
   18.9607  -24.8767   -8.0381 O   0  0  0  0  0  0  0  0  0  0  0  0
   19.7354  -32.5183   -9.5200 N   0  0  0  0  0  0  0  0  0  0  0  0
   13.2597  -21.6814   -3.4689 C   0  0  0  0  0  0  0  0  0  0  0  0
   13.0691  -22.9771   -3.9709 N   0  0  0  0  0  0  0  0  0  0  0  0
   11.8841  -23.4826   -4.1831 N   0  0  0  0  0  0  0  0  0  0  0  0
   14.1992  -23.7817   -4.2635 C   0  0  0  0  0  0  0  0  0  0  0  0
   15.2606  -23.9960   -3.2999 C   0  0  0  0  0  0  0  0  0  0  0  0
   16.3728  -24.8767   -3.8321 C   0  0  0  0  0  0  0  0  0  0  0  0
   16.1695  -25.0169   -5.3122 C   0  0  2  0  0  0  0  0  0  0  0  0
   17.1925  -25.8177   -6.0170 N   0  0  0  0  0  0  0  0  0  0  0  0
   17.0206  -25.9516   -7.4399 C   0  0  0  0  0  0  0  0  0  0  0  0
   17.6313  -27.0498   -5.3214 O   0  0  0  0  0  0  0  0  0  0  0  0
   17.2209  -28.1535   -5.7294 O   0  0  0  0  0  0  0  0  0  0  0  0
  2  1  1  6
  2  5  1  0
  2  3  1  0
  4  3  1  0
  5  6  2  0
  7  8  1  0
  8  9  2  0
  8 10  1  0
 10 11  1  0
 11 12  1  0
 12 13  1  0
 14 13  1  6
 15 14  1  0
 15  5  1  0
 16 14  1  0
 17 16  2  0
 18 19  1  0
 19 20  2  0
 19 21  1  0
 21 22  1  0
 22 23  1  0
 23 24  1  0
 25 24  1  6
 25 27  1  0
 25 26  1  0
 26 16  1  0
 27 29  1  0
 28 27  2  0
M  END
$$$$
