CRR.pdb
     RDKit          3D

 29 28  0  0  1  0  0  0  0  0999 V2000
   29.4966  -23.6765  -17.2002 N   0  0  0  0  0  0  0  0  0  0  0  0
   28.7766  -22.4432  -17.3648 C   0  0  1  0  0  0  0  0  0  0  0  0
   28.0841  -22.3635  -18.7067 C   0  0  0  0  0  0  0  0  0  0  0  0
   27.3024  -20.7449  -18.9378 S   0  0  0  0  0  0  0  0  0  0  0  0
   27.8202  -22.2187  -16.2733 C   0  0  0  0  0  0  0  0  0  0  0  0
   27.1092  -23.1981  -15.8747 O   0  0  0  0  0  0  0  0  0  0  0  0
   26.0369  -20.2260   -8.9198 N   0  0  0  0  0  0  0  0  0  0  0  0
   25.0452  -20.1667   -9.9378 C   0  0  0  0  0  0  0  0  0  0  0  0
   23.7866  -20.1264   -9.7097 N   0  0  0  0  0  0  0  0  0  0  0  0
   25.4885  -20.1516  -11.2979 N   0  0  0  0  0  0  0  0  0  0  0  0
   26.6025  -20.9458  -11.7429 C   0  0  0  0  0  0  0  0  0  0  0  0
   27.7005  -20.0157  -12.2951 C   0  0  0  0  0  0  0  0  0  0  0  0
   27.3978  -19.6423  -13.7022 C   0  0  0  0  0  0  0  0  0  0  0  0
   26.7867  -20.7415  -14.5291 C   0  0  2  0  0  0  0  0  0  0  0  0
   27.6848  -20.9566  -15.6761 N   0  0  0  0  0  0  0  0  0  0  0  0
   25.4540  -20.3936  -15.0937 C   0  0  0  0  0  0  0  0  0  0  0  0
   25.3038  -19.3238  -15.7773 O   0  0  0  0  0  0  0  0  0  0  0  0
   23.0931  -20.2372  -10.4871 N   0  0  0  0  0  0  0  0  0  0  0  0
   22.9671  -26.3998  -14.7940 C   0  0  0  0  0  0  0  0  0  0  0  0
   21.6633  -25.9766  -14.4970 N   0  0  0  0  0  0  0  0  0  0  0  0
   20.9890  -26.4363  -13.4779 N   0  0  0  0  0  0  0  0  0  0  0  0
   21.0400  -25.0120  -15.3283 C   0  0  0  0  0  0  0  0  0  0  0  0
   21.7679  -24.3019  -16.3613 C   0  0  0  0  0  0  0  0  0  0  0  0
   22.7707  -23.3124  -15.8034 C   0  0  0  0  0  0  0  0  0  0  0  0
   22.1014  -21.9703  -15.7527 C   0  0  2  0  0  0  0  0  0  0  0  0
   22.9527  -20.8576  -15.2817 N   0  0  0  0  0  0  0  0  0  0  0  0
   24.3018  -21.2040  -14.9182 C   0  0  0  0  0  0  0  0  0  0  0  0
   22.2925  -19.8843  -14.3810 O   0  0  0  0  0  0  0  0  0  0  0  0
   22.6921  -19.7810  -13.2051 O   0  0  0  0  0  0  0  0  0  0  0  0
  2  1  1  1
  2  5  1  0
  2  3  1  0
  4  3  1  0
  5  6  2  0
  7  8  1  0
  8  9  2  0
  8 10  1  0
 10 11  1  0
 11 12  1  0
 12 13  1  0
 14 13  1  1
 15 14  1  0
 15  5  1  0
 16 14  1  0
 17 16  2  0
 18 19  1  0
 19 20  2  0
 19 21  1  0
 21 22  1  0
 22 23  1  0
 23 24  1  0
 25 24  1  6
 25 27  1  0
 25 26  1  0
 26 16  1  0
 27 29  1  0
 28 27  2  0
M  END
$$$$
