CRR.pdb
     RDKit          3D

 29 28  0  0  1  0  0  0  0  0999 V2000
   29.9116  -21.3174  -10.2328 N   0  0  0  0  0  0  0  0  0  0  0  0
   28.6034  -21.7783   -9.8548 C   0  0  1  0  0  0  0  0  0  0  0  0
   28.4769  -21.9679   -8.3600 C   0  0  0  0  0  0  0  0  0  0  0  0
   28.4125  -20.3702   -7.5070 S   0  0  0  0  0  0  0  0  0  0  0  0
   27.5454  -20.8920  -10.3568 C   0  0  0  0  0  0  0  0  0  0  0  0
   27.7302  -19.6324  -10.3055 O   0  0  0  0  0  0  0  0  0  0  0  0
   25.1667  -21.8747  -17.1976 N   0  0  0  0  0  0  0  0  0  0  0  0
   25.3678  -20.5193  -17.5792 C   0  0  0  0  0  0  0  0  0  0  0  0
   24.8382  -19.9802  -18.6121 N   0  0  0  0  0  0  0  0  0  0  0  0
   26.2152  -19.7148  -16.7538 N   0  0  0  0  0  0  0  0  0  0  0  0
   26.8499  -20.2414  -15.5751 C   0  0  0  0  0  0  0  0  0  0  0  0
   25.8502  -20.2077  -14.4023 C   0  0  0  0  0  0  0  0  0  0  0  0
   26.4984  -20.7054  -13.1602 C   0  0  0  0  0  0  0  0  0  0  0  0
   25.6115  -20.7102  -11.9441 C   0  0  2  0  0  0  0  0  0  0  0  0
   26.3533  -21.4117  -10.8828 N   0  0  0  0  0  0  0  0  0  0  0  0
   24.3385  -21.4575  -12.1363 C   0  0  0  0  0  0  0  0  0  0  0  0
   24.3525  -22.6368  -12.6295 O   0  0  0  0  0  0  0  0  0  0  0  0
   25.0373  -18.9826  -18.8626 N   0  0  0  0  0  0  0  0  0  0  0  0
   19.2632  -24.1894   -7.3263 C   0  0  0  0  0  0  0  0  0  0  0  0
   18.6612  -24.1896   -8.5931 N   0  0  0  0  0  0  0  0  0  0  0  0
   18.3840  -25.2890   -9.2406 N   0  0  0  0  0  0  0  0  0  0  0  0
   18.3356  -22.9540   -9.2075 C   0  0  0  0  0  0  0  0  0  0  0  0
   19.3531  -21.9999   -9.6020 C   0  0  0  0  0  0  0  0  0  0  0  0
   19.4907  -21.8708  -11.1054 C   0  0  0  0  0  0  0  0  0  0  0  0
   20.6281  -20.9303  -11.3763 C   0  0  2  0  0  0  0  0  0  0  0  0
   21.7895  -21.5269  -12.0691 N   0  0  0  0  0  0  0  0  0  0  0  0
   23.0680  -20.9266  -11.7913 C   0  0  0  0  0  0  0  0  0  0  0  0
   21.5674  -21.8984  -13.4858 O   0  0  0  0  0  0  0  0  0  0  0  0
   21.9090  -21.1011  -14.3807 O   0  0  0  0  0  0  0  0  0  0  0  0
  2  1  1  1
  2  5  1  0
  2  3  1  0
  4  3  1  0
  5  6  2  0
  7  8  1  0
  8  9  2  0
  8 10  1  0
 10 11  1  0
 11 12  1  0
 12 13  1  0
 14 13  1  6
 15 14  1  0
 15  5  1  0
 16 14  1  0
 17 16  2  0
 18 19  1  0
 19 20  2  0
 19 21  1  0
 21 22  1  0
 22 23  1  0
 23 24  1  0
 25 24  1  1
 25 27  1  0
 25 26  1  0
 26 16  1  0
 27 29  1  0
 28 27  2  0
M  END
$$$$
