CRR.pdb
     RDKit          3D

 29 28  0  0  1  0  0  0  0  0999 V2000
   27.7117  -19.9649   -9.4560 N   0  0  0  0  0  0  0  0  0  0  0  0
   26.4950  -20.6874   -9.7098 C   0  0  1  0  0  0  0  0  0  0  0  0
   25.5220  -20.5858   -8.5567 C   0  0  0  0  0  0  0  0  0  0  0  0
   26.3966  -20.5744   -6.9695 S   0  0  0  0  0  0  0  0  0  0  0  0
   25.8593  -20.2638  -10.9640 C   0  0  0  0  0  0  0  0  0  0  0  0
   25.3483  -19.0982  -11.0252 O   0  0  0  0  0  0  0  0  0  0  0  0
   29.7424  -23.0250  -15.5317 N   0  0  0  0  0  0  0  0  0  0  0  0
   28.5384  -22.8071  -16.2572 C   0  0  0  0  0  0  0  0  0  0  0  0
   27.9679  -23.6951  -16.9809 N   0  0  0  0  0  0  0  0  0  0  0  0
   27.9334  -21.5137  -16.1683 N   0  0  0  0  0  0  0  0  0  0  0  0
   28.4814  -20.4739  -15.3388 C   0  0  0  0  0  0  0  0  0  0  0  0
   27.4506  -20.0897  -14.2592 C   0  0  0  0  0  0  0  0  0  0  0  0
   26.2124  -20.8971  -14.4206 C   0  0  0  0  0  0  0  0  0  0  0  0
   25.1833  -20.6967  -13.3407 C   0  0  2  0  0  0  0  0  0  0  0  0
   25.8102  -21.1173  -12.0763 N   0  0  0  0  0  0  0  0  0  0  0  0
   23.9672  -21.5380  -13.5111 C   0  0  0  0  0  0  0  0  0  0  0  0
   23.7818  -22.5601  -12.7660 O   0  0  0  0  0  0  0  0  0  0  0  0
   27.0703  -23.4895  -17.4805 N   0  0  0  0  0  0  0  0  0  0  0  0
   17.3248  -23.4142  -11.9459 C   0  0  0  0  0  0  0  0  0  0  0  0
   18.2003  -23.4960  -10.8532 N   0  0  0  0  0  0  0  0  0  0  0  0
   18.2587  -24.5425  -10.0747 N   0  0  0  0  0  0  0  0  0  0  0  0
   19.0616  -22.4059  -10.5703 C   0  0  0  0  0  0  0  0  0  0  0  0
   19.1267  -21.2360  -11.4237 C   0  0  0  0  0  0  0  0  0  0  0  0
   19.5236  -21.5654  -12.8484 C   0  0  0  0  0  0  0  0  0  0  0  0
   20.9888  -21.2738  -12.9885 C   0  0  2  0  0  0  0  0  0  0  0  0
   21.5530  -21.5064  -14.3347 N   0  0  0  0  0  0  0  0  0  0  0  0
   22.9649  -21.2652  -14.4787 C   0  0  0  0  0  0  0  0  0  0  0  0
   20.7199  -21.0388  -15.4668 O   0  0  0  0  0  0  0  0  0  0  0  0
   20.7325  -19.8295  -15.7679 O   0  0  0  0  0  0  0  0  0  0  0  0
  2  1  1  1
  2  5  1  0
  2  3  1  0
  4  3  1  0
  5  6  2  0
  7  8  1  0
  8  9  2  0
  8 10  1  0
 10 11  1  0
 11 12  1  0
 12 13  1  0
 14 13  1  6
 15 14  1  0
 15  5  1  0
 16 14  1  0
 17 16  2  0
 18 19  1  0
 19 20  2  0
 19 21  1  0
 21 22  1  0
 22 23  1  0
 23 24  1  0
 25 24  1  1
 25 27  1  0
 25 26  1  0
 26 16  1  0
 27 29  1  0
 28 27  2  0
M  END
$$$$
