CRR.pdb
     RDKit          3D

 29 28  0  0  1  0  0  0  0  0999 V2000
   27.7468  -21.4533  -10.0398 N   0  0  0  0  0  0  0  0  0  0  0  0
   26.4147  -20.9470  -10.2294 C   0  0  1  0  0  0  0  0  0  0  0  0
   26.1213  -19.7670   -9.3306 C   0  0  0  0  0  0  0  0  0  0  0  0
   26.1656  -20.2543   -7.5856 S   0  0  0  0  0  0  0  0  0  0  0  0
   26.1542  -20.6067  -11.6341 C   0  0  0  0  0  0  0  0  0  0  0  0
   27.1363  -20.2673  -12.3714 O   0  0  0  0  0  0  0  0  0  0  0  0
   25.5220  -24.9036  -18.1068 N   0  0  0  0  0  0  0  0  0  0  0  0
   25.2641  -25.3729  -16.7890 C   0  0  0  0  0  0  0  0  0  0  0  0
   25.4294  -26.5859  -16.4159 N   0  0  0  0  0  0  0  0  0  0  0  0
   24.7909  -24.4261  -15.8266 N   0  0  0  0  0  0  0  0  0  0  0  0
   25.6693  -23.8190  -14.8625 C   0  0  0  0  0  0  0  0  0  0  0  0
   24.8731  -22.8038  -14.0191 C   0  0  0  0  0  0  0  0  0  0  0  0
   25.2566  -21.4156  -14.3890 C   0  0  0  0  0  0  0  0  0  0  0  0
   24.5892  -20.3389  -13.5762 C   0  0  2  0  0  0  0  0  0  0  0  0
   24.8551  -20.6510  -12.1618 N   0  0  0  0  0  0  0  0  0  0  0  0
   23.1091  -20.3043  -13.7315 C   0  0  0  0  0  0  0  0  0  0  0  0
   22.3663  -21.0285  -12.9844 O   0  0  0  0  0  0  0  0  0  0  0  0
   25.2572  -26.8739  -15.4234 N   0  0  0  0  0  0  0  0  0  0  0  0
   17.5146  -14.4118  -15.0802 C   0  0  0  0  0  0  0  0  0  0  0  0
   18.8369  -13.9467  -15.0332 N   0  0  0  0  0  0  0  0  0  0  0  0
   19.1377  -12.7064  -14.7580 N   0  0  0  0  0  0  0  0  0  0  0  0
   19.8998  -14.8483  -15.2934 C   0  0  0  0  0  0  0  0  0  0  0  0
   19.6731  -16.2652  -15.4990 C   0  0  0  0  0  0  0  0  0  0  0  0
   20.9570  -17.0478  -15.6859 C   0  0  0  0  0  0  0  0  0  0  0  0
   20.5812  -18.4751  -15.9566 C   0  0  2  0  0  0  0  0  0  0  0  0
   21.0322  -19.4502  -14.9415 N   0  0  0  0  0  0  0  0  0  0  0  0
   22.4484  -19.4876  -14.6862 C   0  0  0  0  0  0  0  0  0  0  0  0
   20.3699  -20.7745  -14.9881 O   0  0  0  0  0  0  0  0  0  0  0  0
   20.8376  -21.6587  -15.7313 O   0  0  0  0  0  0  0  0  0  0  0  0
  2  1  1  6
  2  5  1  0
  2  3  1  0
  4  3  1  0
  5  6  2  0
  7  8  1  0
  8  9  2  0
  8 10  1  0
 10 11  1  0
 11 12  1  0
 12 13  1  0
 14 13  1  6
 15 14  1  0
 15  5  1  0
 16 14  1  0
 17 16  2  0
 18 19  1  0
 19 20  2  0
 19 21  1  0
 21 22  1  0
 22 23  1  0
 23 24  1  0
 25 24  1  1
 25 27  1  0
 25 26  1  0
 26 16  1  0
 27 29  1  0
 28 27  2  0
M  END
$$$$
