CRR.pdb
     RDKit          3D

 29 28  0  0  1  0  0  0  0  0999 V2000
   20.6591  -28.6746  -11.1476 N   0  0  0  0  0  0  0  0  0  0  0  0
   19.4433  -28.7767  -10.3872 C   0  0  1  0  0  0  0  0  0  0  0  0
   19.3215  -30.1105   -9.6854 C   0  0  0  0  0  0  0  0  0  0  0  0
   17.8303  -30.1684   -8.6573 S   0  0  0  0  0  0  0  0  0  0  0  0
   19.3030  -27.6719   -9.4299 C   0  0  0  0  0  0  0  0  0  0  0  0
   20.2545  -27.4493   -8.6122 O   0  0  0  0  0  0  0  0  0  0  0  0
   18.4025  -20.2500  -12.1719 N   0  0  0  0  0  0  0  0  0  0  0  0
   19.2064  -21.4142  -12.0253 C   0  0  0  0  0  0  0  0  0  0  0  0
   20.1306  -21.7537  -12.8429 N   0  0  0  0  0  0  0  0  0  0  0  0
   18.9617  -22.2530  -10.8925 N   0  0  0  0  0  0  0  0  0  0  0  0
   17.8204  -22.0617  -10.0378 C   0  0  0  0  0  0  0  0  0  0  0  0
   17.8054  -23.1610   -8.9575 C   0  0  0  0  0  0  0  0  0  0  0  0
   18.0286  -24.4939   -9.5776 C   0  0  0  0  0  0  0  0  0  0  0  0
   18.0834  -25.6411   -8.6048 C   0  0  2  0  0  0  0  0  0  0  0  0
   18.1498  -26.8735   -9.4081 N   0  0  0  0  0  0  0  0  0  0  0  0
   16.8705  -25.7574   -7.7497 C   0  0  0  0  0  0  0  0  0  0  0  0
   15.7708  -26.1796   -8.2463 O   0  0  0  0  0  0  0  0  0  0  0  0
   20.6698  -22.6421  -12.7099 N   0  0  0  0  0  0  0  0  0  0  0  0
   16.8548  -24.3782    0.5290 C   0  0  0  0  0  0  0  0  0  0  0  0
   16.1225  -23.3821   -0.1333 N   0  0  0  0  0  0  0  0  0  0  0  0
   15.9951  -22.1711    0.3379 N   0  0  0  0  0  0  0  0  0  0  0  0
   15.4893  -23.6884   -1.3644 C   0  0  0  0  0  0  0  0  0  0  0  0
   15.2142  -25.0529   -1.7688 C   0  0  0  0  0  0  0  0  0  0  0  0
   14.7413  -25.1596   -3.2044 C   0  0  0  0  0  0  0  0  0  0  0  0
   15.9567  -25.1329   -4.0840 C   0  0  2  0  0  0  0  0  0  0  0  0
   15.6969  -25.3271   -5.5260 N   0  0  0  0  0  0  0  0  0  0  0  0
   16.8588  -25.4215   -6.3705 C   0  0  0  0  0  0  0  0  0  0  0  0
   14.5787  -24.5337   -6.0870 O   0  0  0  0  0  0  0  0  0  0  0  0
   14.8279  -23.4465   -6.6429 O   0  0  0  0  0  0  0  0  0  0  0  0
  2  1  1  1
  2  5  1  0
  2  3  1  0
  4  3  1  0
  5  6  2  0
  7  8  1  0
  8  9  2  0
  8 10  1  0
 10 11  1  0
 11 12  1  0
 12 13  1  0
 14 13  1  6
 15 14  1  0
 15  5  1  0
 16 14  1  0
 17 16  2  0
 18 19  1  0
 19 20  2  0
 19 21  1  0
 21 22  1  0
 22 23  1  0
 23 24  1  0
 25 24  1  1
 25 27  1  0
 25 26  1  0
 26 16  1  0
 27 29  1  0
 28 27  2  0
M  END
$$$$
