CRR.pdb
     RDKit          3D

 29 28  0  0  1  0  0  0  0  0999 V2000
   24.3664  -23.4943  -16.4669 N   0  0  0  0  0  0  0  0  0  0  0  0
   23.3845  -24.4125  -15.9576 C   0  0  1  0  0  0  0  0  0  0  0  0
   24.0191  -25.6022  -15.2731 C   0  0  0  0  0  0  0  0  0  0  0  0
   25.3436  -26.3052  -16.2907 S   0  0  0  0  0  0  0  0  0  0  0  0
   22.4276  -23.7487  -15.0629 C   0  0  0  0  0  0  0  0  0  0  0  0
   22.3545  -22.4768  -15.0841 O   0  0  0  0  0  0  0  0  0  0  0  0
   16.3734  -19.5157  -15.4035 N   0  0  0  0  0  0  0  0  0  0  0  0
   17.4886  -19.9315  -16.1824 C   0  0  0  0  0  0  0  0  0  0  0  0
   17.9530  -19.2727  -17.1766 N   0  0  0  0  0  0  0  0  0  0  0  0
   18.1256  -21.1624  -15.8279 N   0  0  0  0  0  0  0  0  0  0  0  0
   17.4204  -22.2133  -15.1438 C   0  0  0  0  0  0  0  0  0  0  0  0
   18.2927  -22.7408  -13.9876 C   0  0  0  0  0  0  0  0  0  0  0  0
   19.5791  -23.2688  -14.5142 C   0  0  0  0  0  0  0  0  0  0  0  0
   20.4899  -23.8638  -13.4740 C   0  0  2  0  0  0  0  0  0  0  0  0
   21.6076  -24.4905  -14.1996 N   0  0  0  0  0  0  0  0  0  0  0  0
   19.8521  -24.9397  -12.6669 C   0  0  0  0  0  0  0  0  0  0  0  0
   19.2712  -25.9203  -13.2459 O   0  0  0  0  0  0  0  0  0  0  0  0
   18.7946  -19.6095  -17.7018 N   0  0  0  0  0  0  0  0  0  0  0  0
   15.2656  -26.4816   -5.6565 C   0  0  0  0  0  0  0  0  0  0  0  0
   16.0835  -25.3457   -5.5686 N   0  0  0  0  0  0  0  0  0  0  0  0
   16.1089  -24.5763   -4.5140 N   0  0  0  0  0  0  0  0  0  0  0  0
   16.9211  -25.0068   -6.6612 C   0  0  0  0  0  0  0  0  0  0  0  0
   16.5814  -25.3542   -8.0269 C   0  0  0  0  0  0  0  0  0  0  0  0
   17.4770  -24.6820   -9.0477 C   0  0  0  0  0  0  0  0  0  0  0  0
   18.7774  -25.4305   -9.0708 C   0  0  1  0  0  0  0  0  0  0  0  0
   19.2037  -25.9146  -10.4006 N   0  0  0  0  0  0  0  0  0  0  0  0
   19.8519  -24.9477  -11.2474 C   0  0  0  0  0  0  0  0  0  0  0  0
   18.2473  -26.8102  -11.0919 O   0  0  0  0  0  0  0  0  0  0  0  0
   18.2709  -28.0304  -10.8398 O   0  0  0  0  0  0  0  0  0  0  0  0
  2  1  1  1
  2  5  1  0
  2  3  1  0
  4  3  1  0
  5  6  2  0
  7  8  1  0
  8  9  2  0
  8 10  1  0
 10 11  1  0
 11 12  1  0
 12 13  1  0
 14 13  1  6
 15 14  1  0
 15  5  1  0
 16 14  1  0
 17 16  2  0
 18 19  1  0
 19 20  2  0
 19 21  1  0
 21 22  1  0
 22 23  1  0
 23 24  1  0
 25 24  1  1
 25 27  1  0
 25 26  1  0
 26 16  1  0
 27 29  1  0
 28 27  2  0
M  END
$$$$
