CRR.pdb
     RDKit          3D

 29 28  0  0  1  0  0  0  0  0999 V2000
   14.5606  -10.3209  -13.1806 N   0  0  0  0  0  0  0  0  0  0  0  0
   14.6250  -10.3636  -11.7451 C   0  0  1  0  0  0  0  0  0  0  0  0
   14.8295  -11.7692  -11.2263 C   0  0  0  0  0  0  0  0  0  0  0  0
   13.4107  -12.8220  -11.6300 S   0  0  0  0  0  0  0  0  0  0  0  0
   15.6559   -9.4607  -11.2171 C   0  0  0  0  0  0  0  0  0  0  0  0
   15.7793   -9.3486   -9.9539 O   0  0  0  0  0  0  0  0  0  0  0  0
   22.6682   -7.5162  -15.3417 N   0  0  0  0  0  0  0  0  0  0  0  0
   22.3880   -8.4237  -14.2828 C   0  0  0  0  0  0  0  0  0  0  0  0
   22.9844   -9.5448  -14.1242 N   0  0  0  0  0  0  0  0  0  0  0  0
   21.3761   -8.0549  -13.3412 N   0  0  0  0  0  0  0  0  0  0  0  0
   20.7445   -6.7627  -13.3716 C   0  0  0  0  0  0  0  0  0  0  0  0
   19.6473   -6.7085  -12.2904 C   0  0  0  0  0  0  0  0  0  0  0  0
   18.6088   -7.7379  -12.5602 C   0  0  0  0  0  0  0  0  0  0  0  0
   17.4873   -7.7806  -11.5572 C   0  0  2  0  0  0  0  0  0  0  0  0
   16.4914   -8.7325  -12.0772 N   0  0  0  0  0  0  0  0  0  0  0  0
   16.7839   -6.4791  -11.3922 C   0  0  0  0  0  0  0  0  0  0  0  0
   16.0243   -6.0357  -12.3200 O   0  0  0  0  0  0  0  0  0  0  0  0
   22.6915  -10.2104  -13.3700 N   0  0  0  0  0  0  0  0  0  0  0  0
   13.0850   -2.9522   -4.7657 C   0  0  0  0  0  0  0  0  0  0  0  0
   12.6268   -3.5905   -5.9275 N   0  0  0  0  0  0  0  0  0  0  0  0
   11.5079   -4.2621   -5.9672 N   0  0  0  0  0  0  0  0  0  0  0  0
   13.3997   -3.5123   -7.1136 C   0  0  0  0  0  0  0  0  0  0  0  0
   14.5185   -2.5998   -7.2433 C   0  0  0  0  0  0  0  0  0  0  0  0
   15.1885   -2.6758   -8.6003 C   0  0  0  0  0  0  0  0  0  0  0  0
   15.6758   -4.0828   -8.7858 C   0  0  1  0  0  0  0  0  0  0  0  0
   16.3852   -4.3430  -10.0561 N   0  0  0  0  0  0  0  0  0  0  0  0
   16.9042   -5.6745  -10.2289 C   0  0  0  0  0  0  0  0  0  0  0  0
   17.2787   -3.2578  -10.5235 O   0  0  0  0  0  0  0  0  0  0  0  0
   18.5080   -3.4597  -10.5590 O   0  0  0  0  0  0  0  0  0  0  0  0
  2  1  1  6
  2  5  1  0
  2  3  1  0
  4  3  1  0
  5  6  2  0
  7  8  1  0
  8  9  2  0
  8 10  1  0
 10 11  1  0
 11 12  1  0
 12 13  1  0
 14 13  1  6
 15 14  1  0
 15  5  1  0
 16 14  1  0
 17 16  2  0
 18 19  1  0
 19 20  2  0
 19 21  1  0
 21 22  1  0
 22 23  1  0
 23 24  1  0
 25 24  1  6
 25 27  1  0
 25 26  1  0
 26 16  1  0
 27 29  1  0
 28 27  2  0
M  END
$$$$
