CRR.pdb
     RDKit          3D

 29 28  0  0  1  0  0  0  0  0999 V2000
   27.8536  -22.3750  -11.5272 N   0  0  0  0  0  0  0  0  0  0  0  0
   27.5322  -21.0522  -11.0651 C   0  0  1  0  0  0  0  0  0  0  0  0
   28.7446  -20.3281  -10.5245 C   0  0  0  0  0  0  0  0  0  0  0  0
   30.2640  -21.2465  -10.8885 S   0  0  0  0  0  0  0  0  0  0  0  0
   26.8732  -20.2543  -12.1071 C   0  0  0  0  0  0  0  0  0  0  0  0
   26.4869  -19.0748  -11.8188 O   0  0  0  0  0  0  0  0  0  0  0  0
   28.9416  -22.0409  -18.5060 N   0  0  0  0  0  0  0  0  0  0  0  0
   27.9720  -21.0677  -18.8750 C   0  0  0  0  0  0  0  0  0  0  0  0
   27.1315  -21.2201  -19.8279 N   0  0  0  0  0  0  0  0  0  0  0  0
   27.9400  -19.8458  -18.1316 N   0  0  0  0  0  0  0  0  0  0  0  0
   28.8417  -19.5976  -17.0384 C   0  0  0  0  0  0  0  0  0  0  0  0
   28.0262  -19.2712  -15.7719 C   0  0  0  0  0  0  0  0  0  0  0  0
   26.8252  -20.1445  -15.6949 C   0  0  0  0  0  0  0  0  0  0  0  0
   26.0043  -19.9794  -14.4442 C   0  0  2  0  0  0  0  0  0  0  0  0
   26.6685  -20.7710  -13.3951 N   0  0  0  0  0  0  0  0  0  0  0  0
   24.6194  -20.5120  -14.5642 C   0  0  0  0  0  0  0  0  0  0  0  0
   24.4251  -21.7548  -14.7922 O   0  0  0  0  0  0  0  0  0  0  0  0
   26.4048  -20.4925  -20.0285 N   0  0  0  0  0  0  0  0  0  0  0  0
   18.5038  -22.9081  -10.4995 C   0  0  0  0  0  0  0  0  0  0  0  0
   18.0310  -23.1795  -11.7918 N   0  0  0  0  0  0  0  0  0  0  0  0
   16.7801  -23.4595  -12.0394 N   0  0  0  0  0  0  0  0  0  0  0  0
   18.9366  -23.1528  -12.8824 C   0  0  0  0  0  0  0  0  0  0  0  0
   20.2302  -22.5049  -12.7918 C   0  0  0  0  0  0  0  0  0  0  0  0
   20.1601  -21.0101  -13.0297 C   0  0  0  0  0  0  0  0  0  0  0  0
   21.5671  -20.4891  -13.0505 C   0  0  2  0  0  0  0  0  0  0  0  0
   22.0989  -20.1602  -14.3898 N   0  0  0  0  0  0  0  0  0  0  0  0
   23.4622  -19.7003  -14.4331 C   0  0  0  0  0  0  0  0  0  0  0  0
   21.1671  -19.4404  -15.2888 O   0  0  0  0  0  0  0  0  0  0  0  0
   21.4039  -18.2519  -15.5791 O   0  0  0  0  0  0  0  0  0  0  0  0
  2  1  1  6
  2  5  1  0
  2  3  1  0
  4  3  1  0
  5  6  2  0
  7  8  1  0
  8  9  2  0
  8 10  1  0
 10 11  1  0
 11 12  1  0
 12 13  1  0
 14 13  1  6
 15 14  1  0
 15  5  1  0
 16 14  1  0
 17 16  2  0
 18 19  1  0
 19 20  2  0
 19 21  1  0
 21 22  1  0
 22 23  1  0
 23 24  1  0
 25 24  1  6
 25 27  1  0
 25 26  1  0
 26 16  1  0
 27 29  1  0
 28 27  2  0
M  END
$$$$
