CRR.pdb
     RDKit          3D

 29 28  0  0  1  0  0  0  0  0999 V2000
   27.4451  -20.2919  -10.2324 N   0  0  0  0  0  0  0  0  0  0  0  0
   26.2870  -20.8885  -10.8403 C   0  0  1  0  0  0  0  0  0  0  0  0
   25.0268  -20.6195  -10.0491 C   0  0  0  0  0  0  0  0  0  0  0  0
   25.3445  -20.7251   -8.2681 S   0  0  0  0  0  0  0  0  0  0  0  0
   26.1233  -20.4647  -12.2368 C   0  0  0  0  0  0  0  0  0  0  0  0
   26.1341  -19.2182  -12.5009 O   0  0  0  0  0  0  0  0  0  0  0  0
   30.1700  -24.7456  -15.5912 N   0  0  0  0  0  0  0  0  0  0  0  0
   28.9504  -24.6310  -16.3141 C   0  0  0  0  0  0  0  0  0  0  0  0
   28.2764  -25.6304  -16.7440 N   0  0  0  0  0  0  0  0  0  0  0  0
   28.4520  -23.3153  -16.5733 N   0  0  0  0  0  0  0  0  0  0  0  0
   29.1562  -22.1373  -16.1417 C   0  0  0  0  0  0  0  0  0  0  0  0
   28.1806  -21.2091  -15.3918 C   0  0  0  0  0  0  0  0  0  0  0  0
   26.7956  -21.7434  -15.4761 C   0  0  0  0  0  0  0  0  0  0  0  0
   25.7773  -20.9873  -14.6658 C   0  0  2  0  0  0  0  0  0  0  0  0
   25.9576  -21.4045  -13.2650 N   0  0  0  0  0  0  0  0  0  0  0  0
   24.3692  -21.3090  -15.0259 C   0  0  0  0  0  0  0  0  0  0  0  0
   23.9494  -22.5151  -14.9681 O   0  0  0  0  0  0  0  0  0  0  0  0
   27.3701  -25.4925  -17.2511 N   0  0  0  0  0  0  0  0  0  0  0  0
   16.1140  -21.9927  -13.9380 C   0  0  0  0  0  0  0  0  0  0  0  0
   16.8327  -22.8387  -14.7953 N   0  0  0  0  0  0  0  0  0  0  0  0
   16.2828  -23.8517  -15.4086 N   0  0  0  0  0  0  0  0  0  0  0  0
   18.2125  -22.5964  -15.0136 C   0  0  0  0  0  0  0  0  0  0  0  0
   18.9083  -21.4920  -14.3833 C   0  0  0  0  0  0  0  0  0  0  0  0
   19.6214  -20.5984  -15.3778 C   0  0  0  0  0  0  0  0  0  0  0  0
   21.0213  -20.3928  -14.8781 C   0  0  1  0  0  0  0  0  0  0  0  0
   22.0850  -20.5706  -15.8887 N   0  0  0  0  0  0  0  0  0  0  0  0
   23.4308  -20.3274  -15.4395 C   0  0  0  0  0  0  0  0  0  0  0  0
   21.7743  -20.0539  -17.2419 O   0  0  0  0  0  0  0  0  0  0  0  0
   22.3748  -19.0434  -17.6560 O   0  0  0  0  0  0  0  0  0  0  0  0
  2  1  1  1
  2  5  1  0
  2  3  1  0
  4  3  1  0
  5  6  2  0
  7  8  1  0
  8  9  2  0
  8 10  1  0
 10 11  1  0
 11 12  1  0
 12 13  1  0
 14 13  1  6
 15 14  1  0
 15  5  1  0
 16 14  1  0
 17 16  2  0
 18 19  1  0
 19 20  2  0
 19 21  1  0
 21 22  1  0
 22 23  1  0
 23 24  1  0
 25 24  1  1
 25 27  1  0
 25 26  1  0
 26 16  1  0
 27 29  1  0
 28 27  2  0
M  END
$$$$
