CRR.pdb
     RDKit          3D

 29 28  0  0  1  0  0  0  0  0999 V2000
   27.6459  -21.5355  -10.7777 N   0  0  0  0  0  0  0  0  0  0  0  0
   26.2284  -21.4023  -10.9765 C   0  0  1  0  0  0  0  0  0  0  0  0
   25.5788  -20.5647   -9.8981 C   0  0  0  0  0  0  0  0  0  0  0  0
   23.7737  -20.7119   -9.9619 S   0  0  0  0  0  0  0  0  0  0  0  0
   25.9109  -20.8706  -12.3082 C   0  0  0  0  0  0  0  0  0  0  0  0
   26.4090  -19.7493  -12.6516 O   0  0  0  0  0  0  0  0  0  0  0  0
   29.6973  -23.5861  -16.8254 N   0  0  0  0  0  0  0  0  0  0  0  0
   28.7326  -24.5047  -16.3267 C   0  0  0  0  0  0  0  0  0  0  0  0
   29.0263  -25.6113  -15.7550 N   0  0  0  0  0  0  0  0  0  0  0  0
   27.3510  -24.1649  -16.4769 N   0  0  0  0  0  0  0  0  0  0  0  0
   26.9342  -22.9243  -17.0742 C   0  0  0  0  0  0  0  0  0  0  0  0
   26.6101  -21.9087  -15.9610 C   0  0  0  0  0  0  0  0  0  0  0  0
   25.1956  -22.0561  -15.5269 C   0  0  0  0  0  0  0  0  0  0  0  0
   24.7359  -21.0380  -14.5182 C   0  0  2  0  0  0  0  0  0  0  0  0
   25.0776  -21.5747  -13.1901 N   0  0  0  0  0  0  0  0  0  0  0  0
   23.2637  -20.8177  -14.5203 C   0  0  0  0  0  0  0  0  0  0  0  0
   22.4913  -21.6236  -13.8971 O   0  0  0  0  0  0  0  0  0  0  0  0
   28.2790  -26.2928  -15.4814 N   0  0  0  0  0  0  0  0  0  0  0  0
   18.2181  -14.3359  -18.1536 C   0  0  0  0  0  0  0  0  0  0  0  0
   17.5077  -14.7846  -17.0306 N   0  0  0  0  0  0  0  0  0  0  0  0
   16.4392  -14.1803  -16.5858 N   0  0  0  0  0  0  0  0  0  0  0  0
   17.9565  -15.9389  -16.3406 C   0  0  0  0  0  0  0  0  0  0  0  0
   19.1462  -16.6620  -16.7444 C   0  0  0  0  0  0  0  0  0  0  0  0
   19.3585  -17.9378  -15.9551 C   0  0  0  0  0  0  0  0  0  0  0  0
   20.8341  -18.2082  -15.9211 C   0  0  2  0  0  0  0  0  0  0  0  0
   21.2286  -19.4782  -15.2760 N   0  0  0  0  0  0  0  0  0  0  0  0
   22.6431  -19.7307  -15.1899 C   0  0  0  0  0  0  0  0  0  0  0  0
   20.4030  -20.6571  -15.6267 O   0  0  0  0  0  0  0  0  0  0  0  0
   20.7611  -21.3868  -16.5714 O   0  0  0  0  0  0  0  0  0  0  0  0
  2  1  1  1
  2  5  1  0
  2  3  1  0
  4  3  1  0
  5  6  2  0
  7  8  1  0
  8  9  2  0
  8 10  1  0
 10 11  1  0
 11 12  1  0
 12 13  1  0
 14 13  1  6
 15 14  1  0
 15  5  1  0
 16 14  1  0
 17 16  2  0
 18 19  1  0
 19 20  2  0
 19 21  1  0
 21 22  1  0
 22 23  1  0
 23 24  1  0
 25 24  1  1
 25 27  1  0
 25 26  1  0
 26 16  1  0
 27 29  1  0
 28 27  2  0
M  END
$$$$
