CSC.pdb
     RDKit          3D

 19 18  0  0  1  0  0  0  0  0999 V2000
    7.4988  -15.0978   19.1914 N   0  0  0  0  0  0  0  0  0  0  0  0
    8.4838  -14.6087   20.0987 C   0  0  1  0  0  0  0  0  0  0  0  0
    8.1046  -13.1595   20.4354 C   0  0  0  0  0  0  0  0  0  0  0  0
    8.5448  -12.0824   19.0247 S   0  0  0  0  0  0  0  0  0  0  0  0
    8.5622  -15.3351   21.3683 C   0  0  0  0  0  0  0  0  0  0  0  0
    7.4824  -15.6348   21.9421 O   0  0  0  0  0  0  0  0  0  0  0  0
   11.8286  -17.4878   22.6816 O   0  0  0  0  0  0  0  0  0  0  0  0
   10.5120  -17.8327   23.0492 C   0  0  0  0  0  0  0  0  0  0  0  0
    9.7574  -16.5171   23.2159 C   0  0  2  0  0  0  0  0  0  0  0  0
    9.7669  -15.7324   22.0108 N   0  0  0  0  0  0  0  0  0  0  0  0
   10.2505  -15.7638   24.3929 C   0  0  0  0  0  0  0  0  0  0  0  0
   11.1781  -14.9240   24.2627 O   0  0  0  0  0  0  0  0  0  0  0  0
    9.7244  -15.9350   25.7050 N   0  0  0  0  0  0  0  0  0  0  0  0
   10.3169  -15.2700   26.8682 C   0  0  1  0  0  0  0  0  0  0  0  0
    9.2826  -14.2466   27.3489 C   0  0  0  0  0  0  0  0  0  0  0  0
    9.9080  -13.4074   28.8410 S   0  0  0  0  0  0  0  0  0  0  0  0
   10.6665  -16.2215   27.9239 C   0  0  0  0  0  0  0  0  0  0  0  0
   10.0971  -17.3340   28.0314 O   0  0  0  0  0  0  0  0  0  0  0  0
   11.6557  -15.8966   28.8403 O   0  0  0  0  0  0  0  0  0  0  0  0
  2  5  1  0
  2  1  1  6
  3  2  1  0
  4  3  1  0
  5  6  2  0
  7  8  1  0
  9  8  1  6
 10  9  1  0
 10  5  1  0
 11 12  2  0
 11  9  1  0
 13 11  1  0
 14 17  1  0
 14 13  1  0
 14 15  1  1
 16 15  1  0
 17 19  1  0
 18 17  2  0
M  END
$$$$
