CSC.pdb
     RDKit          3D

 19 18  0  0  1  0  0  0  0  0999 V2000
    7.7114  -15.7405   16.0240 N   0  0  0  0  0  0  0  0  0  0  0  0
    8.6822  -15.2176   16.9278 C   0  0  1  0  0  0  0  0  0  0  0  0
    8.1122  -13.9082   17.4915 C   0  0  0  0  0  0  0  0  0  0  0  0
    8.0960  -12.6444   16.1699 S   0  0  0  0  0  0  0  0  0  0  0  0
    8.9811  -16.0807   18.0730 C   0  0  0  0  0  0  0  0  0  0  0  0
    8.0119  -16.5364   18.7349 O   0  0  0  0  0  0  0  0  0  0  0  0
   12.4931  -18.0875   18.5175 O   0  0  0  0  0  0  0  0  0  0  0  0
   11.3072  -18.6115   19.0711 C   0  0  0  0  0  0  0  0  0  0  0  0
   10.4935  -17.4125   19.5488 C   0  0  2  0  0  0  0  0  0  0  0  0
   10.2859  -16.4488   18.5019 N   0  0  0  0  0  0  0  0  0  0  0  0
   11.0884  -16.8144   20.7671 C   0  0  0  0  0  0  0  0  0  0  0  0
   11.9060  -15.8631   20.6698 O   0  0  0  0  0  0  0  0  0  0  0  0
   10.7841  -17.2618   22.0842 N   0  0  0  0  0  0  0  0  0  0  0  0
   11.4551  -16.7081   23.2630 C   0  0  1  0  0  0  0  0  0  0  0  0
   10.5033  -16.9335   24.4426 C   0  0  0  0  0  0  0  0  0  0  0  0
   11.2728  -16.3067   25.9712 S   0  0  0  0  0  0  0  0  0  0  0  0
   12.7590  -17.3314   23.4942 C   0  0  0  0  0  0  0  0  0  0  0  0
   12.9545  -18.5553   23.3010 O   0  0  0  0  0  0  0  0  0  0  0  0
   13.8199  -16.5574   23.9406 O   0  0  0  0  0  0  0  0  0  0  0  0
  2  5  1  0
  2  1  1  6
  3  2  1  0
  4  3  1  0
  5  6  2  0
  7  8  1  0
  9  8  1  6
 10  9  1  0
 10  5  1  0
 11 12  2  0
 11  9  1  0
 13 11  1  0
 14 17  1  0
 14 13  1  0
 14 15  1  1
 16 15  1  0
 17 19  1  0
 18 17  2  0
M  END
$$$$
