CSC.pdb
     RDKit          3D

 19 18  0  0  1  0  0  0  0  0999 V2000
   10.0150  -18.3433   15.8598 N   0  0  0  0  0  0  0  0  0  0  0  0
    9.0796  -18.5315   16.9191 C   0  0  1  0  0  0  0  0  0  0  0  0
    9.1498  -20.0111   17.3230 C   0  0  0  0  0  0  0  0  0  0  0  0
   10.7336  -20.3225   18.1823 S   0  0  0  0  0  0  0  0  0  0  0  0
    9.3531  -17.7466   18.1252 C   0  0  0  0  0  0  0  0  0  0  0  0
   10.5344  -17.3563   18.3176 O   0  0  0  0  0  0  0  0  0  0  0  0
    6.7455  -17.1429   21.2981 O   0  0  0  0  0  0  0  0  0  0  0  0
    7.4421  -15.9869   20.8911 C   0  0  0  0  0  0  0  0  0  0  0  0
    8.6964  -16.4756   20.1728 C   0  0  2  0  0  0  0  0  0  0  0  0
    8.3865  -17.3866   19.1040 N   0  0  0  0  0  0  0  0  0  0  0  0
    9.6788  -17.0325   21.1323 C   0  0  0  0  0  0  0  0  0  0  0  0
    9.7282  -18.2726   21.3384 O   0  0  0  0  0  0  0  0  0  0  0  0
   10.6009  -16.2276   21.8600 N   0  0  0  0  0  0  0  0  0  0  0  0
   11.4384  -16.7833   22.9259 C   0  0  1  0  0  0  0  0  0  0  0  0
   12.4887  -15.7144   23.2461 C   0  0  0  0  0  0  0  0  0  0  0  0
   13.7220  -16.4020   24.3985 S   0  0  0  0  0  0  0  0  0  0  0  0
   10.6538  -17.1412   24.1085 C   0  0  0  0  0  0  0  0  0  0  0  0
    9.6145  -16.5172   24.4306 O   0  0  0  0  0  0  0  0  0  0  0  0
   11.0601  -18.2004   24.9066 O   0  0  0  0  0  0  0  0  0  0  0  0
  2  5  1  0
  2  1  1  6
  3  2  1  0
  4  3  1  0
  5  6  2  0
  7  8  1  0
  9  8  1  1
 10  9  1  0
 10  5  1  0
 11 12  2  0
 11  9  1  0
 13 11  1  0
 14 17  1  0
 14 13  1  0
 14 15  1  1
 16 15  1  0
 17 19  1  0
 18 17  2  0
M  END
$$$$
