CSC.pdb
     RDKit          3D

 19 18  0  0  1  0  0  0  0  0999 V2000
   11.7718  -17.2235   20.2768 N   0  0  0  0  0  0  0  0  0  0  0  0
   11.6478  -17.9391   21.5037 C   0  0  1  0  0  0  0  0  0  0  0  0
   13.0685  -18.1508   22.0460 C   0  0  0  0  0  0  0  0  0  0  0  0
   14.1161  -16.7369   21.5484 S   0  0  0  0  0  0  0  0  0  0  0  0
   10.8926  -17.2411   22.5468 C   0  0  0  0  0  0  0  0  0  0  0  0
   10.6118  -16.0285   22.3581 O   0  0  0  0  0  0  0  0  0  0  0  0
    8.7402  -19.1116   25.5379 O   0  0  0  0  0  0  0  0  0  0  0  0
    8.3344  -17.8643   25.0210 C   0  0  0  0  0  0  0  0  0  0  0  0
    9.6145  -17.1036   24.6885 C   0  0  2  0  0  0  0  0  0  0  0  0
   10.4471  -17.8252   23.7644 N   0  0  0  0  0  0  0  0  0  0  0  0
   10.3366  -16.7086   25.9208 C   0  0  0  0  0  0  0  0  0  0  0  0
   11.4114  -17.2820   26.2350 O   0  0  0  0  0  0  0  0  0  0  0  0
    9.8769  -15.6882   26.8011 N   0  0  0  0  0  0  0  0  0  0  0  0
   10.5412  -15.4112   28.0772 C   0  0  1  0  0  0  0  0  0  0  0  0
    9.8842  -14.1443   28.6355 C   0  0  0  0  0  0  0  0  0  0  0  0
    9.8483  -12.8597   27.3431 S   0  0  0  0  0  0  0  0  0  0  0  0
   10.4276  -16.5341   29.0088 C   0  0  0  0  0  0  0  0  0  0  0  0
    9.6790  -17.5144   28.7805 O   0  0  0  0  0  0  0  0  0  0  0  0
   11.1643  -16.5278   30.1841 O   0  0  0  0  0  0  0  0  0  0  0  0
  2  5  1  0
  2  1  1  6
  3  2  1  0
  4  3  1  0
  5  6  2  0
  7  8  1  0
  9  8  1  1
 10  9  1  0
 10  5  1  0
 11 12  2  0
 11  9  1  0
 13 11  1  0
 14 17  1  0
 14 13  1  0
 14 15  1  1
 16 15  1  0
 17 19  1  0
 18 17  2  0
M  END
$$$$
