CSC.pdb
     RDKit          3D

 19 18  0  0  1  0  0  0  0  0999 V2000
    7.6661  -15.0859   18.1360 N   0  0  0  0  0  0  0  0  0  0  0  0
    8.3179  -14.4992   19.2601 C   0  0  1  0  0  0  0  0  0  0  0  0
    8.0642  -12.9866   19.1878 C   0  0  0  0  0  0  0  0  0  0  0  0
    9.5539  -12.1011   19.7713 S   0  0  0  0  0  0  0  0  0  0  0  0
    7.8226  -14.9530   20.5618 C   0  0  0  0  0  0  0  0  0  0  0  0
    6.5914  -15.1917   20.6719 O   0  0  0  0  0  0  0  0  0  0  0  0
    7.4996  -17.7063   24.0556 O   0  0  0  0  0  0  0  0  0  0  0  0
    8.0713  -17.2622   22.8459 C   0  0  0  0  0  0  0  0  0  0  0  0
    8.0908  -15.7383   22.9178 C   0  0  2  0  0  0  0  0  0  0  0  0
    8.6242  -15.1477   21.7199 N   0  0  0  0  0  0  0  0  0  0  0  0
    8.7809  -15.2700   24.1427 C   0  0  0  0  0  0  0  0  0  0  0  0
   10.0379  -15.2569   24.1943 O   0  0  0  0  0  0  0  0  0  0  0  0
    8.0901  -14.8189   25.3032 N   0  0  0  0  0  0  0  0  0  0  0  0
    8.8031  -14.3725   26.5026 C   0  0  1  0  0  0  0  0  0  0  0  0
    7.8188  -13.4958   27.2842 C   0  0  0  0  0  0  0  0  0  0  0  0
    7.1615  -12.1966   26.1880 S   0  0  0  0  0  0  0  0  0  0  0  0
    9.2801  -15.4983   27.3070 C   0  0  0  0  0  0  0  0  0  0  0  0
    9.0001  -16.6867   27.0195 O   0  0  0  0  0  0  0  0  0  0  0  0
   10.0667  -15.2588   28.4241 O   0  0  0  0  0  0  0  0  0  0  0  0
  2  5  1  0
  2  1  1  6
  3  2  1  0
  4  3  1  0
  5  6  2  0
  7  8  1  0
  9  8  1  6
 10  9  1  0
 10  5  1  0
 11 12  2  0
 11  9  1  0
 13 11  1  0
 14 17  1  0
 14 13  1  0
 14 15  1  1
 16 15  1  0
 17 19  1  0
 18 17  2  0
M  END
$$$$
