CSC.pdb
     RDKit          3D

 19 18  0  0  1  0  0  0  0  0999 V2000
    7.8057  -15.3855   18.2006 N   0  0  0  0  0  0  0  0  0  0  0  0
    8.2815  -14.6114   19.2993 C   0  0  1  0  0  0  0  0  0  0  0  0
    7.8412  -13.1615   19.0516 C   0  0  0  0  0  0  0  0  0  0  0  0
    8.4439  -12.1106   20.4214 S   0  0  0  0  0  0  0  0  0  0  0  0
    7.7435  -15.0035   20.6041 C   0  0  0  0  0  0  0  0  0  0  0  0
    6.5192  -15.2882   20.6740 O   0  0  0  0  0  0  0  0  0  0  0  0
    9.4265  -17.2598   23.4410 O   0  0  0  0  0  0  0  0  0  0  0  0
    8.0488  -17.0228   23.2591 C   0  0  0  0  0  0  0  0  0  0  0  0
    7.8995  -15.5199   23.0430 C   0  0  2  0  0  0  0  0  0  0  0  0
    8.4963  -15.0898   21.8073 N   0  0  0  0  0  0  0  0  0  0  0  0
    8.3974  -14.7598   24.2137 C   0  0  0  0  0  0  0  0  0  0  0  0
    9.6216  -14.4895   24.3178 O   0  0  0  0  0  0  0  0  0  0  0  0
    7.5512  -14.3006   25.2628 N   0  0  0  0  0  0  0  0  0  0  0  0
    8.0869  -13.6332   26.4519 C   0  0  1  0  0  0  0  0  0  0  0  0
    6.8949  -12.9550   27.1356 C   0  0  0  0  0  0  0  0  0  0  0  0
    6.0338  -11.8878   25.9350 S   0  0  0  0  0  0  0  0  0  0  0  0
    8.7621  -14.5717   27.3493 C   0  0  0  0  0  0  0  0  0  0  0  0
    8.7520  -15.8095   27.1467 O   0  0  0  0  0  0  0  0  0  0  0  0
    9.4377  -14.0919   28.4616 O   0  0  0  0  0  0  0  0  0  0  0  0
  2  5  1  0
  2  1  1  6
  3  2  1  0
  4  3  1  0
  5  6  2  0
  7  8  1  0
  9  8  1  1
 10  9  1  0
 10  5  1  0
 11 12  2  0
 11  9  1  0
 13 11  1  0
 14 17  1  0
 14 13  1  0
 14 15  1  1
 16 15  1  0
 17 19  1  0
 18 17  2  0
M  END
$$$$
