CSC.pdb
     RDKit          3D

 19 18  0  0  1  0  0  0  0  0999 V2000
    7.2543  -15.2443   19.3726 N   0  0  0  0  0  0  0  0  0  0  0  0
    8.2372  -14.6942   20.2466 C   0  0  1  0  0  0  0  0  0  0  0  0
    7.7428  -13.3001   20.6582 C   0  0  0  0  0  0  0  0  0  0  0  0
    8.0160  -12.1356   19.2750 S   0  0  0  0  0  0  0  0  0  0  0  0
    8.4525  -15.4522   21.4814 C   0  0  0  0  0  0  0  0  0  0  0  0
    7.4387  -15.8761   22.0958 O   0  0  0  0  0  0  0  0  0  0  0  0
   12.0809  -17.0826   22.7938 O   0  0  0  0  0  0  0  0  0  0  0  0
   10.8376  -17.6689   23.1065 C   0  0  0  0  0  0  0  0  0  0  0  0
    9.8488  -16.5168   23.2580 C   0  0  2  0  0  0  0  0  0  0  0  0
    9.7223  -15.7508   22.0475 N   0  0  0  0  0  0  0  0  0  0  0  0
   10.1818  -15.6782   24.4335 C   0  0  0  0  0  0  0  0  0  0  0  0
   10.6833  -14.5356   24.2733 O   0  0  0  0  0  0  0  0  0  0  0  0
    9.9633  -16.0963   25.7770 N   0  0  0  0  0  0  0  0  0  0  0  0
   10.3874  -15.2820   26.9187 C   0  0  1  0  0  0  0  0  0  0  0  0
    9.2772  -14.2500   27.1443 C   0  0  0  0  0  0  0  0  0  0  0  0
    9.6986  -13.2102   28.5805 S   0  0  0  0  0  0  0  0  0  0  0  0
   10.6213  -16.0939   28.1137 C   0  0  0  0  0  0  0  0  0  0  0  0
   10.1889  -17.2669   28.2156 O   0  0  0  0  0  0  0  0  0  0  0  0
   11.3414  -15.5630   29.1737 O   0  0  0  0  0  0  0  0  0  0  0  0
  2  5  1  0
  2  1  1  6
  3  2  1  0
  4  3  1  0
  5  6  2  0
  7  8  1  0
  9  8  1  6
 10  9  1  0
 10  5  1  0
 11 12  2  0
 11  9  1  0
 13 11  1  0
 14 17  1  0
 14 13  1  0
 14 15  1  1
 16 15  1  0
 17 19  1  0
 18 17  2  0
M  END
$$$$
