CSC.pdb
     RDKit          3D

 19 18  0  0  1  0  0  0  0  0999 V2000
    8.0636  -13.1421   18.5774 N   0  0  0  0  0  0  0  0  0  0  0  0
    8.5507  -14.2612   19.3142 C   0  0  1  0  0  0  0  0  0  0  0  0
   10.0668  -14.0731   19.4672 C   0  0  0  0  0  0  0  0  0  0  0  0
   10.3870  -12.5534   20.4327 S   0  0  0  0  0  0  0  0  0  0  0  0
    7.9988  -14.3933   20.6646 C   0  0  0  0  0  0  0  0  0  0  0  0
    7.5092  -13.3659   21.2030 O   0  0  0  0  0  0  0  0  0  0  0  0
    8.1579  -17.8152   23.1648 O   0  0  0  0  0  0  0  0  0  0  0  0
    6.9527  -17.0876   23.0914 C   0  0  0  0  0  0  0  0  0  0  0  0
    7.3384  -15.6607   22.7133 C   0  0  2  0  0  0  0  0  0  0  0  0
    7.9704  -15.5957   21.4231 N   0  0  0  0  0  0  0  0  0  0  0  0
    8.1484  -15.0258   23.7795 C   0  0  0  0  0  0  0  0  0  0  0  0
    9.3905  -14.8895   23.6335 O   0  0  0  0  0  0  0  0  0  0  0  0
    7.5928  -14.5442   24.9990 N   0  0  0  0  0  0  0  0  0  0  0  0
    8.4341  -14.0208   26.0782 C   0  0  1  0  0  0  0  0  0  0  0  0
    7.8195  -12.6779   26.4869 C   0  0  0  0  0  0  0  0  0  0  0  0
    6.0236  -12.8794   26.7225 S   0  0  0  0  0  0  0  0  0  0  0  0
    8.5120  -14.9460   27.2096 C   0  0  0  0  0  0  0  0  0  0  0  0
    9.2274  -14.7107   28.2127 O   0  0  0  0  0  0  0  0  0  0  0  0
    7.7779  -16.1226   27.1855 O   0  0  0  0  0  0  0  0  0  0  0  0
  2  5  1  0
  2  1  1  1
  3  2  1  0
  4  3  1  0
  5  6  2  0
  7  8  1  0
  9  8  1  1
 10  9  1  0
 10  5  1  0
 11 12  2  0
 11  9  1  0
 13 11  1  0
 14 17  1  0
 14 13  1  0
 14 15  1  1
 16 15  1  0
 17 19  1  0
 18 17  2  0
M  END
$$$$
