CSC.pdb
     RDKit          3D

 19 18  0  0  1  0  0  0  0  0999 V2000
   14.2588  -17.9650   15.5477 N   0  0  0  0  0  0  0  0  0  0  0  0
   13.3883  -18.7177   16.3893 C   0  0  1  0  0  0  0  0  0  0  0  0
   14.2342  -19.8236   17.0364 C   0  0  0  0  0  0  0  0  0  0  0  0
   13.1809  -20.7962   18.1716 S   0  0  0  0  0  0  0  0  0  0  0  0
   12.7783  -17.9537   17.4802 C   0  0  0  0  0  0  0  0  0  0  0  0
   13.5164  -17.1718   18.1351 O   0  0  0  0  0  0  0  0  0  0  0  0
    8.7470  -18.1894   18.8632 O   0  0  0  0  0  0  0  0  0  0  0  0
    9.3872  -16.9391   18.7433 C   0  0  0  0  0  0  0  0  0  0  0  0
   10.8792  -17.2053   18.9197 C   0  0  2  0  0  0  0  0  0  0  0  0
   11.4107  -18.0233   17.8631 N   0  0  0  0  0  0  0  0  0  0  0  0
   11.1688  -17.7512   20.2665 C   0  0  0  0  0  0  0  0  0  0  0  0
   11.4848  -18.9613   20.4037 O   0  0  0  0  0  0  0  0  0  0  0  0
   11.1107  -16.9685   21.4546 N   0  0  0  0  0  0  0  0  0  0  0  0
   11.2934  -17.5625   22.7813 C   0  0  1  0  0  0  0  0  0  0  0  0
   11.3579  -16.3925   23.7689 C   0  0  0  0  0  0  0  0  0  0  0  0
   11.6907  -17.0300   25.4435 S   0  0  0  0  0  0  0  0  0  0  0  0
   10.2161  -18.4943   23.1173 C   0  0  0  0  0  0  0  0  0  0  0  0
    9.0278  -18.2894   22.7717 O   0  0  0  0  0  0  0  0  0  0  0  0
   10.5030  -19.6433   23.8396 O   0  0  0  0  0  0  0  0  0  0  0  0
  2  5  1  0
  2  1  1  1
  3  2  1  0
  4  3  1  0
  5  6  2  0
  7  8  1  0
  9  8  1  6
 10  9  1  0
 10  5  1  0
 11 12  2  0
 11  9  1  0
 13 11  1  0
 14 17  1  0
 14 13  1  0
 14 15  1  1
 16 15  1  0
 17 19  1  0
 18 17  2  0
M  END
$$$$
