CSC.pdb
     RDKit          3D

 19 18  0  0  1  0  0  0  0  0999 V2000
    4.6312  -19.8472   20.5517 N   0  0  0  0  0  0  0  0  0  0  0  0
    4.5769  -18.5059   21.0320 C   0  0  1  0  0  0  0  0  0  0  0  0
    3.9003  -18.5489   22.4096 C   0  0  0  0  0  0  0  0  0  0  0  0
    2.0935  -18.7176   22.1840 S   0  0  0  0  0  0  0  0  0  0  0  0
    5.8823  -17.8679   21.2176 C   0  0  0  0  0  0  0  0  0  0  0  0
    6.7461  -18.4824   21.8969 O   0  0  0  0  0  0  0  0  0  0  0  0
    9.2458  -14.5923   20.1735 O   0  0  0  0  0  0  0  0  0  0  0  0
    7.8999  -14.9364   19.9336 C   0  0  0  0  0  0  0  0  0  0  0  0
    7.5557  -16.0351   20.9347 C   0  0  2  0  0  0  0  0  0  0  0  0
    6.2570  -16.6019   20.6896 N   0  0  0  0  0  0  0  0  0  0  0  0
    7.7178  -15.5580   22.3282 C   0  0  0  0  0  0  0  0  0  0  0  0
    7.1210  -14.5201   22.7146 O   0  0  0  0  0  0  0  0  0  0  0  0
    8.5326  -16.2206   23.2898 N   0  0  0  0  0  0  0  0  0  0  0  0
    8.9895  -15.5500   24.5095 C   0  0  1  0  0  0  0  0  0  0  0  0
    8.2178  -16.1934   25.6666 C   0  0  0  0  0  0  0  0  0  0  0  0
    6.5113  -15.5540   25.6871 S   0  0  0  0  0  0  0  0  0  0  0  0
   10.4366  -15.6711   24.6919 C   0  0  0  0  0  0  0  0  0  0  0  0
   11.0222  -15.1983   25.6954 O   0  0  0  0  0  0  0  0  0  0  0  0
   11.1964  -16.3261   23.7339 O   0  0  0  0  0  0  0  0  0  0  0  0
  2  5  1  0
  2  1  1  1
  3  2  1  0
  4  3  1  0
  5  6  2  0
  7  8  1  0
  9  8  1  6
 10  9  1  0
 10  5  1  0
 11 12  2  0
 11  9  1  0
 13 11  1  0
 14 17  1  0
 14 13  1  0
 14 15  1  1
 16 15  1  0
 17 19  1  0
 18 17  2  0
M  END
$$$$
