CSC.pdb
     RDKit          3D

 19 18  0  0  1  0  0  0  0  0999 V2000
    7.1893  -15.4182   18.9585 N   0  0  0  0  0  0  0  0  0  0  0  0
    8.0747  -14.7861   19.8800 C   0  0  1  0  0  0  0  0  0  0  0  0
    7.8343  -13.2738   19.7687 C   0  0  0  0  0  0  0  0  0  0  0  0
    9.0134  -12.3985   20.8586 S   0  0  0  0  0  0  0  0  0  0  0  0
    7.8615  -15.1499   21.2828 C   0  0  0  0  0  0  0  0  0  0  0  0
    6.6766  -15.1905   21.7064 O   0  0  0  0  0  0  0  0  0  0  0  0
   10.3765  -17.5130   23.4354 O   0  0  0  0  0  0  0  0  0  0  0  0
    8.9850  -17.4532   23.6535 C   0  0  0  0  0  0  0  0  0  0  0  0
    8.5952  -15.9841   23.5200 C   0  0  2  0  0  0  0  0  0  0  0  0
    8.8907  -15.4634   22.2125 N   0  0  0  0  0  0  0  0  0  0  0  0
    9.1911  -15.1724   24.6071 C   0  0  0  0  0  0  0  0  0  0  0  0
   10.3926  -14.8060   24.5367 O   0  0  0  0  0  0  0  0  0  0  0  0
    8.4674  -14.7670   25.7645 N   0  0  0  0  0  0  0  0  0  0  0  0
    9.1218  -14.0926   26.8885 C   0  0  1  0  0  0  0  0  0  0  0  0
    8.0056  -13.4113   27.6874 C   0  0  0  0  0  0  0  0  0  0  0  0
    7.2220  -12.1261   26.6599 S   0  0  0  0  0  0  0  0  0  0  0  0
    9.8867  -15.0258   27.7168 C   0  0  0  0  0  0  0  0  0  0  0  0
    9.8136  -16.2681   27.5595 O   0  0  0  0  0  0  0  0  0  0  0  0
   10.7221  -14.5357   28.7098 O   0  0  0  0  0  0  0  0  0  0  0  0
  2  5  1  0
  2  1  1  6
  3  2  1  0
  4  3  1  0
  5  6  2  0
  7  8  1  0
  9  8  1  6
 10  9  1  0
 10  5  1  0
 11 12  2  0
 11  9  1  0
 13 11  1  0
 14 17  1  0
 14 13  1  0
 14 15  1  1
 16 15  1  0
 17 19  1  0
 18 17  2  0
M  END
$$$$
