CSC.pdb
     RDKit          3D

 19 18  0  0  1  0  0  0  0  0999 V2000
    8.2033  -16.9622   15.7739 N   0  0  0  0  0  0  0  0  0  0  0  0
    8.9861  -17.1780   16.9458 C   0  0  1  0  0  0  0  0  0  0  0  0
   10.2236  -16.2763   16.8319 C   0  0  0  0  0  0  0  0  0  0  0  0
   11.5741  -17.2119   16.0290 S   0  0  0  0  0  0  0  0  0  0  0  0
    8.3182  -16.8291   18.2020 C   0  0  0  0  0  0  0  0  0  0  0  0
    7.4725  -15.8968   18.1793 O   0  0  0  0  0  0  0  0  0  0  0  0
    8.0261  -19.2645   21.6066 O   0  0  0  0  0  0  0  0  0  0  0  0
    7.0268  -18.3790   21.1539 C   0  0  0  0  0  0  0  0  0  0  0  0
    7.7565  -17.1525   20.6143 C   0  0  2  0  0  0  0  0  0  0  0  0
    8.5484  -17.4618   19.4544 N   0  0  0  0  0  0  0  0  0  0  0  0
    8.5399  -16.4850   21.6803 C   0  0  0  0  0  0  0  0  0  0  0  0
    9.7960  -16.5553   21.6800 O   0  0  0  0  0  0  0  0  0  0  0  0
    7.9427  -15.7448   22.7400 N   0  0  0  0  0  0  0  0  0  0  0  0
    8.7383  -15.1814   23.8336 C   0  0  1  0  0  0  0  0  0  0  0  0
    7.7859  -14.2948   24.6431 C   0  0  0  0  0  0  0  0  0  0  0  0
    7.4157  -12.7812   23.6979 S   0  0  0  0  0  0  0  0  0  0  0  0
    9.3433  -16.2236   24.6641 C   0  0  0  0  0  0  0  0  0  0  0  0
    8.9553  -17.4158   24.6223 O   0  0  0  0  0  0  0  0  0  0  0  0
   10.3780  -15.8978   25.5284 O   0  0  0  0  0  0  0  0  0  0  0  0
  2  5  1  0
  2  1  1  6
  3  2  1  0
  4  3  1  0
  5  6  2  0
  7  8  1  0
  9  8  1  1
 10  9  1  0
 10  5  1  0
 11 12  2  0
 11  9  1  0
 13 11  1  0
 14 17  1  0
 14 13  1  0
 14 15  1  1
 16 15  1  0
 17 19  1  0
 18 17  2  0
M  END
$$$$
