CSC.pdb
     RDKit          3D

 19 18  0  0  1  0  0  0  0  0999 V2000
    7.7978  -17.7029   19.3918 N   0  0  0  0  0  0  0  0  0  0  0  0
    8.7960  -17.3954   20.3622 C   0  0  1  0  0  0  0  0  0  0  0  0
    9.5590  -16.1662   19.8481 C   0  0  0  0  0  0  0  0  0  0  0  0
   10.8447  -16.7105   18.6671 S   0  0  0  0  0  0  0  0  0  0  0  0
    8.2768  -17.0514   21.6880 C   0  0  0  0  0  0  0  0  0  0  0  0
    7.2154  -16.3769   21.7472 O   0  0  0  0  0  0  0  0  0  0  0  0
    8.5149  -19.2441   25.0257 O   0  0  0  0  0  0  0  0  0  0  0  0
    7.5521  -18.2337   24.8269 C   0  0  0  0  0  0  0  0  0  0  0  0
    8.2897  -17.0620   24.1858 C   0  0  2  0  0  0  0  0  0  0  0  0
    8.8776  -17.4196   22.9230 N   0  0  0  0  0  0  0  0  0  0  0  0
    9.2699  -16.4691   25.1257 C   0  0  0  0  0  0  0  0  0  0  0  0
   10.4919  -16.7513   25.0260 O   0  0  0  0  0  0  0  0  0  0  0  0
    8.9057  -15.5709   26.1688 N   0  0  0  0  0  0  0  0  0  0  0  0
    9.8790  -15.0975   27.1562 C   0  0  1  0  0  0  0  0  0  0  0  0
    9.2137  -13.9249   27.8848 C   0  0  0  0  0  0  0  0  0  0  0  0
   10.3924  -13.2010   29.0715 S   0  0  0  0  0  0  0  0  0  0  0  0
   10.2754  -16.1562   28.0857 C   0  0  0  0  0  0  0  0  0  0  0  0
    9.5003  -17.0920   28.3972 O   0  0  0  0  0  0  0  0  0  0  0  0
   11.5437  -16.1371   28.6469 O   0  0  0  0  0  0  0  0  0  0  0  0
  2  5  1  0
  2  1  1  6
  3  2  1  0
  4  3  1  0
  5  6  2  0
  7  8  1  0
  9  8  1  1
 10  9  1  0
 10  5  1  0
 11 12  2  0
 11  9  1  0
 13 11  1  0
 14 17  1  0
 14 13  1  0
 14 15  1  1
 16 15  1  0
 17 19  1  0
 18 17  2  0
M  END
$$$$
