PWW.pdb
     RDKit          3D

 36 40  0  0  1  0  0  0  0  0999 V2000
   28.0057  -20.8726  -15.7985 N   0  0  0  0  0  0  0  0  0  0  0  0
   28.3647  -19.8952  -16.7966 C   0  0  0  0  0  0  0  0  0  0  0  0
   27.8258  -18.6068  -16.2213 C   0  0  0  0  0  0  0  0  0  0  0  0
   27.9053  -18.8270  -14.7377 C   0  0  0  0  0  0  0  0  0  0  0  0
   28.3833  -20.2560  -14.5594 C   0  0  1  0  0  0  0  0  0  0  0  0
   27.6797  -20.8396  -13.3914 C   0  0  0  0  0  0  0  0  0  0  0  0
   26.8874  -21.8036  -13.4712 O   0  0  0  0  0  0  0  0  0  0  0  0
   27.9167  -20.2777  -12.1205 N   0  0  0  0  0  0  0  0  0  0  0  0
   27.2094  -20.7605  -10.8857 C   0  0  1  0  0  0  0  0  0  0  0  0
   28.0252  -20.4652   -9.7143 C   0  0  0  0  0  0  0  0  0  0  0  0
   27.4390  -20.4270   -8.3730 C   0  0  0  0  0  0  0  0  0  0  0  0
   26.1321  -20.7548   -8.0208 C   0  0  0  0  0  0  0  0  0  0  0  0
   25.9173  -20.5929   -6.7219 N   0  0  0  0  0  0  0  0  0  0  0  0
   27.0708  -20.1563   -6.1901 C   0  0  0  0  0  0  0  0  0  0  0  0
   27.3332  -19.8771   -4.8700 C   0  0  0  0  0  0  0  0  0  0  0  0
   28.6066  -19.4648   -4.4988 C   0  0  0  0  0  0  0  0  0  0  0  0
   29.5557  -19.3547   -5.4868 C   0  0  0  0  0  0  0  0  0  0  0  0
   29.2824  -19.6364   -6.8128 C   0  0  0  0  0  0  0  0  0  0  0  0
   28.0266  -20.0442   -7.1854 C   0  0  0  0  0  0  0  0  0  0  0  0
   25.8371  -20.3155  -11.0354 C   0  0  0  0  0  0  0  0  0  0  0  0
   25.6214  -19.0540  -11.2809 O   0  0  0  0  0  0  0  0  0  0  0  0
   24.6848  -21.1526  -10.9499 N   0  0  0  0  0  0  0  0  0  0  0  0
   23.3897  -20.5675  -11.1924 C   0  0  1  0  0  0  0  0  0  0  0  0
   22.9544  -20.9269  -12.6272 C   0  0  0  0  0  0  0  0  0  0  0  0
   23.0732  -19.8448  -13.5973 C   0  0  0  0  0  0  0  0  0  0  0  0
   24.2531  -19.5527  -14.2970 C   0  0  0  0  0  0  0  0  0  0  0  0
   24.0470  -18.4911  -15.0963 N   0  0  0  0  0  0  0  0  0  0  0  0
   22.7671  -18.0560  -14.9613 C   0  0  0  0  0  0  0  0  0  0  0  0
   22.1153  -17.0198  -15.5833 C   0  0  0  0  0  0  0  0  0  0  0  0
   20.7815  -16.7900  -15.2791 C   0  0  0  0  0  0  0  0  0  0  0  0
   20.1822  -17.6279  -14.3573 C   0  0  0  0  0  0  0  0  0  0  0  0
   20.8525  -18.6525  -13.7494 C   0  0  0  0  0  0  0  0  0  0  0  0
   22.1808  -18.8990  -14.0364 C   0  0  0  0  0  0  0  0  0  0  0  0
   22.3580  -20.8088  -10.1922 C   0  0  0  0  0  0  0  0  0  0  0  0
   21.1297  -20.1684  -10.1279 O   0  0  0  0  0  0  0  0  0  0  0  0
   22.5283  -21.6765   -9.2530 O   0  0  0  0  0  0  0  0  0  0  0  0
  1  2  1  0
  3  2  1  0
  4  5  1  0
  4  3  1  0
  5  1  1  0
  6  8  1  0
  5  6  1  1
  7  6  2  0
  9 20  1  0
  9  8  1  0
  9 10  1  1
 11 10  1  0
 11 19  1  0
 12 13  1  0
 12 11  2  0
 13 14  1  0
 14 15  2  0
 14 19  1  0
 15 16  1  0
 16 17  2  0
 18 17  1  0
 19 18  2  0
 20 22  1  0
 21 20  2  0
 22 23  1  0
 23 24  1  6
 24 25  1  0
 25 33  1  0
 25 26  2  0
 26 27  1  0
 28 27  1  0
 28 29  2  0
 30 29  1  0
 31 30  2  0
 32 33  2  0
 32 31  1  0
 33 28  1  0
 34 23  1  0
 34 35  1  0
 36 34  2  0
M  END
$$$$
