PWW.pdb
     RDKit          3D

 36 40  0  0  1  0  0  0  0  0999 V2000
   29.3747  -19.6537  -18.4807 N   0  0  0  0  0  0  0  0  0  0  0  0
   30.3056  -19.4475  -19.5630 C   0  0  0  0  0  0  0  0  0  0  0  0
   30.7667  -18.0251  -19.3495 C   0  0  0  0  0  0  0  0  0  0  0  0
   30.6650  -17.8449  -17.8619 C   0  0  0  0  0  0  0  0  0  0  0  0
   30.0580  -19.1309  -17.3327 C   0  0  1  0  0  0  0  0  0  0  0  0
   29.1348  -18.7876  -16.2237 C   0  0  0  0  0  0  0  0  0  0  0  0
   29.4906  -18.1827  -15.1889 O   0  0  0  0  0  0  0  0  0  0  0  0
   27.7813  -19.1631  -16.3417 N   0  0  0  0  0  0  0  0  0  0  0  0
   26.7503  -18.7791  -15.3181 C   0  0  1  0  0  0  0  0  0  0  0  0
   25.6757  -18.0390  -15.9680 C   0  0  0  0  0  0  0  0  0  0  0  0
   24.5028  -17.5894  -15.2154 C   0  0  0  0  0  0  0  0  0  0  0  0
   24.4108  -16.4617  -14.4035 C   0  0  0  0  0  0  0  0  0  0  0  0
   23.2109  -16.3514  -13.8488 N   0  0  0  0  0  0  0  0  0  0  0  0
   22.4877  -17.3983  -14.2790 C   0  0  0  0  0  0  0  0  0  0  0  0
   21.1757  -17.6875  -13.9885 C   0  0  0  0  0  0  0  0  0  0  0  0
   20.5804  -18.8060  -14.5575 C   0  0  0  0  0  0  0  0  0  0  0  0
   21.3461  -19.5802  -15.3962 C   0  0  0  0  0  0  0  0  0  0  0  0
   22.6660  -19.2824  -15.6817 C   0  0  0  0  0  0  0  0  0  0  0  0
   23.2594  -18.1788  -15.1228 C   0  0  0  0  0  0  0  0  0  0  0  0
   26.5317  -19.9775  -14.5309 C   0  0  0  0  0  0  0  0  0  0  0  0
   26.5337  -21.1271  -15.1446 O   0  0  0  0  0  0  0  0  0  0  0  0
   26.3250  -20.0107  -13.1195 N   0  0  0  0  0  0  0  0  0  0  0  0
   25.7023  -21.1759  -12.5425 C   0  0  1  0  0  0  0  0  0  0  0  0
   26.6183  -21.7141  -11.4251 C   0  0  0  0  0  0  0  0  0  0  0  0
   26.6735  -20.8911  -10.2226 C   0  0  0  0  0  0  0  0  0  0  0  0
   25.6041  -20.1066   -9.7665 C   0  0  0  0  0  0  0  0  0  0  0  0
   25.9738  -19.4531   -8.6509 N   0  0  0  0  0  0  0  0  0  0  0  0
   27.2570  -19.7700   -8.3368 C   0  0  0  0  0  0  0  0  0  0  0  0
   28.0385  -19.3550   -7.2868 C   0  0  0  0  0  0  0  0  0  0  0  0
   29.3311  -19.8471   -7.1797 C   0  0  0  0  0  0  0  0  0  0  0  0
   29.7591  -20.7362   -8.1478 C   0  0  0  0  0  0  0  0  0  0  0  0
   28.9630  -21.1336   -9.1856 C   0  0  0  0  0  0  0  0  0  0  0  0
   27.6734  -20.6558   -9.3125 C   0  0  0  0  0  0  0  0  0  0  0  0
   24.3070  -21.0495  -12.1424 C   0  0  0  0  0  0  0  0  0  0  0  0
   23.4314  -22.1018  -11.9213 O   0  0  0  0  0  0  0  0  0  0  0  0
   23.7669  -19.8922  -11.9597 O   0  0  0  0  0  0  0  0  0  0  0  0
  1  2  1  0
  3  2  1  0
  4  5  1  0
  4  3  1  0
  5  1  1  0
  6  8  1  0
  5  6  1  1
  7  6  2  0
  9 20  1  0
  9  8  1  0
  9 10  1  6
 11 10  1  0
 11 19  1  0
 12 13  1  0
 12 11  2  0
 13 14  1  0
 14 15  2  0
 14 19  1  0
 15 16  1  0
 16 17  2  0
 18 17  1  0
 19 18  2  0
 20 22  1  0
 21 20  2  0
 22 23  1  0
 23 24  1  1
 24 25  1  0
 25 33  1  0
 25 26  2  0
 26 27  1  0
 28 27  1  0
 28 29  2  0
 30 29  1  0
 31 30  2  0
 32 33  2  0
 32 31  1  0
 33 28  1  0
 34 23  1  0
 34 35  1  0
 36 34  2  0
M  END
$$$$
