PWW.pdb
     RDKit          3D

 36 40  0  0  1  0  0  0  0  0999 V2000
   27.4288  -19.7003  -14.8719 N   0  0  0  0  0  0  0  0  0  0  0  0
   28.2092  -19.3110  -16.0208 C   0  0  0  0  0  0  0  0  0  0  0  0
   29.5410  -19.9779  -15.7698 C   0  0  0  0  0  0  0  0  0  0  0  0
   29.1748  -21.2033  -14.9822 C   0  0  0  0  0  0  0  0  0  0  0  0
   27.6793  -21.1070  -14.7443 C   0  0  1  0  0  0  0  0  0  0  0  0
   27.3911  -21.6190  -13.3824 C   0  0  0  0  0  0  0  0  0  0  0  0
   27.3827  -22.8339  -13.0869 O   0  0  0  0  0  0  0  0  0  0  0  0
   27.1113  -20.6855  -12.3639 N   0  0  0  0  0  0  0  0  0  0  0  0
   26.9539  -21.0911  -10.9256 C   0  0  1  0  0  0  0  0  0  0  0  0
   27.7923  -20.2414  -10.0890 C   0  0  0  0  0  0  0  0  0  0  0  0
   27.3842  -19.8764   -8.7308 C   0  0  0  0  0  0  0  0  0  0  0  0
   26.2393  -19.1753   -8.3605 C   0  0  0  0  0  0  0  0  0  0  0  0
   26.1773  -18.9925   -7.0481 N   0  0  0  0  0  0  0  0  0  0  0  0
   27.2740  -19.5650   -6.5252 C   0  0  0  0  0  0  0  0  0  0  0  0
   27.6247  -19.6495   -5.1988 C   0  0  0  0  0  0  0  0  0  0  0  0
   28.7901  -20.3152   -4.8412 C   0  0  0  0  0  0  0  0  0  0  0  0
   29.5466  -20.8648   -5.8485 C   0  0  0  0  0  0  0  0  0  0  0  0
   29.1869  -20.7736   -7.1806 C   0  0  0  0  0  0  0  0  0  0  0  0
   28.0368  -20.1175   -7.5399 C   0  0  0  0  0  0  0  0  0  0  0  0
   25.5252  -21.2450  -10.7283 C   0  0  0  0  0  0  0  0  0  0  0  0
   24.7467  -21.1634  -11.7702 O   0  0  0  0  0  0  0  0  0  0  0  0
   24.8878  -21.4953   -9.4765 N   0  0  0  0  0  0  0  0  0  0  0  0
   23.4495  -21.5873   -9.4430 C   0  0  1  0  0  0  0  0  0  0  0  0
   22.9923  -21.5289   -7.9717 C   0  0  0  0  0  0  0  0  0  0  0  0
   21.5825  -21.8293   -7.7513 C   0  0  0  0  0  0  0  0  0  0  0  0
   21.1031  -23.0996   -7.3993 C   0  0  0  0  0  0  0  0  0  0  0  0
   19.7635  -23.0566   -7.2900 N   0  0  0  0  0  0  0  0  0  0  0  0
   19.3210  -21.7998   -7.5554 C   0  0  0  0  0  0  0  0  0  0  0  0
   18.0450  -21.2926   -7.5518 C   0  0  0  0  0  0  0  0  0  0  0  0
   17.8584  -19.9496   -7.8446 C   0  0  0  0  0  0  0  0  0  0  0  0
   18.9815  -19.1941   -8.1252 C   0  0  0  0  0  0  0  0  0  0  0  0
   20.2424  -19.7220   -8.1244 C   0  0  0  0  0  0  0  0  0  0  0  0
   20.4516  -21.0565   -7.8368 C   0  0  0  0  0  0  0  0  0  0  0  0
   22.7095  -20.6890  -10.3197 C   0  0  0  0  0  0  0  0  0  0  0  0
   21.5414  -21.0028  -10.9980 O   0  0  0  0  0  0  0  0  0  0  0  0
   23.1131  -19.4827  -10.5344 O   0  0  0  0  0  0  0  0  0  0  0  0
  1  2  1  0
  3  2  1  0
  4  5  1  0
  4  3  1  0
  5  1  1  0
  6  8  1  0
  5  6  1  1
  7  6  2  0
  9 20  1  0
  9  8  1  0
  9 10  1  1
 11 10  1  0
 11 19  1  0
 12 13  1  0
 12 11  2  0
 13 14  1  0
 14 15  2  0
 14 19  1  0
 15 16  1  0
 16 17  2  0
 18 17  1  0
 19 18  2  0
 20 22  1  0
 21 20  2  0
 22 23  1  0
 23 24  1  1
 24 25  1  0
 25 33  1  0
 25 26  2  0
 26 27  1  0
 28 27  1  0
 28 29  2  0
 30 29  1  0
 31 30  2  0
 32 33  2  0
 32 31  1  0
 33 28  1  0
 34 23  1  0
 34 35  1  0
 36 34  2  0
M  END
$$$$
