PWW.pdb
     RDKit          3D

 36 40  0  0  1  0  0  0  0  0999 V2000
   30.0338  -20.1317  -10.7524 N   0  0  0  0  0  0  0  0  0  0  0  0
   31.4706  -20.2572  -10.7749 C   0  0  0  0  0  0  0  0  0  0  0  0
   31.7372  -21.3091   -9.7243 C   0  0  0  0  0  0  0  0  0  0  0  0
   30.5014  -22.1618   -9.7628 C   0  0  0  0  0  0  0  0  0  0  0  0
   29.5682  -21.4886  -10.7518 C   0  0  1  0  0  0  0  0  0  0  0  0
   28.1806  -21.6178  -10.2442 C   0  0  0  0  0  0  0  0  0  0  0  0
   27.6417  -22.7131   -9.9733 O   0  0  0  0  0  0  0  0  0  0  0  0
   27.4267  -20.4417  -10.0559 N   0  0  0  0  0  0  0  0  0  0  0  0
   26.0234  -20.4660   -9.5189 C   0  0  1  0  0  0  0  0  0  0  0  0
   25.9366  -19.5955   -8.3529 C   0  0  0  0  0  0  0  0  0  0  0  0
   27.0607  -19.4587   -7.4244 C   0  0  0  0  0  0  0  0  0  0  0  0
   28.1341  -18.5781   -7.5332 C   0  0  0  0  0  0  0  0  0  0  0  0
   28.9926  -18.7229   -6.5324 N   0  0  0  0  0  0  0  0  0  0  0  0
   28.5086  -19.6974   -5.7449 C   0  0  0  0  0  0  0  0  0  0  0  0
   29.0466  -20.1739   -4.5732 C   0  0  0  0  0  0  0  0  0  0  0  0
   28.3813  -21.1712   -3.8717 C   0  0  0  0  0  0  0  0  0  0  0  0
   27.1991  -21.6393   -4.3935 C   0  0  0  0  0  0  0  0  0  0  0  0
   26.6659  -21.1550   -5.5740 C   0  0  0  0  0  0  0  0  0  0  0  0
   27.3183  -20.1698   -6.2711 C   0  0  0  0  0  0  0  0  0  0  0  0
   25.1688  -20.3292  -10.6826 C   0  0  0  0  0  0  0  0  0  0  0  0
   25.3530  -19.3039  -11.4657 O   0  0  0  0  0  0  0  0  0  0  0  0
   24.1367  -21.2395  -11.0595 N   0  0  0  0  0  0  0  0  0  0  0  0
   23.2144  -20.8440  -12.0945 C   0  0  1  0  0  0  0  0  0  0  0  0
   23.2056  -21.9369  -13.1821 C   0  0  0  0  0  0  0  0  0  0  0  0
   22.2654  -21.7131  -14.2740 C   0  0  0  0  0  0  0  0  0  0  0  0
   22.5033  -20.8300  -15.3373 C   0  0  0  0  0  0  0  0  0  0  0  0
   21.4433  -20.8318  -16.1649 N   0  0  0  0  0  0  0  0  0  0  0  0
   20.4970  -21.6871  -15.6973 C   0  0  0  0  0  0  0  0  0  0  0  0
   19.2691  -22.0166  -16.2162 C   0  0  0  0  0  0  0  0  0  0  0  0
   18.4872  -22.9458  -15.5458 C   0  0  0  0  0  0  0  0  0  0  0  0
   18.9975  -23.4904  -14.3822 C   0  0  0  0  0  0  0  0  0  0  0  0
   20.2227  -23.1452  -13.8838 C   0  0  0  0  0  0  0  0  0  0  0  0
   21.0176  -22.2218  -14.5341 C   0  0  0  0  0  0  0  0  0  0  0  0
   21.8825  -20.4323  -11.6706 C   0  0  0  0  0  0  0  0  0  0  0  0
   21.0704  -19.5217  -12.3296 O   0  0  0  0  0  0  0  0  0  0  0  0
   21.3448  -20.9108  -10.6001 O   0  0  0  0  0  0  0  0  0  0  0  0
  1  2  1  0
  3  2  1  0
  4  5  1  0
  4  3  1  0
  5  1  1  0
  6  8  1  0
  5  6  1  1
  7  6  2  0
  9 20  1  0
  9  8  1  0
  9 10  1  1
 11 10  1  0
 11 19  1  0
 12 13  1  0
 12 11  2  0
 13 14  1  0
 14 15  2  0
 14 19  1  0
 15 16  1  0
 16 17  2  0
 18 17  1  0
 19 18  2  0
 20 22  1  0
 21 20  2  0
 22 23  1  0
 23 24  1  6
 24 25  1  0
 25 33  1  0
 25 26  2  0
 26 27  1  0
 28 27  1  0
 28 29  2  0
 30 29  1  0
 31 30  2  0
 32 33  2  0
 32 31  1  0
 33 28  1  0
 34 23  1  0
 34 35  1  0
 36 34  2  0
M  END
$$$$
