PWW.pdb
     RDKit          3D

 36 40  0  0  1  0  0  0  0  0999 V2000
   15.4359   -9.4379  -16.0014 N   0  0  0  0  0  0  0  0  0  0  0  0
   14.3358  -10.0720  -16.6856 C   0  0  0  0  0  0  0  0  0  0  0  0
   13.7898   -8.9630  -17.5537 C   0  0  0  0  0  0  0  0  0  0  0  0
   14.9980   -8.1184  -17.8417 C   0  0  0  0  0  0  0  0  0  0  0  0
   16.1302   -8.7342  -17.0410 C   0  0  1  0  0  0  0  0  0  0  0  0
   16.9819   -7.6373  -16.5202 C   0  0  0  0  0  0  0  0  0  0  0  0
   17.8985   -7.0999  -17.1794 O   0  0  0  0  0  0  0  0  0  0  0  0
   16.7459   -7.1738  -15.2100 N   0  0  0  0  0  0  0  0  0  0  0  0
   17.5341   -6.0471  -14.6039 C   0  0  1  0  0  0  0  0  0  0  0  0
   16.7013   -5.3378  -13.6404 C   0  0  0  0  0  0  0  0  0  0  0  0
   17.2713   -4.3306  -12.7432 C   0  0  0  0  0  0  0  0  0  0  0  0
   17.7502   -3.0711  -13.0948 C   0  0  0  0  0  0  0  0  0  0  0  0
   18.2191   -2.4119  -12.0436 N   0  0  0  0  0  0  0  0  0  0  0  0
   18.0621   -3.2171  -10.9801 C   0  0  0  0  0  0  0  0  0  0  0  0
   18.3797   -2.9479   -9.6701 C   0  0  0  0  0  0  0  0  0  0  0  0
   18.1118   -3.8980   -8.6929 C   0  0  0  0  0  0  0  0  0  0  0  0
   17.5331   -5.0791   -9.0919 C   0  0  0  0  0  0  0  0  0  0  0  0
   17.2182   -5.3420  -10.4125 C   0  0  0  0  0  0  0  0  0  0  0  0
   17.4804   -4.4073  -11.3821 C   0  0  0  0  0  0  0  0  0  0  0  0
   18.8247   -6.6207  -14.2738 C   0  0  0  0  0  0  0  0  0  0  0  0
   18.8494   -7.7540  -13.6311 O   0  0  0  0  0  0  0  0  0  0  0  0
   20.0898   -6.0516  -14.6079 N   0  0  0  0  0  0  0  0  0  0  0  0
   21.2856   -6.7345  -14.1814 C   0  0  1  0  0  0  0  0  0  0  0  0
   21.7375   -7.6779  -15.3141 C   0  0  0  0  0  0  0  0  0  0  0  0
   22.9104   -8.4893  -15.0102 C   0  0  0  0  0  0  0  0  0  0  0  0
   22.9246   -9.5056  -14.0437 C   0  0  0  0  0  0  0  0  0  0  0  0
   24.1529  -10.0501  -13.9865 N   0  0  0  0  0  0  0  0  0  0  0  0
   24.9695   -9.4367  -14.8825 C   0  0  0  0  0  0  0  0  0  0  0  0
   26.2904   -9.6681  -15.1775 C   0  0  0  0  0  0  0  0  0  0  0  0
   26.8994   -8.9041  -16.1622 C   0  0  0  0  0  0  0  0  0  0  0  0
   26.1306   -7.9449  -16.7944 C   0  0  0  0  0  0  0  0  0  0  0  0
   24.8170   -7.7315  -16.4821 C   0  0  0  0  0  0  0  0  0  0  0  0
   24.1906   -8.4796  -15.5047 C   0  0  0  0  0  0  0  0  0  0  0  0
   22.3610   -5.9107  -13.6446 C   0  0  0  0  0  0  0  0  0  0  0  0
   23.1257   -6.2085  -12.5268 O   0  0  0  0  0  0  0  0  0  0  0  0
   22.6880   -4.7938  -14.2011 O   0  0  0  0  0  0  0  0  0  0  0  0
  1  2  1  0
  3  2  1  0
  4  5  1  0
  4  3  1  0
  5  1  1  0
  6  8  1  0
  5  6  1  1
  7  6  2  0
  9 20  1  0
  9  8  1  0
  9 10  1  1
 11 10  1  0
 11 19  1  0
 12 13  1  0
 12 11  2  0
 13 14  1  0
 14 15  2  0
 14 19  1  0
 15 16  1  0
 16 17  2  0
 18 17  1  0
 19 18  2  0
 20 22  1  0
 21 20  2  0
 22 23  1  0
 23 24  1  6
 24 25  1  0
 25 33  1  0
 25 26  2  0
 26 27  1  0
 28 27  1  0
 28 29  2  0
 30 29  1  0
 31 30  2  0
 32 33  2  0
 32 31  1  0
 33 28  1  0
 34 23  1  0
 34 35  1  0
 36 34  2  0
M  END
$$$$
