PWW.pdb
     RDKit          3D

 36 40  0  0  1  0  0  0  0  0999 V2000
   27.8113  -20.0389  -16.1685 N   0  0  0  0  0  0  0  0  0  0  0  0
   28.2126  -19.5379  -17.4601 C   0  0  0  0  0  0  0  0  0  0  0  0
   27.7460  -18.1017  -17.4286 C   0  0  0  0  0  0  0  0  0  0  0  0
   27.8257  -17.7409  -15.9728 C   0  0  0  0  0  0  0  0  0  0  0  0
   28.2302  -19.0151  -15.2551 C   0  0  1  0  0  0  0  0  0  0  0  0
   27.5066  -19.0703  -13.9616 C   0  0  0  0  0  0  0  0  0  0  0  0
   27.5940  -18.1867  -13.0812 O   0  0  0  0  0  0  0  0  0  0  0  0
   26.6737  -20.1793  -13.7097 N   0  0  0  0  0  0  0  0  0  0  0  0
   25.6789  -20.1956  -12.5835 C   0  0  1  0  0  0  0  0  0  0  0  0
   24.3719  -20.5849  -13.0984 C   0  0  0  0  0  0  0  0  0  0  0  0
   23.3191  -19.5918  -13.3211 C   0  0  0  0  0  0  0  0  0  0  0  0
   23.1794  -18.7524  -14.4235 C   0  0  0  0  0  0  0  0  0  0  0  0
   22.1260  -17.9551  -14.3045 N   0  0  0  0  0  0  0  0  0  0  0  0
   21.5499  -18.2478  -13.1271 C   0  0  0  0  0  0  0  0  0  0  0  0
   20.4124  -17.6943  -12.5893 C   0  0  0  0  0  0  0  0  0  0  0  0
   19.9435  -18.1514  -11.3643 C   0  0  0  0  0  0  0  0  0  0  0  0
   20.6525  -19.1505  -10.7413 C   0  0  0  0  0  0  0  0  0  0  0  0
   21.7969  -19.7005  -11.2892 C   0  0  0  0  0  0  0  0  0  0  0  0
   22.2648  -19.2533  -12.4989 C   0  0  0  0  0  0  0  0  0  0  0  0
   26.3466  -20.8858  -11.4967 C   0  0  0  0  0  0  0  0  0  0  0  0
   26.8866  -22.0460  -11.7425 O   0  0  0  0  0  0  0  0  0  0  0  0
   26.4785  -20.3927  -10.1642 N   0  0  0  0  0  0  0  0  0  0  0  0
   26.5992  -21.3438   -9.0874 C   0  0  1  0  0  0  0  0  0  0  0  0
   27.9583  -21.1232   -8.3935 C   0  0  0  0  0  0  0  0  0  0  0  0
   27.9634  -20.0949   -7.3596 C   0  0  0  0  0  0  0  0  0  0  0  0
   27.3733  -18.8321   -7.5148 C   0  0  0  0  0  0  0  0  0  0  0  0
   27.5654  -18.1092   -6.3972 N   0  0  0  0  0  0  0  0  0  0  0  0
   28.2647  -18.8411   -5.4912 C   0  0  0  0  0  0  0  0  0  0  0  0
   28.6746  -18.5182   -4.2211 C   0  0  0  0  0  0  0  0  0  0  0  0
   29.3702  -19.4639   -3.4822 C   0  0  0  0  0  0  0  0  0  0  0  0
   29.6114  -20.6886   -4.0761 C   0  0  0  0  0  0  0  0  0  0  0  0
   29.1948  -20.9866   -5.3435 C   0  0  0  0  0  0  0  0  0  0  0  0
   28.5016  -20.0602   -6.0976 C   0  0  0  0  0  0  0  0  0  0  0  0
   25.4793  -21.4374   -8.1600 C   0  0  0  0  0  0  0  0  0  0  0  0
   25.3771  -22.3309   -7.1045 O   0  0  0  0  0  0  0  0  0  0  0  0
   24.4576  -20.6570   -8.2658 O   0  0  0  0  0  0  0  0  0  0  0  0
  1  2  1  0
  3  2  1  0
  4  5  1  0
  4  3  1  0
  5  1  1  0
  6  8  1  0
  5  6  1  1
  7  6  2  0
  9 20  1  0
  9  8  1  0
  9 10  1  6
 11 10  1  0
 11 19  1  0
 12 13  1  0
 12 11  2  0
 13 14  1  0
 14 15  2  0
 14 19  1  0
 15 16  1  0
 16 17  2  0
 18 17  1  0
 19 18  2  0
 20 22  1  0
 21 20  2  0
 22 23  1  0
 23 24  1  1
 24 25  1  0
 25 33  1  0
 25 26  2  0
 26 27  1  0
 28 27  1  0
 28 29  2  0
 30 29  1  0
 31 30  2  0
 32 33  2  0
 32 31  1  0
 33 28  1  0
 34 23  1  0
 34 35  1  0
 36 34  2  0
M  END
$$$$
