PWW.pdb
     RDKit          3D

 36 40  0  0  1  0  0  0  0  0999 V2000
   29.4683  -23.4718  -17.8687 N   0  0  0  0  0  0  0  0  0  0  0  0
   30.3981  -24.2578  -18.6420 C   0  0  0  0  0  0  0  0  0  0  0  0
   31.7117  -24.0269  -17.9330 C   0  0  0  0  0  0  0  0  0  0  0  0
   31.3020  -23.7929  -16.5070 C   0  0  0  0  0  0  0  0  0  0  0  0
   29.7847  -23.8011  -16.5088 C   0  0  1  0  0  0  0  0  0  0  0  0
   29.3128  -22.7759  -15.5464 C   0  0  0  0  0  0  0  0  0  0  0  0
   29.6019  -22.7831  -14.3299 O   0  0  0  0  0  0  0  0  0  0  0  0
   28.4935  -21.7351  -16.0285 N   0  0  0  0  0  0  0  0  0  0  0  0
   28.0803  -20.5752  -15.1670 C   0  0  1  0  0  0  0  0  0  0  0  0
   27.8232  -19.4141  -16.0100 C   0  0  0  0  0  0  0  0  0  0  0  0
   26.9822  -18.3102  -15.5427 C   0  0  0  0  0  0  0  0  0  0  0  0
   27.4032  -17.1578  -14.8838 C   0  0  0  0  0  0  0  0  0  0  0  0
   26.3841  -16.3648  -14.5798 N   0  0  0  0  0  0  0  0  0  0  0  0
   25.2734  -16.9726  -15.0280 C   0  0  0  0  0  0  0  0  0  0  0  0
   23.9802  -16.5117  -14.9617 C   0  0  0  0  0  0  0  0  0  0  0  0
   22.9555  -17.2695  -15.5140 C   0  0  0  0  0  0  0  0  0  0  0  0
   23.2921  -18.4621  -16.1086 C   0  0  0  0  0  0  0  0  0  0  0  0
   24.5959  -18.9188  -16.1694 C   0  0  0  0  0  0  0  0  0  0  0  0
   25.6122  -18.1745  -15.6258 C   0  0  0  0  0  0  0  0  0  0  0  0
   27.1074  -21.1189  -14.2389 C   0  0  0  0  0  0  0  0  0  0  0  0
   26.3808  -22.1281  -14.6283 O   0  0  0  0  0  0  0  0  0  0  0  0
   26.8815  -20.6477  -12.9111 N   0  0  0  0  0  0  0  0  0  0  0  0
   25.8203  -21.2458  -12.1400 C   0  0  1  0  0  0  0  0  0  0  0  0
   26.4350  -21.8793  -10.8758 C   0  0  0  0  0  0  0  0  0  0  0  0
   26.5651  -20.9795   -9.7357 C   0  0  0  0  0  0  0  0  0  0  0  0
   25.6678  -19.9373   -9.4604 C   0  0  0  0  0  0  0  0  0  0  0  0
   26.0714  -19.2801   -8.3587 N   0  0  0  0  0  0  0  0  0  0  0  0
   27.2109  -19.8436   -7.8793 C   0  0  0  0  0  0  0  0  0  0  0  0
   27.9643  -19.5156   -6.7792 C   0  0  0  0  0  0  0  0  0  0  0  0
   29.0919  -20.2707   -6.4917 C   0  0  0  0  0  0  0  0  0  0  0  0
   29.3924  -21.3200   -7.3399 C   0  0  0  0  0  0  0  0  0  0  0  0
   28.6277  -21.6264   -8.4308 C   0  0  0  0  0  0  0  0  0  0  0  0
   27.5015  -20.8878   -8.7367 C   0  0  0  0  0  0  0  0  0  0  0  0
   24.6530  -20.4171  -11.8685 C   0  0  0  0  0  0  0  0  0  0  0  0
   23.3963  -20.8833  -11.5134 O   0  0  0  0  0  0  0  0  0  0  0  0
   24.7147  -19.1308  -11.9456 O   0  0  0  0  0  0  0  0  0  0  0  0
  1  2  1  0
  3  2  1  0
  4  5  1  0
  4  3  1  0
  5  1  1  0
  6  8  1  0
  5  6  1  1
  7  6  2  0
  9 20  1  0
  9  8  1  0
  9 10  1  6
 11 10  1  0
 11 19  1  0
 12 13  1  0
 12 11  2  0
 13 14  1  0
 14 15  2  0
 14 19  1  0
 15 16  1  0
 16 17  2  0
 18 17  1  0
 19 18  2  0
 20 22  1  0
 21 20  2  0
 22 23  1  0
 23 24  1  1
 24 25  1  0
 25 33  1  0
 25 26  2  0
 26 27  1  0
 28 27  1  0
 28 29  2  0
 30 29  1  0
 31 30  2  0
 32 33  2  0
 32 31  1  0
 33 28  1  0
 34 23  1  0
 34 35  1  0
 36 34  2  0
M  END
$$$$
