PWW.pdb
     RDKit          3D

 36 40  0  0  1  0  0  0  0  0999 V2000
   28.2701  -22.7815  -16.9063 N   0  0  0  0  0  0  0  0  0  0  0  0
   28.8680  -22.9813  -18.2036 C   0  0  0  0  0  0  0  0  0  0  0  0
   29.0628  -21.5716  -18.7098 C   0  0  0  0  0  0  0  0  0  0  0  0
   29.2668  -20.7747  -17.4531 C   0  0  0  0  0  0  0  0  0  0  0  0
   29.0737  -21.7535  -16.3100 C   0  0  1  0  0  0  0  0  0  0  0  0
   28.3761  -21.0488  -15.2069 C   0  0  0  0  0  0  0  0  0  0  0  0
   28.8565  -20.0672  -14.5994 O   0  0  0  0  0  0  0  0  0  0  0  0
   27.1011  -21.5098  -14.8214 N   0  0  0  0  0  0  0  0  0  0  0  0
   26.1883  -20.7022  -13.9422 C   0  0  1  0  0  0  0  0  0  0  0  0
   24.8818  -20.5867  -14.5782 C   0  0  0  0  0  0  0  0  0  0  0  0
   23.7550  -19.9587  -13.8852 C   0  0  0  0  0  0  0  0  0  0  0  0
   23.5055  -18.5946  -13.7577 C   0  0  0  0  0  0  0  0  0  0  0  0
   22.4080  -18.3591  -13.0508 N   0  0  0  0  0  0  0  0  0  0  0  0
   21.9112  -19.5557  -12.6969 C   0  0  0  0  0  0  0  0  0  0  0  0
   20.7668  -19.8097  -11.9790 C   0  0  0  0  0  0  0  0  0  0  0  0
   20.3901  -21.1244  -11.7363 C   0  0  0  0  0  0  0  0  0  0  0  0
   21.1943  -22.1216  -12.2342 C   0  0  0  0  0  0  0  0  0  0  0  0
   22.3448  -21.8568  -12.9542 C   0  0  0  0  0  0  0  0  0  0  0  0
   22.7219  -20.5602  -13.1973 C   0  0  0  0  0  0  0  0  0  0  0  0
   26.3817  -21.2316  -12.6058 C   0  0  0  0  0  0  0  0  0  0  0  0
   26.7484  -22.4760  -12.4827 O   0  0  0  0  0  0  0  0  0  0  0  0
   26.2164  -20.4947  -11.3951 N   0  0  0  0  0  0  0  0  0  0  0  0
   26.3770  -21.1872  -10.1409 C   0  0  1  0  0  0  0  0  0  0  0  0
   27.7401  -20.7922   -9.5381 C   0  0  0  0  0  0  0  0  0  0  0  0
   27.6679  -19.9994   -8.3164 C   0  0  0  0  0  0  0  0  0  0  0  0
   26.8936  -18.8370   -8.1874 C   0  0  0  0  0  0  0  0  0  0  0  0
   27.0555  -18.3275   -6.9534 N   0  0  0  0  0  0  0  0  0  0  0  0
   27.9124  -19.1067   -6.2434 C   0  0  0  0  0  0  0  0  0  0  0  0
   28.3570  -18.9810   -4.9503 C   0  0  0  0  0  0  0  0  0  0  0  0
   29.2296  -19.9349   -4.4474 C   0  0  0  0  0  0  0  0  0  0  0  0
   29.6030  -20.9666   -5.2883 C   0  0  0  0  0  0  0  0  0  0  0  0
   29.1483  -21.0698   -6.5733 C   0  0  0  0  0  0  0  0  0  0  0  0
   28.2799  -20.1312   -7.0951 C   0  0  0  0  0  0  0  0  0  0  0  0
   25.2735  -21.1020   -9.1932 C   0  0  0  0  0  0  0  0  0  0  0  0
   25.1014  -21.9093   -8.0790 O   0  0  0  0  0  0  0  0  0  0  0  0
   24.3365  -20.2269   -9.3362 O   0  0  0  0  0  0  0  0  0  0  0  0
  1  2  1  0
  3  2  1  0
  4  5  1  0
  4  3  1  0
  5  1  1  0
  6  8  1  0
  5  6  1  1
  7  6  2  0
  9 20  1  0
  9  8  1  0
  9 10  1  6
 11 10  1  0
 11 19  1  0
 12 13  1  0
 12 11  2  0
 13 14  1  0
 14 15  2  0
 14 19  1  0
 15 16  1  0
 16 17  2  0
 18 17  1  0
 19 18  2  0
 20 22  1  0
 21 20  2  0
 22 23  1  0
 23 24  1  1
 24 25  1  0
 25 33  1  0
 25 26  2  0
 26 27  1  0
 28 27  1  0
 28 29  2  0
 30 29  1  0
 31 30  2  0
 32 33  2  0
 32 31  1  0
 33 28  1  0
 34 23  1  0
 34 35  1  0
 36 34  2  0
M  END
$$$$
