PWW.pdb
     RDKit          3D

 36 40  0  0  1  0  0  0  0  0999 V2000
   20.4269  -28.2344  -13.3861 N   0  0  0  0  0  0  0  0  0  0  0  0
   21.2238  -28.6621  -14.5097 C   0  0  0  0  0  0  0  0  0  0  0  0
   21.3241  -27.4122  -15.3518 C   0  0  0  0  0  0  0  0  0  0  0  0
   21.2517  -26.3037  -14.3409 C   0  0  0  0  0  0  0  0  0  0  0  0
   21.0116  -26.9812  -13.0046 C   0  0  1  0  0  0  0  0  0  0  0  0
   20.0859  -26.1345  -12.2134 C   0  0  0  0  0  0  0  0  0  0  0  0
   20.3367  -24.9542  -11.8853 O   0  0  0  0  0  0  0  0  0  0  0  0
   18.8551  -26.6895  -11.8085 N   0  0  0  0  0  0  0  0  0  0  0  0
   17.7917  -25.8728  -11.1299 C   0  0  1  0  0  0  0  0  0  0  0  0
   16.5816  -25.8833  -11.9426 C   0  0  0  0  0  0  0  0  0  0  0  0
   16.4472  -25.0125  -13.1122 C   0  0  0  0  0  0  0  0  0  0  0  0
   16.5302  -25.3890  -14.4504 C   0  0  0  0  0  0  0  0  0  0  0  0
   16.3828  -24.3514  -15.2635 N   0  0  0  0  0  0  0  0  0  0  0  0
   16.2009  -23.2721  -14.4850 C   0  0  0  0  0  0  0  0  0  0  0  0
   15.9786  -21.9764  -14.8862 C   0  0  0  0  0  0  0  0  0  0  0  0
   15.7773  -20.9898  -13.9294 C   0  0  0  0  0  0  0  0  0  0  0  0
   15.8114  -21.3653  -12.6077 C   0  0  0  0  0  0  0  0  0  0  0  0
   16.0372  -22.6713  -12.2131 C   0  0  0  0  0  0  0  0  0  0  0  0
   16.2365  -23.6501  -13.1537 C   0  0  0  0  0  0  0  0  0  0  0  0
   17.8235  -26.2869   -9.7403 C   0  0  0  0  0  0  0  0  0  0  0  0
   18.0372  -27.5451   -9.4766 O   0  0  0  0  0  0  0  0  0  0  0  0
   17.6524  -25.4223   -8.6181 N   0  0  0  0  0  0  0  0  0  0  0  0
   17.6691  -25.9986   -7.2967 C   0  0  1  0  0  0  0  0  0  0  0  0
   17.9654  -24.8775   -6.2806 C   0  0  0  0  0  0  0  0  0  0  0  0
   16.8655  -23.9486   -6.0486 C   0  0  0  0  0  0  0  0  0  0  0  0
   15.9819  -24.0440   -4.9636 C   0  0  0  0  0  0  0  0  0  0  0  0
   15.0707  -23.0580   -5.0419 N   0  0  0  0  0  0  0  0  0  0  0  0
   15.3090  -22.2987   -6.1430 C   0  0  0  0  0  0  0  0  0  0  0  0
   14.6487  -21.1899   -6.6121 C   0  0  0  0  0  0  0  0  0  0  0  0
   15.1090  -20.5767   -7.7681 C   0  0  0  0  0  0  0  0  0  0  0  0
   16.2177  -21.1254   -8.3851 C   0  0  0  0  0  0  0  0  0  0  0  0
   16.8577  -22.2315   -7.9000 C   0  0  0  0  0  0  0  0  0  0  0  0
   16.4164  -22.8587   -6.7514 C   0  0  0  0  0  0  0  0  0  0  0  0
   16.5356  -26.8362   -6.9269 C   0  0  0  0  0  0  0  0  0  0  0  0
   16.5458  -27.8271   -5.9569 O   0  0  0  0  0  0  0  0  0  0  0  0
   15.3910  -26.7053   -7.5075 O   0  0  0  0  0  0  0  0  0  0  0  0
  1  2  1  0
  3  2  1  0
  4  5  1  0
  4  3  1  0
  5  1  1  0
  6  8  1  0
  5  6  1  1
  7  6  2  0
  9 20  1  0
  9  8  1  0
  9 10  1  6
 11 10  1  0
 11 19  1  0
 12 13  1  0
 12 11  2  0
 13 14  1  0
 14 15  2  0
 14 19  1  0
 15 16  1  0
 16 17  2  0
 18 17  1  0
 19 18  2  0
 20 22  1  0
 21 20  2  0
 22 23  1  0
 23 24  1  1
 24 25  1  0
 25 33  1  0
 25 26  2  0
 26 27  1  0
 28 27  1  0
 28 29  2  0
 30 29  1  0
 31 30  2  0
 32 33  2  0
 32 31  1  0
 33 28  1  0
 34 23  1  0
 34 35  1  0
 36 34  2  0
M  END
$$$$
