PWW.pdb
     RDKit          3D

 36 40  0  0  1  0  0  0  0  0999 V2000
   22.6377  -18.3168    9.6861 N   0  0  0  0  0  0  0  0  0  0  0  0
   23.7889  -18.2273   10.5505 C   0  0  0  0  0  0  0  0  0  0  0  0
   23.2686  -17.4416   11.7309 C   0  0  0  0  0  0  0  0  0  0  0  0
   21.8126  -17.8071   11.7787 C   0  0  0  0  0  0  0  0  0  0  0  0
   21.5707  -18.6907   10.5692 C   0  0  1  0  0  0  0  0  0  0  0  0
   20.2318  -18.3688   10.0182 C   0  0  0  0  0  0  0  0  0  0  0  0
   19.1613  -18.7843   10.5131 O   0  0  0  0  0  0  0  0  0  0  0  0
   20.1606  -17.5489    8.8737 N   0  0  0  0  0  0  0  0  0  0  0  0
   18.8509  -17.1259    8.2704 C   0  0  1  0  0  0  0  0  0  0  0  0
   18.7996  -15.6710    8.1973 C   0  0  0  0  0  0  0  0  0  0  0  0
   18.5516  -14.9847    6.9277 C   0  0  0  0  0  0  0  0  0  0  0  0
   17.5893  -15.3089    5.9747 C   0  0  0  0  0  0  0  0  0  0  0  0
   17.6420  -14.4975    4.9266 N   0  0  0  0  0  0  0  0  0  0  0  0
   18.6353  -13.6247    5.1621 C   0  0  0  0  0  0  0  0  0  0  0  0
   19.0408  -12.5805    4.3655 C   0  0  0  0  0  0  0  0  0  0  0  0
   20.0734  -11.7558    4.7931 C   0  0  0  0  0  0  0  0  0  0  0  0
   20.6473  -12.0302    6.0114 C   0  0  0  0  0  0  0  0  0  0  0  0
   20.2338  -13.0839    6.8058 C   0  0  0  0  0  0  0  0  0  0  0  0
   19.2142  -13.9018    6.3888 C   0  0  0  0  0  0  0  0  0  0  0  0
   18.6656  -17.9901    7.1204 C   0  0  0  0  0  0  0  0  0  0  0  0
   19.7002  -18.2514    6.3725 O   0  0  0  0  0  0  0  0  0  0  0  0
   17.4339  -18.6000    6.7373 N   0  0  0  0  0  0  0  0  0  0  0  0
   17.4686  -19.6807    5.7837 C   0  0  1  0  0  0  0  0  0  0  0  0
   18.5899  -20.6561    6.1942 C   0  0  0  0  0  0  0  0  0  0  0  0
   18.7189  -21.8383    5.3503 C   0  0  0  0  0  0  0  0  0  0  0  0
   18.2702  -21.8998    4.0229 C   0  0  0  0  0  0  0  0  0  0  0  0
   18.5139  -23.1253    3.5257 N   0  0  0  0  0  0  0  0  0  0  0  0
   19.1131  -23.8942    4.4719 C   0  0  0  0  0  0  0  0  0  0  0  0
   19.5497  -25.1945    4.4082 C   0  0  0  0  0  0  0  0  0  0  0  0
   20.1548  -25.7523    5.5249 C   0  0  0  0  0  0  0  0  0  0  0  0
   20.2833  -24.9560    6.6474 C   0  0  0  0  0  0  0  0  0  0  0  0
   19.8390  -23.6638    6.6878 C   0  0  0  0  0  0  0  0  0  0  0  0
   19.2329  -23.0884    5.5883 C   0  0  0  0  0  0  0  0  0  0  0  0
   16.2035  -20.3390    5.4848 C   0  0  0  0  0  0  0  0  0  0  0  0
   15.7512  -20.6837    4.2201 O   0  0  0  0  0  0  0  0  0  0  0  0
   15.3792  -20.6594    6.4240 O   0  0  0  0  0  0  0  0  0  0  0  0
  1  2  1  0
  3  2  1  0
  4  5  1  0
  4  3  1  0
  5  1  1  0
  6  8  1  0
  5  6  1  6
  7  6  2  0
  9 20  1  0
  9  8  1  0
  9 10  1  6
 11 10  1  0
 11 19  1  0
 12 13  1  0
 12 11  2  0
 13 14  1  0
 14 15  2  0
 14 19  1  0
 15 16  1  0
 16 17  2  0
 18 17  1  0
 19 18  2  0
 20 22  1  0
 21 20  2  0
 22 23  1  0
 23 24  1  1
 24 25  1  0
 25 33  1  0
 25 26  2  0
 26 27  1  0
 28 27  1  0
 28 29  2  0
 30 29  1  0
 31 30  2  0
 32 33  2  0
 32 31  1  0
 33 28  1  0
 34 23  1  0
 34 35  1  0
 36 34  2  0
M  END
$$$$
