PWW.pdb
     RDKit          3D

 36 40  0  0  1  0  0  0  0  0999 V2000
   28.5273  -19.2735  -14.1034 N   0  0  0  0  0  0  0  0  0  0  0  0
   29.5539  -19.2090  -15.1146 C   0  0  0  0  0  0  0  0  0  0  0  0
   30.0936  -20.6194  -15.1428 C   0  0  0  0  0  0  0  0  0  0  0  0
   28.9085  -21.4544  -14.7501 C   0  0  0  0  0  0  0  0  0  0  0  0
   27.8018  -20.4691  -14.4232 C   0  0  1  0  0  0  0  0  0  0  0  0
   27.0333  -20.9984  -13.2703 C   0  0  0  0  0  0  0  0  0  0  0  0
   26.1472  -21.8747  -13.3727 O   0  0  0  0  0  0  0  0  0  0  0  0
   27.3166  -20.4866  -11.9879 N   0  0  0  0  0  0  0  0  0  0  0  0
   26.6089  -20.9744  -10.7553 C   0  0  1  0  0  0  0  0  0  0  0  0
   27.5125  -20.8927   -9.6144 C   0  0  0  0  0  0  0  0  0  0  0  0
   26.9987  -20.8002   -8.2463 C   0  0  0  0  0  0  0  0  0  0  0  0
   25.6960  -21.0506   -7.8224 C   0  0  0  0  0  0  0  0  0  0  0  0
   25.5570  -20.8556   -6.5178 N   0  0  0  0  0  0  0  0  0  0  0  0
   26.7580  -20.4734   -6.0533 C   0  0  0  0  0  0  0  0  0  0  0  0
   27.1022  -20.1866   -4.7538 C   0  0  0  0  0  0  0  0  0  0  0  0
   28.4132  -19.8378   -4.4553 C   0  0  0  0  0  0  0  0  0  0  0  0
   29.3149  -19.7960   -5.4918 C   0  0  0  0  0  0  0  0  0  0  0  0
   28.9593  -20.0847   -6.7966 C   0  0  0  0  0  0  0  0  0  0  0  0
   27.6660  -20.4300   -7.0975 C   0  0  0  0  0  0  0  0  0  0  0  0
   25.3058  -20.3386  -10.7887 C   0  0  0  0  0  0  0  0  0  0  0  0
   25.2412  -19.0538  -10.5803 O   0  0  0  0  0  0  0  0  0  0  0  0
   24.0700  -21.0036  -11.0470 N   0  0  0  0  0  0  0  0  0  0  0  0
   22.8628  -20.2172  -11.0971 C   0  0  1  0  0  0  0  0  0  0  0  0
   23.0804  -19.0542  -12.0857 C   0  0  0  0  0  0  0  0  0  0  0  0
   22.5651  -19.2830  -13.4305 C   0  0  0  0  0  0  0  0  0  0  0  0
   21.2293  -19.6088  -13.7073 C   0  0  0  0  0  0  0  0  0  0  0  0
   21.0760  -19.7760  -15.0328 N   0  0  0  0  0  0  0  0  0  0  0  0
   22.2631  -19.5735  -15.6617 C   0  0  0  0  0  0  0  0  0  0  0  0
   22.5759  -19.6251  -16.9978 C   0  0  0  0  0  0  0  0  0  0  0  0
   23.8790  -19.3564  -17.3903 C   0  0  0  0  0  0  0  0  0  0  0  0
   24.7945  -19.0493  -16.4012 C   0  0  0  0  0  0  0  0  0  0  0  0
   24.4598  -19.0058  -15.0765 C   0  0  0  0  0  0  0  0  0  0  0  0
   23.1690  -19.2706  -14.6629 C   0  0  0  0  0  0  0  0  0  0  0  0
   21.6138  -20.9370  -11.3093 C   0  0  0  0  0  0  0  0  0  0  0  0
   20.3598  -20.5202  -10.8890 O   0  0  0  0  0  0  0  0  0  0  0  0
   21.5915  -22.0665  -11.9321 O   0  0  0  0  0  0  0  0  0  0  0  0
  1  2  1  0
  3  2  1  0
  4  5  1  0
  4  3  1  0
  5  1  1  0
  6  8  1  0
  5  6  1  1
  7  6  2  0
  9 20  1  0
  9  8  1  0
  9 10  1  1
 11 10  1  0
 11 19  1  0
 12 13  1  0
 12 11  2  0
 13 14  1  0
 14 15  2  0
 14 19  1  0
 15 16  1  0
 16 17  2  0
 18 17  1  0
 19 18  2  0
 20 22  1  0
 21 20  2  0
 22 23  1  0
 23 24  1  6
 24 25  1  0
 25 33  1  0
 25 26  2  0
 26 27  1  0
 28 27  1  0
 28 29  2  0
 30 29  1  0
 31 30  2  0
 32 33  2  0
 32 31  1  0
 33 28  1  0
 34 23  1  0
 34 35  1  0
 36 34  2  0
M  END
$$$$
