DSM.pdb
     RDKit          3D

 23 22  0  0  1  0  0  0  0  0999 V2000
    8.7758  -20.2741   18.7059 N   0  0  0  0  0  0  0  0  0  0  0  0
    8.9982  -18.9211   19.1094 C   0  0  1  0  0  0  0  0  0  0  0  0
    8.7607  -17.9768   17.9365 C   0  0  0  0  0  0  0  0  0  0  0  0
    9.9211  -17.9980   17.0359 C   0  0  0  0  0  0  0  0  0  0  0  0
   10.9264  -18.6985   17.3378 O   0  0  0  0  0  0  0  0  0  0  0  0
    8.0725  -18.5064   20.2172 C   0  0  0  0  0  0  0  0  0  0  0  0
    6.8642  -18.2657   19.9803 O   0  0  0  0  0  0  0  0  0  0  0  0
    9.9393  -17.2754   15.8747 O   0  0  0  0  0  0  0  0  0  0  0  0
    6.7599  -19.1462   24.6693 O   0  0  0  0  0  0  0  0  0  0  0  0
    7.5977  -19.3787   23.5875 C   0  0  0  0  0  0  0  0  0  0  0  0
    7.6189  -18.1608   22.6931 C   0  0  2  0  0  0  0  0  0  0  0  0
    8.5217  -18.3725   21.5550 N   0  0  0  0  0  0  0  0  0  0  0  0
    8.1399  -17.0127   23.4775 C   0  0  0  0  0  0  0  0  0  0  0  0
    9.3995  -16.8405   23.5709 O   0  0  0  0  0  0  0  0  0  0  0  0
    6.5911  -10.4361   27.6417 C   0  0  0  0  0  0  0  0  0  0  0  0
    5.9942  -11.8350   26.6697 S   0  0  0  0  0  0  0  0  0  0  0  0
    7.3735  -12.9701   26.2652 C   0  0  0  0  0  0  0  0  0  0  0  0
    6.8703  -14.0901   25.4018 C   0  0  0  0  0  0  0  0  0  0  0  0
    7.9513  -15.0444   25.0023 C   0  0  2  0  0  0  0  0  0  0  0  0
    7.3441  -16.0676   24.1472 N   0  0  0  0  0  0  0  0  0  0  0  0
    8.6049  -15.6801   26.1745 C   0  0  0  0  0  0  0  0  0  0  0  0
    9.6333  -15.0138   26.8250 O   0  0  0  0  0  0  0  0  0  0  0  0
    8.2754  -16.7991   26.6150 O   0  0  0  0  0  0  0  0  0  0  0  0
  2  1  1  6
  3  4  1  0
  3  2  1  0
  4  8  1  0
  5  4  2  0
  6  7  2  0
  6  2  1  0
  9 10  1  0
 11 10  1  1
 11 13  1  0
 11 12  1  0
 12  6  1  0
 13 14  2  0
 16 15  1  0
 17 16  1  0
 18 17  1  0
 19 18  1  1
 20 13  1  0
 20 19  1  0
 21 22  1  0
 21 19  1  0
 23 21  2  0
M  END
$$$$
