DSM.pdb
     RDKit          3D

 23 22  0  0  1  0  0  0  0  0999 V2000
   12.5115  -18.7188   18.8341 N   0  0  0  0  0  0  0  0  0  0  0  0
   12.7217  -18.1720   20.1378 C   0  0  1  0  0  0  0  0  0  0  0  0
   13.8421  -17.1391   20.1004 C   0  0  0  0  0  0  0  0  0  0  0  0
   15.1445  -17.8170   20.0511 C   0  0  0  0  0  0  0  0  0  0  0  0
   15.3060  -18.8945   20.6876 O   0  0  0  0  0  0  0  0  0  0  0  0
   11.4932  -17.4863   20.6637 C   0  0  0  0  0  0  0  0  0  0  0  0
   11.2518  -16.2929   20.3613 O   0  0  0  0  0  0  0  0  0  0  0  0
   16.1896  -17.3081   19.3303 O   0  0  0  0  0  0  0  0  0  0  0  0
    8.7811  -19.4775   23.2316 O   0  0  0  0  0  0  0  0  0  0  0  0
    8.2848  -18.7043   22.1914 C   0  0  0  0  0  0  0  0  0  0  0  0
    9.2619  -17.5961   21.8739 C   0  0  2  0  0  0  0  0  0  0  0  0
   10.5714  -18.1516   21.5105 N   0  0  0  0  0  0  0  0  0  0  0  0
    9.4433  -16.7681   23.0930 C   0  0  0  0  0  0  0  0  0  0  0  0
   10.5292  -16.8599   23.7544 O   0  0  0  0  0  0  0  0  0  0  0  0
    6.5208  -11.0797   27.8040 C   0  0  0  0  0  0  0  0  0  0  0  0
    6.3628  -12.1188   26.3366 S   0  0  0  0  0  0  0  0  0  0  0  0
    7.7607  -13.2975   26.2318 C   0  0  0  0  0  0  0  0  0  0  0  0
    7.6864  -14.0568   24.9391 C   0  0  0  0  0  0  0  0  0  0  0  0
    8.7812  -15.0667   24.7964 C   0  0  2  0  0  0  0  0  0  0  0  0
    8.4958  -15.8622   23.5995 N   0  0  0  0  0  0  0  0  0  0  0  0
    8.8915  -15.9515   25.9840 C   0  0  0  0  0  0  0  0  0  0  0  0
    8.3538  -17.2293   25.9333 O   0  0  0  0  0  0  0  0  0  0  0  0
    9.4502  -15.6041   27.0432 O   0  0  0  0  0  0  0  0  0  0  0  0
  2  1  1  6
  3  4  1  0
  3  2  1  0
  4  8  1  0
  5  4  2  0
  6  7  2  0
  6  2  1  0
  9 10  1  0
 11 10  1  1
 11 13  1  0
 11 12  1  0
 12  6  1  0
 13 14  2  0
 16 15  1  0
 17 16  1  0
 18 17  1  0
 19 18  1  1
 20 13  1  0
 20 19  1  0
 21 22  1  0
 21 19  1  0
 23 21  2  0
M  END
$$$$
