DSM.pdb
     RDKit          3D

 23 22  0  0  1  0  0  0  0  0999 V2000
   12.3729  -15.1618   17.6526 N   0  0  0  0  0  0  0  0  0  0  0  0
   12.8427  -15.3847   18.9839 C   0  0  1  0  0  0  0  0  0  0  0  0
   13.7241  -14.2245   19.4317 C   0  0  0  0  0  0  0  0  0  0  0  0
   15.0017  -14.2598   18.7072 C   0  0  0  0  0  0  0  0  0  0  0  0
   15.7597  -15.2601   18.8375 O   0  0  0  0  0  0  0  0  0  0  0  0
   11.7122  -15.4980   19.9665 C   0  0  0  0  0  0  0  0  0  0  0  0
   10.9649  -14.5160   20.1927 O   0  0  0  0  0  0  0  0  0  0  0  0
   15.3913  -13.2325   17.8926 O   0  0  0  0  0  0  0  0  0  0  0  0
   10.8919  -19.1627   21.7863 O   0  0  0  0  0  0  0  0  0  0  0  0
    9.8250  -18.3062   21.5534 C   0  0  0  0  0  0  0  0  0  0  0  0
   10.3105  -16.8753   21.5769 C   0  0  2  0  0  0  0  0  0  0  0  0
   11.4494  -16.7021   20.6668 N   0  0  0  0  0  0  0  0  0  0  0  0
   10.7769  -16.5614   22.9513 C   0  0  0  0  0  0  0  0  0  0  0  0
   12.0260  -16.5755   23.2053 O   0  0  0  0  0  0  0  0  0  0  0  0
    9.3629  -13.2319   29.9478 C   0  0  0  0  0  0  0  0  0  0  0  0
    8.7514  -13.7599   28.3337 S   0  0  0  0  0  0  0  0  0  0  0  0
    9.9437  -14.8997   27.5376 C   0  0  0  0  0  0  0  0  0  0  0  0
    9.4828  -15.2227   26.1460 C   0  0  0  0  0  0  0  0  0  0  0  0
   10.4911  -16.0098   25.3697 C   0  0  2  0  0  0  0  0  0  0  0  0
    9.9386  -16.2390   24.0322 N   0  0  0  0  0  0  0  0  0  0  0  0
   10.8161  -17.3059   26.0176 C   0  0  0  0  0  0  0  0  0  0  0  0
   10.1133  -18.4448   25.6523 O   0  0  0  0  0  0  0  0  0  0  0  0
   11.7011  -17.4303   26.8870 O   0  0  0  0  0  0  0  0  0  0  0  0
  2  1  1  6
  3  4  1  0
  3  2  1  0
  4  8  1  0
  5  4  2  0
  6  7  2  0
  6  2  1  0
  9 10  1  0
 11 10  1  1
 11 13  1  0
 11 12  1  0
 12  6  1  0
 13 14  2  0
 16 15  1  0
 17 16  1  0
 18 17  1  0
 19 18  1  1
 20 13  1  0
 20 19  1  0
 21 22  1  0
 21 19  1  0
 23 21  2  0
M  END
$$$$
