DSM.pdb
     RDKit          3D

 23 22  0  0  1  0  0  0  0  0999 V2000
   11.8948  -16.2487   18.1501 N   0  0  0  0  0  0  0  0  0  0  0  0
   12.1770  -15.7358   19.4539 C   0  0  1  0  0  0  0  0  0  0  0  0
   12.7466  -14.3256   19.3523 C   0  0  0  0  0  0  0  0  0  0  0  0
   14.1811  -14.3880   19.0415 C   0  0  0  0  0  0  0  0  0  0  0  0
   14.7631  -15.5075   19.0260 O   0  0  0  0  0  0  0  0  0  0  0  0
   10.9435  -15.6638   20.3080 C   0  0  0  0  0  0  0  0  0  0  0  0
   10.1092  -14.7411   20.1444 O   0  0  0  0  0  0  0  0  0  0  0  0
   14.9040  -13.2596   18.7676 O   0  0  0  0  0  0  0  0  0  0  0  0
   10.0971  -18.7995   22.9102 O   0  0  0  0  0  0  0  0  0  0  0  0
    9.0363  -18.1648   22.2793 C   0  0  0  0  0  0  0  0  0  0  0  0
    9.3926  -16.7190   22.0216 C   0  0  2  0  0  0  0  0  0  0  0  0
   10.6775  -16.6221   21.3180 N   0  0  0  0  0  0  0  0  0  0  0  0
    9.5394  -16.0324   23.3299 C   0  0  0  0  0  0  0  0  0  0  0  0
   10.6825  -15.9995   23.8932 O   0  0  0  0  0  0  0  0  0  0  0  0
    6.0024  -11.5359   25.5627 C   0  0  0  0  0  0  0  0  0  0  0  0
    6.8448  -11.8466   27.1287 S   0  0  0  0  0  0  0  0  0  0  0  0
    7.5658  -13.5302   27.1461 C   0  0  0  0  0  0  0  0  0  0  0  0
    7.4678  -14.1367   25.7766 C   0  0  0  0  0  0  0  0  0  0  0  0
    8.7059  -14.8780   25.3812 C   0  0  2  0  0  0  0  0  0  0  0  0
    8.4985  -15.3939   24.0256 N   0  0  0  0  0  0  0  0  0  0  0  0
    9.0172  -15.9936   26.3106 C   0  0  0  0  0  0  0  0  0  0  0  0
    9.9049  -15.7818   27.3554 O   0  0  0  0  0  0  0  0  0  0  0  0
    8.5165  -17.1305   26.2028 O   0  0  0  0  0  0  0  0  0  0  0  0
  2  1  1  6
  3  4  1  0
  3  2  1  0
  4  8  1  0
  5  4  2  0
  6  7  2  0
  6  2  1  0
  9 10  1  0
 11 10  1  1
 11 13  1  0
 11 12  1  0
 12  6  1  0
 13 14  2  0
 16 15  1  0
 17 16  1  0
 18 17  1  0
 19 18  1  1
 20 13  1  0
 20 19  1  0
 21 22  1  0
 21 19  1  0
 23 21  2  0
M  END
$$$$
