DSM.pdb
     RDKit          3D

 23 22  0  0  1  0  0  0  0  0999 V2000
    7.7985  -16.5239   17.8782 N   0  0  0  0  0  0  0  0  0  0  0  0
    8.4560  -15.6190   18.7680 C   0  0  1  0  0  0  0  0  0  0  0  0
    7.8410  -14.2290   18.6535 C   0  0  0  0  0  0  0  0  0  0  0  0
    8.1587  -13.6492   17.3417 C   0  0  0  0  0  0  0  0  0  0  0  0
    8.8672  -14.3059   16.5298 O   0  0  0  0  0  0  0  0  0  0  0  0
    8.3312  -16.0511   20.2012 C   0  0  0  0  0  0  0  0  0  0  0  0
    7.3355  -15.7104   20.8841 O   0  0  0  0  0  0  0  0  0  0  0  0
    7.7045  -12.4117   16.9770 O   0  0  0  0  0  0  0  0  0  0  0  0
   11.4087  -18.1481   22.2944 O   0  0  0  0  0  0  0  0  0  0  0  0
   10.1013  -18.6114   22.3401 C   0  0  0  0  0  0  0  0  0  0  0  0
    9.1475  -17.4537   22.1560 C   0  0  2  0  0  0  0  0  0  0  0  0
    9.3199  -16.8494   20.8292 N   0  0  0  0  0  0  0  0  0  0  0  0
    9.4670  -16.4178   23.1708 C   0  0  0  0  0  0  0  0  0  0  0  0
    9.7882  -15.2455   22.7868 O   0  0  0  0  0  0  0  0  0  0  0  0
    6.5303  -10.9719   26.5842 C   0  0  0  0  0  0  0  0  0  0  0  0
    6.6259  -12.4902   25.6127 S   0  0  0  0  0  0  0  0  0  0  0  0
    8.1115  -13.4559   26.0765 C   0  0  0  0  0  0  0  0  0  0  0  0
    8.2421  -14.6480   25.1737 C   0  0  0  0  0  0  0  0  0  0  0  0
    9.4442  -15.4824   25.4858 C   0  0  2  0  0  0  0  0  0  0  0  0
    9.4456  -16.6192   24.5615 N   0  0  0  0  0  0  0  0  0  0  0  0
    9.4472  -15.9653   26.8901 C   0  0  0  0  0  0  0  0  0  0  0  0
    9.8865  -15.1211   27.8996 O   0  0  0  0  0  0  0  0  0  0  0  0
    9.0703  -17.1075   27.2189 O   0  0  0  0  0  0  0  0  0  0  0  0
  2  1  1  6
  3  4  1  0
  3  2  1  0
  4  8  1  0
  5  4  2  0
  6  7  2  0
  6  2  1  0
  9 10  1  0
 11 10  1  6
 11 13  1  0
 11 12  1  0
 12  6  1  0
 13 14  2  0
 16 15  1  0
 17 16  1  0
 18 17  1  0
 19 18  1  1
 20 13  1  0
 20 19  1  0
 21 22  1  0
 21 19  1  0
 23 21  2  0
M  END
$$$$
