DSM.pdb
     RDKit          3D

 23 22  0  0  1  0  0  0  0  0999 V2000
   11.9023  -18.4752   19.4860 N   0  0  0  0  0  0  0  0  0  0  0  0
   12.2289  -18.0061   20.7960 C   0  0  1  0  0  0  0  0  0  0  0  0
   13.2154  -16.8473   20.7087 C   0  0  0  0  0  0  0  0  0  0  0  0
   14.5710  -17.3624   20.4742 C   0  0  0  0  0  0  0  0  0  0  0  0
   14.8582  -18.5367   20.8359 O   0  0  0  0  0  0  0  0  0  0  0  0
   11.0172  -17.5127   21.5338 C   0  0  0  0  0  0  0  0  0  0  0  0
   10.3386  -16.5608   21.0784 O   0  0  0  0  0  0  0  0  0  0  0  0
   15.5327  -16.5989   19.8717 O   0  0  0  0  0  0  0  0  0  0  0  0
    9.7004  -19.5431   24.9430 O   0  0  0  0  0  0  0  0  0  0  0  0
    8.7528  -19.0071   24.0823 C   0  0  0  0  0  0  0  0  0  0  0  0
    9.3201  -17.7808   23.4055 C   0  0  2  0  0  0  0  0  0  0  0  0
   10.5990  -18.0951   22.7566 N   0  0  0  0  0  0  0  0  0  0  0  0
    9.5795  -16.7509   24.4432 C   0  0  0  0  0  0  0  0  0  0  0  0
   10.7448  -16.6556   24.9510 O   0  0  0  0  0  0  0  0  0  0  0  0
    6.0683  -11.4922   25.3196 C   0  0  0  0  0  0  0  0  0  0  0  0
    6.8270  -11.5115   26.9573 S   0  0  0  0  0  0  0  0  0  0  0  0
    8.1564  -12.7691   27.0335 C   0  0  0  0  0  0  0  0  0  0  0  0
    7.8908  -13.8478   26.0241 C   0  0  0  0  0  0  0  0  0  0  0  0
    8.9711  -14.8823   25.9837 C   0  0  2  0  0  0  0  0  0  0  0  0
    8.6256  -15.8415   24.9314 N   0  0  0  0  0  0  0  0  0  0  0  0
    9.1299  -15.5839   27.2829 C   0  0  0  0  0  0  0  0  0  0  0  0
    9.8958  -15.0013   28.2822 O   0  0  0  0  0  0  0  0  0  0  0  0
    8.6041  -16.6871   27.5305 O   0  0  0  0  0  0  0  0  0  0  0  0
  2  1  1  6
  3  4  1  0
  3  2  1  0
  4  8  1  0
  5  4  2  0
  6  7  2  0
  6  2  1  0
  9 10  1  0
 11 10  1  1
 11 13  1  0
 11 12  1  0
 12  6  1  0
 13 14  2  0
 16 15  1  0
 17 16  1  0
 18 17  1  0
 19 18  1  1
 20 13  1  0
 20 19  1  0
 21 22  1  0
 21 19  1  0
 23 21  2  0
M  END
$$$$
