DSM.pdb
     RDKit          3D

 23 22  0  0  1  0  0  0  0  0999 V2000
    9.3882  -20.7701   19.9264 N   0  0  0  0  0  0  0  0  0  0  0  0
    8.9752  -20.2808   21.2042 C   0  0  1  0  0  0  0  0  0  0  0  0
    9.4250  -21.2362   22.3036 C   0  0  0  0  0  0  0  0  0  0  0  0
    8.7378  -22.5262   22.1557 C   0  0  0  0  0  0  0  0  0  0  0  0
    7.4777  -22.5659   22.2080 O   0  0  0  0  0  0  0  0  0  0  0  0
    9.5663  -18.9337   21.5073 C   0  0  0  0  0  0  0  0  0  0  0  0
   10.8011  -18.8070   21.6899 O   0  0  0  0  0  0  0  0  0  0  0  0
    9.4318  -23.6888   21.9621 O   0  0  0  0  0  0  0  0  0  0  0  0
    9.2332  -14.1556   21.2568 O   0  0  0  0  0  0  0  0  0  0  0  0
    8.6474  -15.3915   21.0218 C   0  0  0  0  0  0  0  0  0  0  0  0
    9.3032  -16.4365   21.8946 C   0  0  2  0  0  0  0  0  0  0  0  0
    8.7633  -17.7691   21.5977 N   0  0  0  0  0  0  0  0  0  0  0  0
    8.9899  -16.1261   23.3125 C   0  0  0  0  0  0  0  0  0  0  0  0
    7.9266  -16.5970   23.8346 O   0  0  0  0  0  0  0  0  0  0  0  0
    5.6796  -11.6128   26.4191 C   0  0  0  0  0  0  0  0  0  0  0  0
    7.3833  -12.2058   26.3568 S   0  0  0  0  0  0  0  0  0  0  0  0
    7.6026  -13.3823   24.9702 C   0  0  0  0  0  0  0  0  0  0  0  0
    7.9046  -14.7499   25.5102 C   0  0  0  0  0  0  0  0  0  0  0  0
    9.3697  -15.0526   25.5347 C   0  0  2  0  0  0  0  0  0  0  0  0
    9.7859  -15.3352   24.1586 N   0  0  0  0  0  0  0  0  0  0  0  0
    9.6935  -16.2050   26.4136 C   0  0  0  0  0  0  0  0  0  0  0  0
    9.5317  -16.0814   27.7858 O   0  0  0  0  0  0  0  0  0  0  0  0
   10.1101  -17.2973   25.9796 O   0  0  0  0  0  0  0  0  0  0  0  0
  2  1  1  6
  3  4  1  0
  3  2  1  0
  4  8  1  0
  5  4  2  0
  6  7  2  0
  6  2  1  0
  9 10  1  0
 11 10  1  6
 11 13  1  0
 11 12  1  0
 12  6  1  0
 13 14  2  0
 16 15  1  0
 17 16  1  0
 18 17  1  0
 19 18  1  6
 20 13  1  0
 20 19  1  0
 21 22  1  0
 21 19  1  0
 23 21  2  0
M  END
$$$$
