DSM.pdb
     RDKit          3D

 23 22  0  0  1  0  0  0  0  0999 V2000
    4.9129  -19.6838   23.5248 N   0  0  0  0  0  0  0  0  0  0  0  0
    6.2972  -19.9285   23.7829 C   0  0  1  0  0  0  0  0  0  0  0  0
    6.6496  -21.3708   23.4376 C   0  0  0  0  0  0  0  0  0  0  0  0
    5.7664  -22.2891   24.1690 C   0  0  0  0  0  0  0  0  0  0  0  0
    5.6937  -22.2082   25.4262 O   0  0  0  0  0  0  0  0  0  0  0  0
    7.1870  -19.0381   22.9634 C   0  0  0  0  0  0  0  0  0  0  0  0
    8.4145  -19.2792   22.8677 O   0  0  0  0  0  0  0  0  0  0  0  0
    5.0185  -23.2323   23.5196 O   0  0  0  0  0  0  0  0  0  0  0  0
    6.0292  -17.2400   19.6251 O   0  0  0  0  0  0  0  0  0  0  0  0
    6.6771  -16.3062   20.4216 C   0  0  0  0  0  0  0  0  0  0  0  0
    7.5165  -17.0193   21.4564 C   0  0  2  0  0  0  0  0  0  0  0  0
    6.6815  -17.9062   22.2758 N   0  0  0  0  0  0  0  0  0  0  0  0
    8.1151  -16.0012   22.3563 C   0  0  0  0  0  0  0  0  0  0  0  0
    8.0822  -14.7725   22.0185 O   0  0  0  0  0  0  0  0  0  0  0  0
    6.6486  -11.3834   27.6043 C   0  0  0  0  0  0  0  0  0  0  0  0
    6.4112  -12.7425   26.4404 S   0  0  0  0  0  0  0  0  0  0  0  0
    8.0234  -13.4749   25.9721 C   0  0  0  0  0  0  0  0  0  0  0  0
    7.8194  -14.5008   24.8956 C   0  0  0  0  0  0  0  0  0  0  0  0
    9.0864  -15.1980   24.5119 C   0  0  2  0  0  0  0  0  0  0  0  0
    8.7340  -16.2786   23.5872 N   0  0  0  0  0  0  0  0  0  0  0  0
    9.8074  -15.7468   25.6884 C   0  0  0  0  0  0  0  0  0  0  0  0
   10.5681  -14.8970   26.4781 O   0  0  0  0  0  0  0  0  0  0  0  0
    9.7669  -16.9503   26.0123 O   0  0  0  0  0  0  0  0  0  0  0  0
  2  1  1  6
  3  4  1  0
  3  2  1  0
  4  8  1  0
  5  4  2  0
  6  7  2  0
  6  2  1  0
  9 10  1  0
 11 10  1  6
 11 13  1  0
 11 12  1  0
 12  6  1  0
 13 14  2  0
 16 15  1  0
 17 16  1  0
 18 17  1  0
 19 18  1  1
 20 13  1  0
 20 19  1  0
 21 22  1  0
 21 19  1  0
 23 21  2  0
M  END
$$$$
