DSM.pdb
     RDKit          3D

 23 22  0  0  1  0  0  0  0  0999 V2000
    9.6533  -18.8698   19.8959 N   0  0  0  0  0  0  0  0  0  0  0  0
   10.6181  -17.8156   19.8700 C   0  0  1  0  0  0  0  0  0  0  0  0
   11.0572  -17.5398   18.4366 C   0  0  0  0  0  0  0  0  0  0  0  0
   11.3268  -18.8073   17.7447 C   0  0  0  0  0  0  0  0  0  0  0  0
   11.1684  -19.8960   18.3628 O   0  0  0  0  0  0  0  0  0  0  0  0
   10.0652  -16.5348   20.4269 C   0  0  0  0  0  0  0  0  0  0  0  0
   10.8104  -15.5395   20.5942 O   0  0  0  0  0  0  0  0  0  0  0  0
   11.7464  -18.8373   16.4432 O   0  0  0  0  0  0  0  0  0  0  0  0
    5.9900  -16.1432   20.9507 O   0  0  0  0  0  0  0  0  0  0  0  0
    6.7125  -14.9701   20.7838 C   0  0  0  0  0  0  0  0  0  0  0  0
    8.1170  -15.1620   21.3074 C   0  0  2  0  0  0  0  0  0  0  0  0
    8.6989  -16.4026   20.7804 N   0  0  0  0  0  0  0  0  0  0  0  0
    8.0532  -15.2836   22.7859 C   0  0  0  0  0  0  0  0  0  0  0  0
    6.9252  -15.4728   23.3487 O   0  0  0  0  0  0  0  0  0  0  0  0
    6.6161  -10.5950   26.7948 C   0  0  0  0  0  0  0  0  0  0  0  0
    6.0804  -12.2932   26.4992 S   0  0  0  0  0  0  0  0  0  0  0  0
    7.5159  -13.4307   26.5163 C   0  0  0  0  0  0  0  0  0  0  0  0
    7.7939  -13.9154   25.1232 C   0  0  0  0  0  0  0  0  0  0  0  0
    8.9960  -14.8030   25.0475 C   0  0  2  0  0  0  0  0  0  0  0  0
    9.1598  -15.2073   23.6488 N   0  0  0  0  0  0  0  0  0  0  0  0
    8.8683  -16.0018   25.9146 C   0  0  0  0  0  0  0  0  0  0  0  0
    9.2364  -15.9189   27.2495 O   0  0  0  0  0  0  0  0  0  0  0  0
    8.4410  -17.0984   25.5028 O   0  0  0  0  0  0  0  0  0  0  0  0
  2  1  1  6
  3  4  1  0
  3  2  1  0
  4  8  1  0
  5  4  2  0
  6  7  2  0
  6  2  1  0
  9 10  1  0
 11 10  1  6
 11 13  1  0
 11 12  1  0
 12  6  1  0
 13 14  2  0
 16 15  1  0
 17 16  1  0
 18 17  1  0
 19 18  1  6
 20 13  1  0
 20 19  1  0
 21 22  1  0
 21 19  1  0
 23 21  2  0
M  END
$$$$
