DSM.pdb
     RDKit          3D

 23 22  0  0  1  0  0  0  0  0999 V2000
    8.4177  -19.7792   18.6943 N   0  0  0  0  0  0  0  0  0  0  0  0
    9.1505  -18.8868   19.5366 C   0  0  1  0  0  0  0  0  0  0  0  0
    9.6092  -17.6703   18.7409 C   0  0  0  0  0  0  0  0  0  0  0  0
   10.5458  -18.0866   17.6884 C   0  0  0  0  0  0  0  0  0  0  0  0
   11.6075  -18.6894   18.0074 O   0  0  0  0  0  0  0  0  0  0  0  0
    8.3193  -18.3883   20.6841 C   0  0  0  0  0  0  0  0  0  0  0  0
    7.5845  -17.3806   20.5470 O   0  0  0  0  0  0  0  0  0  0  0  0
   10.2952  -17.8364   16.3672 O   0  0  0  0  0  0  0  0  0  0  0  0
    8.4204  -20.2300   24.5230 O   0  0  0  0  0  0  0  0  0  0  0  0
    7.2078  -19.8572   23.9602 C   0  0  0  0  0  0  0  0  0  0  0  0
    7.4181  -18.6754   23.0422 C   0  0  2  0  0  0  0  0  0  0  0  0
    8.3325  -19.0279   21.9490 N   0  0  0  0  0  0  0  0  0  0  0  0
    8.0472  -17.5810   23.8241 C   0  0  0  0  0  0  0  0  0  0  0  0
    9.2998  -17.3731   23.7112 O   0  0  0  0  0  0  0  0  0  0  0  0
    7.0956  -10.7126   27.5789 C   0  0  0  0  0  0  0  0  0  0  0  0
    6.3812  -12.1457   26.7457 S   0  0  0  0  0  0  0  0  0  0  0  0
    7.6519  -13.4404   26.4935 C   0  0  0  0  0  0  0  0  0  0  0  0
    7.0735  -14.5665   25.6870 C   0  0  0  0  0  0  0  0  0  0  0  0
    8.0689  -15.6471   25.4034 C   0  0  2  0  0  0  0  0  0  0  0  0
    7.3642  -16.7254   24.7053 N   0  0  0  0  0  0  0  0  0  0  0  0
    8.7041  -16.1684   26.6403 C   0  0  0  0  0  0  0  0  0  0  0  0
    8.3970  -17.4494   27.0756 O   0  0  0  0  0  0  0  0  0  0  0  0
    9.5125  -15.5077   27.3220 O   0  0  0  0  0  0  0  0  0  0  0  0
  2  1  1  6
  3  4  1  0
  3  2  1  0
  4  8  1  0
  5  4  2  0
  6  7  2  0
  6  2  1  0
  9 10  1  0
 11 10  1  1
 11 13  1  0
 11 12  1  0
 12  6  1  0
 13 14  2  0
 16 15  1  0
 17 16  1  0
 18 17  1  0
 19 18  1  1
 20 13  1  0
 20 19  1  0
 21 22  1  0
 21 19  1  0
 23 21  2  0
M  END
$$$$
