DSM.pdb
     RDKit          3D

 23 22  0  0  1  0  0  0  0  0999 V2000
    8.2129  -19.5500   19.9680 N   0  0  0  0  0  0  0  0  0  0  0  0
    7.7574  -18.7048   21.0267 C   0  0  1  0  0  0  0  0  0  0  0  0
    7.9598  -19.3919   22.3722 C   0  0  0  0  0  0  0  0  0  0  0  0
    7.0893  -20.5716   22.4662 C   0  0  0  0  0  0  0  0  0  0  0  0
    7.3015  -21.4273   23.3689 O   0  0  0  0  0  0  0  0  0  0  0  0
    8.5060  -17.4032   21.0675 C   0  0  0  0  0  0  0  0  0  0  0  0
    9.7543  -17.3908   21.1922 O   0  0  0  0  0  0  0  0  0  0  0  0
    6.0513  -20.7662   21.5970 O   0  0  0  0  0  0  0  0  0  0  0  0
    7.2837  -14.3752   18.9859 O   0  0  0  0  0  0  0  0  0  0  0  0
    7.7240  -13.8373   20.1871 C   0  0  0  0  0  0  0  0  0  0  0  0
    8.5420  -14.8664   20.9326 C   0  0  2  0  0  0  0  0  0  0  0  0
    7.8406  -16.1556   20.9681 N   0  0  0  0  0  0  0  0  0  0  0  0
    8.7120  -14.4042   22.3335 C   0  0  0  0  0  0  0  0  0  0  0  0
    8.6375  -13.1585   22.5934 O   0  0  0  0  0  0  0  0  0  0  0  0
    6.3136  -11.0045   27.2683 C   0  0  0  0  0  0  0  0  0  0  0  0
    6.0429  -12.7246   26.7928 S   0  0  0  0  0  0  0  0  0  0  0  0
    7.6426  -13.5755   26.5253 C   0  0  0  0  0  0  0  0  0  0  0  0
    7.7372  -14.0388   25.1007 C   0  0  0  0  0  0  0  0  0  0  0  0
    9.0449  -14.6965   24.7908 C   0  0  2  0  0  0  0  0  0  0  0  0
    8.9545  -15.2433   23.4345 N   0  0  0  0  0  0  0  0  0  0  0  0
    9.3770  -15.7753   25.7558 C   0  0  0  0  0  0  0  0  0  0  0  0
    9.4793  -17.0836   25.3058 O   0  0  0  0  0  0  0  0  0  0  0  0
    9.5727  -15.5676   26.9696 O   0  0  0  0  0  0  0  0  0  0  0  0
  2  1  1  6
  3  4  1  0
  3  2  1  0
  4  8  1  0
  5  4  2  0
  6  7  2  0
  6  2  1  0
  9 10  1  0
 11 10  1  6
 11 13  1  0
 11 12  1  0
 12  6  1  0
 13 14  2  0
 16 15  1  0
 17 16  1  0
 18 17  1  0
 19 18  1  1
 20 13  1  0
 20 19  1  0
 21 22  1  0
 21 19  1  0
 23 21  2  0
M  END
$$$$
