DSM.pdb
     RDKit          3D

 23 22  0  0  1  0  0  0  0  0999 V2000
   13.0851  -19.5890   19.5464 N   0  0  0  0  0  0  0  0  0  0  0  0
   13.3698  -18.2154   19.8202 C   0  0  1  0  0  0  0  0  0  0  0  0
   13.4650  -17.4285   18.5181 C   0  0  0  0  0  0  0  0  0  0  0  0
   14.8387  -17.4847   18.0004 C   0  0  0  0  0  0  0  0  0  0  0  0
   15.4917  -18.5605   18.0929 O   0  0  0  0  0  0  0  0  0  0  0  0
   12.2985  -17.5760   20.6565 C   0  0  0  0  0  0  0  0  0  0  0  0
   12.3020  -16.3375   20.8572 O   0  0  0  0  0  0  0  0  0  0  0  0
   15.4296  -16.3968   17.4189 O   0  0  0  0  0  0  0  0  0  0  0  0
    9.5591  -19.9053   22.7716 O   0  0  0  0  0  0  0  0  0  0  0  0
    9.0444  -18.7436   22.2133 C   0  0  0  0  0  0  0  0  0  0  0  0
   10.1577  -17.7412   22.0148 C   0  0  2  0  0  0  0  0  0  0  0  0
   11.2561  -18.3363   21.2437 N   0  0  0  0  0  0  0  0  0  0  0  0
   10.6920  -17.3646   23.3481 C   0  0  0  0  0  0  0  0  0  0  0  0
   11.8391  -17.7914   23.7045 O   0  0  0  0  0  0  0  0  0  0  0  0
    9.9005  -12.9258   29.8794 C   0  0  0  0  0  0  0  0  0  0  0  0
    9.2454  -13.4896   28.2947 S   0  0  0  0  0  0  0  0  0  0  0  0
   10.3257  -14.7833   27.5777 C   0  0  0  0  0  0  0  0  0  0  0  0
    9.8300  -15.1558   26.2108 C   0  0  0  0  0  0  0  0  0  0  0  0
   10.6307  -16.2529   25.5831 C   0  0  2  0  0  0  0  0  0  0  0  0
   10.0262  -16.5531   24.2826 N   0  0  0  0  0  0  0  0  0  0  0  0
   10.6684  -17.4764   26.4239 C   0  0  0  0  0  0  0  0  0  0  0  0
   11.6773  -17.6256   27.3643 O   0  0  0  0  0  0  0  0  0  0  0  0
    9.8290  -18.3938   26.3305 O   0  0  0  0  0  0  0  0  0  0  0  0
  2  1  1  6
  3  4  1  0
  3  2  1  0
  4  8  1  0
  5  4  2  0
  6  7  2  0
  6  2  1  0
  9 10  1  0
 11 10  1  1
 11 13  1  0
 11 12  1  0
 12  6  1  0
 13 14  2  0
 16 15  1  0
 17 16  1  0
 18 17  1  0
 19 18  1  1
 20 13  1  0
 20 19  1  0
 21 22  1  0
 21 19  1  0
 23 21  2  0
M  END
$$$$
