PTN.pdb
     RDKit          3D

 23 23  0  0  1  0  0  0  0  0999 V2000
   19.0049  -10.1606  -16.2829 N   0  0  0  0  0  0  0  0  0  0  0  0
   18.6217  -11.5068  -16.6162 C   0  0  0  0  0  0  0  0  0  0  0  0
   19.9187  -12.2518  -16.6079 C   0  0  0  0  0  0  0  0  0  0  0  0
   20.7045  -11.6063  -15.4953 C   0  0  0  0  0  0  0  0  0  0  0  0
   19.9238  -10.3475  -15.1816 C   0  0  1  0  0  0  0  0  0  0  0  0
   20.7872   -9.1660  -15.0649 C   0  0  0  0  0  0  0  0  0  0  0  0
   21.5992   -9.0825  -14.1108 O   0  0  0  0  0  0  0  0  0  0  0  0
   23.4706   -7.9948  -16.9921 C   0  0  0  0  0  0  0  0  0  0  0  0
   22.5379   -6.8054  -17.0270 C   0  0  1  0  0  0  0  0  0  0  0  0
   21.7988   -6.7840  -18.2068 O   0  0  0  0  0  0  0  0  0  0  0  0
   21.6076   -6.9062  -15.8131 C   0  0  2  0  0  0  0  0  0  0  0  0
   20.7705   -8.0766  -15.9804 N   0  0  0  0  0  0  0  0  0  0  0  0
   20.7912   -5.6683  -15.6979 C   0  0  0  0  0  0  0  0  0  0  0  0
   19.5607   -5.7319  -15.9474 O   0  0  0  0  0  0  0  0  0  0  0  0
   18.9525   -0.9979  -14.7807 N   0  0  0  0  0  0  0  0  0  0  0  0
   18.6233   -2.2291  -14.1594 C   0  0  0  0  0  0  0  0  0  0  0  0
   17.6151   -2.2923  -13.4162 O   0  0  0  0  0  0  0  0  0  0  0  0
   19.4420   -3.4180  -14.3749 C   0  0  0  0  0  0  0  0  0  0  0  0
   20.6510   -3.1979  -15.2597 C   0  0  2  0  0  0  0  0  0  0  0  0
   21.3721   -4.4319  -15.3158 N   0  0  0  0  0  0  0  0  0  0  0  0
   21.5140   -2.0959  -14.8275 C   0  0  0  0  0  0  0  0  0  0  0  0
   21.4890   -0.8255  -15.3819 O   0  0  0  0  0  0  0  0  0  0  0  0
   22.3347   -2.2971  -13.8966 O   0  0  0  0  0  0  0  0  0  0  0  0
  1  5  1  0
  1  2  1  0
  2  3  1  0
  4  3  1  0
  5  4  1  0
  6 12  1  0
  5  6  1  6
  7  6  2  0
  9  8  1  6
  9 11  1  0
 10  9  1  0
 11 12  1  6
 11 13  1  0
 13 20  1  0
 14 13  2  0
 16 15  1  0
 16 17  2  0
 18 16  1  0
 19 18  1  1
 20 19  1  0
 21 19  1  0
 21 22  1  0
 23 21  2  0
M  END
$$$$
