PTN.pdb
     RDKit          3D

 23 23  0  0  1  0  0  0  0  0999 V2000
   24.3521  -13.4763  -15.4048 N   0  0  0  0  0  0  0  0  0  0  0  0
   24.9272  -14.7950  -15.4314 C   0  0  0  0  0  0  0  0  0  0  0  0
   24.5173  -15.3283  -16.7674 C   0  0  0  0  0  0  0  0  0  0  0  0
   24.5599  -14.1231  -17.6715 C   0  0  0  0  0  0  0  0  0  0  0  0
   24.6742  -12.9549  -16.7150 C   0  0  1  0  0  0  0  0  0  0  0  0
   23.7462  -11.8663  -17.0451 C   0  0  0  0  0  0  0  0  0  0  0  0
   23.9110  -11.2096  -18.1025 O   0  0  0  0  0  0  0  0  0  0  0  0
   20.2348  -11.7440  -17.9254 C   0  0  0  0  0  0  0  0  0  0  0  0
   20.3346  -10.9191  -16.6623 C   0  0  1  0  0  0  0  0  0  0  0  0
   20.0233  -11.6827  -15.5404 O   0  0  0  0  0  0  0  0  0  0  0  0
   21.7678  -10.3844  -16.5662 C   0  0  2  0  0  0  0  0  0  0  0  0
   22.6418  -11.4899  -16.2304 N   0  0  0  0  0  0  0  0  0  0  0  0
   21.8380   -9.3080  -15.5422 C   0  0  0  0  0  0  0  0  0  0  0  0
   22.1805   -9.6110  -14.3712 O   0  0  0  0  0  0  0  0  0  0  0  0
   22.5151   -3.3728  -14.8915 N   0  0  0  0  0  0  0  0  0  0  0  0
   22.4669   -4.6943  -14.3802 C   0  0  0  0  0  0  0  0  0  0  0  0
   22.4559   -4.8732  -13.1389 O   0  0  0  0  0  0  0  0  0  0  0  0
   22.4302   -5.8432  -15.2796 C   0  0  0  0  0  0  0  0  0  0  0  0
   21.4331   -6.9148  -14.8915 C   0  0  2  0  0  0  0  0  0  0  0  0
   21.5283   -7.9612  -15.8620 N   0  0  0  0  0  0  0  0  0  0  0  0
   20.0564   -6.4306  -14.7637 C   0  0  0  0  0  0  0  0  0  0  0  0
   19.4774   -6.0417  -13.5656 O   0  0  0  0  0  0  0  0  0  0  0  0
   19.3410   -6.3568  -15.7948 O   0  0  0  0  0  0  0  0  0  0  0  0
  1  5  1  0
  1  2  1  0
  2  3  1  0
  4  3  1  0
  5  4  1  0
  6 12  1  0
  5  6  1  6
  7  6  2  0
  9  8  1  6
  9 11  1  0
 10  9  1  0
 11 12  1  1
 11 13  1  0
 13 20  1  0
 14 13  2  0
 16 15  1  0
 16 17  2  0
 18 16  1  0
 19 18  1  6
 20 19  1  0
 21 19  1  0
 21 22  1  0
 23 21  2  0
M  END
$$$$
