PTN.pdb
     RDKit          3D

 23 23  0  0  1  0  0  0  0  0999 V2000
   24.5255  -12.7104  -15.7609 N   0  0  0  0  0  0  0  0  0  0  0  0
   25.0758  -14.0384  -15.6966 C   0  0  0  0  0  0  0  0  0  0  0  0
   23.9464  -14.9072  -16.1517 C   0  0  0  0  0  0  0  0  0  0  0  0
   23.2546  -14.0846  -17.2085 C   0  0  0  0  0  0  0  0  0  0  0  0
   23.8466  -12.7015  -17.0380 C   0  0  1  0  0  0  0  0  0  0  0  0
   22.8229  -11.6493  -17.0355 C   0  0  0  0  0  0  0  0  0  0  0  0
   22.2280  -11.3595  -18.1026 O   0  0  0  0  0  0  0  0  0  0  0  0
   19.5856  -11.5174  -15.6352 C   0  0  0  0  0  0  0  0  0  0  0  0
   20.2757  -10.3419  -14.9811 C   0  0  1  0  0  0  0  0  0  0  0  0
   20.7741  -10.6885  -13.7281 O   0  0  0  0  0  0  0  0  0  0  0  0
   21.4134   -9.8951  -15.9059 C   0  0  2  0  0  0  0  0  0  0  0  0
   22.4448  -10.9120  -15.8784 N   0  0  0  0  0  0  0  0  0  0  0  0
   21.9397   -8.5776  -15.4595 C   0  0  0  0  0  0  0  0  0  0  0  0
   23.0945   -8.5254  -14.9656 O   0  0  0  0  0  0  0  0  0  0  0  0
   22.1468   -3.3710  -14.6869 N   0  0  0  0  0  0  0  0  0  0  0  0
   21.0094   -3.6902  -15.4709 C   0  0  0  0  0  0  0  0  0  0  0  0
   20.2857   -2.7647  -15.9095 O   0  0  0  0  0  0  0  0  0  0  0  0
   20.6739   -5.0786  -15.7712 C   0  0  0  0  0  0  0  0  0  0  0  0
   21.6350   -6.0973  -15.1953 C   0  0  2  0  0  0  0  0  0  0  0  0
   21.1684   -7.3932  -15.5807 N   0  0  0  0  0  0  0  0  0  0  0  0
   21.8054   -6.0026  -13.7434 C   0  0  0  0  0  0  0  0  0  0  0  0
   22.7776   -5.2329  -13.1234 O   0  0  0  0  0  0  0  0  0  0  0  0
   21.0303   -6.6535  -12.9978 O   0  0  0  0  0  0  0  0  0  0  0  0
  1  5  1  0
  1  2  1  0
  2  3  1  0
  4  3  1  0
  5  4  1  0
  6 12  1  0
  5  6  1  1
  7  6  2  0
  9  8  1  6
  9 11  1  0
 10  9  1  0
 11 12  1  1
 11 13  1  0
 13 20  1  0
 14 13  2  0
 16 15  1  0
 16 17  2  0
 18 16  1  0
 19 18  1  1
 20 19  1  0
 21 19  1  0
 21 22  1  0
 23 21  2  0
M  END
$$$$
