PTN.pdb
     RDKit          3D

 23 23  0  0  1  0  0  0  0  0999 V2000
   29.4577  -22.0811  -12.1681 N   0  0  0  0  0  0  0  0  0  0  0  0
   30.7691  -22.2694  -11.6068 C   0  0  0  0  0  0  0  0  0  0  0  0
   31.2397  -20.8744  -11.3421 C   0  0  0  0  0  0  0  0  0  0  0  0
   29.9914  -20.1400  -10.9246 C   0  0  0  0  0  0  0  0  0  0  0  0
   28.8706  -21.0878  -11.2961 C   0  0  1  0  0  0  0  0  0  0  0  0
   27.7742  -20.4117  -12.0005 C   0  0  0  0  0  0  0  0  0  0  0  0
   27.2061  -19.4279  -11.4656 O   0  0  0  0  0  0  0  0  0  0  0  0
   25.5889  -19.1076  -16.1338 C   0  0  0  0  0  0  0  0  0  0  0  0
   26.6580  -19.9209  -15.4399 C   0  0  1  0  0  0  0  0  0  0  0  0
   27.8992  -19.2967  -15.5311 O   0  0  0  0  0  0  0  0  0  0  0  0
   26.2444  -20.0801  -13.9726 C   0  0  2  0  0  0  0  0  0  0  0  0
   27.2940  -20.8014  -13.2822 N   0  0  0  0  0  0  0  0  0  0  0  0
   24.9463  -20.8012  -13.8889 C   0  0  0  0  0  0  0  0  0  0  0  0
   24.9423  -22.0523  -14.0114 O   0  0  0  0  0  0  0  0  0  0  0  0
   19.9043  -21.7329  -12.8472 N   0  0  0  0  0  0  0  0  0  0  0  0
   20.4927  -20.7704  -11.9883 C   0  0  0  0  0  0  0  0  0  0  0  0
   19.8826  -20.4177  -10.9509 O   0  0  0  0  0  0  0  0  0  0  0  0
   21.7950  -20.1886  -12.2978 C   0  0  0  0  0  0  0  0  0  0  0  0
   22.4587  -20.7538  -13.5360 C   0  0  2  0  0  0  0  0  0  0  0  0
   23.7272  -20.1079  -13.6756 N   0  0  0  0  0  0  0  0  0  0  0  0
   21.6572  -20.6227  -14.7552 C   0  0  0  0  0  0  0  0  0  0  0  0
   21.8636  -19.6490  -15.7202 O   0  0  0  0  0  0  0  0  0  0  0  0
   20.7191  -21.4354  -14.9550 O   0  0  0  0  0  0  0  0  0  0  0  0
  1  5  1  0
  1  2  1  0
  2  3  1  0
  4  3  1  0
  5  4  1  0
  6 12  1  0
  5  6  1  6
  7  6  2  0
  9  8  1  6
  9 11  1  0
 10  9  1  0
 11 12  1  1
 11 13  1  0
 13 20  1  0
 14 13  2  0
 16 15  1  0
 16 17  2  0
 18 16  1  0
 19 18  1  1
 20 19  1  0
 21 19  1  0
 21 22  1  0
 23 21  2  0
M  END
$$$$
