PTN.pdb
     RDKit          3D

 23 23  0  0  1  0  0  0  0  0999 V2000
   24.0251  -12.7836  -15.4127 N   0  0  0  0  0  0  0  0  0  0  0  0
   24.5693  -14.1156  -15.4074 C   0  0  0  0  0  0  0  0  0  0  0  0
   23.9421  -14.7543  -16.6058 C   0  0  0  0  0  0  0  0  0  0  0  0
   23.8561  -13.6365  -17.6134 C   0  0  0  0  0  0  0  0  0  0  0  0
   24.1398  -12.3913  -16.8001 C   0  0  1  0  0  0  0  0  0  0  0  0
   23.1866  -11.3100  -17.0785 C   0  0  0  0  0  0  0  0  0  0  0  0
   23.2707  -10.6706  -18.1558 O   0  0  0  0  0  0  0  0  0  0  0  0
   19.7131  -11.4356  -17.6814 C   0  0  0  0  0  0  0  0  0  0  0  0
   19.7935  -10.4731  -16.5182 C   0  0  1  0  0  0  0  0  0  0  0  0
   19.5338  -11.1215  -15.3137 O   0  0  0  0  0  0  0  0  0  0  0  0
   21.2020   -9.8688  -16.5091 C   0  0  2  0  0  0  0  0  0  0  0  0
   22.1443  -10.9220  -16.1905 N   0  0  0  0  0  0  0  0  0  0  0  0
   21.2708   -8.7623  -15.5176 C   0  0  0  0  0  0  0  0  0  0  0  0
   22.0795   -8.8599  -14.5601 O   0  0  0  0  0  0  0  0  0  0  0  0
   21.2870   -4.0692  -13.4733 N   0  0  0  0  0  0  0  0  0  0  0  0
   22.2766   -4.6864  -14.2794 C   0  0  0  0  0  0  0  0  0  0  0  0
   23.4050   -4.1496  -14.3864 O   0  0  0  0  0  0  0  0  0  0  0  0
   21.9968   -5.9343  -14.9828 C   0  0  0  0  0  0  0  0  0  0  0  0
   20.5838   -6.4509  -14.8104 C   0  0  2  0  0  0  0  0  0  0  0  0
   20.4482   -7.6125  -15.6339 N   0  0  0  0  0  0  0  0  0  0  0  0
   19.5460   -5.4614  -15.1102 C   0  0  0  0  0  0  0  0  0  0  0  0
   19.3950   -4.8421  -16.3413 O   0  0  0  0  0  0  0  0  0  0  0  0
   18.7330   -5.1419  -14.2061 O   0  0  0  0  0  0  0  0  0  0  0  0
  1  5  1  0
  1  2  1  0
  2  3  1  0
  4  3  1  0
  5  4  1  0
  6 12  1  0
  5  6  1  6
  7  6  2  0
  9  8  1  6
  9 11  1  0
 10  9  1  0
 11 12  1  1
 11 13  1  0
 13 20  1  0
 14 13  2  0
 16 15  1  0
 16 17  2  0
 18 16  1  0
 19 18  1  6
 20 19  1  0
 21 19  1  0
 21 22  1  0
 23 21  2  0
M  END
$$$$
