PTN.pdb
     RDKit          3D

 23 23  0  0  1  0  0  0  0  0999 V2000
   19.2482  -11.7070  -17.4666 N   0  0  0  0  0  0  0  0  0  0  0  0
   18.6788  -12.9522  -17.9089 C   0  0  0  0  0  0  0  0  0  0  0  0
   18.8205  -13.8444  -16.7168 C   0  0  0  0  0  0  0  0  0  0  0  0
   18.6027  -12.9243  -15.5429 C   0  0  0  0  0  0  0  0  0  0  0  0
   18.6770  -11.5386  -16.1485 C   0  0  1  0  0  0  0  0  0  0  0  0
   19.5231  -10.6289  -15.3663 C   0  0  0  0  0  0  0  0  0  0  0  0
   19.2522  -10.4133  -14.1593 O   0  0  0  0  0  0  0  0  0  0  0  0
   23.2319  -10.6827  -14.7710 C   0  0  0  0  0  0  0  0  0  0  0  0
   22.9294   -9.3213  -15.3549 C   0  0  1  0  0  0  0  0  0  0  0  0
   23.2093   -9.2886  -16.7185 O   0  0  0  0  0  0  0  0  0  0  0  0
   21.4465   -9.0252  -15.1047 C   0  0  2  0  0  0  0  0  0  0  0  0
   20.6605   -9.9538  -15.8913 N   0  0  0  0  0  0  0  0  0  0  0  0
   21.1441   -7.6154  -15.4692 C   0  0  0  0  0  0  0  0  0  0  0  0
   20.8226   -7.3550  -16.6563 O   0  0  0  0  0  0  0  0  0  0  0  0
   18.3569   -2.8853  -15.0713 N   0  0  0  0  0  0  0  0  0  0  0  0
   19.4224   -3.3373  -14.2525 C   0  0  0  0  0  0  0  0  0  0  0  0
   20.1118   -2.4999  -13.6230 O   0  0  0  0  0  0  0  0  0  0  0  0
   19.7236   -4.7606  -14.1352 C   0  0  0  0  0  0  0  0  0  0  0  0
   21.0033   -5.1918  -14.8204 C   0  0  2  0  0  0  0  0  0  0  0  0
   21.2120   -6.5723  -14.5102 N   0  0  0  0  0  0  0  0  0  0  0  0
   22.1721   -4.3834  -14.4647 C   0  0  0  0  0  0  0  0  0  0  0  0
   22.5860   -3.2633  -15.1690 O   0  0  0  0  0  0  0  0  0  0  0  0
   22.8541   -4.7115  -13.4609 O   0  0  0  0  0  0  0  0  0  0  0  0
  1  5  1  0
  1  2  1  0
  2  3  1  0
  4  3  1  0
  5  4  1  0
  6 12  1  0
  5  6  1  1
  7  6  2  0
  9  8  1  6
  9 11  1  0
 10  9  1  0
 11 12  1  6
 11 13  1  0
 13 20  1  0
 14 13  2  0
 16 15  1  0
 16 17  2  0
 18 16  1  0
 19 18  1  1
 20 19  1  0
 21 19  1  0
 21 22  1  0
 23 21  2  0
M  END
$$$$
