PTN.pdb
     RDKit          3D

 23 23  0  0  1  0  0  0  0  0999 V2000
   23.5324  -20.9779   -9.3321 N   0  0  0  0  0  0  0  0  0  0  0  0
   23.6282  -21.2240   -7.9177 C   0  0  0  0  0  0  0  0  0  0  0  0
   25.0550  -20.9037   -7.6030 C   0  0  0  0  0  0  0  0  0  0  0  0
   25.3799  -19.7470   -8.5132 C   0  0  0  0  0  0  0  0  0  0  0  0
   24.2236  -19.7172   -9.4902 C   0  0  1  0  0  0  0  0  0  0  0  0
   24.6685  -19.5795  -10.8824 C   0  0  0  0  0  0  0  0  0  0  0  0
   25.3640  -18.5890  -11.2166 O   0  0  0  0  0  0  0  0  0  0  0  0
   26.9047  -21.2144  -12.9889 C   0  0  0  0  0  0  0  0  0  0  0  0
   25.6291  -21.3471  -13.7895 C   0  0  1  0  0  0  0  0  0  0  0  0
   25.0666  -22.6106  -13.6282 O   0  0  0  0  0  0  0  0  0  0  0  0
   24.6597  -20.2629  -13.3058 C   0  0  2  0  0  0  0  0  0  0  0  0
   24.3598  -20.5136  -11.9108 N   0  0  0  0  0  0  0  0  0  0  0  0
   23.4262  -20.2807  -14.1366 C   0  0  0  0  0  0  0  0  0  0  0  0
   22.3477  -20.6511  -13.6073 O   0  0  0  0  0  0  0  0  0  0  0  0
   19.8467  -18.8070  -17.4545 N   0  0  0  0  0  0  0  0  0  0  0  0
   20.1979  -18.2480  -16.1998 C   0  0  0  0  0  0  0  0  0  0  0  0
   19.4044  -17.4579  -15.6351 O   0  0  0  0  0  0  0  0  0  0  0  0
   21.4676  -18.5812  -15.5618 C   0  0  0  0  0  0  0  0  0  0  0  0
   22.2704  -19.6479  -16.2763 C   0  0  2  0  0  0  0  0  0  0  0  0
   23.4471  -19.8912  -15.5004 N   0  0  0  0  0  0  0  0  0  0  0  0
   22.6062  -19.3136  -17.6625 C   0  0  0  0  0  0  0  0  0  0  0  0
   21.9809  -19.8675  -18.7690 O   0  0  0  0  0  0  0  0  0  0  0  0
   23.5158  -18.4738  -17.8809 O   0  0  0  0  0  0  0  0  0  0  0  0
  1  5  1  0
  1  2  1  0
  2  3  1  0
  4  3  1  0
  5  4  1  0
  6 12  1  0
  5  6  1  6
  7  6  2  0
  9  8  1  1
  9 11  1  0
 10  9  1  0
 11 12  1  1
 11 13  1  0
 13 20  1  0
 14 13  2  0
 16 15  1  0
 16 17  2  0
 18 16  1  0
 19 18  1  1
 20 19  1  0
 21 19  1  0
 21 22  1  0
 23 21  2  0
M  END
$$$$
