PTN.pdb
     RDKit          3D

 23 23  0  0  1  0  0  0  0  0999 V2000
   24.1809  -12.2145  -19.6581 N   0  0  0  0  0  0  0  0  0  0  0  0
   24.2768  -13.3949  -20.4753 C   0  0  0  0  0  0  0  0  0  0  0  0
   24.3007  -14.5095  -19.4781 C   0  0  0  0  0  0  0  0  0  0  0  0
   23.3811  -14.0386  -18.3805 C   0  0  0  0  0  0  0  0  0  0  0  0
   23.1683  -12.5715  -18.6890 C   0  0  1  0  0  0  0  0  0  0  0  0
   23.3132  -11.7215  -17.5009 C   0  0  0  0  0  0  0  0  0  0  0  0
   22.5517  -11.8941  -16.5176 O   0  0  0  0  0  0  0  0  0  0  0  0
   26.2766  -11.2494  -15.4458 C   0  0  0  0  0  0  0  0  0  0  0  0
   25.8630   -9.8307  -15.7654 C   0  0  1  0  0  0  0  0  0  0  0  0
   26.6553   -9.2948  -16.7773 O   0  0  0  0  0  0  0  0  0  0  0  0
   24.3919   -9.8588  -16.1944 C   0  0  2  0  0  0  0  0  0  0  0  0
   24.2815  -10.6858  -17.3788 N   0  0  0  0  0  0  0  0  0  0  0  0
   23.9146   -8.4744  -16.4541 C   0  0  0  0  0  0  0  0  0  0  0  0
   23.9201   -8.0461  -17.6360 O   0  0  0  0  0  0  0  0  0  0  0  0
   21.3538   -4.0375  -16.1130 N   0  0  0  0  0  0  0  0  0  0  0  0
   20.9405   -5.2552  -16.7099 C   0  0  0  0  0  0  0  0  0  0  0  0
   19.9161   -5.2686  -17.4334 O   0  0  0  0  0  0  0  0  0  0  0  0
   21.6914   -6.4877  -16.4920 C   0  0  0  0  0  0  0  0  0  0  0  0
   22.9079   -6.3348  -15.6033 C   0  0  2  0  0  0  0  0  0  0  0  0
   23.4587   -7.6394  -15.4018 N   0  0  0  0  0  0  0  0  0  0  0  0
   22.6348   -5.6691  -14.3272 C   0  0  0  0  0  0  0  0  0  0  0  0
   22.7075   -4.2982  -14.1345 O   0  0  0  0  0  0  0  0  0  0  0  0
   22.3129   -6.3696  -13.3342 O   0  0  0  0  0  0  0  0  0  0  0  0
  1  5  1  0
  1  2  1  0
  2  3  1  0
  4  3  1  0
  5  4  1  0
  6 12  1  0
  5  6  1  1
  7  6  2  0
  9  8  1  6
  9 11  1  0
 10  9  1  0
 11 12  1  6
 11 13  1  0
 13 20  1  0
 14 13  2  0
 16 15  1  0
 16 17  2  0
 18 16  1  0
 19 18  1  1
 20 19  1  0
 21 19  1  0
 21 22  1  0
 23 21  2  0
M  END
$$$$
