PTN.pdb
     RDKit          3D

 23 23  0  0  1  0  0  0  0  0999 V2000
   21.4310  -10.3759  -15.8957 N   0  0  0  0  0  0  0  0  0  0  0  0
   22.2035  -11.1491  -16.8315 C   0  0  0  0  0  0  0  0  0  0  0  0
   23.5955  -10.6344  -16.6452 C   0  0  0  0  0  0  0  0  0  0  0  0
   23.6827  -10.3406  -15.1694 C   0  0  0  0  0  0  0  0  0  0  0  0
   22.2446  -10.4053  -14.7002 C   0  0  1  0  0  0  0  0  0  0  0  0
   21.8833   -9.2718  -13.8400 C   0  0  0  0  0  0  0  0  0  0  0  0
   22.5600   -9.0345  -12.8093 O   0  0  0  0  0  0  0  0  0  0  0  0
   21.8990   -5.7091  -14.1288 C   0  0  0  0  0  0  0  0  0  0  0  0
   20.4426   -6.0179  -13.8655 C   0  0  1  0  0  0  0  0  0  0  0  0
   19.7157   -6.0506  -15.0526 O   0  0  0  0  0  0  0  0  0  0  0  0
   20.3741   -7.3755  -13.1573 C   0  0  2  0  0  0  0  0  0  0  0  0
   20.7903   -8.3973  -14.0962 N   0  0  0  0  0  0  0  0  0  0  0  0
   18.9914   -7.6208  -12.6675 C   0  0  0  0  0  0  0  0  0  0  0  0
   18.1994   -8.2699  -13.3967 O   0  0  0  0  0  0  0  0  0  0  0  0
   15.1316   -8.2205   -8.8625 N   0  0  0  0  0  0  0  0  0  0  0  0
   15.9563   -7.0714   -8.7649 C   0  0  0  0  0  0  0  0  0  0  0  0
   15.5563   -6.0818   -8.1065 O   0  0  0  0  0  0  0  0  0  0  0  0
   17.2599   -7.0286   -9.4200 C   0  0  0  0  0  0  0  0  0  0  0  0
   17.2249   -7.2969  -10.9099 C   0  0  2  0  0  0  0  0  0  0  0  0
   18.5573   -7.1397  -11.4056 N   0  0  0  0  0  0  0  0  0  0  0  0
   16.2798   -6.4537  -11.6459 C   0  0  0  0  0  0  0  0  0  0  0  0
   14.9660   -6.8077  -11.9117 O   0  0  0  0  0  0  0  0  0  0  0  0
   16.6675   -5.3357  -12.0704 O   0  0  0  0  0  0  0  0  0  0  0  0
  1  5  1  0
  1  2  1  0
  2  3  1  0
  4  3  1  0
  5  4  1  0
  6 12  1  0
  5  6  1  1
  7  6  2  0
  9  8  1  6
  9 11  1  0
 10  9  1  0
 11 12  1  6
 11 13  1  0
 13 20  1  0
 14 13  2  0
 16 15  1  0
 16 17  2  0
 18 16  1  0
 19 18  1  1
 20 19  1  0
 21 19  1  0
 21 22  1  0
 23 21  2  0
M  END
$$$$
