PTN.pdb
     RDKit          3D

 23 23  0  0  1  0  0  0  0  0999 V2000
   17.4810  -12.6790  -15.7650 N   0  0  0  0  0  0  0  0  0  0  0  0
   16.7830  -13.9372  -15.7805 C   0  0  0  0  0  0  0  0  0  0  0  0
   17.5697  -14.7614  -16.7496 C   0  0  0  0  0  0  0  0  0  0  0  0
   18.9963  -14.3308  -16.5228 C   0  0  0  0  0  0  0  0  0  0  0  0
   18.8686  -13.0782  -15.6819 C   0  0  1  0  0  0  0  0  0  0  0  0
   19.7177  -11.9850  -16.1710 C   0  0  0  0  0  0  0  0  0  0  0  0
   20.9668  -12.1092  -16.1432 O   0  0  0  0  0  0  0  0  0  0  0  0
   19.9317  -10.3730  -19.4777 C   0  0  0  0  0  0  0  0  0  0  0  0
   19.6335   -9.2411  -18.5207 C   0  0  1  0  0  0  0  0  0  0  0  0
   18.2766   -8.9291  -18.5225 O   0  0  0  0  0  0  0  0  0  0  0  0
   20.0805   -9.6822  -17.1225 C   0  0  2  0  0  0  0  0  0  0  0  0
   19.2137  -10.7590  -16.6890 N   0  0  0  0  0  0  0  0  0  0  0  0
   20.0213   -8.5286  -16.1857 C   0  0  0  0  0  0  0  0  0  0  0  0
   19.1430   -8.5264  -15.2864 O   0  0  0  0  0  0  0  0  0  0  0  0
   21.1608   -4.2070  -13.5683 N   0  0  0  0  0  0  0  0  0  0  0  0
   21.9666   -5.3616  -13.4020 C   0  0  0  0  0  0  0  0  0  0  0  0
   22.7520   -5.4278  -12.4266 O   0  0  0  0  0  0  0  0  0  0  0  0
   21.8916   -6.4688  -14.3501 C   0  0  0  0  0  0  0  0  0  0  0  0
   20.8775   -6.2807  -15.4588 C   0  0  2  0  0  0  0  0  0  0  0  0
   20.9294   -7.4438  -16.2896 N   0  0  0  0  0  0  0  0  0  0  0  0
   21.0699   -5.0576  -16.2420 C   0  0  0  0  0  0  0  0  0  0  0  0
   20.5669   -3.8169  -15.8820 O   0  0  0  0  0  0  0  0  0  0  0  0
   21.7298   -5.1188  -17.3103 O   0  0  0  0  0  0  0  0  0  0  0  0
  1  5  1  0
  1  2  1  0
  2  3  1  0
  4  3  1  0
  5  4  1  0
  6 12  1  0
  5  6  1  6
  7  6  2  0
  9  8  1  6
  9 11  1  0
 10  9  1  0
 11 12  1  1
 11 13  1  0
 13 20  1  0
 14 13  2  0
 16 15  1  0
 16 17  2  0
 18 16  1  0
 19 18  1  1
 20 19  1  0
 21 19  1  0
 21 22  1  0
 23 21  2  0
M  END
$$$$
