PTN.pdb
     RDKit          3D

 23 23  0  0  1  0  0  0  0  0999 V2000
   36.0411  -10.7769  -13.5896 N   0  0  0  0  0  0  0  0  0  0  0  0
   37.0971  -11.1595  -12.6903 C   0  0  0  0  0  0  0  0  0  0  0  0
   38.3132  -10.5282  -13.2903 C   0  0  0  0  0  0  0  0  0  0  0  0
   37.8080   -9.2257  -13.8563 C   0  0  0  0  0  0  0  0  0  0  0  0
   36.3015   -9.3726  -13.8178 C   0  0  1  0  0  0  0  0  0  0  0  0
   35.6650   -8.9595  -15.0745 C   0  0  0  0  0  0  0  0  0  0  0  0
   35.7152   -7.7560  -15.4294 O   0  0  0  0  0  0  0  0  0  0  0  0
   36.1386  -10.6601  -18.4797 C   0  0  0  0  0  0  0  0  0  0  0  0
   34.6509  -10.5500  -18.2339 C   0  0  1  0  0  0  0  0  0  0  0  0
   34.1333  -11.7500  -17.7534 O   0  0  0  0  0  0  0  0  0  0  0  0
   34.4279   -9.4246  -17.2176 C   0  0  2  0  0  0  0  0  0  0  0  0
   34.9750   -9.8490  -15.9451 N   0  0  0  0  0  0  0  0  0  0  0  0
   32.9757   -9.1222  -17.1090 C   0  0  0  0  0  0  0  0  0  0  0  0
   32.3268   -9.6154  -16.1519 O   0  0  0  0  0  0  0  0  0  0  0  0
   28.3244   -6.8919  -18.1683 N   0  0  0  0  0  0  0  0  0  0  0  0
   29.3606   -6.2069  -18.8518 C   0  0  0  0  0  0  0  0  0  0  0  0
   29.0931   -5.1525  -19.4757 O   0  0  0  0  0  0  0  0  0  0  0  0
   30.7291   -6.7142  -18.8367 C   0  0  0  0  0  0  0  0  0  0  0  0
   30.9332   -7.9499  -17.9856 C   0  0  2  0  0  0  0  0  0  0  0  0
   32.3191   -8.2960  -18.0569 N   0  0  0  0  0  0  0  0  0  0  0  0
   30.0816   -9.0810  -18.3621 C   0  0  0  0  0  0  0  0  0  0  0  0
   28.9111   -9.4255  -17.7040 O   0  0  0  0  0  0  0  0  0  0  0  0
   30.4184   -9.7945  -19.3408 O   0  0  0  0  0  0  0  0  0  0  0  0
  1  5  1  0
  1  2  1  0
  2  3  1  0
  4  3  1  0
  5  4  1  0
  6 12  1  0
  5  6  1  6
  7  6  2  0
  9  8  1  1
  9 11  1  0
 10  9  1  0
 11 12  1  1
 11 13  1  0
 13 20  1  0
 14 13  2  0
 16 15  1  0
 16 17  2  0
 18 16  1  0
 19 18  1  6
 20 19  1  0
 21 19  1  0
 21 22  1  0
 23 21  2  0
M  END
$$$$
