PTN.pdb
     RDKit          3D

 23 23  0  0  1  0  0  0  0  0999 V2000
   18.3894  -12.2518  -18.2747 N   0  0  0  0  0  0  0  0  0  0  0  0
   17.6524  -13.4005  -18.7306 C   0  0  0  0  0  0  0  0  0  0  0  0
   18.6510  -14.1536  -19.5510 C   0  0  0  0  0  0  0  0  0  0  0  0
   19.9563  -13.9360  -18.8294 C   0  0  0  0  0  0  0  0  0  0  0  0
   19.6497  -12.8214  -17.8514 C   0  0  1  0  0  0  0  0  0  0  0  0
   20.6793  -11.7750  -17.8524 C   0  0  0  0  0  0  0  0  0  0  0  0
   21.8493  -12.0551  -17.4929 O   0  0  0  0  0  0  0  0  0  0  0  0
   22.1222   -9.9800  -20.5419 C   0  0  0  0  0  0  0  0  0  0  0  0
   21.6189   -8.8626  -19.6564 C   0  0  1  0  0  0  0  0  0  0  0  0
   20.3948   -8.3780  -20.1099 O   0  0  0  0  0  0  0  0  0  0  0  0
   21.4819   -9.4193  -18.2350 C   0  0  2  0  0  0  0  0  0  0  0  0
   20.4412  -10.4271  -18.2419 N   0  0  0  0  0  0  0  0  0  0  0  0
   21.1622   -8.3170  -17.2892 C   0  0  0  0  0  0  0  0  0  0  0  0
   19.9556   -8.0659  -17.0412 O   0  0  0  0  0  0  0  0  0  0  0  0
   21.9119   -4.4606  -13.7942 N   0  0  0  0  0  0  0  0  0  0  0  0
   22.3345   -5.7633  -13.4274 C   0  0  0  0  0  0  0  0  0  0  0  0
   22.6265   -6.0008  -12.2311 O   0  0  0  0  0  0  0  0  0  0  0  0
   22.4329   -6.8258  -14.4233 C   0  0  0  0  0  0  0  0  0  0  0  0
   21.9346   -6.4448  -15.8016 C   0  0  2  0  0  0  0  0  0  0  0  0
   22.1848   -7.5534  -16.6699 N   0  0  0  0  0  0  0  0  0  0  0  0
   22.5236   -5.2115  -16.3291 C   0  0  0  0  0  0  0  0  0  0  0  0
   23.2491   -5.1390  -17.5082 O   0  0  0  0  0  0  0  0  0  0  0  0
   22.3714   -4.1426  -15.6850 O   0  0  0  0  0  0  0  0  0  0  0  0
  1  5  1  0
  1  2  1  0
  2  3  1  0
  4  3  1  0
  5  4  1  0
  6 12  1  0
  5  6  1  6
  7  6  2  0
  9  8  1  6
  9 11  1  0
 10  9  1  0
 11 12  1  6
 11 13  1  0
 13 20  1  0
 14 13  2  0
 16 15  1  0
 16 17  2  0
 18 16  1  0
 19 18  1  1
 20 19  1  0
 21 19  1  0
 21 22  1  0
 23 21  2  0
M  END
$$$$
