PTN.pdb
     RDKit          3D

 23 23  0  0  1  0  0  0  0  0999 V2000
   32.6072  -36.9231   -6.6716 N   0  0  0  0  0  0  0  0  0  0  0  0
   33.4049  -36.9385   -7.8691 C   0  0  0  0  0  0  0  0  0  0  0  0
   33.6414  -35.4886   -8.1502 C   0  0  0  0  0  0  0  0  0  0  0  0
   33.7737  -34.8674   -6.7833 C   0  0  0  0  0  0  0  0  0  0  0  0
   33.2829  -35.9485   -5.8437 C   0  0  1  0  0  0  0  0  0  0  0  0
   32.3458  -35.4344   -4.8373 C   0  0  0  0  0  0  0  0  0  0  0  0
   32.7348  -34.5751   -4.0086 O   0  0  0  0  0  0  0  0  0  0  0  0
   28.9265  -33.8685   -5.3775 C   0  0  0  0  0  0  0  0  0  0  0  0
   28.7369  -35.0313   -4.4301 C   0  0  1  0  0  0  0  0  0  0  0  0
   28.3032  -36.1657   -5.1112 O   0  0  0  0  0  0  0  0  0  0  0  0
   30.0814  -35.2988   -3.7446 C   0  0  2  0  0  0  0  0  0  0  0  0
   30.9894  -35.8513   -4.7290 N   0  0  0  0  0  0  0  0  0  0  0  0
   29.8894  -36.2308   -2.6016 C   0  0  0  0  0  0  0  0  0  0  0  0
   30.6778  -37.2019   -2.4761 O   0  0  0  0  0  0  0  0  0  0  0  0
   31.7097  -38.1781    1.4529 N   0  0  0  0  0  0  0  0  0  0  0  0
   30.5069  -38.0754    0.7093 C   0  0  0  0  0  0  0  0  0  0  0  0
   29.8701  -39.1173    0.4234 O   0  0  0  0  0  0  0  0  0  0  0  0
   30.0047  -36.7755    0.2753 C   0  0  0  0  0  0  0  0  0  0  0  0
   28.6904  -36.8270   -0.4751 C   0  0  2  0  0  0  0  0  0  0  0  0
   28.8431  -36.0438   -1.6621 N   0  0  0  0  0  0  0  0  0  0  0  0
   27.5367  -36.3833    0.3111 C   0  0  0  0  0  0  0  0  0  0  0  0
   26.8536  -37.1871    1.2106 O   0  0  0  0  0  0  0  0  0  0  0  0
   27.1269  -35.2027    0.1740 O   0  0  0  0  0  0  0  0  0  0  0  0
  1  5  1  0
  1  2  1  0
  2  3  1  0
  4  3  1  0
  5  4  1  0
  6 12  1  0
  5  6  1  1
  7  6  2  0
  9  8  1  6
  9 11  1  0
 10  9  1  0
 11 12  1  6
 11 13  1  0
 13 20  1  0
 14 13  2  0
 16 15  1  0
 16 17  2  0
 18 16  1  0
 19 18  1  1
 20 19  1  0
 21 19  1  0
 21 22  1  0
 23 21  2  0
M  END
$$$$
