GAG.pdb
     RDKit          3D

 14 13  0  0  1  0  0  0  0  0999 V2000
   24.6749  -12.6643  -20.6952 N   0  0  0  0  0  0  0  0  0  0  0  0
   25.4676  -11.6215  -20.1214 C   0  0  0  0  0  0  0  0  0  0  0  0
   24.9998  -11.3560  -18.7158 C   0  0  0  0  0  0  0  0  0  0  0  0
   23.8259  -11.6287  -18.3574 O   0  0  0  0  0  0  0  0  0  0  0  0
   26.6414  -10.3344  -15.4759 C   0  0  0  0  0  0  0  0  0  0  0  0
   25.4345  -10.4472  -16.4003 C   0  0  2  0  0  0  0  0  0  0  0  0
   25.8612  -10.7872  -17.7346 N   0  0  0  0  0  0  0  0  0  0  0  0
   24.6648   -9.2007  -16.4602 C   0  0  0  0  0  0  0  0  0  0  0  0
   24.9591   -8.2921  -17.2693 O   0  0  0  0  0  0  0  0  0  0  0  0
   23.5388   -8.9344  -15.6126 N   0  0  0  0  0  0  0  0  0  0  0  0
   22.7693   -7.7363  -15.7202 C   0  0  0  0  0  0  0  0  0  0  0  0
   21.7527   -7.5609  -14.6949 C   0  0  0  0  0  0  0  0  0  0  0  0
   21.1428   -6.4781  -14.5756 O   0  0  0  0  0  0  0  0  0  0  0  0
   21.4393   -8.5878  -13.8307 O   0  0  0  0  0  0  0  0  0  0  0  0
  2  1  1  0
  3  2  1  0
  4  3  2  0
  6  5  1  1
  6  7  1  0
  7  3  1  0
  8  9  2  0
  8  6  1  0
 10  8  1  0
 11 10  1  0
 12 11  1  0
 12 14  1  0
 13 12  2  0
M  END
$$$$
