GAG.pdb
     RDKit          3D

 14 13  0  0  1  0  0  0  0  0999 V2000
   17.9440  -10.8596  -15.0519 N   0  0  0  0  0  0  0  0  0  0  0  0
   18.3660   -9.7648  -15.8695 C   0  0  0  0  0  0  0  0  0  0  0  0
   19.8697   -9.7026  -15.8818 C   0  0  0  0  0  0  0  0  0  0  0  0
   20.5580  -10.4314  -15.1230 O   0  0  0  0  0  0  0  0  0  0  0  0
   22.4342   -8.6086  -18.3032 C   0  0  0  0  0  0  0  0  0  0  0  0
   22.0134   -8.7825  -16.8484 C   0  0  2  0  0  0  0  0  0  0  0  0
   20.5758   -8.8204  -16.7486 N   0  0  0  0  0  0  0  0  0  0  0  0
   22.5118   -7.6996  -15.9947 C   0  0  0  0  0  0  0  0  0  0  0  0
   23.7379   -7.4836  -15.8664 O   0  0  0  0  0  0  0  0  0  0  0  0
   21.6481   -6.8237  -15.2571 N   0  0  0  0  0  0  0  0  0  0  0  0
   22.1499   -5.7473  -14.4642 C   0  0  0  0  0  0  0  0  0  0  0  0
   21.1342   -4.9136  -13.8407 C   0  0  0  0  0  0  0  0  0  0  0  0
   20.1878   -5.4231  -13.2057 O   0  0  0  0  0  0  0  0  0  0  0  0
   21.1939   -3.5399  -13.9372 O   0  0  0  0  0  0  0  0  0  0  0  0
  2  1  1  0
  3  2  1  0
  4  3  2  0
  6  5  1  6
  6  7  1  0
  7  3  1  0
  8  9  2  0
  8  6  1  0
 10  8  1  0
 11 10  1  0
 12 11  1  0
 12 14  1  0
 13 12  2  0
M  END
$$$$
