GAG.pdb
     RDKit          3D

 14 13  0  0  1  0  0  0  0  0999 V2000
   36.5922   -6.8868  -12.2305 N   0  0  0  0  0  0  0  0  0  0  0  0
   37.7005   -7.1714  -11.3728 C   0  0  0  0  0  0  0  0  0  0  0  0
   37.5069   -6.4660  -10.0575 C   0  0  0  0  0  0  0  0  0  0  0  0
   36.5226   -5.7080   -9.8636 O   0  0  0  0  0  0  0  0  0  0  0  0
   39.0402   -6.7354   -6.6298 C   0  0  0  0  0  0  0  0  0  0  0  0
   38.2772   -5.9695   -7.7045 C   0  0  2  0  0  0  0  0  0  0  0  0
   38.4245   -6.6247   -8.9802 N   0  0  0  0  0  0  0  0  0  0  0  0
   38.7434   -4.5855   -7.8345 C   0  0  0  0  0  0  0  0  0  0  0  0
   39.4076   -4.2129   -8.8277 O   0  0  0  0  0  0  0  0  0  0  0  0
   38.4784   -3.5747   -6.8520 N   0  0  0  0  0  0  0  0  0  0  0  0
   38.8504   -2.2093   -7.0427 C   0  0  0  0  0  0  0  0  0  0  0  0
   38.4576   -1.3067   -5.9719 C   0  0  0  0  0  0  0  0  0  0  0  0
   37.2625   -1.2046   -5.6257 O   0  0  0  0  0  0  0  0  0  0  0  0
   39.3975   -0.5425   -5.3145 O   0  0  0  0  0  0  0  0  0  0  0  0
  2  1  1  0
  3  2  1  0
  4  3  2  0
  6  5  1  1
  6  7  1  0
  7  3  1  0
  8  9  2  0
  8  6  1  0
 10  8  1  0
 11 10  1  0
 12 11  1  0
 12 14  1  0
 13 12  2  0
M  END
$$$$
