GAG.pdb
     RDKit          3D

 14 13  0  0  1  0  0  0  0  0999 V2000
   17.3913  -11.2399  -15.2571 N   0  0  0  0  0  0  0  0  0  0  0  0
   17.9711  -10.5245  -16.3512 C   0  0  0  0  0  0  0  0  0  0  0  0
   19.4207  -10.2491  -16.0545 C   0  0  0  0  0  0  0  0  0  0  0  0
   19.8986  -10.4409  -14.9074 O   0  0  0  0  0  0  0  0  0  0  0  0
   22.5237   -9.5458  -18.0390 C   0  0  0  0  0  0  0  0  0  0  0  0
   21.6720   -9.3708  -16.7868 C   0  0  2  0  0  0  0  0  0  0  0  0
   20.3104   -9.7620  -17.0540 N   0  0  0  0  0  0  0  0  0  0  0  0
   21.6735   -7.9859  -16.3054 C   0  0  0  0  0  0  0  0  0  0  0  0
   20.8072   -7.1648  -16.6821 O   0  0  0  0  0  0  0  0  0  0  0  0
   22.6491   -7.4782  -15.3846 N   0  0  0  0  0  0  0  0  0  0  0  0
   22.7172   -6.0967  -15.0301 C   0  0  0  0  0  0  0  0  0  0  0  0
   21.9477   -5.7220  -13.8541 C   0  0  0  0  0  0  0  0  0  0  0  0
   21.2556   -6.5644  -13.2459 O   0  0  0  0  0  0  0  0  0  0  0  0
   21.9655   -4.4264  -13.3840 O   0  0  0  0  0  0  0  0  0  0  0  0
  2  1  1  0
  3  2  1  0
  4  3  2  0
  6  5  1  6
  6  7  1  0
  7  3  1  0
  8  9  2  0
  8  6  1  0
 10  8  1  0
 11 10  1  0
 12 11  1  0
 12 14  1  0
 13 12  2  0
M  END
$$$$
