GAG.pdb
     RDKit          3D

 14 13  0  0  1  0  0  0  0  0999 V2000
   21.8022  -20.9906  -13.8372 N   0  0  0  0  0  0  0  0  0  0  0  0
   22.5118  -19.7683  -14.0549 C   0  0  0  0  0  0  0  0  0  0  0  0
   23.5157  -19.9647  -15.1589 C   0  0  0  0  0  0  0  0  0  0  0  0
   23.7161  -21.0990  -15.6630 O   0  0  0  0  0  0  0  0  0  0  0  0
   25.5415  -17.6696  -17.3685 C   0  0  0  0  0  0  0  0  0  0  0  0
   25.2529  -19.0244  -16.7319 C   0  0  2  0  0  0  0  0  0  0  0  0
   24.2790  -18.8806  -15.6788 N   0  0  0  0  0  0  0  0  0  0  0  0
   26.4592  -19.6405  -16.1707 C   0  0  0  0  0  0  0  0  0  0  0  0
   26.9197  -19.2801  -15.0641 O   0  0  0  0  0  0  0  0  0  0  0  0
   27.1877  -20.6822  -16.8351 N   0  0  0  0  0  0  0  0  0  0  0  0
   28.3285  -21.3092  -16.2482 C   0  0  0  0  0  0  0  0  0  0  0  0
   28.4198  -22.7457  -16.4573 C   0  0  0  0  0  0  0  0  0  0  0  0
   27.4011  -23.4234  -16.7053 O   0  0  0  0  0  0  0  0  0  0  0  0
   29.6351  -23.3920  -16.3862 O   0  0  0  0  0  0  0  0  0  0  0  0
  2  1  1  0
  3  2  1  0
  4  3  2  0
  6  5  1  1
  6  7  1  0
  7  3  1  0
  8  9  2  0
  8  6  1  0
 10  8  1  0
 11 10  1  0
 12 11  1  0
 12 14  1  0
 13 12  2  0
M  END
$$$$
