GAG.pdb
     RDKit          3D

 14 13  0  0  1  0  0  0  0  0999 V2000
   18.3737  -12.8756  -15.3447 N   0  0  0  0  0  0  0  0  0  0  0  0
   17.8954  -11.6466  -15.8979 C   0  0  0  0  0  0  0  0  0  0  0  0
   19.0580  -10.7202  -16.1334 C   0  0  0  0  0  0  0  0  0  0  0  0
   20.2440  -11.1195  -16.0119 O   0  0  0  0  0  0  0  0  0  0  0  0
   19.4577   -7.3886  -17.8018 C   0  0  0  0  0  0  0  0  0  0  0  0
   19.9477   -8.4652  -16.8401 C   0  0  2  0  0  0  0  0  0  0  0  0
   18.8674   -9.3580  -16.5024 N   0  0  0  0  0  0  0  0  0  0  0  0
   20.4875   -7.8966  -15.6012 C   0  0  0  0  0  0  0  0  0  0  0  0
   19.7652   -7.7293  -14.5928 O   0  0  0  0  0  0  0  0  0  0  0  0
   21.8574   -7.4973  -15.4549 N   0  0  0  0  0  0  0  0  0  0  0  0
   22.4050   -7.0956  -14.1988 C   0  0  0  0  0  0  0  0  0  0  0  0
   22.2340   -5.6886  -13.8720 C   0  0  0  0  0  0  0  0  0  0  0  0
   21.5938   -4.9283  -14.6273 O   0  0  0  0  0  0  0  0  0  0  0  0
   22.7760   -5.1624  -12.7191 O   0  0  0  0  0  0  0  0  0  0  0  0
  2  1  1  0
  3  2  1  0
  4  3  2  0
  6  5  1  6
  6  7  1  0
  7  3  1  0
  8  9  2  0
  8  6  1  0
 10  8  1  0
 11 10  1  0
 12 11  1  0
 12 14  1  0
 13 12  2  0
M  END
$$$$
