GAG.pdb
     RDKit          3D

 14 13  0  0  1  0  0  0  0  0999 V2000
   20.0346  -10.7216  -18.3406 N   0  0  0  0  0  0  0  0  0  0  0  0
   21.1718   -9.9309  -17.9842 C   0  0  0  0  0  0  0  0  0  0  0  0
   20.9402   -9.3043  -16.6356 C   0  0  0  0  0  0  0  0  0  0  0  0
   19.9209   -8.6039  -16.4091 O   0  0  0  0  0  0  0  0  0  0  0  0
   22.4685   -9.6278  -13.2121 C   0  0  0  0  0  0  0  0  0  0  0  0
   21.7117   -8.8411  -14.2762 C   0  0  2  0  0  0  0  0  0  0  0  0
   21.8601   -9.4758  -15.5621 N   0  0  0  0  0  0  0  0  0  0  0  0
   22.1840   -7.4571  -14.3820 C   0  0  0  0  0  0  0  0  0  0  0  0
   23.3064   -7.1875  -14.8660 O   0  0  0  0  0  0  0  0  0  0  0  0
   21.4102   -6.3305  -13.9470 N   0  0  0  0  0  0  0  0  0  0  0  0
   21.8251   -4.9842  -14.1803 C   0  0  0  0  0  0  0  0  0  0  0  0
   20.8834   -3.9637  -13.7473 C   0  0  0  0  0  0  0  0  0  0  0  0
   19.7117   -4.2630  -13.4373 O   0  0  0  0  0  0  0  0  0  0  0  0
   21.2643   -2.6413  -13.6695 O   0  0  0  0  0  0  0  0  0  0  0  0
  2  1  1  0
  3  2  1  0
  4  3  2  0
  6  5  1  1
  6  7  1  0
  7  3  1  0
  8  9  2  0
  8  6  1  0
 10  8  1  0
 11 10  1  0
 12 11  1  0
 12 14  1  0
 13 12  2  0
M  END
$$$$
