GAG.pdb
     RDKit          3D

 14 13  0  0  1  0  0  0  0  0999 V2000
   23.9852  -12.3348  -19.9035 N   0  0  0  0  0  0  0  0  0  0  0  0
   24.7336  -11.1321  -19.7070 C   0  0  0  0  0  0  0  0  0  0  0  0
   24.4015  -10.5533  -18.3580 C   0  0  0  0  0  0  0  0  0  0  0  0
   23.2173  -10.2702  -18.0443 O   0  0  0  0  0  0  0  0  0  0  0  0
   26.2623  -10.1352  -15.1113 C   0  0  0  0  0  0  0  0  0  0  0  0
   25.1311   -9.7773  -16.0685 C   0  0  2  0  0  0  0  0  0  0  0  0
   25.4080  -10.3018  -17.3824 N   0  0  0  0  0  0  0  0  0  0  0  0
   24.9350   -8.3283  -16.1765 C   0  0  0  0  0  0  0  0  0  0  0  0
   25.6260   -7.6341  -16.9558 O   0  0  0  0  0  0  0  0  0  0  0  0
   23.9554   -7.6117  -15.4121 N   0  0  0  0  0  0  0  0  0  0  0  0
   23.7428   -6.2084  -15.5684 C   0  0  0  0  0  0  0  0  0  0  0  0
   22.7646   -5.6271  -14.6626 C   0  0  0  0  0  0  0  0  0  0  0  0
   22.0951   -6.3478  -13.8939 O   0  0  0  0  0  0  0  0  0  0  0  0
   22.5545   -4.2651  -14.6324 O   0  0  0  0  0  0  0  0  0  0  0  0
  2  1  1  0
  3  2  1  0
  4  3  2  0
  6  5  1  1
  6  7  1  0
  7  3  1  0
  8  9  2  0
  8  6  1  0
 10  8  1  0
 11 10  1  0
 12 11  1  0
 12 14  1  0
 13 12  2  0
M  END
$$$$
