GAG.pdb
     RDKit          3D

 14 13  0  0  1  0  0  0  0  0999 V2000
   16.8865  -11.7824  -14.7553 N   0  0  0  0  0  0  0  0  0  0  0  0
   17.2142  -10.4050  -14.9567 C   0  0  0  0  0  0  0  0  0  0  0  0
   18.5327  -10.3064  -15.6757 C   0  0  0  0  0  0  0  0  0  0  0  0
   19.2288  -11.3284  -15.9029 O   0  0  0  0  0  0  0  0  0  0  0  0
   19.9711   -8.2608  -18.2321 C   0  0  0  0  0  0  0  0  0  0  0  0
   20.2628   -8.9270  -16.8924 C   0  0  2  0  0  0  0  0  0  0  0  0
   19.0476   -9.0581  -16.1280 N   0  0  0  0  0  0  0  0  0  0  0  0
   21.2344   -8.1695  -16.0974 C   0  0  0  0  0  0  0  0  0  0  0  0
   22.3808   -7.9214  -16.5342 O   0  0  0  0  0  0  0  0  0  0  0  0
   20.9493   -7.6658  -14.7850 N   0  0  0  0  0  0  0  0  0  0  0  0
   21.9225   -6.9673  -14.0079 C   0  0  0  0  0  0  0  0  0  0  0  0
   21.9115   -5.5208  -14.1592 C   0  0  0  0  0  0  0  0  0  0  0  0
   21.1545   -4.9683  -14.9840 O   0  0  0  0  0  0  0  0  0  0  0  0
   22.7379   -4.7262  -13.3940 O   0  0  0  0  0  0  0  0  0  0  0  0
  2  1  1  0
  3  2  1  0
  4  3  2  0
  6  5  1  6
  6  7  1  0
  7  3  1  0
  8  9  2  0
  8  6  1  0
 10  8  1  0
 11 10  1  0
 12 11  1  0
 12 14  1  0
 13 12  2  0
M  END
$$$$
