GAG.pdb
     RDKit          3D

 14 13  0  0  1  0  0  0  0  0999 V2000
   18.8164  -11.5790  -17.5131 N   0  0  0  0  0  0  0  0  0  0  0  0
   18.7549  -10.1506  -17.4823 C   0  0  0  0  0  0  0  0  0  0  0  0
   20.1207   -9.5866  -17.7682 C   0  0  0  0  0  0  0  0  0  0  0  0
   21.1282  -10.3335  -17.8573 O   0  0  0  0  0  0  0  0  0  0  0  0
   21.4656   -6.4826  -19.2586 C   0  0  0  0  0  0  0  0  0  0  0  0
   21.6179   -7.6096  -18.2434 C   0  0  2  0  0  0  0  0  0  0  0  0
   20.3315   -8.1900  -17.9494 N   0  0  0  0  0  0  0  0  0  0  0  0
   22.2186   -7.1468  -16.9886 C   0  0  0  0  0  0  0  0  0  0  0  0
   23.4135   -6.7780  -16.9360 O   0  0  0  0  0  0  0  0  0  0  0  0
   21.4958   -7.0833  -15.7513 N   0  0  0  0  0  0  0  0  0  0  0  0
   22.0713   -6.5504  -14.5580 C   0  0  0  0  0  0  0  0  0  0  0  0
   22.0214   -5.1014  -14.4419 C   0  0  0  0  0  0  0  0  0  0  0  0
   21.5680   -4.5559  -13.4146 O   0  0  0  0  0  0  0  0  0  0  0  0
   22.4745   -4.2967  -15.4652 O   0  0  0  0  0  0  0  0  0  0  0  0
  2  1  1  0
  3  2  1  0
  4  3  2  0
  6  5  1  6
  6  7  1  0
  7  3  1  0
  8  9  2  0
  8  6  1  0
 10  8  1  0
 11 10  1  0
 12 11  1  0
 12 14  1  0
 13 12  2  0
M  END
$$$$
