GAG.pdb
     RDKit          3D

 14 13  0  0  1  0  0  0  0  0999 V2000
   19.2040  -11.3400  -18.1558 N   0  0  0  0  0  0  0  0  0  0  0  0
   20.3841  -10.5812  -18.4332 C   0  0  0  0  0  0  0  0  0  0  0  0
   21.0482  -10.2010  -17.1372 C   0  0  0  0  0  0  0  0  0  0  0  0
   20.3785  -10.0362  -16.0859 O   0  0  0  0  0  0  0  0  0  0  0  0
   24.5660  -10.1212  -15.8387 C   0  0  0  0  0  0  0  0  0  0  0  0
   23.1292   -9.6119  -15.8339 C   0  0  2  0  0  0  0  0  0  0  0  0
   22.4566  -10.0120  -17.0446 N   0  0  0  0  0  0  0  0  0  0  0  0
   23.0599   -8.1515  -15.7227 C   0  0  0  0  0  0  0  0  0  0  0  0
   23.0322   -7.4218  -16.7393 O   0  0  0  0  0  0  0  0  0  0  0  0
   23.0196   -7.4633  -14.4649 N   0  0  0  0  0  0  0  0  0  0  0  0
   22.9315   -6.0408  -14.3762 C   0  0  0  0  0  0  0  0  0  0  0  0
   21.5837   -5.5132  -14.2322 C   0  0  0  0  0  0  0  0  0  0  0  0
   20.5884   -6.2585  -14.3428 O   0  0  0  0  0  0  0  0  0  0  0  0
   21.3750   -4.1762  -13.9698 O   0  0  0  0  0  0  0  0  0  0  0  0
  2  1  1  0
  3  2  1  0
  4  3  2  0
  6  5  1  6
  6  7  1  0
  7  3  1  0
  8  9  2  0
  8  6  1  0
 10  8  1  0
 11 10  1  0
 12 11  1  0
 12 14  1  0
 13 12  2  0
M  END
$$$$
