GAG.pdb
     RDKit          3D

 14 13  0  0  1  0  0  0  0  0999 V2000
   25.5779  -11.9530  -15.8679 N   0  0  0  0  0  0  0  0  0  0  0  0
   24.3211  -11.6134  -15.2760 C   0  0  0  0  0  0  0  0  0  0  0  0
   23.6007  -10.6340  -16.1632 C   0  0  0  0  0  0  0  0  0  0  0  0
   23.7665  -10.6401  -17.4095 O   0  0  0  0  0  0  0  0  0  0  0  0
   20.6221   -9.5535  -16.8855 C   0  0  0  0  0  0  0  0  0  0  0  0
   21.8797   -8.8090  -16.4517 C   0  0  2  0  0  0  0  0  0  0  0  0
   22.7045   -9.6624  -15.6335 N   0  0  0  0  0  0  0  0  0  0  0  0
   21.5693   -7.5934  -15.6929 C   0  0  0  0  0  0  0  0  0  0  0  0
   20.7015   -6.7828  -16.0884 O   0  0  0  0  0  0  0  0  0  0  0  0
   22.2243   -7.2491  -14.4641 N   0  0  0  0  0  0  0  0  0  0  0  0
   21.9221   -6.0511  -13.7482 C   0  0  0  0  0  0  0  0  0  0  0  0
   22.5182   -4.8403  -14.2906 C   0  0  0  0  0  0  0  0  0  0  0  0
   23.2264   -4.8792  -15.3180 O   0  0  0  0  0  0  0  0  0  0  0  0
   22.3143   -3.6208  -13.6814 O   0  0  0  0  0  0  0  0  0  0  0  0
  2  1  1  0
  3  2  1  0
  4  3  2  0
  6  5  1  1
  6  7  1  0
  7  3  1  0
  8  9  2  0
  8  6  1  0
 10  8  1  0
 11 10  1  0
 12 11  1  0
 12 14  1  0
 13 12  2  0
M  END
$$$$
