GAG.pdb
     RDKit          3D

 14 13  0  0  1  0  0  0  0  0999 V2000
   18.0454  -11.6354  -15.1891 N   0  0  0  0  0  0  0  0  0  0  0  0
   18.4855  -10.8679  -16.3126 C   0  0  0  0  0  0  0  0  0  0  0  0
   19.8331  -10.2697  -16.0106 C   0  0  0  0  0  0  0  0  0  0  0  0
   20.2477  -10.1617  -14.8285 O   0  0  0  0  0  0  0  0  0  0  0  0
   22.8812   -9.4505  -18.0476 C   0  0  0  0  0  0  0  0  0  0  0  0
   22.0152   -9.2781  -16.8050 C   0  0  2  0  0  0  0  0  0  0  0  0
   20.6937   -9.8021  -17.0443 N   0  0  0  0  0  0  0  0  0  0  0  0
   21.8943   -7.8727  -16.4051 C   0  0  0  0  0  0  0  0  0  0  0  0
   20.9574   -7.1553  -16.8225 O   0  0  0  0  0  0  0  0  0  0  0  0
   22.8229   -7.2272  -15.5227 N   0  0  0  0  0  0  0  0  0  0  0  0
   22.6206   -5.8978  -15.0423 C   0  0  0  0  0  0  0  0  0  0  0  0
   22.0856   -5.8032  -13.6931 C   0  0  0  0  0  0  0  0  0  0  0  0
   21.7323   -6.8260  -13.0706 O   0  0  0  0  0  0  0  0  0  0  0  0
   21.9565   -4.5802  -13.0707 O   0  0  0  0  0  0  0  0  0  0  0  0
  2  1  1  0
  3  2  1  0
  4  3  2  0
  6  5  1  6
  6  7  1  0
  7  3  1  0
  8  9  2  0
  8  6  1  0
 10  8  1  0
 11 10  1  0
 12 11  1  0
 12 14  1  0
 13 12  2  0
M  END
$$$$
