GAG.pdb
     RDKit          3D

 14 13  0  0  1  0  0  0  0  0999 V2000
   18.0616  -15.3278  -15.7517 N   0  0  0  0  0  0  0  0  0  0  0  0
   17.3730  -14.1465  -15.3327 C   0  0  0  0  0  0  0  0  0  0  0  0
   17.9959  -12.9459  -15.9928 C   0  0  0  0  0  0  0  0  0  0  0  0
   19.0425  -13.0510  -16.6817 O   0  0  0  0  0  0  0  0  0  0  0  0
   16.8564   -9.4946  -16.8484 C   0  0  0  0  0  0  0  0  0  0  0  0
   17.9742  -10.4744  -16.5102 C   0  0  2  0  0  0  0  0  0  0  0  0
   17.4309  -11.6447  -15.8673 N   0  0  0  0  0  0  0  0  0  0  0  0
   18.9813   -9.8812  -15.6250 C   0  0  0  0  0  0  0  0  0  0  0  0
   18.9105  -10.0073  -14.3817 O   0  0  0  0  0  0  0  0  0  0  0  0
   20.1013   -9.1266  -16.1082 N   0  0  0  0  0  0  0  0  0  0  0  0
   21.1129   -8.6200  -15.2370 C   0  0  0  0  0  0  0  0  0  0  0  0
   20.8503   -7.2991  -14.6877 C   0  0  0  0  0  0  0  0  0  0  0  0
   21.6950   -6.7235  -13.9709 O   0  0  0  0  0  0  0  0  0  0  0  0
   19.6611   -6.6522  -14.9466 O   0  0  0  0  0  0  0  0  0  0  0  0
  2  1  1  0
  3  2  1  0
  4  3  2  0
  6  5  1  1
  6  7  1  0
  7  3  1  0
  8  9  2  0
  8  6  1  0
 10  8  1  0
 11 10  1  0
 12 11  1  0
 12 14  1  0
 13 12  2  0
M  END
$$$$
