CIT.pdb
     RDKit          3D

 22 21  0  0  1  0  0  0  0  0999 V2000
   18.9792  -13.5521  -17.1792 N   0  0  0  0  0  0  0  0  0  0  0  0
   19.2945  -12.2407  -17.6651 C   0  0  1  0  0  0  0  0  0  0  0  0
   18.2566  -11.8260  -18.6734 C   0  0  0  0  0  0  0  0  0  0  0  0
   18.4311  -12.8976  -20.1283 S   0  0  0  0  0  0  0  0  0  0  0  0
   19.3528  -11.2843  -16.5368 C   0  0  0  0  0  0  0  0  0  0  0  0
   18.5794  -11.4014  -15.5672 O   0  0  0  0  0  0  0  0  0  0  0  0
   23.5206  -10.5203  -13.8501 C   0  0  0  0  0  0  0  0  0  0  0  0
   22.1294  -10.5143  -14.3977 C   0  0  0  0  0  0  0  0  0  0  0  0
   21.8142   -9.1471  -14.9990 C   0  0  2  0  0  0  0  0  0  0  0  0
   21.9382   -8.1373  -13.8796 C   0  0  0  0  0  0  0  0  0  0  0  0
   20.3848   -9.2250  -15.5024 C   0  0  2  0  0  0  0  0  0  0  0  0
   20.2815  -10.2229  -16.5338 N   0  0  0  0  0  0  0  0  0  0  0  0
   19.8611   -7.9108  -15.9247 C   0  0  0  0  0  0  0  0  0  0  0  0
   20.5383   -7.2185  -16.7271 O   0  0  0  0  0  0  0  0  0  0  0  0
   16.4695   -6.9430  -17.6473 C   0  0  0  0  0  0  0  0  0  0  0  0
   16.6378   -6.2242  -16.3280 C   0  0  1  0  0  0  0  0  0  0  0  0
   15.9487   -6.9393  -15.3626 O   0  0  0  0  0  0  0  0  0  0  0  0
   18.0943   -6.1150  -15.9210 C   0  0  2  0  0  0  0  0  0  0  0  0
   18.6286   -7.3761  -15.4763 N   0  0  0  0  0  0  0  0  0  0  0  0
   18.1770   -5.1016  -14.8507 C   0  0  0  0  0  0  0  0  0  0  0  0
   18.3703   -5.4705  -13.6735 O   0  0  0  0  0  0  0  0  0  0  0  0
   18.0461   -3.7556  -15.1177 O   0  0  0  0  0  0  0  0  0  0  0  0
  2  1  1  1
  2  5  1  0
  3  2  1  0
  4  3  1  0
  5 12  1  0
  5  6  2  0
  7  8  1  0
  8  9  1  0
  9 11  1  0
  9 10  1  1
 11 13  1  0
 11 12  1  6
 13 14  2  0
 16 18  1  0
 16 15  1  6
 17 16  1  0
 18 20  1  0
 19 13  1  0
 18 19  1  1
 20 22  1  0
 21 20  2  0
M  END
$$$$
