CIT.pdb
     RDKit          3D

 22 21  0  0  1  0  0  0  0  0999 V2000
   15.7608  -12.5377  -12.8126 N   0  0  0  0  0  0  0  0  0  0  0  0
   16.4125  -11.3057  -13.1481 C   0  0  1  0  0  0  0  0  0  0  0  0
   16.5472  -11.2110  -14.6444 C   0  0  0  0  0  0  0  0  0  0  0  0
   17.8090  -12.4060  -15.1689 S   0  0  0  0  0  0  0  0  0  0  0  0
   15.6411  -10.1629  -12.6095 C   0  0  0  0  0  0  0  0  0  0  0  0
   14.4123  -10.0836  -12.7981 O   0  0  0  0  0  0  0  0  0  0  0  0
   14.1959   -7.1485   -8.0545 C   0  0  0  0  0  0  0  0  0  0  0  0
   15.0519   -6.8183   -9.2350 C   0  0  0  0  0  0  0  0  0  0  0  0
   15.7118   -8.0869   -9.7687 C   0  0  2  0  0  0  0  0  0  0  0  0
   17.1580   -8.0474   -9.3269 C   0  0  0  0  0  0  0  0  0  0  0  0
   15.6053   -8.0161  -11.2807 C   0  0  2  0  0  0  0  0  0  0  0  0
   16.2774   -9.1419  -11.8733 N   0  0  0  0  0  0  0  0  0  0  0  0
   16.0714   -6.7236  -11.8210 C   0  0  0  0  0  0  0  0  0  0  0  0
   17.3018   -6.4647  -11.7950 O   0  0  0  0  0  0  0  0  0  0  0  0
   14.9028   -5.2928  -15.4029 C   0  0  0  0  0  0  0  0  0  0  0  0
   14.7628   -4.2807  -14.2887 C   0  0  1  0  0  0  0  0  0  0  0  0
   13.4443   -4.2935  -13.8650 O   0  0  0  0  0  0  0  0  0  0  0  0
   15.6660   -4.5994  -13.1133 C   0  0  2  0  0  0  0  0  0  0  0  0
   15.2075   -5.7463  -12.3731 N   0  0  0  0  0  0  0  0  0  0  0  0
   15.7082   -3.4003  -12.2533 C   0  0  0  0  0  0  0  0  0  0  0  0
   16.3617   -2.4037  -12.6260 O   0  0  0  0  0  0  0  0  0  0  0  0
   15.0433   -3.3521  -11.0467 O   0  0  0  0  0  0  0  0  0  0  0  0
  2  1  1  6
  2  5  1  0
  3  2  1  0
  4  3  1  0
  5 12  1  0
  5  6  2  0
  7  8  1  0
  8  9  1  0
  9 11  1  0
  9 10  1  6
 11 13  1  0
 11 12  1  6
 13 14  2  0
 16 18  1  0
 16 15  1  6
 17 16  1  0
 18 20  1  0
 19 13  1  0
 18 19  1  1
 20 22  1  0
 21 20  2  0
M  END
$$$$
