CIT.pdb
     RDKit          3D

 22 21  0  0  1  0  0  0  0  0999 V2000
   28.6945  -19.3009  -16.6894 N   0  0  0  0  0  0  0  0  0  0  0  0
   28.0828  -18.6552  -15.5650 C   0  0  1  0  0  0  0  0  0  0  0  0
   27.1663  -17.5683  -16.0593 C   0  0  0  0  0  0  0  0  0  0  0  0
   28.1947  -16.1789  -16.6137 S   0  0  0  0  0  0  0  0  0  0  0  0
   27.3428  -19.6477  -14.7535 C   0  0  0  0  0  0  0  0  0  0  0  0
   26.8375  -20.6527  -15.2888 O   0  0  0  0  0  0  0  0  0  0  0  0
   28.5467  -21.9424  -11.0824 C   0  0  0  0  0  0  0  0  0  0  0  0
   28.3246  -20.4645  -11.0376 C   0  0  0  0  0  0  0  0  0  0  0  0
   26.8285  -20.1633  -11.0677 C   0  0  2  0  0  0  0  0  0  0  0  0
   26.1567  -21.1925  -10.1859 C   0  0  0  0  0  0  0  0  0  0  0  0
   26.3934  -20.3214  -12.5128 C   0  0  2  0  0  0  0  0  0  0  0  0
   27.1937  -19.4787  -13.3612 N   0  0  0  0  0  0  0  0  0  0  0  0
   24.9446  -20.1038  -12.6948 C   0  0  0  0  0  0  0  0  0  0  0  0
   24.4261  -19.0573  -12.2280 O   0  0  0  0  0  0  0  0  0  0  0  0
   20.9143  -20.9004  -15.4328 C   0  0  0  0  0  0  0  0  0  0  0  0
   22.3750  -21.1289  -15.1168 C   0  0  1  0  0  0  0  0  0  0  0  0
   23.1252  -20.3665  -15.9965 O   0  0  0  0  0  0  0  0  0  0  0  0
   22.7188  -20.7301  -13.6949 C   0  0  2  0  0  0  0  0  0  0  0  0
   24.0932  -21.0119  -13.3705 N   0  0  0  0  0  0  0  0  0  0  0  0
   21.8050  -21.4658  -12.7987 C   0  0  0  0  0  0  0  0  0  0  0  0
   22.1480  -22.5835  -12.3600 O   0  0  0  0  0  0  0  0  0  0  0  0
   20.5802  -20.9498  -12.4328 O   0  0  0  0  0  0  0  0  0  0  0  0
  2  1  1  6
  2  5  1  0
  3  2  1  0
  4  3  1  0
  5 12  1  0
  5  6  2  0
  7  8  1  0
  8  9  1  0
  9 11  1  0
  9 10  1  1
 11 13  1  0
 11 12  1  6
 13 14  2  0
 16 18  1  0
 16 15  1  6
 17 16  1  0
 18 20  1  0
 19 13  1  0
 18 19  1  1
 20 22  1  0
 21 20  2  0
M  END
$$$$
