CIT.pdb
     RDKit          3D

 22 21  0  0  1  0  0  0  0  0999 V2000
   26.7734  -11.8321  -17.8547 N   0  0  0  0  0  0  0  0  0  0  0  0
   26.0926  -11.5253  -16.6309 C   0  0  1  0  0  0  0  0  0  0  0  0
   27.0912  -11.0181  -15.6252 C   0  0  0  0  0  0  0  0  0  0  0  0
   28.1916  -12.3938  -15.1872 S   0  0  0  0  0  0  0  0  0  0  0  0
   25.0320  -10.5233  -16.8802 C   0  0  0  0  0  0  0  0  0  0  0  0
   25.1402   -9.7061  -17.8142 O   0  0  0  0  0  0  0  0  0  0  0  0
   20.9770  -12.7541  -17.1136 C   0  0  0  0  0  0  0  0  0  0  0  0
   21.4273  -11.3751  -17.4756 C   0  0  0  0  0  0  0  0  0  0  0  0
   21.4635  -10.4966  -16.2278 C   0  0  2  0  0  0  0  0  0  0  0  0
   20.2284   -9.6244  -16.2703 C   0  0  0  0  0  0  0  0  0  0  0  0
   22.7231   -9.6576  -16.3367 C   0  0  2  0  0  0  0  0  0  0  0  0
   23.8793  -10.4712  -16.0692 N   0  0  0  0  0  0  0  0  0  0  0  0
   22.6705   -8.4458  -15.4950 C   0  0  0  0  0  0  0  0  0  0  0  0
   22.7227   -8.5739  -14.2450 O   0  0  0  0  0  0  0  0  0  0  0  0
   22.7660   -3.4691  -15.0613 C   0  0  0  0  0  0  0  0  0  0  0  0
   22.8535   -4.6986  -15.9366 C   0  0  1  0  0  0  0  0  0  0  0  0
   24.1671   -4.8307  -16.3551 O   0  0  0  0  0  0  0  0  0  0  0  0
   22.4386   -5.9551  -15.1963 C   0  0  2  0  0  0  0  0  0  0  0  0
   22.5636   -7.1328  -16.0154 N   0  0  0  0  0  0  0  0  0  0  0  0
   21.0420   -5.7655  -14.7567 C   0  0  0  0  0  0  0  0  0  0  0  0
   20.1147   -5.9445  -15.5736 O   0  0  0  0  0  0  0  0  0  0  0  0
   20.7345   -5.3952  -13.4650 O   0  0  0  0  0  0  0  0  0  0  0  0
  2  1  1  6
  2  5  1  0
  3  2  1  0
  4  3  1  0
  5 12  1  0
  5  6  2  0
  7  8  1  0
  8  9  1  0
  9 11  1  0
  9 10  1  6
 11 13  1  0
 11 12  1  1
 13 14  2  0
 16 18  1  0
 16 15  1  1
 17 16  1  0
 18 20  1  0
 19 13  1  0
 18 19  1  6
 20 22  1  0
 21 20  2  0
M  END
$$$$
