CIT.pdb
     RDKit          3D

 22 21  0  0  1  0  0  0  0  0999 V2000
   24.3075  -12.3570  -15.3071 N   0  0  0  0  0  0  0  0  0  0  0  0
   24.5054  -11.6227  -16.5224 C   0  0  1  0  0  0  0  0  0  0  0  0
   24.5413  -12.5851  -17.6793 C   0  0  0  0  0  0  0  0  0  0  0  0
   25.9586  -13.6939  -17.4404 S   0  0  0  0  0  0  0  0  0  0  0  0
   23.4244  -10.6259  -16.6922 C   0  0  0  0  0  0  0  0  0  0  0  0
   23.4227   -9.8544  -17.6704 O   0  0  0  0  0  0  0  0  0  0  0  0
   18.9968  -12.3761  -16.3424 C   0  0  0  0  0  0  0  0  0  0  0  0
   19.6382  -11.0901  -16.7550 C   0  0  0  0  0  0  0  0  0  0  0  0
   19.9808  -10.2612  -15.5199 C   0  0  2  0  0  0  0  0  0  0  0  0
   18.8707   -9.2477  -15.3510 C   0  0  0  0  0  0  0  0  0  0  0  0
   21.2996   -9.5746  -15.8228 C   0  0  2  0  0  0  0  0  0  0  0  0
   22.3759  -10.5271  -15.7541 N   0  0  0  0  0  0  0  0  0  0  0  0
   21.5299   -8.3905  -14.9715 C   0  0  0  0  0  0  0  0  0  0  0  0
   21.4991   -8.5279  -13.7218 O   0  0  0  0  0  0  0  0  0  0  0  0
   22.5513   -4.4703  -16.6189 C   0  0  0  0  0  0  0  0  0  0  0  0
   23.0114   -4.9802  -15.2721 C   0  0  1  0  0  0  0  0  0  0  0  0
   23.1712   -3.8883  -14.4353 O   0  0  0  0  0  0  0  0  0  0  0  0
   22.0115   -5.9382  -14.6543 C   0  0  2  0  0  0  0  0  0  0  0  0
   21.7861   -7.0945  -15.4823 N   0  0  0  0  0  0  0  0  0  0  0  0
   20.7570   -5.1889  -14.4437 C   0  0  0  0  0  0  0  0  0  0  0  0
   19.8100   -5.3463  -15.2423 O   0  0  0  0  0  0  0  0  0  0  0  0
   20.6036   -4.3182  -13.3861 O   0  0  0  0  0  0  0  0  0  0  0  0
  2  1  1  1
  2  5  1  0
  3  2  1  0
  4  3  1  0
  5 12  1  0
  5  6  2  0
  7  8  1  0
  8  9  1  0
  9 11  1  0
  9 10  1  6
 11 13  1  0
 11 12  1  1
 13 14  2  0
 16 18  1  0
 16 15  1  6
 17 16  1  0
 18 20  1  0
 19 13  1  0
 18 19  1  6
 20 22  1  0
 21 20  2  0
M  END
$$$$
