CIT.pdb
     RDKit          3D

 22 21  0  0  1  0  0  0  0  0999 V2000
   18.3401  -12.4291  -17.0329 N   0  0  0  0  0  0  0  0  0  0  0  0
   18.6568  -11.0958  -17.4540 C   0  0  1  0  0  0  0  0  0  0  0  0
   17.3785  -10.3346  -17.6832 C   0  0  0  0  0  0  0  0  0  0  0  0
   17.8125   -8.6943  -18.3284 S   0  0  0  0  0  0  0  0  0  0  0  0
   19.4974  -10.4299  -16.4337 C   0  0  0  0  0  0  0  0  0  0  0  0
   19.1447  -10.4079  -15.2391 O   0  0  0  0  0  0  0  0  0  0  0  0
   24.0642  -11.8726  -15.1433 C   0  0  0  0  0  0  0  0  0  0  0  0
   22.7481  -11.1728  -15.2603 C   0  0  0  0  0  0  0  0  0  0  0  0
   22.9497   -9.7857  -15.8647 C   0  0  2  0  0  0  0  0  0  0  0  0
   23.9038   -9.0456  -14.9538 C   0  0  0  0  0  0  0  0  0  0  0  0
   21.5842   -9.1240  -15.8715 C   0  0  2  0  0  0  0  0  0  0  0  0
   20.7122   -9.8077  -16.7894 N   0  0  0  0  0  0  0  0  0  0  0  0
   21.6600   -7.6724  -16.1296 C   0  0  0  0  0  0  0  0  0  0  0  0
   22.0909   -7.2770  -17.2430 O   0  0  0  0  0  0  0  0  0  0  0  0
   19.1685   -5.1756  -16.6990 C   0  0  0  0  0  0  0  0  0  0  0  0
   19.9629   -4.6410  -15.5291 C   0  0  1  0  0  0  0  0  0  0  0  0
   19.2586   -4.9246  -14.3709 O   0  0  0  0  0  0  0  0  0  0  0  0
   21.3396   -5.2704  -15.4408 C   0  0  2  0  0  0  0  0  0  0  0  0
   21.2727   -6.6866  -15.1892 N   0  0  0  0  0  0  0  0  0  0  0  0
   22.0712   -4.5781  -14.3615 C   0  0  0  0  0  0  0  0  0  0  0  0
   22.2864   -5.1772  -13.2873 O   0  0  0  0  0  0  0  0  0  0  0  0
   22.5239   -3.2844  -14.5092 O   0  0  0  0  0  0  0  0  0  0  0  0
  2  1  1  1
  2  5  1  0
  3  2  1  0
  4  3  1  0
  5 12  1  0
  5  6  2  0
  7  8  1  0
  8  9  1  0
  9 11  1  0
  9 10  1  1
 11 13  1  0
 11 12  1  6
 13 14  2  0
 16 18  1  0
 16 15  1  6
 17 16  1  0
 18 20  1  0
 19 13  1  0
 18 19  1  1
 20 22  1  0
 21 20  2  0
M  END
$$$$
