CIT.pdb
     RDKit          3D

 22 21  0  0  1  0  0  0  0  0999 V2000
   25.8785  -12.1596  -17.5894 N   0  0  0  0  0  0  0  0  0  0  0  0
   25.4941  -11.4210  -16.4223 C   0  0  1  0  0  0  0  0  0  0  0  0
   26.6790  -10.6396  -15.9211 C   0  0  0  0  0  0  0  0  0  0  0  0
   27.8878  -11.8206  -15.2583 S   0  0  0  0  0  0  0  0  0  0  0  0
   24.3612  -10.5237  -16.7426 C   0  0  0  0  0  0  0  0  0  0  0  0
   24.2938   -9.9607  -17.8518 O   0  0  0  0  0  0  0  0  0  0  0  0
   19.6268  -12.1829  -16.7101 C   0  0  0  0  0  0  0  0  0  0  0  0
   20.8083  -11.2922  -16.9250 C   0  0  0  0  0  0  0  0  0  0  0  0
   20.9155  -10.2870  -15.7813 C   0  0  2  0  0  0  0  0  0  0  0  0
   19.6842   -9.4112  -15.8513 C   0  0  0  0  0  0  0  0  0  0  0  0
   22.1716   -9.4776  -16.0450 C   0  0  2  0  0  0  0  0  0  0  0  0
   23.3365  -10.2867  -15.8029 N   0  0  0  0  0  0  0  0  0  0  0  0
   22.1935   -8.2062  -15.2947 C   0  0  0  0  0  0  0  0  0  0  0  0
   22.2801   -8.2445  -14.0407 O   0  0  0  0  0  0  0  0  0  0  0  0
   22.3385   -3.1990  -15.2788 C   0  0  0  0  0  0  0  0  0  0  0  0
   22.3620   -4.4952  -16.0566 C   0  0  1  0  0  0  0  0  0  0  0  0
   23.6245   -4.6382  -16.6077 O   0  0  0  0  0  0  0  0  0  0  0  0
   22.0651   -5.6930  -15.1758 C   0  0  2  0  0  0  0  0  0  0  0  0
   22.1220   -6.9315  -15.9082 N   0  0  0  0  0  0  0  0  0  0  0  0
   20.7248   -5.4880  -14.5918 C   0  0  0  0  0  0  0  0  0  0  0  0
   20.6254   -5.1493  -13.3940 O   0  0  0  0  0  0  0  0  0  0  0  0
   19.5775   -5.6611  -15.3362 O   0  0  0  0  0  0  0  0  0  0  0  0
  2  1  1  6
  2  5  1  0
  3  2  1  0
  4  3  1  0
  5 12  1  0
  5  6  2  0
  7  8  1  0
  8  9  1  0
  9 11  1  0
  9 10  1  6
 11 13  1  0
 11 12  1  1
 13 14  2  0
 16 18  1  0
 16 15  1  1
 17 16  1  0
 18 20  1  0
 19 13  1  0
 18 19  1  6
 20 22  1  0
 21 20  2  0
M  END
$$$$
