CIT.pdb
     RDKit          3D

 22 21  0  0  1  0  0  0  0  0999 V2000
   22.0982  -13.3667  -19.3378 N   0  0  0  0  0  0  0  0  0  0  0  0
   22.5928  -12.0323  -19.5106 C   0  0  1  0  0  0  0  0  0  0  0  0
   21.6210  -11.2518  -20.3547 C   0  0  0  0  0  0  0  0  0  0  0  0
   21.6675  -11.9343  -22.0362 S   0  0  0  0  0  0  0  0  0  0  0  0
   22.7869  -11.3905  -18.1909 C   0  0  0  0  0  0  0  0  0  0  0  0
   21.9457  -11.5404  -17.2844 O   0  0  0  0  0  0  0  0  0  0  0  0
   27.4368  -11.8166  -15.9093 C   0  0  0  0  0  0  0  0  0  0  0  0
   25.9970  -11.6021  -16.2509 C   0  0  0  0  0  0  0  0  0  0  0  0
   25.7089  -10.1078  -16.3699 C   0  0  2  0  0  0  0  0  0  0  0  0
   26.0468   -9.4887  -15.0319 C   0  0  0  0  0  0  0  0  0  0  0  0
   24.2255   -9.9846  -16.6646 C   0  0  2  0  0  0  0  0  0  0  0  0
   23.9241  -10.5978  -17.9309 N   0  0  0  0  0  0  0  0  0  0  0  0
   23.7447   -8.5914  -16.5760 C   0  0  0  0  0  0  0  0  0  0  0  0
   24.2922   -7.7151  -17.2930 O   0  0  0  0  0  0  0  0  0  0  0  0
   19.8344   -7.8079  -15.3092 C   0  0  0  0  0  0  0  0  0  0  0  0
   20.6609   -6.8767  -16.1668 C   0  0  1  0  0  0  0  0  0  0  0  0
   20.1343   -5.6020  -16.0408 O   0  0  0  0  0  0  0  0  0  0  0  0
   22.1172   -6.8571  -15.7454 C   0  0  2  0  0  0  0  0  0  0  0  0
   22.6927   -8.1770  -15.7231 N   0  0  0  0  0  0  0  0  0  0  0  0
   22.1799   -6.2330  -14.4090 C   0  0  0  0  0  0  0  0  0  0  0  0
   22.3323   -6.9570  -13.4030 O   0  0  0  0  0  0  0  0  0  0  0  0
   22.0744   -4.8687  -14.2424 O   0  0  0  0  0  0  0  0  0  0  0  0
  2  1  1  1
  2  5  1  0
  3  2  1  0
  4  3  1  0
  5 12  1  0
  5  6  2  0
  7  8  1  0
  8  9  1  0
  9 11  1  0
  9 10  1  1
 11 13  1  0
 11 12  1  6
 13 14  2  0
 16 18  1  0
 16 15  1  1
 17 16  1  0
 18 20  1  0
 19 13  1  0
 18 19  1  1
 20 22  1  0
 21 20  2  0
M  END
$$$$
