CIT.pdb
     RDKit          3D

 22 21  0  0  1  0  0  0  0  0999 V2000
   27.8193  -13.5868  -18.4596 N   0  0  0  0  0  0  0  0  0  0  0  0
   27.5340  -12.5643  -17.4961 C   0  0  1  0  0  0  0  0  0  0  0  0
   28.1346  -11.2655  -17.9633 C   0  0  0  0  0  0  0  0  0  0  0  0
   27.8070  -10.0095  -16.6942 S   0  0  0  0  0  0  0  0  0  0  0  0
   26.0708  -12.4383  -17.3112 C   0  0  0  0  0  0  0  0  0  0  0  0
   25.3068  -12.4304  -18.2952 O   0  0  0  0  0  0  0  0  0  0  0  0
   23.1959  -15.5308  -14.5302 C   0  0  0  0  0  0  0  0  0  0  0  0
   23.6820  -14.4569  -15.4498 C   0  0  0  0  0  0  0  0  0  0  0  0
   23.5995  -13.1009  -14.7536 C   0  0  2  0  0  0  0  0  0  0  0  0
   22.1397  -12.8567  -14.4420 C   0  0  0  0  0  0  0  0  0  0  0  0
   24.1188  -12.0809  -15.7499 C   0  0  2  0  0  0  0  0  0  0  0  0
   25.5105  -12.3250  -16.0219 N   0  0  0  0  0  0  0  0  0  0  0  0
   23.8547  -10.6913  -15.3268 C   0  0  0  0  0  0  0  0  0  0  0  0
   24.5197  -10.2120  -14.3730 O   0  0  0  0  0  0  0  0  0  0  0  0
   23.9716   -7.4746  -17.4726 C   0  0  0  0  0  0  0  0  0  0  0  0
   22.6297   -7.5679  -16.7825 C   0  0  1  0  0  0  0  0  0  0  0  0
   21.7159   -8.0692  -17.6944 O   0  0  0  0  0  0  0  0  0  0  0  0
   22.6747   -8.4790  -15.5713 C   0  0  2  0  0  0  0  0  0  0  0  0
   22.8872   -9.8556  -15.9365 N   0  0  0  0  0  0  0  0  0  0  0  0
   21.3961   -8.3168  -14.8513 C   0  0  0  0  0  0  0  0  0  0  0  0
   20.5437   -9.2276  -14.9072 O   0  0  0  0  0  0  0  0  0  0  0  0
   21.1182   -7.1835  -14.1174 O   0  0  0  0  0  0  0  0  0  0  0  0
  2  1  1  6
  2  5  1  0
  3  2  1  0
  4  3  1  0
  5 12  1  0
  5  6  2  0
  7  8  1  0
  8  9  1  0
  9 11  1  0
  9 10  1  6
 11 13  1  0
 11 12  1  1
 13 14  2  0
 16 18  1  0
 16 15  1  6
 17 16  1  0
 18 20  1  0
 19 13  1  0
 18 19  1  6
 20 22  1  0
 21 20  2  0
M  END
$$$$
