CIT.pdb
     RDKit          3D

 22 21  0  0  1  0  0  0  0  0999 V2000
   19.6426  -12.9906  -16.8409 N   0  0  0  0  0  0  0  0  0  0  0  0
   20.1020  -11.7441  -17.3799 C   0  0  1  0  0  0  0  0  0  0  0  0
   18.9136  -10.9187  -17.7950 C   0  0  0  0  0  0  0  0  0  0  0  0
   18.0393  -11.8180  -19.1074 S   0  0  0  0  0  0  0  0  0  0  0  0
   20.9213  -11.0303  -16.3748 C   0  0  0  0  0  0  0  0  0  0  0  0
   20.5723  -11.0006  -15.1793 O   0  0  0  0  0  0  0  0  0  0  0  0
   26.6176  -10.1427  -14.9089 C   0  0  0  0  0  0  0  0  0  0  0  0
   25.1658   -9.8221  -14.7514 C   0  0  0  0  0  0  0  0  0  0  0  0
   24.4165  -10.1630  -16.0368 C   0  0  2  0  0  0  0  0  0  0  0  0
   25.0891   -9.3947  -17.1527 C   0  0  0  0  0  0  0  0  0  0  0  0
   22.9900   -9.6870  -15.8347 C   0  0  2  0  0  0  0  0  0  0  0  0
   22.1109  -10.3701  -16.7463 N   0  0  0  0  0  0  0  0  0  0  0  0
   22.8668   -8.2180  -15.9153 C   0  0  0  0  0  0  0  0  0  0  0  0
   23.3197   -7.6270  -16.9288 O   0  0  0  0  0  0  0  0  0  0  0  0
   20.2055   -6.0359  -16.6224 C   0  0  0  0  0  0  0  0  0  0  0  0
   20.6847   -5.5806  -15.2628 C   0  0  1  0  0  0  0  0  0  0  0  0
   19.8619   -6.1534  -14.3074 O   0  0  0  0  0  0  0  0  0  0  0  0
   22.1189   -5.9945  -14.9968 C   0  0  2  0  0  0  0  0  0  0  0  0
   22.2627   -7.4246  -14.9093 N   0  0  0  0  0  0  0  0  0  0  0  0
   22.5378   -5.3455  -13.7387 C   0  0  0  0  0  0  0  0  0  0  0  0
   22.6658   -6.0377  -12.7073 O   0  0  0  0  0  0  0  0  0  0  0  0
   22.7917   -3.9922  -13.6729 O   0  0  0  0  0  0  0  0  0  0  0  0
  2  1  1  1
  2  5  1  0
  3  2  1  0
  4  3  1  0
  5 12  1  0
  5  6  2  0
  7  8  1  0
  8  9  1  0
  9 11  1  0
  9 10  1  6
 11 13  1  0
 11 12  1  6
 13 14  2  0
 16 18  1  0
 16 15  1  6
 17 16  1  0
 18 20  1  0
 19 13  1  0
 18 19  1  1
 20 22  1  0
 21 20  2  0
M  END
$$$$
