CIT.pdb
     RDKit          3D

 22 21  0  0  1  0  0  0  0  0999 V2000
   23.9451  -14.3613  -18.0289 N   0  0  0  0  0  0  0  0  0  0  0  0
   23.7068  -13.7193  -16.7693 C   0  0  1  0  0  0  0  0  0  0  0  0
   25.0089  -13.1874  -16.2330 C   0  0  0  0  0  0  0  0  0  0  0  0
   26.0166  -14.6027  -15.7070 S   0  0  0  0  0  0  0  0  0  0  0  0
   22.7157  -12.6325  -16.9357 C   0  0  0  0  0  0  0  0  0  0  0  0
   22.7524  -11.8900  -17.9353 O   0  0  0  0  0  0  0  0  0  0  0  0
   18.2586  -14.0862  -15.6272 C   0  0  0  0  0  0  0  0  0  0  0  0
   18.8791  -12.9706  -16.4055 C   0  0  0  0  0  0  0  0  0  0  0  0
   19.4027  -11.9005  -15.4513 C   0  0  2  0  0  0  0  0  0  0  0  0
   18.3619  -10.8036  -15.4099 C   0  0  0  0  0  0  0  0  0  0  0  0
   20.7000  -11.3937  -16.0536 C   0  0  2  0  0  0  0  0  0  0  0  0
   21.7112  -12.4139  -15.9701 N   0  0  0  0  0  0  0  0  0  0  0  0
   21.1334  -10.1105  -15.4662 C   0  0  0  0  0  0  0  0  0  0  0  0
   21.5487  -10.0974  -14.2791 O   0  0  0  0  0  0  0  0  0  0  0  0
   23.6802   -7.5741  -17.0362 C   0  0  0  0  0  0  0  0  0  0  0  0
   22.4112   -6.8548  -16.6391 C   0  0  1  0  0  0  0  0  0  0  0  0
   21.6492   -6.6735  -17.7813 O   0  0  0  0  0  0  0  0  0  0  0  0
   21.6054   -7.6408  -15.6233 C   0  0  2  0  0  0  0  0  0  0  0  0
   21.1099   -8.8792  -16.1659 N   0  0  0  0  0  0  0  0  0  0  0  0
   20.4926   -6.7772  -15.1813 C   0  0  0  0  0  0  0  0  0  0  0  0
   19.3321   -7.0312  -15.5660 O   0  0  0  0  0  0  0  0  0  0  0  0
   20.7019   -5.6953  -14.3531 O   0  0  0  0  0  0  0  0  0  0  0  0
  2  1  1  6
  2  5  1  0
  3  2  1  0
  4  3  1  0
  5 12  1  0
  5  6  2  0
  7  8  1  0
  8  9  1  0
  9 11  1  0
  9 10  1  6
 11 13  1  0
 11 12  1  1
 13 14  2  0
 16 18  1  0
 16 15  1  6
 17 16  1  0
 18 20  1  0
 19 13  1  0
 18 19  1  6
 20 22  1  0
 21 20  2  0
M  END
$$$$
