TFS.pdb
     RDKit          3D

 25 25  0  0  1  0  0  0  0  0999 V2000
    8.5735  -19.2390   19.1191 C   0  0  0  0  0  0  0  0  0  0  0  0
    8.8539  -18.4072   20.3272 C   0  0  1  0  0  0  0  0  0  0  0  0
    9.8960  -19.0021   21.0293 O   0  0  0  0  0  0  0  0  0  0  0  0
    9.1562  -16.9687   20.0295 C   0  0  2  0  0  0  0  0  0  0  0  0
   10.2882  -16.8280   19.1653 N   0  0  0  0  0  0  0  0  0  0  0  0
    9.2893  -16.1899   21.2782 C   0  0  0  0  0  0  0  0  0  0  0  0
   10.4510  -15.9824   21.7337 O   0  0  0  0  0  0  0  0  0  0  0  0
    8.1841  -15.6599   21.9976 N   0  0  0  0  0  0  0  0  0  0  0  0
    8.3192  -14.9394   23.2513 C   0  0  1  0  0  0  0  0  0  0  0  0
    7.0742  -14.1227   23.4686 C   0  0  0  0  0  0  0  0  0  0  0  0
    7.0153  -13.4586   24.7732 C   0  0  0  0  0  0  0  0  0  0  0  0
    6.2126  -13.9048   25.8026 C   0  0  0  0  0  0  0  0  0  0  0  0
    6.1697  -13.2642   27.0286 C   0  0  0  0  0  0  0  0  0  0  0  0
    6.9327  -12.1461   27.2729 C   0  0  0  0  0  0  0  0  0  0  0  0
    7.7404  -11.6864   26.2557 C   0  0  0  0  0  0  0  0  0  0  0  0
    7.7760  -12.3384   25.0264 C   0  0  0  0  0  0  0  0  0  0  0  0
    8.6342  -15.8817   24.3251 C   0  0  0  0  0  0  0  0  0  0  0  0
    7.8967  -16.9083   24.5240 O   0  0  0  0  0  0  0  0  0  0  0  0
   11.5283  -17.8282   24.7059 O   0  0  0  0  0  0  0  0  0  0  0  0
   11.5280  -17.1458   25.9268 C   0  0  0  0  0  0  0  0  0  0  0  0
   10.0590  -16.7884   26.2065 C   0  0  2  0  0  0  0  0  0  0  0  0
    9.7366  -15.7564   25.2097 N   0  0  0  0  0  0  0  0  0  0  0  0
    9.8918  -16.3007   27.5730 C   0  0  0  0  0  0  0  0  0  0  0  0
   10.0701  -17.1584   28.6391 O   0  0  0  0  0  0  0  0  0  0  0  0
    9.5875  -15.1121   27.8108 O   0  0  0  0  0  0  0  0  0  0  0  0
  2  1  1  6
  3  2  1  0
  4  5  1  1
  4  2  1  0
  4  6  1  0
  6  7  2  0
  8  6  1  0
  8  9  1  0
  9 17  1  0
 10 11  1  0
  9 10  1  1
 11 12  2  0
 11 16  1  0
 12 13  1  0
 13 14  2  0
 15 14  1  0
 16 15  2  0
 17 18  2  0
 19 20  1  0
 21 20  1  1
 21 23  1  0
 22 17  1  0
 22 21  1  0
 23 25  2  0
 23 24  1  0
M  END
$$$$
