TFS.pdb
     RDKit          3D

 25 25  0  0  1  0  0  0  0  0999 V2000
    8.1078  -18.6813   20.8496 C   0  0  0  0  0  0  0  0  0  0  0  0
    9.3972  -18.2709   20.2178 C   0  0  1  0  0  0  0  0  0  0  0  0
    9.4985  -18.9104   18.9875 O   0  0  0  0  0  0  0  0  0  0  0  0
    9.5679  -16.7882   20.0706 C   0  0  2  0  0  0  0  0  0  0  0  0
   10.6883  -16.4584   19.2435 N   0  0  0  0  0  0  0  0  0  0  0  0
    9.6197  -16.1309   21.3930 C   0  0  0  0  0  0  0  0  0  0  0  0
   10.7394  -16.0435   21.9749 O   0  0  0  0  0  0  0  0  0  0  0  0
    8.4807  -15.5904   22.0492 N   0  0  0  0  0  0  0  0  0  0  0  0
    8.5387  -14.9503   23.3515 C   0  0  1  0  0  0  0  0  0  0  0  0
    7.3493  -14.0387   23.4883 C   0  0  0  0  0  0  0  0  0  0  0  0
    7.2262  -13.4108   24.8063 C   0  0  0  0  0  0  0  0  0  0  0  0
    7.9899  -12.3287   25.1920 C   0  0  0  0  0  0  0  0  0  0  0  0
    7.8601  -11.7486   26.4418 C   0  0  0  0  0  0  0  0  0  0  0  0
    6.9558  -12.2320   27.3588 C   0  0  0  0  0  0  0  0  0  0  0  0
    6.1847  -13.3126   26.9902 C   0  0  0  0  0  0  0  0  0  0  0  0
    6.3233  -13.8885   25.7305 C   0  0  0  0  0  0  0  0  0  0  0  0
    8.6568  -15.9710   24.3929 C   0  0  0  0  0  0  0  0  0  0  0  0
    7.7318  -16.8397   24.5574 O   0  0  0  0  0  0  0  0  0  0  0  0
   12.0811  -17.1365   25.5906 O   0  0  0  0  0  0  0  0  0  0  0  0
   11.0285  -18.0304   25.8123 C   0  0  0  0  0  0  0  0  0  0  0  0
    9.8406  -17.1717   26.2767 C   0  0  2  0  0  0  0  0  0  0  0  0
    9.7568  -16.0928   25.2810 N   0  0  0  0  0  0  0  0  0  0  0  0
   10.0651  -16.6562   27.6247 C   0  0  0  0  0  0  0  0  0  0  0  0
   10.2130  -17.5298   28.6825 O   0  0  0  0  0  0  0  0  0  0  0  0
   10.1285  -15.4293   27.8538 O   0  0  0  0  0  0  0  0  0  0  0  0
  2  1  1  6
  3  2  1  0
  4  5  1  1
  4  2  1  0
  4  6  1  0
  6  7  2  0
  8  6  1  0
  8  9  1  0
  9 17  1  0
 10 11  1  0
  9 10  1  1
 11 12  2  0
 11 16  1  0
 12 13  1  0
 13 14  2  0
 15 14  1  0
 16 15  2  0
 17 18  2  0
 19 20  1  0
 21 20  1  6
 21 23  1  0
 22 17  1  0
 22 21  1  0
 23 25  2  0
 23 24  1  0
M  END
$$$$
