TFS.pdb
     RDKit          3D

 25 25  0  0  1  0  0  0  0  0999 V2000
    8.1383  -19.0160   19.0589 C   0  0  0  0  0  0  0  0  0  0  0  0
    8.4908  -18.1659   20.2350 C   0  0  1  0  0  0  0  0  0  0  0  0
    9.5266  -18.7877   20.9229 O   0  0  0  0  0  0  0  0  0  0  0  0
    8.8464  -16.7506   19.8890 C   0  0  2  0  0  0  0  0  0  0  0  0
    9.9399  -16.6839   18.9681 N   0  0  0  0  0  0  0  0  0  0  0  0
    9.0780  -15.9527   21.1110 C   0  0  0  0  0  0  0  0  0  0  0  0
   10.2704  -15.6705   21.4249 O   0  0  0  0  0  0  0  0  0  0  0  0
    8.0351  -15.4838   21.9550 N   0  0  0  0  0  0  0  0  0  0  0  0
    8.2728  -14.8351   23.2324 C   0  0  1  0  0  0  0  0  0  0  0  0
    7.1146  -13.9201   23.5256 C   0  0  0  0  0  0  0  0  0  0  0  0
    7.1378  -13.3389   24.8702 C   0  0  0  0  0  0  0  0  0  0  0  0
    6.3187  -13.7806   25.8887 C   0  0  0  0  0  0  0  0  0  0  0  0
    6.3542  -13.2190   27.1531 C   0  0  0  0  0  0  0  0  0  0  0  0
    7.2155  -12.1880   27.4484 C   0  0  0  0  0  0  0  0  0  0  0  0
    8.0409  -11.7342   26.4429 C   0  0  0  0  0  0  0  0  0  0  0  0
    7.9971  -12.3062   25.1746 C   0  0  0  0  0  0  0  0  0  0  0  0
    8.5322  -15.8489   24.2547 C   0  0  0  0  0  0  0  0  0  0  0  0
    7.6739  -16.7686   24.4884 O   0  0  0  0  0  0  0  0  0  0  0  0
   11.2265  -17.6962   24.2839 O   0  0  0  0  0  0  0  0  0  0  0  0
   11.2336  -17.6192   25.6804 C   0  0  0  0  0  0  0  0  0  0  0  0
    9.9050  -16.9504   26.0696 C   0  0  2  0  0  0  0  0  0  0  0  0
    9.7059  -15.9098   25.0498 N   0  0  0  0  0  0  0  0  0  0  0  0
    9.9779  -16.3900   27.4164 C   0  0  0  0  0  0  0  0  0  0  0  0
   10.2041  -17.2173   28.4974 O   0  0  0  0  0  0  0  0  0  0  0  0
    9.8397  -15.1654   27.6239 O   0  0  0  0  0  0  0  0  0  0  0  0
  2  1  1  6
  3  2  1  0
  4  5  1  6
  4  2  1  0
  4  6  1  0
  6  7  2  0
  8  6  1  0
  8  9  1  0
  9 17  1  0
 10 11  1  0
  9 10  1  1
 11 12  2  0
 11 16  1  0
 12 13  1  0
 13 14  2  0
 15 14  1  0
 16 15  2  0
 17 18  2  0
 19 20  1  0
 21 20  1  6
 21 23  1  0
 22 17  1  0
 22 21  1  0
 23 25  2  0
 23 24  1  0
M  END
$$$$
