TFS.pdb
     RDKit          3D

 25 25  0  0  1  0  0  0  0  0999 V2000
    7.7386  -15.2918   17.2959 C   0  0  0  0  0  0  0  0  0  0  0  0
    8.0842  -15.1020   18.7363 C   0  0  1  0  0  0  0  0  0  0  0  0
    9.3379  -15.6608   18.9572 O   0  0  0  0  0  0  0  0  0  0  0  0
    8.0403  -13.6760   19.1988 C   0  0  2  0  0  0  0  0  0  0  0  0
    8.8203  -12.8177   18.3603 N   0  0  0  0  0  0  0  0  0  0  0  0
    8.4116  -13.5741   20.6254 C   0  0  0  0  0  0  0  0  0  0  0  0
    9.5517  -13.1096   20.9157 O   0  0  0  0  0  0  0  0  0  0  0  0
    7.5588  -13.9691   21.6915 N   0  0  0  0  0  0  0  0  0  0  0  0
    7.8781  -13.7520   23.0915 C   0  0  1  0  0  0  0  0  0  0  0  0
    6.6180  -13.3555   23.8121 C   0  0  0  0  0  0  0  0  0  0  0  0
    6.8105  -13.0609   25.2344 C   0  0  0  0  0  0  0  0  0  0  0  0
    7.4106  -11.9024   25.6824 C   0  0  0  0  0  0  0  0  0  0  0  0
    7.5844  -11.6413   27.0303 C   0  0  0  0  0  0  0  0  0  0  0  0
    7.1619  -12.5347   27.9871 C   0  0  0  0  0  0  0  0  0  0  0  0
    6.5603  -13.6973   27.5574 C   0  0  0  0  0  0  0  0  0  0  0  0
    6.3905  -13.9500   26.1991 C   0  0  0  0  0  0  0  0  0  0  0  0
    8.5499  -14.9352   23.6288 C   0  0  0  0  0  0  0  0  0  0  0  0
    8.8349  -15.0097   24.8740 O   0  0  0  0  0  0  0  0  0  0  0  0
   10.1922  -17.7806   21.2733 O   0  0  0  0  0  0  0  0  0  0  0  0
    9.5041  -18.3187   22.3656 C   0  0  0  0  0  0  0  0  0  0  0  0
    9.5615  -17.2464   23.4661 C   0  0  2  0  0  0  0  0  0  0  0  0
    8.9330  -16.0638   22.8588 N   0  0  0  0  0  0  0  0  0  0  0  0
   10.9409  -16.9866   23.8698 C   0  0  0  0  0  0  0  0  0  0  0  0
   11.6670  -17.9651   24.5175 O   0  0  0  0  0  0  0  0  0  0  0  0
   11.4931  -15.8886   23.6435 O   0  0  0  0  0  0  0  0  0  0  0  0
  2  1  1  6
  3  2  1  0
  4  5  1  6
  4  2  1  0
  4  6  1  0
  6  7  2  0
  8  6  1  0
  8  9  1  0
  9 17  1  0
 10 11  1  0
  9 10  1  1
 11 12  2  0
 11 16  1  0
 12 13  1  0
 13 14  2  0
 15 14  1  0
 16 15  2  0
 17 18  2  0
 19 20  1  0
 21 20  1  6
 21 23  1  0
 22 17  1  0
 22 21  1  0
 23 25  2  0
 23 24  1  0
M  END
$$$$
