TFS.pdb
     RDKit          3D

 25 25  0  0  1  0  0  0  0  0999 V2000
    8.3077  -16.5263   18.9617 C   0  0  0  0  0  0  0  0  0  0  0  0
    8.6406  -15.2319   18.2954 C   0  0  1  0  0  0  0  0  0  0  0  0
    8.3765  -15.3646   16.9370 O   0  0  0  0  0  0  0  0  0  0  0  0
    7.9305  -14.0420   18.8692 C   0  0  2  0  0  0  0  0  0  0  0  0
    8.1199  -12.8698   18.0703 N   0  0  0  0  0  0  0  0  0  0  0  0
    8.3056  -13.8372   20.2837 C   0  0  0  0  0  0  0  0  0  0  0  0
    9.3917  -13.2394   20.5347 O   0  0  0  0  0  0  0  0  0  0  0  0
    7.5139  -14.2748   21.3799 N   0  0  0  0  0  0  0  0  0  0  0  0
    7.8860  -14.0637   22.7677 C   0  0  1  0  0  0  0  0  0  0  0  0
    6.7120  -13.4597   23.4897 C   0  0  0  0  0  0  0  0  0  0  0  0
    6.9375  -13.2438   24.9212 C   0  0  0  0  0  0  0  0  0  0  0  0
    7.5309  -12.1027   25.4197 C   0  0  0  0  0  0  0  0  0  0  0  0
    7.7362  -11.9162   26.7756 C   0  0  0  0  0  0  0  0  0  0  0  0
    7.3534  -12.8700   27.6897 C   0  0  0  0  0  0  0  0  0  0  0  0
    6.7590  -14.0163   27.2092 C   0  0  0  0  0  0  0  0  0  0  0  0
    6.5572  -14.1938   25.8434 C   0  0  0  0  0  0  0  0  0  0  0  0
    8.3821  -15.3168   23.3368 C   0  0  0  0  0  0  0  0  0  0  0  0
    7.7038  -16.3955   23.2200 O   0  0  0  0  0  0  0  0  0  0  0  0
   11.5118  -16.5709   22.8162 O   0  0  0  0  0  0  0  0  0  0  0  0
   11.4939  -16.8932   24.1771 C   0  0  0  0  0  0  0  0  0  0  0  0
   10.0321  -16.7334   24.6261 C   0  0  2  0  0  0  0  0  0  0  0  0
    9.6066  -15.4533   24.0407 N   0  0  0  0  0  0  0  0  0  0  0  0
    9.9314  -16.7292   26.0832 C   0  0  0  0  0  0  0  0  0  0  0  0
   10.3072  -17.8438   26.8047 O   0  0  0  0  0  0  0  0  0  0  0  0
    9.5090  -15.7321   26.7070 O   0  0  0  0  0  0  0  0  0  0  0  0
  2  1  1  1
  3  2  1  0
  4  5  1  6
  4  2  1  0
  4  6  1  0
  6  7  2  0
  8  6  1  0
  8  9  1  0
  9 17  1  0
 10 11  1  0
  9 10  1  1
 11 12  2  0
 11 16  1  0
 12 13  1  0
 13 14  2  0
 15 14  1  0
 16 15  2  0
 17 18  2  0
 19 20  1  0
 21 20  1  1
 21 23  1  0
 22 17  1  0
 22 21  1  0
 23 25  2  0
 23 24  1  0
M  END
$$$$
