TFS.pdb
     RDKit          3D

 25 25  0  0  1  0  0  0  0  0999 V2000
    7.3779  -16.2761   19.3977 C   0  0  0  0  0  0  0  0  0  0  0  0
    8.0754  -14.9998   19.0587 C   0  0  1  0  0  0  0  0  0  0  0  0
    7.7735  -14.6793   17.7400 O   0  0  0  0  0  0  0  0  0  0  0  0
    7.7555  -13.8588   19.9779 C   0  0  2  0  0  0  0  0  0  0  0  0
    8.1895  -12.6040   19.4437 N   0  0  0  0  0  0  0  0  0  0  0  0
    8.2792  -14.1145   21.3358 C   0  0  0  0  0  0  0  0  0  0  0  0
    9.5050  -13.8939   21.5562 O   0  0  0  0  0  0  0  0  0  0  0  0
    7.4821  -14.5952   22.4099 N   0  0  0  0  0  0  0  0  0  0  0  0
    7.9938  -14.8019   23.7532 C   0  0  1  0  0  0  0  0  0  0  0  0
    6.8409  -14.7365   24.7180 C   0  0  0  0  0  0  0  0  0  0  0  0
    6.7560  -13.4779   25.4632 C   0  0  0  0  0  0  0  0  0  0  0  0
    7.7321  -12.5051   25.3992 C   0  0  0  0  0  0  0  0  0  0  0  0
    7.6351  -11.3220   26.1107 C   0  0  0  0  0  0  0  0  0  0  0  0
    6.5514  -11.0657   26.9182 C   0  0  0  0  0  0  0  0  0  0  0  0
    5.5669  -12.0266   26.9940 C   0  0  0  0  0  0  0  0  0  0  0  0
    5.6745  -13.2130   26.2741 C   0  0  0  0  0  0  0  0  0  0  0  0
    8.7649  -16.0444   23.7966 C   0  0  0  0  0  0  0  0  0  0  0  0
    8.2053  -17.1645   23.5330 O   0  0  0  0  0  0  0  0  0  0  0  0
   12.0950  -16.3278   22.5946 O   0  0  0  0  0  0  0  0  0  0  0  0
   12.2587  -17.1384   23.7226 C   0  0  0  0  0  0  0  0  0  0  0  0
   10.8408  -17.4146   24.2491 C   0  0  2  0  0  0  0  0  0  0  0  0
   10.1442  -16.1260   24.1196 N   0  0  0  0  0  0  0  0  0  0  0  0
   10.8796  -17.8791   25.6333 C   0  0  0  0  0  0  0  0  0  0  0  0
   11.4510  -19.0978   25.9371 O   0  0  0  0  0  0  0  0  0  0  0  0
   10.4041  -17.1966   26.5660 O   0  0  0  0  0  0  0  0  0  0  0  0
  2  1  1  1
  3  2  1  0
  4  5  1  6
  4  2  1  0
  4  6  1  0
  6  7  2  0
  8  6  1  0
  8  9  1  0
  9 17  1  0
 10 11  1  0
  9 10  1  1
 11 12  2  0
 11 16  1  0
 12 13  1  0
 13 14  2  0
 15 14  1  0
 16 15  2  0
 17 18  2  0
 19 20  1  0
 21 20  1  1
 21 23  1  0
 22 17  1  0
 22 21  1  0
 23 25  2  0
 23 24  1  0
M  END
$$$$
