TFS.pdb
     RDKit          3D

 25 25  0  0  1  0  0  0  0  0999 V2000
    8.4598  -18.9874   21.4186 C   0  0  0  0  0  0  0  0  0  0  0  0
    9.4775  -18.4662   20.4579 C   0  0  1  0  0  0  0  0  0  0  0  0
    9.3847  -19.2076   19.2855 O   0  0  0  0  0  0  0  0  0  0  0  0
    9.3659  -16.9972   20.1773 C   0  0  2  0  0  0  0  0  0  0  0  0
   10.2863  -16.5745   19.1662 N   0  0  0  0  0  0  0  0  0  0  0  0
    9.4857  -16.2130   21.4241 C   0  0  0  0  0  0  0  0  0  0  0  0
   10.6416  -16.0135   21.8973 O   0  0  0  0  0  0  0  0  0  0  0  0
    8.3737  -15.6695   22.1226 N   0  0  0  0  0  0  0  0  0  0  0  0
    8.4930  -14.9588   23.3835 C   0  0  1  0  0  0  0  0  0  0  0  0
    7.3076  -14.0434   23.5291 C   0  0  0  0  0  0  0  0  0  0  0  0
    7.2440  -13.3484   24.8173 C   0  0  0  0  0  0  0  0  0  0  0  0
    6.4390  -13.7710   25.8547 C   0  0  0  0  0  0  0  0  0  0  0  0
    6.3916  -13.1012   27.0649 C   0  0  0  0  0  0  0  0  0  0  0  0
    7.1523  -11.9764   27.2845 C   0  0  0  0  0  0  0  0  0  0  0  0
    7.9623  -11.5401   26.2589 C   0  0  0  0  0  0  0  0  0  0  0  0
    8.0024  -12.2213   25.0456 C   0  0  0  0  0  0  0  0  0  0  0  0
    8.6672  -15.9206   24.4720 C   0  0  0  0  0  0  0  0  0  0  0  0
    7.7758  -16.8095   24.7009 O   0  0  0  0  0  0  0  0  0  0  0  0
   12.1973  -16.9317   25.6665 O   0  0  0  0  0  0  0  0  0  0  0  0
   11.1515  -17.8431   25.8448 C   0  0  0  0  0  0  0  0  0  0  0  0
    9.9574  -17.0166   26.3498 C   0  0  2  0  0  0  0  0  0  0  0  0
    9.7890  -15.9609   25.3400 N   0  0  0  0  0  0  0  0  0  0  0  0
   10.2267  -16.4675   27.6761 C   0  0  0  0  0  0  0  0  0  0  0  0
   10.2523  -15.1009   27.8657 O   0  0  0  0  0  0  0  0  0  0  0  0
   10.4379  -17.2081   28.6603 O   0  0  0  0  0  0  0  0  0  0  0  0
  2  1  1  1
  3  2  1  0
  4  5  1  6
  4  2  1  0
  4  6  1  0
  6  7  2  0
  8  6  1  0
  8  9  1  0
  9 17  1  0
 10 11  1  0
  9 10  1  1
 11 12  2  0
 11 16  1  0
 12 13  1  0
 13 14  2  0
 15 14  1  0
 16 15  2  0
 17 18  2  0
 19 20  1  0
 21 20  1  6
 21 23  1  0
 22 17  1  0
 22 21  1  0
 23 25  2  0
 23 24  1  0
M  END
$$$$
