TFS.pdb
     RDKit          3D

 25 25  0  0  1  0  0  0  0  0999 V2000
    7.6758  -18.8426   19.0868 C   0  0  0  0  0  0  0  0  0  0  0  0
    8.1668  -18.1025   20.2873 C   0  0  1  0  0  0  0  0  0  0  0  0
    9.3248  -18.7271   20.7364 O   0  0  0  0  0  0  0  0  0  0  0  0
    8.3979  -16.6385   20.0580 C   0  0  2  0  0  0  0  0  0  0  0  0
    9.3544  -16.4045   19.0194 N   0  0  0  0  0  0  0  0  0  0  0  0
    8.7470  -15.9568   21.3217 C   0  0  0  0  0  0  0  0  0  0  0  0
    9.9707  -15.7813   21.5892 O   0  0  0  0  0  0  0  0  0  0  0  0
    7.7839  -15.4866   22.2551 N   0  0  0  0  0  0  0  0  0  0  0  0
    8.1344  -14.9019   23.5375 C   0  0  1  0  0  0  0  0  0  0  0  0
    6.9307  -14.1771   24.0761 C   0  0  0  0  0  0  0  0  0  0  0  0
    7.1431  -13.5581   25.3870 C   0  0  0  0  0  0  0  0  0  0  0  0
    7.0302  -14.2581   26.5703 C   0  0  0  0  0  0  0  0  0  0  0  0
    7.2340  -13.6563   27.7998 C   0  0  0  0  0  0  0  0  0  0  0  0
    7.5606  -12.3234   27.8927 C   0  0  0  0  0  0  0  0  0  0  0  0
    7.6775  -11.6088   26.7206 C   0  0  0  0  0  0  0  0  0  0  0  0
    7.4703  -12.2239   25.4892 C   0  0  0  0  0  0  0  0  0  0  0  0
    8.6744  -15.9393   24.4164 C   0  0  0  0  0  0  0  0  0  0  0  0
    8.0528  -17.0470   24.5703 O   0  0  0  0  0  0  0  0  0  0  0  0
   12.4622  -16.2357   25.0454 O   0  0  0  0  0  0  0  0  0  0  0  0
   11.6783  -17.3843   25.1951 C   0  0  0  0  0  0  0  0  0  0  0  0
   10.4179  -16.9351   25.9526 C   0  0  2  0  0  0  0  0  0  0  0  0
    9.8838  -15.8249   25.1497 N   0  0  0  0  0  0  0  0  0  0  0  0
   10.7478  -16.5177   27.3128 C   0  0  0  0  0  0  0  0  0  0  0  0
   11.3066  -17.4191   28.1956 O   0  0  0  0  0  0  0  0  0  0  0  0
   10.5366  -15.3512   27.7086 O   0  0  0  0  0  0  0  0  0  0  0  0
  2  1  1  6
  3  2  1  0
  4  5  1  6
  4  2  1  0
  4  6  1  0
  6  7  2  0
  8  6  1  0
  8  9  1  0
  9 17  1  0
 10 11  1  0
  9 10  1  1
 11 12  2  0
 11 16  1  0
 12 13  1  0
 13 14  2  0
 15 14  1  0
 16 15  2  0
 17 18  2  0
 19 20  1  0
 21 20  1  6
 21 23  1  0
 22 17  1  0
 22 21  1  0
 23 25  2  0
 23 24  1  0
M  END
$$$$
