TFS.pdb
     RDKit          3D

 25 25  0  0  1  0  0  0  0  0999 V2000
    8.6071  -18.7176   18.8413 C   0  0  0  0  0  0  0  0  0  0  0  0
    8.8037  -18.0265   20.1505 C   0  0  1  0  0  0  0  0  0  0  0  0
    9.5754  -18.8500   20.9623 O   0  0  0  0  0  0  0  0  0  0  0  0
    9.4075  -16.6579   20.0413 C   0  0  2  0  0  0  0  0  0  0  0  0
   10.6754  -16.6843   19.3781 N   0  0  0  0  0  0  0  0  0  0  0  0
    9.4671  -16.0023   21.3642 C   0  0  0  0  0  0  0  0  0  0  0  0
   10.5647  -16.0204   21.9926 O   0  0  0  0  0  0  0  0  0  0  0  0
    8.3591  -15.3515   21.9714 N   0  0  0  0  0  0  0  0  0  0  0  0
    8.4117  -14.7520   23.2931 C   0  0  1  0  0  0  0  0  0  0  0  0
    7.2363  -13.8246   23.4434 C   0  0  0  0  0  0  0  0  0  0  0  0
    7.0817  -13.2692   24.7903 C   0  0  0  0  0  0  0  0  0  0  0  0
    6.1435  -13.7363   25.6874 C   0  0  0  0  0  0  0  0  0  0  0  0
    6.0116  -13.1989   26.9559 C   0  0  0  0  0  0  0  0  0  0  0  0
    6.8181  -12.1676   27.3777 C   0  0  0  0  0  0  0  0  0  0  0  0
    7.7609  -11.6886   26.4945 C   0  0  0  0  0  0  0  0  0  0  0  0
    7.8851  -12.2364   25.2209 C   0  0  0  0  0  0  0  0  0  0  0  0
    8.4997  -15.8054   24.3045 C   0  0  0  0  0  0  0  0  0  0  0  0
    7.5893  -16.7004   24.3895 O   0  0  0  0  0  0  0  0  0  0  0  0
   11.7977  -17.2220   25.1967 O   0  0  0  0  0  0  0  0  0  0  0  0
   10.6780  -18.0167   25.4630 C   0  0  0  0  0  0  0  0  0  0  0  0
    9.6599  -17.0898   26.1473 C   0  0  2  0  0  0  0  0  0  0  0  0
    9.5538  -15.9328   25.2459 N   0  0  0  0  0  0  0  0  0  0  0  0
   10.1178  -16.7052   27.4798 C   0  0  0  0  0  0  0  0  0  0  0  0
   10.3400  -15.3762   27.7770 O   0  0  0  0  0  0  0  0  0  0  0  0
   10.3180  -17.5556   28.3736 O   0  0  0  0  0  0  0  0  0  0  0  0
  2  1  1  6
  3  2  1  0
  4  5  1  1
  4  2  1  0
  4  6  1  0
  6  7  2  0
  8  6  1  0
  8  9  1  0
  9 17  1  0
 10 11  1  0
  9 10  1  1
 11 12  2  0
 11 16  1  0
 12 13  1  0
 13 14  2  0
 15 14  1  0
 16 15  2  0
 17 18  2  0
 19 20  1  0
 21 20  1  6
 21 23  1  0
 22 17  1  0
 22 21  1  0
 23 25  2  0
 23 24  1  0
M  END
$$$$
