TFS.pdb
     RDKit          3D

 25 25  0  0  1  0  0  0  0  0999 V2000
    7.0328  -17.6009   18.9165 C   0  0  0  0  0  0  0  0  0  0  0  0
    7.6874  -17.2234   20.2046 C   0  0  1  0  0  0  0  0  0  0  0  0
    8.9624  -17.7774   20.2202 O   0  0  0  0  0  0  0  0  0  0  0  0
    7.7379  -15.7467   20.4615 C   0  0  2  0  0  0  0  0  0  0  0  0
    8.4392  -15.0478   19.4281 N   0  0  0  0  0  0  0  0  0  0  0  0
    8.2755  -15.4653   21.8090 C   0  0  0  0  0  0  0  0  0  0  0  0
    9.4631  -15.0404   21.9032 O   0  0  0  0  0  0  0  0  0  0  0  0
    7.5323  -15.6456   23.0069 N   0  0  0  0  0  0  0  0  0  0  0  0
    8.0922  -15.4435   24.3316 C   0  0  1  0  0  0  0  0  0  0  0  0
    6.9634  -15.1826   25.2918 C   0  0  0  0  0  0  0  0  0  0  0  0
    6.8823  -13.7952   25.7558 C   0  0  0  0  0  0  0  0  0  0  0  0
    5.6893  -13.1098   25.8553 C   0  0  0  0  0  0  0  0  0  0  0  0
    5.6320  -11.7990   26.2955 C   0  0  0  0  0  0  0  0  0  0  0  0
    6.7729  -11.1199   26.6551 C   0  0  0  0  0  0  0  0  0  0  0  0
    7.9735  -11.7894   26.5619 C   0  0  0  0  0  0  0  0  0  0  0  0
    8.0198  -13.1078   26.1178 C   0  0  0  0  0  0  0  0  0  0  0  0
    8.9477  -16.5782   24.6789 C   0  0  0  0  0  0  0  0  0  0  0  0
    8.5140  -17.7765   24.5641 O   0  0  0  0  0  0  0  0  0  0  0  0
   13.3224  -18.3673   25.1152 O   0  0  0  0  0  0  0  0  0  0  0  0
   12.5322  -17.2174   25.0170 C   0  0  0  0  0  0  0  0  0  0  0  0
   11.1136  -17.6482   25.4245 C   0  0  2  0  0  0  0  0  0  0  0  0
   10.2801  -16.4672   25.1543 N   0  0  0  0  0  0  0  0  0  0  0  0
   11.0707  -18.0381   26.8314 C   0  0  0  0  0  0  0  0  0  0  0  0
   11.6118  -19.2430   27.2309 O   0  0  0  0  0  0  0  0  0  0  0  0
   10.5512  -17.3032   27.6985 O   0  0  0  0  0  0  0  0  0  0  0  0
  2  1  1  6
  3  2  1  0
  4  5  1  6
  4  2  1  0
  4  6  1  0
  6  7  2  0
  8  6  1  0
  8  9  1  0
  9 17  1  0
 10 11  1  0
  9 10  1  1
 11 12  2  0
 11 16  1  0
 12 13  1  0
 13 14  2  0
 15 14  1  0
 16 15  2  0
 17 18  2  0
 19 20  1  0
 21 20  1  1
 21 23  1  0
 22 17  1  0
 22 21  1  0
 23 25  2  0
 23 24  1  0
M  END
$$$$
