TFS.pdb
     RDKit          3D

 25 25  0  0  1  0  0  0  0  0999 V2000
    8.6438  -19.0050   18.9395 C   0  0  0  0  0  0  0  0  0  0  0  0
    8.9007  -18.2863   20.2231 C   0  0  1  0  0  0  0  0  0  0  0  0
    9.8269  -19.0227   20.9529 O   0  0  0  0  0  0  0  0  0  0  0  0
    9.3527  -16.8661   20.0554 C   0  0  2  0  0  0  0  0  0  0  0  0
   10.5487  -16.7742   19.2749 N   0  0  0  0  0  0  0  0  0  0  0  0
    9.4714  -16.1937   21.3658 C   0  0  0  0  0  0  0  0  0  0  0  0
   10.6067  -16.1636   21.9228 O   0  0  0  0  0  0  0  0  0  0  0  0
    8.3803  -15.5780   22.0370 N   0  0  0  0  0  0  0  0  0  0  0  0
    8.5047  -14.9198   23.3255 C   0  0  1  0  0  0  0  0  0  0  0  0
    7.3148  -14.0190   23.5178 C   0  0  0  0  0  0  0  0  0  0  0  0
    7.2635  -13.3685   24.8296 C   0  0  0  0  0  0  0  0  0  0  0  0
    6.3668  -13.7370   25.8110 C   0  0  0  0  0  0  0  0  0  0  0  0
    6.3326  -13.1107   27.0447 C   0  0  0  0  0  0  0  0  0  0  0  0
    7.1995  -12.0858   27.3452 C   0  0  0  0  0  0  0  0  0  0  0  0
    8.1020  -11.7047   26.3764 C   0  0  0  0  0  0  0  0  0  0  0  0
    8.1278  -12.3414   25.1389 C   0  0  0  0  0  0  0  0  0  0  0  0
    8.6930  -15.9250   24.3716 C   0  0  0  0  0  0  0  0  0  0  0  0
    7.8078  -16.8271   24.5710 O   0  0  0  0  0  0  0  0  0  0  0  0
   12.1991  -16.9019   25.5596 O   0  0  0  0  0  0  0  0  0  0  0  0
   11.1979  -17.8470   25.8058 C   0  0  0  0  0  0  0  0  0  0  0  0
    9.9639  -17.0441   26.2489 C   0  0  2  0  0  0  0  0  0  0  0  0
    9.8225  -15.9956   25.2276 N   0  0  0  0  0  0  0  0  0  0  0  0
   10.1573  -16.4848   27.5842 C   0  0  0  0  0  0  0  0  0  0  0  0
   10.3751  -17.3225   28.6590 O   0  0  0  0  0  0  0  0  0  0  0  0
   10.1314  -15.2520   27.7873 O   0  0  0  0  0  0  0  0  0  0  0  0
  2  1  1  6
  3  2  1  0
  4  5  1  1
  4  2  1  0
  4  6  1  0
  6  7  2  0
  8  6  1  0
  8  9  1  0
  9 17  1  0
 10 11  1  0
  9 10  1  1
 11 12  2  0
 11 16  1  0
 12 13  1  0
 13 14  2  0
 15 14  1  0
 16 15  2  0
 17 18  2  0
 19 20  1  0
 21 20  1  6
 21 23  1  0
 22 17  1  0
 22 21  1  0
 23 25  2  0
 23 24  1  0
M  END
$$$$
