TFS.pdb
     RDKit          3D

 25 25  0  0  1  0  0  0  0  0999 V2000
    8.7523  -18.9022   19.0084 C   0  0  0  0  0  0  0  0  0  0  0  0
    8.9856  -18.1682   20.2879 C   0  0  1  0  0  0  0  0  0  0  0  0
    9.9119  -18.8865   21.0355 O   0  0  0  0  0  0  0  0  0  0  0  0
    9.4224  -16.7443   20.1118 C   0  0  2  0  0  0  0  0  0  0  0  0
   10.6193  -16.6446   19.3335 N   0  0  0  0  0  0  0  0  0  0  0  0
    9.5307  -16.0620   21.4180 C   0  0  0  0  0  0  0  0  0  0  0  0
   10.6795  -15.9272   21.9298 O   0  0  0  0  0  0  0  0  0  0  0  0
    8.4152  -15.5478   22.1330 N   0  0  0  0  0  0  0  0  0  0  0  0
    8.5291  -14.8818   23.4185 C   0  0  1  0  0  0  0  0  0  0  0  0
    7.3340  -13.9855   23.5989 C   0  0  0  0  0  0  0  0  0  0  0  0
    7.2283  -13.3921   24.9343 C   0  0  0  0  0  0  0  0  0  0  0  0
    8.0458  -12.3667   25.3625 C   0  0  0  0  0  0  0  0  0  0  0  0
    7.9316  -11.8186   26.6281 C   0  0  0  0  0  0  0  0  0  0  0  0
    6.9896  -12.2782   27.5189 C   0  0  0  0  0  0  0  0  0  0  0  0
    6.1645  -13.3022   27.1078 C   0  0  0  0  0  0  0  0  0  0  0  0
    6.2879  -13.8463   25.8326 C   0  0  0  0  0  0  0  0  0  0  0  0
    8.7160  -15.8803   24.4713 C   0  0  0  0  0  0  0  0  0  0  0  0
    7.8392  -16.7922   24.6633 O   0  0  0  0  0  0  0  0  0  0  0  0
   12.1398  -16.9423   25.4616 O   0  0  0  0  0  0  0  0  0  0  0  0
   11.1509  -17.8421   25.8723 C   0  0  0  0  0  0  0  0  0  0  0  0
    9.9784  -16.9788   26.3664 C   0  0  2  0  0  0  0  0  0  0  0  0
    9.8354  -15.9337   25.3418 N   0  0  0  0  0  0  0  0  0  0  0  0
   10.2629  -16.4176   27.6845 C   0  0  0  0  0  0  0  0  0  0  0  0
   10.5226  -17.2549   28.7502 O   0  0  0  0  0  0  0  0  0  0  0  0
   10.2788  -15.1835   27.8807 O   0  0  0  0  0  0  0  0  0  0  0  0
  2  1  1  6
  3  2  1  0
  4  5  1  1
  4  2  1  0
  4  6  1  0
  6  7  2  0
  8  6  1  0
  8  9  1  0
  9 17  1  0
 10 11  1  0
  9 10  1  1
 11 12  2  0
 11 16  1  0
 12 13  1  0
 13 14  2  0
 15 14  1  0
 16 15  2  0
 17 18  2  0
 19 20  1  0
 21 20  1  6
 21 23  1  0
 22 17  1  0
 22 21  1  0
 23 25  2  0
 23 24  1  0
M  END
$$$$
