TFS.pdb
     RDKit          3D

 25 25  0  0  1  0  0  0  0  0999 V2000
    8.7606  -19.0045   21.5879 C   0  0  0  0  0  0  0  0  0  0  0  0
    9.9047  -18.4806   20.7837 C   0  0  1  0  0  0  0  0  0  0  0  0
   10.0260  -19.2653   19.6425 O   0  0  0  0  0  0  0  0  0  0  0  0
    9.7960  -17.0273   20.4299 C   0  0  2  0  0  0  0  0  0  0  0  0
   10.7874  -16.6337   19.4757 N   0  0  0  0  0  0  0  0  0  0  0  0
    9.8069  -16.1877   21.6459 C   0  0  0  0  0  0  0  0  0  0  0  0
   10.9213  -15.9309   22.1863 O   0  0  0  0  0  0  0  0  0  0  0  0
    8.6341  -15.6516   22.2435 N   0  0  0  0  0  0  0  0  0  0  0  0
    8.6375  -14.9386   23.5086 C   0  0  1  0  0  0  0  0  0  0  0  0
    7.4170  -14.0602   23.5643 C   0  0  0  0  0  0  0  0  0  0  0  0
    7.2514  -13.3470   24.8334 C   0  0  0  0  0  0  0  0  0  0  0  0
    7.9983  -12.2367   25.1688 C   0  0  0  0  0  0  0  0  0  0  0  0
    7.8282  -11.5759   26.3728 C   0  0  0  0  0  0  0  0  0  0  0  0
    6.8990  -12.0033   27.2926 C   0  0  0  0  0  0  0  0  0  0  0  0
    6.1442  -13.1109   26.9740 C   0  0  0  0  0  0  0  0  0  0  0  0
    6.3233  -13.7682   25.7601 C   0  0  0  0  0  0  0  0  0  0  0  0
    8.7597  -15.8953   24.6086 C   0  0  0  0  0  0  0  0  0  0  0  0
    7.9010  -16.8332   24.7508 O   0  0  0  0  0  0  0  0  0  0  0  0
   12.0967  -16.8600   25.8061 O   0  0  0  0  0  0  0  0  0  0  0  0
   11.1040  -17.7652   26.1953 C   0  0  0  0  0  0  0  0  0  0  0  0
    9.9012  -16.9088   26.6240 C   0  0  2  0  0  0  0  0  0  0  0  0
    9.7940  -15.8787   25.5800 N   0  0  0  0  0  0  0  0  0  0  0  0
   10.1193  -16.3276   27.9460 C   0  0  0  0  0  0  0  0  0  0  0  0
   10.3513  -17.1477   29.0313 O   0  0  0  0  0  0  0  0  0  0  0  0
   10.1023  -15.0913   28.1282 O   0  0  0  0  0  0  0  0  0  0  0  0
  2  1  1  6
  3  2  1  0
  4  5  1  6
  4  2  1  0
  4  6  1  0
  6  7  2  0
  8  6  1  0
  8  9  1  0
  9 17  1  0
 10 11  1  0
  9 10  1  1
 11 12  2  0
 11 16  1  0
 12 13  1  0
 13 14  2  0
 15 14  1  0
 16 15  2  0
 17 18  2  0
 19 20  1  0
 21 20  1  6
 21 23  1  0
 22 17  1  0
 22 21  1  0
 23 25  2  0
 23 24  1  0
M  END
$$$$
