EYS.pdb
     RDKit          3D

 28 28  0  0  1  0  0  0  0  0999 V2000
    9.9875  -17.0494   19.0477 N   0  0  0  0  0  0  0  0  0  0  0  0
    8.6974  -16.8683   19.7304 C   0  0  1  0  0  0  0  0  0  0  0  0
    8.1296  -18.2535   19.9063 C   0  0  0  0  0  0  0  0  0  0  0  0
    8.2881  -19.1320   18.6886 C   0  0  0  0  0  0  0  0  0  0  0  0
    7.0161  -19.7280   18.2300 C   0  0  0  0  0  0  0  0  0  0  0  0
    6.4358  -19.2691   17.2019 O   0  0  0  0  0  0  0  0  0  0  0  0
    8.9356  -16.1787   21.0285 C   0  0  0  0  0  0  0  0  0  0  0  0
   10.0511  -16.3821   21.5889 O   0  0  0  0  0  0  0  0  0  0  0  0
    6.4050  -20.7898   18.8825 O   0  0  0  0  0  0  0  0  0  0  0  0
    7.3714  -11.8584   28.6516 O   0  0  0  0  0  0  0  0  0  0  0  0
    7.3391  -12.2917   27.3315 C   0  0  0  0  0  0  0  0  0  0  0  0
    8.1658  -11.8007   26.3495 C   0  0  0  0  0  0  0  0  0  0  0  0
    8.1201  -12.2412   25.0450 C   0  0  0  0  0  0  0  0  0  0  0  0
    7.2110  -13.2286   24.6534 C   0  0  0  0  0  0  0  0  0  0  0  0
    7.1346  -13.7742   23.2942 C   0  0  0  0  0  0  0  0  0  0  0  0
    8.1595  -14.7616   22.8936 C   0  0  2  0  0  0  0  0  0  0  0  0
    7.9388  -15.3352   21.5887 N   0  0  0  0  0  0  0  0  0  0  0  0
    8.4628  -15.8167   23.8677 C   0  0  0  0  0  0  0  0  0  0  0  0
    7.6443  -16.8003   23.9479 O   0  0  0  0  0  0  0  0  0  0  0  0
    6.3889  -13.7109   25.6526 C   0  0  0  0  0  0  0  0  0  0  0  0
    6.4340  -13.2705   26.9590 C   0  0  0  0  0  0  0  0  0  0  0  0
   11.3494  -18.7336   26.0604 O   0  0  0  0  0  0  0  0  0  0  0  0
   11.0451  -17.6921   25.1706 C   0  0  0  0  0  0  0  0  0  0  0  0
    9.7846  -16.9829   25.5878 C   0  0  2  0  0  0  0  0  0  0  0  0
    9.5924  -15.8437   24.7298 N   0  0  0  0  0  0  0  0  0  0  0  0
    9.9486  -16.5177   26.9934 C   0  0  0  0  0  0  0  0  0  0  0  0
   10.1276  -17.3595   27.9068 O   0  0  0  0  0  0  0  0  0  0  0  0
    9.9144  -15.1700   27.3641 O   0  0  0  0  0  0  0  0  0  0  0  0
  2  1  1  1
  2  3  1  0
  3  4  1  0
  5  6  2  0
  5  4  1  0
  7  8  2  0
  7  2  1  0
  9  5  1  0
 10 11  1  0
 11 12  2  0
 12 13  1  0
 14 13  2  0
 14 15  1  0
 16 15  1  1
 16 17  1  0
 17  7  1  0
 18 19  2  0
 18 16  1  0
 20 14  1  0
 21 11  1  0
 21 20  2  0
 23 22  1  0
 24 25  1  0
 24 23  1  6
 25 18  1  0
 26 24  1  0
 27 26  2  0
 28 26  1  0
M  END
$$$$
