EYS.pdb
     RDKit          3D

 28 28  0  0  1  0  0  0  0  0999 V2000
    7.8514  -14.1306   19.3117 N   0  0  0  0  0  0  0  0  0  0  0  0
    7.3523  -15.0441   20.3508 C   0  0  1  0  0  0  0  0  0  0  0  0
    7.4928  -16.4313   19.7779 C   0  0  0  0  0  0  0  0  0  0  0  0
    6.6156  -16.6813   18.5748 C   0  0  0  0  0  0  0  0  0  0  0  0
    6.7355  -18.0539   18.0408 C   0  0  0  0  0  0  0  0  0  0  0  0
    7.4702  -18.9009   18.6299 O   0  0  0  0  0  0  0  0  0  0  0  0
    8.1608  -14.8510   21.5863 C   0  0  0  0  0  0  0  0  0  0  0  0
    9.4041  -14.6740   21.4353 O   0  0  0  0  0  0  0  0  0  0  0  0
    6.0712  -18.4765   16.8976 O   0  0  0  0  0  0  0  0  0  0  0  0
   10.5099  -14.0736   30.1798 O   0  0  0  0  0  0  0  0  0  0  0  0
    9.8229  -14.1714   28.9757 C   0  0  0  0  0  0  0  0  0  0  0  0
    9.2772  -15.3414   28.5044 C   0  0  0  0  0  0  0  0  0  0  0  0
    8.5994  -15.4209   27.3076 C   0  0  0  0  0  0  0  0  0  0  0  0
    8.4330  -14.2907   26.5018 C   0  0  0  0  0  0  0  0  0  0  0  0
    7.6887  -14.2923   25.2380 C   0  0  0  0  0  0  0  0  0  0  0  0
    8.3647  -14.8460   24.0454 C   0  0  2  0  0  0  0  0  0  0  0  0
    7.5383  -14.8677   22.8634 N   0  0  0  0  0  0  0  0  0  0  0  0
    9.0364  -16.1393   24.2196 C   0  0  0  0  0  0  0  0  0  0  0  0
    8.3143  -17.1958   24.1403 O   0  0  0  0  0  0  0  0  0  0  0  0
    8.9869  -13.1241   26.9908 C   0  0  0  0  0  0  0  0  0  0  0  0
    9.6655  -13.0434   28.1889 C   0  0  0  0  0  0  0  0  0  0  0  0
   12.5978  -16.5877   23.1919 O   0  0  0  0  0  0  0  0  0  0  0  0
   12.0235  -17.8262   23.5164 C   0  0  0  0  0  0  0  0  0  0  0  0
   10.9444  -17.6607   24.5527 C   0  0  2  0  0  0  0  0  0  0  0  0
   10.4243  -16.3217   24.4652 N   0  0  0  0  0  0  0  0  0  0  0  0
   11.5479  -17.8668   25.8988 C   0  0  0  0  0  0  0  0  0  0  0  0
   11.4750  -16.9532   26.7561 O   0  0  0  0  0  0  0  0  0  0  0  0
   12.2051  -19.0429   26.2728 O   0  0  0  0  0  0  0  0  0  0  0  0
  2  1  1  6
  2  3  1  0
  3  4  1  0
  5  6  2  0
  5  4  1  0
  7  8  2  0
  7  2  1  0
  9  5  1  0
 10 11  1  0
 11 12  2  0
 12 13  1  0
 14 13  2  0
 14 15  1  0
 16 15  1  1
 16 17  1  0
 17  7  1  0
 18 19  2  0
 18 16  1  0
 20 14  1  0
 21 11  1  0
 21 20  2  0
 23 22  1  0
 24 25  1  0
 24 23  1  6
 25 18  1  0
 26 24  1  0
 27 26  2  0
 28 26  1  0
M  END
$$$$
