EYS.pdb
     RDKit          3D

 28 28  0  0  1  0  0  0  0  0999 V2000
    7.6145  -12.7434   19.8914 N   0  0  0  0  0  0  0  0  0  0  0  0
    7.4342  -14.0897   20.4554 C   0  0  1  0  0  0  0  0  0  0  0  0
    7.8088  -15.0482   19.3540 C   0  0  0  0  0  0  0  0  0  0  0  0
    7.7775  -16.4976   19.7759 C   0  0  0  0  0  0  0  0  0  0  0  0
    8.1100  -17.4313   18.6799 C   0  0  0  0  0  0  0  0  0  0  0  0
    7.3130  -17.5745   17.7060 O   0  0  0  0  0  0  0  0  0  0  0  0
    8.3066  -14.2271   21.6543 C   0  0  0  0  0  0  0  0  0  0  0  0
    9.4638  -13.7218   21.5816 O   0  0  0  0  0  0  0  0  0  0  0  0
    9.2777  -18.1814   18.6597 O   0  0  0  0  0  0  0  0  0  0  0  0
   10.7938  -14.8591   30.1249 O   0  0  0  0  0  0  0  0  0  0  0  0
   10.0951  -14.7209   28.9315 C   0  0  0  0  0  0  0  0  0  0  0  0
   10.0019  -13.5383   28.2374 C   0  0  0  0  0  0  0  0  0  0  0  0
    9.3043  -13.4186   27.0555 C   0  0  0  0  0  0  0  0  0  0  0  0
    8.6456  -14.5184   26.4975 C   0  0  0  0  0  0  0  0  0  0  0  0
    7.9200  -14.4744   25.2237 C   0  0  0  0  0  0  0  0  0  0  0  0
    8.6472  -14.8920   24.0061 C   0  0  2  0  0  0  0  0  0  0  0  0
    7.8347  -14.8984   22.8143 N   0  0  0  0  0  0  0  0  0  0  0  0
    9.4172  -16.1378   24.1028 C   0  0  0  0  0  0  0  0  0  0  0  0
    8.7820  -17.2395   23.9396 O   0  0  0  0  0  0  0  0  0  0  0  0
    8.7502  -15.6981   27.2075 C   0  0  0  0  0  0  0  0  0  0  0  0
    9.4485  -15.8190   28.3908 C   0  0  0  0  0  0  0  0  0  0  0  0
   12.4145  -17.1781   22.3340 O   0  0  0  0  0  0  0  0  0  0  0  0
   12.6749  -17.5559   23.6601 C   0  0  0  0  0  0  0  0  0  0  0  0
   11.4138  -17.5291   24.4816 C   0  0  2  0  0  0  0  0  0  0  0  0
   10.8124  -16.2276   24.3585 N   0  0  0  0  0  0  0  0  0  0  0  0
   11.7742  -17.7715   25.9065 C   0  0  0  0  0  0  0  0  0  0  0  0
   11.4501  -16.9293   26.7786 O   0  0  0  0  0  0  0  0  0  0  0  0
   12.4670  -18.9059   26.3400 O   0  0  0  0  0  0  0  0  0  0  0  0
  2  1  1  6
  2  3  1  0
  3  4  1  0
  5  6  2  0
  5  4  1  0
  7  8  2  0
  7  2  1  0
  9  5  1  0
 10 11  1  0
 11 12  2  0
 12 13  1  0
 14 13  2  0
 14 15  1  0
 16 15  1  1
 16 17  1  0
 17  7  1  0
 18 19  2  0
 18 16  1  0
 20 14  1  0
 21 11  1  0
 21 20  2  0
 23 22  1  0
 24 25  1  0
 24 23  1  6
 25 18  1  0
 26 24  1  0
 27 26  2  0
 28 26  1  0
M  END
$$$$
