EYS.pdb
     RDKit          3D

 28 28  0  0  1  0  0  0  0  0999 V2000
    7.9481  -12.9542   19.4572 N   0  0  0  0  0  0  0  0  0  0  0  0
    7.2200  -13.7755   20.4362 C   0  0  1  0  0  0  0  0  0  0  0  0
    6.9233  -15.0779   19.7377 C   0  0  0  0  0  0  0  0  0  0  0  0
    8.1580  -15.8036   19.2598 C   0  0  0  0  0  0  0  0  0  0  0  0
    7.8552  -17.0601   18.5435 C   0  0  0  0  0  0  0  0  0  0  0  0
    8.7728  -17.9083   18.3365 O   0  0  0  0  0  0  0  0  0  0  0  0
    8.0760  -13.9548   21.6414 C   0  0  0  0  0  0  0  0  0  0  0  0
    9.3275  -13.8910   21.4696 O   0  0  0  0  0  0  0  0  0  0  0  0
    6.5873  -17.3691   18.0706 O   0  0  0  0  0  0  0  0  0  0  0  0
   10.6038  -15.1151   30.1485 O   0  0  0  0  0  0  0  0  0  0  0  0
    9.8903  -14.9142   28.9729 C   0  0  0  0  0  0  0  0  0  0  0  0
    9.1537  -15.8952   28.3532 C   0  0  0  0  0  0  0  0  0  0  0  0
    8.4525  -15.6790   27.1873 C   0  0  0  0  0  0  0  0  0  0  0  0
    8.4590  -14.4250   26.5690 C   0  0  0  0  0  0  0  0  0  0  0  0
    7.7037  -14.1120   25.3515 C   0  0  0  0  0  0  0  0  0  0  0  0
    8.3455  -14.4056   24.0524 C   0  0  2  0  0  0  0  0  0  0  0  0
    7.4877  -14.1843   22.9142 N   0  0  0  0  0  0  0  0  0  0  0  0
    9.0172  -15.7056   23.9373 C   0  0  0  0  0  0  0  0  0  0  0  0
    8.2931  -16.7207   23.6388 O   0  0  0  0  0  0  0  0  0  0  0  0
    9.2033  -13.4514   27.2054 C   0  0  0  0  0  0  0  0  0  0  0  0
    9.9057  -13.6669   28.3727 C   0  0  0  0  0  0  0  0  0  0  0  0
   12.6971  -18.5479   23.0485 O   0  0  0  0  0  0  0  0  0  0  0  0
   12.1545  -17.2594   23.1682 C   0  0  0  0  0  0  0  0  0  0  0  0
   10.9100  -17.2794   24.0148 C   0  0  2  0  0  0  0  0  0  0  0  0
   10.4071  -15.9356   24.1248 N   0  0  0  0  0  0  0  0  0  0  0  0
   11.2699  -17.7821   25.3701 C   0  0  0  0  0  0  0  0  0  0  0  0
   11.4859  -16.9636   26.2965 O   0  0  0  0  0  0  0  0  0  0  0  0
   11.3838  -19.1411   25.6786 O   0  0  0  0  0  0  0  0  0  0  0  0
  2  1  1  6
  2  3  1  0
  3  4  1  0
  5  6  2  0
  5  4  1  0
  7  8  2  0
  7  2  1  0
  9  5  1  0
 10 11  1  0
 11 12  2  0
 12 13  1  0
 14 13  2  0
 14 15  1  0
 16 15  1  1
 16 17  1  0
 17  7  1  0
 18 19  2  0
 18 16  1  0
 20 14  1  0
 21 11  1  0
 21 20  2  0
 23 22  1  0
 24 25  1  0
 24 23  1  6
 25 18  1  0
 26 24  1  0
 27 26  2  0
 28 26  1  0
M  END
$$$$
