EYS.pdb
     RDKit          3D

 28 28  0  0  1  0  0  0  0  0999 V2000
   10.7759  -16.9225   19.3644 N   0  0  0  0  0  0  0  0  0  0  0  0
    9.5103  -17.0983   20.0929 C   0  0  1  0  0  0  0  0  0  0  0  0
    9.3832  -18.5798   20.3405 C   0  0  0  0  0  0  0  0  0  0  0  0
    9.3184  -19.4017   19.0756 C   0  0  0  0  0  0  0  0  0  0  0  0
    8.3527  -20.5175   19.1541 C   0  0  0  0  0  0  0  0  0  0  0  0
    7.6837  -20.7030   20.2135 O   0  0  0  0  0  0  0  0  0  0  0  0
    9.5714  -16.3107   21.3552 C   0  0  0  0  0  0  0  0  0  0  0  0
   10.7194  -16.0919   21.8388 O   0  0  0  0  0  0  0  0  0  0  0  0
    8.1344  -21.3981   18.1036 O   0  0  0  0  0  0  0  0  0  0  0  0
    7.0512  -11.4840   28.4553 O   0  0  0  0  0  0  0  0  0  0  0  0
    7.1116  -12.1712   27.2488 C   0  0  0  0  0  0  0  0  0  0  0  0
    6.4261  -13.3367   27.0023 C   0  0  0  0  0  0  0  0  0  0  0  0
    6.4978  -14.0057   25.8002 C   0  0  0  0  0  0  0  0  0  0  0  0
    7.2882  -13.5186   24.7548 C   0  0  0  0  0  0  0  0  0  0  0  0
    7.3795  -14.1547   23.4365 C   0  0  0  0  0  0  0  0  0  0  0  0
    8.4681  -15.1317   23.2211 C   0  0  2  0  0  0  0  0  0  0  0  0
    8.3792  -15.8374   21.9662 N   0  0  0  0  0  0  0  0  0  0  0  0
    8.7234  -16.0739   24.3170 C   0  0  0  0  0  0  0  0  0  0  0  0
    7.9157  -17.0611   24.4481 O   0  0  0  0  0  0  0  0  0  0  0  0
    7.9692  -12.3468   25.0196 C   0  0  0  0  0  0  0  0  0  0  0  0
    7.8980  -11.6762   26.2228 C   0  0  0  0  0  0  0  0  0  0  0  0
   12.1644  -17.1258   25.4051 O   0  0  0  0  0  0  0  0  0  0  0  0
   11.0936  -17.8900   25.8934 C   0  0  0  0  0  0  0  0  0  0  0  0
    9.9269  -17.0089   26.2518 C   0  0  2  0  0  0  0  0  0  0  0  0
    9.7956  -15.9881   25.2460 N   0  0  0  0  0  0  0  0  0  0  0  0
   10.2059  -16.3695   27.5679 C   0  0  0  0  0  0  0  0  0  0  0  0
   10.2166  -15.1178   27.6578 O   0  0  0  0  0  0  0  0  0  0  0  0
   10.4619  -17.0961   28.7347 O   0  0  0  0  0  0  0  0  0  0  0  0
  2  1  1  1
  2  3  1  0
  3  4  1  0
  5  6  2  0
  5  4  1  0
  7  8  2  0
  7  2  1  0
  9  5  1  0
 10 11  1  0
 11 12  2  0
 12 13  1  0
 14 13  2  0
 14 15  1  0
 16 15  1  1
 16 17  1  0
 17  7  1  0
 18 19  2  0
 18 16  1  0
 20 14  1  0
 21 11  1  0
 21 20  2  0
 23 22  1  0
 24 25  1  0
 24 23  1  6
 25 18  1  0
 26 24  1  0
 27 26  2  0
 28 26  1  0
M  END
$$$$
