EYS.pdb
     RDKit          3D

 28 28  0  0  1  0  0  0  0  0999 V2000
    8.1310  -12.5928   18.2053 N   0  0  0  0  0  0  0  0  0  0  0  0
    7.6951  -13.8388   18.8539 C   0  0  1  0  0  0  0  0  0  0  0  0
    8.3566  -14.9536   18.0846 C   0  0  0  0  0  0  0  0  0  0  0  0
    7.5512  -15.4336   16.9011 C   0  0  0  0  0  0  0  0  0  0  0  0
    8.1362  -16.6184   16.2396 C   0  0  0  0  0  0  0  0  0  0  0  0
    8.6649  -16.5078   15.0940 O   0  0  0  0  0  0  0  0  0  0  0  0
    8.1111  -13.8051   20.2833 C   0  0  0  0  0  0  0  0  0  0  0  0
    9.2890  -13.4146   20.5280 O   0  0  0  0  0  0  0  0  0  0  0  0
    8.1361  -17.8796   16.8192 O   0  0  0  0  0  0  0  0  0  0  0  0
    7.7188  -13.6591   29.1538 O   0  0  0  0  0  0  0  0  0  0  0  0
    7.4712  -13.5623   27.7897 C   0  0  0  0  0  0  0  0  0  0  0  0
    7.9063  -12.5173   27.0101 C   0  0  0  0  0  0  0  0  0  0  0  0
    7.6514  -12.4366   25.6587 C   0  0  0  0  0  0  0  0  0  0  0  0
    6.9231  -13.4356   25.0058 C   0  0  0  0  0  0  0  0  0  0  0  0
    6.6501  -13.4364   23.5648 C   0  0  0  0  0  0  0  0  0  0  0  0
    7.6253  -14.1125   22.6829 C   0  0  2  0  0  0  0  0  0  0  0  0
    7.2057  -14.1975   21.3055 N   0  0  0  0  0  0  0  0  0  0  0  0
    8.1261  -15.4132   23.1428 C   0  0  0  0  0  0  0  0  0  0  0  0
    7.3939  -16.4415   22.9183 O   0  0  0  0  0  0  0  0  0  0  0  0
    6.4946  -14.4779   25.8039 C   0  0  0  0  0  0  0  0  0  0  0  0
    6.7493  -14.5596   27.1570 C   0  0  0  0  0  0  0  0  0  0  0  0
   11.3896  -16.4236   22.6311 O   0  0  0  0  0  0  0  0  0  0  0  0
   11.0145  -17.3478   23.6181 C   0  0  0  0  0  0  0  0  0  0  0  0
    9.6949  -16.9669   24.2341 C   0  0  2  0  0  0  0  0  0  0  0  0
    9.3596  -15.6319   23.8140 N   0  0  0  0  0  0  0  0  0  0  0  0
    9.8412  -16.9938   25.7162 C   0  0  0  0  0  0  0  0  0  0  0  0
    9.6605  -15.9411   26.3751 O   0  0  0  0  0  0  0  0  0  0  0  0
   10.1749  -18.1469   26.4331 O   0  0  0  0  0  0  0  0  0  0  0  0
  2  1  1  6
  2  3  1  0
  3  4  1  0
  5  6  2  0
  5  4  1  0
  7  8  2  0
  7  2  1  0
  9  5  1  0
 10 11  1  0
 11 12  2  0
 12 13  1  0
 14 13  2  0
 14 15  1  0
 16 15  1  1
 16 17  1  0
 17  7  1  0
 18 19  2  0
 18 16  1  0
 20 14  1  0
 21 11  1  0
 21 20  2  0
 23 22  1  0
 24 25  1  0
 24 23  1  6
 25 18  1  0
 26 24  1  0
 27 26  2  0
 28 26  1  0
M  END
$$$$
