EYS.pdb
     RDKit          3D

 28 28  0  0  1  0  0  0  0  0999 V2000
   10.3114  -16.6723   18.6431 N   0  0  0  0  0  0  0  0  0  0  0  0
    9.0651  -16.8296   19.4079 C   0  0  1  0  0  0  0  0  0  0  0  0
    8.8545  -18.3158   19.5460 C   0  0  0  0  0  0  0  0  0  0  0  0
    8.6170  -19.0185   18.2309 C   0  0  0  0  0  0  0  0  0  0  0  0
    8.4047  -20.4735   18.3772 C   0  0  0  0  0  0  0  0  0  0  0  0
    9.1170  -21.2871   17.7177 O   0  0  0  0  0  0  0  0  0  0  0  0
    9.2218  -16.1496   20.7233 C   0  0  0  0  0  0  0  0  0  0  0  0
   10.3689  -16.1878   21.2548 O   0  0  0  0  0  0  0  0  0  0  0  0
    7.4407  -21.0118   19.2183 O   0  0  0  0  0  0  0  0  0  0  0  0
    7.2498  -11.7736   28.2774 O   0  0  0  0  0  0  0  0  0  0  0  0
    7.2195  -12.3513   27.0138 C   0  0  0  0  0  0  0  0  0  0  0  0
    6.5029  -13.4848   26.7127 C   0  0  0  0  0  0  0  0  0  0  0  0
    6.4844  -14.0448   25.4542 C   0  0  0  0  0  0  0  0  0  0  0  0
    7.2094  -13.4729   24.4045 C   0  0  0  0  0  0  0  0  0  0  0  0
    7.2032  -13.9901   23.0321 C   0  0  0  0  0  0  0  0  0  0  0  0
    8.2736  -14.9361   22.6514 C   0  0  2  0  0  0  0  0  0  0  0  0
    8.1171  -15.4939   21.3304 N   0  0  0  0  0  0  0  0  0  0  0  0
    8.5785  -15.9974   23.6183 C   0  0  0  0  0  0  0  0  0  0  0  0
    7.8967  -17.0805   23.5417 O   0  0  0  0  0  0  0  0  0  0  0  0
    7.9229  -12.3348   24.7245 C   0  0  0  0  0  0  0  0  0  0  0  0
    7.9420  -11.7732   25.9842 C   0  0  0  0  0  0  0  0  0  0  0  0
   11.4382  -18.9007   25.5791 O   0  0  0  0  0  0  0  0  0  0  0  0
   11.0430  -17.8075   24.7930 C   0  0  0  0  0  0  0  0  0  0  0  0
    9.8585  -17.1088   25.4050 C   0  0  2  0  0  0  0  0  0  0  0  0
    9.5713  -15.9288   24.6329 N   0  0  0  0  0  0  0  0  0  0  0  0
   10.2124  -16.7119   26.7964 C   0  0  0  0  0  0  0  0  0  0  0  0
   10.4265  -15.5037   27.0598 O   0  0  0  0  0  0  0  0  0  0  0  0
   10.3225  -17.6247   27.8498 O   0  0  0  0  0  0  0  0  0  0  0  0
  2  1  1  6
  2  3  1  0
  3  4  1  0
  5  6  2  0
  5  4  1  0
  7  8  2  0
  7  2  1  0
  9  5  1  0
 10 11  1  0
 11 12  2  0
 12 13  1  0
 14 13  2  0
 14 15  1  0
 16 15  1  1
 16 17  1  0
 17  7  1  0
 18 19  2  0
 18 16  1  0
 20 14  1  0
 21 11  1  0
 21 20  2  0
 23 22  1  0
 24 25  1  0
 24 23  1  6
 25 18  1  0
 26 24  1  0
 27 26  2  0
 28 26  1  0
M  END
$$$$
