EYS.pdb
     RDKit          3D

 28 28  0  0  1  0  0  0  0  0999 V2000
   10.4743  -16.7082   18.8553 N   0  0  0  0  0  0  0  0  0  0  0  0
    9.3934  -17.1695   19.7396 C   0  0  1  0  0  0  0  0  0  0  0  0
    9.6546  -18.6352   19.9749 C   0  0  0  0  0  0  0  0  0  0  0  0
    9.4897  -19.4858   18.7384 C   0  0  0  0  0  0  0  0  0  0  0  0
    9.7157  -20.9250   18.9861 C   0  0  0  0  0  0  0  0  0  0  0  0
   10.8674  -21.4238   18.8162 O   0  0  0  0  0  0  0  0  0  0  0  0
    9.4311  -16.3727   20.9971 C   0  0  0  0  0  0  0  0  0  0  0  0
   10.5729  -16.0823   21.4571 O   0  0  0  0  0  0  0  0  0  0  0  0
    8.7079  -21.7832   19.4039 O   0  0  0  0  0  0  0  0  0  0  0  0
    6.7909  -11.7731   28.1514 O   0  0  0  0  0  0  0  0  0  0  0  0
    6.8898  -12.3574   26.8943 C   0  0  0  0  0  0  0  0  0  0  0  0
    7.5915  -11.8025   25.8509 C   0  0  0  0  0  0  0  0  0  0  0  0
    7.6789  -12.3951   24.6103 C   0  0  0  0  0  0  0  0  0  0  0  0
    7.0439  -13.6135   24.3517 C   0  0  0  0  0  0  0  0  0  0  0  0
    7.1280  -14.3213   23.0699 C   0  0  0  0  0  0  0  0  0  0  0  0
    8.2958  -15.2003   22.8478 C   0  0  2  0  0  0  0  0  0  0  0  0
    8.2245  -15.9691   21.6295 N   0  0  0  0  0  0  0  0  0  0  0  0
    8.6846  -16.0621   23.9704 C   0  0  0  0  0  0  0  0  0  0  0  0
    8.0124  -17.1392   24.1492 O   0  0  0  0  0  0  0  0  0  0  0  0
    6.3442  -14.1568   25.4111 C   0  0  0  0  0  0  0  0  0  0  0  0
    6.2562  -13.5643   26.6535 C   0  0  0  0  0  0  0  0  0  0  0  0
   11.6873  -17.8205   24.4414 O   0  0  0  0  0  0  0  0  0  0  0  0
   11.4983  -17.2179   25.6945 C   0  0  0  0  0  0  0  0  0  0  0  0
   10.0650  -16.7945   25.8741 C   0  0  2  0  0  0  0  0  0  0  0  0
    9.7490  -15.8063   24.8769 N   0  0  0  0  0  0  0  0  0  0  0  0
    9.9178  -16.1913   27.2281 C   0  0  0  0  0  0  0  0  0  0  0  0
    9.5384  -15.0000   27.3369 O   0  0  0  0  0  0  0  0  0  0  0  0
   10.1826  -16.8881   28.4111 O   0  0  0  0  0  0  0  0  0  0  0  0
  2  1  1  6
  2  3  1  0
  3  4  1  0
  5  6  2  0
  5  4  1  0
  7  8  2  0
  7  2  1  0
  9  5  1  0
 10 11  1  0
 11 12  2  0
 12 13  1  0
 14 13  2  0
 14 15  1  0
 16 15  1  1
 16 17  1  0
 17  7  1  0
 18 19  2  0
 18 16  1  0
 20 14  1  0
 21 11  1  0
 21 20  2  0
 23 22  1  0
 24 25  1  0
 24 23  1  6
 25 18  1  0
 26 24  1  0
 27 26  2  0
 28 26  1  0
M  END
$$$$
