EYS.pdb
     RDKit          3D

 28 28  0  0  1  0  0  0  0  0999 V2000
    7.9179  -13.9513   19.5491 N   0  0  0  0  0  0  0  0  0  0  0  0
    7.1372  -14.4661   20.6843 C   0  0  1  0  0  0  0  0  0  0  0  0
    6.6300  -15.8183   20.2525 C   0  0  0  0  0  0  0  0  0  0  0  0
    7.3350  -16.3694   19.0364 C   0  0  0  0  0  0  0  0  0  0  0  0
    7.9484  -17.6936   19.2682 C   0  0  0  0  0  0  0  0  0  0  0  0
    7.4546  -18.7247   18.7230 O   0  0  0  0  0  0  0  0  0  0  0  0
    8.0230  -14.5422   21.8789 C   0  0  0  0  0  0  0  0  0  0  0  0
    9.2698  -14.4944   21.6714 O   0  0  0  0  0  0  0  0  0  0  0  0
    9.0643  -17.8746   20.0737 O   0  0  0  0  0  0  0  0  0  0  0  0
   10.9319  -14.8722   30.2651 O   0  0  0  0  0  0  0  0  0  0  0  0
   10.1592  -14.6864   29.1251 C   0  0  0  0  0  0  0  0  0  0  0  0
   10.1046  -13.5032   28.4279 C   0  0  0  0  0  0  0  0  0  0  0  0
    9.3324  -13.3358   27.2994 C   0  0  0  0  0  0  0  0  0  0  0  0
    8.5528  -14.3846   26.8024 C   0  0  0  0  0  0  0  0  0  0  0  0
    7.7402  -14.2911   25.5850 C   0  0  0  0  0  0  0  0  0  0  0  0
    8.3524  -14.7400   24.3163 C   0  0  2  0  0  0  0  0  0  0  0  0
    7.4665  -14.6613   23.1808 N   0  0  0  0  0  0  0  0  0  0  0  0
    9.0276  -16.0428   24.3447 C   0  0  0  0  0  0  0  0  0  0  0  0
    8.3170  -17.0823   24.1030 O   0  0  0  0  0  0  0  0  0  0  0  0
    8.6201  -15.5658   27.5146 C   0  0  0  0  0  0  0  0  0  0  0  0
    9.3930  -15.7343   28.6445 C   0  0  0  0  0  0  0  0  0  0  0  0
   12.6769  -18.8072   23.3767 O   0  0  0  0  0  0  0  0  0  0  0  0
   12.0362  -17.5609   23.4502 C   0  0  0  0  0  0  0  0  0  0  0  0
   10.9469  -17.5796   24.4889 C   0  0  2  0  0  0  0  0  0  0  0  0
   10.4076  -16.2513   24.6136 N   0  0  0  0  0  0  0  0  0  0  0  0
   11.5432  -17.9923   25.7901 C   0  0  0  0  0  0  0  0  0  0  0  0
   11.5187  -17.1983   26.7616 O   0  0  0  0  0  0  0  0  0  0  0  0
   12.1417  -19.2387   25.9985 O   0  0  0  0  0  0  0  0  0  0  0  0
  2  1  1  6
  2  3  1  0
  3  4  1  0
  5  6  2  0
  5  4  1  0
  7  8  2  0
  7  2  1  0
  9  5  1  0
 10 11  1  0
 11 12  2  0
 12 13  1  0
 14 13  2  0
 14 15  1  0
 16 15  1  1
 16 17  1  0
 17  7  1  0
 18 19  2  0
 18 16  1  0
 20 14  1  0
 21 11  1  0
 21 20  2  0
 23 22  1  0
 24 25  1  0
 24 23  1  6
 25 18  1  0
 26 24  1  0
 27 26  2  0
 28 26  1  0
M  END
$$$$
