EYS.pdb
     RDKit          3D

 28 28  0  0  1  0  0  0  0  0999 V2000
    9.0489  -18.7434   20.5764 N   0  0  0  0  0  0  0  0  0  0  0  0
   10.3896  -18.3189   21.0070 C   0  0  1  0  0  0  0  0  0  0  0  0
   11.0139  -17.6549   19.8064 C   0  0  0  0  0  0  0  0  0  0  0  0
   10.7244  -18.3624   18.5043 C   0  0  0  0  0  0  0  0  0  0  0  0
   11.5307  -17.8566   17.3740 C   0  0  0  0  0  0  0  0  0  0  0  0
   12.4625  -17.0244   17.5829 O   0  0  0  0  0  0  0  0  0  0  0  0
   10.2495  -17.3927   22.1645 C   0  0  0  0  0  0  0  0  0  0  0  0
   11.2959  -16.7963   22.5508 O   0  0  0  0  0  0  0  0  0  0  0  0
   11.3160  -18.2522   16.0610 O   0  0  0  0  0  0  0  0  0  0  0  0
    7.6199  -12.4882   18.8156 O   0  0  0  0  0  0  0  0  0  0  0  0
    7.6273  -13.1935   20.0131 C   0  0  0  0  0  0  0  0  0  0  0  0
    6.7977  -14.2578   20.2740 C   0  0  0  0  0  0  0  0  0  0  0  0
    6.8178  -14.9458   21.4674 C   0  0  0  0  0  0  0  0  0  0  0  0
    7.7020  -14.5843   22.4883 C   0  0  0  0  0  0  0  0  0  0  0  0
    7.8072  -15.2961   23.7663 C   0  0  0  0  0  0  0  0  0  0  0  0
    8.8841  -16.2995   23.9051 C   0  0  2  0  0  0  0  0  0  0  0  0
    8.9861  -17.2049   22.7868 N   0  0  0  0  0  0  0  0  0  0  0  0
    8.9192  -17.0462   25.1681 C   0  0  0  0  0  0  0  0  0  0  0  0
    7.8825  -17.7344   25.4770 O   0  0  0  0  0  0  0  0  0  0  0  0
    8.5283  -13.5137   22.2089 C   0  0  0  0  0  0  0  0  0  0  0  0
    8.5089  -12.8243   21.0144 C   0  0  0  0  0  0  0  0  0  0  0  0
   11.9827  -18.8102   26.5442 O   0  0  0  0  0  0  0  0  0  0  0  0
   10.7277  -19.1210   27.0895 C   0  0  0  0  0  0  0  0  0  0  0  0
    9.8994  -17.8770   27.2693 C   0  0  2  0  0  0  0  0  0  0  0  0
   10.0096  -17.0753   26.0794 N   0  0  0  0  0  0  0  0  0  0  0  0
   10.4406  -17.1137   28.4283 C   0  0  0  0  0  0  0  0  0  0  0  0
   10.8908  -15.9558   28.2508 O   0  0  0  0  0  0  0  0  0  0  0  0
   10.4778  -17.6209   29.7307 O   0  0  0  0  0  0  0  0  0  0  0  0
  2  1  1  6
  2  3  1  0
  3  4  1  0
  5  6  2  0
  5  4  1  0
  7  8  2  0
  7  2  1  0
  9  5  1  0
 10 11  1  0
 11 12  2  0
 12 13  1  0
 14 13  2  0
 14 15  1  0
 16 15  1  6
 16 17  1  0
 17  7  1  0
 18 19  2  0
 18 16  1  0
 20 14  1  0
 21 11  1  0
 21 20  2  0
 23 22  1  0
 24 25  1  0
 24 23  1  6
 25 18  1  0
 26 24  1  0
 27 26  2  0
 28 26  1  0
M  END
$$$$
