EYS.pdb
     RDKit          3D

 28 28  0  0  1  0  0  0  0  0999 V2000
    7.9034  -13.1778   19.5473 N   0  0  0  0  0  0  0  0  0  0  0  0
    7.5312  -14.3256   20.3882 C   0  0  1  0  0  0  0  0  0  0  0  0
    7.8324  -15.5513   19.5641 C   0  0  0  0  0  0  0  0  0  0  0  0
    6.9181  -15.7209   18.3745 C   0  0  0  0  0  0  0  0  0  0  0  0
    7.0225  -17.0533   17.7442 C   0  0  0  0  0  0  0  0  0  0  0  0
    6.7780  -17.1906   16.5090 O   0  0  0  0  0  0  0  0  0  0  0  0
    8.3247  -14.2737   21.6472 C   0  0  0  0  0  0  0  0  0  0  0  0
    9.5342  -13.9173   21.5476 O   0  0  0  0  0  0  0  0  0  0  0  0
    7.3811  -18.1931   18.4505 O   0  0  0  0  0  0  0  0  0  0  0  0
   10.6268  -14.6942   30.2740 O   0  0  0  0  0  0  0  0  0  0  0  0
    9.9482  -14.6512   29.0620 C   0  0  0  0  0  0  0  0  0  0  0  0
    9.3870  -15.7547   28.4651 C   0  0  0  0  0  0  0  0  0  0  0  0
    8.7178  -15.6945   27.2625 C   0  0  0  0  0  0  0  0  0  0  0  0
    8.5766  -14.4820   26.5808 C   0  0  0  0  0  0  0  0  0  0  0  0
    7.8427  -14.3361   25.3194 C   0  0  0  0  0  0  0  0  0  0  0  0
    8.5520  -14.6841   24.0697 C   0  0  2  0  0  0  0  0  0  0  0  0
    7.7252  -14.6127   22.8899 N   0  0  0  0  0  0  0  0  0  0  0  0
    9.3136  -15.9387   24.0813 C   0  0  0  0  0  0  0  0  0  0  0  0
    8.6818  -17.0164   23.7924 O   0  0  0  0  0  0  0  0  0  0  0  0
    9.1457  -13.3840   27.1950 C   0  0  0  0  0  0  0  0  0  0  0  0
    9.8159  -13.4433   28.3991 C   0  0  0  0  0  0  0  0  0  0  0  0
   13.2791  -18.4351   23.4277 O   0  0  0  0  0  0  0  0  0  0  0  0
   12.5717  -17.2236   23.4567 C   0  0  0  0  0  0  0  0  0  0  0  0
   11.3185  -17.3553   24.2801 C   0  0  2  0  0  0  0  0  0  0  0  0
   10.6972  -16.0613   24.3821 N   0  0  0  0  0  0  0  0  0  0  0  0
   11.6963  -17.8279   25.6413 C   0  0  0  0  0  0  0  0  0  0  0  0
   11.5902  -17.0480   26.6187 O   0  0  0  0  0  0  0  0  0  0  0  0
   12.1723  -19.1167   25.9009 O   0  0  0  0  0  0  0  0  0  0  0  0
  2  1  1  6
  2  3  1  0
  3  4  1  0
  5  6  2  0
  5  4  1  0
  7  8  2  0
  7  2  1  0
  9  5  1  0
 10 11  1  0
 11 12  2  0
 12 13  1  0
 14 13  2  0
 14 15  1  0
 16 15  1  1
 16 17  1  0
 17  7  1  0
 18 19  2  0
 18 16  1  0
 20 14  1  0
 21 11  1  0
 21 20  2  0
 23 22  1  0
 24 25  1  0
 24 23  1  6
 25 18  1  0
 26 24  1  0
 27 26  2  0
 28 26  1  0
M  END
$$$$
