EYS.pdb
     RDKit          3D

 28 28  0  0  1  0  0  0  0  0999 V2000
    7.6818  -18.4367   18.9688 N   0  0  0  0  0  0  0  0  0  0  0  0
    7.1715  -18.1039   20.3075 C   0  0  1  0  0  0  0  0  0  0  0  0
    7.0467  -19.4175   21.0360 C   0  0  0  0  0  0  0  0  0  0  0  0
    6.7427  -20.5862   20.1297 C   0  0  0  0  0  0  0  0  0  0  0  0
    5.4165  -21.1882   20.3795 C   0  0  0  0  0  0  0  0  0  0  0  0
    5.3016  -22.4449   20.4880 O   0  0  0  0  0  0  0  0  0  0  0  0
    8.1288  -17.1729   20.9666 C   0  0  0  0  0  0  0  0  0  0  0  0
    9.3530  -17.3137   20.6816 O   0  0  0  0  0  0  0  0  0  0  0  0
    4.2589  -20.4323   20.5029 O   0  0  0  0  0  0  0  0  0  0  0  0
    6.6029  -13.1920   28.2678 O   0  0  0  0  0  0  0  0  0  0  0  0
    6.9819  -13.3416   26.9391 C   0  0  0  0  0  0  0  0  0  0  0  0
    7.9972  -12.6247   26.3525 C   0  0  0  0  0  0  0  0  0  0  0  0
    8.3597  -12.7851   25.0332 C   0  0  0  0  0  0  0  0  0  0  0  0
    7.6967  -13.7041   24.2143 C   0  0  0  0  0  0  0  0  0  0  0  0
    8.0554  -13.9570   22.8149 C   0  0  0  0  0  0  0  0  0  0  0  0
    8.6128  -15.2847   22.4796 C   0  0  2  0  0  0  0  0  0  0  0  0
    7.6610  -16.1802   21.8691 N   0  0  0  0  0  0  0  0  0  0  0  0
    9.3437  -15.9730   23.5502 C   0  0  0  0  0  0  0  0  0  0  0  0
    8.6964  -16.8280   24.2529 O   0  0  0  0  0  0  0  0  0  0  0  0
    6.6801  -14.4160   24.8200 C   0  0  0  0  0  0  0  0  0  0  0  0
    6.3165  -14.2561   26.1408 C   0  0  0  0  0  0  0  0  0  0  0  0
   13.3802  -15.7178   23.8253 O   0  0  0  0  0  0  0  0  0  0  0  0
   12.7810  -16.9592   24.0879 C   0  0  0  0  0  0  0  0  0  0  0  0
   11.3961  -16.7770   24.6490 C   0  0  2  0  0  0  0  0  0  0  0  0
   10.7137  -15.7755   23.8730 N   0  0  0  0  0  0  0  0  0  0  0  0
   11.5161  -16.3098   26.0583 C   0  0  0  0  0  0  0  0  0  0  0  0
   10.9982  -15.2172   26.3942 O   0  0  0  0  0  0  0  0  0  0  0  0
   12.1857  -17.0315   27.0511 O   0  0  0  0  0  0  0  0  0  0  0  0
  2  1  1  6
  2  3  1  0
  3  4  1  0
  5  6  2  0
  5  4  1  0
  7  8  2  0
  7  2  1  0
  9  5  1  0
 10 11  1  0
 11 12  2  0
 12 13  1  0
 14 13  2  0
 14 15  1  0
 16 15  1  1
 16 17  1  0
 17  7  1  0
 18 19  2  0
 18 16  1  0
 20 14  1  0
 21 11  1  0
 21 20  2  0
 23 22  1  0
 24 25  1  0
 24 23  1  6
 25 18  1  0
 26 24  1  0
 27 26  2  0
 28 26  1  0
M  END
$$$$
