EYS.pdb
     RDKit          3D

 28 28  0  0  1  0  0  0  0  0999 V2000
    9.9019  -18.0441   18.2290 N   0  0  0  0  0  0  0  0  0  0  0  0
    9.4160  -18.5705   19.5136 C   0  0  1  0  0  0  0  0  0  0  0  0
    9.9961  -19.9565   19.6336 C   0  0  0  0  0  0  0  0  0  0  0  0
    9.5975  -20.8795   18.5072 C   0  0  0  0  0  0  0  0  0  0  0  0
    9.5099  -22.2964   18.9175 C   0  0  0  0  0  0  0  0  0  0  0  0
   10.4185  -22.8042   19.6391 O   0  0  0  0  0  0  0  0  0  0  0  0
    9.8696  -17.6641   20.6045 C   0  0  0  0  0  0  0  0  0  0  0  0
   11.0011  -17.1173   20.4614 O   0  0  0  0  0  0  0  0  0  0  0  0
    8.4599  -23.1237   18.5438 O   0  0  0  0  0  0  0  0  0  0  0  0
    7.4077  -12.2257   18.3948 O   0  0  0  0  0  0  0  0  0  0  0  0
    7.6533  -13.0039   19.5197 C   0  0  0  0  0  0  0  0  0  0  0  0
    6.7138  -13.8247   20.0966 C   0  0  0  0  0  0  0  0  0  0  0  0
    6.9740  -14.5893   21.2126 C   0  0  0  0  0  0  0  0  0  0  0  0
    8.2323  -14.5639   21.8214 C   0  0  0  0  0  0  0  0  0  0  0  0
    8.5922  -15.3812   22.9848 C   0  0  0  0  0  0  0  0  0  0  0  0
    9.5001  -16.5268   22.7629 C   0  0  2  0  0  0  0  0  0  0  0  0
    9.0484  -17.4404   21.7422 N   0  0  0  0  0  0  0  0  0  0  0  0
    9.9176  -17.2676   23.9591 C   0  0  0  0  0  0  0  0  0  0  0  0
    9.0582  -18.0506   24.4995 O   0  0  0  0  0  0  0  0  0  0  0  0
    9.1638  -13.7346   21.2285 C   0  0  0  0  0  0  0  0  0  0  0  0
    8.9043  -12.9687   20.1111 C   0  0  0  0  0  0  0  0  0  0  0  0
   13.4870  -18.6465   24.4911 O   0  0  0  0  0  0  0  0  0  0  0  0
   12.9796  -18.2750   25.7455 C   0  0  0  0  0  0  0  0  0  0  0  0
   11.4909  -18.0628   25.6792 C   0  0  2  0  0  0  0  0  0  0  0  0
   11.1991  -17.1944   24.5694 N   0  0  0  0  0  0  0  0  0  0  0  0
   11.0510  -17.4096   26.9436 C   0  0  0  0  0  0  0  0  0  0  0  0
   11.3178  -17.9498   28.0445 O   0  0  0  0  0  0  0  0  0  0  0  0
   10.3433  -16.2043   26.9782 O   0  0  0  0  0  0  0  0  0  0  0  0
  2  1  1  6
  2  3  1  0
  3  4  1  0
  5  6  2  0
  5  4  1  0
  7  8  2  0
  7  2  1  0
  9  5  1  0
 10 11  1  0
 11 12  2  0
 12 13  1  0
 14 13  2  0
 14 15  1  0
 16 15  1  1
 16 17  1  0
 17  7  1  0
 18 19  2  0
 18 16  1  0
 20 14  1  0
 21 11  1  0
 21 20  2  0
 23 22  1  0
 24 25  1  0
 24 23  1  1
 25 18  1  0
 26 24  1  0
 27 26  2  0
 28 26  1  0
M  END
$$$$
