SCG.pdb
     RDKit          3D

 17 16  0  0  1  0  0  0  0  0999 V2000
    8.1897  -16.1480   16.8825 O   0  0  0  0  0  0  0  0  0  0  0  0
    7.1272  -15.2537   16.8761 C   0  0  0  0  0  0  0  0  0  0  0  0
    7.5112  -13.8949   17.3989 C   0  0  2  0  0  0  0  0  0  0  0  0
    8.4499  -13.3180   16.4589 N   0  0  0  0  0  0  0  0  0  0  0  0
    8.0955  -13.9024   18.7299 C   0  0  0  0  0  0  0  0  0  0  0  0
    9.3433  -13.8473   18.8584 O   0  0  0  0  0  0  0  0  0  0  0  0
    7.3587  -13.9686   19.9419 N   0  0  0  0  0  0  0  0  0  0  0  0
    7.9346  -14.0221   21.2503 C   0  0  1  0  0  0  0  0  0  0  0  0
    6.9431  -13.7244   22.3487 C   0  0  0  0  0  0  0  0  0  0  0  0
    7.8444  -13.7581   23.9257 S   0  0  0  0  0  0  0  0  0  0  0  0
    8.5200  -15.3596   21.5301 C   0  0  0  0  0  0  0  0  0  0  0  0
    7.8568  -16.3931   21.2579 O   0  0  0  0  0  0  0  0  0  0  0  0
    9.8095  -15.5424   22.0979 N   0  0  0  0  0  0  0  0  0  0  0  0
   10.3161  -16.8952   22.3440 C   0  0  0  0  0  0  0  0  0  0  0  0
   11.7034  -16.8522   22.8488 C   0  0  0  0  0  0  0  0  0  0  0  0
   12.4217  -17.9658   23.2296 O   0  0  0  0  0  0  0  0  0  0  0  0
   12.2553  -15.7298   22.9335 O   0  0  0  0  0  0  0  0  0  0  0  0
  2  1  1  0
  3  2  1  0
  3  4  1  6
  5  3  1  0
  5  6  2  0
  7  5  1  0
  8  7  1  0
  9 10  1  0
  8  9  1  1
 11 13  1  0
 11  8  1  0
 12 11  2  0
 14 13  1  0
 14 15  1  0
 15 17  2  0
 15 16  1  0
M  END
$$$$
