SCG.pdb
     RDKit          3D

 17 16  0  0  1  0  0  0  0  0999 V2000
    8.1017  -19.8333   18.8564 O   0  0  0  0  0  0  0  0  0  0  0  0
    7.1127  -19.0799   18.2375 C   0  0  0  0  0  0  0  0  0  0  0  0
    7.5785  -17.6926   17.8833 C   0  0  2  0  0  0  0  0  0  0  0  0
    8.5746  -17.8228   16.8401 N   0  0  0  0  0  0  0  0  0  0  0  0
    8.1323  -16.9385   18.9957 C   0  0  0  0  0  0  0  0  0  0  0  0
    9.3772  -16.8117   19.0987 O   0  0  0  0  0  0  0  0  0  0  0  0
    7.3677  -16.3092   20.0133 N   0  0  0  0  0  0  0  0  0  0  0  0
    7.9128  -15.5791   21.1163 C   0  0  1  0  0  0  0  0  0  0  0  0
    6.8738  -14.7983   21.8837 C   0  0  0  0  0  0  0  0  0  0  0  0
    7.7233  -13.9428   23.2428 S   0  0  0  0  0  0  0  0  0  0  0  0
    8.5923  -16.4830   22.0812 C   0  0  0  0  0  0  0  0  0  0  0  0
    8.0308  -17.5551   22.4238 O   0  0  0  0  0  0  0  0  0  0  0  0
    9.8635  -16.2014   22.6500 N   0  0  0  0  0  0  0  0  0  0  0  0
   10.5624  -17.2294   23.4259 C   0  0  0  0  0  0  0  0  0  0  0  0
   11.8486  -16.7157   23.9388 C   0  0  0  0  0  0  0  0  0  0  0  0
   12.1300  -16.5350   25.2764 O   0  0  0  0  0  0  0  0  0  0  0  0
   12.7345  -16.4285   23.0997 O   0  0  0  0  0  0  0  0  0  0  0  0
  2  1  1  0
  3  2  1  0
  3  4  1  6
  5  3  1  0
  5  6  2  0
  7  5  1  0
  8  7  1  0
  9 10  1  0
  8  9  1  1
 11 13  1  0
 11  8  1  0
 12 11  2  0
 14 13  1  0
 14 15  1  0
 15 17  2  0
 15 16  1  0
M  END
$$$$
