SCG.pdb
     RDKit          3D

 17 16  0  0  1  0  0  0  0  0999 V2000
    8.6847  -19.9187   20.7459 O   0  0  0  0  0  0  0  0  0  0  0  0
    7.5524  -19.3056   20.2257 C   0  0  0  0  0  0  0  0  0  0  0  0
    7.8841  -18.1394   19.3331 C   0  0  2  0  0  0  0  0  0  0  0  0
    8.6297  -18.6557   18.2040 N   0  0  0  0  0  0  0  0  0  0  0  0
    8.6448  -17.0819   19.9780 C   0  0  0  0  0  0  0  0  0  0  0  0
    9.8284  -16.8640   19.6198 O   0  0  0  0  0  0  0  0  0  0  0  0
    8.1553  -16.2421   21.0130 N   0  0  0  0  0  0  0  0  0  0  0  0
    8.9067  -15.2076   21.6547 C   0  0  1  0  0  0  0  0  0  0  0  0
    8.0463  -14.0776   22.1654 C   0  0  0  0  0  0  0  0  0  0  0  0
    6.5017  -14.8027   22.7893 S   0  0  0  0  0  0  0  0  0  0  0  0
    9.6786  -15.7360   22.8101 C   0  0  0  0  0  0  0  0  0  0  0  0
    9.0629  -16.1989   23.8043 O   0  0  0  0  0  0  0  0  0  0  0  0
   11.0986  -15.7490   22.8578 N   0  0  0  0  0  0  0  0  0  0  0  0
   11.7867  -16.3030   24.0269 C   0  0  0  0  0  0  0  0  0  0  0  0
   13.2517  -16.1958   23.8730 C   0  0  0  0  0  0  0  0  0  0  0  0
   14.1608  -16.6175   24.8200 O   0  0  0  0  0  0  0  0  0  0  0  0
   13.6880  -15.6888   22.8128 O   0  0  0  0  0  0  0  0  0  0  0  0
  2  1  1  0
  3  2  1  0
  3  4  1  6
  5  3  1  0
  5  6  2  0
  7  5  1  0
  8  7  1  0
  9 10  1  0
  8  9  1  1
 11 13  1  0
 11  8  1  0
 12 11  2  0
 14 13  1  0
 14 15  1  0
 15 17  2  0
 15 16  1  0
M  END
$$$$
