SCG.pdb
     RDKit          3D

 17 16  0  0  1  0  0  0  0  0999 V2000
    9.3561  -18.4728   22.8642 O   0  0  0  0  0  0  0  0  0  0  0  0
    8.8439  -17.3171   22.2891 C   0  0  0  0  0  0  0  0  0  0  0  0
    9.7540  -16.1306   22.4654 C   0  0  2  0  0  0  0  0  0  0  0  0
   10.9044  -16.3356   21.6099 N   0  0  0  0  0  0  0  0  0  0  0  0
   10.1957  -15.9055   23.8318 C   0  0  0  0  0  0  0  0  0  0  0  0
   11.3457  -16.2713   24.1788 O   0  0  0  0  0  0  0  0  0  0  0  0
    9.4188  -15.2877   24.8471 N   0  0  0  0  0  0  0  0  0  0  0  0
    9.8326  -15.1137   26.2055 C   0  0  1  0  0  0  0  0  0  0  0  0
    9.0769  -14.0209   26.9216 C   0  0  0  0  0  0  0  0  0  0  0  0
    9.8450  -13.8011   28.5533 S   0  0  0  0  0  0  0  0  0  0  0  0
    9.6559  -16.3641   26.9898 C   0  0  0  0  0  0  0  0  0  0  0  0
    8.5696  -16.9933   26.9125 O   0  0  0  0  0  0  0  0  0  0  0  0
   10.6618  -16.9004   27.8380 N   0  0  0  0  0  0  0  0  0  0  0  0
   10.4234  -18.1575   28.5522 C   0  0  0  0  0  0  0  0  0  0  0  0
   11.5679  -18.4906   29.4242 C   0  0  0  0  0  0  0  0  0  0  0  0
   12.7050  -17.7187   29.5350 O   0  0  0  0  0  0  0  0  0  0  0  0
   11.4933  -19.5420   30.1028 O   0  0  0  0  0  0  0  0  0  0  0  0
  2  1  1  0
  3  2  1  0
  3  4  1  6
  5  3  1  0
  5  6  2  0
  7  5  1  0
  8  7  1  0
  9 10  1  0
  8  9  1  1
 11 13  1  0
 11  8  1  0
 12 11  2  0
 14 13  1  0
 14 15  1  0
 15 17  2  0
 15 16  1  0
M  END
$$$$
