SCG.pdb
     RDKit          3D

 17 16  0  0  1  0  0  0  0  0999 V2000
   -5.0449  -26.2156   24.2768 O   0  0  0  0  0  0  0  0  0  0  0  0
   -4.7620  -25.6486   25.5126 C   0  0  0  0  0  0  0  0  0  0  0  0
   -5.1456  -24.1944   25.5836 C   0  0  2  0  0  0  0  0  0  0  0  0
   -4.1749  -23.4514   24.8070 N   0  0  0  0  0  0  0  0  0  0  0  0
   -5.2116  -23.6517   26.9304 C   0  0  0  0  0  0  0  0  0  0  0  0
   -4.3072  -22.8784   27.3313 O   0  0  0  0  0  0  0  0  0  0  0  0
   -6.2417  -23.9253   27.8686 N   0  0  0  0  0  0  0  0  0  0  0  0
   -6.3345  -23.3518   29.1760 C   0  0  1  0  0  0  0  0  0  0  0  0
   -6.5266  -21.8549   29.1560 C   0  0  0  0  0  0  0  0  0  0  0  0
   -6.5585  -21.2826   30.8800 S   0  0  0  0  0  0  0  0  0  0  0  0
   -7.4656  -23.9351   29.9442 C   0  0  0  0  0  0  0  0  0  0  0  0
   -8.6448  -23.7342   29.5555 O   0  0  0  0  0  0  0  0  0  0  0  0
   -7.2891  -24.7215   31.1143 N   0  0  0  0  0  0  0  0  0  0  0  0
   -8.4548  -25.2860   31.7996 C   0  0  0  0  0  0  0  0  0  0  0  0
   -8.0358  -26.1712   32.9051 C   0  0  0  0  0  0  0  0  0  0  0  0
   -8.9052  -26.7377   33.8130 O   0  0  0  0  0  0  0  0  0  0  0  0
   -6.8120  -26.4181   33.0185 O   0  0  0  0  0  0  0  0  0  0  0  0
  2  1  1  0
  3  2  1  0
  3  4  1  6
  5  3  1  0
  5  6  2  0
  7  5  1  0
  8  7  1  0
  9 10  1  0
  8  9  1  6
 11 13  1  0
 11  8  1  0
 12 11  2  0
 14 13  1  0
 14 15  1  0
 15 17  2  0
 15 16  1  0
M  END
$$$$
