SCG.pdb
     RDKit          3D

 17 16  0  0  1  0  0  0  0  0999 V2000
   14.6720  -16.8017   17.3332 O   0  0  0  0  0  0  0  0  0  0  0  0
   13.7109  -15.8089   17.1945 C   0  0  0  0  0  0  0  0  0  0  0  0
   14.1269  -14.5081   17.8286 C   0  0  2  0  0  0  0  0  0  0  0  0
   15.2114  -13.9666   17.0360 N   0  0  0  0  0  0  0  0  0  0  0  0
   14.5445  -14.6185   19.2165 C   0  0  0  0  0  0  0  0  0  0  0  0
   15.7379  -14.3792   19.5248 O   0  0  0  0  0  0  0  0  0  0  0  0
   13.6967  -14.9853   20.2948 N   0  0  0  0  0  0  0  0  0  0  0  0
   14.1122  -15.1160   21.6575 C   0  0  1  0  0  0  0  0  0  0  0  0
   12.9693  -15.0216   22.6389 C   0  0  0  0  0  0  0  0  0  0  0  0
   13.6825  -14.9807   24.3094 S   0  0  0  0  0  0  0  0  0  0  0  0
   14.7947  -16.4154   21.8933 C   0  0  0  0  0  0  0  0  0  0  0  0
   14.2453  -17.4800   21.5100 O   0  0  0  0  0  0  0  0  0  0  0  0
   16.0555  -16.5273   22.5387 N   0  0  0  0  0  0  0  0  0  0  0  0
   16.6726  -17.8444   22.7164 C   0  0  0  0  0  0  0  0  0  0  0  0
   17.9865  -17.7230   23.3800 C   0  0  0  0  0  0  0  0  0  0  0  0
   18.2102  -18.0129   24.7093 O   0  0  0  0  0  0  0  0  0  0  0  0
   18.9534  -17.3314   22.6849 O   0  0  0  0  0  0  0  0  0  0  0  0
  2  1  1  0
  3  2  1  0
  3  4  1  6
  5  3  1  0
  5  6  2  0
  7  5  1  0
  8  7  1  0
  9 10  1  0
  8  9  1  1
 11 13  1  0
 11  8  1  0
 12 11  2  0
 14 13  1  0
 14 15  1  0
 15 17  2  0
 15 16  1  0
M  END
$$$$
