SCG.pdb
     RDKit          3D

 17 16  0  0  1  0  0  0  0  0999 V2000
    7.7707  -18.8815   20.8061 O   0  0  0  0  0  0  0  0  0  0  0  0
    6.7604  -17.9363   20.6847 C   0  0  0  0  0  0  0  0  0  0  0  0
    7.2699  -16.6028   20.2061 C   0  0  2  0  0  0  0  0  0  0  0  0
    7.8621  -16.8081   18.9005 N   0  0  0  0  0  0  0  0  0  0  0  0
    8.2390  -15.9740   21.0882 C   0  0  0  0  0  0  0  0  0  0  0  0
    9.4308  -15.8525   20.7123 O   0  0  0  0  0  0  0  0  0  0  0  0
    7.9519  -15.4661   22.3827 N   0  0  0  0  0  0  0  0  0  0  0  0
    8.9134  -14.8833   23.2674 C   0  0  1  0  0  0  0  0  0  0  0  0
    8.2888  -14.2231   24.4724 C   0  0  0  0  0  0  0  0  0  0  0  0
    7.1641  -12.9304   23.8686 S   0  0  0  0  0  0  0  0  0  0  0  0
    9.8762  -15.9001   23.7664 C   0  0  0  0  0  0  0  0  0  0  0  0
    9.4438  -16.9205   24.3612 O   0  0  0  0  0  0  0  0  0  0  0  0
   11.2834  -15.7845   23.6077 N   0  0  0  0  0  0  0  0  0  0  0  0
   12.1670  -16.8330   24.1244 C   0  0  0  0  0  0  0  0  0  0  0  0
   13.5808  -16.5158   23.8384 C   0  0  0  0  0  0  0  0  0  0  0  0
   14.6469  -17.2658   24.2878 O   0  0  0  0  0  0  0  0  0  0  0  0
   13.8182  -15.5001   23.1431 O   0  0  0  0  0  0  0  0  0  0  0  0
  2  1  1  0
  3  2  1  0
  3  4  1  6
  5  3  1  0
  5  6  2  0
  7  5  1  0
  8  7  1  0
  9 10  1  0
  8  9  1  1
 11 13  1  0
 11  8  1  0
 12 11  2  0
 14 13  1  0
 14 15  1  0
 15 17  2  0
 15 16  1  0
M  END
$$$$
