SCG.pdb
     RDKit          3D

 17 16  0  0  1  0  0  0  0  0999 V2000
    7.3106  -15.8579   15.0784 O   0  0  0  0  0  0  0  0  0  0  0  0
    8.0463  -15.6190   16.2318 C   0  0  0  0  0  0  0  0  0  0  0  0
    7.7123  -14.2957   16.8676 C   0  0  2  0  0  0  0  0  0  0  0  0
    8.2630  -13.2570   16.0219 N   0  0  0  0  0  0  0  0  0  0  0  0
    8.2084  -14.1346   18.2244 C   0  0  0  0  0  0  0  0  0  0  0  0
    9.4013  -13.7900   18.4104 O   0  0  0  0  0  0  0  0  0  0  0  0
    7.4407  -14.3385   19.4013 N   0  0  0  0  0  0  0  0  0  0  0  0
    7.9577  -14.3028   20.7347 C   0  0  1  0  0  0  0  0  0  0  0  0
    6.9067  -13.9885   21.7715 C   0  0  0  0  0  0  0  0  0  0  0  0
    7.7291  -13.9450   23.3909 S   0  0  0  0  0  0  0  0  0  0  0  0
    8.5784  -15.6005   21.1098 C   0  0  0  0  0  0  0  0  0  0  0  0
    7.9707  -16.6720   20.8556 O   0  0  0  0  0  0  0  0  0  0  0  0
    9.8422  -15.7032   21.7508 N   0  0  0  0  0  0  0  0  0  0  0  0
   10.3786  -17.0200   22.1050 C   0  0  0  0  0  0  0  0  0  0  0  0
   11.7472  -16.9006   22.6470 C   0  0  0  0  0  0  0  0  0  0  0  0
   12.8785  -17.3384   21.9916 O   0  0  0  0  0  0  0  0  0  0  0  0
   11.8804  -16.3670   23.7735 O   0  0  0  0  0  0  0  0  0  0  0  0
  2  1  1  0
  3  2  1  0
  3  4  1  6
  5  3  1  0
  5  6  2  0
  7  5  1  0
  8  7  1  0
  9 10  1  0
  8  9  1  1
 11 13  1  0
 11  8  1  0
 12 11  2  0
 14 13  1  0
 14 15  1  0
 15 17  2  0
 15 16  1  0
M  END
$$$$
