SCG.pdb
     RDKit          3D

 17 16  0  0  1  0  0  0  0  0999 V2000
    8.3499  -17.2107   23.5510 O   0  0  0  0  0  0  0  0  0  0  0  0
    7.1485  -16.6069   23.2033 C   0  0  0  0  0  0  0  0  0  0  0  0
    7.3014  -15.1368   22.9161 C   0  0  2  0  0  0  0  0  0  0  0  0
    8.1137  -15.0101   21.7238 N   0  0  0  0  0  0  0  0  0  0  0  0
    7.8974  -14.3687   23.9967 C   0  0  0  0  0  0  0  0  0  0  0  0
    9.1037  -14.0283   23.9221 O   0  0  0  0  0  0  0  0  0  0  0  0
    7.2167  -13.9526   25.1713 N   0  0  0  0  0  0  0  0  0  0  0  0
    7.7999  -13.1878   26.2303 C   0  0  1  0  0  0  0  0  0  0  0  0
    6.7760  -12.5009   27.1009 C   0  0  0  0  0  0  0  0  0  0  0  0
    5.5740  -11.6948   26.0026 S   0  0  0  0  0  0  0  0  0  0  0  0
    8.6372  -14.0393   27.1157 C   0  0  0  0  0  0  0  0  0  0  0  0
    8.1422  -14.5024   28.1752 O   0  0  0  0  0  0  0  0  0  0  0  0
    9.9898  -14.3669   26.8296 N   0  0  0  0  0  0  0  0  0  0  0  0
   10.7445  -15.2260   27.7458 C   0  0  0  0  0  0  0  0  0  0  0  0
   10.8587  -16.5960   27.2062 C   0  0  0  0  0  0  0  0  0  0  0  0
   12.0449  -17.1701   26.8006 O   0  0  0  0  0  0  0  0  0  0  0  0
    9.8075  -17.2728   27.1143 O   0  0  0  0  0  0  0  0  0  0  0  0
  2  1  1  0
  3  2  1  0
  3  4  1  6
  5  3  1  0
  5  6  2  0
  7  5  1  0
  8  7  1  0
  9 10  1  0
  8  9  1  1
 11 13  1  0
 11  8  1  0
 12 11  2  0
 14 13  1  0
 14 15  1  0
 15 17  2  0
 15 16  1  0
M  END
$$$$
