SCG.pdb
     RDKit          3D

 17 16  0  0  1  0  0  0  0  0999 V2000
   -8.0085  -24.5647   21.3684 O   0  0  0  0  0  0  0  0  0  0  0  0
   -7.5300  -24.8051   22.6498 C   0  0  0  0  0  0  0  0  0  0  0  0
   -6.4506  -23.8371   23.0555 C   0  0  2  0  0  0  0  0  0  0  0  0
   -5.2450  -24.2087   22.3443 N   0  0  0  0  0  0  0  0  0  0  0  0
   -6.1816  -23.7954   24.4834 C   0  0  0  0  0  0  0  0  0  0  0  0
   -5.4506  -24.6751   25.0016 O   0  0  0  0  0  0  0  0  0  0  0  0
   -6.6876  -22.8164   25.3788 N   0  0  0  0  0  0  0  0  0  0  0  0
   -6.3757  -22.7401   26.7729 C   0  0  1  0  0  0  0  0  0  0  0  0
   -5.9435  -21.3617   27.2105 C   0  0  0  0  0  0  0  0  0  0  0  0
   -4.3568  -21.0016   26.4021 S   0  0  0  0  0  0  0  0  0  0  0  0
   -7.5410  -23.1277   27.6105 C   0  0  0  0  0  0  0  0  0  0  0  0
   -8.6645  -22.6098   27.3831 O   0  0  0  0  0  0  0  0  0  0  0  0
   -7.4584  -24.0669   28.6734 N   0  0  0  0  0  0  0  0  0  0  0  0
   -8.6614  -24.4238   29.4302 C   0  0  0  0  0  0  0  0  0  0  0  0
   -8.6495  -23.7898   30.7640 C   0  0  0  0  0  0  0  0  0  0  0  0
   -8.2975  -24.4425   31.9264 O   0  0  0  0  0  0  0  0  0  0  0  0
   -8.9812  -22.5830   30.8356 O   0  0  0  0  0  0  0  0  0  0  0  0
  2  1  1  0
  3  2  1  0
  3  4  1  6
  5  3  1  0
  5  6  2  0
  7  5  1  0
  8  7  1  0
  9 10  1  0
  8  9  1  1
 11 13  1  0
 11  8  1  0
 12 11  2  0
 14 13  1  0
 14 15  1  0
 15 17  2  0
 15 16  1  0
M  END
$$$$
