SCG.pdb
     RDKit          3D

 17 16  0  0  1  0  0  0  0  0999 V2000
    6.6130  -16.7412   21.6416 O   0  0  0  0  0  0  0  0  0  0  0  0
    6.3007  -15.5018   21.0985 C   0  0  0  0  0  0  0  0  0  0  0  0
    7.3552  -14.4644   21.3794 C   0  0  2  0  0  0  0  0  0  0  0  0
    8.5040  -14.7798   20.5559 N   0  0  0  0  0  0  0  0  0  0  0  0
    7.7621  -14.3780   22.7722 C   0  0  0  0  0  0  0  0  0  0  0  0
    8.8434  -14.9032   23.1350 O   0  0  0  0  0  0  0  0  0  0  0  0
    7.0229  -13.7310   23.7975 N   0  0  0  0  0  0  0  0  0  0  0  0
    7.3839  -13.7112   25.1817 C   0  0  1  0  0  0  0  0  0  0  0  0
    6.5672  -12.7366   25.9949 C   0  0  0  0  0  0  0  0  0  0  0  0
    7.2258  -12.7476   27.6881 S   0  0  0  0  0  0  0  0  0  0  0  0
    7.2235  -15.0524   25.8024 C   0  0  0  0  0  0  0  0  0  0  0  0
    6.1116  -15.6362   25.7326 O   0  0  0  0  0  0  0  0  0  0  0  0
    8.2729  -15.7264   26.4830 N   0  0  0  0  0  0  0  0  0  0  0  0
    8.0553  -17.0761   27.0103 C   0  0  0  0  0  0  0  0  0  0  0  0
    9.2382  -17.5431   27.7611 C   0  0  0  0  0  0  0  0  0  0  0  0
    9.3484  -18.7951   28.3283 O   0  0  0  0  0  0  0  0  0  0  0  0
   10.1977  -16.7461   27.8861 O   0  0  0  0  0  0  0  0  0  0  0  0
  2  1  1  0
  3  2  1  0
  3  4  1  6
  5  3  1  0
  5  6  2  0
  7  5  1  0
  8  7  1  0
  9 10  1  0
  8  9  1  1
 11 13  1  0
 11  8  1  0
 12 11  2  0
 14 13  1  0
 14 15  1  0
 15 17  2  0
 15 16  1  0
M  END
$$$$
