PEI.pdb
     RDKit          3D

 25 25  0  0  1  0  0  0  0  0999 V2000
    8.9089  -14.6444   18.5186 N   0  0  0  0  0  0  0  0  0  0  0  0
    8.7718  -13.9051   17.2693 C   0  0  0  0  0  0  0  0  0  0  0  0
    7.7186  -12.8420   17.5044 C   0  0  0  0  0  0  0  0  0  0  0  0
    7.2856  -13.0902   18.9574 C   0  0  0  0  0  0  0  0  0  0  0  0
    8.5693  -13.6547   19.5203 C   0  0  1  0  0  0  0  0  0  0  0  0
    8.4090  -14.3225   20.8259 C   0  0  0  0  0  0  0  0  0  0  0  0
    7.9167  -13.6386   21.7531 O   0  0  0  0  0  0  0  0  0  0  0  0
    8.7884  -15.6780   21.0462 N   0  0  0  0  0  0  0  0  0  0  0  0
    8.6143  -16.4287   22.2299 C   0  0  1  0  0  0  0  0  0  0  0  0
    9.0497  -17.8288   22.2819 C   0  0  0  0  0  0  0  0  0  0  0  0
   10.4940  -18.0915   22.5678 C   0  0  0  0  0  0  0  0  0  0  0  0
   10.9183  -19.4540   22.7644 C   0  0  0  0  0  0  0  0  0  0  0  0
   11.6323  -19.8287   23.7037 O   0  0  0  0  0  0  0  0  0  0  0  0
    9.0123  -15.6253   23.4556 C   0  0  0  0  0  0  0  0  0  0  0  0
   10.1238  -15.0449   23.5299 O   0  0  0  0  0  0  0  0  0  0  0  0
   10.5157  -20.4379   21.8554 O   0  0  0  0  0  0  0  0  0  0  0  0
    6.9713  -11.3321   27.0463 C   0  0  0  0  0  0  0  0  0  0  0  0
    7.9437  -12.4840   26.9129 C   0  0  0  0  0  0  0  0  0  0  0  0
    7.5438  -13.4661   25.8440 C   0  0  2  0  0  0  0  0  0  0  0  0
    6.1970  -14.0354   26.2370 C   0  0  0  0  0  0  0  0  0  0  0  0
    8.4997  -14.5914   25.6834 C   0  0  2  0  0  0  0  0  0  0  0  0
    8.1717  -15.4760   24.5813 N   0  0  0  0  0  0  0  0  0  0  0  0
    8.6157  -15.3244   26.9653 C   0  0  0  0  0  0  0  0  0  0  0  0
    8.1558  -16.4831   27.0402 O   0  0  0  0  0  0  0  0  0  0  0  0
    9.2135  -14.7594   28.0638 O   0  0  0  0  0  0  0  0  0  0  0  0
  1  2  1  0
  2  3  1  0
  4  3  1  0
  5  1  1  0
  5  4  1  0
  5  6  1  1
  7  6  2  0
  8  6  1  0
  9 14  1  0
  9  8  1  0
  9 10  1  6
 11 10  1  0
 12 16  1  0
 12 11  1  0
 13 12  2  0
 14 22  1  0
 15 14  2  0
 17 18  1  0
 19 21  1  0
 19 18  1  0
 19 20  1  1
 21 23  1  0
 21 22  1  6
 23 24  2  0
 23 25  1  0
M  END
$$$$
