PEI.pdb
     RDKit          3D

 25 25  0  0  1  0  0  0  0  0999 V2000
    8.8500  -14.5404   18.5516 N   0  0  0  0  0  0  0  0  0  0  0  0
    8.7005  -13.7932   17.3084 C   0  0  0  0  0  0  0  0  0  0  0  0
    7.6479  -12.7333   17.5599 C   0  0  0  0  0  0  0  0  0  0  0  0
    7.2286  -12.9914   19.0151 C   0  0  0  0  0  0  0  0  0  0  0  0
    8.5181  -13.5576   19.5627 C   0  0  1  0  0  0  0  0  0  0  0  0
    8.3706  -14.2340   20.8654 C   0  0  0  0  0  0  0  0  0  0  0  0
    7.9301  -13.5434   21.8134 O   0  0  0  0  0  0  0  0  0  0  0  0
    8.7063  -15.6048   21.0606 N   0  0  0  0  0  0  0  0  0  0  0  0
    8.4659  -16.3839   22.2139 C   0  0  1  0  0  0  0  0  0  0  0  0
    8.7756  -17.8180   22.2089 C   0  0  0  0  0  0  0  0  0  0  0  0
   10.1967  -18.2172   22.4492 C   0  0  0  0  0  0  0  0  0  0  0  0
   10.5703  -19.5911   22.2306 C   0  0  0  0  0  0  0  0  0  0  0  0
    9.8644  -20.5592   22.5423 O   0  0  0  0  0  0  0  0  0  0  0  0
    8.9328  -15.6684   23.4694 C   0  0  0  0  0  0  0  0  0  0  0  0
   10.1133  -15.2571   23.5923 O   0  0  0  0  0  0  0  0  0  0  0  0
   11.8001  -19.8827   21.6314 O   0  0  0  0  0  0  0  0  0  0  0  0
    6.9332  -11.5221   27.4168 C   0  0  0  0  0  0  0  0  0  0  0  0
    7.9137  -12.6470   27.1649 C   0  0  0  0  0  0  0  0  0  0  0  0
    7.4544  -13.5929   26.0874 C   0  0  2  0  0  0  0  0  0  0  0  0
    6.2555  -14.3430   26.6282 C   0  0  0  0  0  0  0  0  0  0  0  0
    8.4859  -14.5838   25.6873 C   0  0  2  0  0  0  0  0  0  0  0  0
    8.0839  -15.4182   24.5707 N   0  0  0  0  0  0  0  0  0  0  0  0
    8.8774  -15.3893   26.8671 C   0  0  0  0  0  0  0  0  0  0  0  0
    9.4778  -14.8278   27.8072 O   0  0  0  0  0  0  0  0  0  0  0  0
    8.5956  -16.7300   26.9465 O   0  0  0  0  0  0  0  0  0  0  0  0
  1  2  1  0
  2  3  1  0
  4  3  1  0
  5  1  1  0
  5  4  1  0
  5  6  1  1
  7  6  2  0
  8  6  1  0
  9 14  1  0
  9  8  1  0
  9 10  1  6
 11 10  1  0
 12 16  1  0
 12 11  1  0
 13 12  2  0
 14 22  1  0
 15 14  2  0
 17 18  1  0
 19 21  1  0
 19 18  1  0
 19 20  1  1
 21 23  1  0
 21 22  1  6
 23 24  2  0
 23 25  1  0
M  END
$$$$
