PEI.pdb
     RDKit          3D

 25 25  0  0  1  0  0  0  0  0999 V2000
    8.6543  -14.9404   18.5240 N   0  0  0  0  0  0  0  0  0  0  0  0
    8.7161  -14.2608   17.2354 C   0  0  0  0  0  0  0  0  0  0  0  0
    7.9049  -12.9890   17.3732 C   0  0  0  0  0  0  0  0  0  0  0  0
    7.3838  -13.0581   18.8168 C   0  0  0  0  0  0  0  0  0  0  0  0
    8.5006  -13.8463   19.4608 C   0  0  1  0  0  0  0  0  0  0  0  0
    8.1616  -14.3906   20.7894 C   0  0  0  0  0  0  0  0  0  0  0  0
    7.8641  -13.5612   21.6801 O   0  0  0  0  0  0  0  0  0  0  0  0
    8.1657  -15.7874   21.0703 N   0  0  0  0  0  0  0  0  0  0  0  0
    7.7606  -16.4155   22.2688 C   0  0  1  0  0  0  0  0  0  0  0  0
    7.7618  -17.8794   22.3671 C   0  0  0  0  0  0  0  0  0  0  0  0
    7.3653  -18.4826   23.6769 C   0  0  0  0  0  0  0  0  0  0  0  0
    7.4036  -19.9163   23.8122 C   0  0  0  0  0  0  0  0  0  0  0  0
    6.4235  -20.6543   23.6473 O   0  0  0  0  0  0  0  0  0  0  0  0
    8.3610  -15.7271   23.4820 C   0  0  0  0  0  0  0  0  0  0  0  0
    9.5987  -15.7327   23.6968 O   0  0  0  0  0  0  0  0  0  0  0  0
    8.6073  -20.5435   24.1500 O   0  0  0  0  0  0  0  0  0  0  0  0
    7.3446  -10.9508   27.2492 C   0  0  0  0  0  0  0  0  0  0  0  0
    8.0556  -12.2610   26.9882 C   0  0  0  0  0  0  0  0  0  0  0  0
    7.4209  -13.0605   25.8815 C   0  0  2  0  0  0  0  0  0  0  0  0
    6.0387  -13.4617   26.3518 C   0  0  0  0  0  0  0  0  0  0  0  0
    8.1731  -14.2924   25.5317 C   0  0  2  0  0  0  0  0  0  0  0  0
    7.5807  -15.0412   24.4394 N   0  0  0  0  0  0  0  0  0  0  0  0
    8.3437  -15.1251   26.7447 C   0  0  0  0  0  0  0  0  0  0  0  0
    7.6295  -16.1402   26.8837 O   0  0  0  0  0  0  0  0  0  0  0  0
    9.2636  -14.8054   27.7116 O   0  0  0  0  0  0  0  0  0  0  0  0
  1  2  1  0
  2  3  1  0
  4  3  1  0
  5  1  1  0
  5  4  1  0
  5  6  1  1
  7  6  2  0
  8  6  1  0
  9 14  1  0
  9  8  1  0
  9 10  1  6
 11 10  1  0
 12 16  1  0
 12 11  1  0
 13 12  2  0
 14 22  1  0
 15 14  2  0
 17 18  1  0
 19 21  1  0
 19 18  1  0
 19 20  1  1
 21 23  1  0
 21 22  1  6
 23 24  2  0
 23 25  1  0
M  END
$$$$
