PEI.pdb
     RDKit          3D

 25 25  0  0  1  0  0  0  0  0999 V2000
    7.6636  -14.8861   18.6946 N   0  0  0  0  0  0  0  0  0  0  0  0
    7.6975  -13.9329   17.5917 C   0  0  0  0  0  0  0  0  0  0  0  0
    7.8475  -12.5573   18.2081 C   0  0  0  0  0  0  0  0  0  0  0  0
    7.8601  -12.8466   19.7168 C   0  0  0  0  0  0  0  0  0  0  0  0
    8.4610  -14.2331   19.7125 C   0  0  1  0  0  0  0  0  0  0  0  0
    8.3058  -14.9578   20.9879 C   0  0  0  0  0  0  0  0  0  0  0  0
    7.2124  -14.8228   21.5846 O   0  0  0  0  0  0  0  0  0  0  0  0
    9.3349  -15.7772   21.5351 N   0  0  0  0  0  0  0  0  0  0  0  0
    9.3025  -16.4795   22.7601 C   0  0  1  0  0  0  0  0  0  0  0  0
    9.9653  -17.7833   22.8767 C   0  0  0  0  0  0  0  0  0  0  0  0
    9.8652  -18.4926   24.1895 C   0  0  0  0  0  0  0  0  0  0  0  0
   10.4952  -19.7811   24.3236 C   0  0  0  0  0  0  0  0  0  0  0  0
    9.8812  -20.8333   24.5433 O   0  0  0  0  0  0  0  0  0  0  0  0
    9.5762  -15.5546   23.9331 C   0  0  0  0  0  0  0  0  0  0  0  0
   10.6669  -14.9419   24.0478 O   0  0  0  0  0  0  0  0  0  0  0  0
   11.8851  -19.8832   24.2033 O   0  0  0  0  0  0  0  0  0  0  0  0
    5.6592  -12.6546   26.8659 C   0  0  0  0  0  0  0  0  0  0  0  0
    6.5681  -13.7935   26.4571 C   0  0  0  0  0  0  0  0  0  0  0  0
    8.0063  -13.3716   26.3147 C   0  0  2  0  0  0  0  0  0  0  0  0
    8.0933  -12.4716   25.1003 C   0  0  0  0  0  0  0  0  0  0  0  0
    8.9428  -14.5085   26.1238 C   0  0  2  0  0  0  0  0  0  0  0  0
    8.6364  -15.3212   24.9618 N   0  0  0  0  0  0  0  0  0  0  0  0
    8.9957  -15.3154   27.3648 C   0  0  0  0  0  0  0  0  0  0  0  0
    9.3822  -14.7717   28.4206 O   0  0  0  0  0  0  0  0  0  0  0  0
    8.6315  -16.6384   27.3771 O   0  0  0  0  0  0  0  0  0  0  0  0
  1  2  1  0
  2  3  1  0
  4  3  1  0
  5  1  1  0
  5  4  1  0
  5  6  1  1
  7  6  2  0
  8  6  1  0
  9 14  1  0
  9  8  1  0
  9 10  1  6
 11 10  1  0
 12 16  1  0
 12 11  1  0
 13 12  2  0
 14 22  1  0
 15 14  2  0
 17 18  1  0
 19 21  1  0
 19 18  1  0
 19 20  1  6
 21 23  1  0
 21 22  1  6
 23 24  2  0
 23 25  1  0
M  END
$$$$
