PEI.pdb
     RDKit          3D

 25 25  0  0  1  0  0  0  0  0999 V2000
    9.0143  -14.4870   18.7702 N   0  0  0  0  0  0  0  0  0  0  0  0
    8.8146  -13.6958   17.5618 C   0  0  0  0  0  0  0  0  0  0  0  0
    7.5232  -12.9271   17.7516 C   0  0  0  0  0  0  0  0  0  0  0  0
    7.0373  -13.3904   19.1334 C   0  0  0  0  0  0  0  0  0  0  0  0
    8.3645  -13.6903   19.7907 C   0  0  1  0  0  0  0  0  0  0  0  0
    8.2546  -14.4853   21.0285 C   0  0  0  0  0  0  0  0  0  0  0  0
    7.4584  -14.0657   21.9001 O   0  0  0  0  0  0  0  0  0  0  0  0
    9.0071  -15.6754   21.2455 N   0  0  0  0  0  0  0  0  0  0  0  0
    9.0535  -16.4496   22.4260 C   0  0  1  0  0  0  0  0  0  0  0  0
    9.8287  -17.6948   22.4573 C   0  0  0  0  0  0  0  0  0  0  0  0
    9.6491  -18.6475   21.3186 C   0  0  0  0  0  0  0  0  0  0  0  0
   10.7499  -19.5050   20.9605 C   0  0  0  0  0  0  0  0  0  0  0  0
   11.4662  -20.0926   21.7817 O   0  0  0  0  0  0  0  0  0  0  0  0
    9.2625  -15.5757   23.6502 C   0  0  0  0  0  0  0  0  0  0  0  0
   10.3381  -14.9552   23.8403 O   0  0  0  0  0  0  0  0  0  0  0  0
   11.0539  -19.7068   19.6102 O   0  0  0  0  0  0  0  0  0  0  0  0
    7.1966  -11.3400   27.0925 C   0  0  0  0  0  0  0  0  0  0  0  0
    7.6467  -12.7679   27.3140 C   0  0  0  0  0  0  0  0  0  0  0  0
    7.3876  -13.6539   26.1246 C   0  0  2  0  0  0  0  0  0  0  0  0
    6.1467  -14.4658   26.4302 C   0  0  0  0  0  0  0  0  0  0  0  0
    8.5005  -14.5919   25.8288 C   0  0  2  0  0  0  0  0  0  0  0  0
    8.2756  -15.4013   24.6460 N   0  0  0  0  0  0  0  0  0  0  0  0
    8.7736  -15.4229   27.0241 C   0  0  0  0  0  0  0  0  0  0  0  0
    9.2405  -14.8749   28.0447 O   0  0  0  0  0  0  0  0  0  0  0  0
    8.5260  -16.7727   27.0320 O   0  0  0  0  0  0  0  0  0  0  0  0
  1  2  1  0
  2  3  1  0
  4  3  1  0
  5  1  1  0
  5  4  1  0
  5  6  1  1
  7  6  2  0
  8  6  1  0
  9 14  1  0
  9  8  1  0
  9 10  1  6
 11 10  1  0
 12 16  1  0
 12 11  1  0
 13 12  2  0
 14 22  1  0
 15 14  2  0
 17 18  1  0
 19 21  1  0
 19 18  1  0
 19 20  1  1
 21 23  1  0
 21 22  1  6
 23 24  2  0
 23 25  1  0
M  END
$$$$
