PEI.pdb
     RDKit          3D

 25 25  0  0  1  0  0  0  0  0999 V2000
    8.9752  -14.7585   18.4520 N   0  0  0  0  0  0  0  0  0  0  0  0
    8.9414  -14.0465   17.1800 C   0  0  0  0  0  0  0  0  0  0  0  0
    7.9005  -12.9547   17.3182 C   0  0  0  0  0  0  0  0  0  0  0  0
    7.3637  -13.1581   18.7432 C   0  0  0  0  0  0  0  0  0  0  0  0
    8.5921  -13.7375   19.4055 C   0  0  1  0  0  0  0  0  0  0  0  0
    8.3272  -14.3700   20.7117 C   0  0  0  0  0  0  0  0  0  0  0  0
    7.8000  -13.6499   21.5911 O   0  0  0  0  0  0  0  0  0  0  0  0
    8.6466  -15.7315   20.9839 N   0  0  0  0  0  0  0  0  0  0  0  0
    8.4353  -16.4298   22.1934 C   0  0  1  0  0  0  0  0  0  0  0  0
    8.8194  -17.8415   22.3028 C   0  0  0  0  0  0  0  0  0  0  0  0
   10.2473  -18.1908   22.0274 C   0  0  0  0  0  0  0  0  0  0  0  0
   10.7087  -19.5124   22.3673 C   0  0  0  0  0  0  0  0  0  0  0  0
    9.9919  -20.3897   22.8663 O   0  0  0  0  0  0  0  0  0  0  0  0
    8.8513  -15.5948   23.3917 C   0  0  0  0  0  0  0  0  0  0  0  0
    9.9899  -15.0690   23.4643 O   0  0  0  0  0  0  0  0  0  0  0  0
   12.0438  -19.8568   22.1314 O   0  0  0  0  0  0  0  0  0  0  0  0
    6.5917  -11.5233   27.3284 C   0  0  0  0  0  0  0  0  0  0  0  0
    7.7051  -12.4821   26.9659 C   0  0  0  0  0  0  0  0  0  0  0  0
    7.3237  -13.4298   25.8599 C   0  0  2  0  0  0  0  0  0  0  0  0
    6.0574  -14.1388   26.2915 C   0  0  0  0  0  0  0  0  0  0  0  0
    8.3597  -14.4543   25.5716 C   0  0  2  0  0  0  0  0  0  0  0  0
    7.9988  -15.3538   24.4921 N   0  0  0  0  0  0  0  0  0  0  0  0
    8.6858  -15.1872   26.8168 C   0  0  0  0  0  0  0  0  0  0  0  0
    8.3428  -16.3838   26.9187 O   0  0  0  0  0  0  0  0  0  0  0  0
    9.3519  -14.5819   27.8528 O   0  0  0  0  0  0  0  0  0  0  0  0
  1  2  1  0
  2  3  1  0
  4  3  1  0
  5  1  1  0
  5  4  1  0
  5  6  1  1
  7  6  2  0
  8  6  1  0
  9 14  1  0
  9  8  1  0
  9 10  1  6
 11 10  1  0
 12 16  1  0
 12 11  1  0
 13 12  2  0
 14 22  1  0
 15 14  2  0
 17 18  1  0
 19 21  1  0
 19 18  1  0
 19 20  1  1
 21 23  1  0
 21 22  1  6
 23 24  2  0
 23 25  1  0
M  END
$$$$
