PEI.pdb
     RDKit          3D

 25 25  0  0  1  0  0  0  0  0999 V2000
    8.4715  -15.2571   19.1523 N   0  0  0  0  0  0  0  0  0  0  0  0
    8.6746  -14.6438   17.8451 C   0  0  0  0  0  0  0  0  0  0  0  0
    7.8812  -13.3534   17.8403 C   0  0  0  0  0  0  0  0  0  0  0  0
    7.2191  -13.3417   19.2265 C   0  0  0  0  0  0  0  0  0  0  0  0
    8.2497  -14.1152   20.0155 C   0  0  1  0  0  0  0  0  0  0  0  0
    7.7699  -14.5867   21.3284 C   0  0  0  0  0  0  0  0  0  0  0  0
    7.4205  -13.7083   22.1506 O   0  0  0  0  0  0  0  0  0  0  0  0
    7.6985  -15.9685   21.6683 N   0  0  0  0  0  0  0  0  0  0  0  0
    7.3844  -16.5193   22.9304 C   0  0  1  0  0  0  0  0  0  0  0  0
    7.2618  -17.9729   23.0872 C   0  0  0  0  0  0  0  0  0  0  0  0
    6.9742  -18.4966   24.4582 C   0  0  0  0  0  0  0  0  0  0  0  0
    6.8705  -19.9217   24.6411 C   0  0  0  0  0  0  0  0  0  0  0  0
    7.6995  -20.7371   24.2164 O   0  0  0  0  0  0  0  0  0  0  0  0
    8.1875  -15.8570   24.0361 C   0  0  0  0  0  0  0  0  0  0  0  0
    9.4400  -15.9418   24.0813 O   0  0  0  0  0  0  0  0  0  0  0  0
    5.7773  -20.4481   25.3371 O   0  0  0  0  0  0  0  0  0  0  0  0
    6.1323  -11.4188   26.6034 C   0  0  0  0  0  0  0  0  0  0  0  0
    6.9848  -12.4450   25.8890 C   0  0  0  0  0  0  0  0  0  0  0  0
    7.6686  -13.3971   26.8338 C   0  0  2  0  0  0  0  0  0  0  0  0
    8.6941  -12.6001   27.6120 C   0  0  0  0  0  0  0  0  0  0  0  0
    8.3655  -14.5157   26.1489 C   0  0  2  0  0  0  0  0  0  0  0  0
    7.5907  -15.1091   25.0755 N   0  0  0  0  0  0  0  0  0  0  0  0
    8.7826  -15.5226   27.1521 C   0  0  0  0  0  0  0  0  0  0  0  0
    9.6904  -15.2294   27.9581 O   0  0  0  0  0  0  0  0  0  0  0  0
    8.1958  -16.7616   27.2125 O   0  0  0  0  0  0  0  0  0  0  0  0
  1  2  1  0
  2  3  1  0
  4  3  1  0
  5  1  1  0
  5  4  1  0
  5  6  1  1
  7  6  2  0
  8  6  1  0
  9 14  1  0
  9  8  1  0
  9 10  1  6
 11 10  1  0
 12 16  1  0
 12 11  1  0
 13 12  2  0
 14 22  1  0
 15 14  2  0
 17 18  1  0
 19 21  1  0
 19 18  1  0
 19 20  1  6
 21 23  1  0
 21 22  1  6
 23 24  2  0
 23 25  1  0
M  END
$$$$
