PEI.pdb
     RDKit          3D

 25 25  0  0  1  0  0  0  0  0999 V2000
    8.8152  -14.5376   18.8989 N   0  0  0  0  0  0  0  0  0  0  0  0
    8.5287  -13.7885   17.6812 C   0  0  0  0  0  0  0  0  0  0  0  0
    7.3760  -12.8593   18.0011 C   0  0  0  0  0  0  0  0  0  0  0  0
    7.0522  -13.1909   19.4658 C   0  0  0  0  0  0  0  0  0  0  0  0
    8.4197  -13.6181   19.9460 C   0  0  1  0  0  0  0  0  0  0  0  0
    8.4060  -14.3315   21.2371 C   0  0  0  0  0  0  0  0  0  0  0  0
    7.8769  -13.7373   22.2050 O   0  0  0  0  0  0  0  0  0  0  0  0
    8.9615  -15.6334   21.4004 N   0  0  0  0  0  0  0  0  0  0  0  0
    8.9364  -16.4291   22.5671 C   0  0  1  0  0  0  0  0  0  0  0  0
    9.5298  -17.7708   22.5536 C   0  0  0  0  0  0  0  0  0  0  0  0
    9.5020  -18.5498   23.8299 C   0  0  0  0  0  0  0  0  0  0  0  0
   10.1204  -19.8506   23.8540 C   0  0  0  0  0  0  0  0  0  0  0  0
    9.5503  -20.8821   24.2331 O   0  0  0  0  0  0  0  0  0  0  0  0
    9.3048  -15.6168   23.7962 C   0  0  0  0  0  0  0  0  0  0  0  0
   10.4558  -15.1369   23.9474 O   0  0  0  0  0  0  0  0  0  0  0  0
   11.4458  -19.9903   23.4292 O   0  0  0  0  0  0  0  0  0  0  0  0
    6.1664  -11.8536   26.0064 C   0  0  0  0  0  0  0  0  0  0  0  0
    7.2675  -12.7625   25.5047 C   0  0  0  0  0  0  0  0  0  0  0  0
    7.7702  -13.7102   26.5611 C   0  0  2  0  0  0  0  0  0  0  0  0
    8.4011  -12.8729   27.6535 C   0  0  0  0  0  0  0  0  0  0  0  0
    8.7860  -14.6719   26.0617 C   0  0  2  0  0  0  0  0  0  0  0  0
    8.3915  -15.3472   24.8398 N   0  0  0  0  0  0  0  0  0  0  0  0
    9.1263  -15.6305   27.1384 C   0  0  0  0  0  0  0  0  0  0  0  0
    9.7197  -15.2100   28.1537 O   0  0  0  0  0  0  0  0  0  0  0  0
    8.8052  -16.9613   27.0428 O   0  0  0  0  0  0  0  0  0  0  0  0
  1  2  1  0
  2  3  1  0
  4  3  1  0
  5  1  1  0
  5  4  1  0
  5  6  1  1
  7  6  2  0
  8  6  1  0
  9 14  1  0
  9  8  1  0
  9 10  1  6
 11 10  1  0
 12 16  1  0
 12 11  1  0
 13 12  2  0
 14 22  1  0
 15 14  2  0
 17 18  1  0
 19 21  1  0
 19 18  1  0
 19 20  1  1
 21 23  1  0
 21 22  1  6
 23 24  2  0
 23 25  1  0
M  END
$$$$
