PEI.pdb
     RDKit          3D

 25 25  0  0  1  0  0  0  0  0999 V2000
    8.9218  -14.5951   18.9409 N   0  0  0  0  0  0  0  0  0  0  0  0
    8.5890  -13.8901   17.7086 C   0  0  0  0  0  0  0  0  0  0  0  0
    7.3703  -13.0413   18.0067 C   0  0  0  0  0  0  0  0  0  0  0  0
    7.0628  -13.3698   19.4755 C   0  0  0  0  0  0  0  0  0  0  0  0
    8.4548  -13.6884   19.9696 C   0  0  1  0  0  0  0  0  0  0  0  0
    8.4852  -14.3784   21.2731 C   0  0  0  0  0  0  0  0  0  0  0  0
    7.8192  -13.8625   22.2006 O   0  0  0  0  0  0  0  0  0  0  0  0
    9.2284  -15.5741   21.4913 N   0  0  0  0  0  0  0  0  0  0  0  0
    9.2222  -16.3803   22.6511 C   0  0  1  0  0  0  0  0  0  0  0  0
    9.9033  -17.6798   22.6456 C   0  0  0  0  0  0  0  0  0  0  0  0
    9.8443  -18.4944   23.8984 C   0  0  0  0  0  0  0  0  0  0  0  0
   10.4869  -19.7835   23.9101 C   0  0  0  0  0  0  0  0  0  0  0  0
   11.6705  -19.9707   23.5992 O   0  0  0  0  0  0  0  0  0  0  0  0
    9.5001  -15.5567   23.8963 C   0  0  0  0  0  0  0  0  0  0  0  0
   10.5569  -14.8893   24.0218 O   0  0  0  0  0  0  0  0  0  0  0  0
    9.7557  -20.9133   24.2916 O   0  0  0  0  0  0  0  0  0  0  0  0
    5.9794  -12.2322   26.1918 C   0  0  0  0  0  0  0  0  0  0  0  0
    7.1662  -13.0120   25.6685 C   0  0  0  0  0  0  0  0  0  0  0  0
    7.7545  -13.9415   26.6965 C   0  0  2  0  0  0  0  0  0  0  0  0
    8.2352  -13.0887   27.8516 C   0  0  0  0  0  0  0  0  0  0  0  0
    8.9027  -14.7364   26.1909 C   0  0  2  0  0  0  0  0  0  0  0  0
    8.6019  -15.4838   24.9844 N   0  0  0  0  0  0  0  0  0  0  0  0
    9.4082  -15.6126   27.2729 C   0  0  0  0  0  0  0  0  0  0  0  0
    9.0670  -16.8140   27.2838 O   0  0  0  0  0  0  0  0  0  0  0  0
   10.2372  -15.1339   28.2561 O   0  0  0  0  0  0  0  0  0  0  0  0
  1  2  1  0
  2  3  1  0
  4  3  1  0
  5  1  1  0
  5  4  1  0
  5  6  1  1
  7  6  2  0
  8  6  1  0
  9 14  1  0
  9  8  1  0
  9 10  1  6
 11 10  1  0
 12 16  1  0
 12 11  1  0
 13 12  2  0
 14 22  1  0
 15 14  2  0
 17 18  1  0
 19 21  1  0
 19 18  1  0
 19 20  1  1
 21 23  1  0
 21 22  1  6
 23 24  2  0
 23 25  1  0
M  END
$$$$
