PEI.pdb
     RDKit          3D

 25 25  0  0  1  0  0  0  0  0999 V2000
    8.9988  -14.7364   18.3710 N   0  0  0  0  0  0  0  0  0  0  0  0
    8.9937  -13.9983   17.1135 C   0  0  0  0  0  0  0  0  0  0  0  0
    7.9507  -12.9085   17.2510 C   0  0  0  0  0  0  0  0  0  0  0  0
    7.3822  -13.1405   18.6593 C   0  0  0  0  0  0  0  0  0  0  0  0
    8.5952  -13.7349   19.3366 C   0  0  1  0  0  0  0  0  0  0  0  0
    8.3008  -14.3938   20.6232 C   0  0  0  0  0  0  0  0  0  0  0  0
    7.7885  -13.6818   21.5179 O   0  0  0  0  0  0  0  0  0  0  0  0
    8.5770  -15.7711   20.8609 N   0  0  0  0  0  0  0  0  0  0  0  0
    8.3490  -16.4912   22.0544 C   0  0  1  0  0  0  0  0  0  0  0  0
    8.6942  -17.9151   22.1302 C   0  0  0  0  0  0  0  0  0  0  0  0
   10.1089  -18.2982   21.8325 C   0  0  0  0  0  0  0  0  0  0  0  0
   10.7614  -19.2441   22.7012 C   0  0  0  0  0  0  0  0  0  0  0  0
   10.4539  -20.4407   22.7784 O   0  0  0  0  0  0  0  0  0  0  0  0
    8.7903  -15.6960   23.2706 C   0  0  0  0  0  0  0  0  0  0  0  0
    9.9124  -15.1332   23.3175 O   0  0  0  0  0  0  0  0  0  0  0  0
   11.8109  -18.8153   23.5205 O   0  0  0  0  0  0  0  0  0  0  0  0
    6.7268  -11.5401   27.0956 C   0  0  0  0  0  0  0  0  0  0  0  0
    7.7518  -12.6271   26.8549 C   0  0  0  0  0  0  0  0  0  0  0  0
    7.3558  -13.5701   25.7501 C   0  0  2  0  0  0  0  0  0  0  0  0
    6.0420  -14.2070   26.1513 C   0  0  0  0  0  0  0  0  0  0  0  0
    8.3458  -14.6504   25.5076 C   0  0  2  0  0  0  0  0  0  0  0  0
    7.9808  -15.5352   24.4173 N   0  0  0  0  0  0  0  0  0  0  0  0
    8.5813  -15.3929   26.7674 C   0  0  0  0  0  0  0  0  0  0  0  0
    8.1528  -16.5618   26.8666 O   0  0  0  0  0  0  0  0  0  0  0  0
    9.2555  -14.8259   27.8197 O   0  0  0  0  0  0  0  0  0  0  0  0
  1  2  1  0
  2  3  1  0
  4  3  1  0
  5  1  1  0
  5  4  1  0
  5  6  1  1
  7  6  2  0
  8  6  1  0
  9 14  1  0
  9  8  1  0
  9 10  1  6
 11 10  1  0
 12 16  1  0
 12 11  1  0
 13 12  2  0
 14 22  1  0
 15 14  2  0
 17 18  1  0
 19 21  1  0
 19 18  1  0
 19 20  1  1
 21 23  1  0
 21 22  1  6
 23 24  2  0
 23 25  1  0
M  END
$$$$
