PEI.pdb
     RDKit          3D

 25 25  0  0  1  0  0  0  0  0999 V2000
    8.6443  -15.1013   18.5584 N   0  0  0  0  0  0  0  0  0  0  0  0
    8.7893  -14.5235   17.2275 C   0  0  0  0  0  0  0  0  0  0  0  0
    8.0845  -13.1829   17.2544 C   0  0  0  0  0  0  0  0  0  0  0  0
    7.5297  -13.1052   18.6849 C   0  0  0  0  0  0  0  0  0  0  0  0
    8.5632  -13.9338   19.4120 C   0  0  1  0  0  0  0  0  0  0  0  0
    8.1526  -14.3515   20.7659 C   0  0  0  0  0  0  0  0  0  0  0  0
    7.9229  -13.4388   21.5929 O   0  0  0  0  0  0  0  0  0  0  0  0
    8.0171  -15.7199   21.1387 N   0  0  0  0  0  0  0  0  0  0  0  0
    7.5584  -16.2233   22.3761 C   0  0  1  0  0  0  0  0  0  0  0  0
    7.4525  -17.6716   22.5856 C   0  0  0  0  0  0  0  0  0  0  0  0
    7.0196  -18.1427   23.9374 C   0  0  0  0  0  0  0  0  0  0  0  0
    6.9695  -19.5606   24.1868 C   0  0  0  0  0  0  0  0  0  0  0  0
    5.9749  -20.1523   24.6263 O   0  0  0  0  0  0  0  0  0  0  0  0
    8.1978  -15.4885   23.5411 C   0  0  0  0  0  0  0  0  0  0  0  0
    9.4431  -15.3465   23.6263 O   0  0  0  0  0  0  0  0  0  0  0  0
    8.0980  -20.3452   23.9266 O   0  0  0  0  0  0  0  0  0  0  0  0
    6.9867  -11.0490   27.6776 C   0  0  0  0  0  0  0  0  0  0  0  0
    7.8392  -12.2216   27.2434 C   0  0  0  0  0  0  0  0  0  0  0  0
    7.2099  -13.0236   26.1355 C   0  0  2  0  0  0  0  0  0  0  0  0
    5.9209  -13.6048   26.6769 C   0  0  0  0  0  0  0  0  0  0  0  0
    8.0615  -14.1406   25.6529 C   0  0  2  0  0  0  0  0  0  0  0  0
    7.4475  -14.9206   24.5949 N   0  0  0  0  0  0  0  0  0  0  0  0
    8.4618  -14.9853   26.8019 C   0  0  0  0  0  0  0  0  0  0  0  0
    9.1804  -14.4875   27.6938 O   0  0  0  0  0  0  0  0  0  0  0  0
    8.0618  -16.2940   26.9047 O   0  0  0  0  0  0  0  0  0  0  0  0
  1  2  1  0
  2  3  1  0
  4  3  1  0
  5  1  1  0
  5  4  1  0
  5  6  1  1
  7  6  2  0
  8  6  1  0
  9 14  1  0
  9  8  1  0
  9 10  1  1
 11 10  1  0
 12 16  1  0
 12 11  1  0
 13 12  2  0
 14 22  1  0
 15 14  2  0
 17 18  1  0
 19 21  1  0
 19 18  1  0
 19 20  1  1
 21 23  1  0
 21 22  1  6
 23 24  2  0
 23 25  1  0
M  END
$$$$
