PEI.pdb
     RDKit          3D

 25 25  0  0  1  0  0  0  0  0999 V2000
    8.7334  -14.8581   18.8163 N   0  0  0  0  0  0  0  0  0  0  0  0
    8.5722  -14.1069   17.5770 C   0  0  0  0  0  0  0  0  0  0  0  0
    7.5413  -13.0310   17.8496 C   0  0  0  0  0  0  0  0  0  0  0  0
    7.1456  -13.2846   19.3122 C   0  0  0  0  0  0  0  0  0  0  0  0
    8.4362  -13.8716   19.8346 C   0  0  1  0  0  0  0  0  0  0  0  0
    8.3028  -14.5475   21.1391 C   0  0  0  0  0  0  0  0  0  0  0  0
    7.6217  -13.9609   22.0118 O   0  0  0  0  0  0  0  0  0  0  0  0
    8.9099  -15.8062   21.4168 N   0  0  0  0  0  0  0  0  0  0  0  0
    8.8105  -16.5539   22.6110 C   0  0  1  0  0  0  0  0  0  0  0  0
    9.3057  -17.9342   22.6562 C   0  0  0  0  0  0  0  0  0  0  0  0
    9.0994  -18.6994   23.9245 C   0  0  0  0  0  0  0  0  0  0  0  0
    9.5788  -20.0561   23.9937 C   0  0  0  0  0  0  0  0  0  0  0  0
    8.9691  -21.0308   23.5346 O   0  0  0  0  0  0  0  0  0  0  0  0
    9.2187  -15.7248   23.8160 C   0  0  0  0  0  0  0  0  0  0  0  0
   10.3989  -15.3226   23.9691 O   0  0  0  0  0  0  0  0  0  0  0  0
   10.8054  -20.3216   24.6113 O   0  0  0  0  0  0  0  0  0  0  0  0
    5.9632  -11.8561   25.7375 C   0  0  0  0  0  0  0  0  0  0  0  0
    7.0727  -12.7790   25.2819 C   0  0  0  0  0  0  0  0  0  0  0  0
    7.6635  -13.5840   26.4086 C   0  0  2  0  0  0  0  0  0  0  0  0
    8.2884  -12.6060   27.3810 C   0  0  0  0  0  0  0  0  0  0  0  0
    8.7102  -14.5419   25.9693 C   0  0  2  0  0  0  0  0  0  0  0  0
    8.3124  -15.3524   24.8337 N   0  0  0  0  0  0  0  0  0  0  0  0
    9.1309  -15.3724   27.1214 C   0  0  0  0  0  0  0  0  0  0  0  0
    8.5774  -16.4774   27.3013 O   0  0  0  0  0  0  0  0  0  0  0  0
   10.1093  -14.9546   27.9884 O   0  0  0  0  0  0  0  0  0  0  0  0
  1  2  1  0
  2  3  1  0
  4  3  1  0
  5  1  1  0
  5  4  1  0
  5  6  1  1
  7  6  2  0
  8  6  1  0
  9 14  1  0
  9  8  1  0
  9 10  1  6
 11 10  1  0
 12 16  1  0
 12 11  1  0
 13 12  2  0
 14 22  1  0
 15 14  2  0
 17 18  1  0
 19 21  1  0
 19 18  1  0
 19 20  1  1
 21 23  1  0
 21 22  1  6
 23 24  2  0
 23 25  1  0
M  END
$$$$
