PEI.pdb
     RDKit          3D

 25 25  0  0  1  0  0  0  0  0999 V2000
    9.1597  -14.6207   19.1031 N   0  0  0  0  0  0  0  0  0  0  0  0
    9.0473  -13.9188   17.8299 C   0  0  0  0  0  0  0  0  0  0  0  0
    7.7738  -13.1010   17.8931 C   0  0  0  0  0  0  0  0  0  0  0  0
    7.2038  -13.4429   19.2782 C   0  0  0  0  0  0  0  0  0  0  0  0
    8.4856  -13.7298   20.0252 C   0  0  1  0  0  0  0  0  0  0  0  0
    8.2873  -14.4242   21.3116 C   0  0  0  0  0  0  0  0  0  0  0  0
    7.5950  -13.8323   22.1719 O   0  0  0  0  0  0  0  0  0  0  0  0
    8.8461  -15.7058   21.5859 N   0  0  0  0  0  0  0  0  0  0  0  0
    8.7182  -16.4524   22.7780 C   0  0  1  0  0  0  0  0  0  0  0  0
    9.1069  -17.8669   22.8037 C   0  0  0  0  0  0  0  0  0  0  0  0
   10.4644  -18.2184   22.2837 C   0  0  0  0  0  0  0  0  0  0  0  0
   10.9236  -19.5764   22.4253 C   0  0  0  0  0  0  0  0  0  0  0  0
   10.3717  -20.5528   21.9012 O   0  0  0  0  0  0  0  0  0  0  0  0
    9.2177  -15.6658   23.9772 C   0  0  0  0  0  0  0  0  0  0  0  0
   10.3699  -15.1660   24.0031 O   0  0  0  0  0  0  0  0  0  0  0  0
   12.0603  -19.8414   23.1962 O   0  0  0  0  0  0  0  0  0  0  0  0
    5.9629  -12.0641   26.1090 C   0  0  0  0  0  0  0  0  0  0  0  0
    7.1329  -12.8840   25.6099 C   0  0  0  0  0  0  0  0  0  0  0  0
    7.8086  -13.6659   26.7048 C   0  0  2  0  0  0  0  0  0  0  0  0
    8.4419  -12.6647   27.6477 C   0  0  0  0  0  0  0  0  0  0  0  0
    8.8689  -14.5824   26.2131 C   0  0  2  0  0  0  0  0  0  0  0  0
    8.4323  -15.4436   25.1303 N   0  0  0  0  0  0  0  0  0  0  0  0
    9.4147  -15.3579   27.3510 C   0  0  0  0  0  0  0  0  0  0  0  0
   10.0347  -14.7523   28.2502 O   0  0  0  0  0  0  0  0  0  0  0  0
    9.2539  -16.7181   27.4357 O   0  0  0  0  0  0  0  0  0  0  0  0
  1  2  1  0
  2  3  1  0
  4  3  1  0
  5  1  1  0
  5  4  1  0
  5  6  1  1
  7  6  2  0
  8  6  1  0
  9 14  1  0
  9  8  1  0
  9 10  1  6
 11 10  1  0
 12 16  1  0
 12 11  1  0
 13 12  2  0
 14 22  1  0
 15 14  2  0
 17 18  1  0
 19 21  1  0
 19 18  1  0
 19 20  1  1
 21 23  1  0
 21 22  1  6
 23 24  2  0
 23 25  1  0
M  END
$$$$
