PEI.pdb
     RDKit          3D

 25 25  0  0  1  0  0  0  0  0999 V2000
    9.0851  -14.7518   18.5703 N   0  0  0  0  0  0  0  0  0  0  0  0
    8.9505  -14.0519   17.2983 C   0  0  0  0  0  0  0  0  0  0  0  0
    7.7365  -13.1542   17.4202 C   0  0  0  0  0  0  0  0  0  0  0  0
    7.2197  -13.4508   18.8362 C   0  0  0  0  0  0  0  0  0  0  0  0
    8.5183  -13.8143   19.5180 C   0  0  1  0  0  0  0  0  0  0  0  0
    8.3445  -14.4870   20.8194 C   0  0  0  0  0  0  0  0  0  0  0  0
    7.7255  -13.8523   21.7048 O   0  0  0  0  0  0  0  0  0  0  0  0
    8.8472  -15.7942   21.0808 N   0  0  0  0  0  0  0  0  0  0  0  0
    8.7750  -16.5059   22.2986 C   0  0  1  0  0  0  0  0  0  0  0  0
    9.3760  -17.8401   22.4060 C   0  0  0  0  0  0  0  0  0  0  0  0
    9.1917  -18.5775   23.6940 C   0  0  0  0  0  0  0  0  0  0  0  0
    9.8317  -19.8587   23.8493 C   0  0  0  0  0  0  0  0  0  0  0  0
   10.4188  -20.4552   22.9371 O   0  0  0  0  0  0  0  0  0  0  0  0
    9.0843  -15.6059   23.4821 C   0  0  0  0  0  0  0  0  0  0  0  0
   10.2217  -15.0977   23.6431 O   0  0  0  0  0  0  0  0  0  0  0  0
    9.8058  -20.4941   25.0951 O   0  0  0  0  0  0  0  0  0  0  0  0
    6.8240  -11.0949   26.7999 C   0  0  0  0  0  0  0  0  0  0  0  0
    7.7700  -12.2758   26.7683 C   0  0  0  0  0  0  0  0  0  0  0  0
    7.4230  -13.2746   25.6965 C   0  0  2  0  0  0  0  0  0  0  0  0
    6.0870  -13.8842   26.0650 C   0  0  0  0  0  0  0  0  0  0  0  0
    8.4168  -14.3700   25.5610 C   0  0  2  0  0  0  0  0  0  0  0  0
    8.1277  -15.2813   24.4698 N   0  0  0  0  0  0  0  0  0  0  0  0
    8.5457  -15.0794   26.8549 C   0  0  0  0  0  0  0  0  0  0  0  0
    8.9697  -14.4503   27.8469 O   0  0  0  0  0  0  0  0  0  0  0  0
    8.2113  -16.4041   26.9838 O   0  0  0  0  0  0  0  0  0  0  0  0
  1  2  1  0
  2  3  1  0
  4  3  1  0
  5  1  1  0
  5  4  1  0
  5  6  1  1
  7  6  2  0
  8  6  1  0
  9 14  1  0
  9  8  1  0
  9 10  1  6
 11 10  1  0
 12 16  1  0
 12 11  1  0
 13 12  2  0
 14 22  1  0
 15 14  2  0
 17 18  1  0
 19 21  1  0
 19 18  1  0
 19 20  1  1
 21 23  1  0
 21 22  1  6
 23 24  2  0
 23 25  1  0
M  END
$$$$
