QFP.pdb
     RDKit          3D

 28 29  0  0  1  0  0  0  0  0999 V2000
    0.6510  -19.0626   23.0101 N   0  0  0  0  0  0  0  0  0  0  0  0
    1.1346  -20.1129   22.1951 C   0  0  0  0  0  0  0  0  0  0  0  0
    0.4328  -21.1360   22.0303 O   0  0  0  0  0  0  0  0  0  0  0  0
    2.4544  -20.0255   21.5337 C   0  0  0  0  0  0  0  0  0  0  0  0
    3.1258  -18.6903   21.8493 C   0  0  0  0  0  0  0  0  0  0  0  0
    4.5062  -18.9142   22.3957 C   0  0  2  0  0  0  0  0  0  0  0  0
    4.4038  -19.7686   23.5572 N   0  0  0  0  0  0  0  0  0  0  0  0
    5.0681  -17.6108   22.8237 C   0  0  0  0  0  0  0  0  0  0  0  0
    5.0169  -16.5814   22.0794 O   0  0  0  0  0  0  0  0  0  0  0  0
    5.6884  -17.4480   24.0800 N   0  0  0  0  0  0  0  0  0  0  0  0
    6.3476  -16.2176   24.4755 C   0  0  1  0  0  0  0  0  0  0  0  0
    6.3139  -16.0597   25.9811 C   0  0  0  0  0  0  0  0  0  0  0  0
    6.7377  -14.6627   26.3389 C   0  0  0  0  0  0  0  0  0  0  0  0
    8.0518  -14.3531   26.6008 C   0  0  0  0  0  0  0  0  0  0  0  0
    8.3593  -13.0475   26.9227 C   0  0  0  0  0  0  0  0  0  0  0  0
    7.3857  -12.0636   26.9852 C   0  0  0  0  0  0  0  0  0  0  0  0
    6.0696  -12.3762   26.7224 C   0  0  0  0  0  0  0  0  0  0  0  0
    5.7806  -13.6877   26.4020 C   0  0  0  0  0  0  0  0  0  0  0  0
    7.7108  -16.1551   23.9108 C   0  0  0  0  0  0  0  0  0  0  0  0
    8.5138  -17.0986   24.2406 O   0  0  0  0  0  0  0  0  0  0  0  0
    8.1997  -15.1617   23.0508 N   0  0  0  0  0  0  0  0  0  0  0  0
    7.4881  -13.9732   22.6322 C   0  0  0  0  0  0  0  0  0  0  0  0
    8.1724  -13.5994   21.2973 C   0  0  0  0  0  0  0  0  0  0  0  0
    9.6106  -13.8458   21.7023 C   0  0  0  0  0  0  0  0  0  0  0  0
    9.5006  -15.1661   22.4279 C   0  0  1  0  0  0  0  0  0  0  0  0
   10.6052  -15.3530   23.4021 C   0  0  0  0  0  0  0  0  0  0  0  0
   10.4882  -15.2987   24.6342 O   0  0  0  0  0  0  0  0  0  0  0  0
   11.8643  -15.6082   22.8793 O   0  0  0  0  0  0  0  0  0  0  0  0
  1  2  1  0
  2  3  2  0
  4  2  1  0
  4  5  1  0
  5  6  1  0
  6  8  1  0
  6  7  1  1
  8  9  2  0
 10 11  1  0
 10  8  1  0
 11 12  1  1
 13 14  2  0
 13 12  1  0
 15 14  1  0
 16 15  2  0
 17 16  1  0
 17 18  2  0
 18 13  1  0
 19 11  1  0
 20 19  2  0
 21 19  1  0
 21 25  1  0
 22 23  1  0
 22 21  1  0
 23 24  1  0
 24 25  1  0
 25 26  1  1
 26 28  1  0
 27 26  2  0
M  END
$$$$
