QFP.pdb
     RDKit          3D

 28 29  0  0  1  0  0  0  0  0999 V2000
    9.1866  -21.8496   23.8585 N   0  0  0  0  0  0  0  0  0  0  0  0
    8.7180  -21.5309   22.5624 C   0  0  0  0  0  0  0  0  0  0  0  0
    9.4607  -21.7282   21.5745 O   0  0  0  0  0  0  0  0  0  0  0  0
    7.3665  -20.9687   22.3517 C   0  0  0  0  0  0  0  0  0  0  0  0
    6.6459  -20.7886   23.6863 C   0  0  0  0  0  0  0  0  0  0  0  0
    5.5171  -19.8088   23.5442 C   0  0  2  0  0  0  0  0  0  0  0  0
    4.9451  -19.9604   22.2254 N   0  0  0  0  0  0  0  0  0  0  0  0
    6.0598  -18.4342   23.6618 C   0  0  0  0  0  0  0  0  0  0  0  0
    6.3465  -17.7365   22.6386 O   0  0  0  0  0  0  0  0  0  0  0  0
    6.2850  -17.8314   24.9170 N   0  0  0  0  0  0  0  0  0  0  0  0
    6.7133  -16.4525   25.0593 C   0  0  1  0  0  0  0  0  0  0  0  0
    6.6120  -16.0135   26.5048 C   0  0  0  0  0  0  0  0  0  0  0  0
    6.8873  -14.5384   26.5916 C   0  0  0  0  0  0  0  0  0  0  0  0
    5.8861  -13.6083   26.4383 C   0  0  0  0  0  0  0  0  0  0  0  0
    6.2206  -12.2732   26.5312 C   0  0  0  0  0  0  0  0  0  0  0  0
    7.5221  -11.8631   26.7715 C   0  0  0  0  0  0  0  0  0  0  0  0
    8.5237  -12.7969   26.9248 C   0  0  0  0  0  0  0  0  0  0  0  0
    8.1704  -14.1281   26.8286 C   0  0  0  0  0  0  0  0  0  0  0  0
    8.0607  -16.2662   24.4840 C   0  0  0  0  0  0  0  0  0  0  0  0
    8.9999  -16.9889   24.9731 O   0  0  0  0  0  0  0  0  0  0  0  0
    8.3998  -15.3748   23.4563 N   0  0  0  0  0  0  0  0  0  0  0  0
    7.5122  -14.4158   22.8345 C   0  0  0  0  0  0  0  0  0  0  0  0
    8.1580  -14.1775   21.4503 C   0  0  0  0  0  0  0  0  0  0  0  0
    9.6067  -14.1042   21.8849 C   0  0  0  0  0  0  0  0  0  0  0  0
    9.6985  -15.2732   22.8371 C   0  0  1  0  0  0  0  0  0  0  0  0
   10.7945  -15.0962   23.8228 C   0  0  0  0  0  0  0  0  0  0  0  0
   10.6399  -14.9179   25.0389 O   0  0  0  0  0  0  0  0  0  0  0  0
   12.0909  -15.1354   23.3311 O   0  0  0  0  0  0  0  0  0  0  0  0
  1  2  1  0
  2  3  2  0
  4  2  1  0
  4  5  1  0
  5  6  1  0
  6  8  1  0
  6  7  1  6
  8  9  2  0
 10 11  1  0
 10  8  1  0
 11 12  1  1
 13 14  2  0
 13 12  1  0
 15 14  1  0
 16 15  2  0
 17 16  1  0
 17 18  2  0
 18 13  1  0
 19 11  1  0
 20 19  2  0
 21 19  1  0
 21 25  1  0
 22 23  1  0
 22 21  1  0
 23 24  1  0
 24 25  1  0
 25 26  1  1
 26 28  1  0
 27 26  2  0
M  END
$$$$
