QFP.pdb
     RDKit          3D

 28 29  0  0  1  0  0  0  0  0999 V2000
   14.1900  -17.3901   18.4408 N   0  0  0  0  0  0  0  0  0  0  0  0
   12.9206  -17.9533   18.7101 C   0  0  0  0  0  0  0  0  0  0  0  0
   12.0965  -18.0858   17.7775 O   0  0  0  0  0  0  0  0  0  0  0  0
   12.5480  -18.3891   20.0733 C   0  0  0  0  0  0  0  0  0  0  0  0
   12.1189  -17.1931   20.9208 C   0  0  0  0  0  0  0  0  0  0  0  0
   10.6469  -17.2567   21.2095 C   0  0  2  0  0  0  0  0  0  0  0  0
    9.9302  -16.9091   20.0033 N   0  0  0  0  0  0  0  0  0  0  0  0
   10.3203  -16.2538   22.2513 C   0  0  0  0  0  0  0  0  0  0  0  0
   10.8922  -15.1191   22.2927 O   0  0  0  0  0  0  0  0  0  0  0  0
    9.3573  -16.5092   23.2497 N   0  0  0  0  0  0  0  0  0  0  0  0
    8.9747  -15.5215   24.2413 C   0  0  1  0  0  0  0  0  0  0  0  0
    7.5056  -15.1798   24.1082 C   0  0  0  0  0  0  0  0  0  0  0  0
    7.1690  -14.0728   25.0675 C   0  0  0  0  0  0  0  0  0  0  0  0
    6.4589  -14.3101   26.2211 C   0  0  0  0  0  0  0  0  0  0  0  0
    6.1897  -13.2403   27.0493 C   0  0  0  0  0  0  0  0  0  0  0  0
    6.6145  -11.9573   26.7438 C   0  0  0  0  0  0  0  0  0  0  0  0
    7.3259  -11.7219   25.5874 C   0  0  0  0  0  0  0  0  0  0  0  0
    7.5859  -12.8044   24.7708 C   0  0  0  0  0  0  0  0  0  0  0  0
    9.3498  -15.9746   25.5959 C   0  0  0  0  0  0  0  0  0  0  0  0
    9.2663  -17.2332   25.8251 O   0  0  0  0  0  0  0  0  0  0  0  0
    9.7872  -15.1543   26.6454 N   0  0  0  0  0  0  0  0  0  0  0  0
    9.7839  -13.7072   26.6524 C   0  0  0  0  0  0  0  0  0  0  0  0
   10.8771  -13.3531   27.6865 C   0  0  0  0  0  0  0  0  0  0  0  0
   10.5362  -14.3856   28.7403 C   0  0  0  0  0  0  0  0  0  0  0  0
   10.3268  -15.6222   27.8985 C   0  0  1  0  0  0  0  0  0  0  0  0
    9.4439  -16.6059   28.5746 C   0  0  0  0  0  0  0  0  0  0  0  0
    8.2848  -16.8788   28.2331 O   0  0  0  0  0  0  0  0  0  0  0  0
    9.9698  -17.2661   29.6753 O   0  0  0  0  0  0  0  0  0  0  0  0
  1  2  1  0
  2  3  2  0
  4  2  1  0
  4  5  1  0
  5  6  1  0
  6  8  1  0
  6  7  1  6
  8  9  2  0
 10 11  1  0
 10  8  1  0
 11 12  1  1
 13 14  2  0
 13 12  1  0
 15 14  1  0
 16 15  2  0
 17 16  1  0
 17 18  2  0
 18 13  1  0
 19 11  1  0
 20 19  2  0
 21 19  1  0
 21 25  1  0
 22 23  1  0
 22 21  1  0
 23 24  1  0
 24 25  1  0
 25 26  1  1
 26 28  1  0
 27 26  2  0
M  END
$$$$
