QFP.pdb
     RDKit          3D

 28 29  0  0  1  0  0  0  0  0999 V2000
   13.4960  -17.8491   18.9144 N   0  0  0  0  0  0  0  0  0  0  0  0
   13.7302  -16.6879   19.6875 C   0  0  0  0  0  0  0  0  0  0  0  0
   14.8762  -16.1854   19.7102 O   0  0  0  0  0  0  0  0  0  0  0  0
   12.6464  -16.0555   20.4701 C   0  0  0  0  0  0  0  0  0  0  0  0
   11.3572  -16.8665   20.3546 C   0  0  0  0  0  0  0  0  0  0  0  0
   11.0489  -17.5485   21.6561 C   0  0  2  0  0  0  0  0  0  0  0  0
    9.9203  -18.4288   21.4536 N   0  0  0  0  0  0  0  0  0  0  0  0
   10.6661  -16.5219   22.6548 C   0  0  0  0  0  0  0  0  0  0  0  0
   11.4836  -15.6314   23.0484 O   0  0  0  0  0  0  0  0  0  0  0  0
    9.3738  -16.4823   23.2187 N   0  0  0  0  0  0  0  0  0  0  0  0
    8.9763  -15.4902   24.1999 C   0  0  1  0  0  0  0  0  0  0  0  0
    7.5198  -15.1191   24.0170 C   0  0  0  0  0  0  0  0  0  0  0  0
    7.1680  -14.0184   24.9781 C   0  0  0  0  0  0  0  0  0  0  0  0
    6.4774  -14.2702   26.1404 C   0  0  0  0  0  0  0  0  0  0  0  0
    6.1923  -13.2053   26.9697 C   0  0  0  0  0  0  0  0  0  0  0  0
    6.5825  -11.9131   26.6568 C   0  0  0  0  0  0  0  0  0  0  0  0
    7.2744  -11.6632   25.4916 C   0  0  0  0  0  0  0  0  0  0  0  0
    7.5508  -12.7410   24.6741 C   0  0  0  0  0  0  0  0  0  0  0  0
    9.2950  -15.9546   25.5651 C   0  0  0  0  0  0  0  0  0  0  0  0
    9.1683  -17.2104   25.7897 O   0  0  0  0  0  0  0  0  0  0  0  0
    9.7220  -15.1478   26.6293 N   0  0  0  0  0  0  0  0  0  0  0  0
    9.6612  -13.7028   26.6791 C   0  0  0  0  0  0  0  0  0  0  0  0
   10.7616  -13.3346   27.7006 C   0  0  0  0  0  0  0  0  0  0  0  0
   10.4851  -14.4100   28.7302 C   0  0  0  0  0  0  0  0  0  0  0  0
   10.3069  -15.6293   27.8566 C   0  0  1  0  0  0  0  0  0  0  0  0
    9.4788  -16.6670   28.5212 C   0  0  0  0  0  0  0  0  0  0  0  0
    9.8350  -17.3539   29.4887 O   0  0  0  0  0  0  0  0  0  0  0  0
    8.2066  -16.8751   28.0094 O   0  0  0  0  0  0  0  0  0  0  0  0
  1  2  1  0
  2  3  2  0
  4  2  1  0
  4  5  1  0
  5  6  1  0
  6  8  1  0
  6  7  1  6
  8  9  2  0
 10 11  1  0
 10  8  1  0
 11 12  1  1
 13 14  2  0
 13 12  1  0
 15 14  1  0
 16 15  2  0
 17 16  1  0
 17 18  2  0
 18 13  1  0
 19 11  1  0
 20 19  2  0
 21 19  1  0
 21 25  1  0
 22 23  1  0
 22 21  1  0
 23 24  1  0
 24 25  1  0
 25 26  1  1
 26 28  1  0
 27 26  2  0
M  END
$$$$
