QFP.pdb
     RDKit          3D

 28 29  0  0  1  0  0  0  0  0999 V2000
   14.9191  -17.6589   21.5416 N   0  0  0  0  0  0  0  0  0  0  0  0
   14.2041  -16.9089   20.5786 C   0  0  0  0  0  0  0  0  0  0  0  0
   14.5290  -16.9885   19.3725 O   0  0  0  0  0  0  0  0  0  0  0  0
   13.0793  -16.0319   20.9695 C   0  0  0  0  0  0  0  0  0  0  0  0
   11.7476  -16.6410   20.5351 C   0  0  0  0  0  0  0  0  0  0  0  0
   11.0980  -17.3547   21.6853 C   0  0  2  0  0  0  0  0  0  0  0  0
    9.9129  -18.0229   21.1966 N   0  0  0  0  0  0  0  0  0  0  0  0
   10.6847  -16.3532   22.6972 C   0  0  0  0  0  0  0  0  0  0  0  0
   11.4932  -15.4816   23.1474 O   0  0  0  0  0  0  0  0  0  0  0  0
    9.3718  -16.3178   23.2115 N   0  0  0  0  0  0  0  0  0  0  0  0
    8.9569  -15.3813   24.2390 C   0  0  1  0  0  0  0  0  0  0  0  0
    7.4953  -15.0237   24.0701 C   0  0  0  0  0  0  0  0  0  0  0  0
    7.1178  -13.9963   25.1002 C   0  0  0  0  0  0  0  0  0  0  0  0
    6.3692  -14.3257   26.2057 C   0  0  0  0  0  0  0  0  0  0  0  0
    6.0639  -13.3248   27.1047 C   0  0  0  0  0  0  0  0  0  0  0  0
    6.4907  -12.0203   26.9154 C   0  0  0  0  0  0  0  0  0  0  0  0
    7.2408  -11.6925   25.8068 C   0  0  0  0  0  0  0  0  0  0  0  0
    7.5365  -12.7070   24.9182 C   0  0  0  0  0  0  0  0  0  0  0  0
    9.2795  -15.9074   25.5808 C   0  0  0  0  0  0  0  0  0  0  0  0
    9.1211  -17.1671   25.7580 O   0  0  0  0  0  0  0  0  0  0  0  0
    9.7416  -15.1547   26.6697 N   0  0  0  0  0  0  0  0  0  0  0  0
    9.8082  -13.7108   26.7389 C   0  0  0  0  0  0  0  0  0  0  0  0
   10.9029  -13.4548   27.7999 C   0  0  0  0  0  0  0  0  0  0  0  0
   10.4982  -14.5133   28.8043 C   0  0  0  0  0  0  0  0  0  0  0  0
   10.2408  -15.7013   27.9076 C   0  0  1  0  0  0  0  0  0  0  0  0
    9.3022  -16.6685   28.5304 C   0  0  0  0  0  0  0  0  0  0  0  0
    8.1472  -16.8936   28.1434 O   0  0  0  0  0  0  0  0  0  0  0  0
    9.7669  -17.3702   29.6329 O   0  0  0  0  0  0  0  0  0  0  0  0
  1  2  1  0
  2  3  2  0
  4  2  1  0
  4  5  1  0
  5  6  1  0
  6  8  1  0
  6  7  1  6
  8  9  2  0
 10 11  1  0
 10  8  1  0
 11 12  1  1
 13 14  2  0
 13 12  1  0
 15 14  1  0
 16 15  2  0
 17 16  1  0
 17 18  2  0
 18 13  1  0
 19 11  1  0
 20 19  2  0
 21 19  1  0
 21 25  1  0
 22 23  1  0
 22 21  1  0
 23 24  1  0
 24 25  1  0
 25 26  1  1
 26 28  1  0
 27 26  2  0
M  END
$$$$
