QFP.pdb
     RDKit          3D

 28 29  0  0  1  0  0  0  0  0999 V2000
    9.8485  -21.0080   20.1984 N   0  0  0  0  0  0  0  0  0  0  0  0
   10.4888  -20.4052   21.3064 C   0  0  0  0  0  0  0  0  0  0  0  0
   10.0292  -20.5879   22.4561 O   0  0  0  0  0  0  0  0  0  0  0  0
   11.6917  -19.5626   21.1326 C   0  0  0  0  0  0  0  0  0  0  0  0
   11.6454  -18.3601   22.0733 C   0  0  0  0  0  0  0  0  0  0  0  0
   10.7755  -17.2793   21.4994 C   0  0  2  0  0  0  0  0  0  0  0  0
   11.5190  -16.5968   20.4646 N   0  0  0  0  0  0  0  0  0  0  0  0
   10.4597  -16.3019   22.5685 C   0  0  0  0  0  0  0  0  0  0  0  0
   11.3116  -15.4477   22.9692 O   0  0  0  0  0  0  0  0  0  0  0  0
    9.1962  -16.2712   23.1948 N   0  0  0  0  0  0  0  0  0  0  0  0
    8.8529  -15.3049   24.2210 C   0  0  1  0  0  0  0  0  0  0  0  0
    7.4073  -14.8762   24.0817 C   0  0  0  0  0  0  0  0  0  0  0  0
    7.1043  -13.8249   25.1123 C   0  0  0  0  0  0  0  0  0  0  0  0
    6.4565  -14.1318   26.2859 C   0  0  0  0  0  0  0  0  0  0  0  0
    6.2147  -13.1099   27.1803 C   0  0  0  0  0  0  0  0  0  0  0  0
    6.6060  -11.8063   26.9206 C   0  0  0  0  0  0  0  0  0  0  0  0
    7.2551  -11.5011   25.7440 C   0  0  0  0  0  0  0  0  0  0  0  0
    7.4885  -12.5365   24.8609 C   0  0  0  0  0  0  0  0  0  0  0  0
    9.1803  -15.8330   25.5608 C   0  0  0  0  0  0  0  0  0  0  0  0
    8.9491  -17.0781   25.7605 O   0  0  0  0  0  0  0  0  0  0  0  0
    9.7190  -15.0969   26.6256 N   0  0  0  0  0  0  0  0  0  0  0  0
    9.7616  -13.6540   26.7269 C   0  0  0  0  0  0  0  0  0  0  0  0
   10.9383  -13.3992   27.6965 C   0  0  0  0  0  0  0  0  0  0  0  0
   10.6435  -14.4908   28.7036 C   0  0  0  0  0  0  0  0  0  0  0  0
   10.3343  -15.6621   27.8013 C   0  0  1  0  0  0  0  0  0  0  0  0
    9.4730  -16.6654   28.4765 C   0  0  0  0  0  0  0  0  0  0  0  0
    8.2847  -16.8858   28.2045 O   0  0  0  0  0  0  0  0  0  0  0  0
   10.0564  -17.4094   29.4914 O   0  0  0  0  0  0  0  0  0  0  0  0
  1  2  1  0
  2  3  2  0
  4  2  1  0
  4  5  1  0
  5  6  1  0
  6  8  1  0
  6  7  1  6
  8  9  2  0
 10 11  1  0
 10  8  1  0
 11 12  1  1
 13 14  2  0
 13 12  1  0
 15 14  1  0
 16 15  2  0
 17 16  1  0
 17 18  2  0
 18 13  1  0
 19 11  1  0
 20 19  2  0
 21 19  1  0
 21 25  1  0
 22 23  1  0
 22 21  1  0
 23 24  1  0
 24 25  1  0
 25 26  1  1
 26 28  1  0
 27 26  2  0
M  END
$$$$
