QFP.pdb
     RDKit          3D

 28 29  0  0  1  0  0  0  0  0999 V2000
   14.0091  -18.9335   20.6790 N   0  0  0  0  0  0  0  0  0  0  0  0
   13.0037  -19.6762   20.0168 C   0  0  0  0  0  0  0  0  0  0  0  0
   13.3286  -20.6574   19.3110 O   0  0  0  0  0  0  0  0  0  0  0  0
   11.5749  -19.3156   20.1422 C   0  0  0  0  0  0  0  0  0  0  0  0
   11.4017  -18.1299   21.0894 C   0  0  0  0  0  0  0  0  0  0  0  0
    9.9453  -17.8151   21.2737 C   0  0  2  0  0  0  0  0  0  0  0  0
    9.4348  -17.2757   20.0335 N   0  0  0  0  0  0  0  0  0  0  0  0
    9.8096  -16.7778   22.3241 C   0  0  0  0  0  0  0  0  0  0  0  0
   10.6751  -15.8589   22.4751 O   0  0  0  0  0  0  0  0  0  0  0  0
    8.7117  -16.7589   23.2094 N   0  0  0  0  0  0  0  0  0  0  0  0
    8.5299  -15.7254   24.2114 C   0  0  1  0  0  0  0  0  0  0  0  0
    7.0912  -15.2536   24.2298 C   0  0  0  0  0  0  0  0  0  0  0  0
    6.9758  -14.0619   25.1383 C   0  0  0  0  0  0  0  0  0  0  0  0
    7.4475  -12.8246   24.7673 C   0  0  0  0  0  0  0  0  0  0  0  0
    7.3042  -11.7813   25.6583 C   0  0  0  0  0  0  0  0  0  0  0  0
    6.7049  -11.9565   26.8953 C   0  0  0  0  0  0  0  0  0  0  0  0
    6.2329  -13.1973   27.2649 C   0  0  0  0  0  0  0  0  0  0  0  0
    6.3850  -14.2293   26.3605 C   0  0  0  0  0  0  0  0  0  0  0  0
    9.0105  -16.1898   25.5283 C   0  0  0  0  0  0  0  0  0  0  0  0
    8.8312  -17.4295   25.8016 O   0  0  0  0  0  0  0  0  0  0  0  0
    9.6422  -15.3991   26.4986 N   0  0  0  0  0  0  0  0  0  0  0  0
    9.7794  -13.9589   26.4650 C   0  0  0  0  0  0  0  0  0  0  0  0
   11.0128  -13.6973   27.3595 C   0  0  0  0  0  0  0  0  0  0  0  0
   10.6966  -14.6727   28.4737 C   0  0  0  0  0  0  0  0  0  0  0  0
   10.2739  -15.8967   27.6959 C   0  0  1  0  0  0  0  0  0  0  0  0
    9.3833  -16.7763   28.4943 C   0  0  0  0  0  0  0  0  0  0  0  0
    8.1835  -16.9788   28.2616 O   0  0  0  0  0  0  0  0  0  0  0  0
    9.9512  -17.4173   29.5854 O   0  0  0  0  0  0  0  0  0  0  0  0
  1  2  1  0
  2  3  2  0
  4  2  1  0
  4  5  1  0
  5  6  1  0
  6  8  1  0
  6  7  1  6
  8  9  2  0
 10 11  1  0
 10  8  1  0
 11 12  1  1
 13 14  2  0
 13 12  1  0
 15 14  1  0
 16 15  2  0
 17 16  1  0
 17 18  2  0
 18 13  1  0
 19 11  1  0
 20 19  2  0
 21 19  1  0
 21 25  1  0
 22 23  1  0
 22 21  1  0
 23 24  1  0
 24 25  1  0
 25 26  1  1
 26 28  1  0
 27 26  2  0
M  END
$$$$
