EHR.pdb
     RDKit          3D

 31 31  0  0  1  0  0  0  0  0999 V2000
   25.9964  -18.0851  -16.5043 N   0  0  0  0  0  0  0  0  0  0  0  0
   25.4320  -17.3092  -15.3812 C   0  0  1  0  0  0  0  0  0  0  0  0
   25.8460  -15.8835  -15.6030 C   0  0  0  0  0  0  0  0  0  0  0  0
   25.9582  -15.5776  -17.0692 C   0  0  0  0  0  0  0  0  0  0  0  0
   26.4245  -14.1842  -17.2933 C   0  0  0  0  0  0  0  0  0  0  0  0
   27.6256  -13.8716  -17.4234 O   0  0  0  0  0  0  0  0  0  0  0  0
   23.9407  -17.3897  -15.4578 C   0  0  0  0  0  0  0  0  0  0  0  0
   23.2326  -16.8690  -14.5727 O   0  0  0  0  0  0  0  0  0  0  0  0
   25.5035  -13.1242  -17.3710 O   0  0  0  0  0  0  0  0  0  0  0  0
   23.3040  -18.0724  -16.5607 N   0  0  0  0  0  0  0  0  0  0  0  0
   21.9035  -18.2859  -16.5065 C   0  0  1  0  0  0  0  0  0  0  0  0
   21.2473  -17.9937  -17.8696 C   0  0  0  0  0  0  0  0  0  0  0  0
   21.1667  -16.5174  -17.9831 C   0  0  0  0  0  0  0  0  0  0  0  0
   21.4914  -15.5822  -17.0080 C   0  0  0  0  0  0  0  0  0  0  0  0
   21.2840  -14.3468  -17.4823 N   0  0  0  0  0  0  0  0  0  0  0  0
   20.8348  -14.4862  -18.7375 C   0  0  0  0  0  0  0  0  0  0  0  0
   20.7641  -15.8065  -19.0402 N   0  0  0  0  0  0  0  0  0  0  0  0
   21.4541  -19.6197  -16.1141 C   0  0  0  0  0  0  0  0  0  0  0  0
   21.7679  -20.5628  -16.9165 O   0  0  0  0  0  0  0  0  0  0  0  0
   27.3974  -20.4229  -11.3216 N   0  0  0  0  0  0  0  0  0  0  0  0
   26.6718  -21.5235  -10.8087 C   0  0  0  0  0  0  0  0  0  0  0  0
   27.1638  -22.3191   -9.9161 N   0  0  0  0  0  0  0  0  0  0  0  0
   25.3370  -21.7808  -11.2881 N   0  0  0  0  0  0  0  0  0  0  0  0
   24.7507  -20.9332  -12.2923 C   0  0  0  0  0  0  0  0  0  0  0  0
   23.3300  -21.3938  -12.5901 C   0  0  0  0  0  0  0  0  0  0  0  0
   22.7099  -20.4536  -13.5960 C   0  0  0  0  0  0  0  0  0  0  0  0
   21.3120  -20.8178  -13.9734 C   0  0  2  0  0  0  0  0  0  0  0  0
   20.7289  -19.9670  -14.9715 N   0  0  0  0  0  0  0  0  0  0  0  0
   20.4928  -20.7913  -12.7314 C   0  0  0  0  0  0  0  0  0  0  0  0
   20.4913  -21.9233  -11.9377 O   0  0  0  0  0  0  0  0  0  0  0  0
   19.8088  -19.8037  -12.3689 O   0  0  0  0  0  0  0  0  0  0  0  0
  2  1  1  6
  2  3  1  0
  4  3  1  0
  5  4  1  0
  6  5  2  0
  7  8  2  0
  7  2  1  0
  9  5  1  0
 10  7  1  0
 11 10  1  0
 11 12  1  6
 13 17  1  0
 13 12  1  0
 14 13  2  0
 15 14  1  0
 15 16  1  0
 16 17  2  0
 18 11  1  0
 18 19  2  0
 21 20  1  0
 21 22  2  0
 23 24  1  0
 23 21  1  0
 25 26  1  0
 25 24  1  0
 27 26  1  1
 27 28  1  0
 27 29  1  0
 28 18  1  0
 29 30  1  0
 31 29  2  0
M  END
$$$$
