EHR.pdb
     RDKit          3D

 31 31  0  0  1  0  0  0  0  0999 V2000
   32.4148   -9.1020  -17.6947 N   0  0  0  0  0  0  0  0  0  0  0  0
   31.5504   -8.0677  -17.0905 C   0  0  1  0  0  0  0  0  0  0  0  0
   32.2677   -6.7612  -17.2690 C   0  0  0  0  0  0  0  0  0  0  0  0
   32.8740   -6.6631  -18.6396 C   0  0  0  0  0  0  0  0  0  0  0  0
   33.6887   -5.4277  -18.7796 C   0  0  0  0  0  0  0  0  0  0  0  0
   34.6205   -5.1249  -18.0068 O   0  0  0  0  0  0  0  0  0  0  0  0
   30.2699   -8.0173  -17.8614 C   0  0  0  0  0  0  0  0  0  0  0  0
   29.3967   -7.1712  -17.5831 O   0  0  0  0  0  0  0  0  0  0  0  0
   33.4368   -4.5177  -19.8220 O   0  0  0  0  0  0  0  0  0  0  0  0
   30.0315   -8.9500  -18.9389 N   0  0  0  0  0  0  0  0  0  0  0  0
   28.8150   -8.8536  -19.6606 C   0  0  1  0  0  0  0  0  0  0  0  0
   28.8195   -9.7969  -20.8788 C   0  0  0  0  0  0  0  0  0  0  0  0
   27.6921   -9.3666  -21.7406 C   0  0  0  0  0  0  0  0  0  0  0  0
   26.8032   -8.3257  -21.5013 C   0  0  0  0  0  0  0  0  0  0  0  0
   25.9211   -8.2472  -22.5062 N   0  0  0  0  0  0  0  0  0  0  0  0
   26.2375   -9.2187  -23.3738 C   0  0  0  0  0  0  0  0  0  0  0  0
   27.3144   -9.8983  -22.9067 N   0  0  0  0  0  0  0  0  0  0  0  0
   27.5865   -9.1427  -18.9244 C   0  0  0  0  0  0  0  0  0  0  0  0
   27.6561  -10.1173  -18.1014 O   0  0  0  0  0  0  0  0  0  0  0  0
   19.8520   -9.0155  -15.4036 N   0  0  0  0  0  0  0  0  0  0  0  0
   20.8221   -8.6484  -14.4419 C   0  0  0  0  0  0  0  0  0  0  0  0
   20.5736   -8.6558  -13.1730 N   0  0  0  0  0  0  0  0  0  0  0  0
   22.1376   -8.2492  -14.8754 N   0  0  0  0  0  0  0  0  0  0  0  0
   22.4668   -8.2351  -16.2761 C   0  0  0  0  0  0  0  0  0  0  0  0
   23.8997   -7.7546  -16.4639 C   0  0  0  0  0  0  0  0  0  0  0  0
   24.2552   -7.8321  -17.9295 C   0  0  0  0  0  0  0  0  0  0  0  0
   25.2343   -8.9123  -18.2517 C   0  0  2  0  0  0  0  0  0  0  0  0
   26.3627   -8.4757  -19.0236 N   0  0  0  0  0  0  0  0  0  0  0  0
   24.4965   -9.9819  -18.9772 C   0  0  0  0  0  0  0  0  0  0  0  0
   23.9867  -11.0296  -18.2332 O   0  0  0  0  0  0  0  0  0  0  0  0
   24.3139   -9.9831  -20.2187 O   0  0  0  0  0  0  0  0  0  0  0  0
  2  1  1  6
  2  3  1  0
  4  3  1  0
  5  4  1  0
  6  5  2  0
  7  8  2  0
  7  2  1  0
  9  5  1  0
 10  7  1  0
 11 10  1  0
 11 12  1  6
 13 17  1  0
 13 12  1  0
 14 13  2  0
 15 14  1  0
 15 16  1  0
 16 17  2  0
 18 11  1  0
 18 19  2  0
 21 20  1  0
 21 22  2  0
 23 24  1  0
 23 21  1  0
 25 26  1  0
 25 24  1  0
 27 26  1  6
 27 28  1  0
 27 29  1  0
 28 18  1  0
 29 30  1  0
 31 29  2  0
M  END
$$$$
