EHR.pdb
     RDKit          3D

 31 31  0  0  1  0  0  0  0  0999 V2000
   25.4075  -18.5973  -15.0488 N   0  0  0  0  0  0  0  0  0  0  0  0
   24.7542  -19.5824  -15.9346 C   0  0  1  0  0  0  0  0  0  0  0  0
   25.8334  -20.5206  -16.3912 C   0  0  0  0  0  0  0  0  0  0  0  0
   26.7105  -19.8705  -17.4227 C   0  0  0  0  0  0  0  0  0  0  0  0
   27.7944  -20.7881  -17.8617 C   0  0  0  0  0  0  0  0  0  0  0  0
   27.5932  -21.8239  -18.5279 O   0  0  0  0  0  0  0  0  0  0  0  0
   23.7618  -20.3553  -15.1258 C   0  0  0  0  0  0  0  0  0  0  0  0
   23.2117  -21.3695  -15.5999 O   0  0  0  0  0  0  0  0  0  0  0  0
   29.1358  -20.5203  -17.5351 O   0  0  0  0  0  0  0  0  0  0  0  0
   23.4301  -19.9341  -13.7840 N   0  0  0  0  0  0  0  0  0  0  0  0
   22.4548  -20.6705  -13.0653 C   0  0  1  0  0  0  0  0  0  0  0  0
   22.6229  -20.4737  -11.5464 C   0  0  0  0  0  0  0  0  0  0  0  0
   23.9970  -20.9250  -11.2193 C   0  0  0  0  0  0  0  0  0  0  0  0
   24.9293  -21.4742  -12.0911 C   0  0  0  0  0  0  0  0  0  0  0  0
   26.0556  -21.7594  -11.4245 N   0  0  0  0  0  0  0  0  0  0  0  0
   25.8503  -21.4002  -10.1494 C   0  0  0  0  0  0  0  0  0  0  0  0
   24.5983  -20.8932  -10.0266 N   0  0  0  0  0  0  0  0  0  0  0  0
   21.0548  -20.3769  -13.3630 C   0  0  0  0  0  0  0  0  0  0  0  0
   20.7944  -19.1546  -13.6275 O   0  0  0  0  0  0  0  0  0  0  0  0
   22.2720  -18.3891  -18.2325 N   0  0  0  0  0  0  0  0  0  0  0  0
   21.1760  -17.5198  -18.0234 C   0  0  0  0  0  0  0  0  0  0  0  0
   21.1544  -16.3124  -18.4858 N   0  0  0  0  0  0  0  0  0  0  0  0
   20.0365  -17.9805  -17.2704 N   0  0  0  0  0  0  0  0  0  0  0  0
   20.0252  -19.3055  -16.7092 C   0  0  0  0  0  0  0  0  0  0  0  0
   18.6539  -19.6028  -16.1174 C   0  0  0  0  0  0  0  0  0  0  0  0
   18.6891  -20.9591  -15.4542 C   0  0  0  0  0  0  0  0  0  0  0  0
   18.7289  -20.8954  -13.9630 C   0  0  2  0  0  0  0  0  0  0  0  0
   19.9874  -21.2782  -13.3888 N   0  0  0  0  0  0  0  0  0  0  0  0
   17.6407  -21.7708  -13.4494 C   0  0  0  0  0  0  0  0  0  0  0  0
   16.3836  -21.2148  -13.3019 O   0  0  0  0  0  0  0  0  0  0  0  0
   17.8023  -22.9777  -13.1457 O   0  0  0  0  0  0  0  0  0  0  0  0
  2  1  1  1
  2  3  1  0
  4  3  1  0
  5  4  1  0
  6  5  2  0
  7  8  2  0
  7  2  1  0
  9  5  1  0
 10  7  1  0
 11 10  1  0
 11 12  1  1
 13 17  1  0
 13 12  1  0
 14 13  2  0
 15 14  1  0
 15 16  1  0
 16 17  2  0
 18 11  1  0
 18 19  2  0
 21 20  1  0
 21 22  2  0
 23 24  1  0
 23 21  1  0
 25 26  1  0
 25 24  1  0
 27 26  1  6
 27 28  1  0
 27 29  1  0
 28 18  1  0
 29 30  1  0
 31 29  2  0
M  END
$$$$
