EHR.pdb
     RDKit          3D

 31 31  0  0  1  0  0  0  0  0999 V2000
   22.6082  -14.7716  -18.7495 N   0  0  0  0  0  0  0  0  0  0  0  0
   22.5974  -13.3417  -19.1196 C   0  0  1  0  0  0  0  0  0  0  0  0
   21.1946  -13.0283  -19.5524 C   0  0  0  0  0  0  0  0  0  0  0  0
   20.6867  -14.0596  -20.5191 C   0  0  0  0  0  0  0  0  0  0  0  0
   19.3028  -13.7460  -20.9614 C   0  0  0  0  0  0  0  0  0  0  0  0
   18.5560  -12.9397  -20.3703 O   0  0  0  0  0  0  0  0  0  0  0  0
   22.9096  -12.5382  -17.8975 C   0  0  0  0  0  0  0  0  0  0  0  0
   22.5722  -12.9469  -16.7683 O   0  0  0  0  0  0  0  0  0  0  0  0
   18.7577  -14.3637  -22.1013 O   0  0  0  0  0  0  0  0  0  0  0  0
   23.6072  -11.2781  -18.0131 N   0  0  0  0  0  0  0  0  0  0  0  0
   23.8245  -10.5148  -16.8384 C   0  0  1  0  0  0  0  0  0  0  0  0
   25.2183   -9.8584  -16.8564 C   0  0  0  0  0  0  0  0  0  0  0  0
   26.1893  -10.9386  -16.5578 C   0  0  0  0  0  0  0  0  0  0  0  0
   25.9027  -12.2651  -16.2592 C   0  0  0  0  0  0  0  0  0  0  0  0
   27.0429  -12.9348  -16.0457 N   0  0  0  0  0  0  0  0  0  0  0  0
   28.0420  -12.0554  -16.2041 C   0  0  0  0  0  0  0  0  0  0  0  0
   27.5212  -10.8423  -16.5154 N   0  0  0  0  0  0  0  0  0  0  0  0
   22.8712   -9.4423  -16.5628 C   0  0  0  0  0  0  0  0  0  0  0  0
   22.5881   -8.6907  -17.5562 O   0  0  0  0  0  0  0  0  0  0  0  0
   14.7459   -9.5963  -15.9192 N   0  0  0  0  0  0  0  0  0  0  0  0
   15.1425   -8.5572  -16.7932 C   0  0  0  0  0  0  0  0  0  0  0  0
   14.3171   -7.9908  -17.6116 N   0  0  0  0  0  0  0  0  0  0  0  0
   16.5106   -8.1033  -16.7837 N   0  0  0  0  0  0  0  0  0  0  0  0
   17.4622   -8.6864  -15.8754 C   0  0  0  0  0  0  0  0  0  0  0  0
   18.8360   -8.0694  -16.1022 C   0  0  0  0  0  0  0  0  0  0  0  0
   19.8293   -8.7289  -15.1755 C   0  0  0  0  0  0  0  0  0  0  0  0
   21.2087   -8.1671  -15.2788 C   0  0  2  0  0  0  0  0  0  0  0  0
   22.2460   -9.1567  -15.3462 N   0  0  0  0  0  0  0  0  0  0  0  0
   21.4188   -7.2798  -14.1027 C   0  0  0  0  0  0  0  0  0  0  0  0
   20.6926   -6.1048  -14.0458 O   0  0  0  0  0  0  0  0  0  0  0  0
   22.2137   -7.5397  -13.1672 O   0  0  0  0  0  0  0  0  0  0  0  0
  2  1  1  1
  2  3  1  0
  4  3  1  0
  5  4  1  0
  6  5  2  0
  7  8  2  0
  7  2  1  0
  9  5  1  0
 10  7  1  0
 11 10  1  0
 11 12  1  6
 13 17  1  0
 13 12  1  0
 14 13  2  0
 15 14  1  0
 15 16  1  0
 16 17  2  0
 18 11  1  0
 18 19  2  0
 21 20  1  0
 21 22  2  0
 23 24  1  0
 23 21  1  0
 25 26  1  0
 25 24  1  0
 27 26  1  1
 27 28  1  0
 27 29  1  0
 28 18  1  0
 29 30  1  0
 31 29  2  0
M  END
$$$$
