EHR.pdb
     RDKit          3D

 31 31  0  0  1  0  0  0  0  0999 V2000
   28.2944  -20.9770  -14.9555 N   0  0  0  0  0  0  0  0  0  0  0  0
   27.1318  -20.0847  -14.7706 C   0  0  1  0  0  0  0  0  0  0  0  0
   26.3586  -20.1270  -16.0566 C   0  0  0  0  0  0  0  0  0  0  0  0
   27.1788  -19.5921  -17.1955 C   0  0  0  0  0  0  0  0  0  0  0  0
   27.4377  -18.1373  -17.0343 C   0  0  0  0  0  0  0  0  0  0  0  0
   26.9069  -17.4364  -16.1488 O   0  0  0  0  0  0  0  0  0  0  0  0
   26.2761  -20.6484  -13.6814 C   0  0  0  0  0  0  0  0  0  0  0  0
   25.2187  -21.2509  -13.9552 O   0  0  0  0  0  0  0  0  0  0  0  0
   28.3199  -17.4664  -17.9001 O   0  0  0  0  0  0  0  0  0  0  0  0
   26.6669  -20.5007  -12.2982 N   0  0  0  0  0  0  0  0  0  0  0  0
   25.7885  -20.9769  -11.2924 C   0  0  1  0  0  0  0  0  0  0  0  0
   26.3843  -20.7551   -9.8889 C   0  0  0  0  0  0  0  0  0  0  0  0
   27.8250  -21.0904   -9.9922 C   0  0  0  0  0  0  0  0  0  0  0  0
   28.5081  -21.5156  -11.1251 C   0  0  0  0  0  0  0  0  0  0  0  0
   29.7965  -21.7223  -10.8227 N   0  0  0  0  0  0  0  0  0  0  0  0
   29.9379  -21.4353   -9.5210 C   0  0  0  0  0  0  0  0  0  0  0  0
   28.7382  -21.0514   -9.0177 N   0  0  0  0  0  0  0  0  0  0  0  0
   24.4460  -20.4010  -11.2622 C   0  0  0  0  0  0  0  0  0  0  0  0
   24.3792  -19.1838  -10.8805 O   0  0  0  0  0  0  0  0  0  0  0  0
   21.9280  -19.7019  -18.6360 N   0  0  0  0  0  0  0  0  0  0  0  0
   21.4519  -20.9602  -18.1989 C   0  0  0  0  0  0  0  0  0  0  0  0
   21.0487  -21.8704  -19.0241 N   0  0  0  0  0  0  0  0  0  0  0  0
   21.4079  -21.2529  -16.7882 N   0  0  0  0  0  0  0  0  0  0  0  0
   21.8248  -20.2648  -15.8288 C   0  0  0  0  0  0  0  0  0  0  0  0
   21.6328  -20.8037  -14.4174 C   0  0  0  0  0  0  0  0  0  0  0  0
   22.1618  -19.7915  -13.4294 C   0  0  0  0  0  0  0  0  0  0  0  0
   22.1101  -20.2557  -12.0112 C   0  0  2  0  0  0  0  0  0  0  0  0
   23.2462  -21.0314  -11.6019 N   0  0  0  0  0  0  0  0  0  0  0  0
   20.8600  -21.0456  -11.8451 C   0  0  0  0  0  0  0  0  0  0  0  0
   19.6606  -20.3580  -11.8404 O   0  0  0  0  0  0  0  0  0  0  0  0
   20.8368  -22.2931  -11.7103 O   0  0  0  0  0  0  0  0  0  0  0  0
  2  1  1  6
  2  3  1  0
  4  3  1  0
  5  4  1  0
  6  5  2  0
  7  8  2  0
  7  2  1  0
  9  5  1  0
 10  7  1  0
 11 10  1  0
 11 12  1  1
 13 17  1  0
 13 12  1  0
 14 13  2  0
 15 14  1  0
 15 16  1  0
 16 17  2  0
 18 11  1  0
 18 19  2  0
 21 20  1  0
 21 22  2  0
 23 24  1  0
 23 21  1  0
 25 26  1  0
 25 24  1  0
 27 26  1  6
 27 28  1  0
 27 29  1  0
 28 18  1  0
 29 30  1  0
 31 29  2  0
M  END
$$$$
