EHR.pdb
     RDKit          3D

 31 31  0  0  1  0  0  0  0  0999 V2000
   19.5873  -11.8504  -16.3975 N   0  0  0  0  0  0  0  0  0  0  0  0
   18.4189  -11.1227  -15.8617 C   0  0  1  0  0  0  0  0  0  0  0  0
   17.5329  -12.1554  -15.2277 C   0  0  0  0  0  0  0  0  0  0  0  0
   16.1991  -11.5691  -14.8628 C   0  0  0  0  0  0  0  0  0  0  0  0
   15.1423  -12.6140  -14.8350 C   0  0  0  0  0  0  0  0  0  0  0  0
   14.9423  -13.3666  -13.8598 O   0  0  0  0  0  0  0  0  0  0  0  0
   18.8965  -10.1867  -14.7977 C   0  0  0  0  0  0  0  0  0  0  0  0
   19.2217  -10.6192  -13.6738 O   0  0  0  0  0  0  0  0  0  0  0  0
   14.2953  -12.8060  -15.9411 O   0  0  0  0  0  0  0  0  0  0  0  0
   18.9866   -8.7690  -15.0619 N   0  0  0  0  0  0  0  0  0  0  0  0
   19.3135   -7.9004  -13.9902 C   0  0  1  0  0  0  0  0  0  0  0  0
   20.5978   -7.1060  -14.2954 C   0  0  0  0  0  0  0  0  0  0  0  0
   21.6867   -8.1060  -14.4101 C   0  0  0  0  0  0  0  0  0  0  0  0
   22.3776   -8.4655  -15.5609 C   0  0  0  0  0  0  0  0  0  0  0  0
   23.2860   -9.4045  -15.2656 N   0  0  0  0  0  0  0  0  0  0  0  0
   23.1804   -9.6432  -13.9508 C   0  0  0  0  0  0  0  0  0  0  0  0
   22.2076   -8.8529  -13.4324 N   0  0  0  0  0  0  0  0  0  0  0  0
   18.3045   -6.9151  -13.6082 C   0  0  0  0  0  0  0  0  0  0  0  0
   17.5677   -6.4867  -14.5598 O   0  0  0  0  0  0  0  0  0  0  0  0
   13.8219   -6.9854   -6.5486 N   0  0  0  0  0  0  0  0  0  0  0  0
   13.5373   -7.8871   -7.6006 C   0  0  0  0  0  0  0  0  0  0  0  0
   12.7095   -8.8706   -7.4619 N   0  0  0  0  0  0  0  0  0  0  0  0
   14.1849   -7.7175   -8.8773 N   0  0  0  0  0  0  0  0  0  0  0  0
   14.9901   -6.5528   -9.1335 C   0  0  0  0  0  0  0  0  0  0  0  0
   15.5178   -6.5951  -10.5614 C   0  0  0  0  0  0  0  0  0  0  0  0
   16.4279   -5.4107  -10.7835 C   0  0  0  0  0  0  0  0  0  0  0  0
   17.0642   -5.3896  -12.1341 C   0  0  2  0  0  0  0  0  0  0  0  0
   18.0640   -6.4001  -12.3318 N   0  0  0  0  0  0  0  0  0  0  0  0
   17.6530   -4.0370  -12.3293 C   0  0  0  0  0  0  0  0  0  0  0  0
   16.7878   -2.9597  -12.3764 O   0  0  0  0  0  0  0  0  0  0  0  0
   18.8835   -3.8240  -12.4522 O   0  0  0  0  0  0  0  0  0  0  0  0
  2  1  1  1
  2  3  1  0
  4  3  1  0
  5  4  1  0
  6  5  2  0
  7  8  2  0
  7  2  1  0
  9  5  1  0
 10  7  1  0
 11 10  1  0
 11 12  1  6
 13 17  1  0
 13 12  1  0
 14 13  2  0
 15 14  1  0
 15 16  1  0
 16 17  2  0
 18 11  1  0
 18 19  2  0
 21 20  1  0
 21 22  2  0
 23 24  1  0
 23 21  1  0
 25 26  1  0
 25 24  1  0
 27 26  1  1
 27 28  1  0
 27 29  1  0
 28 18  1  0
 29 30  1  0
 31 29  2  0
M  END
$$$$
