EHR.pdb
     RDKit          3D

 31 31  0  0  1  0  0  0  0  0999 V2000
   22.9055  -32.3843    6.8102 N   0  0  0  0  0  0  0  0  0  0  0  0
   23.2971  -31.0023    6.4661 C   0  0  1  0  0  0  0  0  0  0  0  0
   22.8698  -30.1427    7.6202 C   0  0  0  0  0  0  0  0  0  0  0  0
   21.3849  -29.9175    7.6025 C   0  0  0  0  0  0  0  0  0  0  0  0
   21.0618  -28.4672    7.5641 C   0  0  0  0  0  0  0  0  0  0  0  0
   21.5714  -27.6685    6.7519 O   0  0  0  0  0  0  0  0  0  0  0  0
   24.7879  -30.9496    6.3593 C   0  0  0  0  0  0  0  0  0  0  0  0
   25.3675  -29.8712    6.1209 O   0  0  0  0  0  0  0  0  0  0  0  0
   20.1387  -27.9146    8.4699 O   0  0  0  0  0  0  0  0  0  0  0  0
   25.5731  -32.1502    6.5323 N   0  0  0  0  0  0  0  0  0  0  0  0
   26.9760  -32.0743    6.3425 C   0  0  1  0  0  0  0  0  0  0  0  0
   27.7248  -32.2702    7.6747 C   0  0  0  0  0  0  0  0  0  0  0  0
   29.1264  -31.8537    7.4279 C   0  0  0  0  0  0  0  0  0  0  0  0
   29.5780  -30.9563    6.4679 C   0  0  0  0  0  0  0  0  0  0  0  0
   30.9098  -30.8406    6.5511 N   0  0  0  0  0  0  0  0  0  0  0  0
   31.3056  -31.6481    7.5451 C   0  0  0  0  0  0  0  0  0  0  0  0
   30.2199  -32.2632    8.0769 N   0  0  0  0  0  0  0  0  0  0  0  0
   27.5662  -33.0209    5.3989 C   0  0  0  0  0  0  0  0  0  0  0  0
   27.2114  -34.2389    5.5487 O   0  0  0  0  0  0  0  0  0  0  0  0
   27.8453  -32.7746   -3.0056 N   0  0  0  0  0  0  0  0  0  0  0  0
   26.7185  -33.3363   -2.3610 C   0  0  0  0  0  0  0  0  0  0  0  0
   25.5975  -33.5310   -2.9752 N   0  0  0  0  0  0  0  0  0  0  0  0
   26.8067  -33.7092   -0.9713 N   0  0  0  0  0  0  0  0  0  0  0  0
   27.9845  -33.3913   -0.2081 C   0  0  0  0  0  0  0  0  0  0  0  0
   27.8147  -33.8738    1.2263 C   0  0  0  0  0  0  0  0  0  0  0  0
   28.9830  -33.3860    2.0496 C   0  0  0  0  0  0  0  0  0  0  0  0
   28.9093  -33.7825    3.4872 C   0  0  2  0  0  0  0  0  0  0  0  0
   28.4637  -32.7388    4.3658 N   0  0  0  0  0  0  0  0  0  0  0  0
   30.2622  -34.2530    3.8905 C   0  0  0  0  0  0  0  0  0  0  0  0
   30.7452  -35.4054    3.2989 O   0  0  0  0  0  0  0  0  0  0  0  0
   30.9823  -33.6638    4.7325 O   0  0  0  0  0  0  0  0  0  0  0  0
  2  1  1  1
  2  3  1  0
  4  3  1  0
  5  4  1  0
  6  5  2  0
  7  8  2  0
  7  2  1  0
  9  5  1  0
 10  7  1  0
 11 10  1  0
 11 12  1  1
 13 17  1  0
 13 12  1  0
 14 13  2  0
 15 14  1  0
 15 16  1  0
 16 17  2  0
 18 11  1  0
 18 19  2  0
 21 20  1  0
 21 22  2  0
 23 24  1  0
 23 21  1  0
 25 26  1  0
 25 24  1  0
 27 26  1  6
 27 28  1  0
 27 29  1  0
 28 18  1  0
 29 30  1  0
 31 29  2  0
M  END
$$$$
