EHR.pdb
     RDKit          3D

 31 31  0  0  1  0  0  0  0  0999 V2000
   28.3881  -25.4805  -16.6458 N   0  0  0  0  0  0  0  0  0  0  0  0
   27.2641  -24.9669  -17.4548 C   0  0  1  0  0  0  0  0  0  0  0  0
   26.3048  -26.1098  -17.6183 C   0  0  0  0  0  0  0  0  0  0  0  0
   25.0116  -25.8329  -16.9063 C   0  0  0  0  0  0  0  0  0  0  0  0
   24.1196  -27.0216  -16.9306 C   0  0  0  0  0  0  0  0  0  0  0  0
   24.0055  -27.8177  -15.9763 O   0  0  0  0  0  0  0  0  0  0  0  0
   26.5855  -23.8824  -16.6803 C   0  0  0  0  0  0  0  0  0  0  0  0
   26.7681  -23.7733  -15.4513 O   0  0  0  0  0  0  0  0  0  0  0  0
   23.3409  -27.3099  -18.0657 O   0  0  0  0  0  0  0  0  0  0  0  0
   25.7101  -22.9479  -17.3499 N   0  0  0  0  0  0  0  0  0  0  0  0
   25.1973  -21.8523  -16.6105 C   0  0  1  0  0  0  0  0  0  0  0  0
   25.4242  -20.5256  -17.3603 C   0  0  0  0  0  0  0  0  0  0  0  0
   26.8854  -20.2752  -17.3272 C   0  0  0  0  0  0  0  0  0  0  0  0
   27.7947  -20.4783  -18.3582 C   0  0  0  0  0  0  0  0  0  0  0  0
   29.0240  -20.1406  -17.9471 N   0  0  0  0  0  0  0  0  0  0  0  0
   28.9062  -19.7287  -16.6770 C   0  0  0  0  0  0  0  0  0  0  0  0
   27.6053  -19.8113  -16.3018 N   0  0  0  0  0  0  0  0  0  0  0  0
   23.7766  -21.8924  -16.2715 C   0  0  0  0  0  0  0  0  0  0  0  0
   22.9803  -22.0383  -17.2597 O   0  0  0  0  0  0  0  0  0  0  0  0
   18.9428  -25.4263  -10.0340 N   0  0  0  0  0  0  0  0  0  0  0  0
   19.7794  -25.8672  -11.0859 C   0  0  0  0  0  0  0  0  0  0  0  0
   20.2748  -27.0610  -11.1198 N   0  0  0  0  0  0  0  0  0  0  0  0
   20.1007  -24.9661  -12.1642 N   0  0  0  0  0  0  0  0  0  0  0  0
   19.6300  -23.6066  -12.1384 C   0  0  0  0  0  0  0  0  0  0  0  0
   19.9182  -22.9361  -13.4750 C   0  0  0  0  0  0  0  0  0  0  0  0
   21.3958  -22.6380  -13.5661 C   0  0  0  0  0  0  0  0  0  0  0  0
   21.7894  -21.9417  -14.8269 C   0  0  2  0  0  0  0  0  0  0  0  0
   23.2060  -21.7898  -15.0002 N   0  0  0  0  0  0  0  0  0  0  0  0
   21.1245  -20.6104  -14.8281 C   0  0  0  0  0  0  0  0  0  0  0  0
   19.7445  -20.5809  -14.9054 O   0  0  0  0  0  0  0  0  0  0  0  0
   21.7451  -19.5217  -14.7630 O   0  0  0  0  0  0  0  0  0  0  0  0
  2  1  1  1
  2  3  1  0
  4  3  1  0
  5  4  1  0
  6  5  2  0
  7  8  2  0
  7  2  1  0
  9  5  1  0
 10  7  1  0
 11 10  1  0
 11 12  1  6
 13 17  1  0
 13 12  1  0
 14 13  2  0
 15 14  1  0
 15 16  1  0
 16 17  2  0
 18 11  1  0
 18 19  2  0
 21 20  1  0
 21 22  2  0
 23 24  1  0
 23 21  1  0
 25 26  1  0
 25 24  1  0
 27 26  1  1
 27 28  1  0
 27 29  1  0
 28 18  1  0
 29 30  1  0
 31 29  2  0
M  END
$$$$
