EHR.pdb
     RDKit          3D

 31 31  0  0  1  0  0  0  0  0999 V2000
   22.7979  -21.5014  -20.6540 N   0  0  0  0  0  0  0  0  0  0  0  0
   22.2631  -20.2768  -20.0245 C   0  0  1  0  0  0  0  0  0  0  0  0
   20.7778  -20.3056  -20.2398 C   0  0  0  0  0  0  0  0  0  0  0  0
   20.1503  -21.4572  -19.5078 C   0  0  0  0  0  0  0  0  0  0  0  0
   18.8064  -21.0943  -18.9865 C   0  0  0  0  0  0  0  0  0  0  0  0
   17.8163  -20.8871  -19.7171 O   0  0  0  0  0  0  0  0  0  0  0  0
   22.5330  -20.3481  -18.5553 C   0  0  0  0  0  0  0  0  0  0  0  0
   22.7285  -21.4481  -18.0005 O   0  0  0  0  0  0  0  0  0  0  0  0
   18.5855  -20.9648  -17.6036 O   0  0  0  0  0  0  0  0  0  0  0  0
   22.5705  -19.1408  -17.7624 N   0  0  0  0  0  0  0  0  0  0  0  0
   22.9398  -19.2391  -16.3971 C   0  0  1  0  0  0  0  0  0  0  0  0
   23.5964  -17.9341  -15.9074 C   0  0  0  0  0  0  0  0  0  0  0  0
   25.0112  -17.9910  -16.3478 C   0  0  0  0  0  0  0  0  0  0  0  0
   25.6319  -19.0204  -17.0450 C   0  0  0  0  0  0  0  0  0  0  0  0
   26.9169  -18.7085  -17.2585 N   0  0  0  0  0  0  0  0  0  0  0  0
   27.1174  -17.5024  -16.7090 C   0  0  0  0  0  0  0  0  0  0  0  0
   25.9577  -17.0678  -16.1558 N   0  0  0  0  0  0  0  0  0  0  0  0
   21.8734  -19.5422  -15.4454 C   0  0  0  0  0  0  0  0  0  0  0  0
   20.7689  -18.9325  -15.6460 O   0  0  0  0  0  0  0  0  0  0  0  0
   18.3261  -26.5719  -11.8643 N   0  0  0  0  0  0  0  0  0  0  0  0
   17.4243  -25.8393  -12.6710 C   0  0  0  0  0  0  0  0  0  0  0  0
   16.2542  -26.2917  -12.9842 N   0  0  0  0  0  0  0  0  0  0  0  0
   17.8083  -24.5424  -13.1694 N   0  0  0  0  0  0  0  0  0  0  0  0
   19.0845  -23.9785  -12.8173 C   0  0  0  0  0  0  0  0  0  0  0  0
   19.2025  -22.5726  -13.3906 C   0  0  0  0  0  0  0  0  0  0  0  0
   20.5808  -22.0340  -13.0898 C   0  0  0  0  0  0  0  0  0  0  0  0
   20.7798  -20.6203  -13.5270 C   0  0  2  0  0  0  0  0  0  0  0  0
   21.9332  -20.4152  -14.3561 N   0  0  0  0  0  0  0  0  0  0  0  0
   20.8710  -19.7822  -12.3008 C   0  0  0  0  0  0  0  0  0  0  0  0
   19.7575  -19.7137  -11.4843 O   0  0  0  0  0  0  0  0  0  0  0  0
   21.8971  -19.1394  -11.9711 O   0  0  0  0  0  0  0  0  0  0  0  0
  2  1  1  6
  2  3  1  0
  4  3  1  0
  5  4  1  0
  6  5  2  0
  7  8  2  0
  7  2  1  0
  9  5  1  0
 10  7  1  0
 11 10  1  0
 11 12  1  1
 13 17  1  0
 13 12  1  0
 14 13  2  0
 15 14  1  0
 15 16  1  0
 16 17  2  0
 18 11  1  0
 18 19  2  0
 21 20  1  0
 21 22  2  0
 23 24  1  0
 23 21  1  0
 25 26  1  0
 25 24  1  0
 27 26  1  1
 27 28  1  0
 27 29  1  0
 28 18  1  0
 29 30  1  0
 31 29  2  0
M  END
$$$$
