EHR.pdb
     RDKit          3D

 31 31  0  0  1  0  0  0  0  0999 V2000
   18.1669  -25.7696   -4.9982 N   0  0  0  0  0  0  0  0  0  0  0  0
   16.7509  -25.5148   -5.3325 C   0  0  1  0  0  0  0  0  0  0  0  0
   16.1645  -24.7860   -4.1585 C   0  0  0  0  0  0  0  0  0  0  0  0
   15.0996  -25.6089   -3.4916 C   0  0  0  0  0  0  0  0  0  0  0  0
   15.6767  -26.4791   -2.4336 C   0  0  0  0  0  0  0  0  0  0  0  0
   16.8877  -26.4874   -2.1323 O   0  0  0  0  0  0  0  0  0  0  0  0
   16.7050  -24.6129   -6.5245 C   0  0  0  0  0  0  0  0  0  0  0  0
   17.4032  -23.5799   -6.5636 O   0  0  0  0  0  0  0  0  0  0  0  0
   14.8574  -27.3584   -1.7033 O   0  0  0  0  0  0  0  0  0  0  0  0
   15.8500  -24.9302   -7.6452 N   0  0  0  0  0  0  0  0  0  0  0  0
   15.8357  -24.0493   -8.7560 C   0  0  1  0  0  0  0  0  0  0  0  0
   16.1086  -24.8103  -10.0676 C   0  0  0  0  0  0  0  0  0  0  0  0
   17.5392  -25.1988  -10.0318 C   0  0  0  0  0  0  0  0  0  0  0  0
   18.6348  -24.3915  -10.3128 C   0  0  0  0  0  0  0  0  0  0  0  0
   19.7631  -25.1004  -10.1758 N   0  0  0  0  0  0  0  0  0  0  0  0
   19.3989  -26.3386   -9.8139 C   0  0  0  0  0  0  0  0  0  0  0  0
   18.0465  -26.3965   -9.7269 N   0  0  0  0  0  0  0  0  0  0  0  0
   14.6107  -23.2836   -8.9751 C   0  0  0  0  0  0  0  0  0  0  0  0
   13.5786  -23.7096   -8.3544 O   0  0  0  0  0  0  0  0  0  0  0  0
   12.3466  -15.5932  -12.5217 N   0  0  0  0  0  0  0  0  0  0  0  0
   12.2586  -15.7746  -11.1216 C   0  0  0  0  0  0  0  0  0  0  0  0
   12.3621  -14.7899  -10.2900 N   0  0  0  0  0  0  0  0  0  0  0  0
   12.0472  -17.0968  -10.5878 N   0  0  0  0  0  0  0  0  0  0  0  0
   11.9859  -18.2334  -11.4681 C   0  0  0  0  0  0  0  0  0  0  0  0
   11.8547  -19.5117  -10.6507 C   0  0  0  0  0  0  0  0  0  0  0  0
   13.2013  -20.1921  -10.5843 C   0  0  0  0  0  0  0  0  0  0  0  0
   13.1727  -21.5085   -9.8804 C   0  0  2  0  0  0  0  0  0  0  0  0
   14.4516  -22.1520   -9.7790 N   0  0  0  0  0  0  0  0  0  0  0  0
   12.2123  -22.3826  -10.6069 C   0  0  0  0  0  0  0  0  0  0  0  0
   12.7203  -23.2373  -11.5675 O   0  0  0  0  0  0  0  0  0  0  0  0
   10.9753  -22.3853  -10.3953 O   0  0  0  0  0  0  0  0  0  0  0  0
  2  1  1  1
  2  3  1  0
  4  3  1  0
  5  4  1  0
  6  5  2  0
  7  8  2  0
  7  2  1  0
  9  5  1  0
 10  7  1  0
 11 10  1  0
 11 12  1  6
 13 17  1  0
 13 12  1  0
 14 13  2  0
 15 14  1  0
 15 16  1  0
 16 17  2  0
 18 11  1  0
 18 19  2  0
 21 20  1  0
 21 22  2  0
 23 24  1  0
 23 21  1  0
 25 26  1  0
 25 24  1  0
 27 26  1  6
 27 28  1  0
 27 29  1  0
 28 18  1  0
 29 30  1  0
 31 29  2  0
M  END
$$$$
