EHR.pdb
     RDKit          3D

 31 31  0  0  1  0  0  0  0  0999 V2000
   27.7938  -22.9976  -17.7301 N   0  0  0  0  0  0  0  0  0  0  0  0
   27.2092  -21.7397  -17.2224 C   0  0  1  0  0  0  0  0  0  0  0  0
   26.1281  -21.3558  -18.1905 C   0  0  0  0  0  0  0  0  0  0  0  0
   25.8272  -22.4834  -19.1360 C   0  0  0  0  0  0  0  0  0  0  0  0
   24.3981  -22.8844  -19.0566 C   0  0  0  0  0  0  0  0  0  0  0  0
   23.7280  -22.8437  -18.0047 O   0  0  0  0  0  0  0  0  0  0  0  0
   26.5822  -22.0165  -15.8932 C   0  0  0  0  0  0  0  0  0  0  0  0
   27.2620  -22.4850  -14.9582 O   0  0  0  0  0  0  0  0  0  0  0  0
   23.7177  -23.3414  -20.1994 O   0  0  0  0  0  0  0  0  0  0  0  0
   25.1798  -21.7428  -15.6785 N   0  0  0  0  0  0  0  0  0  0  0  0
   24.7354  -21.4842  -14.3573 C   0  0  1  0  0  0  0  0  0  0  0  0
   25.3730  -20.1959  -13.8027 C   0  0  0  0  0  0  0  0  0  0  0  0
   25.9067  -20.5409  -12.4629 C   0  0  0  0  0  0  0  0  0  0  0  0
   25.8185  -21.7670  -11.8151 C   0  0  0  0  0  0  0  0  0  0  0  0
   26.4171  -21.6885  -10.6194 N   0  0  0  0  0  0  0  0  0  0  0  0
   26.8806  -20.4363  -10.5018 C   0  0  0  0  0  0  0  0  0  0  0  0
   26.5694  -19.7400  -11.6235 N   0  0  0  0  0  0  0  0  0  0  0  0
   23.2943  -21.3440  -14.1616 C   0  0  0  0  0  0  0  0  0  0  0  0
   22.7169  -20.4952  -14.9219 O   0  0  0  0  0  0  0  0  0  0  0  0
   17.5950  -25.9034   -9.9984 N   0  0  0  0  0  0  0  0  0  0  0  0
   18.2588  -24.8356   -9.3504 C   0  0  0  0  0  0  0  0  0  0  0  0
   18.5213  -24.8526   -8.0844 N   0  0  0  0  0  0  0  0  0  0  0  0
   18.6624  -23.6813  -10.1137 N   0  0  0  0  0  0  0  0  0  0  0  0
   18.2883  -23.5596  -11.4978 C   0  0  0  0  0  0  0  0  0  0  0  0
   18.8829  -22.2852  -12.0822 C   0  0  0  0  0  0  0  0  0  0  0  0
   20.3892  -22.3715  -12.0166 C   0  0  0  0  0  0  0  0  0  0  0  0
   21.0734  -21.8219  -13.2245 C   0  0  2  0  0  0  0  0  0  0  0  0
   22.4934  -22.0300  -13.2449 N   0  0  0  0  0  0  0  0  0  0  0  0
   20.7648  -20.3676  -13.2896 C   0  0  0  0  0  0  0  0  0  0  0  0
   19.7232  -19.9672  -14.1057 O   0  0  0  0  0  0  0  0  0  0  0  0
   21.3949  -19.4923  -12.6480 O   0  0  0  0  0  0  0  0  0  0  0  0
  2  1  1  6
  2  3  1  0
  4  3  1  0
  5  4  1  0
  6  5  2  0
  7  8  2  0
  7  2  1  0
  9  5  1  0
 10  7  1  0
 11 10  1  0
 11 12  1  6
 13 17  1  0
 13 12  1  0
 14 13  2  0
 15 14  1  0
 15 16  1  0
 16 17  2  0
 18 11  1  0
 18 19  2  0
 21 20  1  0
 21 22  2  0
 23 24  1  0
 23 21  1  0
 25 26  1  0
 25 24  1  0
 27 26  1  1
 27 28  1  0
 27 29  1  0
 28 18  1  0
 29 30  1  0
 31 29  2  0
M  END
$$$$
