EHR.pdb
     RDKit          3D

 31 31  0  0  1  0  0  0  0  0999 V2000
   25.2565  -22.4852  -14.4105 N   0  0  0  0  0  0  0  0  0  0  0  0
   24.7105  -21.5740  -13.3842 C   0  0  1  0  0  0  0  0  0  0  0  0
   25.7935  -21.3936  -12.3606 C   0  0  0  0  0  0  0  0  0  0  0  0
   25.3477  -21.8852  -11.0132 C   0  0  0  0  0  0  0  0  0  0  0  0
   25.3337  -20.7825  -10.0165 C   0  0  0  0  0  0  0  0  0  0  0  0
   24.3496  -20.0398   -9.8238 O   0  0  0  0  0  0  0  0  0  0  0  0
   24.4381  -20.2517  -14.0277 C   0  0  0  0  0  0  0  0  0  0  0  0
   24.0429  -19.2853  -13.3452 O   0  0  0  0  0  0  0  0  0  0  0  0
   26.4644  -20.5201   -9.2225 O   0  0  0  0  0  0  0  0  0  0  0  0
   24.6312  -20.0803  -15.4493 N   0  0  0  0  0  0  0  0  0  0  0  0
   24.2858  -18.8356  -16.0338 C   0  0  1  0  0  0  0  0  0  0  0  0
   24.8729  -18.7102  -17.4527 C   0  0  0  0  0  0  0  0  0  0  0  0
   24.6465  -17.3061  -17.8726 C   0  0  0  0  0  0  0  0  0  0  0  0
   24.0072  -16.3070  -17.1489 C   0  0  0  0  0  0  0  0  0  0  0  0
   23.9948  -15.1728  -17.8614 N   0  0  0  0  0  0  0  0  0  0  0  0
   24.6141  -15.4387  -19.0201 C   0  0  0  0  0  0  0  0  0  0  0  0
   25.0095  -16.7362  -19.0251 N   0  0  0  0  0  0  0  0  0  0  0  0
   22.8609  -18.5356  -16.1530 C   0  0  0  0  0  0  0  0  0  0  0  0
   22.1158  -19.5250  -16.4657 O   0  0  0  0  0  0  0  0  0  0  0  0
   19.7478  -18.6839   -9.8111 N   0  0  0  0  0  0  0  0  0  0  0  0
   19.3409  -19.7179  -10.6862 C   0  0  0  0  0  0  0  0  0  0  0  0
   18.9938  -20.8878  -10.2585 N   0  0  0  0  0  0  0  0  0  0  0  0
   19.3072  -19.4752  -12.1067 N   0  0  0  0  0  0  0  0  0  0  0  0
   19.7852  -18.2276  -12.6411 C   0  0  0  0  0  0  0  0  0  0  0  0
   19.4678  -18.1488  -14.1285 C   0  0  0  0  0  0  0  0  0  0  0  0
   20.1503  -16.9348  -14.7123 C   0  0  0  0  0  0  0  0  0  0  0  0
   20.8071  -17.1921  -16.0283 C   0  0  2  0  0  0  0  0  0  0  0  0
   22.2368  -17.2998  -15.9639 N   0  0  0  0  0  0  0  0  0  0  0  0
   20.4143  -16.0891  -16.9467 C   0  0  0  0  0  0  0  0  0  0  0  0
   20.4151  -14.8017  -16.4429 O   0  0  0  0  0  0  0  0  0  0  0  0
   20.0851  -16.2641  -18.1449 O   0  0  0  0  0  0  0  0  0  0  0  0
  2  1  1  6
  2  3  1  0
  4  3  1  0
  5  4  1  0
  6  5  2  0
  7  8  2  0
  7  2  1  0
  9  5  1  0
 10  7  1  0
 11 10  1  0
 11 12  1  6
 13 17  1  0
 13 12  1  0
 14 13  2  0
 15 14  1  0
 15 16  1  0
 16 17  2  0
 18 11  1  0
 18 19  2  0
 21 20  1  0
 21 22  2  0
 23 24  1  0
 23 21  1  0
 25 26  1  0
 25 24  1  0
 27 26  1  1
 27 28  1  0
 27 29  1  0
 28 18  1  0
 29 30  1  0
 31 29  2  0
M  END
$$$$
