EHR.pdb
     RDKit          3D

 31 31  0  0  1  0  0  0  0  0999 V2000
   28.2108  -19.7292  -15.4090 N   0  0  0  0  0  0  0  0  0  0  0  0
   27.1611  -18.9370  -16.0817 C   0  0  1  0  0  0  0  0  0  0  0  0
   27.5551  -18.8563  -17.5280 C   0  0  0  0  0  0  0  0  0  0  0  0
   28.9115  -18.2300  -17.6820 C   0  0  0  0  0  0  0  0  0  0  0  0
   29.2666  -18.0631  -19.1157 C   0  0  0  0  0  0  0  0  0  0  0  0
   30.1881  -18.6914  -19.6754 O   0  0  0  0  0  0  0  0  0  0  0  0
   25.8706  -19.6859  -15.9805 C   0  0  0  0  0  0  0  0  0  0  0  0
   24.8770  -19.3269  -16.6437 O   0  0  0  0  0  0  0  0  0  0  0  0
   28.5573  -17.1615  -19.9292 O   0  0  0  0  0  0  0  0  0  0  0  0
   25.7621  -20.8356  -15.1121 N   0  0  0  0  0  0  0  0  0  0  0  0
   24.5022  -21.4739  -14.9889 C   0  0  1  0  0  0  0  0  0  0  0  0
   24.6420  -22.8421  -14.2944 C   0  0  0  0  0  0  0  0  0  0  0  0
   25.4802  -23.6772  -15.1882 C   0  0  0  0  0  0  0  0  0  0  0  0
   25.8974  -23.3683  -16.4771 C   0  0  0  0  0  0  0  0  0  0  0  0
   26.6373  -24.3732  -16.9637 N   0  0  0  0  0  0  0  0  0  0  0  0
   26.6940  -25.3092  -16.0058 C   0  0  0  0  0  0  0  0  0  0  0  0
   25.9899  -24.8843  -14.9271 N   0  0  0  0  0  0  0  0  0  0  0  0
   23.4641  -20.7495  -14.2593 C   0  0  0  0  0  0  0  0  0  0  0  0
   23.8807  -19.8129  -13.4970 O   0  0  0  0  0  0  0  0  0  0  0  0
   18.8196  -14.3760  -16.3081 N   0  0  0  0  0  0  0  0  0  0  0  0
   18.4474  -14.5373  -14.9530 C   0  0  0  0  0  0  0  0  0  0  0  0
   17.8230  -13.6163  -14.2943 N   0  0  0  0  0  0  0  0  0  0  0  0
   18.7686  -15.7646  -14.2686 N   0  0  0  0  0  0  0  0  0  0  0  0
   19.6208  -16.7417  -14.8925 C   0  0  0  0  0  0  0  0  0  0  0  0
   19.9393  -17.8546  -13.9029 C   0  0  0  0  0  0  0  0  0  0  0  0
   20.8212  -18.8763  -14.5805 C   0  0  0  0  0  0  0  0  0  0  0  0
   21.1800  -20.0317  -13.7056 C   0  0  2  0  0  0  0  0  0  0  0  0
   22.0850  -20.9693  -14.3070 N   0  0  0  0  0  0  0  0  0  0  0  0
   19.9132  -20.7117  -13.3220 C   0  0  0  0  0  0  0  0  0  0  0  0
   19.7611  -22.0381  -13.6809 O   0  0  0  0  0  0  0  0  0  0  0  0
   18.9831  -20.1495  -12.6947 O   0  0  0  0  0  0  0  0  0  0  0  0
  2  1  1  1
  2  3  1  0
  4  3  1  0
  5  4  1  0
  6  5  2  0
  7  8  2  0
  7  2  1  0
  9  5  1  0
 10  7  1  0
 11 10  1  0
 11 12  1  1
 13 17  1  0
 13 12  1  0
 14 13  2  0
 15 14  1  0
 15 16  1  0
 16 17  2  0
 18 11  1  0
 18 19  2  0
 21 20  1  0
 21 22  2  0
 23 24  1  0
 23 21  1  0
 25 26  1  0
 25 24  1  0
 27 26  1  6
 27 28  1  0
 27 29  1  0
 28 18  1  0
 29 30  1  0
 31 29  2  0
M  END
$$$$
