EHR.pdb
     RDKit          3D

 31 31  0  0  1  0  0  0  0  0999 V2000
   25.2721  -20.8105  -19.4965 N   0  0  0  0  0  0  0  0  0  0  0  0
   25.7675  -20.0554  -18.3277 C   0  0  1  0  0  0  0  0  0  0  0  0
   26.5193  -18.8767  -18.8745 C   0  0  0  0  0  0  0  0  0  0  0  0
   27.5894  -19.3179  -19.8316 C   0  0  0  0  0  0  0  0  0  0  0  0
   28.8920  -19.4937  -19.1374 C   0  0  0  0  0  0  0  0  0  0  0  0
   29.2469  -18.8117  -18.1545 O   0  0  0  0  0  0  0  0  0  0  0  0
   24.5873  -19.5528  -17.5590 C   0  0  0  0  0  0  0  0  0  0  0  0
   24.7443  -18.7831  -16.5901 O   0  0  0  0  0  0  0  0  0  0  0  0
   29.8097  -20.4667  -19.5718 O   0  0  0  0  0  0  0  0  0  0  0  0
   23.2505  -19.9544  -17.9324 N   0  0  0  0  0  0  0  0  0  0  0  0
   22.1729  -19.5875  -17.0873 C   0  0  1  0  0  0  0  0  0  0  0  0
   20.8193  -19.8259  -17.7836 C   0  0  0  0  0  0  0  0  0  0  0  0
   19.7822  -19.2914  -16.8683 C   0  0  0  0  0  0  0  0  0  0  0  0
   18.8775  -20.0222  -16.1079 C   0  0  0  0  0  0  0  0  0  0  0  0
   18.0974  -19.1863  -15.4102 N   0  0  0  0  0  0  0  0  0  0  0  0
   18.4936  -17.9429  -15.7168 C   0  0  0  0  0  0  0  0  0  0  0  0
   19.5180  -18.0089  -16.6034 N   0  0  0  0  0  0  0  0  0  0  0  0
   22.0908  -20.2606  -15.7931 C   0  0  0  0  0  0  0  0  0  0  0  0
   22.2984  -21.5209  -15.8155 O   0  0  0  0  0  0  0  0  0  0  0  0
   27.0538  -20.5446   -9.4565 N   0  0  0  0  0  0  0  0  0  0  0  0
   26.8756  -20.8255  -10.8313 C   0  0  0  0  0  0  0  0  0  0  0  0
   27.8713  -20.9257  -11.6502 N   0  0  0  0  0  0  0  0  0  0  0  0
   25.5444  -21.0082  -11.3531 N   0  0  0  0  0  0  0  0  0  0  0  0
   24.3987  -20.7986  -10.5081 C   0  0  0  0  0  0  0  0  0  0  0  0
   23.1243  -21.1123  -11.2805 C   0  0  0  0  0  0  0  0  0  0  0  0
   23.0752  -20.2484  -12.5181 C   0  0  0  0  0  0  0  0  0  0  0  0
   21.8594  -20.4709  -13.3557 C   0  0  2  0  0  0  0  0  0  0  0  0
   21.8139  -19.6802  -14.5526 N   0  0  0  0  0  0  0  0  0  0  0  0
   20.6725  -20.1860  -12.5045 C   0  0  0  0  0  0  0  0  0  0  0  0
   20.3025  -21.1414  -11.5764 O   0  0  0  0  0  0  0  0  0  0  0  0
   19.9950  -19.1326  -12.5837 O   0  0  0  0  0  0  0  0  0  0  0  0
  2  1  1  6
  2  3  1  0
  4  3  1  0
  5  4  1  0
  6  5  2  0
  7  8  2  0
  7  2  1  0
  9  5  1  0
 10  7  1  0
 11 10  1  0
 11 12  1  6
 13 17  1  0
 13 12  1  0
 14 13  2  0
 15 14  1  0
 15 16  1  0
 16 17  2  0
 18 11  1  0
 18 19  2  0
 21 20  1  0
 21 22  2  0
 23 24  1  0
 23 21  1  0
 25 26  1  0
 25 24  1  0
 27 26  1  1
 27 28  1  0
 27 29  1  0
 28 18  1  0
 29 30  1  0
 31 29  2  0
M  END
$$$$
