EHR.pdb
     RDKit          3D

 31 31  0  0  1  0  0  0  0  0999 V2000
   27.5513  -19.4432  -17.6696 N   0  0  0  0  0  0  0  0  0  0  0  0
   27.2750  -18.7070  -16.4192 C   0  0  1  0  0  0  0  0  0  0  0  0
   27.8698  -17.3398  -16.5941 C   0  0  0  0  0  0  0  0  0  0  0  0
   29.0375  -17.3778  -17.5379 C   0  0  0  0  0  0  0  0  0  0  0  0
   28.6167  -17.0558  -18.9267 C   0  0  0  0  0  0  0  0  0  0  0  0
   27.9731  -16.0313  -19.2321 O   0  0  0  0  0  0  0  0  0  0  0  0
   25.7932  -18.5669  -16.2747 C   0  0  0  0  0  0  0  0  0  0  0  0
   25.3032  -18.0517  -15.2498 O   0  0  0  0  0  0  0  0  0  0  0  0
   28.9357  -17.9189  -19.9902 O   0  0  0  0  0  0  0  0  0  0  0  0
   24.9125  -19.0277  -17.3234 N   0  0  0  0  0  0  0  0  0  0  0  0
   23.5131  -18.8961  -17.1383 C   0  0  1  0  0  0  0  0  0  0  0  0
   22.7475  -19.2937  -18.4150 C   0  0  0  0  0  0  0  0  0  0  0  0
   21.3572  -18.8118  -18.2318 C   0  0  0  0  0  0  0  0  0  0  0  0
   20.8431  -18.1308  -17.1351 C   0  0  0  0  0  0  0  0  0  0  0  0
   19.5454  -17.8672  -17.3368 N   0  0  0  0  0  0  0  0  0  0  0  0
   19.2324  -18.3693  -18.5396 C   0  0  0  0  0  0  0  0  0  0  0  0
   20.3351  -18.9433  -19.0822 N   0  0  0  0  0  0  0  0  0  0  0  0
   22.9166  -19.6646  -16.0481 C   0  0  0  0  0  0  0  0  0  0  0  0
   23.3416  -20.8629  -15.9245 O   0  0  0  0  0  0  0  0  0  0  0  0
   25.7324  -20.5034   -8.9666 N   0  0  0  0  0  0  0  0  0  0  0  0
   25.8217  -20.9819  -10.2946 C   0  0  0  0  0  0  0  0  0  0  0  0
   26.9301  -21.4171  -10.7986 N   0  0  0  0  0  0  0  0  0  0  0  0
   24.6456  -20.9905  -11.1280 N   0  0  0  0  0  0  0  0  0  0  0  0
   23.3848  -20.5309  -10.6085 C   0  0  0  0  0  0  0  0  0  0  0  0
   22.2958  -20.7210  -11.6560 C   0  0  0  0  0  0  0  0  0  0  0  0
   22.6401  -19.9009  -12.8764 C   0  0  0  0  0  0  0  0  0  0  0  0
   21.6399  -20.0189  -13.9786 C   0  0  2  0  0  0  0  0  0  0  0  0
   21.9458  -19.2336  -15.1403 N   0  0  0  0  0  0  0  0  0  0  0  0
   20.3162  -19.6251  -13.4244 C   0  0  0  0  0  0  0  0  0  0  0  0
   19.7042  -20.4949  -12.5412 O   0  0  0  0  0  0  0  0  0  0  0  0
   19.7305  -18.5536  -13.7140 O   0  0  0  0  0  0  0  0  0  0  0  0
  2  1  1  6
  2  3  1  0
  4  3  1  0
  5  4  1  0
  6  5  2  0
  7  8  2  0
  7  2  1  0
  9  5  1  0
 10  7  1  0
 11 10  1  0
 11 12  1  6
 13 17  1  0
 13 12  1  0
 14 13  2  0
 15 14  1  0
 15 16  1  0
 16 17  2  0
 18 11  1  0
 18 19  2  0
 21 20  1  0
 21 22  2  0
 23 24  1  0
 23 21  1  0
 25 26  1  0
 25 24  1  0
 27 26  1  1
 27 28  1  0
 27 29  1  0
 28 18  1  0
 29 30  1  0
 31 29  2  0
M  END
$$$$
