YDH.pdb
     RDKit          3D

 31 32  0  0  1  0  0  0  0  0999 V2000
   26.7808  -16.8195  -16.1763 O   0  0  0  0  0  0  0  0  0  0  0  0
   26.2339  -15.5517  -16.2121 C   0  0  0  0  0  0  0  0  0  0  0  0
   26.4448  -14.7071  -17.2768 C   0  0  0  0  0  0  0  0  0  0  0  0
   25.8789  -13.4462  -17.2742 C   0  0  0  0  0  0  0  0  0  0  0  0
   25.1101  -13.0374  -16.2162 C   0  0  0  0  0  0  0  0  0  0  0  0
   24.5082  -11.6955  -16.2232 C   0  0  0  0  0  0  0  0  0  0  0  0
   23.1053  -11.7694  -16.7261 C   0  0  2  0  0  0  0  0  0  0  0  0
   23.0708  -12.2529  -18.0724 N   0  0  0  0  0  0  0  0  0  0  0  0
   22.3802  -10.4710  -16.6155 C   0  0  0  0  0  0  0  0  0  0  0  0
   22.4009   -9.7476  -17.6587 O   0  0  0  0  0  0  0  0  0  0  0  0
   24.9083  -13.8874  -15.1637 C   0  0  0  0  0  0  0  0  0  0  0  0
   25.4630  -15.1531  -15.1415 C   0  0  0  0  0  0  0  0  0  0  0  0
   21.7163  -10.0568  -15.4547 N   0  0  0  0  0  0  0  0  0  0  0  0
   21.0051   -8.7902  -15.4527 C   0  0  1  0  0  0  0  0  0  0  0  0
   19.9440   -8.8349  -14.3768 C   0  0  0  0  0  0  0  0  0  0  0  0
   18.8089   -9.6872  -14.7353 C   0  0  0  0  0  0  0  0  0  0  0  0
   18.7234  -10.8407  -14.2676 O   0  0  0  0  0  0  0  0  0  0  0  0
   22.0079   -7.7120  -15.1299 C   0  0  0  0  0  0  0  0  0  0  0  0
   23.1616   -7.9778  -14.7224 O   0  0  0  0  0  0  0  0  0  0  0  0
   17.8333   -9.2223  -15.5870 O   0  0  0  0  0  0  0  0  0  0  0  0
   21.6021   -6.3856  -15.3038 N   0  0  0  0  0  0  0  0  0  0  0  0
   22.5329   -5.2754  -15.4939 C   0  0  1  0  0  0  0  0  0  0  0  0
   23.3201   -5.6003  -16.7510 C   0  0  0  0  0  0  0  0  0  0  0  0
   24.1821   -4.4338  -17.0615 C   0  0  0  0  0  0  0  0  0  0  0  0
   23.8273   -3.0939  -17.0453 C   0  0  0  0  0  0  0  0  0  0  0  0
   24.8800   -2.3314  -17.3793 N   0  0  0  0  0  0  0  0  0  0  0  0
   25.8949   -3.1588  -17.6075 C   0  0  0  0  0  0  0  0  0  0  0  0
   25.4811   -4.4405  -17.4170 N   0  0  0  0  0  0  0  0  0  0  0  0
   21.7330   -4.0459  -15.6507 C   0  0  0  0  0  0  0  0  0  0  0  0
   22.1333   -2.8128  -15.1506 O   0  0  0  0  0  0  0  0  0  0  0  0
   20.6348   -4.0816  -16.2591 O   0  0  0  0  0  0  0  0  0  0  0  0
  2  1  1  0
  3  2  2  0
  4  3  1  0
  5 11  1  0
  5  4  2  0
  6  5  1  0
  7  6  1  0
  7  8  1  6
  9 10  2  0
  9  7  1  0
 11 12  2  0
 12  2  1  0
 13  9  1  0
 14 13  1  0
 14 15  1  1
 16 15  1  0
 16 17  2  0
 18 14  1  0
 19 18  2  0
 20 16  1  0
 21 18  1  0
 22 21  1  0
 23 24  1  0
 22 23  1  6
 24 25  2  0
 26 25  1  0
 27 26  1  0
 28 27  2  0
 28 24  1  0
 29 22  1  0
 29 30  1  0
 31 29  2  0
M  END
$$$$
