YDH.pdb
     RDKit          3D

 31 32  0  0  1  0  0  0  0  0999 V2000
   21.7576  -19.8337  -15.1402 O   0  0  0  0  0  0  0  0  0  0  0  0
   21.8740  -18.4601  -15.2257 C   0  0  0  0  0  0  0  0  0  0  0  0
   22.1664  -17.8356  -16.4156 C   0  0  0  0  0  0  0  0  0  0  0  0
   22.2736  -16.4584  -16.4589 C   0  0  0  0  0  0  0  0  0  0  0  0
   22.0893  -15.7162  -15.3219 C   0  0  0  0  0  0  0  0  0  0  0  0
   22.2011  -14.2508  -15.3775 C   0  0  0  0  0  0  0  0  0  0  0  0
   23.5302  -13.8622  -15.9332 C   0  0  2  0  0  0  0  0  0  0  0  0
   24.5816  -14.1969  -15.0221 N   0  0  0  0  0  0  0  0  0  0  0  0
   23.6020  -12.4216  -16.3118 C   0  0  0  0  0  0  0  0  0  0  0  0
   24.0763  -11.6499  -15.4221 O   0  0  0  0  0  0  0  0  0  0  0  0
   21.7989  -16.3499  -14.1451 C   0  0  0  0  0  0  0  0  0  0  0  0
   21.6864  -17.7256  -14.0747 C   0  0  0  0  0  0  0  0  0  0  0  0
   23.1825  -11.9305  -17.5539 N   0  0  0  0  0  0  0  0  0  0  0  0
   23.3117  -10.5125  -17.8413 C   0  0  1  0  0  0  0  0  0  0  0  0
   23.6102  -10.3444  -19.3137 C   0  0  0  0  0  0  0  0  0  0  0  0
   23.7380   -8.9406  -19.7094 C   0  0  0  0  0  0  0  0  0  0  0  0
   22.9893   -8.4705  -20.5897 O   0  0  0  0  0  0  0  0  0  0  0  0
   21.9895   -9.8656  -17.5159 C   0  0  0  0  0  0  0  0  0  0  0  0
   20.8978  -10.3812  -17.8478 O   0  0  0  0  0  0  0  0  0  0  0  0
   24.6813   -8.1346  -19.1145 O   0  0  0  0  0  0  0  0  0  0  0  0
   22.0224   -8.6535  -16.8204 N   0  0  0  0  0  0  0  0  0  0  0  0
   20.8271   -7.8824  -16.4862 C   0  0  1  0  0  0  0  0  0  0  0  0
   20.7706   -7.8349  -14.9696 C   0  0  0  0  0  0  0  0  0  0  0  0
   19.5814   -7.0365  -14.5840 C   0  0  0  0  0  0  0  0  0  0  0  0
   19.5303   -5.6804  -14.3020 C   0  0  0  0  0  0  0  0  0  0  0  0
   18.2751   -5.3173  -13.9959 N   0  0  0  0  0  0  0  0  0  0  0  0
   17.5289   -6.4142  -14.0771 C   0  0  0  0  0  0  0  0  0  0  0  0
   18.3138   -7.4661  -14.4343 N   0  0  0  0  0  0  0  0  0  0  0  0
   20.9871   -6.5375  -17.0709 C   0  0  0  0  0  0  0  0  0  0  0  0
   19.9203   -5.7902  -17.5550 O   0  0  0  0  0  0  0  0  0  0  0  0
   22.1268   -6.0158  -17.1495 O   0  0  0  0  0  0  0  0  0  0  0  0
  2  1  1  0
  3  2  2  0
  4  3  1  0
  5 11  1  0
  5  4  2  0
  6  5  1  0
  7  6  1  0
  7  8  1  1
  9 10  2  0
  9  7  1  0
 11 12  2  0
 12  2  1  0
 13  9  1  0
 14 13  1  0
 14 15  1  6
 16 15  1  0
 16 17  2  0
 18 14  1  0
 19 18  2  0
 20 16  1  0
 21 18  1  0
 22 21  1  0
 23 24  1  0
 22 23  1  1
 24 25  2  0
 26 25  1  0
 27 26  1  0
 28 27  2  0
 28 24  1  0
 29 22  1  0
 29 30  1  0
 31 29  2  0
M  END
$$$$
