YDH.pdb
     RDKit          3D

 31 32  0  0  1  0  0  0  0  0999 V2000
   21.7139  -15.6229  -22.9009 O   0  0  0  0  0  0  0  0  0  0  0  0
   21.2663  -14.7363  -21.9410 C   0  0  0  0  0  0  0  0  0  0  0  0
   21.8687  -13.5142  -21.7538 C   0  0  0  0  0  0  0  0  0  0  0  0
   21.3896  -12.6554  -20.7827 C   0  0  0  0  0  0  0  0  0  0  0  0
   20.3187  -13.0180  -20.0087 C   0  0  0  0  0  0  0  0  0  0  0  0
   19.8125  -12.0964  -18.9803 C   0  0  0  0  0  0  0  0  0  0  0  0
   20.7389  -12.0803  -17.8106 C   0  0  2  0  0  0  0  0  0  0  0  0
   20.7958  -13.3671  -17.1873 N   0  0  0  0  0  0  0  0  0  0  0  0
   20.3942  -11.0277  -16.8121 C   0  0  0  0  0  0  0  0  0  0  0  0
   19.5479  -11.3726  -15.9307 O   0  0  0  0  0  0  0  0  0  0  0  0
   19.7288  -14.2363  -20.2054 C   0  0  0  0  0  0  0  0  0  0  0  0
   20.1885  -15.1136  -21.1694 C   0  0  0  0  0  0  0  0  0  0  0  0
   20.9507   -9.7432  -16.8247 N   0  0  0  0  0  0  0  0  0  0  0  0
   20.4801   -8.7521  -15.8728 C   0  0  1  0  0  0  0  0  0  0  0  0
   21.5627   -8.5202  -14.8435 C   0  0  0  0  0  0  0  0  0  0  0  0
   21.1587   -7.5778  -13.7983 C   0  0  0  0  0  0  0  0  0  0  0  0
   20.2635   -7.8919  -12.9881 O   0  0  0  0  0  0  0  0  0  0  0  0
   20.2279   -7.4780  -16.6379 C   0  0  0  0  0  0  0  0  0  0  0  0
   21.0669   -7.0068  -17.4391 O   0  0  0  0  0  0  0  0  0  0  0  0
   21.7622   -6.3448  -13.7042 O   0  0  0  0  0  0  0  0  0  0  0  0
   19.0082   -6.8303  -16.4213 N   0  0  0  0  0  0  0  0  0  0  0  0
   18.6376   -5.5718  -17.0646 C   0  0  1  0  0  0  0  0  0  0  0  0
   17.1264   -5.6051  -17.2088 C   0  0  0  0  0  0  0  0  0  0  0  0
   16.7939   -6.5686  -18.2865 C   0  0  0  0  0  0  0  0  0  0  0  0
   16.2999   -7.8559  -18.1451 C   0  0  0  0  0  0  0  0  0  0  0  0
   16.1192   -8.4183  -19.3501 N   0  0  0  0  0  0  0  0  0  0  0  0
   16.4885   -7.5154  -20.2530 C   0  0  0  0  0  0  0  0  0  0  0  0
   16.9007   -6.3862  -19.6166 N   0  0  0  0  0  0  0  0  0  0  0  0
   19.0799   -4.4744  -16.1836 C   0  0  0  0  0  0  0  0  0  0  0  0
   19.3636   -3.1964  -16.6495 O   0  0  0  0  0  0  0  0  0  0  0  0
   19.2164   -4.6718  -14.9508 O   0  0  0  0  0  0  0  0  0  0  0  0
  2  1  1  0
  3  2  2  0
  4  3  1  0
  5 11  1  0
  5  4  2  0
  6  5  1  0
  7  6  1  0
  7  8  1  1
  9 10  2  0
  9  7  1  0
 11 12  2  0
 12  2  1  0
 13  9  1  0
 14 13  1  0
 14 15  1  1
 16 15  1  0
 16 17  2  0
 18 14  1  0
 19 18  2  0
 20 16  1  0
 21 18  1  0
 22 21  1  0
 23 24  1  0
 22 23  1  1
 24 25  2  0
 26 25  1  0
 27 26  1  0
 28 27  2  0
 28 24  1  0
 29 22  1  0
 29 30  1  0
 31 29  2  0
M  END
$$$$
