YDH.pdb
     RDKit          3D

 31 32  0  0  1  0  0  0  0  0999 V2000
   49.2473  -10.3477   -3.1131 O   0  0  0  0  0  0  0  0  0  0  0  0
   48.1744  -10.2759   -3.9800 C   0  0  0  0  0  0  0  0  0  0  0  0
   46.9399   -9.8372   -3.5618 C   0  0  0  0  0  0  0  0  0  0  0  0
   45.8920   -9.7796   -4.4611 C   0  0  0  0  0  0  0  0  0  0  0  0
   46.0804  -10.1574   -5.7647 C   0  0  0  0  0  0  0  0  0  0  0  0
   44.9610  -10.0891   -6.7163 C   0  0  0  0  0  0  0  0  0  0  0  0
   43.9639  -11.1552   -6.4068 C   0  0  2  0  0  0  0  0  0  0  0  0
   44.5020  -12.4522   -6.6820 N   0  0  0  0  0  0  0  0  0  0  0  0
   42.6682  -10.9621   -7.1194 C   0  0  0  0  0  0  0  0  0  0  0  0
   42.6305  -11.4089   -8.3072 O   0  0  0  0  0  0  0  0  0  0  0  0
   47.3133  -10.5917   -6.1674 C   0  0  0  0  0  0  0  0  0  0  0  0
   48.3775  -10.6590   -5.2882 C   0  0  0  0  0  0  0  0  0  0  0  0
   41.5578  -10.3357   -6.5410 N   0  0  0  0  0  0  0  0  0  0  0  0
   40.3226  -10.2310   -7.2982 C   0  0  1  0  0  0  0  0  0  0  0  0
   39.1838  -10.7206   -6.4330 C   0  0  0  0  0  0  0  0  0  0  0  0
   37.8741  -10.5326   -7.0600 C   0  0  0  0  0  0  0  0  0  0  0  0
   37.7919   -9.9918   -8.1813 O   0  0  0  0  0  0  0  0  0  0  0  0
   40.1187   -8.7739   -7.6264 C   0  0  0  0  0  0  0  0  0  0  0  0
   40.1851   -7.8801   -6.7521 O   0  0  0  0  0  0  0  0  0  0  0  0
   36.7308  -10.9501   -6.4182 O   0  0  0  0  0  0  0  0  0  0  0  0
   39.8497   -8.4481   -8.9589 N   0  0  0  0  0  0  0  0  0  0  0  0
   39.5217   -7.0971   -9.4087 C   0  0  1  0  0  0  0  0  0  0  0  0
   39.2408   -7.2085  -10.8968 C   0  0  0  0  0  0  0  0  0  0  0  0
   39.0168   -5.8390  -11.4206 C   0  0  0  0  0  0  0  0  0  0  0  0
   39.8037   -4.7168  -11.2138 C   0  0  0  0  0  0  0  0  0  0  0  0
   39.2805   -3.6592  -11.8533 N   0  0  0  0  0  0  0  0  0  0  0  0
   38.1783   -4.0864  -12.4610 C   0  0  0  0  0  0  0  0  0  0  0  0
   38.0085   -5.4113  -12.2043 N   0  0  0  0  0  0  0  0  0  0  0  0
   38.3314   -6.6548   -8.6580 C   0  0  0  0  0  0  0  0  0  0  0  0
   38.2388   -5.4084   -8.0508 O   0  0  0  0  0  0  0  0  0  0  0  0
   37.3392   -7.4162   -8.5439 O   0  0  0  0  0  0  0  0  0  0  0  0
  2  1  1  0
  3  2  2  0
  4  3  1  0
  5 11  1  0
  5  4  2  0
  6  5  1  0
  7  6  1  0
  7  8  1  6
  9 10  2  0
  9  7  1  0
 11 12  2  0
 12  2  1  0
 13  9  1  0
 14 13  1  0
 14 15  1  1
 16 15  1  0
 16 17  2  0
 18 14  1  0
 19 18  2  0
 20 16  1  0
 21 18  1  0
 22 21  1  0
 23 24  1  0
 22 23  1  6
 24 25  2  0
 26 25  1  0
 27 26  1  0
 28 27  2  0
 28 24  1  0
 29 22  1  0
 29 30  1  0
 31 29  2  0
M  END
$$$$
