YDH.pdb
     RDKit          3D

 31 32  0  0  1  0  0  0  0  0999 V2000
   30.8908  -21.5986   -9.8231 O   0  0  0  0  0  0  0  0  0  0  0  0
   29.9820  -21.0671  -10.7171 C   0  0  0  0  0  0  0  0  0  0  0  0
   30.3834  -20.2653  -11.7598 C   0  0  0  0  0  0  0  0  0  0  0  0
   29.4421  -19.7537  -12.6330 C   0  0  0  0  0  0  0  0  0  0  0  0
   28.1138  -20.0433  -12.4623 C   0  0  0  0  0  0  0  0  0  0  0  0
   27.1190  -19.4982  -13.3985 C   0  0  0  0  0  0  0  0  0  0  0  0
   26.7420  -20.5361  -14.4022 C   0  0  2  0  0  0  0  0  0  0  0  0
   27.8743  -20.9212  -15.1876 N   0  0  0  0  0  0  0  0  0  0  0  0
   25.6137  -20.1113  -15.2800 C   0  0  0  0  0  0  0  0  0  0  0  0
   25.9531  -19.5255  -16.3541 O   0  0  0  0  0  0  0  0  0  0  0  0
   27.7281  -20.8422  -11.4212 C   0  0  0  0  0  0  0  0  0  0  0  0
   28.6492  -21.3662  -10.5339 C   0  0  0  0  0  0  0  0  0  0  0  0
   24.2679  -20.3316  -14.9641 N   0  0  0  0  0  0  0  0  0  0  0  0
   23.2509  -20.1056  -15.9764 C   0  0  1  0  0  0  0  0  0  0  0  0
   23.4887  -21.0642  -17.1210 C   0  0  0  0  0  0  0  0  0  0  0  0
   22.4800  -20.9487  -18.1759 C   0  0  0  0  0  0  0  0  0  0  0  0
   22.4462  -19.9312  -18.8971 O   0  0  0  0  0  0  0  0  0  0  0  0
   21.9140  -20.3954  -15.3431 C   0  0  0  0  0  0  0  0  0  0  0  0
   21.8084  -21.0649  -14.2903 O   0  0  0  0  0  0  0  0  0  0  0  0
   21.5672  -21.9584  -18.3772 O   0  0  0  0  0  0  0  0  0  0  0  0
   20.7788  -19.8839  -15.9786 N   0  0  0  0  0  0  0  0  0  0  0  0
   19.8513  -18.9497  -15.3446 C   0  0  1  0  0  0  0  0  0  0  0  0
   20.6471  -17.6833  -15.0827 C   0  0  0  0  0  0  0  0  0  0  0  0
   19.7334  -16.6924  -14.4632 C   0  0  0  0  0  0  0  0  0  0  0  0
   18.4267  -16.8937  -14.0472 C   0  0  0  0  0  0  0  0  0  0  0  0
   17.9246  -15.7612  -13.5311 N   0  0  0  0  0  0  0  0  0  0  0  0
   18.8847  -14.8456  -13.6112 C   0  0  0  0  0  0  0  0  0  0  0  0
   19.9897  -15.4017  -14.1769 N   0  0  0  0  0  0  0  0  0  0  0  0
   18.7420  -18.7145  -16.2881 C   0  0  0  0  0  0  0  0  0  0  0  0
   17.4183  -18.5886  -15.8848 O   0  0  0  0  0  0  0  0  0  0  0  0
   18.9711  -18.6189  -17.5192 O   0  0  0  0  0  0  0  0  0  0  0  0
  2  1  1  0
  3  2  2  0
  4  3  1  0
  5 11  1  0
  5  4  2  0
  6  5  1  0
  7  6  1  0
  7  8  1  6
  9 10  2  0
  9  7  1  0
 11 12  2  0
 12  2  1  0
 13  9  1  0
 14 13  1  0
 14 15  1  6
 16 15  1  0
 16 17  2  0
 18 14  1  0
 19 18  2  0
 20 16  1  0
 21 18  1  0
 22 21  1  0
 23 24  1  0
 22 23  1  6
 24 25  2  0
 26 25  1  0
 27 26  1  0
 28 27  2  0
 28 24  1  0
 29 22  1  0
 29 30  1  0
 31 29  2  0
M  END
$$$$
