YDH.pdb
     RDKit          3D

 31 32  0  0  1  0  0  0  0  0999 V2000
   10.5785  -10.8558   -9.4960 O   0  0  0  0  0  0  0  0  0  0  0  0
   11.7845  -10.3543   -9.9450 C   0  0  0  0  0  0  0  0  0  0  0  0
   12.5761   -9.5622   -9.1466 C   0  0  0  0  0  0  0  0  0  0  0  0
   13.7766   -9.0807   -9.6337 C   0  0  0  0  0  0  0  0  0  0  0  0
   14.1784   -9.3904  -10.9065 C   0  0  0  0  0  0  0  0  0  0  0  0
   15.4594   -8.8774  -11.4156 C   0  0  0  0  0  0  0  0  0  0  0  0
   16.4838   -9.9622  -11.4022 C   0  0  2  0  0  0  0  0  0  0  0  0
   16.7323  -10.4126  -10.0669 N   0  0  0  0  0  0  0  0  0  0  0  0
   17.7577   -9.5653  -12.0683 C   0  0  0  0  0  0  0  0  0  0  0  0
   18.6588   -9.1187  -11.2933 O   0  0  0  0  0  0  0  0  0  0  0  0
   13.3816  -10.1792  -11.6899 C   0  0  0  0  0  0  0  0  0  0  0  0
   12.1766  -10.6732  -11.2271 C   0  0  0  0  0  0  0  0  0  0  0  0
   17.9691   -9.6684  -13.4483 N   0  0  0  0  0  0  0  0  0  0  0  0
   19.2630   -9.3075  -14.0011 C   0  0  1  0  0  0  0  0  0  0  0  0
   19.8708  -10.5327  -14.6452 C   0  0  0  0  0  0  0  0  0  0  0  0
   21.2030  -10.2807  -15.1978 C   0  0  0  0  0  0  0  0  0  0  0  0
   21.7580   -9.1795  -15.0088 O   0  0  0  0  0  0  0  0  0  0  0  0
   19.0252   -8.2502  -15.0488 C   0  0  0  0  0  0  0  0  0  0  0  0
   18.2605   -8.4392  -16.0221 O   0  0  0  0  0  0  0  0  0  0  0  0
   21.8479  -11.2538  -15.9260 O   0  0  0  0  0  0  0  0  0  0  0  0
   19.6955   -7.0331  -14.8958 N   0  0  0  0  0  0  0  0  0  0  0  0
   19.6029   -5.9347  -15.8550 C   0  0  1  0  0  0  0  0  0  0  0  0
   19.1065   -4.7340  -15.0692 C   0  0  0  0  0  0  0  0  0  0  0  0
   17.6241   -4.7848  -15.0502 C   0  0  0  0  0  0  0  0  0  0  0  0
   16.7769   -5.1047  -16.0995 C   0  0  0  0  0  0  0  0  0  0  0  0
   15.4979   -5.0471  -15.6969 N   0  0  0  0  0  0  0  0  0  0  0  0
   15.5156   -4.6970  -14.4148 C   0  0  0  0  0  0  0  0  0  0  0  0
   16.8044   -4.5348  -14.0112 N   0  0  0  0  0  0  0  0  0  0  0  0
   20.9529   -5.7094  -16.4053 C   0  0  0  0  0  0  0  0  0  0  0  0
   21.1766   -5.1714  -17.6668 O   0  0  0  0  0  0  0  0  0  0  0  0
   21.9676   -6.0070  -15.7278 O   0  0  0  0  0  0  0  0  0  0  0  0
  2  1  1  0
  3  2  2  0
  4  3  1  0
  5 11  1  0
  5  4  2  0
  6  5  1  0
  7  6  1  0
  7  8  1  1
  9 10  2  0
  9  7  1  0
 11 12  2  0
 12  2  1  0
 13  9  1  0
 14 13  1  0
 14 15  1  6
 16 15  1  0
 16 17  2  0
 18 14  1  0
 19 18  2  0
 20 16  1  0
 21 18  1  0
 22 21  1  0
 23 24  1  0
 22 23  1  1
 24 25  2  0
 26 25  1  0
 27 26  1  0
 28 27  2  0
 28 24  1  0
 29 22  1  0
 29 30  1  0
 31 29  2  0
M  END
$$$$
