YDH.pdb
     RDKit          3D

 31 32  0  0  1  0  0  0  0  0999 V2000
   37.9800  -10.3853   -5.4253 O   0  0  0  0  0  0  0  0  0  0  0  0
   37.9082  -10.0072   -6.7519 C   0  0  0  0  0  0  0  0  0  0  0  0
   37.3125   -8.8275   -7.1323 C   0  0  0  0  0  0  0  0  0  0  0  0
   37.2619   -8.4854   -8.4705 C   0  0  0  0  0  0  0  0  0  0  0  0
   37.8028   -9.3168   -9.4158 C   0  0  0  0  0  0  0  0  0  0  0  0
   37.7483   -8.9432  -10.8373 C   0  0  0  0  0  0  0  0  0  0  0  0
   39.0481   -8.3417  -11.2558 C   0  0  2  0  0  0  0  0  0  0  0  0
   40.1452   -9.1692  -10.8568 N   0  0  0  0  0  0  0  0  0  0  0  0
   39.2310   -6.9491  -10.7544 C   0  0  0  0  0  0  0  0  0  0  0  0
   40.1332   -6.8041   -9.8730 O   0  0  0  0  0  0  0  0  0  0  0  0
   38.3923  -10.4871   -9.0237 C   0  0  0  0  0  0  0  0  0  0  0  0
   38.4559  -10.8526   -7.6924 C   0  0  0  0  0  0  0  0  0  0  0  0
   38.4741   -5.8623  -11.2079 N   0  0  0  0  0  0  0  0  0  0  0  0
   38.7901   -4.5256  -10.7352 C   0  0  1  0  0  0  0  0  0  0  0  0
   38.3748   -3.5293  -11.7936 C   0  0  0  0  0  0  0  0  0  0  0  0
   39.3794   -3.3690  -12.8465 C   0  0  0  0  0  0  0  0  0  0  0  0
   40.5930   -3.3883  -12.5581 O   0  0  0  0  0  0  0  0  0  0  0  0
   37.9903   -4.2923   -9.4789 C   0  0  0  0  0  0  0  0  0  0  0  0
   36.7679   -4.5547   -9.4109 O   0  0  0  0  0  0  0  0  0  0  0  0
   38.9918   -3.1969  -14.1555 O   0  0  0  0  0  0  0  0  0  0  0  0
   38.6683   -3.7663   -8.3753 N   0  0  0  0  0  0  0  0  0  0  0  0
   38.0340   -3.5157   -7.0831 C   0  0  1  0  0  0  0  0  0  0  0  0
   38.8986   -4.2162   -6.0500 C   0  0  0  0  0  0  0  0  0  0  0  0
   38.3548   -3.8935   -4.7082 C   0  0  0  0  0  0  0  0  0  0  0  0
   37.2038   -3.1798   -4.4131 C   0  0  0  0  0  0  0  0  0  0  0  0
   37.0373   -3.0973   -3.0840 N   0  0  0  0  0  0  0  0  0  0  0  0
   38.0583   -3.7429   -2.5296 C   0  0  0  0  0  0  0  0  0  0  0  0
   38.8661   -4.2313   -3.5090 N   0  0  0  0  0  0  0  0  0  0  0  0
   38.0074   -2.0554   -6.8760 C   0  0  0  0  0  0  0  0  0  0  0  0
   37.0664   -1.4209   -6.0743 O   0  0  0  0  0  0  0  0  0  0  0  0
   38.8607   -1.3236   -7.4361 O   0  0  0  0  0  0  0  0  0  0  0  0
  2  1  1  0
  3  2  2  0
  4  3  1  0
  5 11  1  0
  5  4  2  0
  6  5  1  0
  7  6  1  0
  7  8  1  1
  9 10  2  0
  9  7  1  0
 11 12  2  0
 12  2  1  0
 13  9  1  0
 14 13  1  0
 14 15  1  6
 16 15  1  0
 16 17  2  0
 18 14  1  0
 19 18  2  0
 20 16  1  0
 21 18  1  0
 22 21  1  0
 23 24  1  0
 22 23  1  1
 24 25  2  0
 26 25  1  0
 27 26  1  0
 28 27  2  0
 28 24  1  0
 29 22  1  0
 29 30  1  0
 31 29  2  0
M  END
$$$$
