YDH.pdb
     RDKit          3D

 31 32  0  0  1  0  0  0  0  0999 V2000
   18.4512  -15.4743  -20.9402 O   0  0  0  0  0  0  0  0  0  0  0  0
   18.4974  -14.6399  -19.8405 C   0  0  0  0  0  0  0  0  0  0  0  0
   18.7897  -15.1197  -18.5853 C   0  0  0  0  0  0  0  0  0  0  0  0
   18.8266  -14.2512  -17.5108 C   0  0  0  0  0  0  0  0  0  0  0  0
   18.5736  -12.9170  -17.6934 C   0  0  0  0  0  0  0  0  0  0  0  0
   18.6190  -11.9988  -16.5453 C   0  0  0  0  0  0  0  0  0  0  0  0
   19.9246  -11.2768  -16.5221 C   0  0  2  0  0  0  0  0  0  0  0  0
   20.9991  -12.1749  -16.2280 N   0  0  0  0  0  0  0  0  0  0  0  0
   19.9322  -10.1219  -15.5786 C   0  0  0  0  0  0  0  0  0  0  0  0
   20.1576  -10.4152  -14.3641 O   0  0  0  0  0  0  0  0  0  0  0  0
   18.2843  -12.4530  -18.9472 C   0  0  0  0  0  0  0  0  0  0  0  0
   18.2408  -13.3003  -20.0381 C   0  0  0  0  0  0  0  0  0  0  0  0
   19.7093   -8.7993  -15.9795 N   0  0  0  0  0  0  0  0  0  0  0  0
   19.8056   -7.7308  -15.0001 C   0  0  1  0  0  0  0  0  0  0  0  0
   20.1139   -6.4399  -15.7239 C   0  0  0  0  0  0  0  0  0  0  0  0
   21.4578   -6.4226  -16.3047 C   0  0  0  0  0  0  0  0  0  0  0  0
   22.4201   -6.8903  -15.6630 O   0  0  0  0  0  0  0  0  0  0  0  0
   18.4647   -7.6220  -14.3201 C   0  0  0  0  0  0  0  0  0  0  0  0
   17.3888   -7.7368  -14.9501 O   0  0  0  0  0  0  0  0  0  0  0  0
   21.6660   -5.8926  -17.5573 O   0  0  0  0  0  0  0  0  0  0  0  0
   18.4615   -7.3859  -12.9423 N   0  0  0  0  0  0  0  0  0  0  0  0
   17.2421   -7.2123  -12.1563 C   0  0  1  0  0  0  0  0  0  0  0  0
   17.6330   -7.4789  -10.7135 C   0  0  0  0  0  0  0  0  0  0  0  0
   16.4132   -7.3450   -9.8801 C   0  0  0  0  0  0  0  0  0  0  0  0
   15.1055   -7.1976  -10.3152 C   0  0  0  0  0  0  0  0  0  0  0  0
   14.2742   -7.1122   -9.2651 N   0  0  0  0  0  0  0  0  0  0  0  0
   15.0267   -7.2016   -8.1731 C   0  0  0  0  0  0  0  0  0  0  0  0
   16.3299   -7.3435   -8.5359 N   0  0  0  0  0  0  0  0  0  0  0  0
   16.7805   -5.8249  -12.3515 C   0  0  0  0  0  0  0  0  0  0  0  0
   15.4370   -5.4742  -12.4067 O   0  0  0  0  0  0  0  0  0  0  0  0
   17.6149   -4.8947  -12.4771 O   0  0  0  0  0  0  0  0  0  0  0  0
  2  1  1  0
  3  2  2  0
  4  3  1  0
  5 11  1  0
  5  4  2  0
  6  5  1  0
  7  6  1  0
  7  8  1  1
  9 10  2  0
  9  7  1  0
 11 12  2  0
 12  2  1  0
 13  9  1  0
 14 13  1  0
 14 15  1  6
 16 15  1  0
 16 17  2  0
 18 14  1  0
 19 18  2  0
 20 16  1  0
 21 18  1  0
 22 21  1  0
 23 24  1  0
 22 23  1  1
 24 25  2  0
 26 25  1  0
 27 26  1  0
 28 27  2  0
 28 24  1  0
 29 22  1  0
 29 30  1  0
 31 29  2  0
M  END
$$$$
