YDH.pdb
     RDKit          3D

 31 32  0  0  1  0  0  0  0  0999 V2000
   21.9022   -1.4645  -23.4375 O   0  0  0  0  0  0  0  0  0  0  0  0
   21.6650   -2.5930  -22.6772 C   0  0  0  0  0  0  0  0  0  0  0  0
   21.3875   -2.5093  -21.3328 C   0  0  0  0  0  0  0  0  0  0  0  0
   21.1553   -3.6627  -20.6076 C   0  0  0  0  0  0  0  0  0  0  0  0
   21.2006   -4.8856  -21.2238 C   0  0  0  0  0  0  0  0  0  0  0  0
   20.9482   -6.1079  -20.4456 C   0  0  0  0  0  0  0  0  0  0  0  0
   22.1593   -6.4643  -19.6502 C   0  0  2  0  0  0  0  0  0  0  0  0
   23.2097   -6.9316  -20.5021 N   0  0  0  0  0  0  0  0  0  0  0  0
   21.8752   -7.4566  -18.5739 C   0  0  0  0  0  0  0  0  0  0  0  0
   22.0375   -8.6726  -18.9007 O   0  0  0  0  0  0  0  0  0  0  0  0
   21.4777   -4.9547  -22.5615 C   0  0  0  0  0  0  0  0  0  0  0  0
   21.7138   -3.8166  -23.3093 C   0  0  0  0  0  0  0  0  0  0  0  0
   21.4578   -7.0975  -17.2868 N   0  0  0  0  0  0  0  0  0  0  0  0
   21.2367   -8.1337  -16.2931 C   0  0  1  0  0  0  0  0  0  0  0  0
   21.5210   -7.5577  -14.9246 C   0  0  0  0  0  0  0  0  0  0  0  0
   21.3953   -8.5495  -13.8549 C   0  0  0  0  0  0  0  0  0  0  0  0
   21.0786   -9.7247  -14.1287 O   0  0  0  0  0  0  0  0  0  0  0  0
   19.7873   -8.5386  -16.3806 C   0  0  0  0  0  0  0  0  0  0  0  0
   18.9202   -7.7972  -16.8964 O   0  0  0  0  0  0  0  0  0  0  0  0
   21.6252   -8.1920  -12.5462 O   0  0  0  0  0  0  0  0  0  0  0  0
   19.4378   -9.7880  -15.8601 N   0  0  0  0  0  0  0  0  0  0  0  0
   18.0901  -10.3469  -15.9399 C   0  0  1  0  0  0  0  0  0  0  0  0
   17.7891  -10.5033  -17.4199 C   0  0  0  0  0  0  0  0  0  0  0  0
   16.4334  -11.0914  -17.5482 C   0  0  0  0  0  0  0  0  0  0  0  0
   15.2888  -10.7337  -16.8530 C   0  0  0  0  0  0  0  0  0  0  0  0
   14.2522  -11.4900  -17.2460 N   0  0  0  0  0  0  0  0  0  0  0  0
   14.7147  -12.3203  -18.1752 C   0  0  0  0  0  0  0  0  0  0  0  0
   16.0409  -12.0862  -18.3668 N   0  0  0  0  0  0  0  0  0  0  0  0
   18.1055  -11.6472  -15.2434 C   0  0  0  0  0  0  0  0  0  0  0  0
   17.0062  -12.1542  -14.5612 O   0  0  0  0  0  0  0  0  0  0  0  0
   19.1446  -12.3526  -15.2482 O   0  0  0  0  0  0  0  0  0  0  0  0
  2  1  1  0
  3  2  2  0
  4  3  1  0
  5 11  1  0
  5  4  2  0
  6  5  1  0
  7  6  1  0
  7  8  1  6
  9 10  2  0
  9  7  1  0
 11 12  2  0
 12  2  1  0
 13  9  1  0
 14 13  1  0
 14 15  1  1
 16 15  1  0
 16 17  2  0
 18 14  1  0
 19 18  2  0
 20 16  1  0
 21 18  1  0
 22 21  1  0
 23 24  1  0
 22 23  1  6
 24 25  2  0
 26 25  1  0
 27 26  1  0
 28 27  2  0
 28 24  1  0
 29 22  1  0
 29 30  1  0
 31 29  2  0
M  END
$$$$
