YDH.pdb
     RDKit          3D

 31 32  0  0  1  0  0  0  0  0999 V2000
   17.9588   -5.3633  -21.7143 O   0  0  0  0  0  0  0  0  0  0  0  0
   18.1558   -6.4924  -20.9435 C   0  0  0  0  0  0  0  0  0  0  0  0
   18.2517   -7.7421  -21.5095 C   0  0  0  0  0  0  0  0  0  0  0  0
   18.4496   -8.8467  -20.7028 C   0  0  0  0  0  0  0  0  0  0  0  0
   18.5503   -8.6995  -19.3443 C   0  0  0  0  0  0  0  0  0  0  0  0
   18.7650   -9.8798  -18.4934 C   0  0  0  0  0  0  0  0  0  0  0  0
   17.4531  -10.4180  -18.0289 C   0  0  2  0  0  0  0  0  0  0  0  0
   16.8795   -9.5707  -17.0287 N   0  0  0  0  0  0  0  0  0  0  0  0
   17.5436  -11.8233  -17.5381 C   0  0  0  0  0  0  0  0  0  0  0  0
   16.9784  -12.0459  -16.4233 O   0  0  0  0  0  0  0  0  0  0  0  0
   18.4531   -7.4509  -18.7943 C   0  0  0  0  0  0  0  0  0  0  0  0
   18.2551   -6.3302  -19.5785 C   0  0  0  0  0  0  0  0  0  0  0  0
   18.1996  -12.8424  -18.2388 N   0  0  0  0  0  0  0  0  0  0  0  0
   18.2188  -14.1874  -17.6905 C   0  0  1  0  0  0  0  0  0  0  0  0
   16.8002  -14.7070  -17.6383 C   0  0  0  0  0  0  0  0  0  0  0  0
   16.7220  -16.0973  -17.1861 C   0  0  0  0  0  0  0  0  0  0  0  0
   15.9895  -16.9082  -17.7881 O   0  0  0  0  0  0  0  0  0  0  0  0
   19.0368  -15.0421  -18.6248 C   0  0  0  0  0  0  0  0  0  0  0  0
   18.7570  -15.1534  -19.8401 O   0  0  0  0  0  0  0  0  0  0  0  0
   17.4538  -16.5158  -16.0986 O   0  0  0  0  0  0  0  0  0  0  0  0
   20.1348  -15.7158  -18.0821 N   0  0  0  0  0  0  0  0  0  0  0  0
   21.0401  -16.5492  -18.8702 C   0  0  1  0  0  0  0  0  0  0  0  0
   22.2000  -16.8909  -17.9518 C   0  0  0  0  0  0  0  0  0  0  0  0
   23.2210  -17.6057  -18.7561 C   0  0  0  0  0  0  0  0  0  0  0  0
   23.2153  -17.8260  -20.1245 C   0  0  0  0  0  0  0  0  0  0  0  0
   24.3125  -18.5073  -20.4891 N   0  0  0  0  0  0  0  0  0  0  0  0
   25.0140  -18.7244  -19.3812 C   0  0  0  0  0  0  0  0  0  0  0  0
   24.3588  -18.1799  -18.3208 N   0  0  0  0  0  0  0  0  0  0  0  0
   20.2929  -17.7532  -19.2805 C   0  0  0  0  0  0  0  0  0  0  0  0
   20.4224  -18.3337  -20.5363 O   0  0  0  0  0  0  0  0  0  0  0  0
   19.4950  -18.3027  -18.4814 O   0  0  0  0  0  0  0  0  0  0  0  0
  2  1  1  0
  3  2  2  0
  4  3  1  0
  5 11  1  0
  5  4  2  0
  6  5  1  0
  7  6  1  0
  7  8  1  1
  9 10  2  0
  9  7  1  0
 11 12  2  0
 12  2  1  0
 13  9  1  0
 14 13  1  0
 14 15  1  6
 16 15  1  0
 16 17  2  0
 18 14  1  0
 19 18  2  0
 20 16  1  0
 21 18  1  0
 22 21  1  0
 23 24  1  0
 22 23  1  1
 24 25  2  0
 26 25  1  0
 27 26  1  0
 28 27  2  0
 28 24  1  0
 29 22  1  0
 29 30  1  0
 31 29  2  0
M  END
$$$$
