YDH.pdb
     RDKit          3D

 31 32  0  0  1  0  0  0  0  0999 V2000
   28.2126  -19.6715   -4.3793 O   0  0  0  0  0  0  0  0  0  0  0  0
   28.0233  -19.7457   -5.7455 C   0  0  0  0  0  0  0  0  0  0  0  0
   26.7679  -19.6767   -6.3025 C   0  0  0  0  0  0  0  0  0  0  0  0
   26.6215  -19.7543   -7.6746 C   0  0  0  0  0  0  0  0  0  0  0  0
   27.7216  -19.8990   -8.4785 C   0  0  0  0  0  0  0  0  0  0  0  0
   27.5573  -19.9766   -9.9380 C   0  0  0  0  0  0  0  0  0  0  0  0
   26.8240  -21.2240  -10.3023 C   0  0  2  0  0  0  0  0  0  0  0  0
   27.6460  -22.3772  -10.0973 N   0  0  0  0  0  0  0  0  0  0  0  0
   26.2926  -21.1986  -11.6955 C   0  0  0  0  0  0  0  0  0  0  0  0
   26.9138  -21.9307  -12.5263 O   0  0  0  0  0  0  0  0  0  0  0  0
   28.9645  -19.9662   -7.9115 C   0  0  0  0  0  0  0  0  0  0  0  0
   29.1382  -19.8914   -6.5424 C   0  0  0  0  0  0  0  0  0  0  0  0
   25.1887  -20.4305  -12.0842 N   0  0  0  0  0  0  0  0  0  0  0  0
   24.4441  -20.8023  -13.2747 C   0  0  1  0  0  0  0  0  0  0  0  0
   23.7097  -22.0947  -12.9999 C   0  0  0  0  0  0  0  0  0  0  0  0
   23.2218  -22.7399  -14.2203 C   0  0  0  0  0  0  0  0  0  0  0  0
   23.7207  -23.8198  -14.5965 O   0  0  0  0  0  0  0  0  0  0  0  0
   23.4492  -19.7024  -13.5444 C   0  0  0  0  0  0  0  0  0  0  0  0
   22.6340  -19.3159  -12.6761 O   0  0  0  0  0  0  0  0  0  0  0  0
   22.2137  -22.1609  -14.9563 O   0  0  0  0  0  0  0  0  0  0  0  0
   23.4670  -19.1185  -14.8144 N   0  0  0  0  0  0  0  0  0  0  0  0
   22.6854  -17.9362  -15.1699 C   0  0  1  0  0  0  0  0  0  0  0  0
   23.2723  -17.4232  -16.4730 C   0  0  0  0  0  0  0  0  0  0  0  0
   24.6154  -16.8669  -16.1785 C   0  0  0  0  0  0  0  0  0  0  0  0
   25.2136  -16.7174  -14.9371 C   0  0  0  0  0  0  0  0  0  0  0  0
   26.4359  -16.1802  -15.0729 N   0  0  0  0  0  0  0  0  0  0  0  0
   26.6258  -15.9851  -16.3739 C   0  0  0  0  0  0  0  0  0  0  0  0
   25.5241  -16.3995  -17.0557 N   0  0  0  0  0  0  0  0  0  0  0  0
   21.2823  -18.3622  -15.3311 C   0  0  0  0  0  0  0  0  0  0  0  0
   20.2135  -17.4745  -15.3061 O   0  0  0  0  0  0  0  0  0  0  0  0
   21.0074  -19.5759  -15.5002 O   0  0  0  0  0  0  0  0  0  0  0  0
  2  1  1  0
  3  2  2  0
  4  3  1  0
  5 11  1  0
  5  4  2  0
  6  5  1  0
  7  6  1  0
  7  8  1  6
  9 10  2  0
  9  7  1  0
 11 12  2  0
 12  2  1  0
 13  9  1  0
 14 13  1  0
 14 15  1  1
 16 15  1  0
 16 17  2  0
 18 14  1  0
 19 18  2  0
 20 16  1  0
 21 18  1  0
 22 21  1  0
 23 24  1  0
 22 23  1  6
 24 25  2  0
 26 25  1  0
 27 26  1  0
 28 27  2  0
 28 24  1  0
 29 22  1  0
 29 30  1  0
 31 29  2  0
M  END
$$$$
