YDH.pdb
     RDKit          3D

 31 32  0  0  1  0  0  0  0  0999 V2000
   14.9144  -16.0893  -15.0770 O   0  0  0  0  0  0  0  0  0  0  0  0
   15.5511  -14.9496  -14.6260 C   0  0  0  0  0  0  0  0  0  0  0  0
   16.8755  -14.9642  -14.2557 C   0  0  0  0  0  0  0  0  0  0  0  0
   17.4757  -13.8017  -13.8103 C   0  0  0  0  0  0  0  0  0  0  0  0
   16.7560  -12.6381  -13.7375 C   0  0  0  0  0  0  0  0  0  0  0  0
   17.4035  -11.4044  -13.2663 C   0  0  0  0  0  0  0  0  0  0  0  0
   17.8223  -10.5721  -14.4317 C   0  0  2  0  0  0  0  0  0  0  0  0
   18.8779  -11.2076  -15.1594 N   0  0  0  0  0  0  0  0  0  0  0  0
   18.2119   -9.1857  -14.0443 C   0  0  0  0  0  0  0  0  0  0  0  0
   19.4557   -9.0008  -13.8689 O   0  0  0  0  0  0  0  0  0  0  0  0
   15.4395  -12.6374  -14.1089 C   0  0  0  0  0  0  0  0  0  0  0  0
   14.8156  -13.7861  -14.5574 C   0  0  0  0  0  0  0  0  0  0  0  0
   17.2903   -8.1449  -13.8797 N   0  0  0  0  0  0  0  0  0  0  0  0
   17.7716   -6.8020  -13.6058 C   0  0  1  0  0  0  0  0  0  0  0  0
   18.0595   -6.1155  -14.9216 C   0  0  0  0  0  0  0  0  0  0  0  0
   18.5675   -4.7530  -14.7507 C   0  0  0  0  0  0  0  0  0  0  0  0
   18.7794   -4.3059  -13.6055 O   0  0  0  0  0  0  0  0  0  0  0  0
   16.6709   -6.0687  -12.8826 C   0  0  0  0  0  0  0  0  0  0  0  0
   15.5227   -5.9481  -13.3672 O   0  0  0  0  0  0  0  0  0  0  0  0
   18.8133   -3.9610  -15.8487 O   0  0  0  0  0  0  0  0  0  0  0  0
   16.9782   -5.5201  -11.6341 N   0  0  0  0  0  0  0  0  0  0  0  0
   16.0066   -4.8143  -10.8017 C   0  0  1  0  0  0  0  0  0  0  0  0
   16.3447   -5.1761   -9.3663 C   0  0  0  0  0  0  0  0  0  0  0  0
   15.6700   -6.4586   -9.0499 C   0  0  0  0  0  0  0  0  0  0  0  0
   14.9059   -7.2427   -9.8999 C   0  0  0  0  0  0  0  0  0  0  0  0
   14.4647   -8.3331   -9.2538 N   0  0  0  0  0  0  0  0  0  0  0  0
   14.9322   -8.2573   -8.0119 C   0  0  0  0  0  0  0  0  0  0  0  0
   15.6669   -7.1206   -7.8770 N   0  0  0  0  0  0  0  0  0  0  0  0
   16.1687   -3.3703  -11.0556 C   0  0  0  0  0  0  0  0  0  0  0  0
   15.1411   -2.4509  -10.8839 O   0  0  0  0  0  0  0  0  0  0  0  0
   17.2738   -2.9190  -11.4460 O   0  0  0  0  0  0  0  0  0  0  0  0
  2  1  1  0
  3  2  2  0
  4  3  1  0
  5 11  1  0
  5  4  2  0
  6  5  1  0
  7  6  1  0
  7  8  1  1
  9 10  2  0
  9  7  1  0
 11 12  2  0
 12  2  1  0
 13  9  1  0
 14 13  1  0
 14 15  1  6
 16 15  1  0
 16 17  2  0
 18 14  1  0
 19 18  2  0
 20 16  1  0
 21 18  1  0
 22 21  1  0
 23 24  1  0
 22 23  1  1
 24 25  2  0
 26 25  1  0
 27 26  1  0
 28 27  2  0
 28 24  1  0
 29 22  1  0
 29 30  1  0
 31 29  2  0
M  END
$$$$
