YDH.pdb
     RDKit          3D

 31 32  0  0  1  0  0  0  0  0999 V2000
    9.9103  -10.6476  -11.0328 O   0  0  0  0  0  0  0  0  0  0  0  0
   11.0699  -11.3534  -11.2877 C   0  0  0  0  0  0  0  0  0  0  0  0
   11.8638  -11.8249  -10.2685 C   0  0  0  0  0  0  0  0  0  0  0  0
   13.0161  -12.5276  -10.5662 C   0  0  0  0  0  0  0  0  0  0  0  0
   13.3678  -12.7548  -11.8708 C   0  0  0  0  0  0  0  0  0  0  0  0
   14.5936  -13.5070  -12.1788 C   0  0  0  0  0  0  0  0  0  0  0  0
   15.7704  -12.5898  -12.1669 C   0  0  2  0  0  0  0  0  0  0  0  0
   15.8011  -11.8149  -10.9644 N   0  0  0  0  0  0  0  0  0  0  0  0
   15.8270  -11.7032  -13.3647 C   0  0  0  0  0  0  0  0  0  0  0  0
   15.7862  -12.3008  -14.4842 O   0  0  0  0  0  0  0  0  0  0  0  0
   12.5692  -12.2804  -12.8748 C   0  0  0  0  0  0  0  0  0  0  0  0
   11.4120  -11.5747  -12.6043 C   0  0  0  0  0  0  0  0  0  0  0  0
   15.9186  -10.3085  -13.2862 N   0  0  0  0  0  0  0  0  0  0  0  0
   15.9901   -9.5279  -14.5092 C   0  0  1  0  0  0  0  0  0  0  0  0
   14.5875   -9.1336  -14.9121 C   0  0  0  0  0  0  0  0  0  0  0  0
   14.5382   -8.4664  -16.2144 C   0  0  0  0  0  0  0  0  0  0  0  0
   15.3204   -7.5268  -16.4633 O   0  0  0  0  0  0  0  0  0  0  0  0
   16.7965   -8.2908  -14.2064 C   0  0  0  0  0  0  0  0  0  0  0  0
   16.5128   -7.5293  -13.2538 O   0  0  0  0  0  0  0  0  0  0  0  0
   13.6322   -8.8708  -17.1678 O   0  0  0  0  0  0  0  0  0  0  0  0
   17.8881   -8.0177  -15.0358 N   0  0  0  0  0  0  0  0  0  0  0  0
   18.7961   -6.8916  -14.8296 C   0  0  1  0  0  0  0  0  0  0  0  0
   19.9767   -7.1317  -15.7539 C   0  0  0  0  0  0  0  0  0  0  0  0
   20.9376   -6.0181  -15.5624 C   0  0  0  0  0  0  0  0  0  0  0  0
   21.5877   -5.6558  -14.3930 C   0  0  0  0  0  0  0  0  0  0  0  0
   22.3837   -4.5980  -14.6136 N   0  0  0  0  0  0  0  0  0  0  0  0
   22.2520   -4.2812  -15.8977 C   0  0  0  0  0  0  0  0  0  0  0  0
   21.3745   -5.1390  -16.4844 N   0  0  0  0  0  0  0  0  0  0  0  0
   18.0652   -5.6600  -15.1830 C   0  0  0  0  0  0  0  0  0  0  0  0
   18.2291   -4.4600  -14.5018 O   0  0  0  0  0  0  0  0  0  0  0  0
   17.2499   -5.6629  -16.1383 O   0  0  0  0  0  0  0  0  0  0  0  0
  2  1  1  0
  3  2  2  0
  4  3  1  0
  5 11  1  0
  5  4  2  0
  6  5  1  0
  7  6  1  0
  7  8  1  1
  9 10  2  0
  9  7  1  0
 11 12  2  0
 12  2  1  0
 13  9  1  0
 14 13  1  0
 14 15  1  1
 16 15  1  0
 16 17  2  0
 18 14  1  0
 19 18  2  0
 20 16  1  0
 21 18  1  0
 22 21  1  0
 23 24  1  0
 22 23  1  6
 24 25  2  0
 26 25  1  0
 27 26  1  0
 28 27  2  0
 28 24  1  0
 29 22  1  0
 29 30  1  0
 31 29  2  0
M  END
$$$$
