KHK.pdb
     RDKit          3D

 29 29  0  0  1  0  0  0  0  0999 V2000
   25.8548  -24.6786  -15.8399 N   0  0  0  0  0  0  0  0  0  0  0  0
   25.0561  -23.7870  -16.6522 C   0  0  1  0  0  0  0  0  0  0  0  0
   24.4203  -24.6265  -17.7379 C   0  0  0  0  0  0  0  0  0  0  0  0
   25.5444  -25.1356  -18.6133 C   0  0  0  0  0  0  0  0  0  0  0  0
   25.0970  -26.0395  -19.7134 C   0  0  0  0  0  0  0  0  0  0  0  0
   26.2681  -26.4374  -20.5759 C   0  0  0  0  0  0  0  0  0  0  0  0
   25.7610  -27.4412  -21.5163 N   0  0  0  0  0  0  0  0  0  0  0  0
   24.0518  -23.1351  -15.7866 C   0  0  0  0  0  0  0  0  0  0  0  0
   23.1774  -23.8341  -15.2307 O   0  0  0  0  0  0  0  0  0  0  0  0
   24.0219  -21.7352  -15.5451 N   0  0  0  0  0  0  0  0  0  0  0  0
   23.0779  -21.1192  -14.6110 C   0  0  1  0  0  0  0  0  0  0  0  0
   23.8107  -20.3638  -13.5510 C   0  0  0  0  0  0  0  0  0  0  0  0
   24.6022  -21.1896  -12.6284 C   0  0  0  0  0  0  0  0  0  0  0  0
   24.7470  -22.5490  -12.6874 C   0  0  0  0  0  0  0  0  0  0  0  0
   25.5500  -22.8926  -11.6460 N   0  0  0  0  0  0  0  0  0  0  0  0
   25.8814  -21.7743  -10.9763 C   0  0  0  0  0  0  0  0  0  0  0  0
   25.3068  -20.7164  -11.5671 N   0  0  0  0  0  0  0  0  0  0  0  0
   22.0911  -20.2819  -15.3605 C   0  0  0  0  0  0  0  0  0  0  0  0
   22.4921  -19.5402  -16.2908 O   0  0  0  0  0  0  0  0  0  0  0  0
   20.7351  -20.3419  -15.0070 N   0  0  0  0  0  0  0  0  0  0  0  0
   19.7285  -19.6067  -15.7456 C   0  0  1  0  0  0  0  0  0  0  0  0
   18.4046  -20.2487  -15.4149 C   0  0  0  0  0  0  0  0  0  0  0  0
   17.2530  -19.6639  -16.1895 C   0  0  0  0  0  0  0  0  0  0  0  0
   15.9457  -20.3070  -15.7529 C   0  0  0  0  0  0  0  0  0  0  0  0
   14.8576  -19.6970  -16.6240 C   0  0  0  0  0  0  0  0  0  0  0  0
   13.5732  -20.2389  -16.1957 N   0  0  0  0  0  0  0  0  0  0  0  0
   19.8090  -18.1768  -15.4408 C   0  0  0  0  0  0  0  0  0  0  0  0
   19.7374  -17.3002  -16.3286 O   0  0  0  0  0  0  0  0  0  0  0  0
   19.9701  -17.7607  -14.1348 O   0  0  0  0  0  0  0  0  0  0  0  0
  2  8  1  0
  2  1  1  1
  3  2  1  0
  4  3  1  0
  4  5  1  0
  5  6  1  0
  7  6  1  0
  8  9  2  0
 10 11  1  0
 10  8  1  0
 12 13  1  0
 11 12  1  1
 13 14  2  0
 14 15  1  0
 16 15  1  0
 17 13  1  0
 17 16  2  0
 18 11  1  0
 19 18  2  0
 20 18  1  0
 21 20  1  0
 21 27  1  0
 21 22  1  1
 23 22  1  0
 23 24  1  0
 25 24  1  0
 26 25  1  0
 27 29  1  0
 28 27  2  0
M  END
$$$$
