KHK.pdb
     RDKit          3D

 29 29  0  0  1  0  0  0  0  0999 V2000
   14.4936  -26.9552   -1.9045 N   0  0  0  0  0  0  0  0  0  0  0  0
   14.7915  -26.1209   -0.7608 C   0  0  1  0  0  0  0  0  0  0  0  0
   13.4936  -25.9153   -0.0120 C   0  0  0  0  0  0  0  0  0  0  0  0
   12.6626  -24.9521   -0.8310 C   0  0  0  0  0  0  0  0  0  0  0  0
   11.2844  -24.7351   -0.3013 C   0  0  0  0  0  0  0  0  0  0  0  0
   10.5087  -23.8191   -1.2137 C   0  0  0  0  0  0  0  0  0  0  0  0
    9.1534  -23.7421   -0.6601 N   0  0  0  0  0  0  0  0  0  0  0  0
   15.8130  -26.7997    0.0629 C   0  0  0  0  0  0  0  0  0  0  0  0
   15.6871  -28.0180    0.3122 O   0  0  0  0  0  0  0  0  0  0  0  0
   16.9502  -26.1363    0.5975 N   0  0  0  0  0  0  0  0  0  0  0  0
   17.9734  -26.8356    1.3766 C   0  0  1  0  0  0  0  0  0  0  0  0
   19.2723  -26.8492    0.6388 C   0  0  0  0  0  0  0  0  0  0  0  0
   19.2422  -27.5210   -0.6679 C   0  0  0  0  0  0  0  0  0  0  0  0
   19.2876  -26.9068   -1.8899 C   0  0  0  0  0  0  0  0  0  0  0  0
   19.2285  -27.8985   -2.8175 N   0  0  0  0  0  0  0  0  0  0  0  0
   19.1495  -29.0780   -2.1761 C   0  0  0  0  0  0  0  0  0  0  0  0
   19.1567  -28.8646   -0.8521 N   0  0  0  0  0  0  0  0  0  0  0  0
   18.0742  -26.2350    2.7425 C   0  0  0  0  0  0  0  0  0  0  0  0
   18.0085  -24.9881    2.8744 O   0  0  0  0  0  0  0  0  0  0  0  0
   18.2414  -27.0789    3.8502 N   0  0  0  0  0  0  0  0  0  0  0  0
   18.2537  -26.5579    5.2021 C   0  0  1  0  0  0  0  0  0  0  0  0
   17.8194  -27.6902    6.0984 C   0  0  0  0  0  0  0  0  0  0  0  0
   17.8257  -27.3247    7.5595 C   0  0  0  0  0  0  0  0  0  0  0  0
   17.4038  -28.5189    8.4016 C   0  0  0  0  0  0  0  0  0  0  0  0
   17.4126  -28.0464    9.8478 C   0  0  0  0  0  0  0  0  0  0  0  0
   16.8543  -29.1076   10.6778 N   0  0  0  0  0  0  0  0  0  0  0  0
   19.5652  -25.9911    5.5228 C   0  0  0  0  0  0  0  0  0  0  0  0
   20.6184  -26.4036    4.9915 O   0  0  0  0  0  0  0  0  0  0  0  0
   19.6645  -24.9658    6.4412 O   0  0  0  0  0  0  0  0  0  0  0  0
  2  8  1  0
  2  1  1  6
  3  2  1  0
  4  3  1  0
  4  5  1  0
  5  6  1  0
  7  6  1  0
  8  9  2  0
 10 11  1  0
 10  8  1  0
 12 13  1  0
 11 12  1  6
 13 14  2  0
 14 15  1  0
 16 15  1  0
 17 13  1  0
 17 16  2  0
 18 11  1  0
 19 18  2  0
 20 18  1  0
 21 20  1  0
 21 27  1  0
 21 22  1  1
 23 22  1  0
 23 24  1  0
 25 24  1  0
 26 25  1  0
 27 29  1  0
 28 27  2  0
M  END
$$$$
