KHK.pdb
     RDKit          3D

 29 29  0  0  1  0  0  0  0  0999 V2000
   14.3933  -22.4309   -7.3405 N   0  0  0  0  0  0  0  0  0  0  0  0
   13.1610  -21.7687   -7.7086 C   0  0  1  0  0  0  0  0  0  0  0  0
   12.5634  -21.2061   -6.4382 C   0  0  0  0  0  0  0  0  0  0  0  0
   11.9236  -22.3642   -5.7044 C   0  0  0  0  0  0  0  0  0  0  0  0
   11.3741  -22.0060   -4.3638 C   0  0  0  0  0  0  0  0  0  0  0  0
   10.7704  -23.2188   -3.7019 C   0  0  0  0  0  0  0  0  0  0  0  0
   10.4534  -22.8194   -2.3274 N   0  0  0  0  0  0  0  0  0  0  0  0
   13.4706  -20.7153   -8.6973 C   0  0  0  0  0  0  0  0  0  0  0  0
   14.3069  -19.8324   -8.4089 O   0  0  0  0  0  0  0  0  0  0  0  0
   12.8621  -20.6466   -9.9795 N   0  0  0  0  0  0  0  0  0  0  0  0
   13.2593  -19.6603  -10.9857 C   0  0  1  0  0  0  0  0  0  0  0  0
   13.4749  -20.3215  -12.3078 C   0  0  0  0  0  0  0  0  0  0  0  0
   14.7500  -21.0385  -12.4478 C   0  0  0  0  0  0  0  0  0  0  0  0
   15.8526  -20.8827  -11.6525 C   0  0  0  0  0  0  0  0  0  0  0  0
   16.7975  -21.7291  -12.1405 N   0  0  0  0  0  0  0  0  0  0  0  0
   16.2822  -22.3780  -13.1999 C   0  0  0  0  0  0  0  0  0  0  0  0
   15.0226  -21.9653  -13.4035 N   0  0  0  0  0  0  0  0  0  0  0  0
   12.2589  -18.5497  -11.0348 C   0  0  0  0  0  0  0  0  0  0  0  0
   11.0531  -18.7942  -10.7843 O   0  0  0  0  0  0  0  0  0  0  0  0
   12.6893  -17.2554  -11.3615 N   0  0  0  0  0  0  0  0  0  0  0  0
   11.7745  -16.1318  -11.3591 C   0  0  1  0  0  0  0  0  0  0  0  0
   12.5967  -14.9145  -11.0185 C   0  0  0  0  0  0  0  0  0  0  0  0
   11.7859  -13.6461  -10.9726 C   0  0  0  0  0  0  0  0  0  0  0  0
   12.6649  -12.4753  -10.5608 C   0  0  0  0  0  0  0  0  0  0  0  0
   11.7479  -11.2648  -10.4666 C   0  0  0  0  0  0  0  0  0  0  0  0
   12.5177  -10.1503   -9.9262 N   0  0  0  0  0  0  0  0  0  0  0  0
   11.0572  -16.0499  -12.6330 C   0  0  0  0  0  0  0  0  0  0  0  0
   11.5723  -16.4103  -13.7131 O   0  0  0  0  0  0  0  0  0  0  0  0
    9.7673  -15.5604  -12.6650 O   0  0  0  0  0  0  0  0  0  0  0  0
  2  8  1  0
  2  1  1  1
  3  2  1  0
  4  3  1  0
  4  5  1  0
  5  6  1  0
  7  6  1  0
  8  9  2  0
 10 11  1  0
 10  8  1  0
 12 13  1  0
 11 12  1  6
 13 14  2  0
 14 15  1  0
 16 15  1  0
 17 13  1  0
 17 16  2  0
 18 11  1  0
 19 18  2  0
 20 18  1  0
 21 20  1  0
 21 27  1  0
 21 22  1  6
 23 22  1  0
 23 24  1  0
 25 24  1  0
 26 25  1  0
 27 29  1  0
 28 27  2  0
M  END
$$$$
