KHK.pdb
     RDKit          3D

 29 29  0  0  1  0  0  0  0  0999 V2000
   22.9778  -12.2073  -16.5264 N   0  0  0  0  0  0  0  0  0  0  0  0
   21.7694  -11.5306  -16.9444 C   0  0  1  0  0  0  0  0  0  0  0  0
   20.6486  -12.5439  -16.8791 C   0  0  0  0  0  0  0  0  0  0  0  0
   20.8366  -13.4818  -18.0514 C   0  0  0  0  0  0  0  0  0  0  0  0
   19.7485  -14.4920  -18.2029 C   0  0  0  0  0  0  0  0  0  0  0  0
   20.0214  -15.3850  -19.3867 C   0  0  0  0  0  0  0  0  0  0  0  0
   18.9563  -16.3923  -19.3934 N   0  0  0  0  0  0  0  0  0  0  0  0
   21.5394  -10.3809  -16.0453 C   0  0  0  0  0  0  0  0  0  0  0  0
   21.3314  -10.5868  -14.8301 O   0  0  0  0  0  0  0  0  0  0  0  0
   21.5409   -9.0313  -16.4897 N   0  0  0  0  0  0  0  0  0  0  0  0
   21.1101   -7.9227  -15.6362 C   0  0  1  0  0  0  0  0  0  0  0  0
   21.8044   -6.6603  -16.0305 C   0  0  0  0  0  0  0  0  0  0  0  0
   21.4497   -5.4768  -15.2348 C   0  0  0  0  0  0  0  0  0  0  0  0
   20.5531   -5.4407  -14.2016 C   0  0  0  0  0  0  0  0  0  0  0  0
   20.5303   -4.1550  -13.7613 N   0  0  0  0  0  0  0  0  0  0  0  0
   21.3875   -3.4341  -14.5059 C   0  0  0  0  0  0  0  0  0  0  0  0
   21.9623   -4.2317  -15.4179 N   0  0  0  0  0  0  0  0  0  0  0  0
   19.6189   -7.8108  -15.6588 C   0  0  0  0  0  0  0  0  0  0  0  0
   19.0102   -7.8993  -16.7533 O   0  0  0  0  0  0  0  0  0  0  0  0
   18.9299   -7.6077  -14.4541 N   0  0  0  0  0  0  0  0  0  0  0  0
   17.4973   -7.3922  -14.4301 C   0  0  1  0  0  0  0  0  0  0  0  0
   16.9263   -8.4314  -13.4984 C   0  0  0  0  0  0  0  0  0  0  0  0
   15.4546   -8.2474  -13.2365 C   0  0  0  0  0  0  0  0  0  0  0  0
   14.9220   -9.3995  -12.3986 C   0  0  0  0  0  0  0  0  0  0  0  0
   13.4452   -9.1142  -12.1694 C   0  0  0  0  0  0  0  0  0  0  0  0
   12.8715  -10.2382  -11.4385 N   0  0  0  0  0  0  0  0  0  0  0  0
   17.1916   -6.0076  -14.0646 C   0  0  0  0  0  0  0  0  0  0  0  0
   16.2442   -5.3753  -14.5789 O   0  0  0  0  0  0  0  0  0  0  0  0
   17.9638   -5.3592  -13.1223 O   0  0  0  0  0  0  0  0  0  0  0  0
  2  8  1  0
  2  1  1  1
  3  2  1  0
  4  3  1  0
  4  5  1  0
  5  6  1  0
  7  6  1  0
  8  9  2  0
 10 11  1  0
 10  8  1  0
 12 13  1  0
 11 12  1  6
 13 14  2  0
 14 15  1  0
 16 15  1  0
 17 13  1  0
 17 16  2  0
 18 11  1  0
 19 18  2  0
 20 18  1  0
 21 20  1  0
 21 27  1  0
 21 22  1  1
 23 22  1  0
 23 24  1  0
 25 24  1  0
 26 25  1  0
 27 29  1  0
 28 27  2  0
M  END
$$$$
