KHK.pdb
     RDKit          3D

 29 29  0  0  1  0  0  0  0  0999 V2000
   21.4325  -27.5891  -12.1170 N   0  0  0  0  0  0  0  0  0  0  0  0
   20.1764  -27.7369  -12.8192 C   0  0  1  0  0  0  0  0  0  0  0  0
   19.4685  -28.9292  -12.2151 C   0  0  0  0  0  0  0  0  0  0  0  0
   19.3479  -28.6619  -10.7308 C   0  0  0  0  0  0  0  0  0  0  0  0
   18.5323  -29.6722   -9.9950 C   0  0  0  0  0  0  0  0  0  0  0  0
   18.3638  -29.2629   -8.5537 C   0  0  0  0  0  0  0  0  0  0  0  0
   17.5987  -30.3355   -7.9107 N   0  0  0  0  0  0  0  0  0  0  0  0
   19.4022  -26.4878  -12.6657 C   0  0  0  0  0  0  0  0  0  0  0  0
   19.4578  -25.8627  -11.5848 O   0  0  0  0  0  0  0  0  0  0  0  0
   18.5839  -25.9466  -13.6935 N   0  0  0  0  0  0  0  0  0  0  0  0
   17.9597  -24.6267  -13.5876 C   0  0  1  0  0  0  0  0  0  0  0  0
   18.1376  -23.8620  -14.8584 C   0  0  0  0  0  0  0  0  0  0  0  0
   19.4488  -23.2189  -15.0229 C   0  0  0  0  0  0  0  0  0  0  0  0
   20.2796  -23.3497  -16.1023 C   0  0  0  0  0  0  0  0  0  0  0  0
   21.3774  -22.5953  -15.8321 N   0  0  0  0  0  0  0  0  0  0  0  0
   21.2160  -22.0247  -14.6249 C   0  0  0  0  0  0  0  0  0  0  0  0
   20.0343  -22.3977  -14.1122 N   0  0  0  0  0  0  0  0  0  0  0  0
   16.5286  -24.7702  -13.1778 C   0  0  0  0  0  0  0  0  0  0  0  0
   15.8855  -25.7896  -13.5294 O   0  0  0  0  0  0  0  0  0  0  0  0
   15.9329  -23.7601  -12.4083 N   0  0  0  0  0  0  0  0  0  0  0  0
   14.5582  -23.8615  -11.9622 C   0  0  1  0  0  0  0  0  0  0  0  0
   14.4555  -23.0306  -10.7079 C   0  0  0  0  0  0  0  0  0  0  0  0
   13.0958  -23.0966  -10.0635 C   0  0  0  0  0  0  0  0  0  0  0  0
   13.0810  -22.2762   -8.7829 C   0  0  0  0  0  0  0  0  0  0  0  0
   11.7227  -22.5129   -8.1395 C   0  0  0  0  0  0  0  0  0  0  0  0
   11.6224  -21.6617   -6.9596 N   0  0  0  0  0  0  0  0  0  0  0  0
   13.6397  -23.4701  -13.0333 C   0  0  0  0  0  0  0  0  0  0  0  0
   12.5217  -24.0081  -13.1835 O   0  0  0  0  0  0  0  0  0  0  0  0
   14.0012  -22.4754  -13.9190 O   0  0  0  0  0  0  0  0  0  0  0  0
  2  8  1  0
  2  1  1  1
  3  2  1  0
  4  3  1  0
  4  5  1  0
  5  6  1  0
  7  6  1  0
  8  9  2  0
 10 11  1  0
 10  8  1  0
 12 13  1  0
 11 12  1  6
 13 14  2  0
 14 15  1  0
 16 15  1  0
 17 13  1  0
 17 16  2  0
 18 11  1  0
 19 18  2  0
 20 18  1  0
 21 20  1  0
 21 27  1  0
 21 22  1  1
 23 22  1  0
 23 24  1  0
 25 24  1  0
 26 25  1  0
 27 29  1  0
 28 27  2  0
M  END
$$$$
