KHK.pdb
     RDKit          3D

 29 29  0  0  1  0  0  0  0  0999 V2000
   24.7960  -22.2177  -17.5202 N   0  0  0  0  0  0  0  0  0  0  0  0
   24.9447  -21.9123  -16.1140 C   0  0  1  0  0  0  0  0  0  0  0  0
   26.3713  -21.4541  -15.9084 C   0  0  0  0  0  0  0  0  0  0  0  0
   27.2409  -22.3148  -16.7985 C   0  0  0  0  0  0  0  0  0  0  0  0
   28.7008  -22.0262  -16.6854 C   0  0  0  0  0  0  0  0  0  0  0  0
   29.4850  -22.9067  -17.6252 C   0  0  0  0  0  0  0  0  0  0  0  0
   30.8883  -22.5059  -17.4860 N   0  0  0  0  0  0  0  0  0  0  0  0
   23.9628  -20.8689  -15.7532 C   0  0  0  0  0  0  0  0  0  0  0  0
   23.8845  -20.4872  -14.5656 O   0  0  0  0  0  0  0  0  0  0  0  0
   23.0871  -20.2636  -16.6943 N   0  0  0  0  0  0  0  0  0  0  0  0
   22.1544  -19.1970  -16.3266 C   0  0  1  0  0  0  0  0  0  0  0  0
   22.2615  -18.0566  -17.2855 C   0  0  0  0  0  0  0  0  0  0  0  0
   23.3705  -17.1268  -17.0300 C   0  0  0  0  0  0  0  0  0  0  0  0
   24.2764  -17.2160  -16.0083 C   0  0  0  0  0  0  0  0  0  0  0  0
   25.1138  -16.1544  -16.1474 N   0  0  0  0  0  0  0  0  0  0  0  0
   24.7262  -15.4436  -17.2214 C   0  0  0  0  0  0  0  0  0  0  0  0
   23.6545  -16.0278  -17.7769 N   0  0  0  0  0  0  0  0  0  0  0  0
   20.7685  -19.7474  -16.2130 C   0  0  0  0  0  0  0  0  0  0  0  0
   20.4180  -20.6947  -16.9587 O   0  0  0  0  0  0  0  0  0  0  0  0
   19.8867  -19.1919  -15.2743 N   0  0  0  0  0  0  0  0  0  0  0  0
   18.5756  -19.7621  -15.0395 C   0  0  1  0  0  0  0  0  0  0  0  0
   18.8019  -21.1976  -14.6367 C   0  0  0  0  0  0  0  0  0  0  0  0
   17.5322  -21.9135  -14.2574 C   0  0  0  0  0  0  0  0  0  0  0  0
   17.8485  -23.3144  -13.7569 C   0  0  0  0  0  0  0  0  0  0  0  0
   16.5118  -23.9626  -13.4282 C   0  0  0  0  0  0  0  0  0  0  0  0
   16.7618  -25.3375  -13.0114 N   0  0  0  0  0  0  0  0  0  0  0  0
   17.8340  -18.9615  -14.0631 C   0  0  0  0  0  0  0  0  0  0  0  0
   18.3857  -18.0892  -13.3585 O   0  0  0  0  0  0  0  0  0  0  0  0
   16.4783  -19.1611  -13.8987 O   0  0  0  0  0  0  0  0  0  0  0  0
  2  8  1  0
  2  1  1  6
  3  2  1  0
  4  3  1  0
  4  5  1  0
  5  6  1  0
  7  6  1  0
  8  9  2  0
 10 11  1  0
 10  8  1  0
 12 13  1  0
 11 12  1  6
 13 14  2  0
 14 15  1  0
 16 15  1  0
 17 13  1  0
 17 16  2  0
 18 11  1  0
 19 18  2  0
 20 18  1  0
 21 20  1  0
 21 27  1  0
 21 22  1  1
 23 22  1  0
 23 24  1  0
 25 24  1  0
 26 25  1  0
 27 29  1  0
 28 27  2  0
M  END
$$$$
