KHK.pdb
     RDKit          3D

 29 29  0  0  1  0  0  0  0  0999 V2000
   19.9492  -14.3004  -18.0283 N   0  0  0  0  0  0  0  0  0  0  0  0
   19.1055  -13.1266  -18.0855 C   0  0  1  0  0  0  0  0  0  0  0  0
   17.6746  -13.6120  -18.1524 C   0  0  0  0  0  0  0  0  0  0  0  0
   17.4603  -14.1538  -19.5487 C   0  0  0  0  0  0  0  0  0  0  0  0
   16.1142  -14.7609  -19.7657 C   0  0  0  0  0  0  0  0  0  0  0  0
   15.9911  -15.2756  -21.1775 C   0  0  0  0  0  0  0  0  0  0  0  0
   14.6458  -15.8476  -21.2885 N   0  0  0  0  0  0  0  0  0  0  0  0
   19.3633  -12.3036  -16.8859 C   0  0  0  0  0  0  0  0  0  0  0  0
   19.3612  -12.8461  -15.7598 O   0  0  0  0  0  0  0  0  0  0  0  0
   19.6177  -10.9067  -16.9389 N   0  0  0  0  0  0  0  0  0  0  0  0
   19.8307  -10.1007  -15.7355 C   0  0  1  0  0  0  0  0  0  0  0  0
   20.9250   -9.1088  -15.9588 C   0  0  0  0  0  0  0  0  0  0  0  0
   21.1971   -8.2124  -14.8264 C   0  0  0  0  0  0  0  0  0  0  0  0
   21.9448   -8.5160  -13.7213 C   0  0  0  0  0  0  0  0  0  0  0  0
   21.9275   -7.4086  -12.9333 N   0  0  0  0  0  0  0  0  0  0  0  0
   21.1911   -6.4629  -13.5433 C   0  0  0  0  0  0  0  0  0  0  0  0
   20.7336   -6.9404  -14.7099 N   0  0  0  0  0  0  0  0  0  0  0  0
   18.5422   -9.4748  -15.3057 C   0  0  0  0  0  0  0  0  0  0  0  0
   17.7501   -9.0347  -16.1748 O   0  0  0  0  0  0  0  0  0  0  0  0
   18.2453   -9.3913  -13.9375 N   0  0  0  0  0  0  0  0  0  0  0  0
   17.0632   -8.7017  -13.4616 C   0  0  1  0  0  0  0  0  0  0  0  0
   16.2685   -9.7133  -12.6746 C   0  0  0  0  0  0  0  0  0  0  0  0
   14.9386   -9.1854  -12.2043 C   0  0  0  0  0  0  0  0  0  0  0  0
   14.1717  -10.2737  -11.4690 C   0  0  0  0  0  0  0  0  0  0  0  0
   12.8614   -9.6441  -11.0200 C   0  0  0  0  0  0  0  0  0  0  0  0
   12.0227  -10.6929  -10.4514 N   0  0  0  0  0  0  0  0  0  0  0  0
   17.4355   -7.4991  -12.7137 C   0  0  0  0  0  0  0  0  0  0  0  0
   16.9841   -6.3693  -12.9992 O   0  0  0  0  0  0  0  0  0  0  0  0
   18.3142   -7.5938  -11.6537 O   0  0  0  0  0  0  0  0  0  0  0  0
  2  8  1  0
  2  1  1  1
  3  2  1  0
  4  3  1  0
  4  5  1  0
  5  6  1  0
  7  6  1  0
  8  9  2  0
 10 11  1  0
 10  8  1  0
 12 13  1  0
 11 12  1  6
 13 14  2  0
 14 15  1  0
 16 15  1  0
 17 13  1  0
 17 16  2  0
 18 11  1  0
 19 18  2  0
 20 18  1  0
 21 20  1  0
 21 27  1  0
 21 22  1  1
 23 22  1  0
 23 24  1  0
 25 24  1  0
 26 25  1  0
 27 29  1  0
 28 27  2  0
M  END
$$$$
