KHK.pdb
     RDKit          3D

 29 29  0  0  1  0  0  0  0  0999 V2000
   25.5050  -15.5982  -18.2389 N   0  0  0  0  0  0  0  0  0  0  0  0
   25.6874  -14.4918  -17.3250 C   0  0  1  0  0  0  0  0  0  0  0  0
   25.1169  -14.9197  -15.9912 C   0  0  0  0  0  0  0  0  0  0  0  0
   23.9874  -15.8823  -16.2860 C   0  0  0  0  0  0  0  0  0  0  0  0
   23.3018  -16.4069  -15.0686 C   0  0  0  0  0  0  0  0  0  0  0  0
   22.2157  -17.3788  -15.4546 C   0  0  0  0  0  0  0  0  0  0  0  0
   21.5874  -17.8089  -14.2018 N   0  0  0  0  0  0  0  0  0  0  0  0
   27.1296  -14.1812  -17.2446 C   0  0  0  0  0  0  0  0  0  0  0  0
   27.9391  -15.0976  -16.9850 O   0  0  0  0  0  0  0  0  0  0  0  0
   27.6591  -12.8786  -17.4489 N   0  0  0  0  0  0  0  0  0  0  0  0
   29.0673  -12.6450  -17.7734 C   0  0  1  0  0  0  0  0  0  0  0  0
   29.4943  -13.5212  -18.9053 C   0  0  0  0  0  0  0  0  0  0  0  0
   30.8961  -13.3692  -19.3195 C   0  0  0  0  0  0  0  0  0  0  0  0
   31.9472  -14.1384  -18.9000 C   0  0  0  0  0  0  0  0  0  0  0  0
   33.0512  -13.6479  -19.5230 N   0  0  0  0  0  0  0  0  0  0  0  0
   32.6794  -12.6125  -20.2966 C   0  0  0  0  0  0  0  0  0  0  0  0
   31.3561  -12.4268  -20.1836 N   0  0  0  0  0  0  0  0  0  0  0  0
   29.2972  -11.1899  -18.0313 C   0  0  0  0  0  0  0  0  0  0  0  0
   28.4591  -10.5431  -18.7063 O   0  0  0  0  0  0  0  0  0  0  0  0
   30.4474  -10.5768  -17.5133 N   0  0  0  0  0  0  0  0  0  0  0  0
   30.7474   -9.1848  -17.7810 C   0  0  1  0  0  0  0  0  0  0  0  0
   31.8603   -8.8005  -16.8388 C   0  0  0  0  0  0  0  0  0  0  0  0
   32.3003   -7.3685  -16.9946 C   0  0  0  0  0  0  0  0  0  0  0  0
   33.3659   -7.0312  -15.9633 C   0  0  0  0  0  0  0  0  0  0  0  0
   33.6432   -5.5421  -16.1068 C   0  0  0  0  0  0  0  0  0  0  0  0
   34.6878   -5.1789  -15.1561 N   0  0  0  0  0  0  0  0  0  0  0  0
   31.0506   -8.9878  -19.2000 C   0  0  0  0  0  0  0  0  0  0  0  0
   31.6006   -9.8699  -19.8936 O   0  0  0  0  0  0  0  0  0  0  0  0
   30.7270   -7.7941  -19.8124 O   0  0  0  0  0  0  0  0  0  0  0  0
  2  8  1  0
  2  1  1  6
  3  2  1  0
  4  3  1  0
  4  5  1  0
  5  6  1  0
  7  6  1  0
  8  9  2  0
 10 11  1  0
 10  8  1  0
 12 13  1  0
 11 12  1  6
 13 14  2  0
 14 15  1  0
 16 15  1  0
 17 13  1  0
 17 16  2  0
 18 11  1  0
 19 18  2  0
 20 18  1  0
 21 20  1  0
 21 27  1  0
 21 22  1  1
 23 22  1  0
 23 24  1  0
 25 24  1  0
 26 25  1  0
 27 29  1  0
 28 27  2  0
M  END
$$$$
