KHK.pdb
     RDKit          3D

 29 29  0  0  1  0  0  0  0  0999 V2000
   27.8154  -22.3978  -17.2534 N   0  0  0  0  0  0  0  0  0  0  0  0
   27.7377  -21.1800  -16.4765 C   0  0  1  0  0  0  0  0  0  0  0  0
   27.1316  -20.1215  -17.3708 C   0  0  0  0  0  0  0  0  0  0  0  0
   28.2762  -19.4646  -18.1106 C   0  0  0  0  0  0  0  0  0  0  0  0
   27.8523  -18.3938  -19.0598 C   0  0  0  0  0  0  0  0  0  0  0  0
   29.0368  -17.8859  -19.8424 C   0  0  0  0  0  0  0  0  0  0  0  0
   28.5124  -16.8806  -20.7717 N   0  0  0  0  0  0  0  0  0  0  0  0
   26.9150  -21.4393  -15.2770 C   0  0  0  0  0  0  0  0  0  0  0  0
   26.0247  -22.3153  -15.3235 O   0  0  0  0  0  0  0  0  0  0  0  0
   27.0801  -20.7383  -14.0520 N   0  0  0  0  0  0  0  0  0  0  0  0
   26.2392  -20.9937  -12.8813 C   0  0  1  0  0  0  0  0  0  0  0  0
   26.8510  -20.3925  -11.6583 C   0  0  0  0  0  0  0  0  0  0  0  0
   26.0558  -20.5282  -10.4300 C   0  0  0  0  0  0  0  0  0  0  0  0
   24.8009  -21.0663  -10.3389 C   0  0  0  0  0  0  0  0  0  0  0  0
   24.4455  -20.9855   -9.0295 N   0  0  0  0  0  0  0  0  0  0  0  0
   25.4552  -20.4154   -8.3481 C   0  0  0  0  0  0  0  0  0  0  0  0
   26.4548  -20.1273   -9.1944 N   0  0  0  0  0  0  0  0  0  0  0  0
   24.8449  -20.5190  -13.1408 C   0  0  0  0  0  0  0  0  0  0  0  0
   24.6645  -19.3942  -13.6687 O   0  0  0  0  0  0  0  0  0  0  0  0
   23.7654  -21.3418  -12.7875 N   0  0  0  0  0  0  0  0  0  0  0  0
   22.3948  -20.9217  -12.9976 C   0  0  1  0  0  0  0  0  0  0  0  0
   21.5536  -22.1722  -12.9440 C   0  0  0  0  0  0  0  0  0  0  0  0
   20.0816  -21.9035  -13.1163 C   0  0  0  0  0  0  0  0  0  0  0  0
   19.3128  -23.2140  -13.1833 C   0  0  0  0  0  0  0  0  0  0  0  0
   17.8584  -22.8439  -13.4338 C   0  0  0  0  0  0  0  0  0  0  0  0
   17.0604  -24.0629  -13.3718 N   0  0  0  0  0  0  0  0  0  0  0  0
   22.0194  -19.8889  -12.0298 C   0  0  0  0  0  0  0  0  0  0  0  0
   22.2997  -19.9789  -10.8153 O   0  0  0  0  0  0  0  0  0  0  0  0
   21.3313  -18.7695  -12.4519 O   0  0  0  0  0  0  0  0  0  0  0  0
  2  8  1  0
  2  1  1  6
  3  2  1  0
  4  3  1  0
  4  5  1  0
  5  6  1  0
  7  6  1  0
  8  9  2  0
 10 11  1  0
 10  8  1  0
 12 13  1  0
 11 12  1  1
 13 14  2  0
 14 15  1  0
 16 15  1  0
 17 13  1  0
 17 16  2  0
 18 11  1  0
 19 18  2  0
 20 18  1  0
 21 20  1  0
 21 27  1  0
 21 22  1  1
 23 22  1  0
 23 24  1  0
 25 24  1  0
 26 25  1  0
 27 29  1  0
 28 27  2  0
M  END
$$$$
