KHK.pdb
     RDKit          3D

 29 29  0  0  1  0  0  0  0  0999 V2000
   27.9080  -20.9118  -17.2261 N   0  0  0  0  0  0  0  0  0  0  0  0
   27.0883  -22.1026  -17.2799 C   0  0  1  0  0  0  0  0  0  0  0  0
   28.0260  -23.2799  -17.4288 C   0  0  0  0  0  0  0  0  0  0  0  0
   29.1261  -22.8475  -18.3734 C   0  0  0  0  0  0  0  0  0  0  0  0
   30.1053  -21.8955  -17.7717 C   0  0  0  0  0  0  0  0  0  0  0  0
   31.0983  -21.4370  -18.8095 C   0  0  0  0  0  0  0  0  0  0  0  0
   31.6377  -22.6533  -19.4250 N   0  0  0  0  0  0  0  0  0  0  0  0
   26.2862  -22.1775  -16.0414 C   0  0  0  0  0  0  0  0  0  0  0  0
   25.5424  -23.1642  -15.8531 O   0  0  0  0  0  0  0  0  0  0  0  0
   26.3116  -21.1753  -15.0344 N   0  0  0  0  0  0  0  0  0  0  0  0
   25.4713  -21.2428  -13.8376 C   0  0  1  0  0  0  0  0  0  0  0  0
   26.1518  -20.5807  -12.6843 C   0  0  0  0  0  0  0  0  0  0  0  0
   25.4356  -20.6643  -11.4038 C   0  0  0  0  0  0  0  0  0  0  0  0
   25.6958  -21.5483  -10.3923 C   0  0  0  0  0  0  0  0  0  0  0  0
   24.7970  -21.2782   -9.4091 N   0  0  0  0  0  0  0  0  0  0  0  0
   24.0158  -20.2608   -9.8135 C   0  0  0  0  0  0  0  0  0  0  0  0
   24.3948  -19.8704  -11.0392 N   0  0  0  0  0  0  0  0  0  0  0  0
   24.1183  -20.6773  -14.1313 C   0  0  0  0  0  0  0  0  0  0  0  0
   24.0257  -19.5904  -14.7530 O   0  0  0  0  0  0  0  0  0  0  0  0
   22.9784  -21.3740  -13.7042 N   0  0  0  0  0  0  0  0  0  0  0  0
   21.6448  -20.8631  -13.9488 C   0  0  1  0  0  0  0  0  0  0  0  0
   20.8248  -22.0308  -14.4370 C   0  0  0  0  0  0  0  0  0  0  0  0
   19.3923  -21.6679  -14.7279 C   0  0  0  0  0  0  0  0  0  0  0  0
   18.6015  -22.9113  -15.1046 C   0  0  0  0  0  0  0  0  0  0  0  0
   17.2040  -22.4341  -15.4711 C   0  0  0  0  0  0  0  0  0  0  0  0
   16.3776  -23.6056  -15.7384 N   0  0  0  0  0  0  0  0  0  0  0  0
   21.1193  -20.2032  -12.7519 C   0  0  0  0  0  0  0  0  0  0  0  0
   21.2550  -20.6886  -11.6084 O   0  0  0  0  0  0  0  0  0  0  0  0
   20.4473  -19.0034  -12.8679 O   0  0  0  0  0  0  0  0  0  0  0  0
  2  8  1  0
  2  1  1  1
  3  2  1  0
  4  3  1  0
  4  5  1  0
  5  6  1  0
  7  6  1  0
  8  9  2  0
 10 11  1  0
 10  8  1  0
 12 13  1  0
 11 12  1  1
 13 14  2  0
 14 15  1  0
 16 15  1  0
 17 13  1  0
 17 16  2  0
 18 11  1  0
 19 18  2  0
 20 18  1  0
 21 20  1  0
 21 27  1  0
 21 22  1  1
 23 22  1  0
 23 24  1  0
 25 24  1  0
 26 25  1  0
 27 29  1  0
 28 27  2  0
M  END
$$$$
