KHK.pdb
     RDKit          3D

 29 29  0  0  1  0  0  0  0  0999 V2000
   25.2426  -19.5366  -16.3864 N   0  0  0  0  0  0  0  0  0  0  0  0
   23.9079  -19.1007  -16.0380 C   0  0  1  0  0  0  0  0  0  0  0  0
   23.1536  -18.9035  -17.3340 C   0  0  0  0  0  0  0  0  0  0  0  0
   23.6968  -17.6428  -17.9701 C   0  0  0  0  0  0  0  0  0  0  0  0
   22.9842  -17.2343  -19.2162 C   0  0  0  0  0  0  0  0  0  0  0  0
   23.6536  -16.0333  -19.8349 C   0  0  0  0  0  0  0  0  0  0  0  0
   22.9306  -15.7583  -21.0802 N   0  0  0  0  0  0  0  0  0  0  0  0
   23.2867  -20.1293  -15.1783 C   0  0  0  0  0  0  0  0  0  0  0  0
   23.2188  -21.3085  -15.5871 O   0  0  0  0  0  0  0  0  0  0  0  0
   22.7528  -19.8509  -13.8913 N   0  0  0  0  0  0  0  0  0  0  0  0
   22.2085  -20.8967  -13.0236 C   0  0  1  0  0  0  0  0  0  0  0  0
   22.6819  -20.7082  -11.6193 C   0  0  0  0  0  0  0  0  0  0  0  0
   24.1045  -21.0000  -11.3945 C   0  0  0  0  0  0  0  0  0  0  0  0
   24.9786  -21.5042  -12.3188 C   0  0  0  0  0  0  0  0  0  0  0  0
   26.1760  -21.6221  -11.6866 N   0  0  0  0  0  0  0  0  0  0  0  0
   26.0311  -21.2019  -10.4173 C   0  0  0  0  0  0  0  0  0  0  0  0
   24.7623  -20.8153  -10.2199 N   0  0  0  0  0  0  0  0  0  0  0  0
   20.7186  -20.9376  -13.1461 C   0  0  0  0  0  0  0  0  0  0  0  0
   20.0860  -19.8703  -13.3389 O   0  0  0  0  0  0  0  0  0  0  0  0
   20.0573  -22.1701  -13.0420 N   0  0  0  0  0  0  0  0  0  0  0  0
   18.6209  -22.2728  -13.2019 C   0  0  1  0  0  0  0  0  0  0  0  0
   18.3055  -23.7455  -13.2779 C   0  0  0  0  0  0  0  0  0  0  0  0
   18.3576  -24.4321  -11.9384 C   0  0  0  0  0  0  0  0  0  0  0  0
   18.0154  -25.9062  -12.0901 C   0  0  0  0  0  0  0  0  0  0  0  0
   18.1857  -26.5284  -10.7121 C   0  0  0  0  0  0  0  0  0  0  0  0
   17.8318  -27.9403  -10.8022 N   0  0  0  0  0  0  0  0  0  0  0  0
   17.9313  -21.5531  -12.1292 C   0  0  0  0  0  0  0  0  0  0  0  0
   18.4862  -21.2835  -11.0424 O   0  0  0  0  0  0  0  0  0  0  0  0
   16.6229  -21.1498  -12.3031 O   0  0  0  0  0  0  0  0  0  0  0  0
  2  8  1  0
  2  1  1  6
  3  2  1  0
  4  3  1  0
  4  5  1  0
  5  6  1  0
  7  6  1  0
  8  9  2  0
 10 11  1  0
 10  8  1  0
 12 13  1  0
 11 12  1  1
 13 14  2  0
 14 15  1  0
 16 15  1  0
 17 13  1  0
 17 16  2  0
 18 11  1  0
 19 18  2  0
 20 18  1  0
 21 20  1  0
 21 27  1  0
 21 22  1  1
 23 22  1  0
 23 24  1  0
 25 24  1  0
 26 25  1  0
 27 29  1  0
 28 27  2  0
M  END
$$$$
