KHK.pdb
     RDKit          3D

 29 29  0  0  1  0  0  0  0  0999 V2000
   25.1730  -13.4281  -15.5934 N   0  0  0  0  0  0  0  0  0  0  0  0
   23.8951  -14.0313  -15.9030 C   0  0  1  0  0  0  0  0  0  0  0  0
   23.3314  -13.2890  -17.0941 C   0  0  0  0  0  0  0  0  0  0  0  0
   23.2447  -11.8306  -16.7009 C   0  0  0  0  0  0  0  0  0  0  0  0
   22.6698  -10.9484  -17.7586 C   0  0  0  0  0  0  0  0  0  0  0  0
   22.7068   -9.5069  -17.3181 C   0  0  0  0  0  0  0  0  0  0  0  0
   21.9190   -9.4360  -16.0838 N   0  0  0  0  0  0  0  0  0  0  0  0
   24.1086  -15.4657  -16.1857 C   0  0  0  0  0  0  0  0  0  0  0  0
   23.2589  -16.0899  -16.8571 O   0  0  0  0  0  0  0  0  0  0  0  0
   25.2435  -16.1894  -15.7306 N   0  0  0  0  0  0  0  0  0  0  0  0
   25.4296  -17.6147  -16.0082 C   0  0  1  0  0  0  0  0  0  0  0  0
   26.8648  -17.9951  -15.8448 C   0  0  0  0  0  0  0  0  0  0  0  0
   27.1620  -19.4191  -16.0534 C   0  0  0  0  0  0  0  0  0  0  0  0
   26.2450  -20.4055  -16.2955 C   0  0  0  0  0  0  0  0  0  0  0  0
   26.9509  -21.5608  -16.4169 N   0  0  0  0  0  0  0  0  0  0  0  0
   28.2563  -21.2819  -16.2531 C   0  0  0  0  0  0  0  0  0  0  0  0
   28.4047  -19.9682  -16.0283 N   0  0  0  0  0  0  0  0  0  0  0  0
   24.5016  -18.4253  -15.1605 C   0  0  0  0  0  0  0  0  0  0  0  0
   24.4709  -18.2312  -13.9204 O   0  0  0  0  0  0  0  0  0  0  0  0
   23.6839  -19.3882  -15.7697 N   0  0  0  0  0  0  0  0  0  0  0  0
   22.7910  -20.2228  -14.9915 C   0  0  1  0  0  0  0  0  0  0  0  0
   21.3954  -19.9205  -15.4765 C   0  0  0  0  0  0  0  0  0  0  0  0
   20.4720  -19.4656  -14.3770 C   0  0  0  0  0  0  0  0  0  0  0  0
   19.1327  -19.0398  -14.9585 C   0  0  0  0  0  0  0  0  0  0  0  0
   18.3677  -18.3725  -13.8252 C   0  0  0  0  0  0  0  0  0  0  0  0
   17.0645  -17.9615  -14.3346 N   0  0  0  0  0  0  0  0  0  0  0  0
   23.1834  -21.6299  -15.0928 C   0  0  0  0  0  0  0  0  0  0  0  0
   23.5561  -22.2918  -14.1005 O   0  0  0  0  0  0  0  0  0  0  0  0
   23.1484  -22.2665  -16.3168 O   0  0  0  0  0  0  0  0  0  0  0  0
  2  8  1  0
  2  1  1  6
  3  2  1  0
  4  3  1  0
  4  5  1  0
  5  6  1  0
  7  6  1  0
  8  9  2  0
 10 11  1  0
 10  8  1  0
 12 13  1  0
 11 12  1  1
 13 14  2  0
 14 15  1  0
 16 15  1  0
 17 13  1  0
 17 16  2  0
 18 11  1  0
 19 18  2  0
 20 18  1  0
 21 20  1  0
 21 27  1  0
 21 22  1  6
 23 22  1  0
 23 24  1  0
 25 24  1  0
 26 25  1  0
 27 29  1  0
 28 27  2  0
M  END
$$$$
