KHK.pdb
     RDKit          3D

 29 29  0  0  1  0  0  0  0  0999 V2000
   26.9999  -22.1343  -18.0119 N   0  0  0  0  0  0  0  0  0  0  0  0
   26.8641  -20.9307  -17.2208 C   0  0  1  0  0  0  0  0  0  0  0  0
   26.2193  -19.8883  -18.1068 C   0  0  0  0  0  0  0  0  0  0  0  0
   27.2683  -19.4526  -19.1062 C   0  0  0  0  0  0  0  0  0  0  0  0
   28.4130  -18.7097  -18.5019 C   0  0  0  0  0  0  0  0  0  0  0  0
   29.3737  -18.2617  -19.5742 C   0  0  0  0  0  0  0  0  0  0  0  0
   30.5188  -17.6697  -18.8760 N   0  0  0  0  0  0  0  0  0  0  0  0
   26.0447  -21.2402  -16.0310 C   0  0  0  0  0  0  0  0  0  0  0  0
   25.0254  -21.9523  -16.1585 O   0  0  0  0  0  0  0  0  0  0  0  0
   26.3536  -20.7670  -14.7272 N   0  0  0  0  0  0  0  0  0  0  0  0
   25.4639  -20.9773  -13.5839 C   0  0  1  0  0  0  0  0  0  0  0  0
   26.1904  -20.7231  -12.3037 C   0  0  0  0  0  0  0  0  0  0  0  0
   25.3886  -20.8973  -11.0845 C   0  0  0  0  0  0  0  0  0  0  0  0
   24.0547  -21.1980  -11.0346 C   0  0  0  0  0  0  0  0  0  0  0  0
   23.7262  -21.2575   -9.7170 N   0  0  0  0  0  0  0  0  0  0  0  0
   24.8287  -21.0003   -8.9908 C   0  0  0  0  0  0  0  0  0  0  0  0
   25.8615  -20.7762   -9.8163 N   0  0  0  0  0  0  0  0  0  0  0  0
   24.2288  -20.1483  -13.7390 C   0  0  0  0  0  0  0  0  0  0  0  0
   24.3329  -18.9028  -13.8587 O   0  0  0  0  0  0  0  0  0  0  0  0
   22.9770  -20.7808  -13.7465 N   0  0  0  0  0  0  0  0  0  0  0  0
   21.7482  -20.0229  -13.8683 C   0  0  1  0  0  0  0  0  0  0  0  0
   21.1667  -20.3689  -15.2160 C   0  0  0  0  0  0  0  0  0  0  0  0
   21.8464  -19.6554  -16.3550 C   0  0  0  0  0  0  0  0  0  0  0  0
   21.2676  -20.1164  -17.6838 C   0  0  0  0  0  0  0  0  0  0  0  0
   22.0512  -19.3892  -18.7664 C   0  0  0  0  0  0  0  0  0  0  0  0
   21.4883  -19.7556  -20.0609 N   0  0  0  0  0  0  0  0  0  0  0  0
   20.8638  -20.2909  -12.7324 C   0  0  0  0  0  0  0  0  0  0  0  0
   20.7103  -21.4388  -12.2626 O   0  0  0  0  0  0  0  0  0  0  0  0
   20.1659  -19.2550  -12.1456 O   0  0  0  0  0  0  0  0  0  0  0  0
  2  8  1  0
  2  1  1  6
  3  2  1  0
  4  3  1  0
  4  5  1  0
  5  6  1  0
  7  6  1  0
  8  9  2  0
 10 11  1  0
 10  8  1  0
 12 13  1  0
 11 12  1  1
 13 14  2  0
 14 15  1  0
 16 15  1  0
 17 13  1  0
 17 16  2  0
 18 11  1  0
 19 18  2  0
 20 18  1  0
 21 20  1  0
 21 27  1  0
 21 22  1  6
 23 22  1  0
 23 24  1  0
 25 24  1  0
 26 25  1  0
 27 29  1  0
 28 27  2  0
M  END
$$$$
