YHH.pdb
     RDKit          3D

 33 35  0  0  1  0  0  0  0  0999 V2000
   31.6259  -22.2474   -9.5695 O   0  0  0  0  0  0  0  0  0  0  0  0
   30.5473  -21.6595  -10.2118 C   0  0  0  0  0  0  0  0  0  0  0  0
   30.8030  -20.6473  -11.1054 C   0  0  0  0  0  0  0  0  0  0  0  0
   29.7423  -20.0592  -11.7462 C   0  0  0  0  0  0  0  0  0  0  0  0
   28.4551  -20.4827  -11.4909 C   0  0  0  0  0  0  0  0  0  0  0  0
   27.3309  -19.8184  -12.2072 C   0  0  0  0  0  0  0  0  0  0  0  0
   27.1726  -20.3497  -13.5928 C   0  0  2  0  0  0  0  0  0  0  0  0
   28.2929  -20.0958  -14.4449 N   0  0  0  0  0  0  0  0  0  0  0  0
   25.8930  -19.8517  -14.1512 C   0  0  0  0  0  0  0  0  0  0  0  0
   25.9409  -18.7334  -14.7495 O   0  0  0  0  0  0  0  0  0  0  0  0
   28.2252  -21.4906  -10.5987 C   0  0  0  0  0  0  0  0  0  0  0  0
   29.2683  -22.0939   -9.9459 C   0  0  0  0  0  0  0  0  0  0  0  0
   24.6634  -20.5510  -14.0464 N   0  0  0  0  0  0  0  0  0  0  0  0
   23.5114  -20.0376  -14.7263 C   0  0  1  0  0  0  0  0  0  0  0  0
   23.2350  -20.6859  -16.0418 C   0  0  0  0  0  0  0  0  0  0  0  0
   22.0115  -20.2098  -16.7112 C   0  0  0  0  0  0  0  0  0  0  0  0
   21.9788  -19.0094  -17.3940 C   0  0  0  0  0  0  0  0  0  0  0  0
   20.7306  -18.8704  -17.8827 N   0  0  0  0  0  0  0  0  0  0  0  0
   19.9850  -19.9262  -17.5371 C   0  0  0  0  0  0  0  0  0  0  0  0
   20.7966  -20.7251  -16.8225 N   0  0  0  0  0  0  0  0  0  0  0  0
   22.3459  -20.1105  -13.7930 C   0  0  0  0  0  0  0  0  0  0  0  0
   21.7429  -21.1970  -13.5935 O   0  0  0  0  0  0  0  0  0  0  0  0
   21.8742  -18.9687  -13.0989 N   0  0  0  0  0  0  0  0  0  0  0  0
   20.4319  -18.6018  -13.0979 C   0  0  1  0  0  0  0  0  0  0  0  0
   20.2691  -17.6890  -14.2877 C   0  0  0  0  0  0  0  0  0  0  0  0
   18.9033  -17.2147  -14.5295 C   0  0  0  0  0  0  0  0  0  0  0  0
   17.8663  -17.4878  -13.6431 C   0  0  0  0  0  0  0  0  0  0  0  0
   16.7513  -16.9302  -14.1282 N   0  0  0  0  0  0  0  0  0  0  0  0
   17.0741  -16.3344  -15.2669 C   0  0  0  0  0  0  0  0  0  0  0  0
   18.3769  -16.5007  -15.5200 N   0  0  0  0  0  0  0  0  0  0  0  0
   19.6171  -19.8228  -13.1516 C   0  0  0  0  0  0  0  0  0  0  0  0
   18.4422  -19.7950  -12.7077 O   0  0  0  0  0  0  0  0  0  0  0  0
   20.0767  -21.0077  -13.6684 O   0  0  0  0  0  0  0  0  0  0  0  0
  2  3  2  0
  2  1  1  0
  4  3  1  0
  5  4  2  0
  6  7  1  0
  6  5  1  0
  7  8  1  6
  9  7  1  0
  9 10  2  0
 11  5  1  0
 11 12  2  0
 12  2  1  0
 13  9  1  0
 14 13  1  0
 14 15  1  6
 16 15  1  0
 17 16  2  0
 18 19  1  0
 18 17  1  0
 19 20  2  0
 20 16  1  0
 21 14  1  0
 22 21  2  0
 23 21  1  0
 24 23  1  0
 24 25  1  6
 25 26  1  0
 26 27  2  0
 26 30  1  0
 27 28  1  0
 28 29  1  0
 30 29  2  0
 31 24  1  0
 32 31  2  0
 33 31  1  0
M  END
$$$$
