YHH.pdb
     RDKit          3D

 33 35  0  0  1  0  0  0  0  0999 V2000
   24.1802  -15.6843  -25.5741 O   0  0  0  0  0  0  0  0  0  0  0  0
   23.1991  -15.2538  -24.6945 C   0  0  0  0  0  0  0  0  0  0  0  0
   23.3307  -15.5889  -23.3683 C   0  0  0  0  0  0  0  0  0  0  0  0
   22.3651  -15.1677  -22.4899 C   0  0  0  0  0  0  0  0  0  0  0  0
   21.2929  -14.4263  -22.9396 C   0  0  0  0  0  0  0  0  0  0  0  0
   20.2658  -13.9881  -21.9541 C   0  0  0  0  0  0  0  0  0  0  0  0
   20.4466  -12.5566  -21.5725 C   0  0  2  0  0  0  0  0  0  0  0  0
   21.6423  -12.2986  -20.8313 N   0  0  0  0  0  0  0  0  0  0  0  0
   19.2218  -12.0890  -20.8810 C   0  0  0  0  0  0  0  0  0  0  0  0
   19.3003  -11.9746  -19.6194 O   0  0  0  0  0  0  0  0  0  0  0  0
   21.1831  -14.1051  -24.2624 C   0  0  0  0  0  0  0  0  0  0  0  0
   22.1350  -14.5144  -25.1594 C   0  0  0  0  0  0  0  0  0  0  0  0
   18.0109  -11.7763  -21.5503 N   0  0  0  0  0  0  0  0  0  0  0  0
   16.8857  -11.3336  -20.7814 C   0  0  1  0  0  0  0  0  0  0  0  0
   16.1208  -10.2125  -21.4020 C   0  0  0  0  0  0  0  0  0  0  0  0
   16.9031   -8.9804  -21.6068 C   0  0  0  0  0  0  0  0  0  0  0  0
   17.3339   -8.2100  -20.5442 C   0  0  0  0  0  0  0  0  0  0  0  0
   18.0122   -7.1685  -21.0649 N   0  0  0  0  0  0  0  0  0  0  0  0
   18.0244   -7.2535  -22.4001 C   0  0  0  0  0  0  0  0  0  0  0  0
   17.3387   -8.3707  -22.6987 N   0  0  0  0  0  0  0  0  0  0  0  0
   16.0267  -12.5201  -20.4829 C   0  0  0  0  0  0  0  0  0  0  0  0
   16.0753  -13.5521  -21.2016 O   0  0  0  0  0  0  0  0  0  0  0  0
   15.1285  -12.5332  -19.3870 N   0  0  0  0  0  0  0  0  0  0  0  0
   14.2730  -13.7164  -19.0988 C   0  0  1  0  0  0  0  0  0  0  0  0
   15.2467  -14.8240  -18.7821 C   0  0  0  0  0  0  0  0  0  0  0  0
   14.6467  -16.0503  -18.2482 C   0  0  0  0  0  0  0  0  0  0  0  0
   13.6313  -16.7214  -18.9222 C   0  0  0  0  0  0  0  0  0  0  0  0
   13.2920  -17.7925  -18.1962 N   0  0  0  0  0  0  0  0  0  0  0  0
   14.0596  -17.7933  -17.1161 C   0  0  0  0  0  0  0  0  0  0  0  0
   14.8849  -16.7411  -17.1374 N   0  0  0  0  0  0  0  0  0  0  0  0
   13.3433  -13.3932  -18.0086 C   0  0  0  0  0  0  0  0  0  0  0  0
   13.6297  -12.4621  -17.2152 O   0  0  0  0  0  0  0  0  0  0  0  0
   12.1624  -14.0624  -17.8082 O   0  0  0  0  0  0  0  0  0  0  0  0
  2  3  2  0
  2  1  1  0
  4  3  1  0
  5  4  2  0
  6  7  1  0
  6  5  1  0
  7  8  1  1
  9  7  1  0
  9 10  2  0
 11  5  1  0
 11 12  2  0
 12  2  1  0
 13  9  1  0
 14 13  1  0
 14 15  1  6
 16 15  1  0
 17 16  2  0
 18 19  1  0
 18 17  1  0
 19 20  2  0
 20 16  1  0
 21 14  1  0
 22 21  2  0
 23 21  1  0
 24 23  1  0
 24 25  1  1
 25 26  1  0
 26 27  2  0
 26 30  1  0
 27 28  1  0
 28 29  1  0
 30 29  2  0
 31 24  1  0
 32 31  2  0
 33 31  1  0
M  END
$$$$
