YHH.pdb
     RDKit          3D

 33 35  0  0  1  0  0  0  0  0999 V2000
   28.2669  -11.0546  -16.6018 O   0  0  0  0  0  0  0  0  0  0  0  0
   27.5402  -12.2310  -16.5033 C   0  0  0  0  0  0  0  0  0  0  0  0
   27.9331  -13.1542  -15.5642 C   0  0  0  0  0  0  0  0  0  0  0  0
   27.2206  -14.3215  -15.4587 C   0  0  0  0  0  0  0  0  0  0  0  0
   26.1379  -14.5510  -16.2814 C   0  0  0  0  0  0  0  0  0  0  0  0
   25.3905  -15.8309  -16.1354 C   0  0  0  0  0  0  0  0  0  0  0  0
   26.1081  -16.9635  -16.7909 C   0  0  2  0  0  0  0  0  0  0  0  0
   26.1867  -16.8562  -18.2150 N   0  0  0  0  0  0  0  0  0  0  0  0
   25.5031  -18.2381  -16.3366 C   0  0  0  0  0  0  0  0  0  0  0  0
   24.4820  -18.6333  -16.9787 O   0  0  0  0  0  0  0  0  0  0  0  0
   25.7659  -13.6189  -17.2074 C   0  0  0  0  0  0  0  0  0  0  0  0
   26.4619  -12.4449  -17.3319 C   0  0  0  0  0  0  0  0  0  0  0  0
   26.0029  -19.0043  -15.2526 N   0  0  0  0  0  0  0  0  0  0  0  0
   25.3468  -20.2302  -14.9067 C   0  0  1  0  0  0  0  0  0  0  0  0
   26.2470  -21.2625  -14.3140 C   0  0  0  0  0  0  0  0  0  0  0  0
   27.2256  -21.8322  -15.2573 C   0  0  0  0  0  0  0  0  0  0  0  0
   27.2973  -21.4102  -16.5707 C   0  0  0  0  0  0  0  0  0  0  0  0
   28.2822  -22.1190  -17.1568 N   0  0  0  0  0  0  0  0  0  0  0  0
   28.8269  -22.9618  -16.2718 C   0  0  0  0  0  0  0  0  0  0  0  0
   28.1592  -22.7617  -15.1221 N   0  0  0  0  0  0  0  0  0  0  0  0
   24.1842  -19.9062  -14.0246 C   0  0  0  0  0  0  0  0  0  0  0  0
   24.2761  -19.0272  -13.1287 O   0  0  0  0  0  0  0  0  0  0  0  0
   22.9393  -20.5696  -14.1586 N   0  0  0  0  0  0  0  0  0  0  0  0
   21.6808  -19.9713  -13.6361 C   0  0  1  0  0  0  0  0  0  0  0  0
   21.5655  -18.6447  -14.3445 C   0  0  0  0  0  0  0  0  0  0  0  0
   20.3294  -17.9014  -14.0828 C   0  0  0  0  0  0  0  0  0  0  0  0
   19.3825  -18.3547  -13.1697 C   0  0  0  0  0  0  0  0  0  0  0  0
   18.3756  -17.4743  -13.1480 N   0  0  0  0  0  0  0  0  0  0  0  0
   18.6771  -16.5125  -14.0082 C   0  0  0  0  0  0  0  0  0  0  0  0
   19.8599  -16.7615  -14.5808 N   0  0  0  0  0  0  0  0  0  0  0  0
   20.5630  -20.8919  -13.8824 C   0  0  0  0  0  0  0  0  0  0  0  0
   19.7138  -21.0806  -12.9761 O   0  0  0  0  0  0  0  0  0  0  0  0
   20.3942  -21.5652  -15.0659 O   0  0  0  0  0  0  0  0  0  0  0  0
  2  3  2  0
  2  1  1  0
  4  3  1  0
  5  4  2  0
  6  7  1  0
  6  5  1  0
  7  8  1  6
  9  7  1  0
  9 10  2  0
 11  5  1  0
 11 12  2  0
 12  2  1  0
 13  9  1  0
 14 13  1  0
 14 15  1  1
 16 15  1  0
 17 16  2  0
 18 19  1  0
 18 17  1  0
 19 20  2  0
 20 16  1  0
 21 14  1  0
 22 21  2  0
 23 21  1  0
 24 23  1  0
 24 25  1  6
 25 26  1  0
 26 27  2  0
 26 30  1  0
 27 28  1  0
 28 29  1  0
 30 29  2  0
 31 24  1  0
 32 31  2  0
 33 31  1  0
M  END
$$$$
