YHH.pdb
     RDKit          3D

 33 35  0  0  1  0  0  0  0  0999 V2000
   21.0066  -15.6506  -24.2670 O   0  0  0  0  0  0  0  0  0  0  0  0
   21.1296  -14.8682  -23.1293 C   0  0  0  0  0  0  0  0  0  0  0  0
   20.3726  -15.2029  -22.0323 C   0  0  0  0  0  0  0  0  0  0  0  0
   20.4871  -14.4350  -20.9016 C   0  0  0  0  0  0  0  0  0  0  0  0
   21.3449  -13.3556  -20.8791 C   0  0  0  0  0  0  0  0  0  0  0  0
   21.4404  -12.5470  -19.6320 C   0  0  0  0  0  0  0  0  0  0  0  0
   22.6816  -12.8636  -18.8661 C   0  0  2  0  0  0  0  0  0  0  0  0
   22.7365  -14.2063  -18.3764 N   0  0  0  0  0  0  0  0  0  0  0  0
   22.8562  -11.8486  -17.8001 C   0  0  0  0  0  0  0  0  0  0  0  0
   22.4167  -12.1620  -16.6514 O   0  0  0  0  0  0  0  0  0  0  0  0
   22.0874  -13.0420  -21.9814 C   0  0  0  0  0  0  0  0  0  0  0  0
   21.9905  -13.7940  -23.1230 C   0  0  0  0  0  0  0  0  0  0  0  0
   23.4725  -10.5879  -18.0070 N   0  0  0  0  0  0  0  0  0  0  0  0
   23.6306   -9.7001  -16.8936 C   0  0  1  0  0  0  0  0  0  0  0  0
   25.0366   -9.2613  -16.6529 C   0  0  0  0  0  0  0  0  0  0  0  0
   25.9747  -10.3576  -16.3530 C   0  0  0  0  0  0  0  0  0  0  0  0
   25.6110  -11.4252  -15.5554 C   0  0  0  0  0  0  0  0  0  0  0  0
   26.6815  -12.2405  -15.4800 N   0  0  0  0  0  0  0  0  0  0  0  0
   27.6936  -11.7318  -16.1920 C   0  0  0  0  0  0  0  0  0  0  0  0
   27.2294  -10.5822  -16.7121 N   0  0  0  0  0  0  0  0  0  0  0  0
   22.6923   -8.5505  -17.0745 C   0  0  0  0  0  0  0  0  0  0  0  0
   22.6391   -7.9233  -18.1642 O   0  0  0  0  0  0  0  0  0  0  0  0
   21.8298   -8.1217  -16.0352 N   0  0  0  0  0  0  0  0  0  0  0  0
   20.9340   -6.9455  -16.2058 C   0  0  1  0  0  0  0  0  0  0  0  0
   19.6936   -7.2930  -15.4209 C   0  0  0  0  0  0  0  0  0  0  0  0
   18.7924   -8.2511  -16.0680 C   0  0  0  0  0  0  0  0  0  0  0  0
   18.6389   -8.2927  -17.4502 C   0  0  0  0  0  0  0  0  0  0  0  0
   17.7605   -9.2594  -17.7389 N   0  0  0  0  0  0  0  0  0  0  0  0
   17.3803   -9.7996  -16.5902 C   0  0  0  0  0  0  0  0  0  0  0  0
   17.9999   -9.1957  -15.5703 N   0  0  0  0  0  0  0  0  0  0  0  0
   21.6256   -5.7339  -15.7460 C   0  0  0  0  0  0  0  0  0  0  0  0
   22.6289   -5.8476  -14.9986 O   0  0  0  0  0  0  0  0  0  0  0  0
   21.2293   -4.4675  -16.0948 O   0  0  0  0  0  0  0  0  0  0  0  0
  2  3  2  0
  2  1  1  0
  4  3  1  0
  5  4  2  0
  6  7  1  0
  6  5  1  0
  7  8  1  1
  9  7  1  0
  9 10  2  0
 11  5  1  0
 11 12  2  0
 12  2  1  0
 13  9  1  0
 14 13  1  0
 14 15  1  6
 16 15  1  0
 17 16  2  0
 18 19  1  0
 18 17  1  0
 19 20  2  0
 20 16  1  0
 21 14  1  0
 22 21  2  0
 23 21  1  0
 24 23  1  0
 24 25  1  1
 25 26  1  0
 26 27  2  0
 26 30  1  0
 27 28  1  0
 28 29  1  0
 30 29  2  0
 31 24  1  0
 32 31  2  0
 33 31  1  0
M  END
$$$$
