YHH.pdb
     RDKit          3D

 33 35  0  0  1  0  0  0  0  0999 V2000
   43.6605  -26.6831  -18.8429 O   0  0  0  0  0  0  0  0  0  0  0  0
   42.6149  -27.3963  -18.2775 C   0  0  0  0  0  0  0  0  0  0  0  0
   42.2822  -27.1259  -16.9719 C   0  0  0  0  0  0  0  0  0  0  0  0
   41.2490  -27.8262  -16.4033 C   0  0  0  0  0  0  0  0  0  0  0  0
   40.5683  -28.7763  -17.1351 C   0  0  0  0  0  0  0  0  0  0  0  0
   39.4525  -29.5150  -16.4813 C   0  0  0  0  0  0  0  0  0  0  0  0
   38.1241  -28.9483  -16.8576 C   0  0  2  0  0  0  0  0  0  0  0  0
   37.9589  -27.5713  -16.5082 N   0  0  0  0  0  0  0  0  0  0  0  0
   37.0600  -29.8199  -16.3051 C   0  0  0  0  0  0  0  0  0  0  0  0
   36.2078  -29.2547  -15.5532 O   0  0  0  0  0  0  0  0  0  0  0  0
   40.9167  -29.0281  -18.4313 C   0  0  0  0  0  0  0  0  0  0  0  0
   41.9454  -28.3415  -19.0216 C   0  0  0  0  0  0  0  0  0  0  0  0
   36.9616  -31.2090  -16.5743 N   0  0  0  0  0  0  0  0  0  0  0  0
   35.6698  -31.7811  -16.8134 C   0  0  1  0  0  0  0  0  0  0  0  0
   34.7202  -30.8771  -17.5262 C   0  0  0  0  0  0  0  0  0  0  0  0
   33.3868  -31.4582  -17.7633 C   0  0  0  0  0  0  0  0  0  0  0  0
   32.5851  -31.8827  -16.7215 C   0  0  0  0  0  0  0  0  0  0  0  0
   31.4485  -32.3561  -17.2694 N   0  0  0  0  0  0  0  0  0  0  0  0
   31.5041  -32.2467  -18.6017 C   0  0  0  0  0  0  0  0  0  0  0  0
   32.7002  -31.6949  -18.8708 N   0  0  0  0  0  0  0  0  0  0  0  0
   35.8590  -33.0865  -17.5168 C   0  0  0  0  0  0  0  0  0  0  0  0
   36.2304  -33.1269  -18.7186 O   0  0  0  0  0  0  0  0  0  0  0  0
   35.6300  -34.3241  -16.8657 N   0  0  0  0  0  0  0  0  0  0  0  0
   35.7748  -35.6185  -17.5858 C   0  0  1  0  0  0  0  0  0  0  0  0
   35.6460  -35.2601  -19.0454 C   0  0  0  0  0  0  0  0  0  0  0  0
   35.7326  -36.3892  -19.9763 C   0  0  0  0  0  0  0  0  0  0  0  0
   35.2652  -37.6549  -19.6368 C   0  0  0  0  0  0  0  0  0  0  0  0
   35.4792  -38.4668  -20.6781 N   0  0  0  0  0  0  0  0  0  0  0  0
   36.0546  -37.7435  -21.6276 C   0  0  0  0  0  0  0  0  0  0  0  0
   36.2131  -36.4819  -21.2126 N   0  0  0  0  0  0  0  0  0  0  0  0
   37.0554  -36.2393  -17.2222 C   0  0  0  0  0  0  0  0  0  0  0  0
   37.9380  -35.5409  -16.6641 O   0  0  0  0  0  0  0  0  0  0  0  0
   37.3426  -37.5593  -17.4622 O   0  0  0  0  0  0  0  0  0  0  0  0
  2  3  2  0
  2  1  1  0
  4  3  1  0
  5  4  2  0
  6  7  1  0
  6  5  1  0
  7  8  1  1
  9  7  1  0
  9 10  2  0
 11  5  1  0
 11 12  2  0
 12  2  1  0
 13  9  1  0
 14 13  1  0
 14 15  1  6
 16 15  1  0
 17 16  2  0
 18 19  1  0
 18 17  1  0
 19 20  2  0
 20 16  1  0
 21 14  1  0
 22 21  2  0
 23 21  1  0
 24 23  1  0
 24 25  1  6
 25 26  1  0
 26 27  2  0
 26 30  1  0
 27 28  1  0
 28 29  1  0
 30 29  2  0
 31 24  1  0
 32 31  2  0
 33 31  1  0
M  END
$$$$
