YHH.pdb
     RDKit          3D

 33 35  0  0  1  0  0  0  0  0999 V2000
   25.3503  -19.2905  -21.7323 O   0  0  0  0  0  0  0  0  0  0  0  0
   24.0382  -18.9987  -21.3931 C   0  0  0  0  0  0  0  0  0  0  0  0
   23.0370  -19.6494  -22.0734 C   0  0  0  0  0  0  0  0  0  0  0  0
   21.7353  -19.3675  -21.7452 C   0  0  0  0  0  0  0  0  0  0  0  0
   21.4517  -18.4513  -20.7545 C   0  0  0  0  0  0  0  0  0  0  0  0
   20.0254  -18.1732  -20.4280 C   0  0  0  0  0  0  0  0  0  0  0  0
   19.4613  -19.2052  -19.5091 C   0  0  2  0  0  0  0  0  0  0  0  0
   19.2998  -20.4931  -20.1097 N   0  0  0  0  0  0  0  0  0  0  0  0
   18.2095  -18.6804  -18.9137 C   0  0  0  0  0  0  0  0  0  0  0  0
   17.1402  -18.9256  -19.5521 O   0  0  0  0  0  0  0  0  0  0  0  0
   22.4633  -17.8169  -20.0920 C   0  0  0  0  0  0  0  0  0  0  0  0
   23.7718  -18.0815  -20.4018 C   0  0  0  0  0  0  0  0  0  0  0  0
   18.1626  -17.9425  -17.7032 N   0  0  0  0  0  0  0  0  0  0  0  0
   16.8930  -17.5021  -17.2060 C   0  0  1  0  0  0  0  0  0  0  0  0
   16.5442  -18.0338  -15.8559 C   0  0  0  0  0  0  0  0  0  0  0  0
   16.1883  -19.4638  -15.8371 C   0  0  0  0  0  0  0  0  0  0  0  0
   17.1542  -20.4513  -15.8242 C   0  0  0  0  0  0  0  0  0  0  0  0
   16.5064  -21.6329  -15.8086 N   0  0  0  0  0  0  0  0  0  0  0  0
   15.1841  -21.4285  -15.8112 C   0  0  0  0  0  0  0  0  0  0  0  0
   15.0235  -20.0938  -15.8288 N   0  0  0  0  0  0  0  0  0  0  0  0
   16.8611  -16.0086  -17.2618 C   0  0  0  0  0  0  0  0  0  0  0  0
   17.8547  -15.3255  -16.9013 O   0  0  0  0  0  0  0  0  0  0  0  0
   15.7199  -15.3040  -17.7192 N   0  0  0  0  0  0  0  0  0  0  0  0
   15.7231  -13.8213  -17.8479 C   0  0  1  0  0  0  0  0  0  0  0  0
   14.5068  -13.5077  -18.6831 C   0  0  0  0  0  0  0  0  0  0  0  0
   14.2865  -12.0846  -18.9570 C   0  0  0  0  0  0  0  0  0  0  0  0
   15.1512  -11.1051  -18.4789 C   0  0  0  0  0  0  0  0  0  0  0  0
   14.6940   -9.9161  -18.8870 N   0  0  0  0  0  0  0  0  0  0  0  0
   13.5926  -10.1394  -19.5891 C   0  0  0  0  0  0  0  0  0  0  0  0
   13.3362  -11.4512  -19.6379 N   0  0  0  0  0  0  0  0  0  0  0  0
   15.7157  -13.2147  -16.5102 C   0  0  0  0  0  0  0  0  0  0  0  0
   15.2098  -13.8507  -15.5521 O   0  0  0  0  0  0  0  0  0  0  0  0
   16.2396  -11.9742  -16.2476 O   0  0  0  0  0  0  0  0  0  0  0  0
  2  3  2  0
  2  1  1  0
  4  3  1  0
  5  4  2  0
  6  7  1  0
  6  5  1  0
  7  8  1  6
  9  7  1  0
  9 10  2  0
 11  5  1  0
 11 12  2  0
 12  2  1  0
 13  9  1  0
 14 13  1  0
 14 15  1  1
 16 15  1  0
 17 16  2  0
 18 19  1  0
 18 17  1  0
 19 20  2  0
 20 16  1  0
 21 14  1  0
 22 21  2  0
 23 21  1  0
 24 23  1  0
 24 25  1  6
 25 26  1  0
 26 27  2  0
 26 30  1  0
 27 28  1  0
 28 29  1  0
 30 29  2  0
 31 24  1  0
 32 31  2  0
 33 31  1  0
M  END
$$$$
