YHH.pdb
     RDKit          3D

 33 35  0  0  1  0  0  0  0  0999 V2000
   29.1889  -19.9145   -3.0417 O   0  0  0  0  0  0  0  0  0  0  0  0
   28.5263  -19.9554   -4.2587 C   0  0  0  0  0  0  0  0  0  0  0  0
   28.9781  -19.1370   -5.2661 C   0  0  0  0  0  0  0  0  0  0  0  0
   28.3292  -19.1700   -6.4740 C   0  0  0  0  0  0  0  0  0  0  0  0
   27.2507  -20.0088   -6.6603 C   0  0  0  0  0  0  0  0  0  0  0  0
   26.5734  -20.0151   -7.9868 C   0  0  0  0  0  0  0  0  0  0  0  0
   27.1928  -21.0063   -8.9148 C   0  0  2  0  0  0  0  0  0  0  0  0
   28.6121  -21.1210   -8.7807 N   0  0  0  0  0  0  0  0  0  0  0  0
   26.7628  -20.6969  -10.2991 C   0  0  0  0  0  0  0  0  0  0  0  0
   27.3562  -19.7289  -10.8664 O   0  0  0  0  0  0  0  0  0  0  0  0
   26.8195  -20.8133   -5.6446 C   0  0  0  0  0  0  0  0  0  0  0  0
   27.4513  -20.7983   -4.4286 C   0  0  0  0  0  0  0  0  0  0  0  0
   25.7517  -21.4144  -10.9881 N   0  0  0  0  0  0  0  0  0  0  0  0
   25.5137  -21.1255  -12.3712 C   0  0  1  0  0  0  0  0  0  0  0  0
   26.2604  -22.0035  -13.3193 C   0  0  0  0  0  0  0  0  0  0  0  0
   25.9988  -21.7253  -14.7427 C   0  0  0  0  0  0  0  0  0  0  0  0
   26.5532  -20.6333  -15.3819 C   0  0  0  0  0  0  0  0  0  0  0  0
   26.1226  -20.6662  -16.6585 N   0  0  0  0  0  0  0  0  0  0  0  0
   25.3270  -21.7257  -16.8446 C   0  0  0  0  0  0  0  0  0  0  0  0
   25.2722  -22.3514  -15.6558 N   0  0  0  0  0  0  0  0  0  0  0  0
   24.0377  -21.1485  -12.6070 C   0  0  0  0  0  0  0  0  0  0  0  0
   23.2553  -21.6617  -11.7654 O   0  0  0  0  0  0  0  0  0  0  0  0
   23.4613  -20.5980  -13.7786 N   0  0  0  0  0  0  0  0  0  0  0  0
   21.9915  -20.3992  -13.9009 C   0  0  1  0  0  0  0  0  0  0  0  0
   21.6629  -19.3400  -12.8785 C   0  0  0  0  0  0  0  0  0  0  0  0
   20.2888  -18.8313  -12.9249 C   0  0  0  0  0  0  0  0  0  0  0  0
   19.1915  -19.6866  -12.9213 C   0  0  0  0  0  0  0  0  0  0  0  0
   18.0843  -18.9375  -12.9695 N   0  0  0  0  0  0  0  0  0  0  0  0
   18.4694  -17.6700  -13.0018 C   0  0  0  0  0  0  0  0  0  0  0  0
   19.8045  -17.5940  -12.9752 N   0  0  0  0  0  0  0  0  0  0  0  0
   21.6614  -20.0328  -15.2845 C   0  0  0  0  0  0  0  0  0  0  0  0
   22.4443  -19.2868  -15.9240 O   0  0  0  0  0  0  0  0  0  0  0  0
   20.5288  -20.4685  -15.9247 O   0  0  0  0  0  0  0  0  0  0  0  0
  2  3  2  0
  2  1  1  0
  4  3  1  0
  5  4  2  0
  6  7  1  0
  6  5  1  0
  7  8  1  6
  9  7  1  0
  9 10  2  0
 11  5  1  0
 11 12  2  0
 12  2  1  0
 13  9  1  0
 14 13  1  0
 14 15  1  6
 16 15  1  0
 17 16  2  0
 18 19  1  0
 18 17  1  0
 19 20  2  0
 20 16  1  0
 21 14  1  0
 22 21  2  0
 23 21  1  0
 24 23  1  0
 24 25  1  1
 25 26  1  0
 26 27  2  0
 26 30  1  0
 27 28  1  0
 28 29  1  0
 30 29  2  0
 31 24  1  0
 32 31  2  0
 33 31  1  0
M  END
$$$$
