YHH.pdb
     RDKit          3D

 33 35  0  0  1  0  0  0  0  0999 V2000
   19.5755  -17.7908  -19.7135 O   0  0  0  0  0  0  0  0  0  0  0  0
   19.9792  -16.4805  -19.5090 C   0  0  0  0  0  0  0  0  0  0  0  0
   21.2350  -16.2663  -18.9936 C   0  0  0  0  0  0  0  0  0  0  0  0
   21.6439  -14.9734  -18.7876 C   0  0  0  0  0  0  0  0  0  0  0  0
   20.8054  -13.9225  -19.0943 C   0  0  0  0  0  0  0  0  0  0  0  0
   21.2868  -12.5334  -18.8559 C   0  0  0  0  0  0  0  0  0  0  0  0
   21.5180  -11.8049  -20.1377 C   0  0  2  0  0  0  0  0  0  0  0  0
   22.5362  -12.3822  -20.9596 N   0  0  0  0  0  0  0  0  0  0  0  0
   21.7564  -10.3733  -19.8363 C   0  0  0  0  0  0  0  0  0  0  0  0
   22.9614  -10.0408  -19.6165 O   0  0  0  0  0  0  0  0  0  0  0  0
   19.5615  -14.1597  -19.6055 C   0  0  0  0  0  0  0  0  0  0  0  0
   19.1302  -15.4426  -19.8204 C   0  0  0  0  0  0  0  0  0  0  0  0
   20.7281   -9.3977  -19.7861 N   0  0  0  0  0  0  0  0  0  0  0  0
   21.0789   -8.0294  -19.5456 C   0  0  1  0  0  0  0  0  0  0  0  0
   20.6147   -7.0818  -20.6010 C   0  0  0  0  0  0  0  0  0  0  0  0
   19.2279   -7.3002  -21.0493 C   0  0  0  0  0  0  0  0  0  0  0  0
   18.2630   -7.8077  -20.2010 C   0  0  0  0  0  0  0  0  0  0  0  0
   17.1192   -7.8840  -20.9095 N   0  0  0  0  0  0  0  0  0  0  0  0
   17.3256   -7.4485  -22.1577 C   0  0  0  0  0  0  0  0  0  0  0  0
   18.6229   -7.0996  -22.2102 N   0  0  0  0  0  0  0  0  0  0  0  0
   20.5937   -7.6545  -18.1823 C   0  0  0  0  0  0  0  0  0  0  0  0
   19.4968   -8.0879  -17.7433 O   0  0  0  0  0  0  0  0  0  0  0  0
   21.3421   -6.8021  -17.3330 N   0  0  0  0  0  0  0  0  0  0  0  0
   20.8412   -6.4133  -15.9867 C   0  0  1  0  0  0  0  0  0  0  0  0
   21.9422   -6.8171  -15.0380 C   0  0  0  0  0  0  0  0  0  0  0  0
   22.0653   -8.2583  -14.8004 C   0  0  0  0  0  0  0  0  0  0  0  0
   21.1382   -9.1649  -15.3047 C   0  0  0  0  0  0  0  0  0  0  0  0
   21.5132  -10.3920  -14.9267 N   0  0  0  0  0  0  0  0  0  0  0  0
   22.6249  -10.2613  -14.2174 C   0  0  0  0  0  0  0  0  0  0  0  0
   22.9687   -8.9715  -14.1345 N   0  0  0  0  0  0  0  0  0  0  0  0
   20.5262   -4.9786  -15.9780 C   0  0  0  0  0  0  0  0  0  0  0  0
   21.0365   -4.2342  -16.8519 O   0  0  0  0  0  0  0  0  0  0  0  0
   19.6923   -4.4005  -15.0545 O   0  0  0  0  0  0  0  0  0  0  0  0
  2  3  2  0
  2  1  1  0
  4  3  1  0
  5  4  2  0
  6  7  1  0
  6  5  1  0
  7  8  1  1
  9  7  1  0
  9 10  2  0
 11  5  1  0
 11 12  2  0
 12  2  1  0
 13  9  1  0
 14 13  1  0
 14 15  1  6
 16 15  1  0
 17 16  2  0
 18 19  1  0
 18 17  1  0
 19 20  2  0
 20 16  1  0
 21 14  1  0
 22 21  2  0
 23 21  1  0
 24 23  1  0
 24 25  1  1
 25 26  1  0
 26 27  2  0
 26 30  1  0
 27 28  1  0
 28 29  1  0
 30 29  2  0
 31 24  1  0
 32 31  2  0
 33 31  1  0
M  END
$$$$
