YHH.pdb
     RDKit          3D

 33 35  0  0  1  0  0  0  0  0999 V2000
   17.4710  -15.3653  -19.1579 O   0  0  0  0  0  0  0  0  0  0  0  0
   17.5581  -13.9887  -19.0200 C   0  0  0  0  0  0  0  0  0  0  0  0
   16.5066  -13.3329  -18.4259 C   0  0  0  0  0  0  0  0  0  0  0  0
   16.5832  -11.9707  -18.2848 C   0  0  0  0  0  0  0  0  0  0  0  0
   17.6942  -11.2875  -18.7325 C   0  0  0  0  0  0  0  0  0  0  0  0
   17.7387   -9.8087  -18.5606 C   0  0  0  0  0  0  0  0  0  0  0  0
   16.7497   -9.1234  -19.4434 C   0  0  2  0  0  0  0  0  0  0  0  0
   16.9383   -9.3802  -20.8377 N   0  0  0  0  0  0  0  0  0  0  0  0
   16.7384   -7.6780  -19.1149 C   0  0  0  0  0  0  0  0  0  0  0  0
   17.6153   -6.9657  -19.6933 O   0  0  0  0  0  0  0  0  0  0  0  0
   18.7271  -11.9605  -19.3198 C   0  0  0  0  0  0  0  0  0  0  0  0
   18.6741  -13.3214  -19.4722 C   0  0  0  0  0  0  0  0  0  0  0  0
   15.8196   -7.0831  -18.2129 N   0  0  0  0  0  0  0  0  0  0  0  0
   15.8685   -5.6664  -18.0040 C   0  0  1  0  0  0  0  0  0  0  0  0
   14.5379   -5.0346  -17.7647 C   0  0  0  0  0  0  0  0  0  0  0  0
   13.5474   -5.2775  -18.8285 C   0  0  0  0  0  0  0  0  0  0  0  0
   12.5015   -6.1635  -18.6570 C   0  0  0  0  0  0  0  0  0  0  0  0
   11.7887   -6.1545  -19.8006 N   0  0  0  0  0  0  0  0  0  0  0  0
   12.3404   -5.3058  -20.6756 C   0  0  0  0  0  0  0  0  0  0  0  0
   13.4121   -4.7869  -20.0512 N   0  0  0  0  0  0  0  0  0  0  0  0
   16.8430   -5.3887  -16.9049 C   0  0  0  0  0  0  0  0  0  0  0  0
   17.3427   -6.3262  -16.2301 O   0  0  0  0  0  0  0  0  0  0  0  0
   17.2425   -4.0689  -16.5787 N   0  0  0  0  0  0  0  0  0  0  0  0
   18.2789   -3.8050  -15.5438 C   0  0  1  0  0  0  0  0  0  0  0  0
   19.4917   -4.5685  -16.0142 C   0  0  0  0  0  0  0  0  0  0  0  0
   20.7183   -4.3268  -15.2489 C   0  0  0  0  0  0  0  0  0  0  0  0
   21.5758   -3.2745  -15.5542 C   0  0  0  0  0  0  0  0  0  0  0  0
   22.5971   -3.3106  -14.6909 N   0  0  0  0  0  0  0  0  0  0  0  0
   22.3896   -4.3387  -13.8809 C   0  0  0  0  0  0  0  0  0  0  0  0
   21.2531   -4.9620  -14.2103 N   0  0  0  0  0  0  0  0  0  0  0  0
   18.4838   -2.3562  -15.4157 C   0  0  0  0  0  0  0  0  0  0  0  0
   18.1658   -1.6057  -16.3718 O   0  0  0  0  0  0  0  0  0  0  0  0
   19.0103   -1.7707  -14.2921 O   0  0  0  0  0  0  0  0  0  0  0  0
  2  3  2  0
  2  1  1  0
  4  3  1  0
  5  4  2  0
  6  7  1  0
  6  5  1  0
  7  8  1  6
  9  7  1  0
  9 10  2  0
 11  5  1  0
 11 12  2  0
 12  2  1  0
 13  9  1  0
 14 13  1  0
 14 15  1  1
 16 15  1  0
 17 16  2  0
 18 19  1  0
 18 17  1  0
 19 20  2  0
 20 16  1  0
 21 14  1  0
 22 21  2  0
 23 21  1  0
 24 23  1  0
 24 25  1  6
 25 26  1  0
 26 27  2  0
 26 30  1  0
 27 28  1  0
 28 29  1  0
 30 29  2  0
 31 24  1  0
 32 31  2  0
 33 31  1  0
M  END
$$$$
