YHH.pdb
     RDKit          3D

 33 35  0  0  1  0  0  0  0  0999 V2000
   17.1021   -6.3307  -21.6642 O   0  0  0  0  0  0  0  0  0  0  0  0
   16.6623   -7.5838  -21.2667 C   0  0  0  0  0  0  0  0  0  0  0  0
   15.6359   -8.1611  -21.9752 C   0  0  0  0  0  0  0  0  0  0  0  0
   15.1935   -9.4009  -21.5897 C   0  0  0  0  0  0  0  0  0  0  0  0
   15.7733  -10.0420  -20.5153 C   0  0  0  0  0  0  0  0  0  0  0  0
   15.2642  -11.3872  -20.1286 C   0  0  0  0  0  0  0  0  0  0  0  0
   16.2044  -12.4699  -20.5424 C   0  0  2  0  0  0  0  0  0  0  0  0
   16.3572  -12.5978  -21.9588 N   0  0  0  0  0  0  0  0  0  0  0  0
   15.7950  -13.7339  -19.8855 C   0  0  0  0  0  0  0  0  0  0  0  0
   15.0175  -14.4845  -20.5512 O   0  0  0  0  0  0  0  0  0  0  0  0
   16.7920   -9.4488  -19.8262 C   0  0  0  0  0  0  0  0  0  0  0  0
   17.2516   -8.2106  -20.1920 C   0  0  0  0  0  0  0  0  0  0  0  0
   16.2229  -14.1222  -18.5901 N   0  0  0  0  0  0  0  0  0  0  0  0
   15.8250  -15.4008  -18.0805 C   0  0  1  0  0  0  0  0  0  0  0  0
   16.9264  -16.1752  -17.4367 C   0  0  0  0  0  0  0  0  0  0  0  0
   17.9377  -16.6926  -18.3756 C   0  0  0  0  0  0  0  0  0  0  0  0
   17.7997  -16.5473  -19.7423 C   0  0  0  0  0  0  0  0  0  0  0  0
   18.8795  -17.1216  -20.3084 N   0  0  0  0  0  0  0  0  0  0  0  0
   19.6826  -17.6173  -19.3600 C   0  0  0  0  0  0  0  0  0  0  0  0
   19.0789  -17.3387  -18.1915 N   0  0  0  0  0  0  0  0  0  0  0  0
   14.6559  -15.1991  -17.1710 C   0  0  0  0  0  0  0  0  0  0  0  0
   14.6033  -14.2112  -16.3931 O   0  0  0  0  0  0  0  0  0  0  0  0
   13.5659  -16.1043  -17.1461 N   0  0  0  0  0  0  0  0  0  0  0  0
   12.3763  -15.8632  -16.2850 C   0  0  1  0  0  0  0  0  0  0  0  0
   11.2266  -16.4832  -17.0393 C   0  0  0  0  0  0  0  0  0  0  0  0
   10.7603  -15.7235  -18.2030 C   0  0  0  0  0  0  0  0  0  0  0  0
   11.1727  -14.4153  -18.4359 C   0  0  0  0  0  0  0  0  0  0  0  0
   10.5859  -13.9918  -19.5610 N   0  0  0  0  0  0  0  0  0  0  0  0
    9.8394  -14.9888  -20.0132 C   0  0  0  0  0  0  0  0  0  0  0  0
    9.9377  -16.0440  -19.1973 N   0  0  0  0  0  0  0  0  0  0  0  0
   12.6119  -16.4385  -14.9542 C   0  0  0  0  0  0  0  0  0  0  0  0
   13.7068  -17.0075  -14.7178 O   0  0  0  0  0  0  0  0  0  0  0  0
   11.6878  -16.3863  -13.9414 O   0  0  0  0  0  0  0  0  0  0  0  0
  2  3  2  0
  2  1  1  0
  4  3  1  0
  5  4  2  0
  6  7  1  0
  6  5  1  0
  7  8  1  6
  9  7  1  0
  9 10  2  0
 11  5  1  0
 11 12  2  0
 12  2  1  0
 13  9  1  0
 14 13  1  0
 14 15  1  1
 16 15  1  0
 17 16  2  0
 18 19  1  0
 18 17  1  0
 19 20  2  0
 20 16  1  0
 21 14  1  0
 22 21  2  0
 23 21  1  0
 24 23  1  0
 24 25  1  6
 25 26  1  0
 26 27  2  0
 26 30  1  0
 27 28  1  0
 28 29  1  0
 30 29  2  0
 31 24  1  0
 32 31  2  0
 33 31  1  0
M  END
$$$$
