YHH.pdb
     RDKit          3D

 33 35  0  0  1  0  0  0  0  0999 V2000
   26.1697   -1.7581  -16.1072 O   0  0  0  0  0  0  0  0  0  0  0  0
   25.2559   -2.7808  -15.9055 C   0  0  0  0  0  0  0  0  0  0  0  0
   25.6709   -4.0705  -16.1363 C   0  0  0  0  0  0  0  0  0  0  0  0
   24.7742   -5.0895  -15.9396 C   0  0  0  0  0  0  0  0  0  0  0  0
   23.4900   -4.8133  -15.5201 C   0  0  0  0  0  0  0  0  0  0  0  0
   22.5465   -5.9479  -15.3181 C   0  0  0  0  0  0  0  0  0  0  0  0
   22.0439   -6.4821  -16.6179 C   0  0  2  0  0  0  0  0  0  0  0  0
   21.6155   -5.4720  -17.5354 N   0  0  0  0  0  0  0  0  0  0  0  0
   21.0008   -7.4989  -16.3442 C   0  0  0  0  0  0  0  0  0  0  0  0
   19.7984   -7.1235  -16.5002 O   0  0  0  0  0  0  0  0  0  0  0  0
   23.1000   -3.5238  -15.2971 C   0  0  0  0  0  0  0  0  0  0  0  0
   23.9776   -2.4883  -15.4866 C   0  0  0  0  0  0  0  0  0  0  0  0
   21.2843   -8.8256  -15.9303 N   0  0  0  0  0  0  0  0  0  0  0  0
   20.1974   -9.7338  -15.7139 C   0  0  1  0  0  0  0  0  0  0  0  0
   20.5935  -11.1726  -15.6969 C   0  0  0  0  0  0  0  0  0  0  0  0
   19.4689  -12.1128  -15.5442 C   0  0  0  0  0  0  0  0  0  0  0  0
   18.1774  -11.6704  -15.3332 C   0  0  0  0  0  0  0  0  0  0  0  0
   17.3985  -12.7660  -15.2378 N   0  0  0  0  0  0  0  0  0  0  0  0
   18.1429  -13.8688  -15.3793 C   0  0  0  0  0  0  0  0  0  0  0  0
   19.4019  -13.4353  -15.5647 N   0  0  0  0  0  0  0  0  0  0  0  0
   19.4821   -9.3195  -14.4683 C   0  0  0  0  0  0  0  0  0  0  0  0
   20.1111   -9.1160  -13.3975 O   0  0  0  0  0  0  0  0  0  0  0  0
   18.0768   -9.1397  -14.4406 N   0  0  0  0  0  0  0  0  0  0  0  0
   17.3694   -8.7447  -13.1922 C   0  0  1  0  0  0  0  0  0  0  0  0
   17.6401   -7.2676  -13.0506 C   0  0  0  0  0  0  0  0  0  0  0  0
   17.0531   -6.6353  -11.8655 C   0  0  0  0  0  0  0  0  0  0  0  0
   16.4488   -7.3838  -10.8604 C   0  0  0  0  0  0  0  0  0  0  0  0
   16.0123   -6.5372   -9.9211 N   0  0  0  0  0  0  0  0  0  0  0  0
   16.3284   -5.3134  -10.3189 C   0  0  0  0  0  0  0  0  0  0  0  0
   16.9600   -5.3611  -11.4969 N   0  0  0  0  0  0  0  0  0  0  0  0
   15.9473   -9.0948  -13.3049 C   0  0  0  0  0  0  0  0  0  0  0  0
   15.4508   -9.2813  -14.4438 O   0  0  0  0  0  0  0  0  0  0  0  0
   15.1213   -9.2316  -12.2180 O   0  0  0  0  0  0  0  0  0  0  0  0
  2  3  2  0
  2  1  1  0
  4  3  1  0
  5  4  2  0
  6  7  1  0
  6  5  1  0
  7  8  1  6
  9  7  1  0
  9 10  2  0
 11  5  1  0
 11 12  2  0
 12  2  1  0
 13  9  1  0
 14 13  1  0
 14 15  1  1
 16 15  1  0
 17 16  2  0
 18 19  1  0
 18 17  1  0
 19 20  2  0
 20 16  1  0
 21 14  1  0
 22 21  2  0
 23 21  1  0
 24 23  1  0
 24 25  1  6
 25 26  1  0
 26 27  2  0
 26 30  1  0
 27 28  1  0
 28 29  1  0
 30 29  2  0
 31 24  1  0
 32 31  2  0
 33 31  1  0
M  END
$$$$
