YHH.pdb
     RDKit          3D

 33 35  0  0  1  0  0  0  0  0999 V2000
   24.9620  -31.3940  -10.5561 O   0  0  0  0  0  0  0  0  0  0  0  0
   25.4128  -31.8664   -9.3333 C   0  0  0  0  0  0  0  0  0  0  0  0
   26.7563  -32.1216   -9.1968 C   0  0  0  0  0  0  0  0  0  0  0  0
   27.2123  -32.5894   -7.9907 C   0  0  0  0  0  0  0  0  0  0  0  0
   26.3335  -32.7945   -6.9481 C   0  0  0  0  0  0  0  0  0  0  0  0
   26.8684  -33.3033   -5.6546 C   0  0  0  0  0  0  0  0  0  0  0  0
   27.3312  -34.7174   -5.7702 C   0  0  2  0  0  0  0  0  0  0  0  0
   26.2936  -35.6439   -6.1028 N   0  0  0  0  0  0  0  0  0  0  0  0
   28.0620  -35.0826   -4.5334 C   0  0  0  0  0  0  0  0  0  0  0  0
   27.3961  -35.7116   -3.6548 O   0  0  0  0  0  0  0  0  0  0  0  0
   25.0025  -32.5339   -7.1070 C   0  0  0  0  0  0  0  0  0  0  0  0
   24.5226  -32.0659   -8.3024 C   0  0  0  0  0  0  0  0  0  0  0  0
   29.4258  -34.7679   -4.3030 N   0  0  0  0  0  0  0  0  0  0  0  0
   30.0233  -35.1373   -3.0542 C   0  0  1  0  0  0  0  0  0  0  0  0
   31.5042  -34.9592   -3.0055 C   0  0  0  0  0  0  0  0  0  0  0  0
   32.1301  -35.3984   -1.7456 C   0  0  0  0  0  0  0  0  0  0  0  0
   31.4475  -36.1741   -0.8288 C   0  0  0  0  0  0  0  0  0  0  0  0
   32.2901  -36.3991    0.1986 N   0  0  0  0  0  0  0  0  0  0  0  0
   33.4640  -35.8008   -0.0345 C   0  0  0  0  0  0  0  0  0  0  0  0
   33.3332  -35.1987   -1.2295 N   0  0  0  0  0  0  0  0  0  0  0  0
   29.3190  -34.3990   -1.9617 C   0  0  0  0  0  0  0  0  0  0  0  0
   28.6685  -33.3493   -2.2043 O   0  0  0  0  0  0  0  0  0  0  0  0
   29.3535  -34.8459   -0.6175 N   0  0  0  0  0  0  0  0  0  0  0  0
   28.7518  -34.0443    0.4826 C   0  0  1  0  0  0  0  0  0  0  0  0
   27.2897  -33.9431    0.1262 C   0  0  0  0  0  0  0  0  0  0  0  0
   26.4339  -33.3518    1.1590 C   0  0  0  0  0  0  0  0  0  0  0  0
   26.8890  -32.3349    1.9924 C   0  0  0  0  0  0  0  0  0  0  0  0
   25.8932  -32.0047    2.8223 N   0  0  0  0  0  0  0  0  0  0  0  0
   24.8604  -32.7791    2.5232 C   0  0  0  0  0  0  0  0  0  0  0  0
   25.1772  -33.5999    1.5159 N   0  0  0  0  0  0  0  0  0  0  0  0
   29.0207  -34.7006    1.7689 C   0  0  0  0  0  0  0  0  0  0  0  0
   29.3692  -34.0011    2.7525 O   0  0  0  0  0  0  0  0  0  0  0  0
   28.9091  -36.0552    1.9562 O   0  0  0  0  0  0  0  0  0  0  0  0
  2  3  2  0
  2  1  1  0
  4  3  1  0
  5  4  2  0
  6  7  1  0
  6  5  1  0
  7  8  1  1
  9  7  1  0
  9 10  2  0
 11  5  1  0
 11 12  2  0
 12  2  1  0
 13  9  1  0
 14 13  1  0
 14 15  1  6
 16 15  1  0
 17 16  2  0
 18 19  1  0
 18 17  1  0
 19 20  2  0
 20 16  1  0
 21 14  1  0
 22 21  2  0
 23 21  1  0
 24 23  1  0
 24 25  1  6
 25 26  1  0
 26 27  2  0
 26 30  1  0
 27 28  1  0
 28 29  1  0
 30 29  2  0
 31 24  1  0
 32 31  2  0
 33 31  1  0
M  END
$$$$
