RTC.pdb
     RDKit          3D

 25 24  0  0  1  0  0  0  0  0999 V2000
    9.8688  -15.1715   16.7853 N   0  0  0  0  0  0  0  0  0  0  0  0
    8.7685  -14.4889   16.1785 C   0  0  0  0  0  0  0  0  0  0  0  0
    8.3684  -14.8671   15.0106 N   0  0  0  0  0  0  0  0  0  0  0  0
    8.1628  -13.4314   16.8752 N   0  0  0  0  0  0  0  0  0  0  0  0
    8.6712  -13.0806   18.2148 C   0  0  0  0  0  0  0  0  0  0  0  0
    7.8799  -13.8552   19.2090 C   0  0  0  0  0  0  0  0  0  0  0  0
    8.5055  -14.1027   20.5268 C   0  0  0  0  0  0  0  0  0  0  0  0
    7.6736  -14.8081   21.5474 C   0  0  2  0  0  0  0  0  0  0  0  0
    6.2923  -14.9691   21.1792 N   0  0  0  0  0  0  0  0  0  0  0  0
    7.8233  -14.0939   22.8448 C   0  0  0  0  0  0  0  0  0  0  0  0
    7.8434  -12.8321   22.8721 O   0  0  0  0  0  0  0  0  0  0  0  0
    7.6051  -14.3756   14.5114 C   0  0  0  0  0  0  0  0  0  0  0  0
    5.6674  -13.2692   25.2241 C   0  0  2  0  0  0  0  0  0  0  0  0
    6.6532  -14.0770   26.0300 O   0  0  0  0  0  0  0  0  0  0  0  0
    6.1525  -15.4119   25.9244 C   0  0  2  0  0  0  0  0  0  0  0  0
    7.9953  -14.0111   25.3493 N   0  0  0  0  0  0  0  0  0  0  0  0
    7.9480  -14.7454   24.0825 C   0  0  0  0  0  0  0  0  0  0  0  0
    9.0314  -14.5936   26.2250 O   0  0  0  0  0  0  0  0  0  0  0  0
    9.7455  -15.5722   25.7790 N   0  0  0  0  0  0  0  0  0  0  0  0
    9.3607  -14.2050   27.5350 C   0  0  2  0  0  0  0  0  0  0  0  0
   10.3160  -14.8991   28.3744 C   0  0  0  0  0  0  0  0  0  0  0  0
   10.4889  -14.2804   29.7169 S   0  0  0  0  0  0  0  0  0  0  0  0
   11.6705  -15.3217   30.6472 C   0  0  0  0  0  0  0  0  0  0  0  0
    9.8632  -16.3002   28.5618 O   0  0  0  0  0  0  0  0  0  0  0  0
    8.6692  -16.5586   28.7599 O   0  0  0  0  0  0  0  0  0  0  0  0
  1  2  1  0
  2  3  2  0
  4  2  1  0
  4  5  1  0
  6  5  1  0
  6  7  1  0
  7  8  1  0
  8  9  1  6
 10  8  1  0
 10 11  2  0
 13 12  1  1
 14 13  1  0
 15 16  1  1
 15 13  1  0
 16 10  1  0
 17 15  1  0
 18 17  2  0
 19 17  1  0
 20 19  1  0
 21 22  1  0
 20 21  1  1
 23 20  1  0
 23 25  1  0
 24 23  2  0
M  END
$$$$
