RTC.pdb
     RDKit          3D

 25 24  0  0  1  0  0  0  0  0999 V2000
   -0.4316  -25.3244   19.7508 N   0  0  0  0  0  0  0  0  0  0  0  0
   -0.9540  -25.7177   18.4791 C   0  0  0  0  0  0  0  0  0  0  0  0
   -1.6046  -26.8295   18.3898 N   0  0  0  0  0  0  0  0  0  0  0  0
   -0.7404  -24.8803   17.3730 N   0  0  0  0  0  0  0  0  0  0  0  0
    0.6012  -24.3014   17.1698 C   0  0  0  0  0  0  0  0  0  0  0  0
    0.8080  -23.2736   18.2261 C   0  0  0  0  0  0  0  0  0  0  0  0
    2.1207  -22.5919   18.2588 C   0  0  0  0  0  0  0  0  0  0  0  0
    2.1250  -21.1220   17.9922 C   0  0  2  0  0  0  0  0  0  0  0  0
    1.0661  -20.6721   17.1287 N   0  0  0  0  0  0  0  0  0  0  0  0
    3.4669  -20.7477   17.4677 C   0  0  0  0  0  0  0  0  0  0  0  0
    3.6951  -20.7941   16.2271 O   0  0  0  0  0  0  0  0  0  0  0  0
   -2.0101  -27.1520   17.4926 C   0  0  0  0  0  0  0  0  0  0  0  0
    6.4728  -18.8642   19.8406 C   0  0  2  0  0  0  0  0  0  0  0  0
    6.2518  -18.6138   18.3701 O   0  0  0  0  0  0  0  0  0  0  0  0
    7.5567  -18.2791   17.8913 C   0  0  1  0  0  0  0  0  0  0  0  0
    5.8187  -19.9041   17.7249 N   0  0  0  0  0  0  0  0  0  0  0  0
    4.5331  -20.3326   18.2817 C   0  0  0  0  0  0  0  0  0  0  0  0
    6.8360  -20.9482   17.9583 O   0  0  0  0  0  0  0  0  0  0  0  0
    6.7287  -21.7001   19.0022 N   0  0  0  0  0  0  0  0  0  0  0  0
    7.9520  -21.2482   17.1583 C   0  0  1  0  0  0  0  0  0  0  0  0
    8.9248  -22.2758   17.4700 C   0  0  0  0  0  0  0  0  0  0  0  0
    9.7839  -22.6525   16.3146 S   0  0  0  0  0  0  0  0  0  0  0  0
    8.7177  -23.5118   15.1019 C   0  0  0  0  0  0  0  0  0  0  0  0
    9.8022  -21.7915   18.5649 O   0  0  0  0  0  0  0  0  0  0  0  0
    9.7168  -20.6276   18.9769 O   0  0  0  0  0  0  0  0  0  0  0  0
  1  2  1  0
  2  3  2  0
  4  2  1  0
  4  5  1  0
  6  5  1  0
  6  7  1  0
  7  8  1  0
  8  9  1  6
 10  8  1  0
 10 11  2  0
 13 12  1  1
 14 13  1  0
 15 16  1  6
 15 13  1  0
 16 10  1  0
 17 15  1  0
 18 17  2  0
 19 17  1  0
 20 19  1  0
 21 22  1  0
 20 21  1  1
 23 20  1  0
 23 25  1  0
 24 23  2  0
M  END
$$$$
