RTC.pdb
     RDKit          3D

 25 24  0  0  1  0  0  0  0  0999 V2000
    8.1275  -13.1416   16.3199 N   0  0  0  0  0  0  0  0  0  0  0  0
    8.9499  -14.1088   16.9782 C   0  0  0  0  0  0  0  0  0  0  0  0
    9.3929  -15.1145   16.3002 N   0  0  0  0  0  0  0  0  0  0  0  0
    9.2460  -13.9297   18.3386 N   0  0  0  0  0  0  0  0  0  0  0  0
    8.5501  -12.8622   19.0818 C   0  0  0  0  0  0  0  0  0  0  0  0
    7.2484  -13.4161   19.5437 C   0  0  0  0  0  0  0  0  0  0  0  0
    7.2148  -14.0339   20.8877 C   0  0  0  0  0  0  0  0  0  0  0  0
    7.4791  -15.5022   20.9627 C   0  0  2  0  0  0  0  0  0  0  0  0
    6.5428  -16.3123   20.2303 N   0  0  0  0  0  0  0  0  0  0  0  0
    7.5463  -15.8907   22.3981 C   0  0  0  0  0  0  0  0  0  0  0  0
    6.4934  -15.9209   23.0937 O   0  0  0  0  0  0  0  0  0  0  0  0
   10.0188  -15.8230   16.7240 C   0  0  0  0  0  0  0  0  0  0  0  0
    8.7683  -19.0234   23.7027 C   0  0  2  0  0  0  0  0  0  0  0  0
    9.4895  -18.0046   24.5488 O   0  0  0  0  0  0  0  0  0  0  0  0
   10.7555  -17.8701   23.8983 C   0  0  2  0  0  0  0  0  0  0  0  0
    8.7551  -16.6933   24.4484 N   0  0  0  0  0  0  0  0  0  0  0  0
    8.7373  -16.2376   23.0561 C   0  0  0  0  0  0  0  0  0  0  0  0
    9.4164  -15.6814   25.2958 O   0  0  0  0  0  0  0  0  0  0  0  0
   10.4132  -15.0190   24.8120 N   0  0  0  0  0  0  0  0  0  0  0  0
    9.0884  -15.3250   26.6153 C   0  0  1  0  0  0  0  0  0  0  0  0
    9.8539  -14.3966   27.4223 C   0  0  0  0  0  0  0  0  0  0  0  0
    9.0344  -13.3013   28.0085 S   0  0  0  0  0  0  0  0  0  0  0  0
    8.1250  -12.5076   26.6342 C   0  0  0  0  0  0  0  0  0  0  0  0
   10.4983  -15.1420   28.5324 O   0  0  0  0  0  0  0  0  0  0  0  0
   10.2543  -16.3415   28.7153 O   0  0  0  0  0  0  0  0  0  0  0  0
  1  2  1  0
  2  3  2  0
  4  2  1  0
  4  5  1  0
  6  5  1  0
  6  7  1  0
  7  8  1  0
  8  9  1  6
 10  8  1  0
 10 11  2  0
 13 12  1  1
 14 13  1  0
 15 16  1  1
 15 13  1  0
 16 10  1  0
 17 15  1  0
 18 17  2  0
 19 17  1  0
 20 19  1  0
 21 22  1  0
 20 21  1  1
 23 20  1  0
 23 25  1  0
 24 23  2  0
M  END
$$$$
