RTC.pdb
     RDKit          3D

 25 24  0  0  1  0  0  0  0  0999 V2000
   15.4037  -14.9672   20.3264 N   0  0  0  0  0  0  0  0  0  0  0  0
   15.4411  -14.3276   19.0480 C   0  0  0  0  0  0  0  0  0  0  0  0
   16.5230  -13.7234   18.6852 N   0  0  0  0  0  0  0  0  0  0  0  0
   14.2993  -14.3797   18.2331 N   0  0  0  0  0  0  0  0  0  0  0  0
   13.3240  -15.4657   18.4466 C   0  0  0  0  0  0  0  0  0  0  0  0
   11.9660  -14.8914   18.2449 C   0  0  0  0  0  0  0  0  0  0  0  0
   11.0363  -14.9328   19.3952 C   0  0  0  0  0  0  0  0  0  0  0  0
    9.6177  -14.5466   19.1311 C   0  0  2  0  0  0  0  0  0  0  0  0
    9.4624  -13.4388   18.2266 N   0  0  0  0  0  0  0  0  0  0  0  0
    8.9524  -14.2941   20.4385 C   0  0  0  0  0  0  0  0  0  0  0  0
    8.7453  -13.1098   20.8230 O   0  0  0  0  0  0  0  0  0  0  0  0
   16.5865  -13.2148   17.7849 C   0  0  0  0  0  0  0  0  0  0  0  0
    5.6627  -15.8001   21.6315 C   0  0  2  0  0  0  0  0  0  0  0  0
    6.6799  -16.0236   22.7220 O   0  0  0  0  0  0  0  0  0  0  0  0
    7.1833  -17.3322   22.4423 C   0  0  2  0  0  0  0  0  0  0  0  0
    7.7978  -15.0298   22.5443 N   0  0  0  0  0  0  0  0  0  0  0  0
    8.5243  -15.3135   21.3042 C   0  0  0  0  0  0  0  0  0  0  0  0
    8.7230  -15.1045   23.6924 O   0  0  0  0  0  0  0  0  0  0  0  0
    9.8486  -15.7193   23.5462 N   0  0  0  0  0  0  0  0  0  0  0  0
    8.5348  -14.5686   24.9781 C   0  0  1  0  0  0  0  0  0  0  0  0
    9.4719  -14.7272   26.0716 C   0  0  0  0  0  0  0  0  0  0  0  0
    9.3046  -13.7158   27.1505 S   0  0  0  0  0  0  0  0  0  0  0  0
    7.7067  -12.8733   26.8627 C   0  0  0  0  0  0  0  0  0  0  0  0
    9.2948  -16.0759   26.6655 O   0  0  0  0  0  0  0  0  0  0  0  0
    8.3463  -16.7963   26.3290 O   0  0  0  0  0  0  0  0  0  0  0  0
  1  2  1  0
  2  3  2  0
  4  2  1  0
  4  5  1  0
  6  5  1  0
  6  7  1  0
  7  8  1  0
  8  9  1  6
 10  8  1  0
 10 11  2  0
 13 12  1  1
 14 13  1  0
 15 16  1  1
 15 13  1  0
 16 10  1  0
 17 15  1  0
 18 17  2  0
 19 17  1  0
 20 19  1  0
 21 22  1  0
 20 21  1  1
 23 20  1  0
 23 25  1  0
 24 23  2  0
M  END
$$$$
