RTC.pdb
     RDKit          3D

 25 24  0  0  1  0  0  0  0  0999 V2000
    8.0950  -13.9789   15.4034 N   0  0  0  0  0  0  0  0  0  0  0  0
    9.3458  -14.4477   15.9140 C   0  0  0  0  0  0  0  0  0  0  0  0
   10.4179  -14.2362   15.2263 N   0  0  0  0  0  0  0  0  0  0  0  0
    9.3626  -15.1216   17.1453 N   0  0  0  0  0  0  0  0  0  0  0  0
    8.1686  -15.0519   18.0088 C   0  0  0  0  0  0  0  0  0  0  0  0
    8.4313  -14.0225   19.0508 C   0  0  0  0  0  0  0  0  0  0  0  0
    7.3929  -13.8278   20.0866 C   0  0  0  0  0  0  0  0  0  0  0  0
    7.1701  -14.9562   21.0398 C   0  0  2  0  0  0  0  0  0  0  0  0
    5.8790  -15.5809   20.9291 N   0  0  0  0  0  0  0  0  0  0  0  0
    7.4308  -14.4596   22.4186 C   0  0  0  0  0  0  0  0  0  0  0  0
    7.1551  -13.2657   22.7222 O   0  0  0  0  0  0  0  0  0  0  0  0
   11.3488  -14.5435   15.5615 C   0  0  0  0  0  0  0  0  0  0  0  0
    5.5894  -14.7473   24.9498 C   0  0  2  0  0  0  0  0  0  0  0  0
    6.8334  -15.3160   25.5846 O   0  0  0  0  0  0  0  0  0  0  0  0
    6.7146  -16.7206   25.3458 C   0  0  2  0  0  0  0  0  0  0  0  0
    8.0326  -14.7998   24.8334 N   0  0  0  0  0  0  0  0  0  0  0  0
    7.9800  -15.2508   23.4405 C   0  0  0  0  0  0  0  0  0  0  0  0
    9.2719  -15.2888   25.4693 O   0  0  0  0  0  0  0  0  0  0  0  0
   10.3876  -15.1723   24.8305 N   0  0  0  0  0  0  0  0  0  0  0  0
    9.4050  -15.8866   26.7344 C   0  0  1  0  0  0  0  0  0  0  0  0
   10.6507  -15.9673   27.4700 C   0  0  0  0  0  0  0  0  0  0  0  0
   11.1607  -14.6449   27.9239 S   0  0  0  0  0  0  0  0  0  0  0  0
   12.7011  -14.9494   28.8623 C   0  0  0  0  0  0  0  0  0  0  0  0
   10.4493  -16.8244   28.6650 O   0  0  0  0  0  0  0  0  0  0  0  0
    9.3849  -16.7914   29.2956 O   0  0  0  0  0  0  0  0  0  0  0  0
  1  2  1  0
  2  3  2  0
  4  2  1  0
  4  5  1  0
  6  5  1  0
  6  7  1  0
  7  8  1  0
  8  9  1  1
 10  8  1  0
 10 11  2  0
 13 12  1  1
 14 13  1  0
 15 16  1  1
 15 13  1  0
 16 10  1  0
 17 15  1  0
 18 17  2  0
 19 17  1  0
 20 19  1  0
 21 22  1  0
 20 21  1  6
 23 20  1  0
 23 25  1  0
 24 23  2  0
M  END
$$$$
