RTC.pdb
     RDKit          3D

 25 24  0  0  1  0  0  0  0  0999 V2000
   12.8659  -13.5199   20.5173 N   0  0  0  0  0  0  0  0  0  0  0  0
   13.4793  -14.3528   19.5299 C   0  0  0  0  0  0  0  0  0  0  0  0
   14.7280  -14.6551   19.6585 N   0  0  0  0  0  0  0  0  0  0  0  0
   12.7010  -14.8118   18.4557 N   0  0  0  0  0  0  0  0  0  0  0  0
   11.3198  -14.3129   18.3158 C   0  0  0  0  0  0  0  0  0  0  0  0
   10.8003  -14.0490   19.6852 C   0  0  0  0  0  0  0  0  0  0  0  0
    9.3987  -13.5890   19.7999 C   0  0  0  0  0  0  0  0  0  0  0  0
    8.3326  -14.5861   19.4827 C   0  0  2  0  0  0  0  0  0  0  0  0
    7.4337  -14.1813   18.4352 N   0  0  0  0  0  0  0  0  0  0  0  0
    7.6083  -14.9103   20.7422 C   0  0  0  0  0  0  0  0  0  0  0  0
    6.6761  -14.1605   21.1450 O   0  0  0  0  0  0  0  0  0  0  0  0
   15.2106  -15.2735   18.9817 C   0  0  0  0  0  0  0  0  0  0  0  0
    6.7354  -17.9206   24.5601 C   0  0  1  0  0  0  0  0  0  0  0  0
    7.3993  -17.7141   23.2220 O   0  0  0  0  0  0  0  0  0  0  0  0
    6.6360  -18.5429   22.3421 C   0  0  1  0  0  0  0  0  0  0  0  0
    7.2126  -16.2768   22.8122 N   0  0  0  0  0  0  0  0  0  0  0  0
    7.8976  -16.0281   21.5412 C   0  0  0  0  0  0  0  0  0  0  0  0
    7.7554  -15.3831   23.8544 O   0  0  0  0  0  0  0  0  0  0  0  0
    8.9903  -15.0148   23.7776 N   0  0  0  0  0  0  0  0  0  0  0  0
    7.0760  -14.8536   24.9651 C   0  0  1  0  0  0  0  0  0  0  0  0
    7.6438  -13.8858   25.8816 C   0  0  0  0  0  0  0  0  0  0  0  0
    6.6377  -12.9583   26.4667 S   0  0  0  0  0  0  0  0  0  0  0  0
    7.5071  -11.9175   27.6943 C   0  0  0  0  0  0  0  0  0  0  0  0
    8.3122  -14.6091   26.9921 O   0  0  0  0  0  0  0  0  0  0  0  0
    9.2684  -14.1025   27.5928 O   0  0  0  0  0  0  0  0  0  0  0  0
  1  2  1  0
  2  3  2  0
  4  2  1  0
  4  5  1  0
  6  5  1  0
  6  7  1  0
  7  8  1  0
  8  9  1  6
 10  8  1  0
 10 11  2  0
 13 12  1  1
 14 13  1  0
 15 16  1  1
 15 13  1  0
 16 10  1  0
 17 15  1  0
 18 17  2  0
 19 17  1  0
 20 19  1  0
 21 22  1  0
 20 21  1  1
 23 20  1  0
 23 25  1  0
 24 23  2  0
M  END
$$$$
