RTC.pdb
     RDKit          3D

 25 24  0  0  1  0  0  0  0  0999 V2000
    8.2444  -12.9483   15.9056 N   0  0  0  0  0  0  0  0  0  0  0  0
    8.7119  -13.7146   17.0188 C   0  0  0  0  0  0  0  0  0  0  0  0
    9.8089  -14.3847   16.8970 N   0  0  0  0  0  0  0  0  0  0  0  0
    7.9607  -13.7105   18.2046 N   0  0  0  0  0  0  0  0  0  0  0  0
    7.1683  -14.9069   18.5467 C   0  0  0  0  0  0  0  0  0  0  0  0
    6.2997  -14.5510   19.7016 C   0  0  0  0  0  0  0  0  0  0  0  0
    6.7836  -14.9188   21.0506 C   0  0  0  0  0  0  0  0  0  0  0  0
    6.7544  -16.3694   21.4062 C   0  0  2  0  0  0  0  0  0  0  0  0
    5.5292  -17.0404   21.0629 N   0  0  0  0  0  0  0  0  0  0  0  0
    7.0732  -16.5005   22.8543 C   0  0  0  0  0  0  0  0  0  0  0  0
    6.1419  -16.5208   23.7062 O   0  0  0  0  0  0  0  0  0  0  0  0
   10.1124  -15.0668   17.6152 C   0  0  0  0  0  0  0  0  0  0  0  0
   10.0008  -18.1029   26.3857 C   0  0  1  0  0  0  0  0  0  0  0  0
    9.8231  -17.7827   24.9229 O   0  0  0  0  0  0  0  0  0  0  0  0
    9.4744  -19.0443   24.3476 C   0  0  1  0  0  0  0  0  0  0  0  0
    8.6518  -16.8470   24.7770 N   0  0  0  0  0  0  0  0  0  0  0  0
    8.3797  -16.6069   23.3576 C   0  0  0  0  0  0  0  0  0  0  0  0
    8.9447  -15.5671   25.4520 O   0  0  0  0  0  0  0  0  0  0  0  0
    9.8310  -14.7811   24.9391 N   0  0  0  0  0  0  0  0  0  0  0  0
    8.3587  -15.0670   26.6276 C   0  0  1  0  0  0  0  0  0  0  0  0
    8.7180  -13.8060   27.2439 C   0  0  0  0  0  0  0  0  0  0  0  0
    7.5494  -13.0377   27.7529 S   0  0  0  0  0  0  0  0  0  0  0  0
    6.2536  -13.1013   26.4633 C   0  0  0  0  0  0  0  0  0  0  0  0
    9.6336  -14.0701   28.3819 O   0  0  0  0  0  0  0  0  0  0  0  0
   10.1297  -13.1364   29.0253 O   0  0  0  0  0  0  0  0  0  0  0  0
  1  2  1  0
  2  3  2  0
  4  2  1  0
  4  5  1  0
  6  5  1  0
  6  7  1  0
  7  8  1  0
  8  9  1  1
 10  8  1  0
 10 11  2  0
 13 12  1  6
 14 13  1  0
 15 16  1  6
 15 13  1  0
 16 10  1  0
 17 15  1  0
 18 17  2  0
 19 17  1  0
 20 19  1  0
 21 22  1  0
 20 21  1  1
 23 20  1  0
 23 25  1  0
 24 23  2  0
M  END
$$$$
