RTC.pdb
     RDKit          3D

 25 24  0  0  1  0  0  0  0  0999 V2000
    6.9508  -15.1236   17.0650 N   0  0  0  0  0  0  0  0  0  0  0  0
    7.9973  -14.3034   16.5386 C   0  0  0  0  0  0  0  0  0  0  0  0
    8.7321  -14.7677   15.5838 N   0  0  0  0  0  0  0  0  0  0  0  0
    8.1880  -13.0222   17.0796 N   0  0  0  0  0  0  0  0  0  0  0  0
    8.6266  -12.9025   18.4830 C   0  0  0  0  0  0  0  0  0  0  0  0
    7.4860  -13.3184   19.3436 C   0  0  0  0  0  0  0  0  0  0  0  0
    7.8122  -13.9856   20.6233 C   0  0  0  0  0  0  0  0  0  0  0  0
    8.2400  -15.4149   20.5497 C   0  0  2  0  0  0  0  0  0  0  0  0
    7.3870  -16.2494   19.7463 N   0  0  0  0  0  0  0  0  0  0  0  0
    8.3756  -15.9327   21.9387 C   0  0  0  0  0  0  0  0  0  0  0  0
    7.3446  -16.1693   22.6276 O   0  0  0  0  0  0  0  0  0  0  0  0
    9.4631  -14.1906   15.1300 C   0  0  0  0  0  0  0  0  0  0  0  0
   10.2839  -18.9610   22.5955 C   0  0  2  0  0  0  0  0  0  0  0  0
   10.7309  -18.0242   23.6893 O   0  0  0  0  0  0  0  0  0  0  0  0
   11.9427  -17.4675   23.1740 C   0  0  2  0  0  0  0  0  0  0  0  0
    9.7127  -16.9220   23.8208 N   0  0  0  0  0  0  0  0  0  0  0  0
    9.6099  -16.1854   22.5586 C   0  0  0  0  0  0  0  0  0  0  0  0
   10.1073  -16.0009   24.9050 O   0  0  0  0  0  0  0  0  0  0  0  0
   10.9019  -15.0211   24.6314 N   0  0  0  0  0  0  0  0  0  0  0  0
    9.7125  -16.0487   26.2531 C   0  0  1  0  0  0  0  0  0  0  0  0
   10.1429  -15.1016   27.2617 C   0  0  0  0  0  0  0  0  0  0  0  0
    9.0264  -14.3201   27.8596 S   0  0  0  0  0  0  0  0  0  0  0  0
    9.7578  -13.1828   29.0916 C   0  0  0  0  0  0  0  0  0  0  0  0
   10.8318  -15.8383   28.3507 O   0  0  0  0  0  0  0  0  0  0  0  0
   10.7286  -17.0678   28.4473 O   0  0  0  0  0  0  0  0  0  0  0  0
  1  2  1  0
  2  3  2  0
  4  2  1  0
  4  5  1  0
  6  5  1  0
  6  7  1  0
  7  8  1  0
  8  9  1  6
 10  8  1  0
 10 11  2  0
 13 12  1  1
 14 13  1  0
 15 16  1  1
 15 13  1  0
 16 10  1  0
 17 15  1  0
 18 17  2  0
 19 17  1  0
 20 19  1  0
 21 22  1  0
 20 21  1  1
 23 20  1  0
 23 25  1  0
 24 23  2  0
M  END
$$$$
