RTC.pdb
     RDKit          3D

 25 24  0  0  1  0  0  0  0  0999 V2000
   12.2917  -15.9339   18.5953 N   0  0  0  0  0  0  0  0  0  0  0  0
   11.6103  -14.6937   18.8012 C   0  0  0  0  0  0  0  0  0  0  0  0
   12.2456  -13.7196   19.3623 N   0  0  0  0  0  0  0  0  0  0  0  0
   10.2744  -14.5800   18.3855 N   0  0  0  0  0  0  0  0  0  0  0  0
    9.5774  -13.2945   18.5803 C   0  0  0  0  0  0  0  0  0  0  0  0
    9.2680  -13.1704   20.0307 C   0  0  0  0  0  0  0  0  0  0  0  0
    7.9156  -13.5779   20.4712 C   0  0  0  0  0  0  0  0  0  0  0  0
    7.6593  -15.0443   20.5956 C   0  0  2  0  0  0  0  0  0  0  0  0
    6.6419  -15.5464   19.7112 N   0  0  0  0  0  0  0  0  0  0  0  0
    7.3540  -15.3446   22.0212 C   0  0  0  0  0  0  0  0  0  0  0  0
    6.1953  -15.1352   22.4762 O   0  0  0  0  0  0  0  0  0  0  0  0
   11.7709  -12.8339   19.6142 C   0  0  0  0  0  0  0  0  0  0  0  0
    7.1108  -18.3925   23.3900 C   0  0  2  0  0  0  0  0  0  0  0  0
    8.0206  -17.7651   24.4160 O   0  0  0  0  0  0  0  0  0  0  0  0
    9.3242  -18.1795   24.0003 C   0  0  2  0  0  0  0  0  0  0  0  0
    7.9273  -16.2674   24.2859 N   0  0  0  0  0  0  0  0  0  0  0  0
    8.2944  -15.8615   22.9269 C   0  0  0  0  0  0  0  0  0  0  0  0
    8.8295  -15.6218   25.2599 O   0  0  0  0  0  0  0  0  0  0  0  0
   10.0415  -15.3551   24.9044 N   0  0  0  0  0  0  0  0  0  0  0  0
    8.5302  -15.2387   26.5787 C   0  0  1  0  0  0  0  0  0  0  0  0
    9.4763  -14.6114   27.4790 C   0  0  0  0  0  0  0  0  0  0  0  0
    8.8478  -13.6577   28.4332 S   0  0  0  0  0  0  0  0  0  0  0  0
    7.7532  -12.5597   27.4625 C   0  0  0  0  0  0  0  0  0  0  0  0
   10.1679  -15.6661   28.2617 O   0  0  0  0  0  0  0  0  0  0  0  0
    9.8429  -16.8548   28.1476 O   0  0  0  0  0  0  0  0  0  0  0  0
  1  2  1  0
  2  3  2  0
  4  2  1  0
  4  5  1  0
  6  5  1  0
  6  7  1  0
  7  8  1  0
  8  9  1  6
 10  8  1  0
 10 11  2  0
 13 12  1  1
 14 13  1  0
 15 16  1  1
 15 13  1  0
 16 10  1  0
 17 15  1  0
 18 17  2  0
 19 17  1  0
 20 19  1  0
 21 22  1  0
 20 21  1  1
 23 20  1  0
 23 25  1  0
 24 23  2  0
M  END
$$$$
