RTC.pdb
     RDKit          3D

 25 24  0  0  1  0  0  0  0  0999 V2000
    9.7519  -13.6698   16.0870 N   0  0  0  0  0  0  0  0  0  0  0  0
    8.3656  -13.7743   16.4223 C   0  0  0  0  0  0  0  0  0  0  0  0
    7.5500  -12.8727   15.9875 N   0  0  0  0  0  0  0  0  0  0  0  0
    7.9415  -14.8540   17.2126 N   0  0  0  0  0  0  0  0  0  0  0  0
    8.3514  -14.9009   18.6290 C   0  0  0  0  0  0  0  0  0  0  0  0
    7.5158  -13.9156   19.3677 C   0  0  0  0  0  0  0  0  0  0  0  0
    7.7903  -13.7436   20.8114 C   0  0  0  0  0  0  0  0  0  0  0  0
    7.8321  -14.9836   21.6432 C   0  0  2  0  0  0  0  0  0  0  0  0
    6.5878  -15.7033   21.6993 N   0  0  0  0  0  0  0  0  0  0  0  0
    8.3245  -14.6183   22.9997 C   0  0  0  0  0  0  0  0  0  0  0  0
    9.3791  -13.9361   23.1258 O   0  0  0  0  0  0  0  0  0  0  0  0
    6.5361  -12.9094   16.1973 C   0  0  0  0  0  0  0  0  0  0  0  0
    6.7186  -12.6409   25.6834 C   0  0  2  0  0  0  0  0  0  0  0  0
    7.0720  -13.9661   26.3103 O   0  0  0  0  0  0  0  0  0  0  0  0
    5.8844  -14.7425   26.1355 C   0  0  2  0  0  0  0  0  0  0  0  0
    8.1805  -14.5947   25.5072 N   0  0  0  0  0  0  0  0  0  0  0  0
    7.6781  -14.9908   24.1893 C   0  0  0  0  0  0  0  0  0  0  0  0
    8.7058  -15.7779   26.2168 O   0  0  0  0  0  0  0  0  0  0  0  0
    8.0599  -16.8924   26.1324 N   0  0  0  0  0  0  0  0  0  0  0  0
    9.8682  -15.8567   27.0031 C   0  0  1  0  0  0  0  0  0  0  0  0
   10.2883  -17.0445   27.7186 C   0  0  0  0  0  0  0  0  0  0  0  0
   11.6879  -17.4545   27.4218 S   0  0  0  0  0  0  0  0  0  0  0  0
   11.8567  -17.5342   25.6022 C   0  0  0  0  0  0  0  0  0  0  0  0
   10.1756  -16.7929   29.1771 O   0  0  0  0  0  0  0  0  0  0  0  0
    9.7996  -15.6932   29.6026 O   0  0  0  0  0  0  0  0  0  0  0  0
  1  2  1  0
  2  3  2  0
  4  2  1  0
  4  5  1  0
  6  5  1  0
  6  7  1  0
  7  8  1  0
  8  9  1  1
 10  8  1  0
 10 11  2  0
 13 12  1  1
 14 13  1  0
 15 16  1  1
 15 13  1  0
 16 10  1  0
 17 15  1  0
 18 17  2  0
 19 17  1  0
 20 19  1  0
 21 22  1  0
 20 21  1  1
 23 20  1  0
 23 25  1  0
 24 23  2  0
M  END
$$$$
