RTC.pdb
     RDKit          3D

 25 24  0  0  1  0  0  0  0  0999 V2000
   14.2996  -20.9602   17.0739 N   0  0  0  0  0  0  0  0  0  0  0  0
   14.9944  -20.4581   18.2184 C   0  0  0  0  0  0  0  0  0  0  0  0
   16.2118  -20.8365   18.4236 N   0  0  0  0  0  0  0  0  0  0  0  0
   14.3273  -19.5714   19.0782 N   0  0  0  0  0  0  0  0  0  0  0  0
   12.9733  -19.1132   18.7137 C   0  0  0  0  0  0  0  0  0  0  0  0
   12.7831  -17.7639   19.3120 C   0  0  0  0  0  0  0  0  0  0  0  0
   11.4792  -17.4861   19.9537 C   0  0  0  0  0  0  0  0  0  0  0  0
   10.5035  -16.6669   19.1735 C   0  0  2  0  0  0  0  0  0  0  0  0
   10.9844  -16.2356   17.8882 N   0  0  0  0  0  0  0  0  0  0  0  0
   10.0760  -15.5200   20.0206 C   0  0  0  0  0  0  0  0  0  0  0  0
   10.7525  -14.4543   20.0283 O   0  0  0  0  0  0  0  0  0  0  0  0
   16.7814  -20.4427   19.1943 C   0  0  0  0  0  0  0  0  0  0  0  0
    7.0665  -13.5078   19.7903 C   0  0  2  0  0  0  0  0  0  0  0  0
    7.0744  -14.0174   21.2095 O   0  0  0  0  0  0  0  0  0  0  0  0
    6.3174  -15.2277   21.1311 C   0  0  2  0  0  0  0  0  0  0  0  0
    8.4918  -14.3598   21.5869 N   0  0  0  0  0  0  0  0  0  0  0  0
    8.9354  -15.5392   20.8394 C   0  0  0  0  0  0  0  0  0  0  0  0
    8.5745  -14.6280   23.0363 O   0  0  0  0  0  0  0  0  0  0  0  0
    8.8039  -15.8343   23.4344 N   0  0  0  0  0  0  0  0  0  0  0  0
    8.4346  -13.7036   24.0859 C   0  0  1  0  0  0  0  0  0  0  0  0
    8.4155  -14.0622   25.4896 C   0  0  0  0  0  0  0  0  0  0  0  0
    8.1342  -12.9139   26.3936 S   0  0  0  0  0  0  0  0  0  0  0  0
    8.3495  -13.5082   28.1102 C   0  0  0  0  0  0  0  0  0  0  0  0
    7.3715  -15.0944   25.7084 O   0  0  0  0  0  0  0  0  0  0  0  0
    6.2851  -15.0310   25.1189 O   0  0  0  0  0  0  0  0  0  0  0  0
  1  2  1  0
  2  3  2  0
  4  2  1  0
  4  5  1  0
  6  5  1  0
  6  7  1  0
  7  8  1  0
  8  9  1  6
 10  8  1  0
 10 11  2  0
 13 12  1  1
 14 13  1  0
 15 16  1  1
 15 13  1  0
 16 10  1  0
 17 15  1  0
 18 17  2  0
 19 17  1  0
 20 19  1  0
 21 22  1  0
 20 21  1  6
 23 20  1  0
 23 25  1  0
 24 23  2  0
M  END
$$$$
