CYN.pdb
     RDKit          3D

 27 27  0  0  1  0  0  0  0  0999 V2000
   20.9907  -11.1499  -17.2382 N   0  0  0  0  0  0  0  0  0  0  0  0
   21.9111  -10.2387  -16.5309 C   0  0  1  0  0  0  0  0  0  0  0  0
   22.7688   -9.5155  -17.5307 C   0  0  0  0  0  0  0  0  0  0  0  0
   24.0038  -10.6162  -18.2293 S   0  0  0  0  0  0  0  0  0  0  0  0
   21.0556   -9.3239  -15.7347 C   0  0  0  0  0  0  0  0  0  0  0  0
   19.9700   -8.8969  -16.2800 O   0  0  0  0  0  0  0  0  0  0  0  0
   16.7202   -5.2349   -9.2481 O   0  0  0  0  0  0  0  0  0  0  0  0
   17.5703   -6.0431  -10.0124 C   0  0  0  0  0  0  0  0  0  0  0  0
   17.0737   -6.9349  -10.9395 C   0  0  0  0  0  0  0  0  0  0  0  0
   17.9199   -7.7299  -11.6912 C   0  0  0  0  0  0  0  0  0  0  0  0
   19.2917   -7.6752  -11.5564 C   0  0  0  0  0  0  0  0  0  0  0  0
   20.2365   -8.4992  -12.3330 C   0  0  0  0  0  0  0  0  0  0  0  0
   20.4434   -8.0368  -13.7280 C   0  0  2  0  0  0  0  0  0  0  0  0
   21.3747   -8.9061  -14.4132 N   0  0  0  0  0  0  0  0  0  0  0  0
   20.9934   -6.6456  -13.8201 C   0  0  0  0  0  0  0  0  0  0  0  0
   22.2108   -6.3699  -13.6685 O   0  0  0  0  0  0  0  0  0  0  0  0
   19.7813   -6.7761  -10.6221 C   0  0  0  0  0  0  0  0  0  0  0  0
   18.9394   -5.9792   -9.8682 C   0  0  0  0  0  0  0  0  0  0  0  0
   21.8622   -1.8339  -14.9951 N   0  0  0  0  0  0  0  0  0  0  0  0
   22.2093   -2.9485  -15.8193 C   0  0  0  0  0  0  0  0  0  0  0  0
   22.9829   -2.7220  -16.7924 O   0  0  0  0  0  0  0  0  0  0  0  0
   21.6683   -4.2751  -15.5107 C   0  0  0  0  0  0  0  0  0  0  0  0
   20.6870   -4.2165  -14.3378 C   0  0  2  0  0  0  0  0  0  0  0  0
   20.1330   -5.5314  -14.0933 N   0  0  0  0  0  0  0  0  0  0  0  0
   19.6068   -3.2592  -14.6560 C   0  0  0  0  0  0  0  0  0  0  0  0
   18.5123   -3.7056  -15.0782 O   0  0  0  0  0  0  0  0  0  0  0  0
   19.7715   -1.9088  -14.5013 O   0  0  0  0  0  0  0  0  0  0  0  0
  2  1  1  6
  3  2  1  0
  4  3  1  0
  5  2  1  0
  5  6  2  0
  7  8  1  0
  8 18  2  0
  9  8  1  0
  9 10  2  0
 10 11  1  0
 11 17  2  0
 11 12  1  0
 13 12  1  1
 13 14  1  0
 14  5  1  0
 15 13  1  0
 16 15  2  0
 18 17  1  0
 20 21  2  0
 20 19  1  0
 23 22  1  6
 22 20  1  0
 23 24  1  0
 24 15  1  0
 25 23  1  0
 26 25  2  0
 27 25  1  0
M  END
$$$$
