CYN.pdb
     RDKit          3D

 27 27  0  0  1  0  0  0  0  0999 V2000
   24.1514  -21.2493  -11.0119 N   0  0  0  0  0  0  0  0  0  0  0  0
   24.8893  -21.4879  -12.2674 C   0  0  1  0  0  0  0  0  0  0  0  0
   24.2578  -22.6305  -13.0118 C   0  0  0  0  0  0  0  0  0  0  0  0
   25.4521  -23.9377  -13.3106 S   0  0  0  0  0  0  0  0  0  0  0  0
   24.8436  -20.2109  -13.0222 C   0  0  0  0  0  0  0  0  0  0  0  0
   23.7699  -19.5054  -12.9364 O   0  0  0  0  0  0  0  0  0  0  0  0
   26.9953  -13.0210  -17.7371 O   0  0  0  0  0  0  0  0  0  0  0  0
   27.0283  -14.2098  -16.9984 C   0  0  0  0  0  0  0  0  0  0  0  0
   27.3131  -15.4199  -17.5951 C   0  0  0  0  0  0  0  0  0  0  0  0
   27.3442  -16.5903  -16.8587 C   0  0  0  0  0  0  0  0  0  0  0  0
   27.0947  -16.6115  -15.5022 C   0  0  0  0  0  0  0  0  0  0  0  0
   27.1165  -17.8302  -14.6722 C   0  0  0  0  0  0  0  0  0  0  0  0
   25.7820  -18.4412  -14.4525 C   0  0  2  0  0  0  0  0  0  0  0  0
   25.9191  -19.7361  -13.8226 N   0  0  0  0  0  0  0  0  0  0  0  0
   25.0054  -18.6492  -15.7175 C   0  0  0  0  0  0  0  0  0  0  0  0
   24.9781  -19.7397  -16.3429 O   0  0  0  0  0  0  0  0  0  0  0  0
   26.8093  -15.3905  -14.9115 C   0  0  0  0  0  0  0  0  0  0  0  0
   26.7770  -14.2177  -15.6434 C   0  0  0  0  0  0  0  0  0  0  0  0
   23.2618  -20.2729  -18.6206 N   0  0  0  0  0  0  0  0  0  0  0  0
   22.2781  -20.0971  -17.5991 C   0  0  0  0  0  0  0  0  0  0  0  0
   21.4940  -21.0649  -17.3866 O   0  0  0  0  0  0  0  0  0  0  0  0
   22.2198  -18.8341  -16.8580 C   0  0  0  0  0  0  0  0  0  0  0  0
   23.2846  -17.8510  -17.3497 C   0  0  2  0  0  0  0  0  0  0  0  0
   24.2348  -17.5842  -16.2908 N   0  0  0  0  0  0  0  0  0  0  0  0
   22.6282  -16.5965  -17.7737 C   0  0  0  0  0  0  0  0  0  0  0  0
   22.3031  -15.7609  -16.8953 O   0  0  0  0  0  0  0  0  0  0  0  0
   22.3697  -16.3276  -19.0911 O   0  0  0  0  0  0  0  0  0  0  0  0
  2  1  1  1
  3  2  1  0
  4  3  1  0
  5  2  1  0
  5  6  2  0
  7  8  1  0
  8 18  2  0
  9  8  1  0
  9 10  2  0
 10 11  1  0
 11 17  2  0
 11 12  1  0
 13 12  1  6
 13 14  1  0
 14  5  1  0
 15 13  1  0
 16 15  2  0
 18 17  1  0
 20 21  2  0
 20 19  1  0
 23 22  1  1
 22 20  1  0
 23 24  1  0
 24 15  1  0
 25 23  1  0
 26 25  2  0
 27 25  1  0
M  END
$$$$
