CYN.pdb
     RDKit          3D

 27 27  0  0  1  0  0  0  0  0999 V2000
   21.3054  -13.9327  -14.9617 N   0  0  0  0  0  0  0  0  0  0  0  0
   21.9425  -14.7023  -16.0477 C   0  0  1  0  0  0  0  0  0  0  0  0
   23.1212  -13.9375  -16.5808 C   0  0  0  0  0  0  0  0  0  0  0  0
   22.7276  -13.1718  -18.1567 S   0  0  0  0  0  0  0  0  0  0  0  0
   22.3212  -16.0110  -15.4592 C   0  0  0  0  0  0  0  0  0  0  0  0
   22.8482  -16.0066  -14.2843 O   0  0  0  0  0  0  0  0  0  0  0  0
   18.1664  -18.4735  -10.6055 O   0  0  0  0  0  0  0  0  0  0  0  0
   18.9427  -18.6989  -11.7486 C   0  0  0  0  0  0  0  0  0  0  0  0
   20.0254  -19.5526  -11.7261 C   0  0  0  0  0  0  0  0  0  0  0  0
   20.7875  -19.7704  -12.8596 C   0  0  0  0  0  0  0  0  0  0  0  0
   20.5099  -19.1527  -14.0614 C   0  0  0  0  0  0  0  0  0  0  0  0
   21.2893  -19.3514  -15.2973 C   0  0  0  0  0  0  0  0  0  0  0  0
   22.4752  -18.4673  -15.4181 C   0  0  2  0  0  0  0  0  0  0  0  0
   22.1278  -17.2534  -16.1240 N   0  0  0  0  0  0  0  0  0  0  0  0
   23.6148  -19.0958  -16.1616 C   0  0  0  0  0  0  0  0  0  0  0  0
   24.3407  -18.4701  -16.9757 O   0  0  0  0  0  0  0  0  0  0  0  0
   19.4201  -18.2965  -14.0740 C   0  0  0  0  0  0  0  0  0  0  0  0
   18.6551  -18.0753  -12.9434 C   0  0  0  0  0  0  0  0  0  0  0  0
   28.7368  -21.1283  -16.0145 N   0  0  0  0  0  0  0  0  0  0  0  0
   27.5672  -20.8601  -16.7906 C   0  0  0  0  0  0  0  0  0  0  0  0
   27.6337  -21.1030  -18.0289 O   0  0  0  0  0  0  0  0  0  0  0  0
   26.3687  -20.3281  -16.1362 C   0  0  0  0  0  0  0  0  0  0  0  0
   25.1075  -21.0534  -16.6108 C   0  0  2  0  0  0  0  0  0  0  0  0
   23.9407  -20.4797  -15.9745 N   0  0  0  0  0  0  0  0  0  0  0  0
   25.2175  -22.4886  -16.2750 C   0  0  0  0  0  0  0  0  0  0  0  0
   24.4617  -22.9591  -15.3902 O   0  0  0  0  0  0  0  0  0  0  0  0
   26.1167  -23.3089  -16.9021 O   0  0  0  0  0  0  0  0  0  0  0  0
  2  1  1  1
  3  2  1  0
  4  3  1  0
  5  2  1  0
  5  6  2  0
  7  8  1  0
  8 18  2  0
  9  8  1  0
  9 10  2  0
 10 11  1  0
 11 17  2  0
 11 12  1  0
 13 12  1  6
 13 14  1  0
 14  5  1  0
 15 13  1  0
 16 15  2  0
 18 17  1  0
 20 21  2  0
 20 19  1  0
 23 22  1  1
 22 20  1  0
 23 24  1  0
 24 15  1  0
 25 23  1  0
 26 25  2  0
 27 25  1  0
M  END
$$$$
