CYN.pdb
     RDKit          3D

 27 27  0  0  1  0  0  0  0  0999 V2000
   18.8043  -26.6195  -14.9469 N   0  0  0  0  0  0  0  0  0  0  0  0
   19.9768  -25.9430  -14.3592 C   0  0  1  0  0  0  0  0  0  0  0  0
   21.2348  -26.5131  -14.9515 C   0  0  0  0  0  0  0  0  0  0  0  0
   22.5963  -26.4072  -13.7854 S   0  0  0  0  0  0  0  0  0  0  0  0
   19.8064  -24.4971  -14.6470 C   0  0  0  0  0  0  0  0  0  0  0  0
   19.3446  -24.1695  -15.8035 O   0  0  0  0  0  0  0  0  0  0  0  0
   18.9895  -15.7312  -14.4220 O   0  0  0  0  0  0  0  0  0  0  0  0
   19.1800  -17.0730  -14.0711 C   0  0  0  0  0  0  0  0  0  0  0  0
   20.3989  -17.5322  -13.6185 C   0  0  0  0  0  0  0  0  0  0  0  0
   20.5794  -18.8594  -13.2734 C   0  0  0  0  0  0  0  0  0  0  0  0
   19.5617  -19.7865  -13.3621 C   0  0  0  0  0  0  0  0  0  0  0  0
   19.7017  -21.2106  -13.0061 C   0  0  0  0  0  0  0  0  0  0  0  0
   20.0253  -22.0958  -14.1524 C   0  0  2  0  0  0  0  0  0  0  0  0
   20.1227  -23.4710  -13.7143 N   0  0  0  0  0  0  0  0  0  0  0  0
   21.3229  -21.7559  -14.8211 C   0  0  0  0  0  0  0  0  0  0  0  0
   22.4307  -22.2356  -14.4693 O   0  0  0  0  0  0  0  0  0  0  0  0
   18.3405  -19.3155  -13.8181 C   0  0  0  0  0  0  0  0  0  0  0  0
   18.1551  -17.9896  -14.1644 C   0  0  0  0  0  0  0  0  0  0  0  0
   24.9081  -20.1677  -18.0290 N   0  0  0  0  0  0  0  0  0  0  0  0
   24.4383  -21.5141  -17.9369 C   0  0  0  0  0  0  0  0  0  0  0  0
   25.1159  -22.3989  -18.5325 O   0  0  0  0  0  0  0  0  0  0  0  0
   23.2213  -21.8072  -17.1750 C   0  0  0  0  0  0  0  0  0  0  0  0
   22.6178  -20.5332  -16.5791 C   0  0  2  0  0  0  0  0  0  0  0  0
   21.3637  -20.8417  -15.9252 N   0  0  0  0  0  0  0  0  0  0  0  0
   22.4009  -19.5478  -17.6590 C   0  0  0  0  0  0  0  0  0  0  0  0
   23.3683  -19.2425  -18.3982 O   0  0  0  0  0  0  0  0  0  0  0  0
   21.1794  -18.9662  -17.8697 O   0  0  0  0  0  0  0  0  0  0  0  0
  2  1  1  6
  3  2  1  0
  4  3  1  0
  5  2  1  0
  5  6  2  0
  7  8  1  0
  8 18  2  0
  9  8  1  0
  9 10  2  0
 10 11  1  0
 11 17  2  0
 11 12  1  0
 13 12  1  1
 13 14  1  0
 14  5  1  0
 15 13  1  0
 16 15  2  0
 18 17  1  0
 20 21  2  0
 20 19  1  0
 23 22  1  6
 22 20  1  0
 23 24  1  0
 24 15  1  0
 25 23  1  0
 26 25  2  0
 27 25  1  0
M  END
$$$$
