CYN.pdb
     RDKit          3D

 27 27  0  0  1  0  0  0  0  0999 V2000
   24.7576  -20.1276  -16.6677 N   0  0  0  0  0  0  0  0  0  0  0  0
   23.7323  -19.2486  -16.0730 C   0  0  1  0  0  0  0  0  0  0  0  0
   22.6669  -18.9585  -17.0924 C   0  0  0  0  0  0  0  0  0  0  0  0
   23.1448  -17.5838  -18.1443 S   0  0  0  0  0  0  0  0  0  0  0  0
   23.2128  -19.9667  -14.8827 C   0  0  0  0  0  0  0  0  0  0  0  0
   23.1850  -21.2533  -14.9274 O   0  0  0  0  0  0  0  0  0  0  0  0
   20.4101  -22.3514   -6.8493 O   0  0  0  0  0  0  0  0  0  0  0  0
   20.8789  -21.6304   -7.9540 C   0  0  0  0  0  0  0  0  0  0  0  0
   20.0229  -20.9050   -8.7556 C   0  0  0  0  0  0  0  0  0  0  0  0
   20.4935  -20.1948   -9.8452 C   0  0  0  0  0  0  0  0  0  0  0  0
   21.8300  -20.1734  -10.1864 C   0  0  0  0  0  0  0  0  0  0  0  0
   22.3823  -19.4325  -11.3356 C   0  0  0  0  0  0  0  0  0  0  0  0
   22.2054  -20.1145  -12.6417 C   0  0  2  0  0  0  0  0  0  0  0  0
   22.7537  -19.3070  -13.7093 N   0  0  0  0  0  0  0  0  0  0  0  0
   20.7713  -20.3812  -12.9862 C   0  0  0  0  0  0  0  0  0  0  0  0
   20.0456  -19.5671  -13.6120 O   0  0  0  0  0  0  0  0  0  0  0  0
   22.6824  -20.9055   -9.3750 C   0  0  0  0  0  0  0  0  0  0  0  0
   22.2167  -21.6171   -8.2846 C   0  0  0  0  0  0  0  0  0  0  0  0
   16.7551  -22.6155  -15.7688 N   0  0  0  0  0  0  0  0  0  0  0  0
   17.2407  -23.0297  -14.4902 C   0  0  0  0  0  0  0  0  0  0  0  0
   16.4154  -23.5997  -13.7215 O   0  0  0  0  0  0  0  0  0  0  0  0
   18.6400  -22.7833  -14.1311 C   0  0  0  0  0  0  0  0  0  0  0  0
   18.7482  -21.8526  -12.9211 C   0  0  2  0  0  0  0  0  0  0  0  0
   20.1409  -21.6124  -12.6078 N   0  0  0  0  0  0  0  0  0  0  0  0
   18.0661  -22.4754  -11.7672 C   0  0  0  0  0  0  0  0  0  0  0  0
   18.6341  -23.4236  -11.1725 O   0  0  0  0  0  0  0  0  0  0  0  0
   16.8400  -22.0448  -11.3360 O   0  0  0  0  0  0  0  0  0  0  0  0
  2  1  1  6
  3  2  1  0
  4  3  1  0
  5  2  1  0
  5  6  2  0
  7  8  1  0
  8 18  2  0
  9  8  1  0
  9 10  2  0
 10 11  1  0
 11 17  2  0
 11 12  1  0
 13 12  1  1
 13 14  1  0
 14  5  1  0
 15 13  1  0
 16 15  2  0
 18 17  1  0
 20 21  2  0
 20 19  1  0
 23 22  1  6
 22 20  1  0
 23 24  1  0
 24 15  1  0
 25 23  1  0
 26 25  2  0
 27 25  1  0
M  END
$$$$
