CYN.pdb
     RDKit          3D

 27 27  0  0  1  0  0  0  0  0999 V2000
   27.1533  -19.2564   -6.8678 N   0  0  0  0  0  0  0  0  0  0  0  0
   26.4072  -20.3999   -7.4277 C   0  0  1  0  0  0  0  0  0  0  0  0
   25.1228  -20.5816   -6.6689 C   0  0  0  0  0  0  0  0  0  0  0  0
   25.4396  -21.2004   -5.0132 S   0  0  0  0  0  0  0  0  0  0  0  0
   26.1915  -20.0893   -8.8628 C   0  0  0  0  0  0  0  0  0  0  0  0
   25.8112  -18.8966   -9.1644 O   0  0  0  0  0  0  0  0  0  0  0  0
   27.6960  -19.4901  -17.4941 O   0  0  0  0  0  0  0  0  0  0  0  0
   27.6495  -19.8956  -16.1549 C   0  0  0  0  0  0  0  0  0  0  0  0
   27.1588  -21.1329  -15.7945 C   0  0  0  0  0  0  0  0  0  0  0  0
   27.1163  -21.5267  -14.4693 C   0  0  0  0  0  0  0  0  0  0  0  0
   27.5573  -20.7127  -13.4466 C   0  0  0  0  0  0  0  0  0  0  0  0
   27.5347  -21.0849  -12.0199 C   0  0  0  0  0  0  0  0  0  0  0  0
   26.3645  -20.5610  -11.2724 C   0  0  2  0  0  0  0  0  0  0  0  0
   26.3865  -21.0359   -9.9062 N   0  0  0  0  0  0  0  0  0  0  0  0
   25.0484  -20.9738  -11.8587 C   0  0  0  0  0  0  0  0  0  0  0  0
   24.5380  -22.1099  -11.6855 O   0  0  0  0  0  0  0  0  0  0  0  0
   28.0485  -19.4712  -13.8187 C   0  0  0  0  0  0  0  0  0  0  0  0
   28.0930  -19.0729  -15.1421 C   0  0  0  0  0  0  0  0  0  0  0  0
   20.5189  -21.0096  -14.2082 N   0  0  0  0  0  0  0  0  0  0  0  0
   20.6242  -19.8532  -13.3753 C   0  0  0  0  0  0  0  0  0  0  0  0
   19.5647  -19.1949  -13.1731 O   0  0  0  0  0  0  0  0  0  0  0  0
   21.9229  -19.4869  -12.8037 C   0  0  0  0  0  0  0  0  0  0  0  0
   23.0151  -20.4714  -13.2283 C   0  0  2  0  0  0  0  0  0  0  0  0
   24.2871  -20.0671  -12.6680 N   0  0  0  0  0  0  0  0  0  0  0  0
   23.0944  -20.5016  -14.7038 C   0  0  0  0  0  0  0  0  0  0  0  0
   22.1228  -20.9652  -15.3492 O   0  0  0  0  0  0  0  0  0  0  0  0
   24.1935  -20.0388  -15.3764 O   0  0  0  0  0  0  0  0  0  0  0  0
  2  1  1  1
  3  2  1  0
  4  3  1  0
  5  2  1  0
  5  6  2  0
  7  8  1  0
  8 18  2  0
  9  8  1  0
  9 10  2  0
 10 11  1  0
 11 17  2  0
 11 12  1  0
 13 12  1  6
 13 14  1  0
 14  5  1  0
 15 13  1  0
 16 15  2  0
 18 17  1  0
 20 21  2  0
 20 19  1  0
 23 22  1  6
 22 20  1  0
 23 24  1  0
 24 15  1  0
 25 23  1  0
 26 25  2  0
 27 25  1  0
M  END
$$$$
