CYN.pdb
     RDKit          3D

 27 27  0  0  1  0  0  0  0  0999 V2000
   24.1981  -12.2298  -17.1352 N   0  0  0  0  0  0  0  0  0  0  0  0
   24.4824  -10.8861  -17.6748 C   0  0  1  0  0  0  0  0  0  0  0  0
   24.7213  -10.9796  -19.1556 C   0  0  0  0  0  0  0  0  0  0  0  0
   26.3051  -11.7521  -19.5008 S   0  0  0  0  0  0  0  0  0  0  0  0
   23.3082  -10.0461  -17.3309 C   0  0  0  0  0  0  0  0  0  0  0  0
   22.1414  -10.5002  -17.6318 O   0  0  0  0  0  0  0  0  0  0  0  0
   16.5191   -9.6139  -13.7915 O   0  0  0  0  0  0  0  0  0  0  0  0
   17.8401   -9.2499  -14.0784 C   0  0  0  0  0  0  0  0  0  0  0  0
   18.8732  -10.1584  -13.9846 C   0  0  0  0  0  0  0  0  0  0  0  0
   20.1760   -9.7914  -14.2699 C   0  0  0  0  0  0  0  0  0  0  0  0
   20.5098   -8.5108  -14.6595 C   0  0  0  0  0  0  0  0  0  0  0  0
   21.8808   -8.0693  -14.9757 C   0  0  0  0  0  0  0  0  0  0  0  0
   22.1939   -8.0466  -16.4262 C   0  0  2  0  0  0  0  0  0  0  0  0
   23.4120   -8.7810  -16.6895 N   0  0  0  0  0  0  0  0  0  0  0  0
   22.3883   -6.6647  -16.9730 C   0  0  0  0  0  0  0  0  0  0  0  0
   23.4141   -5.9708  -16.7552 O   0  0  0  0  0  0  0  0  0  0  0  0
   19.4648   -7.6050  -14.7507 C   0  0  0  0  0  0  0  0  0  0  0  0
   18.1608   -7.9670  -14.4664 C   0  0  0  0  0  0  0  0  0  0  0  0
   21.9441   -2.2537  -19.4443 N   0  0  0  0  0  0  0  0  0  0  0  0
   21.5137   -3.2991  -20.3183 C   0  0  0  0  0  0  0  0  0  0  0  0
   21.3367   -2.9943  -21.5318 O   0  0  0  0  0  0  0  0  0  0  0  0
   21.3006   -4.6478  -19.7860 C   0  0  0  0  0  0  0  0  0  0  0  0
   21.5578   -4.6977  -18.2782 C   0  0  2  0  0  0  0  0  0  0  0  0
   21.3854   -6.0510  -17.7940 N   0  0  0  0  0  0  0  0  0  0  0  0
   20.6149   -3.7876  -17.5946 C   0  0  0  0  0  0  0  0  0  0  0  0
   19.5529   -4.2637  -17.1248 O   0  0  0  0  0  0  0  0  0  0  0  0
   20.8720   -2.4492  -17.4631 O   0  0  0  0  0  0  0  0  0  0  0  0
  2  1  1  6
  3  2  1  0
  4  3  1  0
  5  2  1  0
  5  6  2  0
  7  8  1  0
  8 18  2  0
  9  8  1  0
  9 10  2  0
 10 11  1  0
 11 17  2  0
 11 12  1  0
 13 12  1  1
 13 14  1  0
 14  5  1  0
 15 13  1  0
 16 15  2  0
 18 17  1  0
 20 21  2  0
 20 19  1  0
 23 22  1  6
 22 20  1  0
 23 24  1  0
 24 15  1  0
 25 23  1  0
 26 25  2  0
 27 25  1  0
M  END
$$$$
