CYN.pdb
     RDKit          3D

 27 27  0  0  1  0  0  0  0  0999 V2000
   22.5830  -12.0001  -17.2526 N   0  0  0  0  0  0  0  0  0  0  0  0
   22.7180  -12.1332  -15.7891 C   0  0  1  0  0  0  0  0  0  0  0  0
   24.0806  -12.6733  -15.4575 C   0  0  0  0  0  0  0  0  0  0  0  0
   24.3520  -14.2590  -16.2552 S   0  0  0  0  0  0  0  0  0  0  0  0
   22.4806  -10.7799  -15.2278 C   0  0  0  0  0  0  0  0  0  0  0  0
   22.4494  -10.6630  -13.9459 O   0  0  0  0  0  0  0  0  0  0  0  0
   21.8841   -2.0806  -13.9714 O   0  0  0  0  0  0  0  0  0  0  0  0
   22.1840   -3.3763  -14.4088 C   0  0  0  0  0  0  0  0  0  0  0  0
   22.4569   -3.6432  -15.7338 C   0  0  0  0  0  0  0  0  0  0  0  0
   22.7526   -4.9260  -16.1584 C   0  0  0  0  0  0  0  0  0  0  0  0
   22.7904   -5.9969  -15.2896 C   0  0  0  0  0  0  0  0  0  0  0  0
   23.1010   -7.3815  -15.6906 C   0  0  0  0  0  0  0  0  0  0  0  0
   22.0362   -8.3629  -15.3657 C   0  0  2  0  0  0  0  0  0  0  0  0
   22.2920   -9.6216  -16.0312 N   0  0  0  0  0  0  0  0  0  0  0  0
   20.6670   -7.9175  -15.7819 C   0  0  0  0  0  0  0  0  0  0  0  0
   20.1472   -6.8346  -15.4099 O   0  0  0  0  0  0  0  0  0  0  0  0
   22.5146   -5.7186  -13.9601 C   0  0  0  0  0  0  0  0  0  0  0  0
   22.2183   -4.4380  -13.5308 C   0  0  0  0  0  0  0  0  0  0  0  0
   20.2820   -7.6993  -20.3064 N   0  0  0  0  0  0  0  0  0  0  0  0
   19.3515   -7.3260  -19.2880 C   0  0  0  0  0  0  0  0  0  0  0  0
   19.2943   -6.1002  -18.9863 O   0  0  0  0  0  0  0  0  0  0  0  0
   18.5224   -8.3529  -18.6512 C   0  0  0  0  0  0  0  0  0  0  0  0
   18.5819   -8.2485  -17.1255 C   0  0  2  0  0  0  0  0  0  0  0  0
   19.8618   -8.7280  -16.6488 N   0  0  0  0  0  0  0  0  0  0  0  0
   17.4870   -9.0511  -16.5411 C   0  0  0  0  0  0  0  0  0  0  0  0
   17.7252  -10.2351  -16.1991 O   0  0  0  0  0  0  0  0  0  0  0  0
   16.2304   -8.5367  -16.3653 O   0  0  0  0  0  0  0  0  0  0  0  0
  2  1  1  6
  3  2  1  0
  4  3  1  0
  5  2  1  0
  5  6  2  0
  7  8  1  0
  8 18  2  0
  9  8  1  0
  9 10  2  0
 10 11  1  0
 11 17  2  0
 11 12  1  0
 13 12  1  6
 13 14  1  0
 14  5  1  0
 15 13  1  0
 16 15  2  0
 18 17  1  0
 20 21  2  0
 20 19  1  0
 23 22  1  6
 22 20  1  0
 23 24  1  0
 24 15  1  0
 25 23  1  0
 26 25  2  0
 27 25  1  0
M  END
$$$$
