CYN.pdb
     RDKit          3D

 27 27  0  0  1  0  0  0  0  0999 V2000
   19.6151  -15.4789  -18.0131 N   0  0  0  0  0  0  0  0  0  0  0  0
   19.2696  -14.8125  -16.7425 C   0  0  1  0  0  0  0  0  0  0  0  0
   20.4492  -14.8616  -15.8127 C   0  0  0  0  0  0  0  0  0  0  0  0
   20.5779  -16.4710  -15.0266 S   0  0  0  0  0  0  0  0  0  0  0  0
   18.8712  -13.4277  -17.0977 C   0  0  0  0  0  0  0  0  0  0  0  0
   19.4743  -12.8691  -18.0888 O   0  0  0  0  0  0  0  0  0  0  0  0
   13.2355  -13.8106  -21.0011 O   0  0  0  0  0  0  0  0  0  0  0  0
   13.9352  -13.1697  -19.9717 C   0  0  0  0  0  0  0  0  0  0  0  0
   14.3578  -13.8564  -18.8531 C   0  0  0  0  0  0  0  0  0  0  0  0
   15.0489  -13.2165  -17.8401 C   0  0  0  0  0  0  0  0  0  0  0  0
   15.3500  -11.8713  -17.8924 C   0  0  0  0  0  0  0  0  0  0  0  0
   16.0841  -11.1427  -16.8413 C   0  0  0  0  0  0  0  0  0  0  0  0
   17.5515  -11.3637  -16.8589 C   0  0  2  0  0  0  0  0  0  0  0  0
   17.8644  -12.7009  -16.4043 N   0  0  0  0  0  0  0  0  0  0  0  0
   18.3085  -10.4139  -15.9807 C   0  0  0  0  0  0  0  0  0  0  0  0
   18.3596  -10.5182  -14.7286 O   0  0  0  0  0  0  0  0  0  0  0  0
   14.9209  -11.1897  -19.0204 C   0  0  0  0  0  0  0  0  0  0  0  0
   14.2297  -11.8250  -20.0357 C   0  0  0  0  0  0  0  0  0  0  0  0
   21.2630   -6.4608  -14.4528 N   0  0  0  0  0  0  0  0  0  0  0  0
   21.9642   -7.5713  -15.0160 C   0  0  0  0  0  0  0  0  0  0  0  0
   23.2069   -7.6352  -14.7957 O   0  0  0  0  0  0  0  0  0  0  0  0
   21.2329   -8.5658  -15.8058 C   0  0  0  0  0  0  0  0  0  0  0  0
   19.7200   -8.3687  -15.6853 C   0  0  2  0  0  0  0  0  0  0  0  0
   19.0311   -9.3099  -16.5425 N   0  0  0  0  0  0  0  0  0  0  0  0
   19.3788   -6.9834  -16.0711 C   0  0  0  0  0  0  0  0  0  0  0  0
   19.1543   -6.7336  -17.2805 O   0  0  0  0  0  0  0  0  0  0  0  0
   19.3021   -5.9758  -15.1473 O   0  0  0  0  0  0  0  0  0  0  0  0
  2  1  1  6
  3  2  1  0
  4  3  1  0
  5  2  1  0
  5  6  2  0
  7  8  1  0
  8 18  2  0
  9  8  1  0
  9 10  2  0
 10 11  1  0
 11 17  2  0
 11 12  1  0
 13 12  1  1
 13 14  1  0
 14  5  1  0
 15 13  1  0
 16 15  2  0
 18 17  1  0
 20 21  2  0
 20 19  1  0
 23 22  1  6
 22 20  1  0
 23 24  1  0
 24 15  1  0
 25 23  1  0
 26 25  2  0
 27 25  1  0
M  END
$$$$
