CYN.pdb
     RDKit          3D

 27 27  0  0  1  0  0  0  0  0999 V2000
   22.3847  -14.4336  -19.2905 N   0  0  0  0  0  0  0  0  0  0  0  0
   22.8435  -13.0867  -19.6815 C   0  0  1  0  0  0  0  0  0  0  0  0
   22.2412  -12.7162  -21.0075 C   0  0  0  0  0  0  0  0  0  0  0  0
   23.0372  -13.6121  -22.3447 S   0  0  0  0  0  0  0  0  0  0  0  0
   22.4312  -12.1755  -18.5849 C   0  0  0  0  0  0  0  0  0  0  0  0
   21.2403  -12.3097  -18.1139 O   0  0  0  0  0  0  0  0  0  0  0  0
   22.1253   -5.8379  -12.3974 O   0  0  0  0  0  0  0  0  0  0  0  0
   22.5275   -6.8371  -13.2917 C   0  0  0  0  0  0  0  0  0  0  0  0
   22.3594   -8.1742  -12.9996 C   0  0  0  0  0  0  0  0  0  0  0  0
   22.7590   -9.1558  -13.8883 C   0  0  0  0  0  0  0  0  0  0  0  0
   23.3412   -8.8548  -15.1022 C   0  0  0  0  0  0  0  0  0  0  0  0
   23.7831   -9.8621  -16.0843 C   0  0  0  0  0  0  0  0  0  0  0  0
   22.7308  -10.2799  -17.0437 C   0  0  2  0  0  0  0  0  0  0  0  0
   23.2819  -11.1766  -18.0360 N   0  0  0  0  0  0  0  0  0  0  0  0
   22.1100   -9.1345  -17.7846 C   0  0  0  0  0  0  0  0  0  0  0  0
   22.5796   -8.6629  -18.8515 O   0  0  0  0  0  0  0  0  0  0  0  0
   23.5060   -7.5084  -15.3868 C   0  0  0  0  0  0  0  0  0  0  0  0
   23.1082   -6.5234  -14.5015 C   0  0  0  0  0  0  0  0  0  0  0  0
   18.9856   -6.5780  -21.0852 N   0  0  0  0  0  0  0  0  0  0  0  0
   18.5892   -6.9252  -19.7568 C   0  0  0  0  0  0  0  0  0  0  0  0
   17.6282   -6.2742  -19.2575 O   0  0  0  0  0  0  0  0  0  0  0  0
   19.2949   -7.9948  -19.0456 C   0  0  0  0  0  0  0  0  0  0  0  0
   20.2996   -7.4260  -18.0409 C   0  0  2  0  0  0  0  0  0  0  0  0
   20.9172   -8.5042  -17.2983 N   0  0  0  0  0  0  0  0  0  0  0  0
   19.5976   -6.5086  -17.1190 C   0  0  0  0  0  0  0  0  0  0  0  0
   19.1457   -5.4290  -17.5728 O   0  0  0  0  0  0  0  0  0  0  0  0
   19.4301   -6.8073  -15.7934 O   0  0  0  0  0  0  0  0  0  0  0  0
  2  1  1  1
  3  2  1  0
  4  3  1  0
  5  2  1  0
  5  6  2  0
  7  8  1  0
  8 18  2  0
  9  8  1  0
  9 10  2  0
 10 11  1  0
 11 17  2  0
 11 12  1  0
 13 12  1  1
 13 14  1  0
 14  5  1  0
 15 13  1  0
 16 15  2  0
 18 17  1  0
 20 21  2  0
 20 19  1  0
 23 22  1  6
 22 20  1  0
 23 24  1  0
 24 15  1  0
 25 23  1  0
 26 25  2  0
 27 25  1  0
M  END
$$$$
