CYN.pdb
     RDKit          3D

 27 27  0  0  1  0  0  0  0  0999 V2000
   27.7064  -19.9455  -16.8113 N   0  0  0  0  0  0  0  0  0  0  0  0
   27.3296  -19.4784  -15.4632 C   0  0  1  0  0  0  0  0  0  0  0  0
   26.9448  -18.0270  -15.5238 C   0  0  0  0  0  0  0  0  0  0  0  0
   28.4002  -16.9844  -15.6638 S   0  0  0  0  0  0  0  0  0  0  0  0
   26.2159  -20.3533  -15.0194 C   0  0  0  0  0  0  0  0  0  0  0  0
   25.4671  -20.8732  -15.9288 O   0  0  0  0  0  0  0  0  0  0  0  0
   26.4552  -19.4776   -7.4382 O   0  0  0  0  0  0  0  0  0  0  0  0
   26.1476  -20.1859   -8.6060 C   0  0  0  0  0  0  0  0  0  0  0  0
   27.1305  -20.5739   -9.4919 C   0  0  0  0  0  0  0  0  0  0  0  0
   26.8190  -21.2738  -10.6436 C   0  0  0  0  0  0  0  0  0  0  0  0
   25.5226  -21.6182  -10.9659 C   0  0  0  0  0  0  0  0  0  0  0  0
   25.1379  -22.3635  -12.1788 C   0  0  0  0  0  0  0  0  0  0  0  0
   24.8239  -21.5044  -13.3474 C   0  0  2  0  0  0  0  0  0  0  0  0
   25.9443  -20.6422  -13.6536 N   0  0  0  0  0  0  0  0  0  0  0  0
   23.6343  -20.6179  -13.1338 C   0  0  0  0  0  0  0  0  0  0  0  0
   23.7210  -19.3854  -12.9007 O   0  0  0  0  0  0  0  0  0  0  0  0
   24.5419  -21.2237  -10.0695 C   0  0  0  0  0  0  0  0  0  0  0  0
   24.8483  -20.5238   -8.9169 C   0  0  0  0  0  0  0  0  0  0  0  0
   19.3346  -18.8092  -14.9739 N   0  0  0  0  0  0  0  0  0  0  0  0
   20.6626  -18.7076  -15.4917 C   0  0  0  0  0  0  0  0  0  0  0  0
   20.8509  -17.8781  -16.4263 O   0  0  0  0  0  0  0  0  0  0  0  0
   21.7253  -19.5475  -14.9325 C   0  0  0  0  0  0  0  0  0  0  0  0
   21.2199  -20.3642  -13.7409 C   0  0  2  0  0  0  0  0  0  0  0  0
   22.3030  -21.1484  -13.1867 N   0  0  0  0  0  0  0  0  0  0  0  0
   20.1258  -21.2509  -14.1894 C   0  0  0  0  0  0  0  0  0  0  0  0
   20.4138  -22.2626  -14.8743 O   0  0  0  0  0  0  0  0  0  0  0  0
   18.8173  -20.9964  -13.8769 O   0  0  0  0  0  0  0  0  0  0  0  0
  2  1  1  6
  3  2  1  0
  4  3  1  0
  5  2  1  0
  5  6  2  0
  7  8  1  0
  8 18  2  0
  9  8  1  0
  9 10  2  0
 10 11  1  0
 11 17  2  0
 11 12  1  0
 13 12  1  1
 13 14  1  0
 14  5  1  0
 15 13  1  0
 16 15  2  0
 18 17  1  0
 20 21  2  0
 20 19  1  0
 23 22  1  6
 22 20  1  0
 23 24  1  0
 24 15  1  0
 25 23  1  0
 26 25  2  0
 27 25  1  0
M  END
$$$$
