CYN.pdb
     RDKit          3D

 27 27  0  0  1  0  0  0  0  0999 V2000
   20.2443  -27.7049  -11.5860 N   0  0  0  0  0  0  0  0  0  0  0  0
   19.3333  -27.1262  -12.5923 C   0  0  1  0  0  0  0  0  0  0  0  0
   17.9764  -27.7593  -12.4645 C   0  0  0  0  0  0  0  0  0  0  0  0
   18.0756  -29.5375  -12.6941 S   0  0  0  0  0  0  0  0  0  0  0  0
   19.3146  -25.6638  -12.3398 C   0  0  0  0  0  0  0  0  0  0  0  0
   19.2065  -25.2708  -11.1183 O   0  0  0  0  0  0  0  0  0  0  0  0
   20.4560  -16.9408  -12.7033 O   0  0  0  0  0  0  0  0  0  0  0  0
   20.4674  -18.3202  -12.9426 C   0  0  0  0  0  0  0  0  0  0  0  0
   20.1002  -18.8413  -14.1653 C   0  0  0  0  0  0  0  0  0  0  0  0
   20.1142  -20.2053  -14.3944 C   0  0  0  0  0  0  0  0  0  0  0  0
   20.4918  -21.1094  -13.4233 C   0  0  0  0  0  0  0  0  0  0  0  0
   20.5252  -22.5709  -13.6166 C   0  0  0  0  0  0  0  0  0  0  0  0
   19.3859  -23.2931  -12.9978 C   0  0  2  0  0  0  0  0  0  0  0  0
   19.4129  -24.6902  -13.3718 N   0  0  0  0  0  0  0  0  0  0  0  0
   18.0471  -22.7562  -13.4051 C   0  0  0  0  0  0  0  0  0  0  0  0
   17.5354  -22.9547  -14.5364 O   0  0  0  0  0  0  0  0  0  0  0  0
   20.8590  -20.5761  -12.1978 C   0  0  0  0  0  0  0  0  0  0  0  0
   20.8465  -19.2133  -11.9639 C   0  0  0  0  0  0  0  0  0  0  0  0
   14.4465  -23.5490  -10.3644 N   0  0  0  0  0  0  0  0  0  0  0  0
   14.5080  -22.9416  -11.6564 C   0  0  0  0  0  0  0  0  0  0  0  0
   14.1525  -23.6508  -12.6400 O   0  0  0  0  0  0  0  0  0  0  0  0
   14.9689  -21.5565  -11.7855 C   0  0  0  0  0  0  0  0  0  0  0  0
   15.9930  -21.4138  -12.9138 C   0  0  2  0  0  0  0  0  0  0  0  0
   17.2639  -21.9685  -12.4981 N   0  0  0  0  0  0  0  0  0  0  0  0
   16.1471  -19.9832  -13.2515 C   0  0  0  0  0  0  0  0  0  0  0  0
   17.2806  -19.4566  -13.1368 O   0  0  0  0  0  0  0  0  0  0  0  0
   15.0908  -19.2265  -13.6833 O   0  0  0  0  0  0  0  0  0  0  0  0
  2  1  1  1
  3  2  1  0
  4  3  1  0
  5  2  1  0
  5  6  2  0
  7  8  1  0
  8 18  2  0
  9  8  1  0
  9 10  2  0
 10 11  1  0
 11 17  2  0
 11 12  1  0
 13 12  1  6
 13 14  1  0
 14  5  1  0
 15 13  1  0
 16 15  2  0
 18 17  1  0
 20 21  2  0
 20 19  1  0
 23 22  1  1
 22 20  1  0
 23 24  1  0
 24 15  1  0
 25 23  1  0
 26 25  2  0
 27 25  1  0
M  END
$$$$
