CYN.pdb
     RDKit          3D

 27 27  0  0  1  0  0  0  0  0999 V2000
   23.7870  -11.2148  -21.2875 N   0  0  0  0  0  0  0  0  0  0  0  0
   24.5338  -10.4141  -20.2982 C   0  0  1  0  0  0  0  0  0  0  0  0
   25.2278   -9.2767  -20.9934 C   0  0  0  0  0  0  0  0  0  0  0  0
   26.6964   -9.8519  -21.8519 S   0  0  0  0  0  0  0  0  0  0  0  0
   23.5362   -9.9577  -19.2986 C   0  0  0  0  0  0  0  0  0  0  0  0
   22.4194   -9.4929  -19.7398 O   0  0  0  0  0  0  0  0  0  0  0  0
   18.5435   -8.7054  -12.1732 O   0  0  0  0  0  0  0  0  0  0  0  0
   19.5418   -9.1201  -13.0629 C   0  0  0  0  0  0  0  0  0  0  0  0
   20.8774   -9.0563  -12.7261 C   0  0  0  0  0  0  0  0  0  0  0  0
   21.8581   -9.4682  -13.6103 C   0  0  0  0  0  0  0  0  0  0  0  0
   21.5575   -9.9599  -14.8636 C   0  0  0  0  0  0  0  0  0  0  0  0
   22.5639  -10.4126  -15.8418 C   0  0  0  0  0  0  0  0  0  0  0  0
   22.7097   -9.5236  -17.0212 C   0  0  2  0  0  0  0  0  0  0  0  0
   23.7540  -10.0131  -17.8942 N   0  0  0  0  0  0  0  0  0  0  0  0
   23.0632   -8.1116  -16.6639 C   0  0  0  0  0  0  0  0  0  0  0  0
   24.2281   -7.7421  -16.3679 O   0  0  0  0  0  0  0  0  0  0  0  0
   20.2126  -10.0201  -15.1930 C   0  0  0  0  0  0  0  0  0  0  0  0
   19.2285   -9.6095  -14.3125 C   0  0  0  0  0  0  0  0  0  0  0  0
   23.0695   -3.1178  -15.8121 N   0  0  0  0  0  0  0  0  0  0  0  0
   22.3573   -3.3811  -17.0227 C   0  0  0  0  0  0  0  0  0  0  0  0
   22.1104   -2.3915  -17.7686 O   0  0  0  0  0  0  0  0  0  0  0  0
   21.9526   -4.7529  -17.3423 C   0  0  0  0  0  0  0  0  0  0  0  0
   22.4018   -5.7328  -16.2560 C   0  0  2  0  0  0  0  0  0  0  0  0
   22.0613   -7.0857  -16.6420 N   0  0  0  0  0  0  0  0  0  0  0  0
   21.7377   -5.3835  -14.9826 C   0  0  0  0  0  0  0  0  0  0  0  0
   22.4474   -5.2078  -13.9623 O   0  0  0  0  0  0  0  0  0  0  0  0
   20.3783   -5.2479  -14.8919 O   0  0  0  0  0  0  0  0  0  0  0  0
  2  1  1  6
  3  2  1  0
  4  3  1  0
  5  2  1  0
  5  6  2  0
  7  8  1  0
  8 18  2  0
  9  8  1  0
  9 10  2  0
 10 11  1  0
 11 17  2  0
 11 12  1  0
 13 12  1  1
 13 14  1  0
 14  5  1  0
 15 13  1  0
 16 15  2  0
 18 17  1  0
 20 21  2  0
 20 19  1  0
 23 22  1  6
 22 20  1  0
 23 24  1  0
 24 15  1  0
 25 23  1  0
 26 25  2  0
 27 25  1  0
M  END
$$$$
