CYN.pdb
     RDKit          3D

 27 27  0  0  1  0  0  0  0  0999 V2000
   28.6926  -20.9915  -14.9489 N   0  0  0  0  0  0  0  0  0  0  0  0
   28.0168  -19.9279  -14.1810 C   0  0  1  0  0  0  0  0  0  0  0  0
   27.5242  -18.8647  -15.1220 C   0  0  0  0  0  0  0  0  0  0  0  0
   26.8541  -17.4675  -14.2147 S   0  0  0  0  0  0  0  0  0  0  0  0
   26.9196  -20.5916  -13.4339 C   0  0  0  0  0  0  0  0  0  0  0  0
   26.3919  -21.6429  -13.9579 O   0  0  0  0  0  0  0  0  0  0  0  0
   30.5216  -20.9785   -7.8213 O   0  0  0  0  0  0  0  0  0  0  0  0
   29.2374  -20.8812   -8.3702 C   0  0  0  0  0  0  0  0  0  0  0  0
   28.2308  -20.1916   -7.7277 C   0  0  0  0  0  0  0  0  0  0  0  0
   26.9644  -20.0996   -8.2763 C   0  0  0  0  0  0  0  0  0  0  0  0
   26.6421  -20.6859   -9.4826 C   0  0  0  0  0  0  0  0  0  0  0  0
   25.3096  -20.6166  -10.1105 C   0  0  0  0  0  0  0  0  0  0  0  0
   25.3173  -20.8241  -11.5799 C   0  0  2  0  0  0  0  0  0  0  0  0
   26.4335  -20.1271  -12.1806 N   0  0  0  0  0  0  0  0  0  0  0  0
   24.0757  -20.3302  -12.2588 C   0  0  0  0  0  0  0  0  0  0  0  0
   24.0826  -19.4728  -13.1786 O   0  0  0  0  0  0  0  0  0  0  0  0
   27.6602  -21.3768  -10.1207 C   0  0  0  0  0  0  0  0  0  0  0  0
   28.9278  -21.4717   -9.5762 C   0  0  0  0  0  0  0  0  0  0  0  0
   19.8850  -21.6003  -14.7895 N   0  0  0  0  0  0  0  0  0  0  0  0
   21.1377  -22.2782  -14.9048 C   0  0  0  0  0  0  0  0  0  0  0  0
   21.2825  -23.0489  -15.8956 O   0  0  0  0  0  0  0  0  0  0  0  0
   22.1772  -22.0578  -13.8955 C   0  0  0  0  0  0  0  0  0  0  0  0
   21.7453  -21.0042  -12.8731 C   0  0  2  0  0  0  0  0  0  0  0  0
   22.7842  -20.8260  -11.8809 N   0  0  0  0  0  0  0  0  0  0  0  0
   20.4912  -21.4421  -12.2251 C   0  0  0  0  0  0  0  0  0  0  0  0
   20.5307  -22.4162  -11.4346 O   0  0  0  0  0  0  0  0  0  0  0  0
   19.2983  -20.8144  -12.4651 O   0  0  0  0  0  0  0  0  0  0  0  0
  2  1  1  6
  3  2  1  0
  4  3  1  0
  5  2  1  0
  5  6  2  0
  7  8  1  0
  8 18  2  0
  9  8  1  0
  9 10  2  0
 10 11  1  0
 11 17  2  0
 11 12  1  0
 13 12  1  1
 13 14  1  0
 14  5  1  0
 15 13  1  0
 16 15  2  0
 18 17  1  0
 20 21  2  0
 20 19  1  0
 23 22  1  6
 22 20  1  0
 23 24  1  0
 24 15  1  0
 25 23  1  0
 26 25  2  0
 27 25  1  0
M  END
$$$$
