CYN.pdb
     RDKit          3D

 27 27  0  0  1  0  0  0  0  0999 V2000
   30.6422  -13.6358  -19.5564 N   0  0  0  0  0  0  0  0  0  0  0  0
   31.7602  -12.6806  -19.4327 C   0  0  1  0  0  0  0  0  0  0  0  0
   32.6815  -12.8304  -20.6105 C   0  0  0  0  0  0  0  0  0  0  0  0
   33.5676  -14.3905  -20.5355 S   0  0  0  0  0  0  0  0  0  0  0  0
   31.1444  -11.3329  -19.3487 C   0  0  0  0  0  0  0  0  0  0  0  0
   30.0223  -11.1510  -19.9536 O   0  0  0  0  0  0  0  0  0  0  0  0
   35.3654   -6.4865  -14.5256 O   0  0  0  0  0  0  0  0  0  0  0  0
   34.2424   -7.0314  -15.1596 C   0  0  0  0  0  0  0  0  0  0  0  0
   34.0402   -8.3941  -15.2187 C   0  0  0  0  0  0  0  0  0  0  0  0
   32.9280   -8.9251  -15.8467 C   0  0  0  0  0  0  0  0  0  0  0  0
   31.9707   -8.1299  -16.4417 C   0  0  0  0  0  0  0  0  0  0  0  0
   30.7681   -8.6452  -17.1219 C   0  0  0  0  0  0  0  0  0  0  0  0
   30.9830   -9.0124  -18.5437 C   0  0  2  0  0  0  0  0  0  0  0  0
   31.7282  -10.2488  -18.6369 N   0  0  0  0  0  0  0  0  0  0  0  0
   31.7469   -7.9809  -19.3175 C   0  0  0  0  0  0  0  0  0  0  0  0
   32.9995   -7.9842  -19.4283 O   0  0  0  0  0  0  0  0  0  0  0  0
   32.1828   -6.7617  -16.3772 C   0  0  0  0  0  0  0  0  0  0  0  0
   33.2930   -6.2260  -15.7506 C   0  0  0  0  0  0  0  0  0  0  0  0
   29.8282   -6.6594  -22.4941 N   0  0  0  0  0  0  0  0  0  0  0  0
   31.1900   -7.0285  -22.7206 C   0  0  0  0  0  0  0  0  0  0  0  0
   31.3992   -7.9778  -23.5280 O   0  0  0  0  0  0  0  0  0  0  0  0
   32.2615   -6.3098  -22.0257 C   0  0  0  0  0  0  0  0  0  0  0  0
   31.8145   -5.8542  -20.6347 C   0  0  2  0  0  0  0  0  0  0  0  0
   31.0664   -6.9110  -19.9873 N   0  0  0  0  0  0  0  0  0  0  0  0
   30.9769   -4.6436  -20.7663 C   0  0  0  0  0  0  0  0  0  0  0  0
   31.4744   -3.6231  -21.3015 O   0  0  0  0  0  0  0  0  0  0  0  0
   29.6822   -4.6108  -20.3223 O   0  0  0  0  0  0  0  0  0  0  0  0
  2  1  1  6
  3  2  1  0
  4  3  1  0
  5  2  1  0
  5  6  2  0
  7  8  1  0
  8 18  2  0
  9  8  1  0
  9 10  2  0
 10 11  1  0
 11 17  2  0
 11 12  1  0
 13 12  1  1
 13 14  1  0
 14  5  1  0
 15 13  1  0
 16 15  2  0
 18 17  1  0
 20 21  2  0
 20 19  1  0
 23 22  1  6
 22 20  1  0
 23 24  1  0
 24 15  1  0
 25 23  1  0
 26 25  2  0
 27 25  1  0
M  END
$$$$
