CYN.pdb
     RDKit          3D

 27 27  0  0  1  0  0  0  0  0999 V2000
   34.4997  -28.8379  -19.3407 N   0  0  0  0  0  0  0  0  0  0  0  0
   34.0399  -29.9582  -18.4972 C   0  0  1  0  0  0  0  0  0  0  0  0
   34.0627  -29.5420  -17.0534 C   0  0  0  0  0  0  0  0  0  0  0  0
   33.3514  -30.8175  -16.0085 S   0  0  0  0  0  0  0  0  0  0  0  0
   32.6791  -30.3049  -18.9772 C   0  0  0  0  0  0  0  0  0  0  0  0
   31.9199  -29.3402  -19.3660 O   0  0  0  0  0  0  0  0  0  0  0  0
   32.2068  -29.9928  -25.4389 O   0  0  0  0  0  0  0  0  0  0  0  0
   31.8268  -30.6464  -24.2605 C   0  0  0  0  0  0  0  0  0  0  0  0
   30.5259  -30.6096  -23.8048 C   0  0  0  0  0  0  0  0  0  0  0  0
   30.1579  -31.2581  -22.6398 C   0  0  0  0  0  0  0  0  0  0  0  0
   31.0618  -31.9694  -21.8782 C   0  0  0  0  0  0  0  0  0  0  0  0
   30.7209  -32.6784  -20.6309 C   0  0  0  0  0  0  0  0  0  0  0  0
   30.8026  -31.8377  -19.4107 C   0  0  2  0  0  0  0  0  0  0  0  0
   32.1835  -31.6369  -19.0295 N   0  0  0  0  0  0  0  0  0  0  0  0
   30.1035  -32.4345  -18.2270 C   0  0  0  0  0  0  0  0  0  0  0  0
   30.6416  -32.5674  -17.0983 O   0  0  0  0  0  0  0  0  0  0  0  0
   32.3667  -32.0005  -22.3442 C   0  0  0  0  0  0  0  0  0  0  0  0
   32.7395  -31.3538  -23.5082 C   0  0  0  0  0  0  0  0  0  0  0  0
   26.9239  -34.2714  -14.8257 N   0  0  0  0  0  0  0  0  0  0  0  0
   27.4331  -32.9361  -14.8344 C   0  0  0  0  0  0  0  0  0  0  0  0
   27.3815  -32.2967  -13.7457 O   0  0  0  0  0  0  0  0  0  0  0  0
   27.9806  -32.3767  -16.0733 C   0  0  0  0  0  0  0  0  0  0  0  0
   28.0685  -33.4386  -17.1718 C   0  0  2  0  0  0  0  0  0  0  0  0
   28.7493  -32.8955  -18.3281 N   0  0  0  0  0  0  0  0  0  0  0  0
   26.7038  -33.8704  -17.5398 C   0  0  0  0  0  0  0  0  0  0  0  0
   25.7258  -33.2417  -17.0669 O   0  0  0  0  0  0  0  0  0  0  0  0
   26.4844  -34.9307  -18.3779 O   0  0  0  0  0  0  0  0  0  0  0  0
  2  1  1  6
  3  2  1  0
  4  3  1  0
  5  2  1  0
  5  6  2  0
  7  8  1  0
  8 18  2  0
  9  8  1  0
  9 10  2  0
 10 11  1  0
 11 17  2  0
 11 12  1  0
 13 12  1  6
 13 14  1  0
 14  5  1  0
 15 13  1  0
 16 15  2  0
 18 17  1  0
 20 21  2  0
 20 19  1  0
 23 22  1  1
 22 20  1  0
 23 24  1  0
 24 15  1  0
 25 23  1  0
 26 25  2  0
 27 25  1  0
M  END
$$$$
