WWF.pdb
     RDKit          3D

 40 44  0  0  1  0  0  0  0  0999 V2000
   25.9727  -23.5660  -21.3177 N   0  0  0  0  0  0  0  0  0  0  0  0
   25.5453  -22.2930  -20.7753 C   0  0  1  0  0  0  0  0  0  0  0  0
   24.1162  -21.9546  -21.1094 C   0  0  0  0  0  0  0  0  0  0  0  0
   24.0893  -21.2692  -22.4320 C   0  0  0  0  0  0  0  0  0  0  0  0
   23.6858  -21.8155  -23.6428 C   0  0  0  0  0  0  0  0  0  0  0  0
   23.8033  -20.8863  -24.6031 N   0  0  0  0  0  0  0  0  0  0  0  0
   24.2763  -19.7170  -24.0837 C   0  0  0  0  0  0  0  0  0  0  0  0
   24.5639  -18.4937  -24.6432 C   0  0  0  0  0  0  0  0  0  0  0  0
   25.0386  -17.4809  -23.8482 C   0  0  0  0  0  0  0  0  0  0  0  0
   25.2090  -17.7428  -22.4955 C   0  0  0  0  0  0  0  0  0  0  0  0
   24.9277  -18.9552  -21.9223 C   0  0  0  0  0  0  0  0  0  0  0  0
   24.4488  -19.9722  -22.7326 C   0  0  0  0  0  0  0  0  0  0  0  0
   25.7020  -22.3738  -19.2791 C   0  0  0  0  0  0  0  0  0  0  0  0
   25.4656  -23.4569  -18.6531 O   0  0  0  0  0  0  0  0  0  0  0  0
   26.1186  -21.2420  -18.5301 N   0  0  0  0  0  0  0  0  0  0  0  0
   26.2995  -21.2734  -17.0734 C   0  0  1  0  0  0  0  0  0  0  0  0
   27.4227  -20.3612  -16.7497 C   0  0  0  0  0  0  0  0  0  0  0  0
   27.6438  -20.0299  -15.3531 C   0  0  0  0  0  0  0  0  0  0  0  0
   28.2105  -20.8051  -14.3809 C   0  0  0  0  0  0  0  0  0  0  0  0
   28.2057  -20.1279  -13.2224 N   0  0  0  0  0  0  0  0  0  0  0  0
   27.6447  -18.9138  -13.4079 C   0  0  0  0  0  0  0  0  0  0  0  0
   27.3838  -17.8327  -12.6013 C   0  0  0  0  0  0  0  0  0  0  0  0
   26.7864  -16.6847  -13.0577 C   0  0  0  0  0  0  0  0  0  0  0  0
   26.4278  -16.6036  -14.3875 C   0  0  0  0  0  0  0  0  0  0  0  0
   26.6813  -17.6781  -15.2106 C   0  0  0  0  0  0  0  0  0  0  0  0
   27.2876  -18.8408  -14.7435 C   0  0  0  0  0  0  0  0  0  0  0  0
   25.0321  -21.0554  -16.3817 C   0  0  0  0  0  0  0  0  0  0  0  0
   24.1521  -20.3018  -16.9328 O   0  0  0  0  0  0  0  0  0  0  0  0
   24.6400  -21.5925  -15.1374 N   0  0  0  0  0  0  0  0  0  0  0  0
   23.3728  -21.2651  -14.4866 C   0  0  1  0  0  0  0  0  0  0  0  0
   23.3198  -21.8115  -13.0959 C   0  0  0  0  0  0  0  0  0  0  0  0
   24.3947  -21.2907  -12.2316 C   0  0  0  0  0  0  0  0  0  0  0  0
   25.6558  -21.8374  -12.1329 C   0  0  0  0  0  0  0  0  0  0  0  0
   26.6412  -21.3187  -11.3118 C   0  0  0  0  0  0  0  0  0  0  0  0
   26.3808  -20.2046  -10.5444 C   0  0  0  0  0  0  0  0  0  0  0  0
   25.1170  -19.6344  -10.6257 C   0  0  0  0  0  0  0  0  0  0  0  0
   24.1552  -20.1738  -11.4534 C   0  0  0  0  0  0  0  0  0  0  0  0
   23.0889  -19.8309  -14.5169 C   0  0  0  0  0  0  0  0  0  0  0  0
   23.9578  -18.8605  -14.9350 O   0  0  0  0  0  0  0  0  0  0  0  0
   21.9333  -19.4579  -14.1165 O   0  0  0  0  0  0  0  0  0  0  0  0
  2  3  1  0
  2  1  1  6
  4  3  1  0
  4  5  2  0
  6  5  1  0
  7  6  1  0
  8  7  2  0
  9  8  1  0
 10  9  2  0
 10 11  1  0
 11 12  2  0
 12  7  1  0
 12  4  1  0
 13  2  1  0
 14 13  2  0
 15 13  1  0
 16 27  1  0
 16 15  1  0
 16 17  1  1
 18 17  1  0
 18 26  1  0
 19 20  1  0
 19 18  2  0
 20 21  1  0
 21 26  2  0
 21 22  1  0
 22 23  2  0
 23 24  1  0
 25 24  2  0
 26 25  1  0
 27 28  2  0
 29 27  1  0
 30 29  1  0
 30 31  1  1
 32 31  1  0
 33 32  2  0
 34 33  1  0
 35 34  2  0
 35 36  1  0
 36 37  2  0
 37 32  1  0
 38 30  1  0
 39 38  1  0
 40 38  2  0
M  END
$$$$
