WWF.pdb
     RDKit          3D

 40 44  0  0  1  0  0  0  0  0999 V2000
   27.7931  -22.4954  -13.7404 N   0  0  0  0  0  0  0  0  0  0  0  0
   28.3394  -21.3201  -13.0941 C   0  0  1  0  0  0  0  0  0  0  0  0
   29.3807  -20.6159  -13.9237 C   0  0  0  0  0  0  0  0  0  0  0  0
   30.5419  -21.5322  -14.1025 C   0  0  0  0  0  0  0  0  0  0  0  0
   30.9468  -22.1394  -15.2835 C   0  0  0  0  0  0  0  0  0  0  0  0
   32.0330  -22.8883  -15.0406 N   0  0  0  0  0  0  0  0  0  0  0  0
   32.3842  -22.8110  -13.7248 C   0  0  0  0  0  0  0  0  0  0  0  0
   33.3998  -23.3812  -12.9928 C   0  0  0  0  0  0  0  0  0  0  0  0
   33.5012  -23.1107  -11.6513 C   0  0  0  0  0  0  0  0  0  0  0  0
   32.5592  -22.2610  -11.0872 C   0  0  0  0  0  0  0  0  0  0  0  0
   31.5417  -21.6851  -11.8016 C   0  0  0  0  0  0  0  0  0  0  0  0
   31.4469  -21.9638  -13.1557 C   0  0  0  0  0  0  0  0  0  0  0  0
   27.1895  -20.3818  -12.8355 C   0  0  0  0  0  0  0  0  0  0  0  0
   27.3860  -19.1350  -12.6688 O   0  0  0  0  0  0  0  0  0  0  0  0
   25.8565  -20.8663  -12.7720 N   0  0  0  0  0  0  0  0  0  0  0  0
   24.8309  -20.2658  -11.9098 C   0  0  1  0  0  0  0  0  0  0  0  0
   23.6046  -20.1092  -12.7285 C   0  0  0  0  0  0  0  0  0  0  0  0
   23.7457  -19.5341  -14.0546 C   0  0  0  0  0  0  0  0  0  0  0  0
   24.0683  -20.1697  -15.2205 C   0  0  0  0  0  0  0  0  0  0  0  0
   24.1133  -19.2677  -16.2131 N   0  0  0  0  0  0  0  0  0  0  0  0
   23.8257  -18.0415  -15.7264 C   0  0  0  0  0  0  0  0  0  0  0  0
   23.7266  -16.7824  -16.2671 C   0  0  0  0  0  0  0  0  0  0  0  0
   23.4077  -15.6722  -15.5262 C   0  0  0  0  0  0  0  0  0  0  0  0
   23.1736  -15.8181  -14.1744 C   0  0  0  0  0  0  0  0  0  0  0  0
   23.2689  -17.0730  -13.6153 C   0  0  0  0  0  0  0  0  0  0  0  0
   23.5928  -18.1966  -14.3705 C   0  0  0  0  0  0  0  0  0  0  0  0
   24.7126  -20.9930  -10.6491 C   0  0  0  0  0  0  0  0  0  0  0  0
   23.9497  -22.0236  -10.6026 O   0  0  0  0  0  0  0  0  0  0  0  0
   25.3590  -20.6930   -9.4315 N   0  0  0  0  0  0  0  0  0  0  0  0
   25.2071  -21.5013   -8.2230 C   0  0  1  0  0  0  0  0  0  0  0  0
   26.4983  -21.6109   -7.4775 C   0  0  0  0  0  0  0  0  0  0  0  0
   26.7931  -20.4207   -6.6589 C   0  0  0  0  0  0  0  0  0  0  0  0
   27.0726  -19.1700   -7.1656 C   0  0  0  0  0  0  0  0  0  0  0  0
   27.3420  -18.0742   -6.3651 C   0  0  0  0  0  0  0  0  0  0  0  0
   27.3386  -18.2069   -4.9938 C   0  0  0  0  0  0  0  0  0  0  0  0
   27.0598  -19.4575   -4.4578 C   0  0  0  0  0  0  0  0  0  0  0  0
   26.7948  -20.5312   -5.2812 C   0  0  0  0  0  0  0  0  0  0  0  0
   24.1253  -21.0180   -7.3658 C   0  0  0  0  0  0  0  0  0  0  0  0
   23.6555  -21.6540   -6.2494 O   0  0  0  0  0  0  0  0  0  0  0  0
   23.5748  -19.9111   -7.6920 O   0  0  0  0  0  0  0  0  0  0  0  0
  2  3  1  0
  2  1  1  6
  4  3  1  0
  4  5  2  0
  6  5  1  0
  7  6  1  0
  8  7  2  0
  9  8  1  0
 10  9  2  0
 10 11  1  0
 11 12  2  0
 12  7  1  0
 12  4  1  0
 13  2  1  0
 14 13  2  0
 15 13  1  0
 16 27  1  0
 16 15  1  0
 16 17  1  6
 18 17  1  0
 18 26  1  0
 19 20  1  0
 19 18  2  0
 20 21  1  0
 21 26  2  0
 21 22  1  0
 22 23  2  0
 23 24  1  0
 25 24  2  0
 26 25  1  0
 27 28  2  0
 29 27  1  0
 30 29  1  0
 30 31  1  1
 32 31  1  0
 33 32  2  0
 34 33  1  0
 35 34  2  0
 35 36  1  0
 36 37  2  0
 37 32  1  0
 38 30  1  0
 39 38  1  0
 40 38  2  0
M  END
$$$$
