WWF.pdb
     RDKit          3D

 40 44  0  0  1  0  0  0  0  0999 V2000
   28.7889  -22.8275  -17.4326 N   0  0  0  0  0  0  0  0  0  0  0  0
   27.8600  -21.7612  -17.1202 C   0  0  1  0  0  0  0  0  0  0  0  0
   26.7092  -21.6735  -18.0877 C   0  0  0  0  0  0  0  0  0  0  0  0
   27.0179  -20.6205  -19.0956 C   0  0  0  0  0  0  0  0  0  0  0  0
   27.8471  -20.7470  -20.2019 C   0  0  0  0  0  0  0  0  0  0  0  0
   27.8692  -19.5827  -20.8678 N   0  0  0  0  0  0  0  0  0  0  0  0
   27.0774  -18.6609  -20.2483 C   0  0  0  0  0  0  0  0  0  0  0  0
   26.7723  -17.3495  -20.5303 C   0  0  0  0  0  0  0  0  0  0  0  0
   25.9226  -16.6595  -19.7025 C   0  0  0  0  0  0  0  0  0  0  0  0
   25.4030  -17.3279  -18.6022 C   0  0  0  0  0  0  0  0  0  0  0  0
   25.6966  -18.6333  -18.3068 C   0  0  0  0  0  0  0  0  0  0  0  0
   26.5554  -19.3224  -19.1481 C   0  0  0  0  0  0  0  0  0  0  0  0
   27.3287  -22.0279  -15.7359 C   0  0  0  0  0  0  0  0  0  0  0  0
   26.9759  -23.1995  -15.3840 O   0  0  0  0  0  0  0  0  0  0  0  0
   27.2089  -20.9771  -14.7887 N   0  0  0  0  0  0  0  0  0  0  0  0
   26.6847  -21.1828  -13.4328 C   0  0  1  0  0  0  0  0  0  0  0  0
   27.4619  -20.3072  -12.5230 C   0  0  0  0  0  0  0  0  0  0  0  0
   27.0480  -20.2395  -11.1325 C   0  0  0  0  0  0  0  0  0  0  0  0
   25.8560  -19.8028  -10.6267 C   0  0  0  0  0  0  0  0  0  0  0  0
   25.8911  -19.8870   -9.2879 N   0  0  0  0  0  0  0  0  0  0  0  0
   27.0878  -20.3729   -8.8943 C   0  0  0  0  0  0  0  0  0  0  0  0
   27.6654  -20.6627   -7.6819 C   0  0  0  0  0  0  0  0  0  0  0  0
   28.9365  -21.1650   -7.5589 C   0  0  0  0  0  0  0  0  0  0  0  0
   29.6762  -21.3930   -8.7010 C   0  0  0  0  0  0  0  0  0  0  0  0
   29.1133  -21.1078   -9.9250 C   0  0  0  0  0  0  0  0  0  0  0  0
   27.8234  -20.5983  -10.0453 C   0  0  0  0  0  0  0  0  0  0  0  0
   25.2298  -21.0606  -13.4077 C   0  0  0  0  0  0  0  0  0  0  0  0
   24.6851  -20.0707  -14.0156 O   0  0  0  0  0  0  0  0  0  0  0  0
   24.3150  -21.9296  -12.7765 N   0  0  0  0  0  0  0  0  0  0  0  0
   22.8715  -21.6999  -12.7608 C   0  0  1  0  0  0  0  0  0  0  0  0
   22.1174  -22.9895  -12.7026 C   0  0  0  0  0  0  0  0  0  0  0  0
   20.6644  -22.7997  -12.5405 C   0  0  0  0  0  0  0  0  0  0  0  0
   19.7818  -22.5799  -13.5758 C   0  0  0  0  0  0  0  0  0  0  0  0
   18.4222  -22.4090  -13.3852 C   0  0  0  0  0  0  0  0  0  0  0  0
   17.8950  -22.4548  -12.1133 C   0  0  0  0  0  0  0  0  0  0  0  0
   18.7635  -22.6750  -11.0521 C   0  0  0  0  0  0  0  0  0  0  0  0
   20.1142  -22.8421  -11.2732 C   0  0  0  0  0  0  0  0  0  0  0  0
   22.4676  -20.7867  -11.6924 C   0  0  0  0  0  0  0  0  0  0  0  0
   21.5046  -19.8209  -11.7982 O   0  0  0  0  0  0  0  0  0  0  0  0
   23.0683  -20.9028  -10.5697 O   0  0  0  0  0  0  0  0  0  0  0  0
  2  3  1  0
  2  1  1  6
  4  3  1  0
  4  5  2  0
  6  5  1  0
  7  6  1  0
  8  7  2  0
  9  8  1  0
 10  9  2  0
 10 11  1  0
 11 12  2  0
 12  7  1  0
 12  4  1  0
 13  2  1  0
 14 13  2  0
 15 13  1  0
 16 27  1  0
 16 15  1  0
 16 17  1  1
 18 17  1  0
 18 26  1  0
 19 20  1  0
 19 18  2  0
 20 21  1  0
 21 26  2  0
 21 22  1  0
 22 23  2  0
 23 24  1  0
 25 24  2  0
 26 25  1  0
 27 28  2  0
 29 27  1  0
 30 29  1  0
 30 31  1  1
 32 31  1  0
 33 32  2  0
 34 33  1  0
 35 34  2  0
 35 36  1  0
 36 37  2  0
 37 32  1  0
 38 30  1  0
 39 38  1  0
 40 38  2  0
M  END
$$$$
