WWF.pdb
     RDKit          3D

 40 44  0  0  1  0  0  0  0  0999 V2000
   23.3085  -20.9598  -15.0776 N   0  0  0  0  0  0  0  0  0  0  0  0
   23.3586  -20.1125  -13.9041 C   0  0  1  0  0  0  0  0  0  0  0  0
   22.0050  -19.8648  -13.2921 C   0  0  0  0  0  0  0  0  0  0  0  0
   21.2195  -18.9991  -14.2160 C   0  0  0  0  0  0  0  0  0  0  0  0
   19.9297  -19.2296  -14.6752 C   0  0  0  0  0  0  0  0  0  0  0  0
   19.5678  -18.2245  -15.4865 N   0  0  0  0  0  0  0  0  0  0  0  0
   20.5744  -17.3105  -15.5962 C   0  0  0  0  0  0  0  0  0  0  0  0
   20.6945  -16.1305  -16.2928 C   0  0  0  0  0  0  0  0  0  0  0  0
   21.8585  -15.4089  -16.2059 C   0  0  0  0  0  0  0  0  0  0  0  0
   22.8761  -15.9118  -15.4065 C   0  0  0  0  0  0  0  0  0  0  0  0
   22.7731  -17.0852  -14.7064 C   0  0  0  0  0  0  0  0  0  0  0  0
   21.5941  -17.8073  -14.8000 C   0  0  0  0  0  0  0  0  0  0  0  0
   24.2426  -20.8015  -12.8974 C   0  0  0  0  0  0  0  0  0  0  0  0
   24.2558  -22.0707  -12.7971 O   0  0  0  0  0  0  0  0  0  0  0  0
   25.0843  -20.0507  -12.0353 N   0  0  0  0  0  0  0  0  0  0  0  0
   25.9025  -20.6684  -10.9843 C   0  0  1  0  0  0  0  0  0  0  0  0
   27.1217  -19.8385  -10.8310 C   0  0  0  0  0  0  0  0  0  0  0  0
   28.2178  -20.3849  -10.0505 C   0  0  0  0  0  0  0  0  0  0  0  0
   29.1385  -21.3215  -10.4282 C   0  0  0  0  0  0  0  0  0  0  0  0
   29.9672  -21.5606   -9.4000 N   0  0  0  0  0  0  0  0  0  0  0  0
   29.6127  -20.7978   -8.3438 C   0  0  0  0  0  0  0  0  0  0  0  0
   30.0887  -20.6297   -7.0660 C   0  0  0  0  0  0  0  0  0  0  0  0
   29.5264  -19.7599   -6.1658 C   0  0  0  0  0  0  0  0  0  0  0  0
   28.4317  -19.0150   -6.5536 C   0  0  0  0  0  0  0  0  0  0  0  0
   27.9409  -19.1709   -7.8308 C   0  0  0  0  0  0  0  0  0  0  0  0
   28.5144  -20.0545   -8.7409 C   0  0  0  0  0  0  0  0  0  0  0  0
   25.1093  -20.9305   -9.7866 C   0  0  0  0  0  0  0  0  0  0  0  0
   24.0448  -20.2415   -9.5908 O   0  0  0  0  0  0  0  0  0  0  0  0
   25.3772  -21.8843   -8.7822 N   0  0  0  0  0  0  0  0  0  0  0  0
   24.5879  -22.0018   -7.5575 C   0  0  1  0  0  0  0  0  0  0  0  0
   25.3507  -22.7129   -6.4863 C   0  0  0  0  0  0  0  0  0  0  0  0
   26.1755  -21.8054   -5.6679 C   0  0  0  0  0  0  0  0  0  0  0  0
   25.6882  -20.9858   -4.6729 C   0  0  0  0  0  0  0  0  0  0  0  0
   26.4943  -20.1483   -3.9226 C   0  0  0  0  0  0  0  0  0  0  0  0
   27.8513  -20.1086   -4.1568 C   0  0  0  0  0  0  0  0  0  0  0  0
   28.3676  -20.9251   -5.1546 C   0  0  0  0  0  0  0  0  0  0  0  0
   27.5392  -21.7497   -5.8859 C   0  0  0  0  0  0  0  0  0  0  0  0
   24.0842  -20.7084   -7.0970 C   0  0  0  0  0  0  0  0  0  0  0  0
   24.5799  -19.4883   -7.4673 O   0  0  0  0  0  0  0  0  0  0  0  0
   23.1013  -20.7244   -6.2794 O   0  0  0  0  0  0  0  0  0  0  0  0
  2  3  1  0
  2  1  1  6
  4  3  1  0
  4  5  2  0
  6  5  1  0
  7  6  1  0
  8  7  2  0
  9  8  1  0
 10  9  2  0
 10 11  1  0
 11 12  2  0
 12  7  1  0
 12  4  1  0
 13  2  1  0
 14 13  2  0
 15 13  1  0
 16 27  1  0
 16 15  1  0
 16 17  1  1
 18 17  1  0
 18 26  1  0
 19 20  1  0
 19 18  2  0
 20 21  1  0
 21 26  2  0
 21 22  1  0
 22 23  2  0
 23 24  1  0
 25 24  2  0
 26 25  1  0
 27 28  2  0
 29 27  1  0
 30 29  1  0
 30 31  1  1
 32 31  1  0
 33 32  2  0
 34 33  1  0
 35 34  2  0
 35 36  1  0
 36 37  2  0
 37 32  1  0
 38 30  1  0
 39 38  1  0
 40 38  2  0
M  END
$$$$
