WWF.pdb
     RDKit          3D

 40 44  0  0  1  0  0  0  0  0999 V2000
   28.7377  -24.1076  -18.3291 N   0  0  0  0  0  0  0  0  0  0  0  0
   27.7309  -24.5130  -17.3702 C   0  0  1  0  0  0  0  0  0  0  0  0
   28.2490  -25.4790  -16.3374 C   0  0  0  0  0  0  0  0  0  0  0  0
   28.4417  -26.8064  -16.9860 C   0  0  0  0  0  0  0  0  0  0  0  0
   29.6460  -27.4694  -17.1797 C   0  0  0  0  0  0  0  0  0  0  0  0
   29.4086  -28.6372  -17.7958 N   0  0  0  0  0  0  0  0  0  0  0  0
   28.0739  -28.7933  -18.0298 C   0  0  0  0  0  0  0  0  0  0  0  0
   27.3388  -29.7948  -18.6204 C   0  0  0  0  0  0  0  0  0  0  0  0
   25.9756  -29.6677  -18.7151 C   0  0  0  0  0  0  0  0  0  0  0  0
   25.3937  -28.5162  -18.2024 C   0  0  0  0  0  0  0  0  0  0  0  0
   26.1110  -27.5093  -17.6114 C   0  0  0  0  0  0  0  0  0  0  0  0
   27.4870  -27.6461  -17.5201 C   0  0  0  0  0  0  0  0  0  0  0  0
   27.2436  -23.2633  -16.6842 C   0  0  0  0  0  0  0  0  0  0  0  0
   28.0634  -22.3852  -16.2626 O   0  0  0  0  0  0  0  0  0  0  0  0
   25.8558  -23.0343  -16.4917 N   0  0  0  0  0  0  0  0  0  0  0  0
   25.3329  -21.8565  -15.7880 C   0  0  1  0  0  0  0  0  0  0  0  0
   24.3133  -21.2353  -16.6672 C   0  0  0  0  0  0  0  0  0  0  0  0
   23.5915  -20.0831  -16.1564 C   0  0  0  0  0  0  0  0  0  0  0  0
   24.0032  -18.7809  -16.1115 C   0  0  0  0  0  0  0  0  0  0  0  0
   23.0414  -18.0368  -15.5438 N   0  0  0  0  0  0  0  0  0  0  0  0
   21.9959  -18.8232  -15.2100 C   0  0  0  0  0  0  0  0  0  0  0  0
   20.7732  -18.6120  -14.6202 C   0  0  0  0  0  0  0  0  0  0  0  0
   19.8686  -19.6181  -14.3908 C   0  0  0  0  0  0  0  0  0  0  0  0
   20.1937  -20.9050  -14.7673 C   0  0  0  0  0  0  0  0  0  0  0  0
   21.4154  -21.1353  -15.3595 C   0  0  0  0  0  0  0  0  0  0  0  0
   22.3302  -20.1117  -15.5903 C   0  0  0  0  0  0  0  0  0  0  0  0
   24.9334  -22.1935  -14.4245 C   0  0  0  0  0  0  0  0  0  0  0  0
   24.4002  -23.3397  -14.2051 O   0  0  0  0  0  0  0  0  0  0  0  0
   25.0683  -21.3859  -13.2756 N   0  0  0  0  0  0  0  0  0  0  0  0
   24.6123  -21.7969  -11.9489 C   0  0  1  0  0  0  0  0  0  0  0  0
   25.7422  -21.8211  -10.9702 C   0  0  0  0  0  0  0  0  0  0  0  0
   25.7784  -20.6292  -10.1033 C   0  0  0  0  0  0  0  0  0  0  0  0
   26.3735  -19.4326  -10.4397 C   0  0  0  0  0  0  0  0  0  0  0  0
   26.3850  -18.3330   -9.6001 C   0  0  0  0  0  0  0  0  0  0  0  0
   25.7825  -18.4057   -8.3634 C   0  0  0  0  0  0  0  0  0  0  0  0
   25.1755  -19.6010   -8.0001 C   0  0  0  0  0  0  0  0  0  0  0  0
   25.1799  -20.6800   -8.8584 C   0  0  0  0  0  0  0  0  0  0  0  0
   23.4969  -20.9817  -11.4695 C   0  0  0  0  0  0  0  0  0  0  0  0
   23.1854  -19.7260  -11.9142 O   0  0  0  0  0  0  0  0  0  0  0  0
   22.7564  -21.4873  -10.5580 O   0  0  0  0  0  0  0  0  0  0  0  0
  2  3  1  0
  2  1  1  6
  4  3  1  0
  4  5  2  0
  6  5  1  0
  7  6  1  0
  8  7  2  0
  9  8  1  0
 10  9  2  0
 10 11  1  0
 11 12  2  0
 12  7  1  0
 12  4  1  0
 13  2  1  0
 14 13  2  0
 15 13  1  0
 16 27  1  0
 16 15  1  0
 16 17  1  6
 18 17  1  0
 18 26  1  0
 19 20  1  0
 19 18  2  0
 20 21  1  0
 21 26  2  0
 21 22  1  0
 22 23  2  0
 23 24  1  0
 25 24  2  0
 26 25  1  0
 27 28  2  0
 29 27  1  0
 30 29  1  0
 30 31  1  1
 32 31  1  0
 33 32  2  0
 34 33  1  0
 35 34  2  0
 35 36  1  0
 36 37  2  0
 37 32  1  0
 38 30  1  0
 39 38  1  0
 40 38  2  0
M  END
$$$$
