WWF.pdb
     RDKit          3D

 40 44  0  0  1  0  0  0  0  0999 V2000
   28.6293  -20.9353  -12.3095 N   0  0  0  0  0  0  0  0  0  0  0  0
   27.4045  -20.1857  -12.1214 C   0  0  1  0  0  0  0  0  0  0  0  0
   26.4623  -20.2838  -13.2922 C   0  0  0  0  0  0  0  0  0  0  0  0
   27.1003  -19.6295  -14.4689 C   0  0  0  0  0  0  0  0  0  0  0  0
   27.8188  -20.2547  -15.4790 C   0  0  0  0  0  0  0  0  0  0  0  0
   28.2311  -19.3305  -16.3594 N   0  0  0  0  0  0  0  0  0  0  0  0
   27.8146  -18.0880  -15.9808 C   0  0  0  0  0  0  0  0  0  0  0  0
   27.9760  -16.8387  -16.5334 C   0  0  0  0  0  0  0  0  0  0  0  0
   27.4284  -15.7464  -15.9085 C   0  0  0  0  0  0  0  0  0  0  0  0
   26.7264  -15.9572  -14.7295 C   0  0  0  0  0  0  0  0  0  0  0  0
   26.5564  -17.1944  -14.1656 C   0  0  0  0  0  0  0  0  0  0  0  0
   27.1127  -18.2916  -14.8034 C   0  0  0  0  0  0  0  0  0  0  0  0
   26.7315  -20.7377  -10.8918 C   0  0  0  0  0  0  0  0  0  0  0  0
   26.8681  -21.9600  -10.5630 O   0  0  0  0  0  0  0  0  0  0  0  0
   25.9276  -19.9062  -10.0683 N   0  0  0  0  0  0  0  0  0  0  0  0
   25.2008  -20.4096   -8.8962 C   0  0  1  0  0  0  0  0  0  0  0  0
   25.5104  -19.5036   -7.7640 C   0  0  0  0  0  0  0  0  0  0  0  0
   26.8807  -19.4644   -7.2846 C   0  0  0  0  0  0  0  0  0  0  0  0
   27.9246  -18.7286   -7.7709 C   0  0  0  0  0  0  0  0  0  0  0  0
   29.0248  -19.0013   -7.0525 N   0  0  0  0  0  0  0  0  0  0  0  0
   28.7299  -19.9070   -6.0955 C   0  0  0  0  0  0  0  0  0  0  0  0
   29.4412  -20.5331   -5.1008 C   0  0  0  0  0  0  0  0  0  0  0  0
   28.8809  -21.4398   -4.2365 C   0  0  0  0  0  0  0  0  0  0  0  0
   27.5410  -21.7425   -4.3649 C   0  0  0  0  0  0  0  0  0  0  0  0
   26.8125  -21.1247   -5.3568 C   0  0  0  0  0  0  0  0  0  0  0  0
   27.3849  -20.2055   -6.2316 C   0  0  0  0  0  0  0  0  0  0  0  0
   23.7936  -20.6412   -9.2101 C   0  0  0  0  0  0  0  0  0  0  0  0
   23.1000  -19.6694   -9.6797 O   0  0  0  0  0  0  0  0  0  0  0  0
   23.0764  -21.8465   -9.0573 N   0  0  0  0  0  0  0  0  0  0  0  0
   21.6310  -21.9490   -9.2499 C   0  0  1  0  0  0  0  0  0  0  0  0
   21.3013  -22.7577  -10.4633 C   0  0  0  0  0  0  0  0  0  0  0  0
   21.6944  -22.0957  -11.7206 C   0  0  0  0  0  0  0  0  0  0  0  0
   21.0632  -20.9947  -12.2578 C   0  0  0  0  0  0  0  0  0  0  0  0
   21.4629  -20.3978  -13.4402 C   0  0  0  0  0  0  0  0  0  0  0  0
   22.5381  -20.9040  -14.1370 C   0  0  0  0  0  0  0  0  0  0  0  0
   23.1917  -22.0136  -13.6168 C   0  0  0  0  0  0  0  0  0  0  0  0
   22.7704  -22.5870  -12.4357 C   0  0  0  0  0  0  0  0  0  0  0  0
   20.9481  -22.4541   -8.0595 C   0  0  0  0  0  0  0  0  0  0  0  0
   19.5943  -22.5954   -7.9235 O   0  0  0  0  0  0  0  0  0  0  0  0
   21.6806  -22.7875   -7.0660 O   0  0  0  0  0  0  0  0  0  0  0  0
  2  3  1  0
  2  1  1  6
  4  3  1  0
  4  5  2  0
  6  5  1  0
  7  6  1  0
  8  7  2  0
  9  8  1  0
 10  9  2  0
 10 11  1  0
 11 12  2  0
 12  7  1  0
 12  4  1  0
 13  2  1  0
 14 13  2  0
 15 13  1  0
 16 27  1  0
 16 15  1  0
 16 17  1  1
 18 17  1  0
 18 26  1  0
 19 20  1  0
 19 18  2  0
 20 21  1  0
 21 26  2  0
 21 22  1  0
 22 23  2  0
 23 24  1  0
 25 24  2  0
 26 25  1  0
 27 28  2  0
 29 27  1  0
 30 29  1  0
 30 31  1  6
 32 31  1  0
 33 32  2  0
 34 33  1  0
 35 34  2  0
 35 36  1  0
 36 37  2  0
 37 32  1  0
 38 30  1  0
 39 38  1  0
 40 38  2  0
M  END
$$$$
