WWF.pdb
     RDKit          3D

 40 44  0  0  1  0  0  0  0  0999 V2000
   29.1828  -19.7588  -14.1910 N   0  0  0  0  0  0  0  0  0  0  0  0
   27.7661  -19.4622  -14.2399 C   0  0  1  0  0  0  0  0  0  0  0  0
   27.2459  -19.2776  -15.6412 C   0  0  0  0  0  0  0  0  0  0  0  0
   27.8620  -18.0490  -16.2165 C   0  0  0  0  0  0  0  0  0  0  0  0
   28.8782  -17.9933  -17.1608 C   0  0  0  0  0  0  0  0  0  0  0  0
   29.1584  -16.7087  -17.4269 N   0  0  0  0  0  0  0  0  0  0  0  0
   28.3617  -15.8816  -16.6907 C   0  0  0  0  0  0  0  0  0  0  0  0
   28.2619  -14.5124  -16.6039 C   0  0  0  0  0  0  0  0  0  0  0  0
   27.3423  -13.9537  -15.7523 C   0  0  0  0  0  0  0  0  0  0  0  0
   26.5435  -14.8101  -15.0067 C   0  0  0  0  0  0  0  0  0  0  0  0
   26.6300  -16.1756  -15.0809 C   0  0  0  0  0  0  0  0  0  0  0  0
   27.5614  -16.7311  -15.9435 C   0  0  0  0  0  0  0  0  0  0  0  0
   27.0490  -20.6166  -13.5897 C   0  0  0  0  0  0  0  0  0  0  0  0
   27.3685  -21.8200  -13.8558 O   0  0  0  0  0  0  0  0  0  0  0  0
   25.9982  -20.3897  -12.6624 N   0  0  0  0  0  0  0  0  0  0  0  0
   25.1258  -21.4626  -12.1689 C   0  0  1  0  0  0  0  0  0  0  0  0
   25.1316  -21.3883  -10.6880 C   0  0  0  0  0  0  0  0  0  0  0  0
   26.2305  -20.6844  -10.0506 C   0  0  0  0  0  0  0  0  0  0  0  0
   26.2162  -19.4489   -9.4668 C   0  0  0  0  0  0  0  0  0  0  0  0
   27.4475  -19.1635   -9.0157 N   0  0  0  0  0  0  0  0  0  0  0  0
   28.2812  -20.1895   -9.2899 C   0  0  0  0  0  0  0  0  0  0  0  0
   29.6131  -20.4426   -9.0675 C   0  0  0  0  0  0  0  0  0  0  0  0
   30.2304  -21.6037   -9.4596 C   0  0  0  0  0  0  0  0  0  0  0  0
   29.4862  -22.5678  -10.1080 C   0  0  0  0  0  0  0  0  0  0  0  0
   28.1496  -22.3308  -10.3398 C   0  0  0  0  0  0  0  0  0  0  0  0
   27.5273  -21.1514   -9.9403 C   0  0  0  0  0  0  0  0  0  0  0  0
   23.8297  -21.4369  -12.8410 C   0  0  0  0  0  0  0  0  0  0  0  0
   23.3319  -20.3022  -13.1742 O   0  0  0  0  0  0  0  0  0  0  0  0
   23.0285  -22.5463  -13.1840 N   0  0  0  0  0  0  0  0  0  0  0  0
   21.7264  -22.4233  -13.8368 C   0  0  1  0  0  0  0  0  0  0  0  0
   21.6373  -23.3057  -15.0403 C   0  0  0  0  0  0  0  0  0  0  0  0
   21.8672  -24.7284  -14.7293 C   0  0  0  0  0  0  0  0  0  0  0  0
   23.0449  -25.4029  -14.9681 C   0  0  0  0  0  0  0  0  0  0  0  0
   23.2251  -26.7396  -14.6596 C   0  0  0  0  0  0  0  0  0  0  0  0
   22.1984  -27.4575  -14.0866 C   0  0  0  0  0  0  0  0  0  0  0  0
   21.0006  -26.8007  -13.8356 C   0  0  0  0  0  0  0  0  0  0  0  0
   20.8508  -25.4675  -14.1539 C   0  0  0  0  0  0  0  0  0  0  0  0
   20.6185  -22.6555  -12.9109 C   0  0  0  0  0  0  0  0  0  0  0  0
   20.7447  -23.0714  -11.6138 O   0  0  0  0  0  0  0  0  0  0  0  0
   19.4368  -22.4542  -13.3555 O   0  0  0  0  0  0  0  0  0  0  0  0
  2  3  1  0
  2  1  1  6
  4  3  1  0
  4  5  2  0
  6  5  1  0
  7  6  1  0
  8  7  2  0
  9  8  1  0
 10  9  2  0
 10 11  1  0
 11 12  2  0
 12  7  1  0
 12  4  1  0
 13  2  1  0
 14 13  2  0
 15 13  1  0
 16 27  1  0
 16 15  1  0
 16 17  1  1
 18 17  1  0
 18 26  1  0
 19 20  1  0
 19 18  2  0
 20 21  1  0
 21 26  2  0
 21 22  1  0
 22 23  2  0
 23 24  1  0
 25 24  2  0
 26 25  1  0
 27 28  2  0
 29 27  1  0
 30 29  1  0
 30 31  1  6
 32 31  1  0
 33 32  2  0
 34 33  1  0
 35 34  2  0
 35 36  1  0
 36 37  2  0
 37 32  1  0
 38 30  1  0
 39 38  1  0
 40 38  2  0
M  END
$$$$
