WWF.pdb
     RDKit          3D

 40 44  0  0  1  0  0  0  0  0999 V2000
   26.6386  -17.3454  -15.7319 N   0  0  0  0  0  0  0  0  0  0  0  0
   27.0658  -18.5574  -15.0642 C   0  0  1  0  0  0  0  0  0  0  0  0
   28.5399  -18.5779  -14.7561 C   0  0  0  0  0  0  0  0  0  0  0  0
   29.2905  -18.6607  -16.0405 C   0  0  0  0  0  0  0  0  0  0  0  0
   30.0189  -17.6445  -16.6440 C   0  0  0  0  0  0  0  0  0  0  0  0
   30.5507  -18.1059  -17.7859 N   0  0  0  0  0  0  0  0  0  0  0  0
   30.2068  -19.4112  -17.9819 C   0  0  0  0  0  0  0  0  0  0  0  0
   30.4934  -20.3143  -18.9792 C   0  0  0  0  0  0  0  0  0  0  0  0
   29.9933  -21.5899  -18.9012 C   0  0  0  0  0  0  0  0  0  0  0  0
   29.2092  -21.9137  -17.8023 C   0  0  0  0  0  0  0  0  0  0  0  0
   28.9139  -21.0266  -16.8006 C   0  0  0  0  0  0  0  0  0  0  0  0
   29.4232  -19.7408  -16.8875 C   0  0  0  0  0  0  0  0  0  0  0  0
   26.2861  -18.6535  -13.7787 C   0  0  0  0  0  0  0  0  0  0  0  0
   26.2065  -17.6612  -12.9850 O   0  0  0  0  0  0  0  0  0  0  0  0
   25.6197  -19.8551  -13.4213 N   0  0  0  0  0  0  0  0  0  0  0  0
   24.8149  -19.9867  -12.2004 C   0  0  1  0  0  0  0  0  0  0  0  0
   23.4808  -20.4916  -12.6051 C   0  0  0  0  0  0  0  0  0  0  0  0
   22.5043  -20.7363  -11.5583 C   0  0  0  0  0  0  0  0  0  0  0  0
   22.0428  -19.8636  -10.6134 C   0  0  0  0  0  0  0  0  0  0  0  0
   21.1621  -20.4979   -9.8242 N   0  0  0  0  0  0  0  0  0  0  0  0
   21.0299  -21.7793  -10.2289 C   0  0  0  0  0  0  0  0  0  0  0  0
   20.2896  -22.8575   -9.8081 C   0  0  0  0  0  0  0  0  0  0  0  0
   20.3430  -24.0860  -10.4172 C   0  0  0  0  0  0  0  0  0  0  0  0
   21.1761  -24.2553  -11.5038 C   0  0  0  0  0  0  0  0  0  0  0  0
   21.9259  -23.1854  -11.9391 C   0  0  0  0  0  0  0  0  0  0  0  0
   21.8687  -21.9408  -11.3183 C   0  0  0  0  0  0  0  0  0  0  0  0
   25.5361  -20.7334  -11.1735 C   0  0  0  0  0  0  0  0  0  0  0  0
   26.1060  -21.8355  -11.5003 O   0  0  0  0  0  0  0  0  0  0  0  0
   25.6916  -20.3787   -9.8168 N   0  0  0  0  0  0  0  0  0  0  0  0
   26.2779  -21.2700   -8.8175 C   0  0  1  0  0  0  0  0  0  0  0  0
   27.7014  -20.9093   -8.5371 C   0  0  0  0  0  0  0  0  0  0  0  0
   27.8751  -20.2082   -7.2519 C   0  0  0  0  0  0  0  0  0  0  0  0
   27.3812  -18.9528   -6.9704 C   0  0  0  0  0  0  0  0  0  0  0  0
   27.5619  -18.3268   -5.7499 C   0  0  0  0  0  0  0  0  0  0  0  0
   28.2639  -18.9616   -4.7488 C   0  0  0  0  0  0  0  0  0  0  0  0
   28.7723  -20.2279   -5.0072 C   0  0  0  0  0  0  0  0  0  0  0  0
   28.5759  -20.8266   -6.2336 C   0  0  0  0  0  0  0  0  0  0  0  0
   25.4817  -21.3282   -7.5922 C   0  0  0  0  0  0  0  0  0  0  0  0
   24.3646  -20.5807   -7.3376 O   0  0  0  0  0  0  0  0  0  0  0  0
   25.8668  -22.1443   -6.6865 O   0  0  0  0  0  0  0  0  0  0  0  0
  2  3  1  0
  2  1  1  1
  4  3  1  0
  4  5  2  0
  6  5  1  0
  7  6  1  0
  8  7  2  0
  9  8  1  0
 10  9  2  0
 10 11  1  0
 11 12  2  0
 12  7  1  0
 12  4  1  0
 13  2  1  0
 14 13  2  0
 15 13  1  0
 16 27  1  0
 16 15  1  0
 16 17  1  6
 18 17  1  0
 18 26  1  0
 19 20  1  0
 19 18  2  0
 20 21  1  0
 21 26  2  0
 21 22  1  0
 22 23  2  0
 23 24  1  0
 25 24  2  0
 26 25  1  0
 27 28  2  0
 29 27  1  0
 30 29  1  0
 30 31  1  1
 32 31  1  0
 33 32  2  0
 34 33  1  0
 35 34  2  0
 35 36  1  0
 36 37  2  0
 37 32  1  0
 38 30  1  0
 39 38  1  0
 40 38  2  0
M  END
$$$$
