WWF.pdb
     RDKit          3D

 40 44  0  0  1  0  0  0  0  0999 V2000
   27.9219  -20.3335  -19.1655 N   0  0  0  0  0  0  0  0  0  0  0  0
   26.6003  -20.8467  -18.8695 C   0  0  1  0  0  0  0  0  0  0  0  0
   26.5743  -22.3388  -18.6663 C   0  0  0  0  0  0  0  0  0  0  0  0
   25.8852  -22.9627  -19.8307 C   0  0  0  0  0  0  0  0  0  0  0  0
   25.7807  -22.4394  -21.1123 C   0  0  0  0  0  0  0  0  0  0  0  0
   25.0889  -23.2951  -21.8795 N   0  0  0  0  0  0  0  0  0  0  0  0
   24.7161  -24.3916  -21.1588 C   0  0  0  0  0  0  0  0  0  0  0  0
   24.0082  -25.5262  -21.4809 C   0  0  0  0  0  0  0  0  0  0  0  0
   23.7847  -26.4800  -20.5198 C   0  0  0  0  0  0  0  0  0  0  0  0
   24.2916  -26.2511  -19.2477 C   0  0  0  0  0  0  0  0  0  0  0  0
   24.9984  -25.1268  -18.9101 C   0  0  0  0  0  0  0  0  0  0  0  0
   25.2193  -24.1691  -19.8869 C   0  0  0  0  0  0  0  0  0  0  0  0
   26.1313  -20.1637  -17.6112 C   0  0  0  0  0  0  0  0  0  0  0  0
   26.9510  -19.8624  -16.6848 O   0  0  0  0  0  0  0  0  0  0  0  0
   24.7615  -19.8385  -17.4285 N   0  0  0  0  0  0  0  0  0  0  0  0
   24.2686  -19.0911  -16.2648 C   0  0  1  0  0  0  0  0  0  0  0  0
   23.3679  -18.0287  -16.7735 C   0  0  0  0  0  0  0  0  0  0  0  0
   23.9777  -16.8217  -17.3031 C   0  0  0  0  0  0  0  0  0  0  0  0
   23.6691  -16.1558  -18.4559 C   0  0  0  0  0  0  0  0  0  0  0  0
   24.4863  -15.0989  -18.5832 N   0  0  0  0  0  0  0  0  0  0  0  0
   25.3340  -15.0507  -17.5334 C   0  0  0  0  0  0  0  0  0  0  0  0
   26.3529  -14.2137  -17.1475 C   0  0  0  0  0  0  0  0  0  0  0  0
   27.0766  -14.3964  -15.9960 C   0  0  0  0  0  0  0  0  0  0  0  0
   26.7735  -15.4679  -15.1815 C   0  0  0  0  0  0  0  0  0  0  0  0
   25.7554  -16.3176  -15.5529 C   0  0  0  0  0  0  0  0  0  0  0  0
   25.0237  -16.1287  -16.7220 C   0  0  0  0  0  0  0  0  0  0  0  0
   23.7398  -19.9937  -15.2461 C   0  0  0  0  0  0  0  0  0  0  0  0
   23.0774  -21.0260  -15.6227 O   0  0  0  0  0  0  0  0  0  0  0  0
   23.8739  -19.8679  -13.8473 N   0  0  0  0  0  0  0  0  0  0  0  0
   23.2583  -20.7920  -12.8967 C   0  0  1  0  0  0  0  0  0  0  0  0
   24.0693  -20.9040  -11.6458 C   0  0  0  0  0  0  0  0  0  0  0  0
   25.5046  -21.1164  -11.9074 C   0  0  0  0  0  0  0  0  0  0  0  0
   26.4422  -20.1106  -11.9998 C   0  0  0  0  0  0  0  0  0  0  0  0
   27.7830  -20.3487  -12.2439 C   0  0  0  0  0  0  0  0  0  0  0  0
   28.2334  -21.6404  -12.4073 C   0  0  0  0  0  0  0  0  0  0  0  0
   27.3083  -22.6725  -12.3189 C   0  0  0  0  0  0  0  0  0  0  0  0
   25.9781  -22.4042  -12.0743 C   0  0  0  0  0  0  0  0  0  0  0  0
   21.8661  -20.4471  -12.6113 C   0  0  0  0  0  0  0  0  0  0  0  0
   20.9415  -21.2856  -12.0513 O   0  0  0  0  0  0  0  0  0  0  0  0
   21.4859  -19.2645  -12.9141 O   0  0  0  0  0  0  0  0  0  0  0  0
  2  3  1  0
  2  1  1  1
  4  3  1  0
  4  5  2  0
  6  5  1  0
  7  6  1  0
  8  7  2  0
  9  8  1  0
 10  9  2  0
 10 11  1  0
 11 12  2  0
 12  7  1  0
 12  4  1  0
 13  2  1  0
 14 13  2  0
 15 13  1  0
 16 27  1  0
 16 15  1  0
 16 17  1  6
 18 17  1  0
 18 26  1  0
 19 20  1  0
 19 18  2  0
 20 21  1  0
 21 26  2  0
 21 22  1  0
 22 23  2  0
 23 24  1  0
 25 24  2  0
 26 25  1  0
 27 28  2  0
 29 27  1  0
 30 29  1  0
 30 31  1  1
 32 31  1  0
 33 32  2  0
 34 33  1  0
 35 34  2  0
 35 36  1  0
 36 37  2  0
 37 32  1  0
 38 30  1  0
 39 38  1  0
 40 38  2  0
M  END
$$$$
