WWF.pdb
     RDKit          3D

 40 44  0  0  1  0  0  0  0  0999 V2000
   29.3942  -20.4617  -12.9399 N   0  0  0  0  0  0  0  0  0  0  0  0
   28.0689  -19.9113  -12.7447 C   0  0  1  0  0  0  0  0  0  0  0  0
   27.1909  -20.0304  -13.9625 C   0  0  0  0  0  0  0  0  0  0  0  0
   27.7401  -19.1476  -15.0298 C   0  0  0  0  0  0  0  0  0  0  0  0
   28.5493  -19.5314  -16.0906 C   0  0  0  0  0  0  0  0  0  0  0  0
   28.8341  -18.4532  -16.8362 N   0  0  0  0  0  0  0  0  0  0  0  0
   28.2419  -17.3401  -16.3156 C   0  0  0  0  0  0  0  0  0  0  0  0
   28.2292  -16.0200  -16.7020 C   0  0  0  0  0  0  0  0  0  0  0  0
   27.5263  -15.1044  -15.9597 C   0  0  0  0  0  0  0  0  0  0  0  0
   26.8507  -15.5609  -14.8360 C   0  0  0  0  0  0  0  0  0  0  0  0
   26.8531  -16.8718  -14.4372 C   0  0  0  0  0  0  0  0  0  0  0  0
   27.5654  -17.7894  -15.1927 C   0  0  0  0  0  0  0  0  0  0  0  0
   27.4405  -20.6641  -11.6010 C   0  0  0  0  0  0  0  0  0  0  0  0
   27.5681  -21.9268  -11.4991 O   0  0  0  0  0  0  0  0  0  0  0  0
   26.6900  -19.9822  -10.6074 N   0  0  0  0  0  0  0  0  0  0  0  0
   25.5708  -20.6034   -9.8882 C   0  0  1  0  0  0  0  0  0  0  0  0
   25.4253  -19.8875   -8.5980 C   0  0  0  0  0  0  0  0  0  0  0  0
   26.6381  -19.5092   -7.8941 C   0  0  0  0  0  0  0  0  0  0  0  0
   27.4161  -18.4025   -8.0874 C   0  0  0  0  0  0  0  0  0  0  0  0
   28.4563  -18.4451   -7.2405 N   0  0  0  0  0  0  0  0  0  0  0  0
   28.3830  -19.5627   -6.4864 C   0  0  0  0  0  0  0  0  0  0  0  0
   29.1497  -20.1094   -5.4860 C   0  0  0  0  0  0  0  0  0  0  0  0
   28.8391  -21.2941   -4.8670 C   0  0  0  0  0  0  0  0  0  0  0  0
   27.7056  -21.9747   -5.2612 C   0  0  0  0  0  0  0  0  0  0  0  0
   26.9254  -21.4416   -6.2629 C   0  0  0  0  0  0  0  0  0  0  0  0
   27.2440  -20.2395   -6.8883 C   0  0  0  0  0  0  0  0  0  0  0  0
   24.3897  -20.7047  -10.7409 C   0  0  0  0  0  0  0  0  0  0  0  0
   24.1815  -19.7887  -11.6148 O   0  0  0  0  0  0  0  0  0  0  0  0
   23.4144  -21.7240  -10.7237 N   0  0  0  0  0  0  0  0  0  0  0  0
   22.2056  -21.6906  -11.5449 C   0  0  1  0  0  0  0  0  0  0  0  0
   22.0895  -22.9184  -12.3900 C   0  0  0  0  0  0  0  0  0  0  0  0
   23.1587  -23.0256  -13.3993 C   0  0  0  0  0  0  0  0  0  0  0  0
   24.3049  -23.7762  -13.2510 C   0  0  0  0  0  0  0  0  0  0  0  0
   25.2865  -23.8551  -14.2228 C   0  0  0  0  0  0  0  0  0  0  0  0
   25.1413  -23.1626  -15.4048 C   0  0  0  0  0  0  0  0  0  0  0  0
   23.9948  -22.3982  -15.5791 C   0  0  0  0  0  0  0  0  0  0  0  0
   23.0334  -22.3392  -14.5925 C   0  0  0  0  0  0  0  0  0  0  0  0
   21.0005  -21.4650  -10.7477 C   0  0  0  0  0  0  0  0  0  0  0  0
   19.7387  -21.2996  -11.2495 O   0  0  0  0  0  0  0  0  0  0  0  0
   21.1434  -21.4168   -9.4780 O   0  0  0  0  0  0  0  0  0  0  0  0
  2  3  1  0
  2  1  1  6
  4  3  1  0
  4  5  2  0
  6  5  1  0
  7  6  1  0
  8  7  2  0
  9  8  1  0
 10  9  2  0
 10 11  1  0
 11 12  2  0
 12  7  1  0
 12  4  1  0
 13  2  1  0
 14 13  2  0
 15 13  1  0
 16 27  1  0
 16 15  1  0
 16 17  1  1
 18 17  1  0
 18 26  1  0
 19 20  1  0
 19 18  2  0
 20 21  1  0
 21 26  2  0
 21 22  1  0
 22 23  2  0
 23 24  1  0
 25 24  2  0
 26 25  1  0
 27 28  2  0
 29 27  1  0
 30 29  1  0
 30 31  1  1
 32 31  1  0
 33 32  2  0
 34 33  1  0
 35 34  2  0
 35 36  1  0
 36 37  2  0
 37 32  1  0
 38 30  1  0
 39 38  1  0
 40 38  2  0
M  END
$$$$
