WWF.pdb
     RDKit          3D

 40 44  0  0  1  0  0  0  0  0999 V2000
   26.2260  -20.8849  -14.0562 N   0  0  0  0  0  0  0  0  0  0  0  0
   24.9751  -20.5297  -13.4188 C   0  0  1  0  0  0  0  0  0  0  0  0
   23.7674  -21.0732  -14.1361 C   0  0  0  0  0  0  0  0  0  0  0  0
   23.6824  -20.4268  -15.4758 C   0  0  0  0  0  0  0  0  0  0  0  0
   24.0700  -20.9773  -16.6900 C   0  0  0  0  0  0  0  0  0  0  0  0
   23.8355  -20.0894  -17.6678 N   0  0  0  0  0  0  0  0  0  0  0  0
   23.2973  -18.9447  -17.1573 C   0  0  0  0  0  0  0  0  0  0  0  0
   22.8897  -17.7644  -17.7344 C   0  0  0  0  0  0  0  0  0  0  0  0
   22.3750  -16.7673  -16.9444 C   0  0  0  0  0  0  0  0  0  0  0  0
   22.2887  -17.0004  -15.5786 C   0  0  0  0  0  0  0  0  0  0  0  0
   22.6902  -18.1697  -14.9877 C   0  0  0  0  0  0  0  0  0  0  0  0
   23.2087  -19.1711  -15.7930 C   0  0  0  0  0  0  0  0  0  0  0  0
   25.0168  -21.0867  -12.0196 C   0  0  0  0  0  0  0  0  0  0  0  0
   25.1693  -22.3341  -11.8154 O   0  0  0  0  0  0  0  0  0  0  0  0
   24.8875  -20.2323  -10.8933 N   0  0  0  0  0  0  0  0  0  0  0  0
   24.8325  -20.7344   -9.5147 C   0  0  1  0  0  0  0  0  0  0  0  0
   25.6094  -19.7934   -8.6723 C   0  0  0  0  0  0  0  0  0  0  0  0
   26.9811  -20.1472   -8.3520 C   0  0  0  0  0  0  0  0  0  0  0  0
   27.8581  -20.8860   -9.0952 C   0  0  0  0  0  0  0  0  0  0  0  0
   29.0164  -20.9942   -8.4262 N   0  0  0  0  0  0  0  0  0  0  0  0
   28.9243  -20.3391   -7.2492 C   0  0  0  0  0  0  0  0  0  0  0  0
   29.7745  -20.1198   -6.1925 C   0  0  0  0  0  0  0  0  0  0  0  0
   29.4190  -19.3941   -5.0834 C   0  0  0  0  0  0  0  0  0  0  0  0
   28.1504  -18.8555   -5.0181 C   0  0  0  0  0  0  0  0  0  0  0  0
   27.2846  -19.0657   -6.0681 C   0  0  0  0  0  0  0  0  0  0  0  0
   27.6494  -19.8026   -7.1914 C   0  0  0  0  0  0  0  0  0  0  0  0
   23.4579  -21.0214   -9.1144 C   0  0  0  0  0  0  0  0  0  0  0  0
   22.5460  -20.1601   -9.3841 O   0  0  0  0  0  0  0  0  0  0  0  0
   22.9906  -22.1721   -8.4450 N   0  0  0  0  0  0  0  0  0  0  0  0
   21.6268  -22.3051   -7.9363 C   0  0  1  0  0  0  0  0  0  0  0  0
   20.9554  -23.5188   -8.4940 C   0  0  0  0  0  0  0  0  0  0  0  0
   19.6070  -23.7370   -7.9391 C   0  0  0  0  0  0  0  0  0  0  0  0
   19.3458  -24.3374   -6.7265 C   0  0  0  0  0  0  0  0  0  0  0  0
   18.0653  -24.5227   -6.2364 C   0  0  0  0  0  0  0  0  0  0  0  0
   16.9797  -24.0985   -6.9709 C   0  0  0  0  0  0  0  0  0  0  0  0
   17.2161  -23.4902   -8.1969 C   0  0  0  0  0  0  0  0  0  0  0  0
   18.5038  -23.3191   -8.6593 C   0  0  0  0  0  0  0  0  0  0  0  0
   21.5759  -22.2806   -6.4749 C   0  0  0  0  0  0  0  0  0  0  0  0
   20.5238  -21.8279   -5.7268 O   0  0  0  0  0  0  0  0  0  0  0  0
   22.6023  -22.7167   -5.8497 O   0  0  0  0  0  0  0  0  0  0  0  0
  2  3  1  0
  2  1  1  6
  4  3  1  0
  4  5  2  0
  6  5  1  0
  7  6  1  0
  8  7  2  0
  9  8  1  0
 10  9  2  0
 10 11  1  0
 11 12  2  0
 12  7  1  0
 12  4  1  0
 13  2  1  0
 14 13  2  0
 15 13  1  0
 16 27  1  0
 16 15  1  0
 16 17  1  1
 18 17  1  0
 18 26  1  0
 19 20  1  0
 19 18  2  0
 20 21  1  0
 21 26  2  0
 21 22  1  0
 22 23  2  0
 23 24  1  0
 25 24  2  0
 26 25  1  0
 27 28  2  0
 29 27  1  0
 30 29  1  0
 30 31  1  1
 32 31  1  0
 33 32  2  0
 34 33  1  0
 35 34  2  0
 35 36  1  0
 36 37  2  0
 37 32  1  0
 38 30  1  0
 39 38  1  0
 40 38  2  0
M  END
$$$$
