TGH.pdb
     RDKit          3D

 22 22  0  0  1  0  0  0  0  0999 V2000
    7.8623  -12.4135   18.1475 C   0  0  0  0  0  0  0  0  0  0  0  0
    8.2542  -13.7238   18.7510 C   0  0  1  0  0  0  0  0  0  0  0  0
    8.8593  -14.5023   17.7636 O   0  0  0  0  0  0  0  0  0  0  0  0
    9.2542  -13.5758   19.8789 C   0  0  2  0  0  0  0  0  0  0  0  0
   10.4835  -13.1048   19.3242 N   0  0  0  0  0  0  0  0  0  0  0  0
    9.4671  -14.8192   20.6151 C   0  0  0  0  0  0  0  0  0  0  0  0
   10.6080  -15.3183   20.7725 O   0  0  0  0  0  0  0  0  0  0  0  0
    8.3544  -15.5028   21.1807 N   0  0  0  0  0  0  0  0  0  0  0  0
    8.5064  -16.7027   21.9698 C   0  0  0  0  0  0  0  0  0  0  0  0
    8.5707  -16.3180   23.4015 C   0  0  0  0  0  0  0  0  0  0  0  0
    8.0274  -17.0169   24.2951 O   0  0  0  0  0  0  0  0  0  0  0  0
    9.2483  -15.1456   23.8177 N   0  0  0  0  0  0  0  0  0  0  0  0
    8.7753  -14.4034   24.9481 C   0  0  1  0  0  0  0  0  0  0  0  0
    7.4709  -13.7023   24.6735 C   0  0  0  0  0  0  0  0  0  0  0  0
    7.0579  -12.8286   25.7938 C   0  0  0  0  0  0  0  0  0  0  0  0
    6.9555  -11.4427   25.8373 C   0  0  0  0  0  0  0  0  0  0  0  0
    6.5536  -11.0826   27.0678 N   0  0  0  0  0  0  0  0  0  0  0  0
    6.3948  -12.1722   27.8110 C   0  0  0  0  0  0  0  0  0  0  0  0
    6.6956  -13.2136   27.0514 N   0  0  0  0  0  0  0  0  0  0  0  0
    8.7346  -15.2532   26.1797 C   0  0  0  0  0  0  0  0  0  0  0  0
    8.2255  -14.8925   27.2653 O   0  0  0  0  0  0  0  0  0  0  0  0
    9.2868  -16.5441   26.1747 O   0  0  0  0  0  0  0  0  0  0  0  0
  2  4  1  0
  2  1  1  6
  2  3  1  0
  4  5  1  6
  6  4  1  0
  6  8  1  0
  7  6  2  0
  9  8  1  0
  9 10  1  0
 10 12  1  0
 10 11  2  0
 12 13  1  0
 13 14  1  6
 14 15  1  0
 15 16  2  0
 16 17  1  0
 18 17  1  0
 19 15  1  0
 19 18  2  0
 20 13  1  0
 20 22  1  0
 21 20  2  0
M  END
$$$$
