TGH.pdb
     RDKit          3D

 22 22  0  0  1  0  0  0  0  0999 V2000
    8.8395  -16.1083   17.9307 C   0  0  0  0  0  0  0  0  0  0  0  0
    7.8919  -17.2373   18.1797 C   0  0  1  0  0  0  0  0  0  0  0  0
    8.1746  -18.2604   17.2739 O   0  0  0  0  0  0  0  0  0  0  0  0
    8.0264  -17.8218   19.5705 C   0  0  2  0  0  0  0  0  0  0  0  0
    7.2275  -19.0043   19.6350 N   0  0  0  0  0  0  0  0  0  0  0  0
    7.6386  -16.8832   20.6203 C   0  0  0  0  0  0  0  0  0  0  0  0
    6.4572  -16.4820   20.7582 O   0  0  0  0  0  0  0  0  0  0  0  0
    8.6204  -16.3956   21.5278 N   0  0  0  0  0  0  0  0  0  0  0  0
    8.3113  -15.4218   22.5483 C   0  0  0  0  0  0  0  0  0  0  0  0
    9.5216  -15.2143   23.3814 C   0  0  0  0  0  0  0  0  0  0  0  0
   10.6625  -15.5612   22.9814 O   0  0  0  0  0  0  0  0  0  0  0  0
    9.4379  -14.6159   24.6628 N   0  0  0  0  0  0  0  0  0  0  0  0
    9.1994  -15.4247   25.8210 C   0  0  1  0  0  0  0  0  0  0  0  0
    7.7463  -15.4527   26.2163 C   0  0  0  0  0  0  0  0  0  0  0  0
    7.1742  -14.0943   26.3439 C   0  0  0  0  0  0  0  0  0  0  0  0
    7.8133  -12.8941   26.6345 C   0  0  0  0  0  0  0  0  0  0  0  0
    6.8929  -11.9156   26.6604 N   0  0  0  0  0  0  0  0  0  0  0  0
    5.6978  -12.4340   26.4003 C   0  0  0  0  0  0  0  0  0  0  0  0
    5.8653  -13.7334   26.2115 N   0  0  0  0  0  0  0  0  0  0  0  0
    9.7888  -16.7915   25.6620 C   0  0  0  0  0  0  0  0  0  0  0  0
    9.2238  -17.7345   25.0626 O   0  0  0  0  0  0  0  0  0  0  0  0
   11.0511  -17.0912   26.1985 O   0  0  0  0  0  0  0  0  0  0  0  0
  2  4  1  0
  2  1  1  1
  2  3  1  0
  4  5  1  6
  6  4  1  0
  6  8  1  0
  7  6  2  0
  9  8  1  0
  9 10  1  0
 10 12  1  0
 10 11  2  0
 12 13  1  0
 13 14  1  6
 14 15  1  0
 15 16  2  0
 16 17  1  0
 18 17  1  0
 19 15  1  0
 19 18  2  0
 20 13  1  0
 20 22  1  0
 21 20  2  0
M  END
$$$$
