TGH.pdb
     RDKit          3D

 22 22  0  0  1  0  0  0  0  0999 V2000
    8.3649  -12.3991   17.7878 C   0  0  0  0  0  0  0  0  0  0  0  0
    7.9666  -13.4536   18.7696 C   0  0  1  0  0  0  0  0  0  0  0  0
    8.2066  -14.7037   18.1981 O   0  0  0  0  0  0  0  0  0  0  0  0
    8.7632  -13.3899   20.0562 C   0  0  2  0  0  0  0  0  0  0  0  0
   10.1357  -13.6313   19.7418 N   0  0  0  0  0  0  0  0  0  0  0  0
    8.2932  -14.3389   21.0622 C   0  0  0  0  0  0  0  0  0  0  0  0
    7.1492  -14.2630   21.5729 O   0  0  0  0  0  0  0  0  0  0  0  0
    9.1480  -15.3930   21.4905 N   0  0  0  0  0  0  0  0  0  0  0  0
    8.7008  -16.4320   22.3882 C   0  0  0  0  0  0  0  0  0  0  0  0
    9.1984  -16.1211   23.7512 C   0  0  0  0  0  0  0  0  0  0  0  0
   10.3180  -15.5780   23.9344 O   0  0  0  0  0  0  0  0  0  0  0  0
    8.4291  -16.4251   24.9013 N   0  0  0  0  0  0  0  0  0  0  0  0
    8.9666  -16.1935   26.2089 C   0  0  1  0  0  0  0  0  0  0  0  0
    7.9343  -15.6709   27.1732 C   0  0  0  0  0  0  0  0  0  0  0  0
    7.3767  -14.3689   26.7456 C   0  0  0  0  0  0  0  0  0  0  0  0
    8.0291  -13.1598   26.5320 C   0  0  0  0  0  0  0  0  0  0  0  0
    7.1190  -12.2429   26.1630 N   0  0  0  0  0  0  0  0  0  0  0  0
    5.9176  -12.8091   26.1310 C   0  0  0  0  0  0  0  0  0  0  0  0
    6.0711  -14.0771   26.4785 N   0  0  0  0  0  0  0  0  0  0  0  0
    9.6893  -17.3996   26.7226 C   0  0  0  0  0  0  0  0  0  0  0  0
    9.7067  -18.5083   26.1413 O   0  0  0  0  0  0  0  0  0  0  0  0
   10.4090  -17.3412   27.9267 O   0  0  0  0  0  0  0  0  0  0  0  0
  2  4  1  0
  2  1  1  6
  2  3  1  0
  4  5  1  6
  6  4  1  0
  6  8  1  0
  7  6  2  0
  9  8  1  0
  9 10  1  0
 10 12  1  0
 10 11  2  0
 12 13  1  0
 13 14  1  1
 14 15  1  0
 15 16  2  0
 16 17  1  0
 18 17  1  0
 19 15  1  0
 19 18  2  0
 20 13  1  0
 20 22  1  0
 21 20  2  0
M  END
$$$$
