TGH.pdb
     RDKit          3D

 22 22  0  0  1  0  0  0  0  0999 V2000
    6.4267  -19.6601   18.4917 C   0  0  0  0  0  0  0  0  0  0  0  0
    7.6088  -18.8103   18.8311 C   0  0  1  0  0  0  0  0  0  0  0  0
    7.2142  -17.4722   18.8039 O   0  0  0  0  0  0  0  0  0  0  0  0
    8.1535  -19.0876   20.2169 C   0  0  2  0  0  0  0  0  0  0  0  0
    7.1009  -18.8755   21.1591 N   0  0  0  0  0  0  0  0  0  0  0  0
    9.3114  -18.2608   20.5473 C   0  0  0  0  0  0  0  0  0  0  0  0
   10.4742  -18.5577   20.1794 O   0  0  0  0  0  0  0  0  0  0  0  0
    9.1347  -17.0737   21.3120 N   0  0  0  0  0  0  0  0  0  0  0  0
   10.2198  -16.1583   21.5768 C   0  0  0  0  0  0  0  0  0  0  0  0
   10.3688  -16.0195   23.0467 C   0  0  0  0  0  0  0  0  0  0  0  0
   11.2328  -15.2571   23.5509 O   0  0  0  0  0  0  0  0  0  0  0  0
    9.5411  -16.7426   23.9407 N   0  0  0  0  0  0  0  0  0  0  0  0
    9.6918  -16.5764   25.3556 C   0  0  1  0  0  0  0  0  0  0  0  0
    8.3780  -16.3361   26.0518 C   0  0  0  0  0  0  0  0  0  0  0  0
    7.7167  -15.0967   25.5879 C   0  0  0  0  0  0  0  0  0  0  0  0
    8.1806  -14.1302   24.7024 C   0  0  0  0  0  0  0  0  0  0  0  0
    7.2454  -13.1724   24.5873 N   0  0  0  0  0  0  0  0  0  0  0  0
    6.2075  -13.4815   25.3568 C   0  0  0  0  0  0  0  0  0  0  0  0
    6.4884  -14.6291   25.9536 N   0  0  0  0  0  0  0  0  0  0  0  0
   10.4748  -17.7019   25.9563 C   0  0  0  0  0  0  0  0  0  0  0  0
   10.7478  -17.7958   27.1746 O   0  0  0  0  0  0  0  0  0  0  0  0
   10.9582  -18.7450   25.1503 O   0  0  0  0  0  0  0  0  0  0  0  0
  2  4  1  0
  2  1  1  1
  2  3  1  0
  4  5  1  1
  6  4  1  0
  6  8  1  0
  7  6  2  0
  9  8  1  0
  9 10  1  0
 10 12  1  0
 10 11  2  0
 12 13  1  0
 13 14  1  1
 14 15  1  0
 15 16  2  0
 16 17  1  0
 18 17  1  0
 19 15  1  0
 19 18  2  0
 20 13  1  0
 20 22  1  0
 21 20  2  0
M  END
$$$$
