TGH.pdb
     RDKit          3D

 22 22  0  0  1  0  0  0  0  0999 V2000
    7.9730  -17.1288   13.8848 C   0  0  0  0  0  0  0  0  0  0  0  0
    8.3133  -17.8850   15.1287 C   0  0  1  0  0  0  0  0  0  0  0  0
    9.6718  -18.2018   15.0962 O   0  0  0  0  0  0  0  0  0  0  0  0
    8.0717  -17.0815   16.3896 C   0  0  2  0  0  0  0  0  0  0  0  0
    9.0207  -16.0144   16.4256 N   0  0  0  0  0  0  0  0  0  0  0  0
    8.1625  -17.8893   17.6032 C   0  0  0  0  0  0  0  0  0  0  0  0
    7.3644  -18.8272   17.8457 O   0  0  0  0  0  0  0  0  0  0  0  0
    9.1848  -17.6183   18.5554 N   0  0  0  0  0  0  0  0  0  0  0  0
    9.2794  -18.3293   19.8088 C   0  0  0  0  0  0  0  0  0  0  0  0
    9.7416  -17.3814   20.8526 C   0  0  0  0  0  0  0  0  0  0  0  0
   10.9436  -17.3444   21.2214 O   0  0  0  0  0  0  0  0  0  0  0  0
    8.8441  -16.4793   21.4754 N   0  0  0  0  0  0  0  0  0  0  0  0
    9.3457  -15.3512   22.2021 C   0  0  1  0  0  0  0  0  0  0  0  0
    8.5514  -14.0981   21.9432 C   0  0  0  0  0  0  0  0  0  0  0  0
    8.5157  -13.7442   20.5071 C   0  0  0  0  0  0  0  0  0  0  0  0
    7.4385  -13.3377   19.7276 C   0  0  0  0  0  0  0  0  0  0  0  0
    7.8721  -13.1359   18.4720 N   0  0  0  0  0  0  0  0  0  0  0  0
    9.1739  -13.3943   18.4133 C   0  0  0  0  0  0  0  0  0  0  0  0
    9.5579  -13.7571   19.6269 N   0  0  0  0  0  0  0  0  0  0  0  0
    9.4896  -15.6619   23.6594 C   0  0  0  0  0  0  0  0  0  0  0  0
    9.9697  -14.8700   24.5022 O   0  0  0  0  0  0  0  0  0  0  0  0
    9.0770  -16.9035   24.1686 O   0  0  0  0  0  0  0  0  0  0  0  0
  2  4  1  0
  2  1  1  6
  2  3  1  0
  4  5  1  1
  6  4  1  0
  6  8  1  0
  7  6  2  0
  9  8  1  0
  9 10  1  0
 10 12  1  0
 10 11  2  0
 12 13  1  0
 13 14  1  1
 14 15  1  0
 15 16  2  0
 16 17  1  0
 18 17  1  0
 19 15  1  0
 19 18  2  0
 20 13  1  0
 20 22  1  0
 21 20  2  0
M  END
$$$$
