TGH.pdb
     RDKit          3D

 22 22  0  0  1  0  0  0  0  0999 V2000
    7.7951  -11.9117   20.1511 C   0  0  0  0  0  0  0  0  0  0  0  0
    8.1872  -13.3140   20.4896 C   0  0  1  0  0  0  0  0  0  0  0  0
    7.2319  -14.1811   19.9580 O   0  0  0  0  0  0  0  0  0  0  0  0
    9.5258  -13.7084   19.9009 C   0  0  2  0  0  0  0  0  0  0  0  0
    9.5093  -13.3922   18.5078 N   0  0  0  0  0  0  0  0  0  0  0  0
    9.8402  -15.1206   20.1022 C   0  0  0  0  0  0  0  0  0  0  0  0
   10.0937  -15.8940   19.1467 O   0  0  0  0  0  0  0  0  0  0  0  0
    9.8647  -15.6561   21.4206 N   0  0  0  0  0  0  0  0  0  0  0  0
   10.2112  -17.0324   21.6874 C   0  0  0  0  0  0  0  0  0  0  0  0
   10.1909  -17.2454   23.1558 C   0  0  0  0  0  0  0  0  0  0  0  0
   10.1703  -18.4009   23.6524 O   0  0  0  0  0  0  0  0  0  0  0  0
   10.1940  -16.1523   24.0570 N   0  0  0  0  0  0  0  0  0  0  0  0
    9.6731  -16.3102   25.3822 C   0  0  1  0  0  0  0  0  0  0  0  0
    8.1674  -16.3005   25.4157 C   0  0  0  0  0  0  0  0  0  0  0  0
    7.6107  -14.9490   25.1869 C   0  0  0  0  0  0  0  0  0  0  0  0
    8.2717  -13.7294   25.0931 C   0  0  0  0  0  0  0  0  0  0  0  0
    7.3594  -12.7636   24.8927 N   0  0  0  0  0  0  0  0  0  0  0  0
    6.1485  -13.3086   24.8541 C   0  0  0  0  0  0  0  0  0  0  0  0
    6.2982  -14.6120   25.0296 N   0  0  0  0  0  0  0  0  0  0  0  0
   10.2657  -17.5051   26.0619 C   0  0  0  0  0  0  0  0  0  0  0  0
   10.3348  -17.6438   27.3043 O   0  0  0  0  0  0  0  0  0  0  0  0
   10.7918  -18.5667   25.3087 O   0  0  0  0  0  0  0  0  0  0  0  0
  2  4  1  0
  2  1  1  6
  2  3  1  0
  4  5  1  6
  6  4  1  0
  6  8  1  0
  7  6  2  0
  9  8  1  0
  9 10  1  0
 10 12  1  0
 10 11  2  0
 12 13  1  0
 13 14  1  6
 14 15  1  0
 15 16  2  0
 16 17  1  0
 18 17  1  0
 19 15  1  0
 19 18  2  0
 20 13  1  0
 20 22  1  0
 21 20  2  0
M  END
$$$$
