TGH.pdb
     RDKit          3D

 22 22  0  0  1  0  0  0  0  0999 V2000
    3.2690  -17.9008   21.1884 C   0  0  0  0  0  0  0  0  0  0  0  0
    4.7629  -17.8569   21.2169 C   0  0  1  0  0  0  0  0  0  0  0  0
    5.1756  -17.6914   22.5395 O   0  0  0  0  0  0  0  0  0  0  0  0
    5.3983  -19.1338   20.7069 C   0  0  2  0  0  0  0  0  0  0  0  0
    4.8071  -20.2329   21.4019 N   0  0  0  0  0  0  0  0  0  0  0  0
    6.8502  -19.1478   20.8661 C   0  0  0  0  0  0  0  0  0  0  0  0
    7.4192  -19.8056   21.7710 O   0  0  0  0  0  0  0  0  0  0  0  0
    7.6644  -18.3957   19.9735 N   0  0  0  0  0  0  0  0  0  0  0  0
    9.1064  -18.4070   20.0500 C   0  0  0  0  0  0  0  0  0  0  0  0
    9.5326  -17.3780   21.0305 C   0  0  0  0  0  0  0  0  0  0  0  0
   10.7274  -16.9907   21.0999 O   0  0  0  0  0  0  0  0  0  0  0  0
    8.6074  -16.7908   21.9285 N   0  0  0  0  0  0  0  0  0  0  0  0
    9.0515  -15.8294   22.8933 C   0  0  1  0  0  0  0  0  0  0  0  0
    8.1554  -14.6205   22.9582 C   0  0  0  0  0  0  0  0  0  0  0  0
    8.0385  -13.9390   21.6503 C   0  0  0  0  0  0  0  0  0  0  0  0
    8.6922  -14.2126   20.4540 C   0  0  0  0  0  0  0  0  0  0  0  0
    8.2827  -13.3260   19.5312 N   0  0  0  0  0  0  0  0  0  0  0  0
    7.3994  -12.5003   20.0815 C   0  0  0  0  0  0  0  0  0  0  0  0
    7.2536  -12.8657   21.3453 N   0  0  0  0  0  0  0  0  0  0  0  0
    9.2765  -16.4632   24.2306 C   0  0  0  0  0  0  0  0  0  0  0  0
    9.0434  -17.6666   24.4855 O   0  0  0  0  0  0  0  0  0  0  0  0
    9.7789  -15.7084   25.3026 O   0  0  0  0  0  0  0  0  0  0  0  0
  2  4  1  0
  2  1  1  1
  2  3  1  0
  4  5  1  1
  6  4  1  0
  6  8  1  0
  7  6  2  0
  9  8  1  0
  9 10  1  0
 10 12  1  0
 10 11  2  0
 12 13  1  0
 13 14  1  1
 14 15  1  0
 15 16  2  0
 16 17  1  0
 18 17  1  0
 19 15  1  0
 19 18  2  0
 20 13  1  0
 20 22  1  0
 21 20  2  0
M  END
$$$$
