TGH.pdb
     RDKit          3D

 22 22  0  0  1  0  0  0  0  0999 V2000
    9.8934  -20.7622   20.1358 C   0  0  0  0  0  0  0  0  0  0  0  0
    9.8584  -19.3339   20.5759 C   0  0  1  0  0  0  0  0  0  0  0  0
   11.1707  -18.8732   20.6882 O   0  0  0  0  0  0  0  0  0  0  0  0
    9.1508  -18.4313   19.5866 C   0  0  2  0  0  0  0  0  0  0  0  0
    9.7634  -18.6064   18.3080 N   0  0  0  0  0  0  0  0  0  0  0  0
    9.1796  -17.0251   19.9805 C   0  0  0  0  0  0  0  0  0  0  0  0
   10.1480  -16.2731   19.7119 O   0  0  0  0  0  0  0  0  0  0  0  0
    8.0804  -16.4704   20.6943 N   0  0  0  0  0  0  0  0  0  0  0  0
    8.0637  -15.0964   21.1383 C   0  0  0  0  0  0  0  0  0  0  0  0
    8.7576  -15.0175   22.4475 C   0  0  0  0  0  0  0  0  0  0  0  0
    9.8487  -14.4054   22.5776 O   0  0  0  0  0  0  0  0  0  0  0  0
    8.2159  -15.6304   23.6043 N   0  0  0  0  0  0  0  0  0  0  0  0
    8.8295  -15.4246   24.8824 C   0  0  1  0  0  0  0  0  0  0  0  0
    7.8198  -15.2296   25.9828 C   0  0  0  0  0  0  0  0  0  0  0  0
    7.2307  -13.8725   25.9683 C   0  0  0  0  0  0  0  0  0  0  0  0
    7.5807  -12.7695   25.1975 C   0  0  0  0  0  0  0  0  0  0  0  0
    6.7792  -11.7439   25.5309 N   0  0  0  0  0  0  0  0  0  0  0  0
    5.9351  -12.1399   26.4773 C   0  0  0  0  0  0  0  0  0  0  0  0
    6.2042  -13.4093   26.7383 N   0  0  0  0  0  0  0  0  0  0  0  0
    9.8269  -16.4984   25.1874 C   0  0  0  0  0  0  0  0  0  0  0  0
   10.4142  -16.6197   26.2865 O   0  0  0  0  0  0  0  0  0  0  0  0
   10.1631  -17.4565   24.2177 O   0  0  0  0  0  0  0  0  0  0  0  0
  2  4  1  0
  2  1  1  6
  2  3  1  0
  4  5  1  6
  6  4  1  0
  6  8  1  0
  7  6  2  0
  9  8  1  0
  9 10  1  0
 10 12  1  0
 10 11  2  0
 12 13  1  0
 13 14  1  1
 14 15  1  0
 15 16  2  0
 16 17  1  0
 18 17  1  0
 19 15  1  0
 19 18  2  0
 20 13  1  0
 20 22  1  0
 21 20  2  0
M  END
$$$$
