TGH.pdb
     RDKit          3D

 22 22  0  0  1  0  0  0  0  0999 V2000
    9.0371  -22.1148   18.1856 C   0  0  0  0  0  0  0  0  0  0  0  0
    9.9105  -20.9017   18.1781 C   0  0  1  0  0  0  0  0  0  0  0  0
   10.1993  -20.5724   16.8533 O   0  0  0  0  0  0  0  0  0  0  0  0
    9.2443  -19.6939   18.8039 C   0  0  2  0  0  0  0  0  0  0  0  0
    7.9496  -19.5471   18.2182 N   0  0  0  0  0  0  0  0  0  0  0  0
   10.0226  -18.4687   18.6408 C   0  0  0  0  0  0  0  0  0  0  0  0
   10.0692  -17.8436   17.5534 O   0  0  0  0  0  0  0  0  0  0  0  0
   10.7601  -17.9503   19.7421 N   0  0  0  0  0  0  0  0  0  0  0  0
   11.4948  -16.7097   19.6626 C   0  0  0  0  0  0  0  0  0  0  0  0
   11.1388  -15.8770   20.8380 C   0  0  0  0  0  0  0  0  0  0  0  0
   11.7360  -14.7978   21.0845 O   0  0  0  0  0  0  0  0  0  0  0  0
   10.1096  -16.2670   21.7301 N   0  0  0  0  0  0  0  0  0  0  0  0
    9.7768  -15.4396   22.8513 C   0  0  1  0  0  0  0  0  0  0  0  0
    8.3343  -15.0067   22.8412 C   0  0  0  0  0  0  0  0  0  0  0  0
    7.9484  -14.3736   21.5609 C   0  0  0  0  0  0  0  0  0  0  0  0
    8.4308  -13.2087   20.9747 C   0  0  0  0  0  0  0  0  0  0  0  0
    7.7797  -13.0126   19.8159 N   0  0  0  0  0  0  0  0  0  0  0  0
    6.9053  -13.9963   19.6350 C   0  0  0  0  0  0  0  0  0  0  0  0
    7.0058  -14.8081   20.6756 N   0  0  0  0  0  0  0  0  0  0  0  0
   10.1865  -16.0791   24.1413 C   0  0  0  0  0  0  0  0  0  0  0  0
    9.9563  -15.5912   25.2712 O   0  0  0  0  0  0  0  0  0  0  0  0
   10.8745  -17.3030   24.1443 O   0  0  0  0  0  0  0  0  0  0  0  0
  2  4  1  0
  2  1  1  6
  2  3  1  0
  4  5  1  6
  6  4  1  0
  6  8  1  0
  7  6  2  0
  9  8  1  0
  9 10  1  0
 10 12  1  0
 10 11  2  0
 12 13  1  0
 13 14  1  1
 14 15  1  0
 15 16  2  0
 16 17  1  0
 18 17  1  0
 19 15  1  0
 19 18  2  0
 20 13  1  0
 20 22  1  0
 21 20  2  0
M  END
$$$$
