TGH.pdb
     RDKit          3D

 22 22  0  0  1  0  0  0  0  0999 V2000
    7.4696  -12.8394   18.1921 C   0  0  0  0  0  0  0  0  0  0  0  0
    8.0549  -14.0368   18.8692 C   0  0  1  0  0  0  0  0  0  0  0  0
    8.6559  -14.8426   17.9015 O   0  0  0  0  0  0  0  0  0  0  0  0
    9.1251  -13.6766   19.8787 C   0  0  2  0  0  0  0  0  0  0  0  0
   10.1924  -13.0299   19.1834 N   0  0  0  0  0  0  0  0  0  0  0  0
    9.6218  -14.8352   20.6167 C   0  0  0  0  0  0  0  0  0  0  0  0
   10.8093  -15.2307   20.5237 O   0  0  0  0  0  0  0  0  0  0  0  0
    8.7432  -15.5530   21.4759 N   0  0  0  0  0  0  0  0  0  0  0  0
    9.1895  -16.6679   22.2779 C   0  0  0  0  0  0  0  0  0  0  0  0
   10.0184  -16.1432   23.3913 C   0  0  0  0  0  0  0  0  0  0  0  0
   11.2499  -16.3881   23.4663 O   0  0  0  0  0  0  0  0  0  0  0  0
    9.4525  -15.3442   24.4153 N   0  0  0  0  0  0  0  0  0  0  0  0
    9.3238  -15.8624   25.7447 C   0  0  1  0  0  0  0  0  0  0  0  0
    7.9310  -15.7012   26.2948 C   0  0  0  0  0  0  0  0  0  0  0  0
    7.4684  -14.2968   26.2455 C   0  0  0  0  0  0  0  0  0  0  0  0
    8.1547  -13.1580   25.8388 C   0  0  0  0  0  0  0  0  0  0  0  0
    7.3411  -12.0975   25.9755 N   0  0  0  0  0  0  0  0  0  0  0  0
    6.1691  -12.5052   26.4497 C   0  0  0  0  0  0  0  0  0  0  0  0
    6.2448  -13.8168   26.6108 N   0  0  0  0  0  0  0  0  0  0  0  0
    9.8283  -17.2691   25.8326 C   0  0  0  0  0  0  0  0  0  0  0  0
    9.2778  -18.2483   25.2796 O   0  0  0  0  0  0  0  0  0  0  0  0
   10.9867  -17.5672   26.5676 O   0  0  0  0  0  0  0  0  0  0  0  0
  2  4  1  0
  2  1  1  6
  2  3  1  0
  4  5  1  6
  6  4  1  0
  6  8  1  0
  7  6  2  0
  9  8  1  0
  9 10  1  0
 10 12  1  0
 10 11  2  0
 12 13  1  0
 13 14  1  6
 14 15  1  0
 15 16  2  0
 16 17  1  0
 18 17  1  0
 19 15  1  0
 19 18  2  0
 20 13  1  0
 20 22  1  0
 21 20  2  0
M  END
$$$$
