TGH.pdb
     RDKit          3D

 22 22  0  0  1  0  0  0  0  0999 V2000
    7.9446  -11.8252   19.1011 C   0  0  0  0  0  0  0  0  0  0  0  0
    8.3944  -13.2439   18.9613 C   0  0  1  0  0  0  0  0  0  0  0  0
    9.7625  -13.3029   19.2294 O   0  0  0  0  0  0  0  0  0  0  0  0
    7.7071  -14.1772   19.9363 C   0  0  2  0  0  0  0  0  0  0  0  0
    7.8880  -13.6555   21.2538 N   0  0  0  0  0  0  0  0  0  0  0  0
    8.2041  -15.5484   19.8554 C   0  0  0  0  0  0  0  0  0  0  0  0
    8.0585  -16.2548   18.8282 O   0  0  0  0  0  0  0  0  0  0  0  0
    8.8792  -16.1203   20.9700 N   0  0  0  0  0  0  0  0  0  0  0  0
    9.3786  -17.4753   20.9568 C   0  0  0  0  0  0  0  0  0  0  0  0
   10.8060  -17.4535   21.3619 C   0  0  0  0  0  0  0  0  0  0  0  0
   11.5165  -18.4907   21.3225 O   0  0  0  0  0  0  0  0  0  0  0  0
   11.4246  -16.2603   21.8097 N   0  0  0  0  0  0  0  0  0  0  0  0
   12.8102  -16.2604   22.1735 C   0  0  1  0  0  0  0  0  0  0  0  0
   13.5328  -15.0285   21.6953 C   0  0  0  0  0  0  0  0  0  0  0  0
   13.7074  -15.0164   20.2262 C   0  0  0  0  0  0  0  0  0  0  0  0
   13.3582  -15.9839   19.2906 C   0  0  0  0  0  0  0  0  0  0  0  0
   13.7180  -15.5485   18.0715 N   0  0  0  0  0  0  0  0  0  0  0  0
   14.2798  -14.3500   18.1847 C   0  0  0  0  0  0  0  0  0  0  0  0
   14.2736  -14.0325   19.4696 N   0  0  0  0  0  0  0  0  0  0  0  0
   12.9891  -16.5117   23.6384 C   0  0  0  0  0  0  0  0  0  0  0  0
   12.0439  -16.6353   24.4502 O   0  0  0  0  0  0  0  0  0  0  0  0
   14.2746  -16.6249   24.1913 O   0  0  0  0  0  0  0  0  0  0  0  0
  2  4  1  0
  2  1  1  1
  2  3  1  0
  4  5  1  1
  6  4  1  0
  6  8  1  0
  7  6  2  0
  9  8  1  0
  9 10  1  0
 10 12  1  0
 10 11  2  0
 12 13  1  0
 13 14  1  1
 14 15  1  0
 15 16  2  0
 16 17  1  0
 18 17  1  0
 19 15  1  0
 19 18  2  0
 20 13  1  0
 20 22  1  0
 21 20  2  0
M  END
$$$$
