TGH.pdb
     RDKit          3D

 22 22  0  0  1  0  0  0  0  0999 V2000
    6.3139  -14.6199   18.0893 C   0  0  0  0  0  0  0  0  0  0  0  0
    7.6587  -14.9227   18.6677 C   0  0  1  0  0  0  0  0  0  0  0  0
    8.4696  -15.4385   17.6560 O   0  0  0  0  0  0  0  0  0  0  0  0
    8.3537  -13.6932   19.2146 C   0  0  2  0  0  0  0  0  0  0  0  0
    8.4360  -12.7259   18.1666 N   0  0  0  0  0  0  0  0  0  0  0  0
    9.6815  -13.9830   19.7500 C   0  0  0  0  0  0  0  0  0  0  0  0
   10.7314  -13.7433   19.1053 O   0  0  0  0  0  0  0  0  0  0  0  0
    9.8089  -14.5572   21.0459 N   0  0  0  0  0  0  0  0  0  0  0  0
   11.0937  -14.7961   21.6605 C   0  0  0  0  0  0  0  0  0  0  0  0
   10.8693  -15.3852   23.0038 C   0  0  0  0  0  0  0  0  0  0  0  0
   11.8255  -15.6222   23.7859 O   0  0  0  0  0  0  0  0  0  0  0  0
    9.5658  -15.7039   23.4579 N   0  0  0  0  0  0  0  0  0  0  0  0
    9.3682  -16.2049   24.7855 C   0  0  1  0  0  0  0  0  0  0  0  0
    7.9487  -16.0380   25.2602 C   0  0  0  0  0  0  0  0  0  0  0  0
    7.5359  -14.6180   25.3041 C   0  0  0  0  0  0  0  0  0  0  0  0
    8.3044  -13.4725   25.1290 C   0  0  0  0  0  0  0  0  0  0  0  0
    7.5084  -12.3990   25.2677 N   0  0  0  0  0  0  0  0  0  0  0  0
    6.2694  -12.8048   25.5228 C   0  0  0  0  0  0  0  0  0  0  0  0
    6.2856  -14.1281   25.5446 N   0  0  0  0  0  0  0  0  0  0  0  0
    9.8680  -17.6097   24.9179 C   0  0  0  0  0  0  0  0  0  0  0  0
   10.1860  -18.3362   23.9490 O   0  0  0  0  0  0  0  0  0  0  0  0
   10.0088  -18.2008   26.1837 O   0  0  0  0  0  0  0  0  0  0  0  0
  2  4  1  0
  2  1  1  6
  2  3  1  0
  4  5  1  6
  6  4  1  0
  6  8  1  0
  7  6  2  0
  9  8  1  0
  9 10  1  0
 10 12  1  0
 10 11  2  0
 12 13  1  0
 13 14  1  6
 14 15  1  0
 15 16  2  0
 16 17  1  0
 18 17  1  0
 19 15  1  0
 19 18  2  0
 20 13  1  0
 20 22  1  0
 21 20  2  0
M  END
$$$$
