TGH.pdb
     RDKit          3D

 22 22  0  0  1  0  0  0  0  0999 V2000
    7.8940  -13.0640   18.8268 C   0  0  0  0  0  0  0  0  0  0  0  0
    8.3620  -14.1971   19.6822 C   0  0  1  0  0  0  0  0  0  0  0  0
    9.4770  -13.7737   20.4064 O   0  0  0  0  0  0  0  0  0  0  0  0
    7.3202  -14.6446   20.6865 C   0  0  2  0  0  0  0  0  0  0  0  0
    6.9561  -13.5155   21.4824 N   0  0  0  0  0  0  0  0  0  0  0  0
    7.7829  -15.7409   21.5335 C   0  0  0  0  0  0  0  0  0  0  0  0
    8.1060  -16.8598   21.0652 O   0  0  0  0  0  0  0  0  0  0  0  0
    7.8772  -15.5528   22.9410 N   0  0  0  0  0  0  0  0  0  0  0  0
    8.4183  -16.5631   23.8195 C   0  0  0  0  0  0  0  0  0  0  0  0
    9.2118  -15.8896   24.8772 C   0  0  0  0  0  0  0  0  0  0  0  0
   10.0846  -15.0284   24.5965 O   0  0  0  0  0  0  0  0  0  0  0  0
    9.0160  -16.1916   26.2474 N   0  0  0  0  0  0  0  0  0  0  0  0
    9.6822  -15.4233   27.2564 C   0  0  1  0  0  0  0  0  0  0  0  0
    8.7275  -14.5955   28.0761 C   0  0  0  0  0  0  0  0  0  0  0  0
    7.8360  -13.7694   27.2325 C   0  0  0  0  0  0  0  0  0  0  0  0
    8.0742  -12.5280   26.6534 C   0  0  0  0  0  0  0  0  0  0  0  0
    6.9730  -12.1519   25.9816 N   0  0  0  0  0  0  0  0  0  0  0  0
    6.0442  -13.0937   26.1045 C   0  0  0  0  0  0  0  0  0  0  0  0
    6.5587  -14.0585   26.8506 N   0  0  0  0  0  0  0  0  0  0  0  0
   10.5781  -16.2826   28.0930 C   0  0  0  0  0  0  0  0  0  0  0  0
   11.2895  -15.8526   29.0294 O   0  0  0  0  0  0  0  0  0  0  0  0
   10.6658  -17.6639   27.8574 O   0  0  0  0  0  0  0  0  0  0  0  0
  2  4  1  0
  2  1  1  1
  2  3  1  0
  4  5  1  1
  6  4  1  0
  6  8  1  0
  7  6  2  0
  9  8  1  0
  9 10  1  0
 10 12  1  0
 10 11  2  0
 12 13  1  0
 13 14  1  1
 14 15  1  0
 15 16  2  0
 16 17  1  0
 18 17  1  0
 19 15  1  0
 19 18  2  0
 20 13  1  0
 20 22  1  0
 21 20  2  0
M  END
$$$$
