TGH.pdb
     RDKit          3D

 22 22  0  0  1  0  0  0  0  0999 V2000
    8.6366  -12.5237   19.6720 C   0  0  0  0  0  0  0  0  0  0  0  0
    7.8409  -13.5380   18.9153 C   0  0  1  0  0  0  0  0  0  0  0  0
    7.5918  -13.0402   17.6358 O   0  0  0  0  0  0  0  0  0  0  0  0
    8.5724  -14.8537   18.7484 C   0  0  2  0  0  0  0  0  0  0  0  0
    7.8200  -15.6699   17.8493 N   0  0  0  0  0  0  0  0  0  0  0  0
    8.7857  -15.5489   20.0153 C   0  0  0  0  0  0  0  0  0  0  0  0
    7.9669  -16.3862   20.4668 O   0  0  0  0  0  0  0  0  0  0  0  0
    9.9569  -15.2805   20.7780 N   0  0  0  0  0  0  0  0  0  0  0  0
   10.2387  -15.9574   22.0221 C   0  0  0  0  0  0  0  0  0  0  0  0
    9.8238  -15.0754   23.1409 C   0  0  0  0  0  0  0  0  0  0  0  0
    9.1216  -14.0505   22.9447 O   0  0  0  0  0  0  0  0  0  0  0  0
   10.2040  -15.3550   24.4768 N   0  0  0  0  0  0  0  0  0  0  0  0
    9.2365  -15.8442   25.4133 C   0  0  1  0  0  0  0  0  0  0  0  0
    7.8224  -15.6778   24.9225 C   0  0  0  0  0  0  0  0  0  0  0  0
    7.2862  -14.3283   25.2060 C   0  0  0  0  0  0  0  0  0  0  0  0
    7.5338  -13.1275   24.5502 C   0  0  0  0  0  0  0  0  0  0  0  0
    6.8380  -12.1550   25.1629 N   0  0  0  0  0  0  0  0  0  0  0  0
    6.1587  -12.6779   26.1778 C   0  0  0  0  0  0  0  0  0  0  0  0
    6.4259  -13.9740   26.2037 N   0  0  0  0  0  0  0  0  0  0  0  0
    9.5477  -17.2461   25.8362 C   0  0  0  0  0  0  0  0  0  0  0  0
   10.0738  -18.1039   25.0912 O   0  0  0  0  0  0  0  0  0  0  0  0
    9.2527  -17.6809   27.1382 O   0  0  0  0  0  0  0  0  0  0  0  0
  2  4  1  0
  2  1  1  1
  2  3  1  0
  4  5  1  6
  6  4  1  0
  6  8  1  0
  7  6  2  0
  9  8  1  0
  9 10  1  0
 10 12  1  0
 10 11  2  0
 12 13  1  0
 13 14  1  6
 14 15  1  0
 15 16  2  0
 16 17  1  0
 18 17  1  0
 19 15  1  0
 19 18  2  0
 20 13  1  0
 20 22  1  0
 21 20  2  0
M  END
$$$$
