TGH.pdb
     RDKit          3D

 22 22  0  0  1  0  0  0  0  0999 V2000
    7.4842  -16.5702   14.8323 C   0  0  0  0  0  0  0  0  0  0  0  0
    8.8079  -17.2361   14.6345 C   0  0  1  0  0  0  0  0  0  0  0  0
    9.2045  -17.0477   13.3100 O   0  0  0  0  0  0  0  0  0  0  0  0
    9.8955  -16.6548   15.5138 C   0  0  2  0  0  0  0  0  0  0  0  0
   11.1117  -17.3508   15.2356 N   0  0  0  0  0  0  0  0  0  0  0  0
    9.5756  -16.7307   16.9370 C   0  0  0  0  0  0  0  0  0  0  0  0
    8.6835  -16.0212   17.4625 O   0  0  0  0  0  0  0  0  0  0  0  0
   10.2896  -17.6348   17.7726 N   0  0  0  0  0  0  0  0  0  0  0  0
    9.8300  -17.9894   19.0949 C   0  0  0  0  0  0  0  0  0  0  0  0
   10.1601  -16.8776   20.0206 C   0  0  0  0  0  0  0  0  0  0  0  0
   11.2434  -16.2450   19.9285 O   0  0  0  0  0  0  0  0  0  0  0  0
    9.2651  -16.4852   21.0463 N   0  0  0  0  0  0  0  0  0  0  0  0
    9.6023  -15.4013   21.9203 C   0  0  1  0  0  0  0  0  0  0  0  0
    8.5609  -14.3132   21.9189 C   0  0  0  0  0  0  0  0  0  0  0  0
    8.2828  -13.8057   20.5573 C   0  0  0  0  0  0  0  0  0  0  0  0
    8.7550  -12.6565   19.9331 C   0  0  0  0  0  0  0  0  0  0  0  0
    8.2272  -12.5933   18.6991 N   0  0  0  0  0  0  0  0  0  0  0  0
    7.4412  -13.6468   18.5064 C   0  0  0  0  0  0  0  0  0  0  0  0
    7.4743  -14.3700   19.6145 N   0  0  0  0  0  0  0  0  0  0  0  0
    9.9333  -15.8925   23.2951 C   0  0  0  0  0  0  0  0  0  0  0  0
   10.3311  -15.1567   24.2268 O   0  0  0  0  0  0  0  0  0  0  0  0
    9.8081  -17.2535   23.6161 O   0  0  0  0  0  0  0  0  0  0  0  0
  2  4  1  0
  2  1  1  6
  2  3  1  0
  4  5  1  1
  6  4  1  0
  6  8  1  0
  7  6  2  0
  9  8  1  0
  9 10  1  0
 10 12  1  0
 10 11  2  0
 12 13  1  0
 13 14  1  1
 14 15  1  0
 15 16  2  0
 16 17  1  0
 18 17  1  0
 19 15  1  0
 19 18  2  0
 20 13  1  0
 20 22  1  0
 21 20  2  0
M  END
$$$$
