TGH.pdb
     RDKit          3D

 22 22  0  0  1  0  0  0  0  0999 V2000
    6.7542  -12.2263   18.6265 C   0  0  0  0  0  0  0  0  0  0  0  0
    7.0483  -13.6597   18.9324 C   0  0  1  0  0  0  0  0  0  0  0  0
    6.6348  -14.4371   17.8499 O   0  0  0  0  0  0  0  0  0  0  0  0
    8.5253  -13.9262   19.1358 C   0  0  2  0  0  0  0  0  0  0  0  0
    9.1827  -13.7701   17.8771 N   0  0  0  0  0  0  0  0  0  0  0  0
    8.7916  -15.2502   19.6924 C   0  0  0  0  0  0  0  0  0  0  0  0
    9.3947  -16.1407   19.0454 O   0  0  0  0  0  0  0  0  0  0  0  0
    8.3596  -15.5596   21.0126 N   0  0  0  0  0  0  0  0  0  0  0  0
    8.5250  -16.8728   21.5902 C   0  0  0  0  0  0  0  0  0  0  0  0
    9.9765  -17.1351   21.7520 C   0  0  0  0  0  0  0  0  0  0  0  0
   10.5257  -18.1385   21.2288 O   0  0  0  0  0  0  0  0  0  0  0  0
   10.8014  -16.2630   22.5043 N   0  0  0  0  0  0  0  0  0  0  0  0
   12.1600  -16.6205   22.7851 C   0  0  1  0  0  0  0  0  0  0  0  0
   13.1378  -15.5622   22.3467 C   0  0  0  0  0  0  0  0  0  0  0  0
   13.0744  -15.3097   20.8903 C   0  0  0  0  0  0  0  0  0  0  0  0
   12.4345  -14.2850   20.2019 C   0  0  0  0  0  0  0  0  0  0  0  0
   12.6362  -14.4640   18.8856 N   0  0  0  0  0  0  0  0  0  0  0  0
   13.3738  -15.5535   18.7015 C   0  0  0  0  0  0  0  0  0  0  0  0
   13.6352  -16.0580   19.8970 N   0  0  0  0  0  0  0  0  0  0  0  0
   12.3336  -17.0201   24.2172 C   0  0  0  0  0  0  0  0  0  0  0  0
   11.4186  -16.9873   25.0713 O   0  0  0  0  0  0  0  0  0  0  0  0
   13.5786  -17.4675   24.6874 O   0  0  0  0  0  0  0  0  0  0  0  0
  2  4  1  0
  2  1  1  6
  2  3  1  0
  4  5  1  6
  6  4  1  0
  6  8  1  0
  7  6  2  0
  9  8  1  0
  9 10  1  0
 10 12  1  0
 10 11  2  0
 12 13  1  0
 13 14  1  1
 14 15  1  0
 15 16  2  0
 16 17  1  0
 18 17  1  0
 19 15  1  0
 19 18  2  0
 20 13  1  0
 20 22  1  0
 21 20  2  0
M  END
$$$$
