TKV.pdb
     RDKit          3D

 24 23  0  0  1  0  0  0  0  0999 V2000
   20.0688  -13.2454  -15.6373 C   0  0  0  0  0  0  0  0  0  0  0  0
   19.4696  -13.6537  -16.9628 C   0  0  1  0  0  0  0  0  0  0  0  0
   19.3903  -15.0479  -16.9843 O   0  0  0  0  0  0  0  0  0  0  0  0
   18.0864  -13.0589  -17.1248 C   0  0  2  0  0  0  0  0  0  0  0  0
   17.5280  -13.5943  -18.3384 N   0  0  0  0  0  0  0  0  0  0  0  0
   18.1321  -11.5760  -17.1320 C   0  0  0  0  0  0  0  0  0  0  0  0
   18.8039  -11.0029  -18.0213 O   0  0  0  0  0  0  0  0  0  0  0  0
   17.4507  -10.7973  -16.1799 N   0  0  0  0  0  0  0  0  0  0  0  0
   17.5609   -9.3701  -16.0447 C   0  0  1  0  0  0  0  0  0  0  0  0
   16.2917   -8.7567  -15.4735 C   0  0  0  0  0  0  0  0  0  0  0  0
   15.2431   -8.4940  -16.5006 C   0  0  0  0  0  0  0  0  0  0  0  0
   14.0185   -7.8224  -15.9496 C   0  0  0  0  0  0  0  0  0  0  0  0
   13.0741   -7.5939  -17.1369 C   0  0  0  0  0  0  0  0  0  0  0  0
   11.9369   -6.8028  -16.7787 N   0  0  0  0  0  0  0  0  0  0  0  0
   18.6396   -9.0436  -15.0798 C   0  0  0  0  0  0  0  0  0  0  0  0
   18.5084   -9.4330  -13.8952 O   0  0  0  0  0  0  0  0  0  0  0  0
   22.6262   -8.3751  -16.3282 C   0  0  0  0  0  0  0  0  0  0  0  0
   22.1672   -8.7738  -14.9473 C   0  0  2  0  0  0  0  0  0  0  0  0
   22.0654  -10.2640  -14.7738 C   0  0  0  0  0  0  0  0  0  0  0  0
   20.9021   -8.0611  -14.5316 C   0  0  2  0  0  0  0  0  0  0  0  0
   19.8033   -8.3202  -15.4207 N   0  0  0  0  0  0  0  0  0  0  0  0
   21.1733   -6.6143  -14.5200 C   0  0  0  0  0  0  0  0  0  0  0  0
   22.0246   -6.0664  -13.5848 O   0  0  0  0  0  0  0  0  0  0  0  0
   20.6378   -5.8618  -15.3552 O   0  0  0  0  0  0  0  0  0  0  0  0
  2  1  1  1
  2  3  1  0
  4  2  1  0
  4  5  1  6
  6  7  2  0
  6  4  1  0
  8  6  1  0
  9 10  1  1
  9  8  1  0
 10 11  1  0
 11 12  1  0
 13 14  1  0
 13 12  1  0
 15  9  1  0
 16 15  2  0
 18 20  1  0
 18 17  1  6
 19 18  1  0
 20 21  1  6
 21 15  1  0
 22 23  1  0
 22 20  1  0
 24 22  2  0
M  END
$$$$
