TKV.pdb
     RDKit          3D

 24 23  0  0  1  0  0  0  0  0999 V2000
   26.3163  -22.9944  -15.4361 C   0  0  0  0  0  0  0  0  0  0  0  0
   27.4494  -22.0552  -15.7773 C   0  0  1  0  0  0  0  0  0  0  0  0
   28.4746  -22.8126  -16.3484 O   0  0  0  0  0  0  0  0  0  0  0  0
   26.9852  -20.9987  -16.7578 C   0  0  2  0  0  0  0  0  0  0  0  0
   28.1515  -20.2803  -17.1994 N   0  0  0  0  0  0  0  0  0  0  0  0
   25.9696  -20.1045  -16.1495 C   0  0  0  0  0  0  0  0  0  0  0  0
   26.3592  -19.0621  -15.5731 O   0  0  0  0  0  0  0  0  0  0  0  0
   24.5928  -20.3861  -16.1982 N   0  0  0  0  0  0  0  0  0  0  0  0
   23.5566  -19.5517  -15.6528 C   0  0  1  0  0  0  0  0  0  0  0  0
   22.5193  -19.1805  -16.7015 C   0  0  0  0  0  0  0  0  0  0  0  0
   22.8735  -17.9612  -17.4835 C   0  0  0  0  0  0  0  0  0  0  0  0
   21.8114  -17.5451  -18.4597 C   0  0  0  0  0  0  0  0  0  0  0  0
   22.3693  -16.3372  -19.2237 C   0  0  0  0  0  0  0  0  0  0  0  0
   21.4169  -15.7910  -20.1413 N   0  0  0  0  0  0  0  0  0  0  0  0
   22.8217  -20.2951  -14.6001 C   0  0  0  0  0  0  0  0  0  0  0  0
   22.4314  -21.4573  -14.8627 O   0  0  0  0  0  0  0  0  0  0  0  0
   23.6418  -20.0809  -10.5465 C   0  0  0  0  0  0  0  0  0  0  0  0
   22.1828  -19.9286  -10.8995 C   0  0  2  0  0  0  0  0  0  0  0  0
   21.2659  -20.4723   -9.8388 C   0  0  0  0  0  0  0  0  0  0  0  0
   21.8606  -20.4754  -12.2701 C   0  0  2  0  0  0  0  0  0  0  0  0
   22.5379  -19.7675  -13.3214 N   0  0  0  0  0  0  0  0  0  0  0  0
   20.4080  -20.3618  -12.4795 C   0  0  0  0  0  0  0  0  0  0  0  0
   19.5468  -21.3014  -11.9550 O   0  0  0  0  0  0  0  0  0  0  0  0
   19.9337  -19.4147  -13.1341 O   0  0  0  0  0  0  0  0  0  0  0  0
  2  1  1  6
  2  3  1  0
  4  2  1  0
  4  5  1  1
  6  7  2  0
  6  4  1  0
  8  6  1  0
  9 10  1  6
  9  8  1  0
 10 11  1  0
 11 12  1  0
 13 14  1  0
 13 12  1  0
 15  9  1  0
 16 15  2  0
 18 20  1  0
 18 17  1  1
 19 18  1  0
 20 21  1  6
 21 15  1  0
 22 23  1  0
 22 20  1  0
 24 22  2  0
M  END
$$$$
