TKV.pdb
     RDKit          3D

 24 23  0  0  1  0  0  0  0  0999 V2000
   27.4307  -17.8423  -16.0149 C   0  0  0  0  0  0  0  0  0  0  0  0
   27.8140  -18.9379  -16.9820 C   0  0  1  0  0  0  0  0  0  0  0  0
   28.8424  -18.4516  -17.7925 O   0  0  0  0  0  0  0  0  0  0  0  0
   28.2889  -20.1648  -16.2320 C   0  0  2  0  0  0  0  0  0  0  0  0
   28.7599  -21.1103  -17.2095 N   0  0  0  0  0  0  0  0  0  0  0  0
   27.2143  -20.7264  -15.3772 C   0  0  0  0  0  0  0  0  0  0  0  0
   26.3626  -21.4793  -15.9049 O   0  0  0  0  0  0  0  0  0  0  0  0
   27.1204  -20.4436  -14.0030 N   0  0  0  0  0  0  0  0  0  0  0  0
   26.0431  -20.8550  -13.1441 C   0  0  1  0  0  0  0  0  0  0  0  0
   26.3474  -20.5723  -11.6809 C   0  0  0  0  0  0  0  0  0  0  0  0
   25.2269  -20.9228  -10.7615 C   0  0  0  0  0  0  0  0  0  0  0  0
   25.5172  -20.6208   -9.3196 C   0  0  0  0  0  0  0  0  0  0  0  0
   24.2785  -21.0539   -8.5247 C   0  0  0  0  0  0  0  0  0  0  0  0
   24.4240  -20.8106   -7.1222 N   0  0  0  0  0  0  0  0  0  0  0  0
   24.8246  -20.0717  -13.4643 C   0  0  0  0  0  0  0  0  0  0  0  0
   24.8672  -18.8277  -13.3136 O   0  0  0  0  0  0  0  0  0  0  0  0
   21.7807  -21.4732  -16.1102 C   0  0  0  0  0  0  0  0  0  0  0  0
   22.0446  -20.0434  -15.7071 C   0  0  2  0  0  0  0  0  0  0  0  0
   23.0210  -19.3512  -16.6174 C   0  0  0  0  0  0  0  0  0  0  0  0
   22.4287  -19.9157  -14.2520 C   0  0  2  0  0  0  0  0  0  0  0  0
   23.6220  -20.6481  -13.9283 N   0  0  0  0  0  0  0  0  0  0  0  0
   21.3175  -20.4333  -13.4370 C   0  0  0  0  0  0  0  0  0  0  0  0
   20.1349  -19.7328  -13.3354 O   0  0  0  0  0  0  0  0  0  0  0  0
   21.4280  -21.5127  -12.8261 O   0  0  0  0  0  0  0  0  0  0  0  0
  2  1  1  1
  2  3  1  0
  4  2  1  0
  4  5  1  6
  6  7  2  0
  6  4  1  0
  8  6  1  0
  9 10  1  1
  9  8  1  0
 10 11  1  0
 11 12  1  0
 13 14  1  0
 13 12  1  0
 15  9  1  0
 16 15  2  0
 18 20  1  0
 18 17  1  6
 19 18  1  0
 20 21  1  6
 21 15  1  0
 22 23  1  0
 22 20  1  0
 24 22  2  0
M  END
$$$$
