TKV.pdb
     RDKit          3D

 24 23  0  0  1  0  0  0  0  0999 V2000
   22.1032  -14.6280  -14.7674 C   0  0  0  0  0  0  0  0  0  0  0  0
   22.6461  -14.9430  -16.1416 C   0  0  1  0  0  0  0  0  0  0  0  0
   23.0566  -16.2780  -16.1431 O   0  0  0  0  0  0  0  0  0  0  0  0
   21.5777  -14.7340  -17.1943 C   0  0  2  0  0  0  0  0  0  0  0  0
   22.1142  -15.1936  -18.4481 N   0  0  0  0  0  0  0  0  0  0  0  0
   21.1453  -13.3160  -17.2526 C   0  0  0  0  0  0  0  0  0  0  0  0
   21.9422  -12.4664  -17.7149 O   0  0  0  0  0  0  0  0  0  0  0  0
   19.8785  -12.8965  -16.8091 N   0  0  0  0  0  0  0  0  0  0  0  0
   19.3828  -11.5483  -16.8733 C   0  0  1  0  0  0  0  0  0  0  0  0
   17.8627  -11.5033  -16.8476 C   0  0  0  0  0  0  0  0  0  0  0  0
   17.2340  -11.8791  -18.1465 C   0  0  0  0  0  0  0  0  0  0  0  0
   15.7330  -11.8724  -18.1106 C   0  0  0  0  0  0  0  0  0  0  0  0
   15.2608  -12.3133  -19.5022 C   0  0  0  0  0  0  0  0  0  0  0  0
   13.8342  -12.3198  -19.6121 N   0  0  0  0  0  0  0  0  0  0  0  0
   19.8317  -10.7956  -15.6763 C   0  0  0  0  0  0  0  0  0  0  0  0
   19.4991  -11.2298  -14.5481 O   0  0  0  0  0  0  0  0  0  0  0  0
   23.2372   -8.2101  -15.8379 C   0  0  0  0  0  0  0  0  0  0  0  0
   22.6932   -8.9376  -14.6332 C   0  0  2  0  0  0  0  0  0  0  0  0
   23.2795  -10.3123  -14.4678 C   0  0  0  0  0  0  0  0  0  0  0  0
   21.1832   -8.9513  -14.6006 C   0  0  2  0  0  0  0  0  0  0  0  0
   20.6113   -9.6198  -15.7369 N   0  0  0  0  0  0  0  0  0  0  0  0
   20.7121   -7.5568  -14.5827 C   0  0  0  0  0  0  0  0  0  0  0  0
   20.9061   -6.7638  -13.4723 O   0  0  0  0  0  0  0  0  0  0  0  0
   20.1304   -7.0710  -15.5707 O   0  0  0  0  0  0  0  0  0  0  0  0
  2  1  1  1
  2  3  1  0
  4  2  1  0
  4  5  1  6
  6  7  2  0
  6  4  1  0
  8  6  1  0
  9 10  1  1
  9  8  1  0
 10 11  1  0
 11 12  1  0
 13 14  1  0
 13 12  1  0
 15  9  1  0
 16 15  2  0
 18 20  1  0
 18 17  1  6
 19 18  1  0
 20 21  1  6
 21 15  1  0
 22 23  1  0
 22 20  1  0
 24 22  2  0
M  END
$$$$
