TKV.pdb
     RDKit          3D

 24 23  0  0  1  0  0  0  0  0999 V2000
   22.7819  -21.3355  -11.0650 C   0  0  0  0  0  0  0  0  0  0  0  0
   23.5886  -20.5180  -10.0833 C   0  0  1  0  0  0  0  0  0  0  0  0
   23.2857  -20.9730   -8.7981 O   0  0  0  0  0  0  0  0  0  0  0  0
   25.0704  -20.6814  -10.3492 C   0  0  2  0  0  0  0  0  0  0  0  0
   25.7738  -20.0117   -9.2870 N   0  0  0  0  0  0  0  0  0  0  0  0
   25.4413  -20.1590  -11.6873 C   0  0  0  0  0  0  0  0  0  0  0  0
   25.6070  -18.9242  -11.8222 O   0  0  0  0  0  0  0  0  0  0  0  0
   25.6118  -20.9986  -12.8023 N   0  0  0  0  0  0  0  0  0  0  0  0
   25.8901  -20.5525  -14.1406 C   0  0  1  0  0  0  0  0  0  0  0  0
   26.8535  -21.4852  -14.8585 C   0  0  0  0  0  0  0  0  0  0  0  0
   27.1883  -21.0443  -16.2431 C   0  0  0  0  0  0  0  0  0  0  0  0
   28.1018  -21.9892  -16.9691 C   0  0  0  0  0  0  0  0  0  0  0  0
   28.6656  -21.2165  -18.1687 C   0  0  0  0  0  0  0  0  0  0  0  0
   29.5362  -22.0214  -18.9695 N   0  0  0  0  0  0  0  0  0  0  0  0
   24.6401  -20.5664  -14.9397 C   0  0  0  0  0  0  0  0  0  0  0  0
   23.8869  -21.5636  -14.8383 O   0  0  0  0  0  0  0  0  0  0  0  0
   21.0878  -18.2948  -15.2883 C   0  0  0  0  0  0  0  0  0  0  0  0
   22.2734  -18.1278  -16.2063 C   0  0  2  0  0  0  0  0  0  0  0  0
   21.9317  -17.3934  -17.4732 C   0  0  0  0  0  0  0  0  0  0  0  0
   22.9836  -19.4335  -16.4750 C   0  0  2  0  0  0  0  0  0  0  0  0
   24.2525  -19.5211  -15.8062 N   0  0  0  0  0  0  0  0  0  0  0  0
   23.2023  -19.5465  -17.9263 C   0  0  0  0  0  0  0  0  0  0  0  0
   24.3970  -19.1529  -18.4896 O   0  0  0  0  0  0  0  0  0  0  0  0
   22.3113  -19.9996  -18.6687 O   0  0  0  0  0  0  0  0  0  0  0  0
  2  1  1  6
  2  3  1  0
  4  2  1  0
  4  5  1  1
  6  7  2  0
  6  4  1  0
  8  6  1  0
  9 10  1  6
  9  8  1  0
 10 11  1  0
 11 12  1  0
 13 14  1  0
 13 12  1  0
 15  9  1  0
 16 15  2  0
 18 20  1  0
 18 17  1  6
 19 18  1  0
 20 21  1  1
 21 15  1  0
 22 23  1  0
 22 20  1  0
 24 22  2  0
M  END
$$$$
