TKV.pdb
     RDKit          3D

 24 23  0  0  1  0  0  0  0  0999 V2000
   23.9330  -11.3551  -18.3908 C   0  0  0  0  0  0  0  0  0  0  0  0
   22.8739  -11.9223  -19.3069 C   0  0  1  0  0  0  0  0  0  0  0  0
   23.3378  -13.1485  -19.7886 O   0  0  0  0  0  0  0  0  0  0  0  0
   21.5755  -12.1251  -18.5543 C   0  0  2  0  0  0  0  0  0  0  0  0
   20.7008  -12.8887  -19.4048 N   0  0  0  0  0  0  0  0  0  0  0  0
   20.9769  -10.8298  -18.1485 C   0  0  0  0  0  0  0  0  0  0  0  0
   20.8462   -9.9339  -19.0150 O   0  0  0  0  0  0  0  0  0  0  0  0
   20.5540  -10.5757  -16.8317 N   0  0  0  0  0  0  0  0  0  0  0  0
   19.8952   -9.3764  -16.3899 C   0  0  1  0  0  0  0  0  0  0  0  0
   18.7625   -9.6780  -15.4206 C   0  0  0  0  0  0  0  0  0  0  0  0
   17.5421  -10.2225  -16.0822 C   0  0  0  0  0  0  0  0  0  0  0  0
   16.3956  -10.4428  -15.1382 C   0  0  0  0  0  0  0  0  0  0  0  0
   15.2115  -10.9154  -15.9917 C   0  0  0  0  0  0  0  0  0  0  0  0
   14.1093  -11.3539  -15.1916 N   0  0  0  0  0  0  0  0  0  0  0  0
   20.8552   -8.5283  -15.6414 C   0  0  0  0  0  0  0  0  0  0  0  0
   21.6136   -9.0864  -14.8136 O   0  0  0  0  0  0  0  0  0  0  0  0
   23.4945   -4.3346  -15.4430 C   0  0  0  0  0  0  0  0  0  0  0  0
   22.5169   -5.2595  -16.1250 C   0  0  2  0  0  0  0  0  0  0  0  0
   21.4392   -4.5224  -16.8709 C   0  0  0  0  0  0  0  0  0  0  0  0
   21.9542   -6.2992  -15.1850 C   0  0  2  0  0  0  0  0  0  0  0  0
   20.9619   -7.1303  -15.8092 N   0  0  0  0  0  0  0  0  0  0  0  0
   21.3401   -5.6013  -14.0436 C   0  0  0  0  0  0  0  0  0  0  0  0
   22.1243   -5.0356  -13.0614 O   0  0  0  0  0  0  0  0  0  0  0  0
   20.1020   -5.5108  -13.9470 O   0  0  0  0  0  0  0  0  0  0  0  0
  2  1  1  1
  2  3  1  0
  4  2  1  0
  4  5  1  6
  6  7  2  0
  6  4  1  0
  8  6  1  0
  9 10  1  1
  9  8  1  0
 10 11  1  0
 11 12  1  0
 13 14  1  0
 13 12  1  0
 15  9  1  0
 16 15  2  0
 18 20  1  0
 18 17  1  1
 19 18  1  0
 20 21  1  6
 21 15  1  0
 22 23  1  0
 22 20  1  0
 24 22  2  0
M  END
$$$$
