TKV.pdb
     RDKit          3D

 24 23  0  0  1  0  0  0  0  0999 V2000
   15.6391   -9.9782  -14.5335 C   0  0  0  0  0  0  0  0  0  0  0  0
   15.7109  -11.4287  -14.9500 C   0  0  1  0  0  0  0  0  0  0  0  0
   14.4536  -11.9976  -14.7348 O   0  0  0  0  0  0  0  0  0  0  0  0
   16.0811  -11.5421  -16.4140 C   0  0  2  0  0  0  0  0  0  0  0  0
   16.0240  -12.9367  -16.7649 N   0  0  0  0  0  0  0  0  0  0  0  0
   17.4136  -10.9477  -16.6831 C   0  0  0  0  0  0  0  0  0  0  0  0
   18.4311  -11.6590  -16.5121 O   0  0  0  0  0  0  0  0  0  0  0  0
   17.5714   -9.6208  -17.1209 N   0  0  0  0  0  0  0  0  0  0  0  0
   18.8315   -8.9757  -17.3727 C   0  0  1  0  0  0  0  0  0  0  0  0
   18.6725   -7.7530  -18.2633 C   0  0  0  0  0  0  0  0  0  0  0  0
   18.4452   -8.0875  -19.6986 C   0  0  0  0  0  0  0  0  0  0  0  0
   18.2323   -6.8827  -20.5689 C   0  0  0  0  0  0  0  0  0  0  0  0
   17.9933   -7.4076  -21.9906 C   0  0  0  0  0  0  0  0  0  0  0  0
   17.8509   -6.3479  -22.9414 N   0  0  0  0  0  0  0  0  0  0  0  0
   19.3991   -8.4771  -16.0959 C   0  0  0  0  0  0  0  0  0  0  0  0
   18.6206   -7.9331  -15.2774 O   0  0  0  0  0  0  0  0  0  0  0  0
   23.4629   -9.4382  -14.8484 C   0  0  0  0  0  0  0  0  0  0  0  0
   22.2990   -9.1633  -13.9286 C   0  0  2  0  0  0  0  0  0  0  0  0
   21.6061  -10.4178  -13.4732 C   0  0  0  0  0  0  0  0  0  0  0  0
   21.3347   -8.1532  -14.5041 C   0  0  2  0  0  0  0  0  0  0  0  0
   20.7647   -8.5810  -15.7520 N   0  0  0  0  0  0  0  0  0  0  0  0
   22.0652   -6.8940  -14.7219 C   0  0  0  0  0  0  0  0  0  0  0  0
   22.4610   -6.1175  -13.6543 O   0  0  0  0  0  0  0  0  0  0  0  0
   22.3374   -6.5098  -15.8747 O   0  0  0  0  0  0  0  0  0  0  0  0
  2  1  1  6
  2  3  1  0
  4  2  1  0
  4  5  1  1
  6  7  2  0
  6  4  1  0
  8  6  1  0
  9 10  1  6
  9  8  1  0
 10 11  1  0
 11 12  1  0
 13 14  1  0
 13 12  1  0
 15  9  1  0
 16 15  2  0
 18 20  1  0
 18 17  1  6
 19 18  1  0
 20 21  1  6
 21 15  1  0
 22 23  1  0
 22 20  1  0
 24 22  2  0
M  END
$$$$
