TKV.pdb
     RDKit          3D

 24 23  0  0  1  0  0  0  0  0999 V2000
   19.0466  -12.7667  -19.5940 C   0  0  0  0  0  0  0  0  0  0  0  0
   18.6485  -11.5304  -18.8223 C   0  0  1  0  0  0  0  0  0  0  0  0
   17.3801  -11.7540  -18.2821 O   0  0  0  0  0  0  0  0  0  0  0  0
   19.6390  -11.2585  -17.7095 C   0  0  2  0  0  0  0  0  0  0  0  0
   19.6926  -12.4367  -16.8847 N   0  0  0  0  0  0  0  0  0  0  0  0
   19.2673  -10.0472  -16.9378 C   0  0  0  0  0  0  0  0  0  0  0  0
   19.2834   -8.9382  -17.5214 O   0  0  0  0  0  0  0  0  0  0  0  0
   18.8998  -10.1020  -15.5817 N   0  0  0  0  0  0  0  0  0  0  0  0
   18.6406   -8.9605  -14.7467 C   0  0  1  0  0  0  0  0  0  0  0  0
   17.9766   -9.3573  -13.4370 C   0  0  0  0  0  0  0  0  0  0  0  0
   17.7528   -8.2097  -12.5115 C   0  0  0  0  0  0  0  0  0  0  0  0
   17.0385   -8.5896  -11.2467 C   0  0  0  0  0  0  0  0  0  0  0  0
   16.7646   -7.2831  -10.4904 C   0  0  0  0  0  0  0  0  0  0  0  0
   16.0812   -7.5075   -9.2535 N   0  0  0  0  0  0  0  0  0  0  0  0
   19.9235   -8.3161  -14.3726 C   0  0  0  0  0  0  0  0  0  0  0  0
   20.8199   -9.0350  -13.8710 O   0  0  0  0  0  0  0  0  0  0  0  0
   23.4340   -5.1174  -15.2745 C   0  0  0  0  0  0  0  0  0  0  0  0
   22.1266   -5.8170  -15.5531 C   0  0  2  0  0  0  0  0  0  0  0  0
   21.2004   -5.0022  -16.4129 C   0  0  0  0  0  0  0  0  0  0  0  0
   21.4545   -6.3074  -14.2924 C   0  0  2  0  0  0  0  0  0  0  0  0
   20.1905   -6.9409  -14.5498 N   0  0  0  0  0  0  0  0  0  0  0  0
   21.2353   -5.1502  -13.4095 C   0  0  0  0  0  0  0  0  0  0  0  0
   22.2909   -4.5623  -12.7464 O   0  0  0  0  0  0  0  0  0  0  0  0
   20.0923   -4.6836  -13.2473 O   0  0  0  0  0  0  0  0  0  0  0  0
  2  1  1  1
  2  3  1  0
  4  2  1  0
  4  5  1  1
  6  7  2  0
  6  4  1  0
  8  6  1  0
  9 10  1  1
  9  8  1  0
 10 11  1  0
 11 12  1  0
 13 14  1  0
 13 12  1  0
 15  9  1  0
 16 15  2  0
 18 20  1  0
 18 17  1  1
 19 18  1  0
 20 21  1  6
 21 15  1  0
 22 23  1  0
 22 20  1  0
 24 22  2  0
M  END
$$$$
