TKV.pdb
     RDKit          3D

 24 23  0  0  1  0  0  0  0  0999 V2000
   28.8155  -25.8774  -16.2888 C   0  0  0  0  0  0  0  0  0  0  0  0
   27.5541  -25.2999  -16.8871 C   0  0  1  0  0  0  0  0  0  0  0  0
   27.4911  -23.9509  -16.5307 O   0  0  0  0  0  0  0  0  0  0  0  0
   27.5747  -25.4313  -18.3956 C   0  0  2  0  0  0  0  0  0  0  0  0
   26.3863  -24.7941  -18.8985 N   0  0  0  0  0  0  0  0  0  0  0  0
   27.6726  -26.8512  -18.8141 C   0  0  0  0  0  0  0  0  0  0  0  0
   26.6239  -27.5362  -18.8547 O   0  0  0  0  0  0  0  0  0  0  0  0
   28.8956  -27.4501  -19.1647 N   0  0  0  0  0  0  0  0  0  0  0  0
   29.0503  -28.7935  -19.6535 C   0  0  1  0  0  0  0  0  0  0  0  0
   30.1686  -28.8963  -20.6794 C   0  0  0  0  0  0  0  0  0  0  0  0
   30.3457  -30.2703  -21.2310 C   0  0  0  0  0  0  0  0  0  0  0  0
   31.4263  -30.3653  -22.2690 C   0  0  0  0  0  0  0  0  0  0  0  0
   31.4051  -31.8078  -22.7910 C   0  0  0  0  0  0  0  0  0  0  0  0
   32.5022  -32.0818  -23.6676 N   0  0  0  0  0  0  0  0  0  0  0  0
   29.4410  -29.6876  -18.5359 C   0  0  0  0  0  0  0  0  0  0  0  0
   30.4181  -29.3512  -17.8259 O   0  0  0  0  0  0  0  0  0  0  0  0
   26.9009  -31.2852  -15.9508 C   0  0  0  0  0  0  0  0  0  0  0  0
   27.8454  -32.3379  -16.4762 C   0  0  2  0  0  0  0  0  0  0  0  0
   28.1794  -33.3862  -15.4511 C   0  0  0  0  0  0  0  0  0  0  0  0
   29.0806  -31.7412  -17.1084 C   0  0  2  0  0  0  0  0  0  0  0  0
   28.7748  -30.8940  -18.2281 N   0  0  0  0  0  0  0  0  0  0  0  0
   29.9395  -32.8448  -17.5679 C   0  0  0  0  0  0  0  0  0  0  0  0
   30.0351  -33.1495  -18.9086 O   0  0  0  0  0  0  0  0  0  0  0  0
   30.5939  -33.5211  -16.7525 O   0  0  0  0  0  0  0  0  0  0  0  0
  2  1  1  1
  2  3  1  0
  4  2  1  0
  4  5  1  6
  6  7  2  0
  6  4  1  0
  8  6  1  0
  9 10  1  6
  9  8  1  0
 10 11  1  0
 11 12  1  0
 13 14  1  0
 13 12  1  0
 15  9  1  0
 16 15  2  0
 18 20  1  0
 18 17  1  1
 19 18  1  0
 20 21  1  6
 21 15  1  0
 22 23  1  0
 22 20  1  0
 24 22  2  0
M  END
$$$$
