TKV.pdb
     RDKit          3D

 24 23  0  0  1  0  0  0  0  0999 V2000
   19.6912  -13.0181  -18.7450 C   0  0  0  0  0  0  0  0  0  0  0  0
   18.4724  -13.0078  -17.8523 C   0  0  1  0  0  0  0  0  0  0  0  0
   18.0505  -14.3293  -17.6900 O   0  0  0  0  0  0  0  0  0  0  0  0
   18.8086  -12.4076  -16.5032 C   0  0  2  0  0  0  0  0  0  0  0  0
   17.7170  -12.7090  -15.6149 N   0  0  0  0  0  0  0  0  0  0  0  0
   19.0637  -10.9498  -16.6076 C   0  0  0  0  0  0  0  0  0  0  0  0
   20.0309  -10.5604  -17.3030 O   0  0  0  0  0  0  0  0  0  0  0  0
   18.2611   -9.9966  -15.9561 N   0  0  0  0  0  0  0  0  0  0  0  0
   18.4320   -8.5715  -16.0423 C   0  0  1  0  0  0  0  0  0  0  0  0
   17.1177   -7.8317  -15.8451 C   0  0  0  0  0  0  0  0  0  0  0  0
   16.0819   -8.1775  -16.8605 C   0  0  0  0  0  0  0  0  0  0  0  0
   14.7844   -7.4474  -16.6664 C   0  0  0  0  0  0  0  0  0  0  0  0
   13.8391   -7.9350  -17.7721 C   0  0  0  0  0  0  0  0  0  0  0  0
   12.5488   -7.3222  -17.6894 N   0  0  0  0  0  0  0  0  0  0  0  0
   19.3252   -8.1106  -14.9510 C   0  0  0  0  0  0  0  0  0  0  0  0
   19.0343   -8.4339  -13.7751 O   0  0  0  0  0  0  0  0  0  0  0  0
   23.4227   -7.4801  -15.5416 C   0  0  0  0  0  0  0  0  0  0  0  0
   22.7194   -7.6935  -14.2239 C   0  0  2  0  0  0  0  0  0  0  0  0
   22.5636   -9.1478  -13.8744 C   0  0  0  0  0  0  0  0  0  0  0  0
   21.4126   -6.9410  -14.1388 C   0  0  2  0  0  0  0  0  0  0  0  0
   20.4825   -7.3297  -15.1629 N   0  0  0  0  0  0  0  0  0  0  0  0
   21.7006   -5.5042  -14.2787 C   0  0  0  0  0  0  0  0  0  0  0  0
   22.4072   -4.8311  -13.3054 O   0  0  0  0  0  0  0  0  0  0  0  0
   21.3105   -4.8735  -15.2789 O   0  0  0  0  0  0  0  0  0  0  0  0
  2  1  1  6
  2  3  1  0
  4  2  1  0
  4  5  1  1
  6  7  2  0
  6  4  1  0
  8  6  1  0
  9 10  1  1
  9  8  1  0
 10 11  1  0
 11 12  1  0
 13 14  1  0
 13 12  1  0
 15  9  1  0
 16 15  2  0
 18 20  1  0
 18 17  1  6
 19 18  1  0
 20 21  1  6
 21 15  1  0
 22 23  1  0
 22 20  1  0
 24 22  2  0
M  END
$$$$
