VYA.pdb
     RDKit          3D

 25 25  0  0  1  0  0  0  0  0999 V2000
   17.3116   -9.8480  -18.1321 C   0  0  0  0  0  0  0  0  0  0  0  0
   18.4298   -9.3141  -19.0146 C   0  0  2  0  0  0  0  0  0  0  0  0
   18.6423  -10.2455  -20.1935 C   0  0  0  0  0  0  0  0  0  0  0  0
   19.6936   -9.3567  -18.1874 C   0  0  2  0  0  0  0  0  0  0  0  0
   19.8890  -10.7091  -17.7490 N   0  0  0  0  0  0  0  0  0  0  0  0
   19.4916   -8.4527  -17.0136 C   0  0  0  0  0  0  0  0  0  0  0  0
   18.8639   -8.8040  -15.9916 O   0  0  0  0  0  0  0  0  0  0  0  0
   23.3220  -10.4790  -12.6449 O   0  0  0  0  0  0  0  0  0  0  0  0
   22.7630   -9.3716  -13.2494 C   0  0  0  0  0  0  0  0  0  0  0  0
   23.2278   -8.9887  -14.4940 C   0  0  0  0  0  0  0  0  0  0  0  0
   22.6583   -7.8780  -15.0863 C   0  0  0  0  0  0  0  0  0  0  0  0
   21.6639   -7.1674  -14.4725 C   0  0  0  0  0  0  0  0  0  0  0  0
   21.0361   -5.9763  -15.0496 C   0  0  0  0  0  0  0  0  0  0  0  0
   19.8494   -6.2796  -15.8349 C   0  0  2  0  0  0  0  0  0  0  0  0
   19.9910   -7.1374  -16.9669 N   0  0  0  0  0  0  0  0  0  0  0  0
   19.1800   -5.0442  -16.2914 C   0  0  0  0  0  0  0  0  0  0  0  0
   19.5517   -4.3659  -17.3058 O   0  0  0  0  0  0  0  0  0  0  0  0
   21.2306   -7.5841  -13.2327 C   0  0  0  0  0  0  0  0  0  0  0  0
   21.7722   -8.6894  -12.6042 C   0  0  0  0  0  0  0  0  0  0  0  0
   16.0453   -3.3049  -15.3417 C   0  0  0  0  0  0  0  0  0  0  0  0
   17.3936   -3.3711  -16.0278 C   0  0  2  0  0  0  0  0  0  0  0  0
   18.0466   -4.5732  -15.5585 N   0  0  0  0  0  0  0  0  0  0  0  0
   18.2228   -2.1929  -15.6901 C   0  0  0  0  0  0  0  0  0  0  0  0
   19.3120   -2.2739  -14.8465 O   0  0  0  0  0  0  0  0  0  0  0  0
   17.9404   -1.0747  -16.1785 O   0  0  0  0  0  0  0  0  0  0  0  0
  2  1  1  1
  2  4  1  0
  3  2  1  0
  4  6  1  0
  4  5  1  1
  6  7  2  0
  8  9  1  0
  9 10  2  0
  9 19  1  0
 10 11  1  0
 11 12  2  0
 12 13  1  0
 14 13  1  6
 14 16  1  0
 15 14  1  0
 15  6  1  0
 16 17  2  0
 18 12  1  0
 19 18  2  0
 21 20  1  1
 21 23  1  0
 22 21  1  0
 22 16  1  0
 23 25  2  0
 23 24  1  0
M  END
$$$$
