VYA.pdb
     RDKit          3D

 25 25  0  0  1  0  0  0  0  0999 V2000
   26.8158  -19.7168  -15.4936 C   0  0  0  0  0  0  0  0  0  0  0  0
   27.3688  -18.8540  -14.3692 C   0  0  2  0  0  0  0  0  0  0  0  0
   28.5149  -18.0063  -14.8889 C   0  0  0  0  0  0  0  0  0  0  0  0
   27.9507  -19.7986  -13.3433 C   0  0  2  0  0  0  0  0  0  0  0  0
   28.8443  -20.6925  -14.0228 N   0  0  0  0  0  0  0  0  0  0  0  0
   26.8140  -20.5587  -12.7382 C   0  0  0  0  0  0  0  0  0  0  0  0
   26.5544  -21.7421  -13.0451 O   0  0  0  0  0  0  0  0  0  0  0  0
   28.5413  -20.2221   -6.0915 O   0  0  0  0  0  0  0  0  0  0  0  0
   27.5251  -20.2320   -7.0251 C   0  0  0  0  0  0  0  0  0  0  0  0
   27.0564  -19.0249   -7.5097 C   0  0  0  0  0  0  0  0  0  0  0  0
   26.0389  -19.0512   -8.4438 C   0  0  0  0  0  0  0  0  0  0  0  0
   25.5003  -20.2280   -8.8860 C   0  0  0  0  0  0  0  0  0  0  0  0
   24.4126  -20.3117   -9.8636 C   0  0  0  0  0  0  0  0  0  0  0  0
   24.8632  -20.7172  -11.1863 C   0  0  2  0  0  0  0  0  0  0  0  0
   25.9483  -20.0028  -11.7774 N   0  0  0  0  0  0  0  0  0  0  0  0
   23.7475  -20.7167  -12.1548 C   0  0  0  0  0  0  0  0  0  0  0  0
   23.3457  -19.6785  -12.7777 O   0  0  0  0  0  0  0  0  0  0  0  0
   25.9974  -21.4079   -8.3768 C   0  0  0  0  0  0  0  0  0  0  0  0
   27.0145  -21.4276   -7.4414 C   0  0  0  0  0  0  0  0  0  0  0  0
   21.9333  -23.3398  -13.9749 C   0  0  0  0  0  0  0  0  0  0  0  0
   22.0131  -21.9408  -13.4012 C   0  0  2  0  0  0  0  0  0  0  0  0
   23.0720  -21.9492  -12.4161 N   0  0  0  0  0  0  0  0  0  0  0  0
   20.7388  -21.5552  -12.7553 C   0  0  0  0  0  0  0  0  0  0  0  0
   19.5776  -21.3550  -13.4739 O   0  0  0  0  0  0  0  0  0  0  0  0
   20.6945  -21.4007  -11.5132 O   0  0  0  0  0  0  0  0  0  0  0  0
  2  1  1  6
  2  4  1  0
  3  2  1  0
  4  6  1  0
  4  5  1  6
  6  7  2  0
  8  9  1  0
  9 10  2  0
  9 19  1  0
 10 11  1  0
 11 12  2  0
 12 13  1  0
 14 13  1  1
 14 16  1  0
 15 14  1  0
 15  6  1  0
 16 17  2  0
 18 12  1  0
 19 18  2  0
 21 20  1  1
 21 23  1  0
 22 21  1  0
 22 16  1  0
 23 25  2  0
 23 24  1  0
M  END
$$$$
