VYA.pdb
     RDKit          3D

 25 25  0  0  1  0  0  0  0  0999 V2000
   27.5268  -17.3600  -15.5759 C   0  0  0  0  0  0  0  0  0  0  0  0
   27.9134  -18.8137  -15.8033 C   0  0  2  0  0  0  0  0  0  0  0  0
   28.8832  -18.9110  -16.9661 C   0  0  0  0  0  0  0  0  0  0  0  0
   26.6540  -19.5378  -16.2195 C   0  0  2  0  0  0  0  0  0  0  0  0
   26.0841  -18.8296  -17.3298 N   0  0  0  0  0  0  0  0  0  0  0  0
   25.7189  -19.5170  -15.0529 C   0  0  0  0  0  0  0  0  0  0  0  0
   25.1276  -18.4808  -14.6805 O   0  0  0  0  0  0  0  0  0  0  0  0
   19.7418  -19.1709  -16.9730 O   0  0  0  0  0  0  0  0  0  0  0  0
   20.6113  -19.7218  -16.0538 C   0  0  0  0  0  0  0  0  0  0  0  0
   20.4459  -19.4147  -14.7160 C   0  0  0  0  0  0  0  0  0  0  0  0
   21.3242  -19.9740  -13.8079 C   0  0  0  0  0  0  0  0  0  0  0  0
   22.3327  -20.8082  -14.2047 C   0  0  0  0  0  0  0  0  0  0  0  0
   23.2981  -21.4163  -13.2862 C   0  0  0  0  0  0  0  0  0  0  0  0
   24.5348  -20.6582  -13.1727 C   0  0  2  0  0  0  0  0  0  0  0  0
   25.4312  -20.6602  -14.2834 N   0  0  0  0  0  0  0  0  0  0  0  0
   25.3030  -21.0637  -11.9777 C   0  0  0  0  0  0  0  0  0  0  0  0
   25.7971  -22.2277  -11.8098 O   0  0  0  0  0  0  0  0  0  0  0  0
   22.4612  -21.0877  -15.5478 C   0  0  0  0  0  0  0  0  0  0  0  0
   21.6048  -20.5502  -16.4899 C   0  0  0  0  0  0  0  0  0  0  0  0
   26.6150  -19.3955   -8.9563 C   0  0  0  0  0  0  0  0  0  0  0  0
   25.9876  -20.5784   -9.6633 C   0  0  2  0  0  0  0  0  0  0  0  0
   25.5104  -20.1001  -10.9421 N   0  0  0  0  0  0  0  0  0  0  0  0
   24.8543  -21.1259   -8.8851 C   0  0  0  0  0  0  0  0  0  0  0  0
   25.0360  -21.8349   -7.7151 O   0  0  0  0  0  0  0  0  0  0  0  0
   23.6817  -20.9489   -9.2881 O   0  0  0  0  0  0  0  0  0  0  0  0
  2  1  1  6
  2  4  1  0
  3  2  1  0
  4  6  1  0
  4  5  1  6
  6  7  2  0
  8  9  1  0
  9 10  2  0
  9 19  1  0
 10 11  1  0
 11 12  2  0
 12 13  1  0
 14 13  1  6
 14 16  1  0
 15 14  1  0
 15  6  1  0
 16 17  2  0
 18 12  1  0
 19 18  2  0
 21 20  1  1
 21 23  1  0
 22 21  1  0
 22 16  1  0
 23 25  2  0
 23 24  1  0
M  END
$$$$
