VYA.pdb
     RDKit          3D

 25 25  0  0  1  0  0  0  0  0999 V2000
   21.4485  -14.9037  -19.6046 C   0  0  0  0  0  0  0  0  0  0  0  0
   21.6090  -13.6825  -18.7115 C   0  0  2  0  0  0  0  0  0  0  0  0
   20.5547  -12.6489  -19.0612 C   0  0  0  0  0  0  0  0  0  0  0  0
   22.9505  -13.0729  -19.0467 C   0  0  2  0  0  0  0  0  0  0  0  0
   23.9641  -14.0424  -18.7436 N   0  0  0  0  0  0  0  0  0  0  0  0
   23.1177  -11.8590  -18.1899 C   0  0  0  0  0  0  0  0  0  0  0  0
   23.6424  -11.9004  -17.0563 O   0  0  0  0  0  0  0  0  0  0  0  0
   23.2575   -3.4585  -15.6749 O   0  0  0  0  0  0  0  0  0  0  0  0
   23.3690   -4.6618  -16.3412 C   0  0  0  0  0  0  0  0  0  0  0  0
   24.2781   -5.5953  -15.8790 C   0  0  0  0  0  0  0  0  0  0  0  0
   24.3782   -6.7951  -16.5566 C   0  0  0  0  0  0  0  0  0  0  0  0
   23.6084   -7.0663  -17.6541 C   0  0  0  0  0  0  0  0  0  0  0  0
   23.6842   -8.3150  -18.4161 C   0  0  0  0  0  0  0  0  0  0  0  0
   22.9176   -9.3971  -17.8175 C   0  0  2  0  0  0  0  0  0  0  0  0
   22.6985  -10.5764  -18.5911 N   0  0  0  0  0  0  0  0  0  0  0  0
   21.6010   -8.9219  -17.3446 C   0  0  0  0  0  0  0  0  0  0  0  0
   20.6273   -8.6363  -18.1176 O   0  0  0  0  0  0  0  0  0  0  0  0
   22.7152   -6.1077  -18.0806 C   0  0  0  0  0  0  0  0  0  0  0  0
   22.5825   -4.8945  -17.4324 C   0  0  0  0  0  0  0  0  0  0  0  0
   19.3794   -9.2890  -14.7885 C   0  0  0  0  0  0  0  0  0  0  0  0
   20.1462   -8.1926  -15.4975 C   0  0  2  0  0  0  0  0  0  0  0  0
   21.3969   -8.7703  -15.9378 N   0  0  0  0  0  0  0  0  0  0  0  0
   20.4181   -7.0573  -14.5881 C   0  0  0  0  0  0  0  0  0  0  0  0
   21.6972   -6.7070  -14.2062 O   0  0  0  0  0  0  0  0  0  0  0  0
   19.4652   -6.3795  -14.1396 O   0  0  0  0  0  0  0  0  0  0  0  0
  2  1  1  6
  2  4  1  0
  3  2  1  0
  4  6  1  0
  4  5  1  1
  6  7  2  0
  8  9  1  0
  9 10  2  0
  9 19  1  0
 10 11  1  0
 11 12  2  0
 12 13  1  0
 14 13  1  6
 14 16  1  0
 15 14  1  0
 15  6  1  0
 16 17  2  0
 18 12  1  0
 19 18  2  0
 21 20  1  1
 21 23  1  0
 22 21  1  0
 22 16  1  0
 23 25  2  0
 23 24  1  0
M  END
$$$$
