VYA.pdb
     RDKit          3D

 25 25  0  0  1  0  0  0  0  0999 V2000
   20.3614  -22.3247  -10.6651 C   0  0  0  0  0  0  0  0  0  0  0  0
   21.5709  -21.4957  -11.0707 C   0  0  2  0  0  0  0  0  0  0  0  0
   22.1892  -22.0725  -12.3305 C   0  0  0  0  0  0  0  0  0  0  0  0
   22.5929  -21.6510   -9.9685 C   0  0  2  0  0  0  0  0  0  0  0  0
   22.0047  -21.1724   -8.7503 N   0  0  0  0  0  0  0  0  0  0  0  0
   23.7790  -20.8181  -10.3367 C   0  0  0  0  0  0  0  0  0  0  0  0
   23.7485  -19.5687  -10.3482 O   0  0  0  0  0  0  0  0  0  0  0  0
   27.9787  -19.2161   -5.1075 O   0  0  0  0  0  0  0  0  0  0  0  0
   27.8408  -19.6278   -6.4174 C   0  0  0  0  0  0  0  0  0  0  0  0
   27.1035  -18.8444   -7.2858 C   0  0  0  0  0  0  0  0  0  0  0  0
   26.9745  -19.2698   -8.5939 C   0  0  0  0  0  0  0  0  0  0  0  0
   27.5526  -20.4292   -9.0322 C   0  0  0  0  0  0  0  0  0  0  0  0
   27.4360  -20.9320  -10.4031 C   0  0  0  0  0  0  0  0  0  0  0  0
   26.1680  -20.5923  -11.0304 C   0  0  2  0  0  0  0  0  0  0  0  0
   25.0207  -21.3738  -10.6985 N   0  0  0  0  0  0  0  0  0  0  0  0
   26.2870  -20.5763  -12.5029 C   0  0  0  0  0  0  0  0  0  0  0  0
   26.4320  -21.6233  -13.2171 O   0  0  0  0  0  0  0  0  0  0  0  0
   28.2790  -21.1794   -8.1333 C   0  0  0  0  0  0  0  0  0  0  0  0
   28.4336  -20.7911   -6.8160 C   0  0  0  0  0  0  0  0  0  0  0  0
   26.0802  -17.8981  -15.0802 C   0  0  0  0  0  0  0  0  0  0  0  0
   26.3162  -19.3214  -14.6206 C   0  0  2  0  0  0  0  0  0  0  0  0
   26.2376  -19.3163  -13.1765 N   0  0  0  0  0  0  0  0  0  0  0  0
   27.6498  -19.8044  -15.0422 C   0  0  0  0  0  0  0  0  0  0  0  0
   27.8713  -20.3757  -16.2789 O   0  0  0  0  0  0  0  0  0  0  0  0
   28.6234  -19.6989  -14.2615 O   0  0  0  0  0  0  0  0  0  0  0  0
  2  1  1  1
  2  4  1  0
  3  2  1  0
  4  6  1  0
  4  5  1  1
  6  7  2  0
  8  9  1  0
  9 10  2  0
  9 19  1  0
 10 11  1  0
 11 12  2  0
 12 13  1  0
 14 13  1  1
 14 16  1  0
 15 14  1  0
 15  6  1  0
 16 17  2  0
 18 12  1  0
 19 18  2  0
 21 20  1  1
 21 23  1  0
 22 21  1  0
 22 16  1  0
 23 25  2  0
 23 24  1  0
M  END
$$$$
