VYA.pdb
     RDKit          3D

 25 25  0  0  1  0  0  0  0  0999 V2000
   16.1658   -7.9406  -17.5092 C   0  0  0  0  0  0  0  0  0  0  0  0
   17.2435   -8.0826  -18.5735 C   0  0  2  0  0  0  0  0  0  0  0  0
   16.7902   -9.0675  -19.6348 C   0  0  0  0  0  0  0  0  0  0  0  0
   18.4474   -8.6923  -17.8935 C   0  0  2  0  0  0  0  0  0  0  0  0
   18.0585   -9.9705  -17.3700 N   0  0  0  0  0  0  0  0  0  0  0  0
   18.8475   -7.7744  -16.7830 C   0  0  0  0  0  0  0  0  0  0  0  0
   18.3975   -7.8836  -15.6221 O   0  0  0  0  0  0  0  0  0  0  0  0
   23.3055  -11.1138  -14.2462 O   0  0  0  0  0  0  0  0  0  0  0  0
   22.8834   -9.8394  -14.5657 C   0  0  0  0  0  0  0  0  0  0  0  0
   23.0329   -9.3968  -15.8670 C   0  0  0  0  0  0  0  0  0  0  0  0
   22.6056   -8.1187  -16.1714 C   0  0  0  0  0  0  0  0  0  0  0  0
   22.0497   -7.3030  -15.2247 C   0  0  0  0  0  0  0  0  0  0  0  0
   21.5931   -5.9368  -15.4907 C   0  0  0  0  0  0  0  0  0  0  0  0
   20.1969   -5.8693  -15.8945 C   0  0  2  0  0  0  0  0  0  0  0  0
   19.7605   -6.7170  -16.9566 N   0  0  0  0  0  0  0  0  0  0  0  0
   19.8053   -4.4865  -16.2367 C   0  0  0  0  0  0  0  0  0  0  0  0
   20.0371   -3.9393  -17.3654 O   0  0  0  0  0  0  0  0  0  0  0  0
   21.9194   -7.7843  -13.9403 C   0  0  0  0  0  0  0  0  0  0  0  0
   22.3332   -9.0562  -13.5924 C   0  0  0  0  0  0  0  0  0  0  0  0
   17.7170   -1.9236  -14.5456 C   0  0  0  0  0  0  0  0  0  0  0  0
   18.6613   -2.3920  -15.6327 C   0  0  2  0  0  0  0  0  0  0  0  0
   19.1251   -3.7073  -15.2497 N   0  0  0  0  0  0  0  0  0  0  0  0
   19.8177   -1.4784  -15.7655 C   0  0  0  0  0  0  0  0  0  0  0  0
   19.7646   -0.3252  -16.5219 O   0  0  0  0  0  0  0  0  0  0  0  0
   20.8906   -1.7458  -15.1773 O   0  0  0  0  0  0  0  0  0  0  0  0
  2  1  1  1
  2  4  1  0
  3  2  1  0
  4  6  1  0
  4  5  1  1
  6  7  2  0
  8  9  1  0
  9 10  2  0
  9 19  1  0
 10 11  1  0
 11 12  2  0
 12 13  1  0
 14 13  1  6
 14 16  1  0
 15 14  1  0
 15  6  1  0
 16 17  2  0
 18 12  1  0
 19 18  2  0
 21 20  1  1
 21 23  1  0
 22 21  1  0
 22 16  1  0
 23 25  2  0
 23 24  1  0
M  END
$$$$
