VYA.pdb
     RDKit          3D

 25 25  0  0  1  0  0  0  0  0999 V2000
   26.3513  -33.8902  -20.4196 C   0  0  0  0  0  0  0  0  0  0  0  0
   25.9777  -32.4820  -19.9815 C   0  0  2  0  0  0  0  0  0  0  0  0
   25.2369  -31.7756  -21.1015 C   0  0  0  0  0  0  0  0  0  0  0  0
   27.2741  -31.7343  -19.7719 C   0  0  2  0  0  0  0  0  0  0  0  0
   28.0303  -31.8120  -20.9890 N   0  0  0  0  0  0  0  0  0  0  0  0
   28.0073  -32.4120  -18.6588 C   0  0  0  0  0  0  0  0  0  0  0  0
   28.9756  -33.1770  -18.8561 O   0  0  0  0  0  0  0  0  0  0  0  0
   33.5762  -29.9225  -18.4209 O   0  0  0  0  0  0  0  0  0  0  0  0
   32.5214  -30.4171  -17.6812 C   0  0  0  0  0  0  0  0  0  0  0  0
   32.7267  -31.5385  -16.8990 C   0  0  0  0  0  0  0  0  0  0  0  0
   31.6611  -32.0218  -16.1643 C   0  0  0  0  0  0  0  0  0  0  0  0
   30.4333  -31.4203  -16.1993 C   0  0  0  0  0  0  0  0  0  0  0  0
   29.2682  -31.8989  -15.4515 C   0  0  0  0  0  0  0  0  0  0  0  0
   28.4207  -32.7935  -16.2250 C   0  0  2  0  0  0  0  0  0  0  0  0
   27.6658  -32.2423  -17.3037 N   0  0  0  0  0  0  0  0  0  0  0  0
   27.4822  -33.5287  -15.3526 C   0  0  0  0  0  0  0  0  0  0  0  0
   26.3545  -33.0692  -14.9725 O   0  0  0  0  0  0  0  0  0  0  0  0
   30.2728  -30.3048  -16.9921 C   0  0  0  0  0  0  0  0  0  0  0  0
   31.3115  -29.7879  -17.7429 C   0  0  0  0  0  0  0  0  0  0  0  0
   26.3069  -34.6317  -13.1043 C   0  0  0  0  0  0  0  0  0  0  0  0
   26.8798  -35.5817  -14.1349 C   0  0  2  0  0  0  0  0  0  0  0  0
   27.8515  -34.8344  -14.9025 N   0  0  0  0  0  0  0  0  0  0  0  0
   25.8231  -36.0921  -15.0362 C   0  0  0  0  0  0  0  0  0  0  0  0
   24.7217  -35.3372  -15.3848 O   0  0  0  0  0  0  0  0  0  0  0  0
   25.9157  -37.2484  -15.5088 O   0  0  0  0  0  0  0  0  0  0  0  0
  2  1  1  6
  2  4  1  0
  3  2  1  0
  4  6  1  0
  4  5  1  6
  6  7  2  0
  8  9  1  0
  9 10  2  0
  9 19  1  0
 10 11  1  0
 11 12  2  0
 12 13  1  0
 14 13  1  1
 14 16  1  0
 15 14  1  0
 15  6  1  0
 16 17  2  0
 18 12  1  0
 19 18  2  0
 21 20  1  1
 21 23  1  0
 22 21  1  0
 22 16  1  0
 23 25  2  0
 23 24  1  0
M  END
$$$$
