VYA.pdb
     RDKit          3D

 25 25  0  0  1  0  0  0  0  0999 V2000
   13.4658  -10.3940   -8.9995 C   0  0  0  0  0  0  0  0  0  0  0  0
   12.8991  -10.3961  -10.4113 C   0  0  2  0  0  0  0  0  0  0  0  0
   11.6432  -11.2462  -10.4590 C   0  0  0  0  0  0  0  0  0  0  0  0
   13.9238  -11.0762  -11.2893 C   0  0  2  0  0  0  0  0  0  0  0  0
   14.1484  -12.3936  -10.7666 N   0  0  0  0  0  0  0  0  0  0  0  0
   15.1797  -10.2676  -11.2211 C   0  0  0  0  0  0  0  0  0  0  0  0
   16.1989  -10.6545  -10.6100 O   0  0  0  0  0  0  0  0  0  0  0  0
   22.0105   -5.2537  -12.5256 O   0  0  0  0  0  0  0  0  0  0  0  0
   20.8645   -6.0109  -12.6593 C   0  0  0  0  0  0  0  0  0  0  0  0
   19.8427   -5.5339  -13.4592 C   0  0  0  0  0  0  0  0  0  0  0  0
   18.7019   -6.3033  -13.5831 C   0  0  0  0  0  0  0  0  0  0  0  0
   18.5717   -7.5032  -12.9398 C   0  0  0  0  0  0  0  0  0  0  0  0
   17.3800   -8.3506  -13.0263 C   0  0  0  0  0  0  0  0  0  0  0  0
   16.5289   -8.2615  -11.8496 C   0  0  2  0  0  0  0  0  0  0  0  0
   15.3134   -9.0095  -11.8384 N   0  0  0  0  0  0  0  0  0  0  0  0
   16.1922   -6.8571  -11.5382 C   0  0  0  0  0  0  0  0  0  0  0  0
   15.3663   -6.1564  -12.2121 O   0  0  0  0  0  0  0  0  0  0  0  0
   19.6145   -7.9408  -12.1529 C   0  0  0  0  0  0  0  0  0  0  0  0
   20.7734   -7.2034  -12.0012 C   0  0  0  0  0  0  0  0  0  0  0  0
   16.5656   -4.7830   -8.5512 C   0  0  0  0  0  0  0  0  0  0  0  0
   16.3953   -4.9060  -10.0508 C   0  0  2  0  0  0  0  0  0  0  0  0
   16.8250   -6.2379  -10.4157 N   0  0  0  0  0  0  0  0  0  0  0  0
   17.2199   -3.9065  -10.7654 C   0  0  0  0  0  0  0  0  0  0  0  0
   16.8977   -2.5647  -10.7895 O   0  0  0  0  0  0  0  0  0  0  0  0
   18.2502   -4.2738  -11.3754 O   0  0  0  0  0  0  0  0  0  0  0  0
  2  1  1  1
  2  4  1  0
  3  2  1  0
  4  6  1  0
  4  5  1  1
  6  7  2  0
  8  9  1  0
  9 10  2  0
  9 19  1  0
 10 11  1  0
 11 12  2  0
 12 13  1  0
 14 13  1  6
 14 16  1  0
 15 14  1  0
 15  6  1  0
 16 17  2  0
 18 12  1  0
 19 18  2  0
 21 20  1  1
 21 23  1  0
 22 21  1  0
 22 16  1  0
 23 25  2  0
 23 24  1  0
M  END
$$$$
