VYA.pdb
     RDKit          3D

 25 25  0  0  1  0  0  0  0  0999 V2000
   29.3552  -31.7199  -15.6965 C   0  0  0  0  0  0  0  0  0  0  0  0
   29.2324  -32.3854  -17.0590 C   0  0  2  0  0  0  0  0  0  0  0  0
   30.5999  -32.4789  -17.7097 C   0  0  0  0  0  0  0  0  0  0  0  0
   28.3986  -31.4639  -17.9187 C   0  0  2  0  0  0  0  0  0  0  0  0
   29.0571  -30.1899  -17.9678 N   0  0  0  0  0  0  0  0  0  0  0  0
   27.0591  -31.3332  -17.2671 C   0  0  0  0  0  0  0  0  0  0  0  0
   26.6536  -30.2618  -16.7674 O   0  0  0  0  0  0  0  0  0  0  0  0
   23.3053  -28.9182  -21.8492 O   0  0  0  0  0  0  0  0  0  0  0  0
   23.4016  -29.8103  -20.8008 C   0  0  0  0  0  0  0  0  0  0  0  0
   23.0014  -29.4019  -19.5420 C   0  0  0  0  0  0  0  0  0  0  0  0
   23.1038  -30.3064  -18.5027 C   0  0  0  0  0  0  0  0  0  0  0  0
   23.5852  -31.5717  -18.6968 C   0  0  0  0  0  0  0  0  0  0  0  0
   23.7269  -32.5640  -17.6287 C   0  0  0  0  0  0  0  0  0  0  0  0
   24.8080  -32.2580  -16.7043 C   0  0  2  0  0  0  0  0  0  0  0  0
   26.1509  -32.4040  -17.1651 N   0  0  0  0  0  0  0  0  0  0  0  0
   24.6779  -33.0336  -15.4536 C   0  0  0  0  0  0  0  0  0  0  0  0
   25.2723  -34.1415  -15.2376 O   0  0  0  0  0  0  0  0  0  0  0  0
   23.9726  -31.9372  -19.9676 C   0  0  0  0  0  0  0  0  0  0  0  0
   23.8869  -31.0644  -21.0357 C   0  0  0  0  0  0  0  0  0  0  0  0
   22.9485  -32.4570  -12.2117 C   0  0  0  0  0  0  0  0  0  0  0  0
   23.6790  -33.3169  -13.2215 C   0  0  2  0  0  0  0  0  0  0  0  0
   23.8378  -32.5193  -14.4175 N   0  0  0  0  0  0  0  0  0  0  0  0
   22.9072  -34.5386  -13.5400 C   0  0  0  0  0  0  0  0  0  0  0  0
   22.0305  -34.6019  -14.6040 O   0  0  0  0  0  0  0  0  0  0  0  0
   23.0421  -35.5608  -12.8289 O   0  0  0  0  0  0  0  0  0  0  0  0
  2  1  1  1
  2  4  1  0
  3  2  1  0
  4  6  1  0
  4  5  1  1
  6  7  2  0
  8  9  1  0
  9 10  2  0
  9 19  1  0
 10 11  1  0
 11 12  2  0
 12 13  1  0
 14 13  1  6
 14 16  1  0
 15 14  1  0
 15  6  1  0
 16 17  2  0
 18 12  1  0
 19 18  2  0
 21 20  1  1
 21 23  1  0
 22 21  1  0
 22 16  1  0
 23 25  2  0
 23 24  1  0
M  END
$$$$
