VYA.pdb
     RDKit          3D

 25 25  0  0  1  0  0  0  0  0999 V2000
   21.3745  -21.1365  -16.3310 C   0  0  0  0  0  0  0  0  0  0  0  0
   21.4186  -19.6733  -15.9168 C   0  0  2  0  0  0  0  0  0  0  0  0
   21.1245  -18.7914  -17.1159 C   0  0  0  0  0  0  0  0  0  0  0  0
   22.8409  -19.3838  -15.4965 C   0  0  2  0  0  0  0  0  0  0  0  0
   23.1713  -20.2698  -14.4171 N   0  0  0  0  0  0  0  0  0  0  0  0
   22.8918  -17.9617  -15.0375 C   0  0  0  0  0  0  0  0  0  0  0  0
   22.3860  -17.5822  -13.9594 O   0  0  0  0  0  0  0  0  0  0  0  0
   29.1209  -16.2418  -18.2927 O   0  0  0  0  0  0  0  0  0  0  0  0
   28.0729  -15.9657  -17.4383 C   0  0  0  0  0  0  0  0  0  0  0  0
   27.6807  -16.9346  -16.5334 C   0  0  0  0  0  0  0  0  0  0  0  0
   26.6301  -16.6433  -15.6848 C   0  0  0  0  0  0  0  0  0  0  0  0
   25.9865  -15.4372  -15.7265 C   0  0  0  0  0  0  0  0  0  0  0  0
   24.8601  -15.0826  -14.8599 C   0  0  0  0  0  0  0  0  0  0  0  0
   23.5838  -15.5818  -15.3487 C   0  0  2  0  0  0  0  0  0  0  0  0
   23.5121  -16.9400  -15.7813 N   0  0  0  0  0  0  0  0  0  0  0  0
   23.0622  -14.7364  -16.4422 C   0  0  0  0  0  0  0  0  0  0  0  0
   23.2622  -14.9699  -17.6803 O   0  0  0  0  0  0  0  0  0  0  0  0
   26.4101  -14.5003  -16.6437 C   0  0  0  0  0  0  0  0  0  0  0  0
   27.4568  -14.7498  -17.5110 C   0  0  0  0  0  0  0  0  0  0  0  0
   20.4227  -12.2498  -16.7395 C   0  0  0  0  0  0  0  0  0  0  0  0
   21.7707  -12.7766  -17.1848 C   0  0  2  0  0  0  0  0  0  0  0  0
   22.2855  -13.5854  -16.1020 N   0  0  0  0  0  0  0  0  0  0  0  0
   22.7106  -11.6687  -17.4655 C   0  0  0  0  0  0  0  0  0  0  0  0
   22.5853  -10.8570  -18.5747 O   0  0  0  0  0  0  0  0  0  0  0  0
   23.6594  -11.4455  -16.6790 O   0  0  0  0  0  0  0  0  0  0  0  0
  2  1  1  6
  2  4  1  0
  3  2  1  0
  4  6  1  0
  4  5  1  1
  6  7  2  0
  8  9  1  0
  9 10  2  0
  9 19  1  0
 10 11  1  0
 11 12  2  0
 12 13  1  0
 14 13  1  6
 14 16  1  0
 15 14  1  0
 15  6  1  0
 16 17  2  0
 18 12  1  0
 19 18  2  0
 21 20  1  1
 21 23  1  0
 22 21  1  0
 22 16  1  0
 23 25  2  0
 23 24  1  0
M  END
$$$$
