VYA.pdb
     RDKit          3D

 25 25  0  0  1  0  0  0  0  0999 V2000
   19.5581  -20.3629  -13.7666 C   0  0  0  0  0  0  0  0  0  0  0  0
   21.0465  -20.5367  -14.0294 C   0  0  2  0  0  0  0  0  0  0  0  0
   21.2625  -21.6434  -15.0447 C   0  0  0  0  0  0  0  0  0  0  0  0
   21.6647  -21.0036  -12.7320 C   0  0  2  0  0  0  0  0  0  0  0  0
   20.9202  -20.4200  -11.6530 N   0  0  0  0  0  0  0  0  0  0  0  0
   23.0794  -20.5200  -12.7102 C   0  0  0  0  0  0  0  0  0  0  0  0
   23.3825  -19.3146  -12.8410 O   0  0  0  0  0  0  0  0  0  0  0  0
   26.0976  -19.2530   -6.4151 O   0  0  0  0  0  0  0  0  0  0  0  0
   26.1656  -19.8264   -7.6684 C   0  0  0  0  0  0  0  0  0  0  0  0
   25.3523  -20.9089   -7.9486 C   0  0  0  0  0  0  0  0  0  0  0  0
   25.4317  -21.4721   -9.2076 C   0  0  0  0  0  0  0  0  0  0  0  0
   26.2847  -20.9853  -10.1595 C   0  0  0  0  0  0  0  0  0  0  0  0
   26.4178  -21.5527  -11.5034 C   0  0  0  0  0  0  0  0  0  0  0  0
   25.5321  -20.9313  -12.4762 C   0  0  2  0  0  0  0  0  0  0  0  0
   24.1795  -21.3821  -12.5412 N   0  0  0  0  0  0  0  0  0  0  0  0
   26.0955  -21.0106  -13.8397 C   0  0  0  0  0  0  0  0  0  0  0  0
   25.8047  -21.9268  -14.6783 O   0  0  0  0  0  0  0  0  0  0  0  0
   27.0771  -19.9050   -9.8378 C   0  0  0  0  0  0  0  0  0  0  0  0
   27.0296  -19.3109   -8.5910 C   0  0  0  0  0  0  0  0  0  0  0  0
   28.2737  -18.7636  -15.8520 C   0  0  0  0  0  0  0  0  0  0  0  0
   27.4829  -20.0346  -15.6238 C   0  0  2  0  0  0  0  0  0  0  0  0
   27.0231  -20.0043  -14.2528 N   0  0  0  0  0  0  0  0  0  0  0  0
   28.3247  -21.2327  -15.8373 C   0  0  0  0  0  0  0  0  0  0  0  0
   28.7144  -21.6469  -17.0948 O   0  0  0  0  0  0  0  0  0  0  0  0
   28.7062  -21.9066  -14.8529 O   0  0  0  0  0  0  0  0  0  0  0  0
  2  1  1  1
  2  4  1  0
  3  2  1  0
  4  6  1  0
  4  5  1  1
  6  7  2  0
  8  9  1  0
  9 10  2  0
  9 19  1  0
 10 11  1  0
 11 12  2  0
 12 13  1  0
 14 13  1  1
 14 16  1  0
 15 14  1  0
 15  6  1  0
 16 17  2  0
 18 12  1  0
 19 18  2  0
 21 20  1  1
 21 23  1  0
 22 21  1  0
 22 16  1  0
 23 25  2  0
 23 24  1  0
M  END
$$$$
