VYA.pdb
     RDKit          3D

 25 25  0  0  1  0  0  0  0  0999 V2000
   27.6135  -20.2810  -14.3944 C   0  0  0  0  0  0  0  0  0  0  0  0
   28.1319  -19.2455  -13.4078 C   0  0  2  0  0  0  0  0  0  0  0  0
   29.2758  -18.4688  -14.0328 C   0  0  0  0  0  0  0  0  0  0  0  0
   28.7070  -20.0100  -12.2381 C   0  0  2  0  0  0  0  0  0  0  0  0
   29.5807  -21.0222  -12.7589 N   0  0  0  0  0  0  0  0  0  0  0  0
   27.5632  -20.6356  -11.5058 C   0  0  0  0  0  0  0  0  0  0  0  0
   27.2737  -21.8465  -11.6149 O   0  0  0  0  0  0  0  0  0  0  0  0
   28.8724  -20.3574   -4.6499 O   0  0  0  0  0  0  0  0  0  0  0  0
   27.9502  -20.2307   -5.6687 C   0  0  0  0  0  0  0  0  0  0  0  0
   27.8481  -19.0182   -6.3252 C   0  0  0  0  0  0  0  0  0  0  0  0
   26.9203  -18.9068   -7.3428 C   0  0  0  0  0  0  0  0  0  0  0  0
   26.1190  -19.9554   -7.7018 C   0  0  0  0  0  0  0  0  0  0  0  0
   25.1114  -19.8869   -8.7627 C   0  0  0  0  0  0  0  0  0  0  0  0
   25.5635  -20.4662  -10.0185 C   0  0  2  0  0  0  0  0  0  0  0  0
   26.7240  -19.9120  -10.6376 N   0  0  0  0  0  0  0  0  0  0  0  0
   24.4813  -20.4744  -11.0242 C   0  0  0  0  0  0  0  0  0  0  0  0
   24.0937  -19.4396  -11.6616 O   0  0  0  0  0  0  0  0  0  0  0  0
   26.2542  -21.1459   -7.0212 C   0  0  0  0  0  0  0  0  0  0  0  0
   27.1692  -21.3010   -5.9973 C   0  0  0  0  0  0  0  0  0  0  0  0
   22.8668  -23.0294  -13.0413 C   0  0  0  0  0  0  0  0  0  0  0  0
   22.7812  -21.7065  -12.3094 C   0  0  2  0  0  0  0  0  0  0  0  0
   23.8233  -21.7117  -11.3065 N   0  0  0  0  0  0  0  0  0  0  0  0
   21.4644  -21.5429  -11.6545 C   0  0  0  0  0  0  0  0  0  0  0  0
   20.2892  -21.4504  -12.3720 O   0  0  0  0  0  0  0  0  0  0  0  0
   21.3956  -21.4845  -10.4053 O   0  0  0  0  0  0  0  0  0  0  0  0
  2  1  1  6
  2  4  1  0
  3  2  1  0
  4  6  1  0
  4  5  1  6
  6  7  2  0
  8  9  1  0
  9 10  2  0
  9 19  1  0
 10 11  1  0
 11 12  2  0
 12 13  1  0
 14 13  1  1
 14 16  1  0
 15 14  1  0
 15  6  1  0
 16 17  2  0
 18 12  1  0
 19 18  2  0
 21 20  1  1
 21 23  1  0
 22 21  1  0
 22 16  1  0
 23 25  2  0
 23 24  1  0
M  END
$$$$
