VYA.pdb
     RDKit          3D

 25 25  0  0  1  0  0  0  0  0999 V2000
   20.0500  -21.6259  -14.1732 C   0  0  0  0  0  0  0  0  0  0  0  0
   21.4344  -21.0003  -14.0926 C   0  0  2  0  0  0  0  0  0  0  0  0
   22.3928  -21.7569  -14.9934 C   0  0  0  0  0  0  0  0  0  0  0  0
   21.9173  -21.1960  -12.6742 C   0  0  2  0  0  0  0  0  0  0  0  0
   21.0235  -20.4890  -11.8020 N   0  0  0  0  0  0  0  0  0  0  0  0
   23.2946  -20.6205  -12.5863 C   0  0  0  0  0  0  0  0  0  0  0  0
   23.5086  -19.3918  -12.5073 O   0  0  0  0  0  0  0  0  0  0  0  0
   27.1015  -19.5321   -6.3247 O   0  0  0  0  0  0  0  0  0  0  0  0
   26.9831  -20.0409   -7.6020 C   0  0  0  0  0  0  0  0  0  0  0  0
   25.7371  -20.0480   -8.2013 C   0  0  0  0  0  0  0  0  0  0  0  0
   25.6346  -20.5606   -9.4801 C   0  0  0  0  0  0  0  0  0  0  0  0
   26.7236  -21.0507  -10.1467 C   0  0  0  0  0  0  0  0  0  0  0  0
   26.6678  -21.6168  -11.4966 C   0  0  0  0  0  0  0  0  0  0  0  0
   25.7693  -20.8931  -12.3830 C   0  0  2  0  0  0  0  0  0  0  0  0
   24.4566  -21.4153  -12.5856 N   0  0  0  0  0  0  0  0  0  0  0  0
   26.3794  -20.6895  -13.7131 C   0  0  0  0  0  0  0  0  0  0  0  0
   26.2968  -21.5285  -14.6704 O   0  0  0  0  0  0  0  0  0  0  0  0
   27.9464  -21.0241   -9.5122 C   0  0  0  0  0  0  0  0  0  0  0  0
   28.0941  -20.5203   -8.2338 C   0  0  0  0  0  0  0  0  0  0  0  0
   28.1819  -17.8422  -15.2982 C   0  0  0  0  0  0  0  0  0  0  0  0
   27.5507  -19.2185  -15.3020 C   0  0  2  0  0  0  0  0  0  0  0  0
   27.1077  -19.4825  -13.9507 N   0  0  0  0  0  0  0  0  0  0  0  0
   28.5261  -20.2521  -15.7142 C   0  0  0  0  0  0  0  0  0  0  0  0
   28.9620  -20.3782  -17.0175 O   0  0  0  0  0  0  0  0  0  0  0  0
   28.9827  -21.0492  -14.8628 O   0  0  0  0  0  0  0  0  0  0  0  0
  2  1  1  1
  2  4  1  0
  3  2  1  0
  4  6  1  0
  4  5  1  1
  6  7  2  0
  8  9  1  0
  9 10  2  0
  9 19  1  0
 10 11  1  0
 11 12  2  0
 12 13  1  0
 14 13  1  1
 14 16  1  0
 15 14  1  0
 15  6  1  0
 16 17  2  0
 18 12  1  0
 19 18  2  0
 21 20  1  1
 21 23  1  0
 22 21  1  0
 22 16  1  0
 23 25  2  0
 23 24  1  0
M  END
$$$$
