IEE.pdb
     RDKit          3D

 27 26  0  0  1  0  0  0  0  0999 V2000
   28.1133  -10.8820  -16.6801 C   0  0  0  0  0  0  0  0  0  0  0  0
   26.9021  -11.6734  -16.2281 C   0  0  0  0  0  0  0  0  0  0  0  0
   25.6940  -10.7773  -16.3885 C   0  0  2  0  0  0  0  0  0  0  0  0
   25.8808   -9.5814  -15.4749 C   0  0  0  0  0  0  0  0  0  0  0  0
   24.4086  -11.5103  -16.0747 C   0  0  2  0  0  0  0  0  0  0  0  0
   24.3207  -12.6660  -16.9083 N   0  0  0  0  0  0  0  0  0  0  0  0
   23.2637  -10.5853  -16.2480 C   0  0  0  0  0  0  0  0  0  0  0  0
   23.0358  -10.2147  -17.4553 O   0  0  0  0  0  0  0  0  0  0  0  0
   22.4427  -10.1088  -15.2005 N   0  0  0  0  0  0  0  0  0  0  0  0
   21.3311   -9.2259  -15.4796 C   0  0  1  0  0  0  0  0  0  0  0  0
   20.0228   -9.7572  -15.0648 C   0  0  0  0  0  0  0  0  0  0  0  0
   18.8132   -8.9355  -15.2484 C   0  0  0  0  0  0  0  0  0  0  0  0
   17.5238   -9.4847  -14.8885 C   0  0  0  0  0  0  0  0  0  0  0  0
   16.8180   -8.9675  -13.9971 O   0  0  0  0  0  0  0  0  0  0  0  0
   21.5937   -7.8361  -15.0852 C   0  0  0  0  0  0  0  0  0  0  0  0
   22.5908   -7.5211  -14.3931 O   0  0  0  0  0  0  0  0  0  0  0  0
   17.0121  -10.6111  -15.5152 O   0  0  0  0  0  0  0  0  0  0  0  0
   20.7108   -6.8074  -15.4882 N   0  0  0  0  0  0  0  0  0  0  0  0
   21.1689   -5.4648  -15.4862 C   0  0  1  0  0  0  0  0  0  0  0  0
   22.4193   -5.2695  -16.2796 C   0  0  0  0  0  0  0  0  0  0  0  0
   23.0182   -3.9262  -16.3445 C   0  0  0  0  0  0  0  0  0  0  0  0
   24.2368   -3.7162  -17.1185 C   0  0  0  0  0  0  0  0  0  0  0  0
   24.8039   -4.6412  -17.7141 O   0  0  0  0  0  0  0  0  0  0  0  0
   20.1087   -4.4952  -15.8910 C   0  0  0  0  0  0  0  0  0  0  0  0
   19.2732   -4.8690  -16.7424 O   0  0  0  0  0  0  0  0  0  0  0  0
   24.8364   -2.4533  -17.2320 O   0  0  0  0  0  0  0  0  0  0  0  0
   20.0105   -3.2215  -15.3746 O   0  0  0  0  0  0  0  0  0  0  0  0
  2  1  1  0
  3  2  1  0
  3  4  1  1
  5  6  1  6
  5  3  1  0
  7  5  1  0
  8  7  2  0
  9  7  1  0
 10  9  1  0
 10 11  1  1
 11 12  1  0
 12 13  1  0
 13 14  2  0
 13 17  1  0
 15 18  1  0
 15 10  1  0
 16 15  2  0
 19 24  1  0
 19 18  1  0
 19 20  1  6
 21 20  1  0
 21 22  1  0
 22 23  2  0
 22 26  1  0
 24 27  1  0
 25 24  2  0
M  END
$$$$
