IEE.pdb
     RDKit          3D

 27 26  0  0  1  0  0  0  0  0999 V2000
   12.4765  -10.9202  -16.1812 C   0  0  0  0  0  0  0  0  0  0  0  0
   13.7248  -11.3512  -15.4372 C   0  0  0  0  0  0  0  0  0  0  0  0
   14.5308  -10.1035  -15.1509 C   0  0  2  0  0  0  0  0  0  0  0  0
   14.8490   -9.4438  -16.4787 C   0  0  0  0  0  0  0  0  0  0  0  0
   15.7934  -10.4184  -14.3797 C   0  0  2  0  0  0  0  0  0  0  0  0
   15.4363  -11.0177  -13.1341 N   0  0  0  0  0  0  0  0  0  0  0  0
   16.5885   -9.1783  -14.2166 C   0  0  0  0  0  0  0  0  0  0  0  0
   16.0966   -8.3140  -13.4055 O   0  0  0  0  0  0  0  0  0  0  0  0
   17.8083   -8.9064  -14.8773 N   0  0  0  0  0  0  0  0  0  0  0  0
   18.4624   -7.6258  -14.7183 C   0  0  1  0  0  0  0  0  0  0  0  0
   19.9261   -7.6765  -14.8628 C   0  0  0  0  0  0  0  0  0  0  0  0
   20.7138   -6.4390  -14.7209 C   0  0  0  0  0  0  0  0  0  0  0  0
   22.1576   -6.5213  -14.6731 C   0  0  0  0  0  0  0  0  0  0  0  0
   22.7414   -7.5448  -14.2584 O   0  0  0  0  0  0  0  0  0  0  0  0
   17.7985   -6.5498  -15.4650 C   0  0  0  0  0  0  0  0  0  0  0  0
   17.3375   -6.7298  -16.6172 O   0  0  0  0  0  0  0  0  0  0  0  0
   22.9605   -5.4678  -15.0840 O   0  0  0  0  0  0  0  0  0  0  0  0
   17.6627   -5.2666  -14.8863 N   0  0  0  0  0  0  0  0  0  0  0  0
   16.9668   -4.2577  -15.6006 C   0  0  1  0  0  0  0  0  0  0  0  0
   15.4889   -4.4720  -15.6301 C   0  0  0  0  0  0  0  0  0  0  0  0
   14.6376   -3.4692  -16.2914 C   0  0  0  0  0  0  0  0  0  0  0  0
   13.1864   -3.5706  -16.1830 C   0  0  0  0  0  0  0  0  0  0  0  0
   12.4289   -2.7568  -16.7272 O   0  0  0  0  0  0  0  0  0  0  0  0
   17.3095   -2.8821  -15.1331 C   0  0  0  0  0  0  0  0  0  0  0  0
   17.9491   -2.7736  -14.0645 O   0  0  0  0  0  0  0  0  0  0  0  0
   12.5655   -4.5963  -15.4552 O   0  0  0  0  0  0  0  0  0  0  0  0
   16.9569   -1.7398  -15.8183 O   0  0  0  0  0  0  0  0  0  0  0  0
  2  1  1  0
  3  2  1  0
  3  4  1  6
  5  6  1  1
  5  3  1  0
  7  5  1  0
  8  7  2  0
  9  7  1  0
 10  9  1  0
 10 11  1  6
 11 12  1  0
 12 13  1  0
 13 14  2  0
 13 17  1  0
 15 18  1  0
 15 10  1  0
 16 15  2  0
 19 24  1  0
 19 18  1  0
 19 20  1  1
 21 20  1  0
 21 22  1  0
 22 23  2  0
 22 26  1  0
 24 27  1  0
 25 24  2  0
M  END
$$$$
