IEE.pdb
     RDKit          3D

 27 26  0  0  1  0  0  0  0  0999 V2000
   24.6980  -14.8541  -18.6677 C   0  0  0  0  0  0  0  0  0  0  0  0
   24.4449  -14.3533  -17.2596 C   0  0  0  0  0  0  0  0  0  0  0  0
   23.6763  -13.0556  -17.3753 C   0  0  2  0  0  0  0  0  0  0  0  0
   24.5000  -12.1042  -18.2213 C   0  0  0  0  0  0  0  0  0  0  0  0
   23.3763  -12.4607  -16.0173 C   0  0  2  0  0  0  0  0  0  0  0  0
   22.7242  -13.4456  -15.2154 N   0  0  0  0  0  0  0  0  0  0  0  0
   22.5685  -11.2303  -16.1905 C   0  0  0  0  0  0  0  0  0  0  0  0
   23.1261  -10.3000  -16.8764 O   0  0  0  0  0  0  0  0  0  0  0  0
   21.2714  -11.0331  -15.6640 N   0  0  0  0  0  0  0  0  0  0  0  0
   20.5545   -9.8016  -15.9142 C   0  0  1  0  0  0  0  0  0  0  0  0
   19.0944   -9.9163  -15.7702 C   0  0  0  0  0  0  0  0  0  0  0  0
   18.5261  -10.4266  -14.5098 C   0  0  0  0  0  0  0  0  0  0  0  0
   17.0903  -10.5501  -14.3802 C   0  0  0  0  0  0  0  0  0  0  0  0
   16.4456  -11.4014  -15.0282 O   0  0  0  0  0  0  0  0  0  0  0  0
   21.1587   -8.6437  -15.2432 C   0  0  0  0  0  0  0  0  0  0  0  0
   21.8113   -8.7610  -14.1787 O   0  0  0  0  0  0  0  0  0  0  0  0
   16.3629   -9.7287  -13.5320 O   0  0  0  0  0  0  0  0  0  0  0  0
   21.0145   -7.3504  -15.7969 N   0  0  0  0  0  0  0  0  0  0  0  0
   21.5634   -6.2392  -15.1067 C   0  0  1  0  0  0  0  0  0  0  0  0
   21.5929   -4.9928  -15.9294 C   0  0  0  0  0  0  0  0  0  0  0  0
   22.1196   -3.7562  -15.3288 C   0  0  0  0  0  0  0  0  0  0  0  0
   22.1129   -2.5190  -16.1018 C   0  0  0  0  0  0  0  0  0  0  0  0
   21.7565   -2.4870  -17.2867 O   0  0  0  0  0  0  0  0  0  0  0  0
   20.9117   -6.0048  -13.7843 C   0  0  0  0  0  0  0  0  0  0  0  0
   19.7021   -6.2995  -13.6718 O   0  0  0  0  0  0  0  0  0  0  0  0
   22.5105   -1.2940  -15.5465 O   0  0  0  0  0  0  0  0  0  0  0  0
   21.5756   -5.4845  -12.6948 O   0  0  0  0  0  0  0  0  0  0  0  0
  2  1  1  0
  3  2  1  0
  3  4  1  6
  5  6  1  1
  5  3  1  0
  7  5  1  0
  8  7  2  0
  9  7  1  0
 10  9  1  0
 10 11  1  1
 11 12  1  0
 12 13  1  0
 13 14  2  0
 13 17  1  0
 15 18  1  0
 15 10  1  0
 16 15  2  0
 19 24  1  0
 19 18  1  0
 19 20  1  6
 21 20  1  0
 21 22  1  0
 22 23  2  0
 22 26  1  0
 24 27  1  0
 25 24  2  0
M  END
$$$$
