IEE.pdb
     RDKit          3D

 27 26  0  0  1  0  0  0  0  0999 V2000
   27.4783  -19.3520   -7.0421 C   0  0  0  0  0  0  0  0  0  0  0  0
   27.8281  -20.4199   -8.0593 C   0  0  0  0  0  0  0  0  0  0  0  0
   26.8376  -20.2995   -9.1962 C   0  0  2  0  0  0  0  0  0  0  0  0
   25.4585  -20.5995   -8.6417 C   0  0  0  0  0  0  0  0  0  0  0  0
   27.1823  -21.2291  -10.3387 C   0  0  2  0  0  0  0  0  0  0  0  0
   28.5214  -20.9675  -10.7590 N   0  0  0  0  0  0  0  0  0  0  0  0
   26.1913  -21.0545  -11.4268 C   0  0  0  0  0  0  0  0  0  0  0  0
   26.1639  -19.8884  -11.9618 O   0  0  0  0  0  0  0  0  0  0  0  0
   25.3115  -22.0598  -11.8890 N   0  0  0  0  0  0  0  0  0  0  0  0
   24.4576  -21.8223  -13.0324 C   0  0  1  0  0  0  0  0  0  0  0  0
   24.4072  -22.9407  -13.9876 C   0  0  0  0  0  0  0  0  0  0  0  0
   23.5436  -22.8420  -15.1777 C   0  0  0  0  0  0  0  0  0  0  0  0
   23.4814  -23.9545  -16.1007 C   0  0  0  0  0  0  0  0  0  0  0  0
   22.5873  -24.8230  -16.0194 O   0  0  0  0  0  0  0  0  0  0  0  0
   23.1532  -21.2584  -12.6625 C   0  0  0  0  0  0  0  0  0  0  0  0
   22.5279  -21.6458  -11.6470 O   0  0  0  0  0  0  0  0  0  0  0  0
   24.4117  -24.1093  -17.1175 O   0  0  0  0  0  0  0  0  0  0  0  0
   22.5680  -20.2472  -13.4594 N   0  0  0  0  0  0  0  0  0  0  0  0
   21.2474  -19.8178  -13.1694 C   0  0  1  0  0  0  0  0  0  0  0  0
   20.8371  -18.6118  -13.9493 C   0  0  0  0  0  0  0  0  0  0  0  0
   20.4054  -18.7811  -15.3465 C   0  0  0  0  0  0  0  0  0  0  0  0
   20.0341  -17.6104  -16.1338 C   0  0  0  0  0  0  0  0  0  0  0  0
   20.8805  -16.8334  -16.5942 O   0  0  0  0  0  0  0  0  0  0  0  0
   20.2449  -20.9166  -13.2961 C   0  0  0  0  0  0  0  0  0  0  0  0
   20.4897  -21.8364  -14.1065 O   0  0  0  0  0  0  0  0  0  0  0  0
   18.6959  -17.2976  -16.4141 O   0  0  0  0  0  0  0  0  0  0  0  0
   19.0757  -20.9623  -12.5684 O   0  0  0  0  0  0  0  0  0  0  0  0
  2  1  1  0
  3  2  1  0
  3  4  1  1
  5  6  1  6
  5  3  1  0
  7  5  1  0
  8  7  2  0
  9  7  1  0
 10  9  1  0
 10 11  1  1
 11 12  1  0
 12 13  1  0
 13 14  2  0
 13 17  1  0
 15 18  1  0
 15 10  1  0
 16 15  2  0
 19 24  1  0
 19 18  1  0
 19 20  1  6
 21 20  1  0
 21 22  1  0
 22 23  2  0
 22 26  1  0
 24 27  1  0
 25 24  2  0
M  END
$$$$
