IEE.pdb
     RDKit          3D

 27 26  0  0  1  0  0  0  0  0999 V2000
   23.4197  -15.0601    8.8407 C   0  0  0  0  0  0  0  0  0  0  0  0
   22.0537  -15.6742    9.0745 C   0  0  0  0  0  0  0  0  0  0  0  0
   22.2405  -16.8383   10.0222 C   0  0  2  0  0  0  0  0  0  0  0  0
   23.2005  -17.8151    9.3712 C   0  0  0  0  0  0  0  0  0  0  0  0
   20.9240  -17.5046   10.3553 C   0  0  2  0  0  0  0  0  0  0  0  0
   20.0377  -16.5283   10.9027 N   0  0  0  0  0  0  0  0  0  0  0  0
   21.1701  -18.6407   11.2747 C   0  0  0  0  0  0  0  0  0  0  0  0
   21.6989  -18.3295   12.4018 O   0  0  0  0  0  0  0  0  0  0  0  0
   20.8666  -19.9919   10.9908 N   0  0  0  0  0  0  0  0  0  0  0  0
   21.1756  -21.0326   11.9471 C   0  0  1  0  0  0  0  0  0  0  0  0
   20.2415  -22.1696   11.9208 C   0  0  0  0  0  0  0  0  0  0  0  0
   20.3623  -23.2332   12.9337 C   0  0  0  0  0  0  0  0  0  0  0  0
   19.4547  -24.3592   12.8886 C   0  0  0  0  0  0  0  0  0  0  0  0
   18.6204  -24.4907   11.9683 O   0  0  0  0  0  0  0  0  0  0  0  0
   22.5987  -21.3942   11.9564 C   0  0  0  0  0  0  0  0  0  0  0  0
   23.2814  -21.4243   10.9049 O   0  0  0  0  0  0  0  0  0  0  0  0
   19.4678  -25.3439   13.8650 O   0  0  0  0  0  0  0  0  0  0  0  0
   23.2380  -21.7197   13.1751 N   0  0  0  0  0  0  0  0  0  0  0  0
   24.5972  -22.1253   13.1545 C   0  0  1  0  0  0  0  0  0  0  0  0
   25.4932  -21.2170   13.9313 C   0  0  0  0  0  0  0  0  0  0  0  0
   26.5142  -20.4383   13.2111 C   0  0  0  0  0  0  0  0  0  0  0  0
   27.3177  -19.4589   13.9345 C   0  0  0  0  0  0  0  0  0  0  0  0
   27.8659  -19.7261   15.0116 O   0  0  0  0  0  0  0  0  0  0  0  0
   24.7782  -23.5498   13.5622 C   0  0  0  0  0  0  0  0  0  0  0  0
   25.9322  -24.0274   13.5103 O   0  0  0  0  0  0  0  0  0  0  0  0
   27.5151  -18.1572   13.4509 O   0  0  0  0  0  0  0  0  0  0  0  0
   23.7426  -24.3527   13.9881 O   0  0  0  0  0  0  0  0  0  0  0  0
  2  1  1  0
  3  2  1  0
  3  4  1  6
  5  6  1  1
  5  3  1  0
  7  5  1  0
  8  7  2  0
  9  7  1  0
 10  9  1  0
 10 11  1  6
 11 12  1  0
 12 13  1  0
 13 14  2  0
 13 17  1  0
 15 18  1  0
 15 10  1  0
 16 15  2  0
 19 24  1  0
 19 18  1  0
 19 20  1  1
 21 20  1  0
 21 22  1  0
 22 23  2  0
 22 26  1  0
 24 27  1  0
 25 24  2  0
M  END
$$$$
