IEE.pdb
     RDKit          3D

 27 26  0  0  1  0  0  0  0  0999 V2000
   24.0253  -34.2808   -6.2281 C   0  0  0  0  0  0  0  0  0  0  0  0
   25.2700  -33.6267   -5.6620 C   0  0  0  0  0  0  0  0  0  0  0  0
   25.3674  -34.0295   -4.2072 C   0  0  2  0  0  0  0  0  0  0  0  0
   24.1069  -33.5546   -3.5105 C   0  0  0  0  0  0  0  0  0  0  0  0
   26.6042  -33.4577   -3.5504 C   0  0  2  0  0  0  0  0  0  0  0  0
   27.7499  -33.8400   -4.3116 N   0  0  0  0  0  0  0  0  0  0  0  0
   26.6669  -33.9172   -2.1428 C   0  0  0  0  0  0  0  0  0  0  0  0
   25.6676  -33.5815   -1.4111 O   0  0  0  0  0  0  0  0  0  0  0  0
   27.7227  -34.6739   -1.5849 N   0  0  0  0  0  0  0  0  0  0  0  0
   27.7475  -34.9711   -0.1693 C   0  0  1  0  0  0  0  0  0  0  0  0
   28.8869  -35.8029    0.2503 C   0  0  0  0  0  0  0  0  0  0  0  0
   29.0498  -36.1478    1.6738 C   0  0  0  0  0  0  0  0  0  0  0  0
   30.1827  -36.9500    2.0820 C   0  0  0  0  0  0  0  0  0  0  0  0
   31.1640  -36.4462    2.6682 O   0  0  0  0  0  0  0  0  0  0  0  0
   27.4963  -33.7898    0.6659 C   0  0  0  0  0  0  0  0  0  0  0  0
   28.0039  -32.6734    0.4041 O   0  0  0  0  0  0  0  0  0  0  0  0
   30.2328  -38.3147    1.8404 O   0  0  0  0  0  0  0  0  0  0  0  0
   26.6598  -33.8912    1.8016 N   0  0  0  0  0  0  0  0  0  0  0  0
   26.4074  -32.7314    2.5785 C   0  0  1  0  0  0  0  0  0  0  0  0
   25.0674  -32.1270    2.3136 C   0  0  0  0  0  0  0  0  0  0  0  0
   23.9283  -32.5244    3.1573 C   0  0  0  0  0  0  0  0  0  0  0  0
   22.6018  -31.9847    2.8794 C   0  0  0  0  0  0  0  0  0  0  0  0
   21.5869  -32.4143    3.4429 O   0  0  0  0  0  0  0  0  0  0  0  0
   26.6247  -32.9587    4.0378 C   0  0  0  0  0  0  0  0  0  0  0  0
   26.7516  -34.1388    4.4299 O   0  0  0  0  0  0  0  0  0  0  0  0
   22.4000  -30.9476    1.9570 O   0  0  0  0  0  0  0  0  0  0  0  0
   26.6911  -31.9382    4.9612 O   0  0  0  0  0  0  0  0  0  0  0  0
  2  1  1  0
  3  2  1  0
  3  4  1  1
  5  6  1  6
  5  3  1  0
  7  5  1  0
  8  7  2  0
  9  7  1  0
 10  9  1  0
 10 11  1  1
 11 12  1  0
 12 13  1  0
 13 14  2  0
 13 17  1  0
 15 18  1  0
 15 10  1  0
 16 15  2  0
 19 24  1  0
 19 18  1  0
 19 20  1  1
 21 20  1  0
 21 22  1  0
 22 23  2  0
 22 26  1  0
 24 27  1  0
 25 24  2  0
M  END
$$$$
