IEE.pdb
     RDKit          3D

 27 26  0  0  1  0  0  0  0  0999 V2000
   21.8442  -18.6819  -21.7732 C   0  0  0  0  0  0  0  0  0  0  0  0
   22.6098  -17.4896  -21.2349 C   0  0  0  0  0  0  0  0  0  0  0  0
   21.8840  -17.0108  -19.9971 C   0  0  2  0  0  0  0  0  0  0  0  0
   20.4681  -16.6492  -20.4022 C   0  0  0  0  0  0  0  0  0  0  0  0
   22.5872  -15.8348  -19.3564 C   0  0  2  0  0  0  0  0  0  0  0  0
   23.8776  -16.2543  -18.9124 N   0  0  0  0  0  0  0  0  0  0  0  0
   21.7453  -15.3000  -18.2602 C   0  0  0  0  0  0  0  0  0  0  0  0
   21.6783  -16.0360  -17.2110 O   0  0  0  0  0  0  0  0  0  0  0  0
   21.0416  -14.0747  -18.3043 N   0  0  0  0  0  0  0  0  0  0  0  0
   20.1988  -13.6694  -17.2005 C   0  0  1  0  0  0  0  0  0  0  0  0
   20.1016  -12.2118  -17.0222 C   0  0  0  0  0  0  0  0  0  0  0  0
   19.2755  -11.6665  -15.9304 C   0  0  0  0  0  0  0  0  0  0  0  0
   19.0962  -10.2345  -15.8266 C   0  0  0  0  0  0  0  0  0  0  0  0
   19.5351   -9.4552  -16.6985 O   0  0  0  0  0  0  0  0  0  0  0  0
   18.9193  -14.3890  -17.1660 C   0  0  0  0  0  0  0  0  0  0  0  0
   18.2809  -14.6559  -18.2118 O   0  0  0  0  0  0  0  0  0  0  0  0
   18.4302   -9.6604  -14.7541 O   0  0  0  0  0  0  0  0  0  0  0  0
   18.3740  -14.8037  -15.9288 N   0  0  0  0  0  0  0  0  0  0  0  0
   17.1285  -15.4826  -15.9165 C   0  0  1  0  0  0  0  0  0  0  0  0
   17.2307  -16.8887  -15.4230 C   0  0  0  0  0  0  0  0  0  0  0  0
   16.0239  -17.7320  -15.4226 C   0  0  0  0  0  0  0  0  0  0  0  0
   16.0710  -19.0585  -14.8174 C   0  0  0  0  0  0  0  0  0  0  0  0
   15.0879  -19.8105  -14.8063 O   0  0  0  0  0  0  0  0  0  0  0  0
   16.0679  -14.7247  -15.1892 C   0  0  0  0  0  0  0  0  0  0  0  0
   16.4217  -13.7380  -14.5081 O   0  0  0  0  0  0  0  0  0  0  0  0
   17.2336  -19.5583  -14.2125 O   0  0  0  0  0  0  0  0  0  0  0  0
   14.7321  -15.0597  -15.2343 O   0  0  0  0  0  0  0  0  0  0  0  0
  2  1  1  0
  3  2  1  0
  3  4  1  6
  5  6  1  1
  5  3  1  0
  7  5  1  0
  8  7  2  0
  9  7  1  0
 10  9  1  0
 10 11  1  6
 11 12  1  0
 12 13  1  0
 13 14  2  0
 13 17  1  0
 15 18  1  0
 15 10  1  0
 16 15  2  0
 19 24  1  0
 19 18  1  0
 19 20  1  1
 21 20  1  0
 21 22  1  0
 22 23  2  0
 22 26  1  0
 24 27  1  0
 25 24  2  0
M  END
$$$$
