IEE.pdb
     RDKit          3D

 27 26  0  0  1  0  0  0  0  0999 V2000
   25.3616  -14.9749  -18.9966 C   0  0  0  0  0  0  0  0  0  0  0  0
   25.7273  -14.0464  -17.8556 C   0  0  0  0  0  0  0  0  0  0  0  0
   24.6763  -12.9596  -17.8059 C   0  0  2  0  0  0  0  0  0  0  0  0
   24.6956  -12.2364  -19.1386 C   0  0  0  0  0  0  0  0  0  0  0  0
   24.9164  -12.0018  -16.6600 C   0  0  2  0  0  0  0  0  0  0  0  0
   25.0118  -12.7481  -15.4466 N   0  0  0  0  0  0  0  0  0  0  0  0
   23.8324  -10.9915  -16.6323 C   0  0  0  0  0  0  0  0  0  0  0  0
   23.7703  -10.2254  -17.6600 O   0  0  0  0  0  0  0  0  0  0  0  0
   22.9016  -10.8319  -15.5804 N   0  0  0  0  0  0  0  0  0  0  0  0
   21.8495   -9.8432  -15.6718 C   0  0  1  0  0  0  0  0  0  0  0  0
   20.5265  -10.3328  -15.2526 C   0  0  0  0  0  0  0  0  0  0  0  0
   19.3579   -9.4396  -15.3452 C   0  0  0  0  0  0  0  0  0  0  0  0
   18.0677   -9.9138  -14.8933 C   0  0  0  0  0  0  0  0  0  0  0  0
   17.0588   -9.1774  -14.9056 O   0  0  0  0  0  0  0  0  0  0  0  0
   22.2392   -8.5424  -15.1130 C   0  0  0  0  0  0  0  0  0  0  0  0
   22.9252   -8.4493  -14.0674 O   0  0  0  0  0  0  0  0  0  0  0  0
   17.8912  -11.2069  -14.4244 O   0  0  0  0  0  0  0  0  0  0  0  0
   21.8418   -7.3479  -15.7573 N   0  0  0  0  0  0  0  0  0  0  0  0
   22.3360   -6.1077  -15.2775 C   0  0  1  0  0  0  0  0  0  0  0  0
   22.1863   -4.9949  -16.2626 C   0  0  0  0  0  0  0  0  0  0  0  0
   22.9797   -5.0306  -17.5021 C   0  0  0  0  0  0  0  0  0  0  0  0
   22.7713   -4.0084  -18.5218 C   0  0  0  0  0  0  0  0  0  0  0  0
   23.4448   -2.9706  -18.5586 O   0  0  0  0  0  0  0  0  0  0  0  0
   21.7683   -5.7388  -13.9471 C   0  0  0  0  0  0  0  0  0  0  0  0
   22.3832   -4.8883  -13.2681 O   0  0  0  0  0  0  0  0  0  0  0  0
   21.7947   -4.1427  -19.5196 O   0  0  0  0  0  0  0  0  0  0  0  0
   20.6105   -6.2871  -13.4397 O   0  0  0  0  0  0  0  0  0  0  0  0
  2  1  1  0
  3  2  1  0
  3  4  1  6
  5  6  1  1
  5  3  1  0
  7  5  1  0
  8  7  2  0
  9  7  1  0
 10  9  1  0
 10 11  1  1
 11 12  1  0
 12 13  1  0
 13 14  2  0
 13 17  1  0
 15 18  1  0
 15 10  1  0
 16 15  2  0
 19 24  1  0
 19 18  1  0
 19 20  1  6
 21 20  1  0
 21 22  1  0
 22 23  2  0
 22 26  1  0
 24 27  1  0
 25 24  2  0
M  END
$$$$
