IEE.pdb
     RDKit          3D

 27 26  0  0  1  0  0  0  0  0999 V2000
   24.7227  -30.7841   -2.4981 C   0  0  0  0  0  0  0  0  0  0  0  0
   25.5601  -32.0415   -2.6224 C   0  0  0  0  0  0  0  0  0  0  0  0
   25.4897  -32.7618   -1.2941 C   0  0  2  0  0  0  0  0  0  0  0  0
   25.8822  -31.7751   -0.2116 C   0  0  0  0  0  0  0  0  0  0  0  0
   26.3828  -33.9824   -1.2721 C   0  0  2  0  0  0  0  0  0  0  0  0
   26.0702  -34.8038   -2.3972 N   0  0  0  0  0  0  0  0  0  0  0  0
   26.2155  -34.6870    0.0210 C   0  0  0  0  0  0  0  0  0  0  0  0
   25.0423  -35.1580    0.2413 O   0  0  0  0  0  0  0  0  0  0  0  0
   27.2347  -34.8621    0.9849 N   0  0  0  0  0  0  0  0  0  0  0  0
   26.9644  -35.5574    2.2244 C   0  0  1  0  0  0  0  0  0  0  0  0
   27.7770  -36.7681    2.4240 C   0  0  0  0  0  0  0  0  0  0  0  0
   27.5727  -37.9337    1.5456 C   0  0  0  0  0  0  0  0  0  0  0  0
   26.3129  -38.6437    1.5944 C   0  0  0  0  0  0  0  0  0  0  0  0
   25.9812  -39.3204    2.5905 O   0  0  0  0  0  0  0  0  0  0  0  0
   26.8946  -34.6552    3.3808 C   0  0  0  0  0  0  0  0  0  0  0  0
   27.6704  -33.6780    3.5065 O   0  0  0  0  0  0  0  0  0  0  0  0
   25.4157  -38.6072    0.5375 O   0  0  0  0  0  0  0  0  0  0  0  0
   25.9311  -34.8750    4.3924 N   0  0  0  0  0  0  0  0  0  0  0  0
   25.9031  -34.0118    5.5179 C   0  0  1  0  0  0  0  0  0  0  0  0
   24.5184  -33.6732    5.9642 C   0  0  0  0  0  0  0  0  0  0  0  0
   24.3422  -32.8171    7.1488 C   0  0  0  0  0  0  0  0  0  0  0  0
   22.9972  -32.5049    7.6197 C   0  0  0  0  0  0  0  0  0  0  0  0
   22.6561  -32.6809    8.7964 O   0  0  0  0  0  0  0  0  0  0  0  0
   26.7333  -34.5175    6.6508 C   0  0  0  0  0  0  0  0  0  0  0  0
   26.7920  -35.7543    6.8219 O   0  0  0  0  0  0  0  0  0  0  0  0
   22.0124  -31.9875    6.7654 O   0  0  0  0  0  0  0  0  0  0  0  0
   27.4297  -33.6919    7.5063 O   0  0  0  0  0  0  0  0  0  0  0  0
  2  1  1  0
  3  2  1  0
  3  4  1  1
  5  6  1  6
  5  3  1  0
  7  5  1  0
  8  7  2  0
  9  7  1  0
 10  9  1  0
 10 11  1  1
 11 12  1  0
 12 13  1  0
 13 14  2  0
 13 17  1  0
 15 18  1  0
 15 10  1  0
 16 15  2  0
 19 24  1  0
 19 18  1  0
 19 20  1  1
 21 20  1  0
 21 22  1  0
 22 23  2  0
 22 26  1  0
 24 27  1  0
 25 24  2  0
M  END
$$$$
