IEE.pdb
     RDKit          3D

 27 26  0  0  1  0  0  0  0  0999 V2000
   28.6928  -15.7103  -18.4430 C   0  0  0  0  0  0  0  0  0  0  0  0
   28.1535  -17.1261  -18.3928 C   0  0  0  0  0  0  0  0  0  0  0  0
   27.4430  -17.2898  -17.0674 C   0  0  2  0  0  0  0  0  0  0  0  0
   27.9254  -18.5837  -16.4408 C   0  0  0  0  0  0  0  0  0  0  0  0
   25.9397  -17.2901  -17.2354 C   0  0  2  0  0  0  0  0  0  0  0  0
   25.5133  -15.9721  -17.5805 N   0  0  0  0  0  0  0  0  0  0  0  0
   25.3092  -17.7937  -15.9922 C   0  0  0  0  0  0  0  0  0  0  0  0
   25.2279  -16.9429  -15.0349 O   0  0  0  0  0  0  0  0  0  0  0  0
   24.8126  -19.1047  -15.8104 N   0  0  0  0  0  0  0  0  0  0  0  0
   24.1845  -19.4881  -14.5649 C   0  0  1  0  0  0  0  0  0  0  0  0
   22.8915  -20.1714  -14.7291 C   0  0  0  0  0  0  0  0  0  0  0  0
   22.1903  -20.6951  -13.5434 C   0  0  0  0  0  0  0  0  0  0  0  0
   20.8500  -20.2336  -13.2532 C   0  0  0  0  0  0  0  0  0  0  0  0
   20.0323  -19.9840  -14.1639 O   0  0  0  0  0  0  0  0  0  0  0  0
   25.1166  -20.1323  -13.6309 C   0  0  0  0  0  0  0  0  0  0  0  0
   25.8706  -21.0686  -13.9877 O   0  0  0  0  0  0  0  0  0  0  0  0
   20.4111  -20.0457  -11.9512 O   0  0  0  0  0  0  0  0  0  0  0  0
   25.1834  -19.6990  -12.2863 N   0  0  0  0  0  0  0  0  0  0  0  0
   26.0400  -20.3800  -11.3836 C   0  0  1  0  0  0  0  0  0  0  0  0
   26.1933  -19.6763  -10.0751 C   0  0  0  0  0  0  0  0  0  0  0  0
   27.0251  -20.2932   -9.0287 C   0  0  0  0  0  0  0  0  0  0  0  0
   27.2174  -19.6016   -7.7587 C   0  0  0  0  0  0  0  0  0  0  0  0
   26.6427  -18.5370   -7.4972 O   0  0  0  0  0  0  0  0  0  0  0  0
   25.6543  -21.8093  -11.1927 C   0  0  0  0  0  0  0  0  0  0  0  0
   24.4358  -22.0882  -11.1959 O   0  0  0  0  0  0  0  0  0  0  0  0
   28.0654  -20.1033   -6.7605 O   0  0  0  0  0  0  0  0  0  0  0  0
   26.5702  -22.8233  -11.0153 O   0  0  0  0  0  0  0  0  0  0  0  0
  2  1  1  0
  3  2  1  0
  3  4  1  6
  5  6  1  1
  5  3  1  0
  7  5  1  0
  8  7  2  0
  9  7  1  0
 10  9  1  0
 10 11  1  6
 11 12  1  0
 12 13  1  0
 13 14  2  0
 13 17  1  0
 15 18  1  0
 15 10  1  0
 16 15  2  0
 19 24  1  0
 19 18  1  0
 19 20  1  1
 21 20  1  0
 21 22  1  0
 22 23  2  0
 22 26  1  0
 24 27  1  0
 25 24  2  0
M  END
$$$$
