IEE.pdb
     RDKit          3D

 27 26  0  0  1  0  0  0  0  0999 V2000
   20.6677  -12.7896  -16.5105 C   0  0  0  0  0  0  0  0  0  0  0  0
   19.2029  -12.7798  -16.1208 C   0  0  0  0  0  0  0  0  0  0  0  0
   18.6966  -11.3670  -16.3106 C   0  0  2  0  0  0  0  0  0  0  0  0
   19.5894  -10.4437  -15.5044 C   0  0  0  0  0  0  0  0  0  0  0  0
   17.2492  -11.2311  -15.8928 C   0  0  2  0  0  0  0  0  0  0  0  0
   16.4692  -12.1865  -16.6120 N   0  0  0  0  0  0  0  0  0  0  0  0
   16.8043   -9.8355  -16.1187 C   0  0  0  0  0  0  0  0  0  0  0  0
   16.8666   -9.4300  -17.3346 O   0  0  0  0  0  0  0  0  0  0  0  0
   16.3342   -8.9629  -15.1108 N   0  0  0  0  0  0  0  0  0  0  0  0
   15.9845   -7.5948  -15.4256 C   0  0  1  0  0  0  0  0  0  0  0  0
   14.5826   -7.2514  -15.1379 C   0  0  0  0  0  0  0  0  0  0  0  0
   14.0998   -5.8845  -15.4034 C   0  0  0  0  0  0  0  0  0  0  0  0
   12.7402   -5.5343  -15.0538 C   0  0  0  0  0  0  0  0  0  0  0  0
   11.7813   -6.2901  -15.3174 O   0  0  0  0  0  0  0  0  0  0  0  0
   16.9763   -6.6267  -14.9406 C   0  0  0  0  0  0  0  0  0  0  0  0
   17.3771   -6.6278  -13.7524 O   0  0  0  0  0  0  0  0  0  0  0  0
   12.4379   -4.3431  -14.4111 O   0  0  0  0  0  0  0  0  0  0  0  0
   17.5091   -5.6579  -15.8223 N   0  0  0  0  0  0  0  0  0  0  0  0
   18.5455   -4.8041  -15.3646 C   0  0  1  0  0  0  0  0  0  0  0  0
   19.8005   -5.5367  -15.0190 C   0  0  0  0  0  0  0  0  0  0  0  0
   21.0011   -4.7626  -14.6632 C   0  0  0  0  0  0  0  0  0  0  0  0
   22.2289   -5.4618  -14.3002 C   0  0  0  0  0  0  0  0  0  0  0  0
   22.3012   -6.6973  -14.2855 O   0  0  0  0  0  0  0  0  0  0  0  0
   18.8141   -3.6731  -16.3011 C   0  0  0  0  0  0  0  0  0  0  0  0
   19.6322   -2.8001  -15.9390 O   0  0  0  0  0  0  0  0  0  0  0  0
   23.3988   -4.7737  -13.9463 O   0  0  0  0  0  0  0  0  0  0  0  0
   18.2080   -3.5495  -17.5324 O   0  0  0  0  0  0  0  0  0  0  0  0
  2  1  1  0
  3  2  1  0
  3  4  1  1
  5  6  1  6
  5  3  1  0
  7  5  1  0
  8  7  2  0
  9  7  1  0
 10  9  1  0
 10 11  1  1
 11 12  1  0
 12 13  1  0
 13 14  2  0
 13 17  1  0
 15 18  1  0
 15 10  1  0
 16 15  2  0
 19 24  1  0
 19 18  1  0
 19 20  1  6
 21 20  1  0
 21 22  1  0
 22 23  2  0
 22 26  1  0
 24 27  1  0
 25 24  2  0
M  END
$$$$
