IEE.pdb
     RDKit          3D

 27 26  0  0  1  0  0  0  0  0999 V2000
   15.8804  -14.9623  -14.7636 C   0  0  0  0  0  0  0  0  0  0  0  0
   16.9492  -15.2520  -15.7986 C   0  0  0  0  0  0  0  0  0  0  0  0
   17.8148  -14.0165  -15.9091 C   0  0  2  0  0  0  0  0  0  0  0  0
   16.9185  -12.8573  -16.2994 C   0  0  0  0  0  0  0  0  0  0  0  0
   18.9329  -14.2049  -16.9103 C   0  0  2  0  0  0  0  0  0  0  0  0
   19.7388  -15.3097  -16.5001 N   0  0  0  0  0  0  0  0  0  0  0  0
   19.7008  -12.9428  -17.0287 C   0  0  0  0  0  0  0  0  0  0  0  0
   20.4069  -12.6322  -16.0032 O   0  0  0  0  0  0  0  0  0  0  0  0
   19.6989  -12.0977  -18.1619 N   0  0  0  0  0  0  0  0  0  0  0  0
   20.5983  -10.9671  -18.2389 C   0  0  1  0  0  0  0  0  0  0  0  0
   21.1114  -10.6983  -19.5918 C   0  0  0  0  0  0  0  0  0  0  0  0
   22.0019   -9.5456  -19.8157 C   0  0  0  0  0  0  0  0  0  0  0  0
   23.3927   -9.7787  -20.1398 C   0  0  0  0  0  0  0  0  0  0  0  0
   23.7514  -10.7716  -20.8074 O   0  0  0  0  0  0  0  0  0  0  0  0
   20.0987   -9.7908  -17.5158 C   0  0  0  0  0  0  0  0  0  0  0  0
   18.8729   -9.5455  -17.4166 O   0  0  0  0  0  0  0  0  0  0  0  0
   24.3920   -8.9119  -19.7237 O   0  0  0  0  0  0  0  0  0  0  0  0
   21.0084   -8.8969  -16.9048 N   0  0  0  0  0  0  0  0  0  0  0  0
   20.5078   -7.7367  -16.2600 C   0  0  1  0  0  0  0  0  0  0  0  0
   21.4954   -7.1077  -15.3325 C   0  0  0  0  0  0  0  0  0  0  0  0
   21.0828   -5.9367  -14.5415 C   0  0  0  0  0  0  0  0  0  0  0  0
   22.0022   -5.3671  -13.5625 C   0  0  0  0  0  0  0  0  0  0  0  0
   22.8769   -6.0466  -13.0100 O   0  0  0  0  0  0  0  0  0  0  0  0
   19.9506   -6.7399  -17.2214 C   0  0  0  0  0  0  0  0  0  0  0  0
   20.5507   -6.5801  -18.3063 O   0  0  0  0  0  0  0  0  0  0  0  0
   21.9477   -4.0158  -13.1904 O   0  0  0  0  0  0  0  0  0  0  0  0
   18.8179   -5.9969  -16.9700 O   0  0  0  0  0  0  0  0  0  0  0  0
  2  1  1  0
  3  2  1  0
  3  4  1  6
  5  6  1  1
  5  3  1  0
  7  5  1  0
  8  7  2  0
  9  7  1  0
 10  9  1  0
 10 11  1  6
 11 12  1  0
 12 13  1  0
 13 14  2  0
 13 17  1  0
 15 18  1  0
 15 10  1  0
 16 15  2  0
 19 24  1  0
 19 18  1  0
 19 20  1  6
 21 20  1  0
 21 22  1  0
 22 23  2  0
 22 26  1  0
 24 27  1  0
 25 24  2  0
M  END
$$$$
