WFK.pdb
     RDKit          3D

 35 37  0  0  1  0  0  0  0  0999 V2000
   28.0223  -21.3946  -13.7843 N   0  0  0  0  0  0  0  0  0  0  0  0
   27.5181  -20.3443  -12.9420 C   0  0  1  0  0  0  0  0  0  0  0  0
   26.2628  -19.7050  -13.4759 C   0  0  0  0  0  0  0  0  0  0  0  0
   26.5298  -19.0021  -14.7389 C   0  0  0  0  0  0  0  0  0  0  0  0
   26.3393  -19.5155  -16.0110 C   0  0  0  0  0  0  0  0  0  0  0  0
   26.6504  -18.5979  -16.9283 N   0  0  0  0  0  0  0  0  0  0  0  0
   27.0386  -17.5019  -16.2686 C   0  0  0  0  0  0  0  0  0  0  0  0
   27.4678  -16.2769  -16.7193 C   0  0  0  0  0  0  0  0  0  0  0  0
   27.8361  -15.2656  -15.8554 C   0  0  0  0  0  0  0  0  0  0  0  0
   27.7739  -15.4858  -14.4961 C   0  0  0  0  0  0  0  0  0  0  0  0
   27.3395  -16.7251  -14.0312 C   0  0  0  0  0  0  0  0  0  0  0  0
   26.9778  -17.7143  -14.8930 C   0  0  0  0  0  0  0  0  0  0  0  0
   27.3345  -20.8434  -11.5524 C   0  0  0  0  0  0  0  0  0  0  0  0
   26.9277  -22.0211  -11.3413 O   0  0  0  0  0  0  0  0  0  0  0  0
   27.6052  -20.0280  -10.4393 N   0  0  0  0  0  0  0  0  0  0  0  0
   27.4001  -20.5154   -9.0463 C   0  0  1  0  0  0  0  0  0  0  0  0
   28.3710  -19.7464   -8.2319 C   0  0  0  0  0  0  0  0  0  0  0  0
   28.2442  -19.8290   -6.7727 C   0  0  0  0  0  0  0  0  0  0  0  0
   28.7982  -20.8816   -6.0333 C   0  0  0  0  0  0  0  0  0  0  0  0
   28.7087  -20.9538   -4.6604 C   0  0  0  0  0  0  0  0  0  0  0  0
   28.0494  -19.9575   -3.9605 C   0  0  0  0  0  0  0  0  0  0  0  0
   27.4931  -18.9078   -4.6610 C   0  0  0  0  0  0  0  0  0  0  0  0
   27.6027  -18.8704   -6.0279 C   0  0  0  0  0  0  0  0  0  0  0  0
   25.9816  -20.2576   -8.7628 C   0  0  0  0  0  0  0  0  0  0  0  0
   25.4161  -19.1763   -9.1554 O   0  0  0  0  0  0  0  0  0  0  0  0
   25.1284  -21.1452   -8.0614 N   0  0  0  0  0  0  0  0  0  0  0  0
   23.6830  -20.9247   -7.9632 C   0  0  1  0  0  0  0  0  0  0  0  0
   23.0215  -21.3193   -9.2741 C   0  0  0  0  0  0  0  0  0  0  0  0
   21.5354  -21.2246   -9.2667 C   0  0  0  0  0  0  0  0  0  0  0  0
   21.0447  -21.8083  -10.6052 C   0  0  0  0  0  0  0  0  0  0  0  0
   19.5320  -21.7784  -10.6599 C   0  0  0  0  0  0  0  0  0  0  0  0
   18.9868  -22.3991  -11.8266 N   0  0  0  0  0  0  0  0  0  0  0  0
   23.0632  -21.4956   -6.7787 C   0  0  0  0  0  0  0  0  0  0  0  0
   21.8814  -20.9951   -6.2176 O   0  0  0  0  0  0  0  0  0  0  0  0
   23.5323  -22.4961   -6.1453 O   0  0  0  0  0  0  0  0  0  0  0  0
  2  1  1  6
  3  2  1  0
  4  3  1  0
  4  5  2  0
  6  5  1  0
  7  6  1  0
  8  7  2  0
  9  8  1  0
 10  9  2  0
 10 11  1  0
 11 12  2  0
 12  7  1  0
 12  4  1  0
 13 14  2  0
 13  2  1  0
 15 13  1  0
 16 17  1  1
 16 15  1  0
 18 17  1  0
 18 23  1  0
 19 18  2  0
 20 19  1  0
 20 21  2  0
 21 22  1  0
 22 23  2  0
 24 16  1  0
 25 24  2  0
 26 24  1  0
 27 26  1  0
 28 29  1  0
 27 28  1  6
 30 29  1  0
 31 30  1  0
 32 31  1  0
 33 34  1  0
 33 27  1  0
 35 33  2  0
M  END
$$$$
