WFK.pdb
     RDKit          3D

 35 37  0  0  1  0  0  0  0  0999 V2000
   27.1080  -23.6873  -17.8263 N   0  0  0  0  0  0  0  0  0  0  0  0
   26.2771  -22.5838  -17.4279 C   0  0  1  0  0  0  0  0  0  0  0  0
   25.0995  -22.3659  -18.3419 C   0  0  0  0  0  0  0  0  0  0  0  0
   25.5189  -21.7096  -19.5885 C   0  0  0  0  0  0  0  0  0  0  0  0
   25.8794  -22.3494  -20.7627 C   0  0  0  0  0  0  0  0  0  0  0  0
   26.1720  -21.4508  -21.7046 N   0  0  0  0  0  0  0  0  0  0  0  0
   26.0062  -20.2426  -21.1569 C   0  0  0  0  0  0  0  0  0  0  0  0
   26.1755  -18.9814  -21.6752 C   0  0  0  0  0  0  0  0  0  0  0  0
   25.9546  -17.8445  -20.9247 C   0  0  0  0  0  0  0  0  0  0  0  0
   25.5517  -17.9721  -19.6126 C   0  0  0  0  0  0  0  0  0  0  0  0
   25.3776  -19.2474  -19.0798 C   0  0  0  0  0  0  0  0  0  0  0  0
   25.5973  -20.3611  -19.8304 C   0  0  0  0  0  0  0  0  0  0  0  0
   25.8528  -22.7452  -16.0110 C   0  0  0  0  0  0  0  0  0  0  0  0
   25.5093  -23.8779  -15.5683 O   0  0  0  0  0  0  0  0  0  0  0  0
   25.8206  -21.6524  -15.1268 N   0  0  0  0  0  0  0  0  0  0  0  0
   25.4058  -21.8109  -13.7045 C   0  0  1  0  0  0  0  0  0  0  0  0
   26.3026  -20.9051  -12.9479 C   0  0  0  0  0  0  0  0  0  0  0  0
   26.0195  -20.7103  -11.5217 C   0  0  0  0  0  0  0  0  0  0  0  0
   26.5343  -21.5608  -10.5352 C   0  0  0  0  0  0  0  0  0  0  0  0
   26.2974  -21.3703   -9.1914 C   0  0  0  0  0  0  0  0  0  0  0  0
   25.5218  -20.3017   -8.7742 C   0  0  0  0  0  0  0  0  0  0  0  0
   25.0006  -19.4466   -9.7225 C   0  0  0  0  0  0  0  0  0  0  0  0
   25.2584  -19.6688  -11.0514 C   0  0  0  0  0  0  0  0  0  0  0  0
   23.9792  -21.4596  -13.6875 C   0  0  0  0  0  0  0  0  0  0  0  0
   23.5373  -20.4616  -14.3598 O   0  0  0  0  0  0  0  0  0  0  0  0
   22.9871  -22.1639  -12.9614 N   0  0  0  0  0  0  0  0  0  0  0  0
   21.5978  -21.7036  -12.8894 C   0  0  1  0  0  0  0  0  0  0  0  0
   20.6770  -22.9010  -12.7161 C   0  0  0  0  0  0  0  0  0  0  0  0
   19.4780  -22.8887  -13.5992 C   0  0  0  0  0  0  0  0  0  0  0  0
   18.6597  -24.1484  -13.2579 C   0  0  0  0  0  0  0  0  0  0  0  0
   17.3698  -24.1588  -14.0505 C   0  0  0  0  0  0  0  0  0  0  0  0
   17.2044  -25.3228  -14.8637 N   0  0  0  0  0  0  0  0  0  0  0  0
   21.3668  -20.6230  -11.9449 C   0  0  0  0  0  0  0  0  0  0  0  0
   22.1894  -20.3880  -10.8359 O   0  0  0  0  0  0  0  0  0  0  0  0
   20.4030  -19.7954  -12.0363 O   0  0  0  0  0  0  0  0  0  0  0  0
  2  1  1  6
  3  2  1  0
  4  3  1  0
  4  5  2  0
  6  5  1  0
  7  6  1  0
  8  7  2  0
  9  8  1  0
 10  9  2  0
 10 11  1  0
 11 12  2  0
 12  7  1  0
 12  4  1  0
 13 14  2  0
 13  2  1  0
 15 13  1  0
 16 17  1  1
 16 15  1  0
 18 17  1  0
 18 23  1  0
 19 18  2  0
 20 19  1  0
 20 21  2  0
 21 22  1  0
 22 23  2  0
 24 16  1  0
 25 24  2  0
 26 24  1  0
 27 26  1  0
 28 29  1  0
 27 28  1  1
 30 29  1  0
 31 30  1  0
 32 31  1  0
 33 34  1  0
 33 27  1  0
 35 33  2  0
M  END
$$$$
