WFK.pdb
     RDKit          3D

 35 37  0  0  1  0  0  0  0  0999 V2000
   26.3809  -21.7064  -13.7198 N   0  0  0  0  0  0  0  0  0  0  0  0
   26.1998  -20.5849  -12.8387 C   0  0  1  0  0  0  0  0  0  0  0  0
   25.0436  -19.7019  -13.2302 C   0  0  0  0  0  0  0  0  0  0  0  0
   25.2371  -19.1542  -14.5805 C   0  0  0  0  0  0  0  0  0  0  0  0
   24.3054  -19.1691  -15.6051 C   0  0  0  0  0  0  0  0  0  0  0  0
   24.7988  -18.5582  -16.6838 N   0  0  0  0  0  0  0  0  0  0  0  0
   26.0330  -18.1500  -16.3715 C   0  0  0  0  0  0  0  0  0  0  0  0
   26.9799  -17.4806  -17.1083 C   0  0  0  0  0  0  0  0  0  0  0  0
   28.2173  -17.1560  -16.5904 C   0  0  0  0  0  0  0  0  0  0  0  0
   28.5185  -17.5125  -15.2933 C   0  0  0  0  0  0  0  0  0  0  0  0
   27.5635  -18.1912  -14.5397 C   0  0  0  0  0  0  0  0  0  0  0  0
   26.3462  -18.5048  -15.0612 C   0  0  0  0  0  0  0  0  0  0  0  0
   26.0853  -21.0510  -11.4304 C   0  0  0  0  0  0  0  0  0  0  0  0
   25.7208  -22.2333  -11.1726 O   0  0  0  0  0  0  0  0  0  0  0  0
   26.3762  -20.1987  -10.3507 N   0  0  0  0  0  0  0  0  0  0  0  0
   26.4177  -20.7012   -8.9486 C   0  0  1  0  0  0  0  0  0  0  0  0
   27.3877  -19.8164   -8.2604 C   0  0  0  0  0  0  0  0  0  0  0  0
   27.5188  -19.9590   -6.8062 C   0  0  0  0  0  0  0  0  0  0  0  0
   28.1765  -21.0473   -6.2189 C   0  0  0  0  0  0  0  0  0  0  0  0
   28.3294  -21.1764   -4.8558 C   0  0  0  0  0  0  0  0  0  0  0  0
   27.8209  -20.2041   -4.0112 C   0  0  0  0  0  0  0  0  0  0  0  0
   27.1678  -19.1204   -4.5600 C   0  0  0  0  0  0  0  0  0  0  0  0
   27.0352  -19.0265   -5.9221 C   0  0  0  0  0  0  0  0  0  0  0  0
   25.0285  -20.6163   -8.4775 C   0  0  0  0  0  0  0  0  0  0  0  0
   24.2902  -19.6123   -8.7775 O   0  0  0  0  0  0  0  0  0  0  0  0
   24.3886  -21.5990   -7.6822 N   0  0  0  0  0  0  0  0  0  0  0  0
   23.0037  -21.4538   -7.2259 C   0  0  1  0  0  0  0  0  0  0  0  0
   22.4675  -22.8108   -6.7985 C   0  0  0  0  0  0  0  0  0  0  0  0
   21.0248  -22.8145   -6.4298 C   0  0  0  0  0  0  0  0  0  0  0  0
   20.6674  -24.2617   -6.0414 C   0  0  0  0  0  0  0  0  0  0  0  0
   19.2359  -24.3285   -5.5527 C   0  0  0  0  0  0  0  0  0  0  0  0
   18.7726  -25.6592   -5.3115 N   0  0  0  0  0  0  0  0  0  0  0  0
   22.7943  -20.3899   -6.2577 C   0  0  0  0  0  0  0  0  0  0  0  0
   23.6774  -20.1329   -5.2012 O   0  0  0  0  0  0  0  0  0  0  0  0
   21.7969  -19.5982   -6.2789 O   0  0  0  0  0  0  0  0  0  0  0  0
  2  1  1  6
  3  2  1  0
  4  3  1  0
  4  5  2  0
  6  5  1  0
  7  6  1  0
  8  7  2  0
  9  8  1  0
 10  9  2  0
 10 11  1  0
 11 12  2  0
 12  7  1  0
 12  4  1  0
 13 14  2  0
 13  2  1  0
 15 13  1  0
 16 17  1  1
 16 15  1  0
 18 17  1  0
 18 23  1  0
 19 18  2  0
 20 19  1  0
 20 21  2  0
 21 22  1  0
 22 23  2  0
 24 16  1  0
 25 24  2  0
 26 24  1  0
 27 26  1  0
 28 29  1  0
 27 28  1  1
 30 29  1  0
 31 30  1  0
 32 31  1  0
 33 34  1  0
 33 27  1  0
 35 33  2  0
M  END
$$$$
