WFK.pdb
     RDKit          3D

 35 37  0  0  1  0  0  0  0  0999 V2000
   18.1501  -12.6458  -16.3981 N   0  0  0  0  0  0  0  0  0  0  0  0
   18.7928  -11.5459  -17.0642 C   0  0  1  0  0  0  0  0  0  0  0  0
   17.8652  -10.3897  -17.3336 C   0  0  0  0  0  0  0  0  0  0  0  0
   16.8112  -10.7747  -18.2831 C   0  0  0  0  0  0  0  0  0  0  0  0
   16.7788  -11.9380  -19.0340 C   0  0  0  0  0  0  0  0  0  0  0  0
   15.6636  -11.9820  -19.7652 N   0  0  0  0  0  0  0  0  0  0  0  0
   14.9770  -10.8664  -19.4984 C   0  0  0  0  0  0  0  0  0  0  0  0
   13.7740  -10.4062  -19.9767 C   0  0  0  0  0  0  0  0  0  0  0  0
   13.2357   -9.2020  -19.5704 C   0  0  0  0  0  0  0  0  0  0  0  0
   13.9226   -8.4322  -18.6561 C   0  0  0  0  0  0  0  0  0  0  0  0
   15.1428   -8.8922  -18.1663 C   0  0  0  0  0  0  0  0  0  0  0  0
   15.6629  -10.0820  -18.5736 C   0  0  0  0  0  0  0  0  0  0  0  0
   19.9992  -11.1193  -16.3049 C   0  0  0  0  0  0  0  0  0  0  0  0
   20.0062  -11.1471  -15.0415 O   0  0  0  0  0  0  0  0  0  0  0  0
   21.1599  -10.6755  -16.9628 N   0  0  0  0  0  0  0  0  0  0  0  0
   22.3351  -10.1568  -16.2078 C   0  0  1  0  0  0  0  0  0  0  0  0
   23.3945  -11.1723  -16.4169 C   0  0  0  0  0  0  0  0  0  0  0  0
   24.7532  -10.8310  -15.9814 C   0  0  0  0  0  0  0  0  0  0  0  0
   25.2388  -11.1727  -14.7129 C   0  0  0  0  0  0  0  0  0  0  0  0
   26.5220  -10.8815  -14.3046 C   0  0  0  0  0  0  0  0  0  0  0  0
   27.3856  -10.2249  -15.1650 C   0  0  0  0  0  0  0  0  0  0  0  0
   26.9361   -9.8752  -16.4211 C   0  0  0  0  0  0  0  0  0  0  0  0
   25.6516  -10.1821  -16.7920 C   0  0  0  0  0  0  0  0  0  0  0  0
   22.5972   -8.8310  -16.7844 C   0  0  0  0  0  0  0  0  0  0  0  0
   22.2850   -8.5663  -17.9992 O   0  0  0  0  0  0  0  0  0  0  0  0
   23.1909   -7.7529  -16.0825 N   0  0  0  0  0  0  0  0  0  0  0  0
   22.6841   -6.3816  -16.1838 C   0  0  1  0  0  0  0  0  0  0  0  0
   21.6172   -6.3159  -17.2651 C   0  0  0  0  0  0  0  0  0  0  0  0
   20.9970   -4.9730  -17.4372 C   0  0  0  0  0  0  0  0  0  0  0  0
   19.9943   -5.0907  -18.6007 C   0  0  0  0  0  0  0  0  0  0  0  0
   19.2583   -3.7805  -18.7848 C   0  0  0  0  0  0  0  0  0  0  0  0
   18.2428   -3.8282  -19.7898 N   0  0  0  0  0  0  0  0  0  0  0  0
   22.2964   -5.7848  -14.9163 C   0  0  0  0  0  0  0  0  0  0  0  0
   22.8142   -4.5683  -14.4538 O   0  0  0  0  0  0  0  0  0  0  0  0
   21.4563   -6.3074  -14.1142 O   0  0  0  0  0  0  0  0  0  0  0  0
  2  1  1  1
  3  2  1  0
  4  3  1  0
  4  5  2  0
  6  5  1  0
  7  6  1  0
  8  7  2  0
  9  8  1  0
 10  9  2  0
 10 11  1  0
 11 12  2  0
 12  7  1  0
 12  4  1  0
 13 14  2  0
 13  2  1  0
 15 13  1  0
 16 17  1  6
 16 15  1  0
 18 17  1  0
 18 23  1  0
 19 18  2  0
 20 19  1  0
 20 21  2  0
 21 22  1  0
 22 23  2  0
 24 16  1  0
 25 24  2  0
 26 24  1  0
 27 26  1  0
 28 29  1  0
 27 28  1  6
 30 29  1  0
 31 30  1  0
 32 31  1  0
 33 34  1  0
 33 27  1  0
 35 33  2  0
M  END
$$$$
