WFK.pdb
     RDKit          3D

 35 37  0  0  1  0  0  0  0  0999 V2000
   28.9560  -21.1375  -14.9567 N   0  0  0  0  0  0  0  0  0  0  0  0
   27.8770  -20.2534  -14.6093 C   0  0  1  0  0  0  0  0  0  0  0  0
   27.0188  -19.8712  -15.7871 C   0  0  0  0  0  0  0  0  0  0  0  0
   27.6045  -18.7364  -16.5150 C   0  0  0  0  0  0  0  0  0  0  0  0
   28.3182  -18.8116  -17.6996 C   0  0  0  0  0  0  0  0  0  0  0  0
   28.6748  -17.5896  -18.0995 N   0  0  0  0  0  0  0  0  0  0  0  0
   28.2031  -16.7283  -17.1924 C   0  0  0  0  0  0  0  0  0  0  0  0
   28.2885  -15.3594  -17.1119 C   0  0  0  0  0  0  0  0  0  0  0  0
   27.7286  -14.6499  -16.0689 C   0  0  0  0  0  0  0  0  0  0  0  0
   27.0618  -15.3310  -15.0731 C   0  0  0  0  0  0  0  0  0  0  0  0
   26.9707  -16.7191  -15.1477 C   0  0  0  0  0  0  0  0  0  0  0  0
   27.5259  -17.4076  -16.1819 C   0  0  0  0  0  0  0  0  0  0  0  0
   27.0690  -20.8377  -13.5050 C   0  0  0  0  0  0  0  0  0  0  0  0
   26.9225  -22.0893  -13.4089 O   0  0  0  0  0  0  0  0  0  0  0  0
   26.4478  -20.0235  -12.5416 N   0  0  0  0  0  0  0  0  0  0  0  0
   25.6166  -20.6026  -11.4489 C   0  0  1  0  0  0  0  0  0  0  0  0
   25.9536  -19.7956  -10.2520 C   0  0  0  0  0  0  0  0  0  0  0  0
   26.8827  -20.3830   -9.2806 C   0  0  0  0  0  0  0  0  0  0  0  0
   28.1416  -20.8716   -9.6524 C   0  0  0  0  0  0  0  0  0  0  0  0
   29.0325  -21.3995   -8.7437 C   0  0  0  0  0  0  0  0  0  0  0  0
   28.6927  -21.4605   -7.4027 C   0  0  0  0  0  0  0  0  0  0  0  0
   27.4596  -20.9872   -7.0059 C   0  0  0  0  0  0  0  0  0  0  0  0
   26.5992  -20.4686   -7.9399 C   0  0  0  0  0  0  0  0  0  0  0  0
   24.2325  -20.4883  -11.9285 C   0  0  0  0  0  0  0  0  0  0  0  0
   23.7926  -19.3886  -12.4187 O   0  0  0  0  0  0  0  0  0  0  0  0
   23.2847  -21.5414  -11.9050 N   0  0  0  0  0  0  0  0  0  0  0  0
   21.9175  -21.3726  -12.4043 C   0  0  1  0  0  0  0  0  0  0  0  0
   21.4769  -22.6447  -13.1109 C   0  0  0  0  0  0  0  0  0  0  0  0
   20.0641  -22.6301  -13.5812 C   0  0  0  0  0  0  0  0  0  0  0  0
   19.8069  -23.9872  -14.2631 C   0  0  0  0  0  0  0  0  0  0  0  0
   18.3802  -24.0526  -14.7654 C   0  0  0  0  0  0  0  0  0  0  0  0
   18.0142  -25.3303  -15.2919 N   0  0  0  0  0  0  0  0  0  0  0  0
   20.9721  -20.8702  -11.4209 C   0  0  0  0  0  0  0  0  0  0  0  0
   19.7964  -20.1922  -11.7672 O   0  0  0  0  0  0  0  0  0  0  0  0
   21.1227  -20.9984  -10.1627 O   0  0  0  0  0  0  0  0  0  0  0  0
  2  1  1  6
  3  2  1  0
  4  3  1  0
  4  5  2  0
  6  5  1  0
  7  6  1  0
  8  7  2  0
  9  8  1  0
 10  9  2  0
 10 11  1  0
 11 12  2  0
 12  7  1  0
 12  4  1  0
 13 14  2  0
 13  2  1  0
 15 13  1  0
 16 17  1  1
 16 15  1  0
 18 17  1  0
 18 23  1  0
 19 18  2  0
 20 19  1  0
 20 21  2  0
 21 22  1  0
 22 23  2  0
 24 16  1  0
 25 24  2  0
 26 24  1  0
 27 26  1  0
 28 29  1  0
 27 28  1  1
 30 29  1  0
 31 30  1  0
 32 31  1  0
 33 34  1  0
 33 27  1  0
 35 33  2  0
M  END
$$$$
