WFK.pdb
     RDKit          3D

 35 37  0  0  1  0  0  0  0  0999 V2000
   30.2414  -25.8033  -17.4390 N   0  0  0  0  0  0  0  0  0  0  0  0
   29.0340  -25.7268  -18.2156 C   0  0  1  0  0  0  0  0  0  0  0  0
   29.2374  -26.0763  -19.6669 C   0  0  0  0  0  0  0  0  0  0  0  0
   30.5850  -25.6948  -20.1132 C   0  0  0  0  0  0  0  0  0  0  0  0
   31.7634  -25.9126  -19.4188 C   0  0  0  0  0  0  0  0  0  0  0  0
   32.8032  -25.4705  -20.1284 N   0  0  0  0  0  0  0  0  0  0  0  0
   32.3147  -24.9711  -21.2682 C   0  0  0  0  0  0  0  0  0  0  0  0
   32.9396  -24.3872  -22.3434 C   0  0  0  0  0  0  0  0  0  0  0  0
   32.2368  -23.9230  -23.4368 C   0  0  0  0  0  0  0  0  0  0  0  0
   30.8640  -24.0460  -23.4560 C   0  0  0  0  0  0  0  0  0  0  0  0
   30.2230  -24.6372  -22.3696 C   0  0  0  0  0  0  0  0  0  0  0  0
   30.9271  -25.0923  -21.2976 C   0  0  0  0  0  0  0  0  0  0  0  0
   27.9686  -26.5577  -17.5925 C   0  0  0  0  0  0  0  0  0  0  0  0
   28.2426  -27.3509  -16.6477 O   0  0  0  0  0  0  0  0  0  0  0  0
   26.6345  -26.4878  -18.0310 N   0  0  0  0  0  0  0  0  0  0  0  0
   25.5642  -27.3182  -17.4104 C   0  0  1  0  0  0  0  0  0  0  0  0
   24.4119  -26.3976  -17.2627 C   0  0  0  0  0  0  0  0  0  0  0  0
   24.4866  -25.3860  -16.2029 C   0  0  0  0  0  0  0  0  0  0  0  0
   23.8177  -25.5334  -14.9813 C   0  0  0  0  0  0  0  0  0  0  0  0
   23.9039  -24.6028  -13.9691 C   0  0  0  0  0  0  0  0  0  0  0  0
   24.6770  -23.4671  -14.1425 C   0  0  0  0  0  0  0  0  0  0  0  0
   25.3476  -23.2937  -15.3351 C   0  0  0  0  0  0  0  0  0  0  0  0
   25.2374  -24.2424  -16.3198 C   0  0  0  0  0  0  0  0  0  0  0  0
   25.3720  -28.4397  -18.3401 C   0  0  0  0  0  0  0  0  0  0  0  0
   26.0801  -28.5442  -19.4034 O   0  0  0  0  0  0  0  0  0  0  0  0
   24.4276  -29.4804  -18.1588 N   0  0  0  0  0  0  0  0  0  0  0  0
   24.8116  -30.8064  -17.6674 C   0  0  1  0  0  0  0  0  0  0  0  0
   26.0949  -30.6939  -16.8599 C   0  0  0  0  0  0  0  0  0  0  0  0
   27.2967  -31.2619  -17.5312 C   0  0  0  0  0  0  0  0  0  0  0  0
   28.1083  -31.9957  -16.4469 C   0  0  0  0  0  0  0  0  0  0  0  0
   29.3782  -32.5627  -17.0452 C   0  0  0  0  0  0  0  0  0  0  0  0
   30.2500  -33.1602  -16.0826 N   0  0  0  0  0  0  0  0  0  0  0  0
   23.7444  -31.5386  -17.0056 C   0  0  0  0  0  0  0  0  0  0  0  0
   22.9327  -32.4700  -17.6655 O   0  0  0  0  0  0  0  0  0  0  0  0
   23.4498  -31.4034  -15.7739 O   0  0  0  0  0  0  0  0  0  0  0  0
  2  1  1  1
  3  2  1  0
  4  3  1  0
  4  5  2  0
  6  5  1  0
  7  6  1  0
  8  7  2  0
  9  8  1  0
 10  9  2  0
 10 11  1  0
 11 12  2  0
 12  7  1  0
 12  4  1  0
 13 14  2  0
 13  2  1  0
 15 13  1  0
 16 17  1  6
 16 15  1  0
 18 17  1  0
 18 23  1  0
 19 18  2  0
 20 19  1  0
 20 21  2  0
 21 22  1  0
 22 23  2  0
 24 16  1  0
 25 24  2  0
 26 24  1  0
 27 26  1  0
 28 29  1  0
 27 28  1  1
 30 29  1  0
 31 30  1  0
 32 31  1  0
 33 34  1  0
 33 27  1  0
 35 33  2  0
M  END
$$$$
