WFK.pdb
     RDKit          3D

 35 37  0  0  1  0  0  0  0  0999 V2000
   22.4102  -31.8932  -11.4763 N   0  0  0  0  0  0  0  0  0  0  0  0
   21.8996  -32.7069  -10.4068 C   0  0  1  0  0  0  0  0  0  0  0  0
   20.8749  -33.7131  -10.8622 C   0  0  0  0  0  0  0  0  0  0  0  0
   19.7080  -33.0413  -11.4518 C   0  0  0  0  0  0  0  0  0  0  0  0
   19.4966  -32.8143  -12.8016 C   0  0  0  0  0  0  0  0  0  0  0  0
   18.3214  -32.2106  -12.9876 N   0  0  0  0  0  0  0  0  0  0  0  0
   17.7720  -32.0444  -11.7802 C   0  0  0  0  0  0  0  0  0  0  0  0
   16.5809  -31.4770  -11.3966 C   0  0  0  0  0  0  0  0  0  0  0  0
   16.1996  -31.3971  -10.0725 C   0  0  0  0  0  0  0  0  0  0  0  0
   17.0365  -31.9005   -9.0997 C   0  0  0  0  0  0  0  0  0  0  0  0
   18.2458  -32.4777   -9.4807 C   0  0  0  0  0  0  0  0  0  0  0  0
   18.6103  -32.5517  -10.7898 C   0  0  0  0  0  0  0  0  0  0  0  0
   23.0207  -33.3550   -9.6739 C   0  0  0  0  0  0  0  0  0  0  0  0
   22.9372  -34.5621   -9.3093 O   0  0  0  0  0  0  0  0  0  0  0  0
   24.1984  -32.6514   -9.3660 N   0  0  0  0  0  0  0  0  0  0  0  0
   25.3449  -33.3108   -8.6797 C   0  0  1  0  0  0  0  0  0  0  0  0
   26.5327  -32.9287   -9.4801 C   0  0  0  0  0  0  0  0  0  0  0  0
   26.7534  -33.6405  -10.7438 C   0  0  0  0  0  0  0  0  0  0  0  0
   26.6404  -33.0065  -11.9876 C   0  0  0  0  0  0  0  0  0  0  0  0
   26.8730  -33.6588  -13.1786 C   0  0  0  0  0  0  0  0  0  0  0  0
   27.2343  -34.9954  -13.1720 C   0  0  0  0  0  0  0  0  0  0  0  0
   27.3536  -35.6472  -11.9624 C   0  0  0  0  0  0  0  0  0  0  0  0
   27.1139  -34.9642  -10.7971 C   0  0  0  0  0  0  0  0  0  0  0  0
   25.3072  -32.7947   -7.3045 C   0  0  0  0  0  0  0  0  0  0  0  0
   25.3982  -31.5380   -7.0686 O   0  0  0  0  0  0  0  0  0  0  0  0
   25.1653  -33.6006   -6.1478 N   0  0  0  0  0  0  0  0  0  0  0  0
   25.2043  -33.0386   -4.7950 C   0  0  1  0  0  0  0  0  0  0  0  0
   23.8977  -33.3478   -4.0815 C   0  0  0  0  0  0  0  0  0  0  0  0
   23.8307  -32.8539   -2.6783 C   0  0  0  0  0  0  0  0  0  0  0  0
   22.5053  -33.3700   -2.0867 C   0  0  0  0  0  0  0  0  0  0  0  0
   21.4848  -32.2523   -2.0488 C   0  0  0  0  0  0  0  0  0  0  0  0
   20.1853  -32.6746   -1.6287 N   0  0  0  0  0  0  0  0  0  0  0  0
   26.3992  -33.3701   -4.0365 C   0  0  0  0  0  0  0  0  0  0  0  0
   27.3372  -34.3187   -4.4634 O   0  0  0  0  0  0  0  0  0  0  0  0
   26.7031  -32.8335   -2.9221 O   0  0  0  0  0  0  0  0  0  0  0  0
  2  1  1  6
  3  2  1  0
  4  3  1  0
  4  5  2  0
  6  5  1  0
  7  6  1  0
  8  7  2  0
  9  8  1  0
 10  9  2  0
 10 11  1  0
 11 12  2  0
 12  7  1  0
 12  4  1  0
 13 14  2  0
 13  2  1  0
 15 13  1  0
 16 17  1  6
 16 15  1  0
 18 17  1  0
 18 23  1  0
 19 18  2  0
 20 19  1  0
 20 21  2  0
 21 22  1  0
 22 23  2  0
 24 16  1  0
 25 24  2  0
 26 24  1  0
 27 26  1  0
 28 29  1  0
 27 28  1  1
 30 29  1  0
 31 30  1  0
 32 31  1  0
 33 34  1  0
 33 27  1  0
 35 33  2  0
M  END
$$$$
