WFK.pdb
     RDKit          3D

 35 37  0  0  1  0  0  0  0  0999 V2000
   20.7946  -20.7511  -11.7478 N   0  0  0  0  0  0  0  0  0  0  0  0
   21.8011  -21.1814  -12.6798 C   0  0  1  0  0  0  0  0  0  0  0  0
   21.4650  -20.8537  -14.1113 C   0  0  0  0  0  0  0  0  0  0  0  0
   20.3461  -21.6790  -14.5883 C   0  0  0  0  0  0  0  0  0  0  0  0
   19.1601  -21.9103  -13.9114 C   0  0  0  0  0  0  0  0  0  0  0  0
   18.3530  -22.6769  -14.6471 N   0  0  0  0  0  0  0  0  0  0  0  0
   18.9992  -22.9438  -15.7866 C   0  0  0  0  0  0  0  0  0  0  0  0
   18.6341  -23.6870  -16.8830 C   0  0  0  0  0  0  0  0  0  0  0  0
   19.4674  -23.8460  -17.9716 C   0  0  0  0  0  0  0  0  0  0  0  0
   20.7068  -23.2426  -17.9641 C   0  0  0  0  0  0  0  0  0  0  0  0
   21.0842  -22.4870  -16.8562 C   0  0  0  0  0  0  0  0  0  0  0  0
   20.2531  -22.3366  -15.7891 C   0  0  0  0  0  0  0  0  0  0  0  0
   23.1301  -20.6392  -12.2876 C   0  0  0  0  0  0  0  0  0  0  0  0
   23.3577  -19.3972  -12.3385 O   0  0  0  0  0  0  0  0  0  0  0  0
   24.1662  -21.4839  -11.8517 N   0  0  0  0  0  0  0  0  0  0  0  0
   25.5345  -20.9624  -11.5757 C   0  0  1  0  0  0  0  0  0  0  0  0
   26.0406  -21.8035  -10.4650 C   0  0  0  0  0  0  0  0  0  0  0  0
   26.9018  -21.1589   -9.4675 C   0  0  0  0  0  0  0  0  0  0  0  0
   28.2851  -21.3742   -9.4244 C   0  0  0  0  0  0  0  0  0  0  0  0
   29.1064  -20.7523   -8.5096 C   0  0  0  0  0  0  0  0  0  0  0  0
   28.5660  -19.8744   -7.5850 C   0  0  0  0  0  0  0  0  0  0  0  0
   27.2067  -19.6421   -7.6025 C   0  0  0  0  0  0  0  0  0  0  0  0
   26.4211  -20.2800   -8.5286 C   0  0  0  0  0  0  0  0  0  0  0  0
   26.2503  -21.0904  -12.8525 C   0  0  0  0  0  0  0  0  0  0  0  0
   26.2209  -22.1852  -13.5186 O   0  0  0  0  0  0  0  0  0  0  0  0
   27.0087  -20.0565  -13.4554 N   0  0  0  0  0  0  0  0  0  0  0  0
   27.7078  -20.2423  -14.7297 C   0  0  1  0  0  0  0  0  0  0  0  0
   28.2481  -18.9045  -15.2094 C   0  0  0  0  0  0  0  0  0  0  0  0
   28.8829  -18.9439  -16.5559 C   0  0  0  0  0  0  0  0  0  0  0  0
   29.3827  -17.5179  -16.8552 C   0  0  0  0  0  0  0  0  0  0  0  0
   30.0988  -17.4892  -18.1888 C   0  0  0  0  0  0  0  0  0  0  0  0
   30.6186  -16.2031  -18.5345 N   0  0  0  0  0  0  0  0  0  0  0  0
   28.6806  -21.3225  -14.7341 C   0  0  0  0  0  0  0  0  0  0  0  0
   29.5849  -21.5413  -13.6871 O   0  0  0  0  0  0  0  0  0  0  0  0
   28.8007  -22.1645  -15.6822 O   0  0  0  0  0  0  0  0  0  0  0  0
  2  1  1  1
  3  2  1  0
  4  3  1  0
  4  5  2  0
  6  5  1  0
  7  6  1  0
  8  7  2  0
  9  8  1  0
 10  9  2  0
 10 11  1  0
 11 12  2  0
 12  7  1  0
 12  4  1  0
 13 14  2  0
 13  2  1  0
 15 13  1  0
 16 17  1  1
 16 15  1  0
 18 17  1  0
 18 23  1  0
 19 18  2  0
 20 19  1  0
 20 21  2  0
 21 22  1  0
 22 23  2  0
 24 16  1  0
 25 24  2  0
 26 24  1  0
 27 26  1  0
 28 29  1  0
 27 28  1  1
 30 29  1  0
 31 30  1  0
 32 31  1  0
 33 34  1  0
 33 27  1  0
 35 33  2  0
M  END
$$$$
