WFK.pdb
     RDKit          3D

 35 37  0  0  1  0  0  0  0  0999 V2000
   26.2505  -21.8178  -12.9235 N   0  0  0  0  0  0  0  0  0  0  0  0
   26.1370  -20.6837  -12.0473 C   0  0  1  0  0  0  0  0  0  0  0  0
   24.8322  -19.9455  -12.1963 C   0  0  0  0  0  0  0  0  0  0  0  0
   24.6812  -19.4196  -13.5606 C   0  0  0  0  0  0  0  0  0  0  0  0
   23.6445  -19.7074  -14.4326 C   0  0  0  0  0  0  0  0  0  0  0  0
   23.8038  -19.0347  -15.5739 N   0  0  0  0  0  0  0  0  0  0  0  0
   24.9260  -18.3184  -15.4519 C   0  0  0  0  0  0  0  0  0  0  0  0
   25.5541  -17.4622  -16.3237 C   0  0  0  0  0  0  0  0  0  0  0  0
   26.7306  -16.8179  -15.9989 C   0  0  0  0  0  0  0  0  0  0  0  0
   27.2984  -17.0369  -14.7620 C   0  0  0  0  0  0  0  0  0  0  0  0
   26.6675  -17.9035  -13.8724 C   0  0  0  0  0  0  0  0  0  0  0  0
   25.5068  -18.5321  -14.2037 C   0  0  0  0  0  0  0  0  0  0  0  0
   26.3792  -21.0965  -10.6385 C   0  0  0  0  0  0  0  0  0  0  0  0
   26.0634  -22.2552  -10.2453 O   0  0  0  0  0  0  0  0  0  0  0  0
   26.9619  -20.2185   -9.7077 N   0  0  0  0  0  0  0  0  0  0  0  0
   27.2116  -20.6292   -8.2973 C   0  0  1  0  0  0  0  0  0  0  0  0
   28.2033  -19.6510   -7.7906 C   0  0  0  0  0  0  0  0  0  0  0  0
   28.5000  -19.6720   -6.3540 C   0  0  0  0  0  0  0  0  0  0  0  0
   28.0642  -18.6622   -5.4867 C   0  0  0  0  0  0  0  0  0  0  0  0
   28.3134  -18.6868   -4.1319 C   0  0  0  0  0  0  0  0  0  0  0  0
   29.0215  -19.7418   -3.5816 C   0  0  0  0  0  0  0  0  0  0  0  0
   29.4641  -20.7514   -4.4105 C   0  0  0  0  0  0  0  0  0  0  0  0
   29.1965  -20.6921   -5.7546 C   0  0  0  0  0  0  0  0  0  0  0  0
   25.8904  -20.5917   -7.6553 C   0  0  0  0  0  0  0  0  0  0  0  0
   25.0787  -19.6237   -7.8720 O   0  0  0  0  0  0  0  0  0  0  0  0
   25.3977  -21.5850   -6.7731 N   0  0  0  0  0  0  0  0  0  0  0  0
   24.1271  -21.4341   -6.0588 C   0  0  1  0  0  0  0  0  0  0  0  0
   23.1635  -22.5217   -6.5065 C   0  0  0  0  0  0  0  0  0  0  0  0
   21.7384  -22.2619   -6.1614 C   0  0  0  0  0  0  0  0  0  0  0  0
   20.9249  -23.4548   -6.6982 C   0  0  0  0  0  0  0  0  0  0  0  0
   19.4602  -23.2781   -6.3581 C   0  0  0  0  0  0  0  0  0  0  0  0
   18.6090  -24.2582   -6.9566 N   0  0  0  0  0  0  0  0  0  0  0  0
   24.2559  -21.2980   -4.6173 C   0  0  0  0  0  0  0  0  0  0  0  0
   23.2424  -20.7734   -3.8052 O   0  0  0  0  0  0  0  0  0  0  0  0
   25.2935  -21.6404   -3.9628 O   0  0  0  0  0  0  0  0  0  0  0  0
  2  1  1  6
  3  2  1  0
  4  3  1  0
  4  5  2  0
  6  5  1  0
  7  6  1  0
  8  7  2  0
  9  8  1  0
 10  9  2  0
 10 11  1  0
 11 12  2  0
 12  7  1  0
 12  4  1  0
 13 14  2  0
 13  2  1  0
 15 13  1  0
 16 17  1  1
 16 15  1  0
 18 17  1  0
 18 23  1  0
 19 18  2  0
 20 19  1  0
 20 21  2  0
 21 22  1  0
 22 23  2  0
 24 16  1  0
 25 24  2  0
 26 24  1  0
 27 26  1  0
 28 29  1  0
 27 28  1  1
 30 29  1  0
 31 30  1  0
 32 31  1  0
 33 34  1  0
 33 27  1  0
 35 33  2  0
M  END
$$$$
