WFK.pdb
     RDKit          3D

 35 37  0  0  1  0  0  0  0  0999 V2000
   26.7459  -22.1250  -13.5325 N   0  0  0  0  0  0  0  0  0  0  0  0
   26.9871  -20.9609  -12.7242 C   0  0  1  0  0  0  0  0  0  0  0  0
   26.1419  -19.7777  -13.1185 C   0  0  0  0  0  0  0  0  0  0  0  0
   26.4979  -19.3056  -14.4642 C   0  0  0  0  0  0  0  0  0  0  0  0
   25.6139  -19.0755  -15.5053 C   0  0  0  0  0  0  0  0  0  0  0  0
   26.2709  -18.6213  -16.5741 N   0  0  0  0  0  0  0  0  0  0  0  0
   27.5635  -18.5552  -16.2394 C   0  0  0  0  0  0  0  0  0  0  0  0
   28.6672  -18.1642  -16.9582 C   0  0  0  0  0  0  0  0  0  0  0  0
   29.9371  -18.1787  -16.4179 C   0  0  0  0  0  0  0  0  0  0  0  0
   30.1098  -18.5983  -15.1162 C   0  0  0  0  0  0  0  0  0  0  0  0
   28.9956  -18.9961  -14.3807 C   0  0  0  0  0  0  0  0  0  0  0  0
   27.7481  -18.9762  -14.9242 C   0  0  0  0  0  0  0  0  0  0  0  0
   26.8300  -21.2946  -11.2827 C   0  0  0  0  0  0  0  0  0  0  0  0
   26.3824  -22.4224  -10.9295 O   0  0  0  0  0  0  0  0  0  0  0  0
   27.1712  -20.3741  -10.2762 N   0  0  0  0  0  0  0  0  0  0  0  0
   27.0081  -20.7007   -8.8316 C   0  0  1  0  0  0  0  0  0  0  0  0
   27.9868  -19.8312   -8.1364 C   0  0  0  0  0  0  0  0  0  0  0  0
   28.0237  -19.8923   -6.6711 C   0  0  0  0  0  0  0  0  0  0  0  0
   28.5161  -21.0081   -5.9824 C   0  0  0  0  0  0  0  0  0  0  0  0
   28.5809  -21.0642   -4.6073 C   0  0  0  0  0  0  0  0  0  0  0  0
   28.1478  -19.9865   -3.8535 C   0  0  0  0  0  0  0  0  0  0  0  0
   27.6575  -18.8732   -4.5034 C   0  0  0  0  0  0  0  0  0  0  0  0
   27.6085  -18.8543   -5.8741 C   0  0  0  0  0  0  0  0  0  0  0  0
   25.5932  -20.4298   -8.5423 C   0  0  0  0  0  0  0  0  0  0  0  0
   25.2538  -19.5423   -7.6820 O   0  0  0  0  0  0  0  0  0  0  0  0
   24.5052  -21.0905   -9.1649 N   0  0  0  0  0  0  0  0  0  0  0  0
   23.1162  -20.8601   -8.7590 C   0  0  1  0  0  0  0  0  0  0  0  0
   22.2008  -21.0538   -9.9575 C   0  0  0  0  0  0  0  0  0  0  0  0
   21.1606  -19.9999  -10.1144 C   0  0  0  0  0  0  0  0  0  0  0  0
   20.8206  -19.9287  -11.6152 C   0  0  0  0  0  0  0  0  0  0  0  0
   19.7739  -18.8624  -11.8594 C   0  0  0  0  0  0  0  0  0  0  0  0
   18.7507  -18.8225  -10.8619 N   0  0  0  0  0  0  0  0  0  0  0  0
   22.7075  -21.5811   -7.5648 C   0  0  0  0  0  0  0  0  0  0  0  0
   22.0034  -20.9813   -6.5129 O   0  0  0  0  0  0  0  0  0  0  0  0
   22.9489  -22.8155   -7.3644 O   0  0  0  0  0  0  0  0  0  0  0  0
  2  1  1  6
  3  2  1  0
  4  3  1  0
  4  5  2  0
  6  5  1  0
  7  6  1  0
  8  7  2  0
  9  8  1  0
 10  9  2  0
 10 11  1  0
 11 12  2  0
 12  7  1  0
 12  4  1  0
 13 14  2  0
 13  2  1  0
 15 13  1  0
 16 17  1  1
 16 15  1  0
 18 17  1  0
 18 23  1  0
 19 18  2  0
 20 19  1  0
 20 21  2  0
 21 22  1  0
 22 23  2  0
 24 16  1  0
 25 24  2  0
 26 24  1  0
 27 26  1  0
 28 29  1  0
 27 28  1  6
 30 29  1  0
 31 30  1  0
 32 31  1  0
 33 34  1  0
 33 27  1  0
 35 33  2  0
M  END
$$$$
