WFK.pdb
     RDKit          3D

 35 37  0  0  1  0  0  0  0  0999 V2000
   26.5423  -26.3546  -20.7621 N   0  0  0  0  0  0  0  0  0  0  0  0
   25.3565  -25.6483  -20.3598 C   0  0  1  0  0  0  0  0  0  0  0  0
   24.2094  -25.8162  -21.3219 C   0  0  0  0  0  0  0  0  0  0  0  0
   24.4980  -25.1529  -22.6014 C   0  0  0  0  0  0  0  0  0  0  0  0
   25.0982  -25.7387  -23.7036 C   0  0  0  0  0  0  0  0  0  0  0  0
   25.1774  -24.8603  -24.7048 N   0  0  0  0  0  0  0  0  0  0  0  0
   24.6387  -23.7181  -24.2661 C   0  0  0  0  0  0  0  0  0  0  0  0
   24.4702  -22.5007  -24.8804 C   0  0  0  0  0  0  0  0  0  0  0  0
   23.8868  -21.4287  -24.2359 C   0  0  0  0  0  0  0  0  0  0  0  0
   23.4581  -21.5782  -22.9343 C   0  0  0  0  0  0  0  0  0  0  0  0
   23.6252  -22.8096  -22.3047 C   0  0  0  0  0  0  0  0  0  0  0  0
   24.2008  -23.8597  -22.9511 C   0  0  0  0  0  0  0  0  0  0  0  0
   24.9747  -26.0326  -18.9741 C   0  0  0  0  0  0  0  0  0  0  0  0
   24.8424  -27.2490  -18.6581 O   0  0  0  0  0  0  0  0  0  0  0  0
   24.7507  -25.0634  -17.9804 N   0  0  0  0  0  0  0  0  0  0  0  0
   24.4091  -25.4445  -16.5811 C   0  0  1  0  0  0  0  0  0  0  0  0
   25.5007  -24.8716  -15.7580 C   0  0  0  0  0  0  0  0  0  0  0  0
   26.8729  -25.2823  -16.0751 C   0  0  0  0  0  0  0  0  0  0  0  0
   27.3735  -26.5439  -15.7297 C   0  0  0  0  0  0  0  0  0  0  0  0
   28.6512  -26.9496  -16.0474 C   0  0  0  0  0  0  0  0  0  0  0  0
   29.4938  -26.0932  -16.7359 C   0  0  0  0  0  0  0  0  0  0  0  0
   29.0294  -24.8437  -17.0897 C   0  0  0  0  0  0  0  0  0  0  0  0
   27.7508  -24.4754  -16.7558 C   0  0  0  0  0  0  0  0  0  0  0  0
   23.0720  -24.8794  -16.3532 C   0  0  0  0  0  0  0  0  0  0  0  0
   22.9130  -23.6251  -16.1418 O   0  0  0  0  0  0  0  0  0  0  0  0
   21.8716  -25.6320  -16.3509 N   0  0  0  0  0  0  0  0  0  0  0  0
   20.9029  -25.5538  -15.2542 C   0  0  1  0  0  0  0  0  0  0  0  0
   21.4982  -26.1896  -14.0079 C   0  0  0  0  0  0  0  0  0  0  0  0
   20.6676  -26.0358  -12.7816 C   0  0  0  0  0  0  0  0  0  0  0  0
   20.0845  -27.4251  -12.4608 C   0  0  0  0  0  0  0  0  0  0  0  0
   21.1983  -28.3819  -12.0921 C   0  0  0  0  0  0  0  0  0  0  0  0
   20.7776  -29.7449  -11.9987 N   0  0  0  0  0  0  0  0  0  0  0  0
   20.3323  -24.2334  -15.0442 C   0  0  0  0  0  0  0  0  0  0  0  0
   21.0977  -23.1192  -14.6773 O   0  0  0  0  0  0  0  0  0  0  0  0
   19.0933  -23.9678  -15.1733 O   0  0  0  0  0  0  0  0  0  0  0  0
  2  1  1  6
  3  2  1  0
  4  3  1  0
  4  5  2  0
  6  5  1  0
  7  6  1  0
  8  7  2  0
  9  8  1  0
 10  9  2  0
 10 11  1  0
 11 12  2  0
 12  7  1  0
 12  4  1  0
 13 14  2  0
 13  2  1  0
 15 13  1  0
 16 17  1  1
 16 15  1  0
 18 17  1  0
 18 23  1  0
 19 18  2  0
 20 19  1  0
 20 21  2  0
 21 22  1  0
 22 23  2  0
 24 16  1  0
 25 24  2  0
 26 24  1  0
 27 26  1  0
 28 29  1  0
 27 28  1  1
 30 29  1  0
 31 30  1  0
 32 31  1  0
 33 34  1  0
 33 27  1  0
 35 33  2  0
M  END
$$$$
