WFK.pdb
     RDKit          3D

 35 37  0  0  1  0  0  0  0  0999 V2000
   25.9915  -21.0949  -13.2054 N   0  0  0  0  0  0  0  0  0  0  0  0
   25.2374  -20.6024  -12.0850 C   0  0  1  0  0  0  0  0  0  0  0  0
   23.7836  -20.9952  -12.1278 C   0  0  0  0  0  0  0  0  0  0  0  0
   23.0099  -20.0497  -12.9451 C   0  0  0  0  0  0  0  0  0  0  0  0
   23.2855  -19.6921  -14.2544 C   0  0  0  0  0  0  0  0  0  0  0  0
   22.3629  -18.8383  -14.7016 N   0  0  0  0  0  0  0  0  0  0  0  0
   21.4975  -18.6394  -13.7022 C   0  0  0  0  0  0  0  0  0  0  0  0
   20.3718  -17.8559  -13.6204 C   0  0  0  0  0  0  0  0  0  0  0  0
   19.6096  -17.7851  -12.4719 C   0  0  0  0  0  0  0  0  0  0  0  0
   19.9851  -18.5213  -11.3687 C   0  0  0  0  0  0  0  0  0  0  0  0
   21.1251  -19.3184  -11.4439 C   0  0  0  0  0  0  0  0  0  0  0  0
   21.8679  -19.3809  -12.5824 C   0  0  0  0  0  0  0  0  0  0  0  0
   25.8828  -21.0156  -10.8096 C   0  0  0  0  0  0  0  0  0  0  0  0
   26.1095  -22.2355  -10.5701 O   0  0  0  0  0  0  0  0  0  0  0  0
   26.2576  -20.0705   -9.8384 N   0  0  0  0  0  0  0  0  0  0  0  0
   26.8486  -20.4834   -8.5344 C   0  0  1  0  0  0  0  0  0  0  0  0
   27.8350  -19.4238   -8.2160 C   0  0  0  0  0  0  0  0  0  0  0  0
   28.4442  -19.4466   -6.8816 C   0  0  0  0  0  0  0  0  0  0  0  0
   28.1756  -18.4630   -5.9213 C   0  0  0  0  0  0  0  0  0  0  0  0
   28.7205  -18.4905   -4.6562 C   0  0  0  0  0  0  0  0  0  0  0  0
   29.5712  -19.5218   -4.2956 C   0  0  0  0  0  0  0  0  0  0  0  0
   29.8549  -20.5053   -5.2200 C   0  0  0  0  0  0  0  0  0  0  0  0
   29.2932  -20.4440   -6.4700 C   0  0  0  0  0  0  0  0  0  0  0  0
   25.7039  -20.5878   -7.6190 C   0  0  0  0  0  0  0  0  0  0  0  0
   24.8459  -19.6401   -7.5248 O   0  0  0  0  0  0  0  0  0  0  0  0
   25.4399  -21.7039   -6.7871 N   0  0  0  0  0  0  0  0  0  0  0  0
   24.4506  -21.6561   -5.7071 C   0  0  1  0  0  0  0  0  0  0  0  0
   23.5364  -22.8670   -5.8053 C   0  0  0  0  0  0  0  0  0  0  0  0
   22.0834  -22.5413   -5.8279 C   0  0  0  0  0  0  0  0  0  0  0  0
   21.3311  -23.8717   -6.0204 C   0  0  0  0  0  0  0  0  0  0  0  0
   19.8446  -23.6130   -6.1447 C   0  0  0  0  0  0  0  0  0  0  0  0
   19.0648  -24.8019   -6.2929 N   0  0  0  0  0  0  0  0  0  0  0  0
   25.0092  -21.4274   -4.3847 C   0  0  0  0  0  0  0  0  0  0  0  0
   24.4239  -20.5690   -3.4454 O   0  0  0  0  0  0  0  0  0  0  0  0
   26.0742  -21.9817   -3.9595 O   0  0  0  0  0  0  0  0  0  0  0  0
  2  1  1  6
  3  2  1  0
  4  3  1  0
  4  5  2  0
  6  5  1  0
  7  6  1  0
  8  7  2  0
  9  8  1  0
 10  9  2  0
 10 11  1  0
 11 12  2  0
 12  7  1  0
 12  4  1  0
 13 14  2  0
 13  2  1  0
 15 13  1  0
 16 17  1  1
 16 15  1  0
 18 17  1  0
 18 23  1  0
 19 18  2  0
 20 19  1  0
 20 21  2  0
 21 22  1  0
 22 23  2  0
 24 16  1  0
 25 24  2  0
 26 24  1  0
 27 26  1  0
 28 29  1  0
 27 28  1  1
 30 29  1  0
 31 30  1  0
 32 31  1  0
 33 34  1  0
 33 27  1  0
 35 33  2  0
M  END
$$$$
