ILP.pdb
     RDKit          3D

 24 24  0  0  1  0  0  0  0  0999 V2000
   21.7383  -16.6915  -19.1982 C   0  0  0  0  0  0  0  0  0  0  0  0
   22.5995  -16.6847  -17.9699 C   0  0  0  0  0  0  0  0  0  0  0  0
   22.7619  -18.1013  -17.4710 C   0  0  2  0  0  0  0  0  0  0  0  0
   21.3635  -18.6463  -17.2497 C   0  0  0  0  0  0  0  0  0  0  0  0
   23.6044  -18.2005  -16.2354 C   0  0  2  0  0  0  0  0  0  0  0  0
   24.8895  -17.5880  -16.5269 N   0  0  0  0  0  0  0  0  0  0  0  0
   23.7803  -19.6132  -15.7721 C   0  0  0  0  0  0  0  0  0  0  0  0
   24.3708  -20.4655  -16.4358 O   0  0  0  0  0  0  0  0  0  0  0  0
   23.8168  -20.0963  -10.2691 C   0  0  0  0  0  0  0  0  0  0  0  0
   24.1958  -20.3666  -11.7360 C   0  0  1  0  0  0  0  0  0  0  0  0
   25.3020  -21.4599  -11.6906 C   0  0  0  0  0  0  0  0  0  0  0  0
   22.9940  -20.9681  -12.3607 C   0  0  0  0  0  0  0  0  0  0  0  0
   23.1654  -21.2244  -13.8850 C   0  0  2  0  0  0  0  0  0  0  0  0
   23.2410  -19.9551  -14.5275 N   0  0  0  0  0  0  0  0  0  0  0  0
   22.1945  -22.1419  -14.3995 C   0  0  0  0  0  0  0  0  0  0  0  0
   21.1753  -21.6441  -14.9871 O   0  0  0  0  0  0  0  0  0  0  0  0
   22.2679  -23.5402  -14.3163 N   0  0  0  0  0  0  0  0  0  0  0  0
   23.2998  -24.2790  -13.5336 C   0  0  0  0  0  0  0  0  0  0  0  0
   23.7879  -25.2105  -14.6229 C   0  0  0  0  0  0  0  0  0  0  0  0
   22.4809  -25.6435  -15.2432 C   0  0  0  0  0  0  0  0  0  0  0  0
   21.4555  -24.6109  -14.8365 C   0  0  1  0  0  0  0  0  0  0  0  0
   20.6116  -25.2452  -13.7544 C   0  0  0  0  0  0  0  0  0  0  0  0
   19.6834  -26.0498  -14.0027 O   0  0  0  0  0  0  0  0  0  0  0  0
   20.8370  -24.9549  -12.4198 O   0  0  0  0  0  0  0  0  0  0  0  0
  1  2  1  0
  3  4  1  1
  3  2  1  0
  5  3  1  0
  5  6  1  6
  7  8  2  0
  7  5  1  0
 10 11  1  1
 10  9  1  0
 12 10  1  0
 13 14  1  0
 13 12  1  1
 14  7  1  0
 15 13  1  0
 16 15  2  0
 17 18  1  0
 17 15  1  0
 19 18  1  0
 20 21  1  0
 20 19  1  0
 21 17  1  0
 21 22  1  1
 22 24  1  0
 23 22  2  0
M  END
$$$$
