ILP.pdb
     RDKit          3D

 24 24  0  0  1  0  0  0  0  0999 V2000
   22.5842  -19.9229  -12.3426 C   0  0  0  0  0  0  0  0  0  0  0  0
   23.9853  -20.3767  -12.6282 C   0  0  0  0  0  0  0  0  0  0  0  0
   24.6521  -20.7714  -11.3314 C   0  0  2  0  0  0  0  0  0  0  0  0
   24.4809  -19.6008  -10.3817 C   0  0  0  0  0  0  0  0  0  0  0  0
   26.0922  -21.1519  -11.4985 C   0  0  2  0  0  0  0  0  0  0  0  0
   26.1571  -22.2079  -12.4947 N   0  0  0  0  0  0  0  0  0  0  0  0
   26.7227  -21.5917  -10.2139 C   0  0  0  0  0  0  0  0  0  0  0  0
   26.2892  -22.5284   -9.5430 O   0  0  0  0  0  0  0  0  0  0  0  0
   32.0571  -21.4248  -10.0804 C   0  0  0  0  0  0  0  0  0  0  0  0
   30.6128  -21.8474   -9.7579 C   0  0  1  0  0  0  0  0  0  0  0  0
   30.7328  -23.1592   -8.9297 C   0  0  0  0  0  0  0  0  0  0  0  0
   30.0740  -20.7972   -8.8619 C   0  0  0  0  0  0  0  0  0  0  0  0
   28.5627  -20.9844   -8.5463 C   0  0  2  0  0  0  0  0  0  0  0  0
   27.8528  -20.8919   -9.7780 N   0  0  0  0  0  0  0  0  0  0  0  0
   28.1140  -20.1327   -7.4869 C   0  0  0  0  0  0  0  0  0  0  0  0
   27.2771  -19.2163   -7.7899 O   0  0  0  0  0  0  0  0  0  0  0  0
   28.5119  -20.2202   -6.1447 N   0  0  0  0  0  0  0  0  0  0  0  0
   29.4922  -21.2166   -5.6257 C   0  0  0  0  0  0  0  0  0  0  0  0
   28.6658  -21.7773   -4.4876 C   0  0  0  0  0  0  0  0  0  0  0  0
   28.0919  -20.5129   -3.8938 C   0  0  0  0  0  0  0  0  0  0  0  0
   28.2037  -19.4526   -4.9645 C   0  0  1  0  0  0  0  0  0  0  0  0
   29.3555  -18.5581   -4.5661 C   0  0  0  0  0  0  0  0  0  0  0  0
   30.4616  -18.5742   -5.1551 O   0  0  0  0  0  0  0  0  0  0  0  0
   29.2292  -17.6686   -3.5129 O   0  0  0  0  0  0  0  0  0  0  0  0
  1  2  1  0
  3  4  1  1
  3  2  1  0
  5  3  1  0
  5  6  1  6
  7  8  2  0
  7  5  1  0
 10 11  1  1
 10  9  1  0
 12 10  1  0
 13 14  1  0
 13 12  1  6
 14  7  1  0
 15 13  1  0
 16 15  2  0
 17 18  1  0
 17 15  1  0
 19 18  1  0
 20 21  1  0
 20 19  1  0
 21 17  1  0
 21 22  1  1
 22 24  1  0
 23 22  2  0
M  END
$$$$
