ILP.pdb
     RDKit          3D

 24 24  0  0  1  0  0  0  0  0999 V2000
   23.3905  -20.8852  -12.1083 C   0  0  0  0  0  0  0  0  0  0  0  0
   23.3280  -20.3396  -10.7123 C   0  0  0  0  0  0  0  0  0  0  0  0
   24.6026  -20.6959   -9.9839 C   0  0  2  0  0  0  0  0  0  0  0  0
   24.2016  -21.0871   -8.5740 C   0  0  0  0  0  0  0  0  0  0  0  0
   25.6171  -19.5927   -9.9926 C   0  0  2  0  0  0  0  0  0  0  0  0
   25.9308  -19.2922  -11.3792 N   0  0  0  0  0  0  0  0  0  0  0  0
   26.8564  -19.9461   -9.2305 C   0  0  0  0  0  0  0  0  0  0  0  0
   27.6672  -20.7844   -9.6249 O   0  0  0  0  0  0  0  0  0  0  0  0
   29.9049  -17.2971   -4.9698 C   0  0  0  0  0  0  0  0  0  0  0  0
   28.9231  -18.4781   -4.8700 C   0  0  1  0  0  0  0  0  0  0  0  0
   28.1151  -18.2445   -3.5609 C   0  0  0  0  0  0  0  0  0  0  0  0
   27.9880  -18.3248   -6.0095 C   0  0  0  0  0  0  0  0  0  0  0  0
   28.1087  -19.4716   -7.0530 C   0  0  2  0  0  0  0  0  0  0  0  0
   27.0803  -19.2812   -8.0204 N   0  0  0  0  0  0  0  0  0  0  0  0
   28.1768  -20.7643   -6.4418 C   0  0  0  0  0  0  0  0  0  0  0  0
   27.0751  -21.3884   -6.2728 O   0  0  0  0  0  0  0  0  0  0  0  0
   29.3495  -21.4052   -6.0157 N   0  0  0  0  0  0  0  0  0  0  0  0
   30.7051  -20.7860   -6.0600 C   0  0  0  0  0  0  0  0  0  0  0  0
   31.4348  -21.8884   -6.7982 C   0  0  0  0  0  0  0  0  0  0  0  0
   30.9003  -23.1132   -6.0949 C   0  0  0  0  0  0  0  0  0  0  0  0
   29.6196  -22.6874   -5.4156 C   0  0  1  0  0  0  0  0  0  0  0  0
   29.9361  -22.5569   -3.9431 C   0  0  0  0  0  0  0  0  0  0  0  0
   30.2482  -21.4660   -3.4108 O   0  0  0  0  0  0  0  0  0  0  0  0
   29.8922  -23.6609   -3.1092 O   0  0  0  0  0  0  0  0  0  0  0  0
  1  2  1  0
  3  4  1  1
  3  2  1  0
  5  3  1  0
  5  6  1  6
  7  8  2  0
  7  5  1  0
 10 11  1  1
 10  9  1  0
 12 10  1  0
 13 14  1  0
 13 12  1  1
 14  7  1  0
 15 13  1  0
 16 15  2  0
 17 18  1  0
 17 15  1  0
 19 18  1  0
 20 21  1  0
 20 19  1  0
 21 17  1  0
 21 22  1  1
 22 24  1  0
 23 22  2  0
M  END
$$$$
