ILP.pdb
     RDKit          3D

 24 24  0  0  1  0  0  0  0  0999 V2000
   26.0473  -13.4384  -16.7271 C   0  0  0  0  0  0  0  0  0  0  0  0
   24.5601  -13.4854  -16.5365 C   0  0  0  0  0  0  0  0  0  0  0  0
   23.9937  -12.0964  -16.7154 C   0  0  2  0  0  0  0  0  0  0  0  0
   24.7295  -11.1987  -15.7385 C   0  0  0  0  0  0  0  0  0  0  0  0
   22.5083  -12.0342  -16.5246 C   0  0  2  0  0  0  0  0  0  0  0  0
   21.9097  -13.0367  -17.3895 N   0  0  0  0  0  0  0  0  0  0  0  0
   21.9484  -10.6766  -16.8154 C   0  0  0  0  0  0  0  0  0  0  0  0
   22.0363  -10.1400  -17.9200 O   0  0  0  0  0  0  0  0  0  0  0  0
   17.0957   -9.8103  -15.6083 C   0  0  0  0  0  0  0  0  0  0  0  0
   18.4335   -9.5099  -16.3074 C   0  0  1  0  0  0  0  0  0  0  0  0
   18.1002   -8.4890  -17.4334 C   0  0  0  0  0  0  0  0  0  0  0  0
   19.2689   -8.8131  -15.3011 C   0  0  0  0  0  0  0  0  0  0  0  0
   20.7595   -8.6920  -15.7277 C   0  0  2  0  0  0  0  0  0  0  0  0
   21.3018  -10.0087  -15.7701 N   0  0  0  0  0  0  0  0  0  0  0  0
   21.4777   -7.7322  -14.9453 C   0  0  0  0  0  0  0  0  0  0  0  0
   22.1142   -8.1684  -13.9272 O   0  0  0  0  0  0  0  0  0  0  0  0
   21.5448   -6.3549  -15.2024 N   0  0  0  0  0  0  0  0  0  0  0  0
   20.8094   -5.6727  -16.3055 C   0  0  0  0  0  0  0  0  0  0  0  0
   21.9748   -4.9416  -16.9379 C   0  0  0  0  0  0  0  0  0  0  0  0
   22.6871   -4.4155  -15.7146 C   0  0  0  0  0  0  0  0  0  0  0  0
   22.2088   -5.2535  -14.5519 C   0  0  1  0  0  0  0  0  0  0  0  0
   21.2347   -4.3968  -13.7756 C   0  0  0  0  0  0  0  0  0  0  0  0
   19.9943   -4.4580  -13.9442 O   0  0  0  0  0  0  0  0  0  0  0  0
   21.6856   -3.4930  -12.8291 O   0  0  0  0  0  0  0  0  0  0  0  0
  1  2  1  0
  3  4  1  1
  3  2  1  0
  5  3  1  0
  5  6  1  6
  7  8  2  0
  7  5  1  0
 10 11  1  6
 10  9  1  0
 12 10  1  0
 13 14  1  0
 13 12  1  1
 14  7  1  0
 15 13  1  0
 16 15  2  0
 17 18  1  0
 17 15  1  0
 19 18  1  0
 20 21  1  0
 20 19  1  0
 21 17  1  0
 21 22  1  1
 22 24  1  0
 23 22  2  0
M  END
$$$$
