ILP.pdb
     RDKit          3D

 24 24  0  0  1  0  0  0  0  0999 V2000
   18.9653  -21.6475  -16.6652 C   0  0  0  0  0  0  0  0  0  0  0  0
   19.4207  -21.6837  -15.2364 C   0  0  0  0  0  0  0  0  0  0  0  0
   20.7266  -20.9343  -15.1136 C   0  0  2  0  0  0  0  0  0  0  0  0
   21.7037  -21.6074  -16.0590 C   0  0  0  0  0  0  0  0  0  0  0  0
   21.2495  -20.8829  -13.7099 C   0  0  2  0  0  0  0  0  0  0  0  0
   20.2264  -20.2700  -12.8797 N   0  0  0  0  0  0  0  0  0  0  0  0
   22.5407  -20.1325  -13.6052 C   0  0  0  0  0  0  0  0  0  0  0  0
   22.6379  -18.9313  -13.8569 O   0  0  0  0  0  0  0  0  0  0  0  0
   25.9855  -21.5295   -9.6980 C   0  0  0  0  0  0  0  0  0  0  0  0
   25.1508  -20.8055  -10.7693 C   0  0  1  0  0  0  0  0  0  0  0  0
   25.3811  -19.2859  -10.5268 C   0  0  0  0  0  0  0  0  0  0  0  0
   25.7715  -21.1529  -12.0694 C   0  0  0  0  0  0  0  0  0  0  0  0
   25.0501  -20.4975  -13.2814 C   0  0  2  0  0  0  0  0  0  0  0  0
   23.6720  -20.8497  -13.2019 N   0  0  0  0  0  0  0  0  0  0  0  0
   25.7068  -20.7706  -14.5237 C   0  0  0  0  0  0  0  0  0  0  0  0
   25.2751  -21.7603  -15.2064 O   0  0  0  0  0  0  0  0  0  0  0  0
   26.7811  -20.0431  -15.0567 N   0  0  0  0  0  0  0  0  0  0  0  0
   27.6597  -19.1415  -14.2578 C   0  0  0  0  0  0  0  0  0  0  0  0
   27.5535  -17.8998  -15.1176 C   0  0  0  0  0  0  0  0  0  0  0  0
   27.6935  -18.4902  -16.5005 C   0  0  0  0  0  0  0  0  0  0  0  0
   27.3722  -19.9607  -16.3686 C   0  0  1  0  0  0  0  0  0  0  0  0
   28.6912  -20.6969  -16.4316 C   0  0  0  0  0  0  0  0  0  0  0  0
   29.3439  -20.8288  -17.4933 O   0  0  0  0  0  0  0  0  0  0  0  0
   29.2394  -21.2653  -15.2947 O   0  0  0  0  0  0  0  0  0  0  0  0
  1  2  1  0
  3  4  1  6
  3  2  1  0
  5  3  1  0
  5  6  1  1
  7  8  2  0
  7  5  1  0
 10 11  1  1
 10  9  1  0
 12 10  1  0
 13 14  1  0
 13 12  1  1
 14  7  1  0
 15 13  1  0
 16 15  2  0
 17 18  1  0
 17 15  1  0
 19 18  1  0
 20 21  1  0
 20 19  1  0
 21 17  1  0
 21 22  1  1
 22 24  1  0
 23 22  2  0
M  END
$$$$
