ILP.pdb
     RDKit          3D

 24 24  0  0  1  0  0  0  0  0999 V2000
   17.9495  -11.5948  -20.9130 C   0  0  0  0  0  0  0  0  0  0  0  0
   18.9211  -11.9349  -19.8218 C   0  0  0  0  0  0  0  0  0  0  0  0
   18.8322  -10.8888  -18.7356 C   0  0  2  0  0  0  0  0  0  0  0  0
   19.1072   -9.5517  -19.3975 C   0  0  0  0  0  0  0  0  0  0  0  0
   19.7604  -11.1476  -17.5876 C   0  0  2  0  0  0  0  0  0  0  0  0
   19.5171  -12.5016  -17.1196 N   0  0  0  0  0  0  0  0  0  0  0  0
   19.5875  -10.1603  -16.4755 C   0  0  0  0  0  0  0  0  0  0  0  0
   18.4965   -9.9213  -15.9576 O   0  0  0  0  0  0  0  0  0  0  0  0
   22.7333  -10.6743  -12.4259 C   0  0  0  0  0  0  0  0  0  0  0  0
   21.5046  -10.2140  -13.2303 C   0  0  1  0  0  0  0  0  0  0  0  0
   20.4667   -9.7330  -12.1755 C   0  0  0  0  0  0  0  0  0  0  0  0
   21.9461   -9.0276  -14.0008 C   0  0  0  0  0  0  0  0  0  0  0  0
   20.8675   -8.5141  -14.9967 C   0  0  2  0  0  0  0  0  0  0  0  0
   20.7305   -9.4930  -16.0227 N   0  0  0  0  0  0  0  0  0  0  0  0
   21.1130   -7.1709  -15.4265 C   0  0  0  0  0  0  0  0  0  0  0  0
   21.7923   -7.0160  -16.4971 O   0  0  0  0  0  0  0  0  0  0  0  0
   20.6690   -6.0110  -14.7746 N   0  0  0  0  0  0  0  0  0  0  0  0
   19.9402   -6.0089  -13.4738 C   0  0  0  0  0  0  0  0  0  0  0  0
   18.7540   -5.1596  -13.8790 C   0  0  0  0  0  0  0  0  0  0  0  0
   19.4350   -4.0633  -14.6633 C   0  0  0  0  0  0  0  0  0  0  0  0
   20.7897   -4.6032  -15.0585 C   0  0  1  0  0  0  0  0  0  0  0  0
   21.7997   -3.9374  -14.1518 C   0  0  0  0  0  0  0  0  0  0  0  0
   22.2515   -4.4878  -13.1205 O   0  0  0  0  0  0  0  0  0  0  0  0
   22.2738   -2.6674  -14.4324 O   0  0  0  0  0  0  0  0  0  0  0  0
  1  2  1  0
  3  4  1  6
  3  2  1  0
  5  3  1  0
  5  6  1  1
  7  8  2  0
  7  5  1  0
 10 11  1  1
 10  9  1  0
 12 10  1  0
 13 14  1  0
 13 12  1  1
 14  7  1  0
 15 13  1  0
 16 15  2  0
 17 18  1  0
 17 15  1  0
 19 18  1  0
 20 21  1  0
 20 19  1  0
 21 17  1  0
 21 22  1  1
 22 24  1  0
 23 22  2  0
M  END
$$$$
