ILP.pdb
     RDKit          3D

 24 24  0  0  1  0  0  0  0  0999 V2000
   18.9783  -10.9893  -21.5470 C   0  0  0  0  0  0  0  0  0  0  0  0
   19.5030  -11.6331  -20.2978 C   0  0  0  0  0  0  0  0  0  0  0  0
   19.3813  -10.6587  -19.1498 C   0  0  2  0  0  0  0  0  0  0  0  0
   20.2476   -9.4639  -19.5013 C   0  0  0  0  0  0  0  0  0  0  0  0
   19.7570  -11.2538  -17.8265 C   0  0  2  0  0  0  0  0  0  0  0  0
   18.9666  -12.4594  -17.6441 N   0  0  0  0  0  0  0  0  0  0  0  0
   19.5484  -10.3027  -16.6892 C   0  0  0  0  0  0  0  0  0  0  0  0
   18.4944   -9.6912  -16.5142 O   0  0  0  0  0  0  0  0  0  0  0  0
   20.4201   -9.0346  -11.6598 C   0  0  0  0  0  0  0  0  0  0  0  0
   21.7575   -9.0013  -12.4206 C   0  0  1  0  0  0  0  0  0  0  0  0
   22.7901   -9.6972  -11.4875 C   0  0  0  0  0  0  0  0  0  0  0  0
   21.5694   -9.8671  -13.6085 C   0  0  0  0  0  0  0  0  0  0  0  0
   20.7638   -9.1740  -14.7440 C   0  0  2  0  0  0  0  0  0  0  0  0
   20.6126  -10.1179  -15.8003 N   0  0  0  0  0  0  0  0  0  0  0  0
   21.3068   -7.8988  -15.1021 C   0  0  0  0  0  0  0  0  0  0  0  0
   22.3046   -7.8929  -15.8998 O   0  0  0  0  0  0  0  0  0  0  0  0
   20.8355   -6.6558  -14.6548 N   0  0  0  0  0  0  0  0  0  0  0  0
   19.6246   -6.4770  -13.8033 C   0  0  0  0  0  0  0  0  0  0  0  0
   18.9057   -5.4433  -14.6442 C   0  0  0  0  0  0  0  0  0  0  0  0
   20.0428   -4.5155  -15.0003 C   0  0  0  0  0  0  0  0  0  0  0  0
   21.3149   -5.3034  -14.7906 C   0  0  1  0  0  0  0  0  0  0  0  0
   21.9270   -4.7983  -13.5039 C   0  0  0  0  0  0  0  0  0  0  0  0
   21.7577   -5.3708  -12.4020 O   0  0  0  0  0  0  0  0  0  0  0  0
   22.7146   -3.6599  -13.4940 O   0  0  0  0  0  0  0  0  0  0  0  0
  1  2  1  0
  3  4  1  6
  3  2  1  0
  5  3  1  0
  5  6  1  1
  7  8  2  0
  7  5  1  0
 10 11  1  1
 10  9  1  0
 12 10  1  0
 13 14  1  0
 13 12  1  1
 14  7  1  0
 15 13  1  0
 16 15  2  0
 17 18  1  0
 17 15  1  0
 19 18  1  0
 20 21  1  0
 20 19  1  0
 21 17  1  0
 21 22  1  1
 22 24  1  0
 23 22  2  0
M  END
$$$$
