ILP.pdb
     RDKit          3D

 24 24  0  0  1  0  0  0  0  0999 V2000
   29.2266  -21.2589  -19.8954 C   0  0  0  0  0  0  0  0  0  0  0  0
   29.4221  -21.4901  -18.4262 C   0  0  0  0  0  0  0  0  0  0  0  0
   28.0834  -21.7763  -17.7874 C   0  0  2  0  0  0  0  0  0  0  0  0
   27.1827  -20.6027  -18.1232 C   0  0  0  0  0  0  0  0  0  0  0  0
   28.1711  -22.0111  -16.3097 C   0  0  2  0  0  0  0  0  0  0  0  0
   29.0175  -23.1729  -16.0966 N   0  0  0  0  0  0  0  0  0  0  0  0
   26.8278  -22.2076  -15.6787 C   0  0  0  0  0  0  0  0  0  0  0  0
   26.0713  -23.1276  -15.9903 O   0  0  0  0  0  0  0  0  0  0  0  0
   26.3319  -20.2565  -10.4338 C   0  0  0  0  0  0  0  0  0  0  0  0
   26.1585  -21.1909  -11.6443 C   0  0  1  0  0  0  0  0  0  0  0  0
   25.1663  -22.2974  -11.1834 C   0  0  0  0  0  0  0  0  0  0  0  0
   25.4801  -20.3834  -12.6855 C   0  0  0  0  0  0  0  0  0  0  0  0
   25.2044  -21.1829  -13.9906 C   0  0  2  0  0  0  0  0  0  0  0  0
   26.4379  -21.2929  -14.6949 N   0  0  0  0  0  0  0  0  0  0  0  0
   24.0937  -20.6622  -14.7285 C   0  0  0  0  0  0  0  0  0  0  0  0
   24.3379  -19.7366  -15.5744 O   0  0  0  0  0  0  0  0  0  0  0  0
   22.7615  -21.0831  -14.6044 N   0  0  0  0  0  0  0  0  0  0  0  0
   22.2940  -22.1027  -13.6221 C   0  0  0  0  0  0  0  0  0  0  0  0
   21.5578  -23.0183  -14.5772 C   0  0  0  0  0  0  0  0  0  0  0  0
   20.8178  -22.0153  -15.4300 C   0  0  0  0  0  0  0  0  0  0  0  0
   21.5326  -20.6963  -15.2504 C   0  0  1  0  0  0  0  0  0  0  0  0
   20.6655  -19.8573  -14.3395 C   0  0  0  0  0  0  0  0  0  0  0  0
   20.9075  -19.7110  -13.1186 O   0  0  0  0  0  0  0  0  0  0  0  0
   19.5475  -19.2049  -14.8302 O   0  0  0  0  0  0  0  0  0  0  0  0
  1  2  1  0
  3  4  1  1
  3  2  1  0
  5  3  1  0
  5  6  1  6
  7  8  2  0
  7  5  1  0
 10 11  1  1
 10  9  1  0
 12 10  1  0
 13 14  1  0
 13 12  1  1
 14  7  1  0
 15 13  1  0
 16 15  2  0
 17 18  1  0
 17 15  1  0
 19 18  1  0
 20 21  1  0
 20 19  1  0
 21 17  1  0
 21 22  1  1
 22 24  1  0
 23 22  2  0
M  END
$$$$
