ILP.pdb
     RDKit          3D

 24 24  0  0  1  0  0  0  0  0999 V2000
   24.2222  -22.6141  -13.5218 C   0  0  0  0  0  0  0  0  0  0  0  0
   23.9282  -21.7297  -12.3463 C   0  0  0  0  0  0  0  0  0  0  0  0
   25.2305  -21.2632  -11.7394 C   0  0  2  0  0  0  0  0  0  0  0  0
   25.9734  -22.5094  -11.2958 C   0  0  0  0  0  0  0  0  0  0  0  0
   25.0440  -20.2911  -10.6140 C   0  0  2  0  0  0  0  0  0  0  0  0
   24.2846  -19.1630  -11.1261 N   0  0  0  0  0  0  0  0  0  0  0  0
   26.3439  -19.8359  -10.0270 C   0  0  0  0  0  0  0  0  0  0  0  0
   27.2186  -19.2796  -10.6911 O   0  0  0  0  0  0  0  0  0  0  0  0
   28.3664  -17.6044   -4.9908 C   0  0  0  0  0  0  0  0  0  0  0  0
   28.6178  -18.9079   -5.7694 C   0  0  1  0  0  0  0  0  0  0  0  0
   28.5788  -20.0460   -4.7091 C   0  0  0  0  0  0  0  0  0  0  0  0
   27.4450  -19.0810   -6.6587 C   0  0  0  0  0  0  0  0  0  0  0  0
   27.7464  -19.9761   -7.8943 C   0  0  2  0  0  0  0  0  0  0  0  0
   26.5497  -20.0640   -8.6623 N   0  0  0  0  0  0  0  0  0  0  0  0
   28.3655  -21.2159   -7.5354 C   0  0  0  0  0  0  0  0  0  0  0  0
   27.5937  -22.1822   -7.2153 O   0  0  0  0  0  0  0  0  0  0  0  0
   29.7462  -21.4614   -7.5082 N   0  0  0  0  0  0  0  0  0  0  0  0
   30.7866  -20.4155   -7.7249 C   0  0  0  0  0  0  0  0  0  0  0  0
   31.5878  -21.1118   -8.8047 C   0  0  0  0  0  0  0  0  0  0  0  0
   31.6589  -22.5165   -8.2546 C   0  0  0  0  0  0  0  0  0  0  0  0
   30.5425  -22.6330   -7.2431 C   0  0  1  0  0  0  0  0  0  0  0  0
   31.1896  -22.5688   -5.8783 C   0  0  0  0  0  0  0  0  0  0  0  0
   31.2587  -21.5109   -5.2099 O   0  0  0  0  0  0  0  0  0  0  0  0
   31.7422  -23.7002   -5.3032 O   0  0  0  0  0  0  0  0  0  0  0  0
  1  2  1  0
  3  4  1  1
  3  2  1  0
  5  3  1  0
  5  6  1  6
  7  8  2  0
  7  5  1  0
 10 11  1  1
 10  9  1  0
 12 10  1  0
 13 14  1  0
 13 12  1  1
 14  7  1  0
 15 13  1  0
 16 15  2  0
 17 18  1  0
 17 15  1  0
 19 18  1  0
 20 21  1  0
 20 19  1  0
 21 17  1  0
 21 22  1  1
 22 24  1  0
 23 22  2  0
M  END
$$$$
