ILP.pdb
     RDKit          3D

 24 24  0  0  1  0  0  0  0  0999 V2000
   19.0526  -22.1590  -16.4196 C   0  0  0  0  0  0  0  0  0  0  0  0
   19.5053  -22.0299  -14.9952 C   0  0  0  0  0  0  0  0  0  0  0  0
   20.8345  -21.3129  -14.9611 C   0  0  2  0  0  0  0  0  0  0  0  0
   21.7849  -22.1193  -15.8259 C   0  0  0  0  0  0  0  0  0  0  0  0
   21.3667  -21.1191  -13.5733 C   0  0  2  0  0  0  0  0  0  0  0  0
   20.3562  -20.4084  -12.8082 N   0  0  0  0  0  0  0  0  0  0  0  0
   22.6675  -20.3783  -13.5554 C   0  0  0  0  0  0  0  0  0  0  0  0
   22.7769  -19.2107  -13.9299 O   0  0  0  0  0  0  0  0  0  0  0  0
   26.0721  -21.4687   -9.5261 C   0  0  0  0  0  0  0  0  0  0  0  0
   25.2147  -20.8821  -10.6617 C   0  0  1  0  0  0  0  0  0  0  0  0
   25.3382  -19.3368  -10.5273 C   0  0  0  0  0  0  0  0  0  0  0  0
   25.8853  -21.2792  -11.9221 C   0  0  0  0  0  0  0  0  0  0  0  0
   25.1736  -20.7259  -13.1894 C   0  0  2  0  0  0  0  0  0  0  0  0
   23.7935  -21.0646  -13.0885 N   0  0  0  0  0  0  0  0  0  0  0  0
   25.8359  -21.1058  -14.4003 C   0  0  0  0  0  0  0  0  0  0  0  0
   25.4009  -22.1456  -15.0016 O   0  0  0  0  0  0  0  0  0  0  0  0
   26.9190  -20.4328  -14.9844 N   0  0  0  0  0  0  0  0  0  0  0  0
   27.8407  -19.5267  -14.2409 C   0  0  0  0  0  0  0  0  0  0  0  0
   27.7521  -18.3177  -15.1481 C   0  0  0  0  0  0  0  0  0  0  0  0
   27.8447  -18.9669  -16.5085 C   0  0  0  0  0  0  0  0  0  0  0  0
   27.4837  -20.4206  -16.3104 C   0  0  1  0  0  0  0  0  0  0  0  0
   28.7789  -21.1979  -16.3706 C   0  0  0  0  0  0  0  0  0  0  0  0
   29.3267  -21.6826  -15.3529 O   0  0  0  0  0  0  0  0  0  0  0  0
   29.4226  -21.4082  -17.5779 O   0  0  0  0  0  0  0  0  0  0  0  0
  1  2  1  0
  3  4  1  6
  3  2  1  0
  5  3  1  0
  5  6  1  1
  7  8  2  0
  7  5  1  0
 10 11  1  1
 10  9  1  0
 12 10  1  0
 13 14  1  0
 13 12  1  1
 14  7  1  0
 15 13  1  0
 16 15  2  0
 17 18  1  0
 17 15  1  0
 19 18  1  0
 20 21  1  0
 20 19  1  0
 21 17  1  0
 21 22  1  1
 22 24  1  0
 23 22  2  0
M  END
$$$$
