ILP.pdb
     RDKit          3D

 24 24  0  0  1  0  0  0  0  0999 V2000
   27.2860  -16.6186  -15.4539 C   0  0  0  0  0  0  0  0  0  0  0  0
   25.7865  -16.6531  -15.4837 C   0  0  0  0  0  0  0  0  0  0  0  0
   25.2650  -15.2664  -15.7788 C   0  0  2  0  0  0  0  0  0  0  0  0
   25.7753  -14.3657  -14.6698 C   0  0  0  0  0  0  0  0  0  0  0  0
   23.7725  -15.2101  -15.9047 C   0  0  2  0  0  0  0  0  0  0  0  0
   23.3579  -16.3219  -16.7435 N   0  0  0  0  0  0  0  0  0  0  0  0
   23.2925  -13.9091  -16.4688 C   0  0  0  0  0  0  0  0  0  0  0  0
   23.9680  -13.2237  -17.2367 O   0  0  0  0  0  0  0  0  0  0  0  0
   18.7810  -11.3351  -18.0867 C   0  0  0  0  0  0  0  0  0  0  0  0
   19.0199  -11.2909  -16.5670 C   0  0  1  0  0  0  0  0  0  0  0  0
   17.6195  -11.4781  -15.9150 C   0  0  0  0  0  0  0  0  0  0  0  0
   19.8285  -12.4914  -16.2490 C   0  0  0  0  0  0  0  0  0  0  0  0
   21.3592  -12.2400  -16.3606 C   0  0  2  0  0  0  0  0  0  0  0  0
   22.0173  -13.4746  -16.0920 N   0  0  0  0  0  0  0  0  0  0  0  0
   21.7868  -11.1099  -15.5929 C   0  0  0  0  0  0  0  0  0  0  0  0
   22.1810  -11.3318  -14.3982 O   0  0  0  0  0  0  0  0  0  0  0  0
   21.8129   -9.7810  -16.0410 N   0  0  0  0  0  0  0  0  0  0  0  0
   21.3047   -9.3358  -17.3702 C   0  0  0  0  0  0  0  0  0  0  0  0
   22.5293   -8.5795  -17.8403 C   0  0  0  0  0  0  0  0  0  0  0  0
   22.9009   -7.8202  -16.5888 C   0  0  0  0  0  0  0  0  0  0  0  0
   22.2286   -8.5380  -15.4417 C   0  0  1  0  0  0  0  0  0  0  0  0
   21.0431   -7.6905  -15.0393 C   0  0  0  0  0  0  0  0  0  0  0  0
   19.8714   -7.9476  -15.4023 O   0  0  0  0  0  0  0  0  0  0  0  0
   21.2106   -6.5746  -14.2375 O   0  0  0  0  0  0  0  0  0  0  0  0
  1  2  1  0
  3  4  1  1
  3  2  1  0
  5  3  1  0
  5  6  1  6
  7  8  2  0
  7  5  1  0
 10 11  1  1
 10  9  1  0
 12 10  1  0
 13 14  1  0
 13 12  1  1
 14  7  1  0
 15 13  1  0
 16 15  2  0
 17 18  1  0
 17 15  1  0
 19 18  1  0
 20 21  1  0
 20 19  1  0
 21 17  1  0
 21 22  1  6
 22 24  1  0
 23 22  2  0
M  END
$$$$
