ILP.pdb
     RDKit          3D

 24 24  0  0  1  0  0  0  0  0999 V2000
   16.1127  -13.9507  -19.8876 C   0  0  0  0  0  0  0  0  0  0  0  0
   17.4148  -14.0861  -19.1551 C   0  0  0  0  0  0  0  0  0  0  0  0
   17.6226  -12.8688  -18.2851 C   0  0  2  0  0  0  0  0  0  0  0  0
   17.5855  -11.6649  -19.2074 C   0  0  0  0  0  0  0  0  0  0  0  0
   18.8885  -12.9230  -17.4844 C   0  0  2  0  0  0  0  0  0  0  0  0
   18.8863  -14.1703  -16.7388 N   0  0  0  0  0  0  0  0  0  0  0  0
   19.0361  -11.7520  -16.5635 C   0  0  0  0  0  0  0  0  0  0  0  0
   18.2306  -11.5011  -15.6669 O   0  0  0  0  0  0  0  0  0  0  0  0
   23.9039  -10.9782  -14.7288 C   0  0  0  0  0  0  0  0  0  0  0  0
   22.3675  -10.9315  -14.8048 C   0  0  1  0  0  0  0  0  0  0  0  0
   21.8889  -10.4972  -13.3893 C   0  0  0  0  0  0  0  0  0  0  0  0
   22.0416   -9.8344  -15.7463 C   0  0  0  0  0  0  0  0  0  0  0  0
   20.5215   -9.7335  -16.0588 C   0  0  2  0  0  0  0  0  0  0  0  0
   20.1461  -10.9213  -16.7501 N   0  0  0  0  0  0  0  0  0  0  0  0
   20.1713   -8.4946  -16.6846 C   0  0  0  0  0  0  0  0  0  0  0  0
   20.3080   -8.4224  -17.9527 O   0  0  0  0  0  0  0  0  0  0  0  0
   19.6882   -7.3547  -16.0253 N   0  0  0  0  0  0  0  0  0  0  0  0
   19.5071   -7.2557  -14.5486 C   0  0  0  0  0  0  0  0  0  0  0  0
   18.0688   -6.7832  -14.5269 C   0  0  0  0  0  0  0  0  0  0  0  0
   18.0879   -5.7412  -15.6199 C   0  0  0  0  0  0  0  0  0  0  0  0
   19.3021   -6.0388  -16.4686 C   0  0  1  0  0  0  0  0  0  0  0  0
   20.3429   -5.0030  -16.1092 C   0  0  0  0  0  0  0  0  0  0  0  0
   20.2770   -3.8129  -16.4965 O   0  0  0  0  0  0  0  0  0  0  0  0
   21.4314   -5.3370  -15.3219 O   0  0  0  0  0  0  0  0  0  0  0  0
  1  2  1  0
  3  4  1  6
  3  2  1  0
  5  3  1  0
  5  6  1  1
  7  8  2  0
  7  5  1  0
 10 11  1  1
 10  9  1  0
 12 10  1  0
 13 14  1  0
 13 12  1  6
 14  7  1  0
 15 13  1  0
 16 15  2  0
 17 18  1  0
 17 15  1  0
 19 18  1  0
 20 21  1  0
 20 19  1  0
 21 17  1  0
 21 22  1  1
 22 24  1  0
 23 22  2  0
M  END
$$$$
