ILP.pdb
     RDKit          3D

 24 24  0  0  1  0  0  0  0  0999 V2000
   26.6431  -19.5577  -19.0717 C   0  0  0  0  0  0  0  0  0  0  0  0
   27.1504  -20.5858  -18.1042 C   0  0  0  0  0  0  0  0  0  0  0  0
   27.8729  -19.8893  -16.9750 C   0  0  2  0  0  0  0  0  0  0  0  0
   28.9586  -19.0424  -17.6117 C   0  0  0  0  0  0  0  0  0  0  0  0
   28.4269  -20.8364  -15.9539 C   0  0  2  0  0  0  0  0  0  0  0  0
   29.2816  -21.7842  -16.6486 N   0  0  0  0  0  0  0  0  0  0  0  0
   27.3544  -21.5474  -15.1886 C   0  0  0  0  0  0  0  0  0  0  0  0
   26.7577  -22.5295  -15.6300 O   0  0  0  0  0  0  0  0  0  0  0  0
   25.9449  -21.1751   -9.2815 C   0  0  0  0  0  0  0  0  0  0  0  0
   25.2323  -21.1752  -10.6456 C   0  0  1  0  0  0  0  0  0  0  0  0
   24.2317  -19.9845  -10.5981 C   0  0  0  0  0  0  0  0  0  0  0  0
   26.2744  -20.8476  -11.6470 C   0  0  0  0  0  0  0  0  0  0  0  0
   25.9314  -21.3659  -13.0726 C   0  0  2  0  0  0  0  0  0  0  0  0
   27.0345  -21.0550  -13.9189 N   0  0  0  0  0  0  0  0  0  0  0  0
   24.6431  -20.9302  -13.5194 C   0  0  0  0  0  0  0  0  0  0  0  0
   24.5213  -19.6985  -13.8358 O   0  0  0  0  0  0  0  0  0  0  0  0
   23.5045  -21.7400  -13.6424 N   0  0  0  0  0  0  0  0  0  0  0  0
   23.4295  -23.1547  -13.1774 C   0  0  0  0  0  0  0  0  0  0  0  0
   22.9221  -23.7878  -14.4558 C   0  0  0  0  0  0  0  0  0  0  0  0
   21.8601  -22.7972  -14.8699 C   0  0  0  0  0  0  0  0  0  0  0  0
   22.1712  -21.5116  -14.1396 C   0  0  1  0  0  0  0  0  0  0  0  0
   21.1685  -21.4026  -13.0134 C   0  0  0  0  0  0  0  0  0  0  0  0
   21.4296  -21.7483  -11.8374 O   0  0  0  0  0  0  0  0  0  0  0  0
   19.8969  -20.9063  -13.2436 O   0  0  0  0  0  0  0  0  0  0  0  0
  1  2  1  0
  3  4  1  6
  3  2  1  0
  5  3  1  0
  5  6  1  6
  7  8  2  0
  7  5  1  0
 10 11  1  1
 10  9  1  0
 12 10  1  0
 13 14  1  0
 13 12  1  1
 14  7  1  0
 15 13  1  0
 16 15  2  0
 17 18  1  0
 17 15  1  0
 19 18  1  0
 20 21  1  0
 20 19  1  0
 21 17  1  0
 21 22  1  1
 22 24  1  0
 23 22  2  0
M  END
$$$$
