ILP.pdb
     RDKit          3D

 24 24  0  0  1  0  0  0  0  0999 V2000
   22.4533  -19.5357  -12.6666 C   0  0  0  0  0  0  0  0  0  0  0  0
   23.7727  -20.1778  -12.9784 C   0  0  0  0  0  0  0  0  0  0  0  0
   24.4493  -20.5719  -11.6865 C   0  0  2  0  0  0  0  0  0  0  0  0
   24.5898  -19.3038  -10.8658 C   0  0  0  0  0  0  0  0  0  0  0  0
   25.7674  -21.2548  -11.8934 C   0  0  2  0  0  0  0  0  0  0  0  0
   25.5348  -22.4191  -12.7312 N   0  0  0  0  0  0  0  0  0  0  0  0
   26.4193  -21.6476  -10.6042 C   0  0  0  0  0  0  0  0  0  0  0  0
   25.8731  -22.3733   -9.7731 O   0  0  0  0  0  0  0  0  0  0  0  0
   30.8522  -22.7888   -7.9265 C   0  0  0  0  0  0  0  0  0  0  0  0
   30.9068  -21.3365   -8.4329 C   0  0  1  0  0  0  0  0  0  0  0  0
   32.3514  -21.1333   -8.9741 C   0  0  0  0  0  0  0  0  0  0  0  0
   29.9807  -21.2753   -9.5882 C   0  0  0  0  0  0  0  0  0  0  0  0
   28.4857  -21.2058   -9.1655 C   0  0  2  0  0  0  0  0  0  0  0  0
   27.7051  -21.1558  -10.3562 N   0  0  0  0  0  0  0  0  0  0  0  0
   28.2366  -20.1814   -8.1971 C   0  0  0  0  0  0  0  0  0  0  0  0
   27.8342  -19.0506   -8.6345 O   0  0  0  0  0  0  0  0  0  0  0  0
   28.3937  -20.3138   -6.8096 N   0  0  0  0  0  0  0  0  0  0  0  0
   28.8801  -21.5523   -6.1367 C   0  0  0  0  0  0  0  0  0  0  0  0
   27.7640  -21.7160   -5.1268 C   0  0  0  0  0  0  0  0  0  0  0  0
   27.5986  -20.2951   -4.6425 C   0  0  0  0  0  0  0  0  0  0  0  0
   28.2202  -19.4117   -5.6990 C   0  0  1  0  0  0  0  0  0  0  0  0
   29.5487  -18.9484   -5.1458 C   0  0  0  0  0  0  0  0  0  0  0  0
   29.6529  -17.9874   -4.3482 O   0  0  0  0  0  0  0  0  0  0  0  0
   30.7253  -19.5818   -5.5071 O   0  0  0  0  0  0  0  0  0  0  0  0
  1  2  1  0
  3  4  1  1
  3  2  1  0
  5  3  1  0
  5  6  1  6
  7  8  2  0
  7  5  1  0
 10 11  1  6
 10  9  1  0
 12 10  1  0
 13 14  1  0
 13 12  1  6
 14  7  1  0
 15 13  1  0
 16 15  2  0
 17 18  1  0
 17 15  1  0
 19 18  1  0
 20 21  1  0
 20 19  1  0
 21 17  1  0
 21 22  1  1
 22 24  1  0
 23 22  2  0
M  END
$$$$
