PYF.pdb
     RDKit          3D

 31 33  0  0  1  0  0  0  0  0999 V2000
   24.6803  -19.5101  -18.4842 N   0  0  0  0  0  0  0  0  0  0  0  0
   25.6412  -18.8626  -19.3406 C   0  0  0  0  0  0  0  0  0  0  0  0
   25.5861  -17.3908  -19.0708 C   0  0  0  0  0  0  0  0  0  0  0  0
   24.2320  -17.2586  -18.3595 C   0  0  0  0  0  0  0  0  0  0  0  0
   24.2216  -18.5357  -17.5489 C   0  0  1  0  0  0  0  0  0  0  0  0
   22.9208  -18.8388  -16.9472 C   0  0  0  0  0  0  0  0  0  0  0  0
   22.5143  -18.0757  -16.0174 O   0  0  0  0  0  0  0  0  0  0  0  0
   18.8290  -14.7731  -19.8304 O   0  0  0  0  0  0  0  0  0  0  0  0
   19.0479  -16.0553  -19.3440 C   0  0  0  0  0  0  0  0  0  0  0  0
   19.9847  -16.8853  -19.9260 C   0  0  0  0  0  0  0  0  0  0  0  0
   20.1915  -18.1576  -19.4315 C   0  0  0  0  0  0  0  0  0  0  0  0
   19.4950  -18.6622  -18.3572 C   0  0  0  0  0  0  0  0  0  0  0  0
   19.6753  -20.0070  -17.7892 C   0  0  0  0  0  0  0  0  0  0  0  0
   20.7482  -20.0980  -16.7460 C   0  0  2  0  0  0  0  0  0  0  0  0
   22.0722  -19.9052  -17.3057 N   0  0  0  0  0  0  0  0  0  0  0  0
   20.6808  -21.3019  -15.8975 C   0  0  0  0  0  0  0  0  0  0  0  0
   20.9283  -22.4219  -16.4507 O   0  0  0  0  0  0  0  0  0  0  0  0
   18.5527  -17.8147  -17.7790 C   0  0  0  0  0  0  0  0  0  0  0  0
   18.3425  -16.5427  -18.2694 C   0  0  0  0  0  0  0  0  0  0  0  0
   20.3602  -21.2672  -14.5160 N   0  0  0  0  0  0  0  0  0  0  0  0
   20.4284  -22.4489  -13.6697 C   0  0  1  0  0  0  0  0  0  0  0  0
   21.2703  -22.0307  -12.4814 C   0  0  0  0  0  0  0  0  0  0  0  0
   20.7669  -20.8816  -11.7428 C   0  0  0  0  0  0  0  0  0  0  0  0
   21.0405  -19.5799  -12.0857 C   0  0  0  0  0  0  0  0  0  0  0  0
   20.5293  -18.5090  -11.3443 C   0  0  0  0  0  0  0  0  0  0  0  0
   19.7352  -18.7688  -10.2479 C   0  0  0  0  0  0  0  0  0  0  0  0
   19.4514  -20.0701   -9.8906 C   0  0  0  0  0  0  0  0  0  0  0  0
   19.9602  -21.1410  -10.6286 C   0  0  0  0  0  0  0  0  0  0  0  0
   19.0524  -22.8063  -13.2739 C   0  0  0  0  0  0  0  0  0  0  0  0
   18.0290  -21.8962  -13.4918 O   0  0  0  0  0  0  0  0  0  0  0  0
   18.7845  -23.8949  -12.7525 O   0  0  0  0  0  0  0  0  0  0  0  0
  1  2  1  0
  3  2  1  0
  4  3  1  0
  5  4  1  0
  5  1  1  0
  6  7  2  0
  5  6  1  6
  8  9  1  0
  9 10  2  0
  9 19  1  0
 10 11  1  0
 11 12  2  0
 12 13  1  0
 14 13  1  6
 14 15  1  0
 15  6  1  0
 16 17  2  0
 16 14  1  0
 18 12  1  0
 19 18  2  0
 20 16  1  0
 21 22  1  1
 21 20  1  0
 23 22  1  0
 23 28  1  0
 24 23  2  0
 25 24  1  0
 25 26  2  0
 26 27  1  0
 27 28  2  0
 29 21  1  0
 30 29  1  0
 31 29  2  0
M  END
$$$$
