PYF.pdb
     RDKit          3D

 31 33  0  0  1  0  0  0  0  0999 V2000
   26.6208  -19.1459  -15.4524 N   0  0  0  0  0  0  0  0  0  0  0  0
   27.7017  -18.9694  -16.3887 C   0  0  0  0  0  0  0  0  0  0  0  0
   28.9574  -19.4752  -15.7489 C   0  0  0  0  0  0  0  0  0  0  0  0
   28.5578  -19.5044  -14.2669 C   0  0  0  0  0  0  0  0  0  0  0  0
   27.1154  -19.9458  -14.3799 C   0  0  1  0  0  0  0  0  0  0  0  0
   26.3620  -19.8163  -13.1303 C   0  0  0  0  0  0  0  0  0  0  0  0
   26.0238  -18.6469  -12.7696 O   0  0  0  0  0  0  0  0  0  0  0  0
   20.2903  -18.2054  -13.9618 O   0  0  0  0  0  0  0  0  0  0  0  0
   21.2056  -18.9344  -13.2138 C   0  0  0  0  0  0  0  0  0  0  0  0
   21.9968  -19.8993  -13.8040 C   0  0  0  0  0  0  0  0  0  0  0  0
   22.9025  -20.6162  -13.0478 C   0  0  0  0  0  0  0  0  0  0  0  0
   23.0672  -20.4179  -11.6960 C   0  0  0  0  0  0  0  0  0  0  0  0
   24.0159  -21.1506  -10.8436 C   0  0  0  0  0  0  0  0  0  0  0  0
   25.4350  -20.6799  -10.9528 C   0  0  2  0  0  0  0  0  0  0  0  0
   25.9745  -20.8750  -12.2848 N   0  0  0  0  0  0  0  0  0  0  0  0
   26.3388  -21.2038   -9.9123 C   0  0  0  0  0  0  0  0  0  0  0  0
   26.9133  -22.3166  -10.1428 O   0  0  0  0  0  0  0  0  0  0  0  0
   22.2628  -19.4415  -11.1126 C   0  0  0  0  0  0  0  0  0  0  0  0
   21.3565  -18.7226  -11.8639 C   0  0  0  0  0  0  0  0  0  0  0  0
   26.5934  -20.5329   -8.6884 N   0  0  0  0  0  0  0  0  0  0  0  0
   27.3304  -21.1530   -7.5979 C   0  0  1  0  0  0  0  0  0  0  0  0
   28.5833  -20.3146   -7.4461 C   0  0  0  0  0  0  0  0  0  0  0  0
   28.7336  -19.6585   -6.1552 C   0  0  0  0  0  0  0  0  0  0  0  0
   28.2441  -18.4051   -5.8793 C   0  0  0  0  0  0  0  0  0  0  0  0
   28.4120  -17.8188   -4.6200 C   0  0  0  0  0  0  0  0  0  0  0  0
   29.0831  -18.5159   -3.6382 C   0  0  0  0  0  0  0  0  0  0  0  0
   29.5806  -19.7752   -3.8994 C   0  0  0  0  0  0  0  0  0  0  0  0
   29.4145  -20.3629   -5.1553 C   0  0  0  0  0  0  0  0  0  0  0  0
   26.4836  -21.1054   -6.3901 C   0  0  0  0  0  0  0  0  0  0  0  0
   25.2808  -20.4167   -6.4354 O   0  0  0  0  0  0  0  0  0  0  0  0
   26.8155  -21.6620   -5.3372 O   0  0  0  0  0  0  0  0  0  0  0  0
  1  2  1  0
  3  2  1  0
  4  3  1  0
  5  4  1  0
  5  1  1  0
  6  7  2  0
  5  6  1  1
  8  9  1  0
  9 10  2  0
  9 19  1  0
 10 11  1  0
 11 12  2  0
 12 13  1  0
 14 13  1  6
 14 15  1  0
 15  6  1  0
 16 17  2  0
 16 14  1  0
 18 12  1  0
 19 18  2  0
 20 16  1  0
 21 22  1  1
 21 20  1  0
 23 22  1  0
 23 28  1  0
 24 23  2  0
 25 24  1  0
 25 26  2  0
 26 27  1  0
 27 28  2  0
 29 21  1  0
 30 29  1  0
 31 29  2  0
M  END
$$$$
