PYF.pdb
     RDKit          3D

 31 33  0  0  1  0  0  0  0  0999 V2000
   28.0378  -20.6283  -15.2338 N   0  0  0  0  0  0  0  0  0  0  0  0
   28.3967  -20.3033  -16.5910 C   0  0  0  0  0  0  0  0  0  0  0  0
   28.3000  -18.8181  -16.7539 C   0  0  0  0  0  0  0  0  0  0  0  0
   27.4361  -18.4313  -15.5450 C   0  0  0  0  0  0  0  0  0  0  0  0
   27.9614  -19.4014  -14.5102 C   0  0  1  0  0  0  0  0  0  0  0  0
   27.1445  -19.4642  -13.2959 C   0  0  0  0  0  0  0  0  0  0  0  0
   26.9635  -18.3826  -12.6560 O   0  0  0  0  0  0  0  0  0  0  0  0
   21.1242  -18.8912  -15.9493 O   0  0  0  0  0  0  0  0  0  0  0  0
   21.9029  -19.4771  -14.9599 C   0  0  0  0  0  0  0  0  0  0  0  0
   21.7720  -19.1019  -13.6380 C   0  0  0  0  0  0  0  0  0  0  0  0
   22.5530  -19.6932  -12.6651 C   0  0  0  0  0  0  0  0  0  0  0  0
   23.4845  -20.6664  -12.9464 C   0  0  0  0  0  0  0  0  0  0  0  0
   24.3408  -21.3298  -11.9513 C   0  0  0  0  0  0  0  0  0  0  0  0
   25.6145  -20.5996  -11.6478 C   0  0  2  0  0  0  0  0  0  0  0  0
   26.5362  -20.6203  -12.7673 N   0  0  0  0  0  0  0  0  0  0  0  0
   26.2696  -21.0023  -10.3897 C   0  0  0  0  0  0  0  0  0  0  0  0
   26.8262  -22.1472  -10.3605 O   0  0  0  0  0  0  0  0  0  0  0  0
   23.6068  -21.0359  -14.2840 C   0  0  0  0  0  0  0  0  0  0  0  0
   22.8287  -20.4482  -15.2596 C   0  0  0  0  0  0  0  0  0  0  0  0
   26.3081  -20.1833   -9.2319 N   0  0  0  0  0  0  0  0  0  0  0  0
   26.8913  -20.6336   -7.9773 C   0  0  1  0  0  0  0  0  0  0  0  0
   27.7851  -19.4947   -7.5305 C   0  0  0  0  0  0  0  0  0  0  0  0
   28.3006  -19.6110   -6.1740 C   0  0  0  0  0  0  0  0  0  0  0  0
   27.7290  -18.9918   -5.0892 C   0  0  0  0  0  0  0  0  0  0  0  0
   28.2614  -19.1379   -3.8035 C   0  0  0  0  0  0  0  0  0  0  0  0
   29.3826  -19.9197   -3.6250 C   0  0  0  0  0  0  0  0  0  0  0  0
   29.9683  -20.5478   -4.7039 C   0  0  0  0  0  0  0  0  0  0  0  0
   29.4392  -20.4040   -5.9883 C   0  0  0  0  0  0  0  0  0  0  0  0
   25.7909  -20.8790   -7.0250 C   0  0  0  0  0  0  0  0  0  0  0  0
   26.0367  -21.6357   -5.8892 O   0  0  0  0  0  0  0  0  0  0  0  0
   24.6542  -20.4295   -7.2105 O   0  0  0  0  0  0  0  0  0  0  0  0
  1  2  1  0
  3  2  1  0
  4  3  1  0
  5  4  1  0
  5  1  1  0
  6  7  2  0
  5  6  1  1
  8  9  1  0
  9 10  2  0
  9 19  1  0
 10 11  1  0
 11 12  2  0
 12 13  1  0
 14 13  1  6
 14 15  1  0
 15  6  1  0
 16 17  2  0
 16 14  1  0
 18 12  1  0
 19 18  2  0
 20 16  1  0
 21 22  1  1
 21 20  1  0
 23 22  1  0
 23 28  1  0
 24 23  2  0
 25 24  1  0
 25 26  2  0
 26 27  1  0
 27 28  2  0
 29 21  1  0
 30 29  1  0
 31 29  2  0
M  END
$$$$
