PYF.pdb
     RDKit          3D

 31 33  0  0  1  0  0  0  0  0999 V2000
   28.8450  -19.3059  -18.9139 N   0  0  0  0  0  0  0  0  0  0  0  0
   29.9308  -18.7957  -19.7119 C   0  0  0  0  0  0  0  0  0  0  0  0
   30.7037  -17.8227  -18.8765 C   0  0  0  0  0  0  0  0  0  0  0  0
   29.6996  -17.5121  -17.7574 C   0  0  0  0  0  0  0  0  0  0  0  0
   29.0643  -18.8723  -17.5728 C   0  0  1  0  0  0  0  0  0  0  0  0
   27.8602  -18.8500  -16.7388 C   0  0  0  0  0  0  0  0  0  0  0  0
   28.0070  -18.5808  -15.5066 O   0  0  0  0  0  0  0  0  0  0  0  0
   19.4024  -18.4049  -13.9940 O   0  0  0  0  0  0  0  0  0  0  0  0
   20.5749  -18.4007  -14.7381 C   0  0  0  0  0  0  0  0  0  0  0  0
   21.3735  -17.2764  -14.7986 C   0  0  0  0  0  0  0  0  0  0  0  0
   22.5365  -17.2869  -15.5425 C   0  0  0  0  0  0  0  0  0  0  0  0
   22.9590  -18.3891  -16.2500 C   0  0  0  0  0  0  0  0  0  0  0  0
   24.1874  -18.4560  -17.0563 C   0  0  0  0  0  0  0  0  0  0  0  0
   25.3798  -18.9911  -16.3219 C   0  0  2  0  0  0  0  0  0  0  0  0
   26.5451  -19.1009  -17.1783 N   0  0  0  0  0  0  0  0  0  0  0  0
   25.1319  -20.2350  -15.5700 C   0  0  0  0  0  0  0  0  0  0  0  0
   25.1089  -21.3233  -16.2310 O   0  0  0  0  0  0  0  0  0  0  0  0
   22.1443  -19.5169  -16.1807 C   0  0  0  0  0  0  0  0  0  0  0  0
   20.9814  -19.5114  -15.4389 C   0  0  0  0  0  0  0  0  0  0  0  0
   24.9239  -20.2718  -14.1672 N   0  0  0  0  0  0  0  0  0  0  0  0
   24.6613  -21.5103  -13.4500 C   0  0  1  0  0  0  0  0  0  0  0  0
   25.8003  -21.6374  -12.4589 C   0  0  0  0  0  0  0  0  0  0  0  0
   25.7185  -20.7494  -11.3083 C   0  0  0  0  0  0  0  0  0  0  0  0
   26.1559  -19.4473  -11.3218 C   0  0  0  0  0  0  0  0  0  0  0  0
   26.0520  -18.6326  -10.1891 C   0  0  0  0  0  0  0  0  0  0  0  0
   25.4990  -19.1501   -9.0373 C   0  0  0  0  0  0  0  0  0  0  0  0
   25.0552  -20.4554   -9.0075 C   0  0  0  0  0  0  0  0  0  0  0  0
   25.1576  -21.2710  -10.1365 C   0  0  0  0  0  0  0  0  0  0  0  0
   23.3546  -21.3788  -12.7765 C   0  0  0  0  0  0  0  0  0  0  0  0
   22.6658  -22.5250  -12.4094 O   0  0  0  0  0  0  0  0  0  0  0  0
   22.8550  -20.2752  -12.5300 O   0  0  0  0  0  0  0  0  0  0  0  0
  1  2  1  0
  3  2  1  0
  4  3  1  0
  5  4  1  0
  5  1  1  0
  6  7  2  0
  5  6  1  1
  8  9  1  0
  9 10  2  0
  9 19  1  0
 10 11  1  0
 11 12  2  0
 12 13  1  0
 14 13  1  6
 14 15  1  0
 15  6  1  0
 16 17  2  0
 16 14  1  0
 18 12  1  0
 19 18  2  0
 20 16  1  0
 21 22  1  1
 21 20  1  0
 23 22  1  0
 23 28  1  0
 24 23  2  0
 25 24  1  0
 25 26  2  0
 26 27  1  0
 27 28  2  0
 29 21  1  0
 30 29  1  0
 31 29  2  0
M  END
$$$$
