PYF.pdb
     RDKit          3D

 31 33  0  0  1  0  0  0  0  0999 V2000
   28.1841  -19.0942  -17.9302 N   0  0  0  0  0  0  0  0  0  0  0  0
   28.7976  -18.3527  -19.0026 C   0  0  0  0  0  0  0  0  0  0  0  0
   29.2506  -17.0345  -18.4558 C   0  0  0  0  0  0  0  0  0  0  0  0
   28.4371  -16.9440  -17.1569 C   0  0  0  0  0  0  0  0  0  0  0  0
   28.4565  -18.3917  -16.7191 C   0  0  1  0  0  0  0  0  0  0  0  0
   27.5277  -18.6871  -15.6255 C   0  0  0  0  0  0  0  0  0  0  0  0
   27.7718  -18.1657  -14.4937 O   0  0  0  0  0  0  0  0  0  0  0  0
   20.1680  -20.5439  -11.0084 O   0  0  0  0  0  0  0  0  0  0  0  0
   21.1228  -20.4210  -12.0094 C   0  0  0  0  0  0  0  0  0  0  0  0
   21.8963  -21.4994  -12.3892 C   0  0  0  0  0  0  0  0  0  0  0  0
   22.8416  -21.3623  -13.3860 C   0  0  0  0  0  0  0  0  0  0  0  0
   23.0643  -20.1742  -14.0440 C   0  0  0  0  0  0  0  0  0  0  0  0
   24.0552  -19.9724  -15.1121 C   0  0  0  0  0  0  0  0  0  0  0  0
   25.4411  -19.6793  -14.6214 C   0  0  2  0  0  0  0  0  0  0  0  0
   26.3806  -19.5011  -15.7118 N   0  0  0  0  0  0  0  0  0  0  0  0
   25.9479  -20.6238  -13.6089 C   0  0  0  0  0  0  0  0  0  0  0  0
   26.3867  -21.7452  -14.0229 O   0  0  0  0  0  0  0  0  0  0  0  0
   22.2773  -19.0940  -13.6513 C   0  0  0  0  0  0  0  0  0  0  0  0
   21.3315  -19.2259  -12.6560 C   0  0  0  0  0  0  0  0  0  0  0  0
   25.9696  -20.3417  -12.2187 N   0  0  0  0  0  0  0  0  0  0  0  0
   26.4199  -21.3125  -11.2329 C   0  0  1  0  0  0  0  0  0  0  0  0
   27.6962  -20.7278  -10.6629 C   0  0  0  0  0  0  0  0  0  0  0  0
   27.6042  -20.2748   -9.2824 C   0  0  0  0  0  0  0  0  0  0  0  0
   26.9194  -19.1480   -8.8974 C   0  0  0  0  0  0  0  0  0  0  0  0
   26.8579  -18.7564   -7.5556 C   0  0  0  0  0  0  0  0  0  0  0  0
   27.4989  -19.5189   -6.6027 C   0  0  0  0  0  0  0  0  0  0  0  0
   28.1906  -20.6529   -6.9730 C   0  0  0  0  0  0  0  0  0  0  0  0
   28.2537  -21.0463   -8.3116 C   0  0  0  0  0  0  0  0  0  0  0  0
   25.3661  -21.4441  -10.2081 C   0  0  0  0  0  0  0  0  0  0  0  0
   25.4409  -22.4825   -9.2920 O   0  0  0  0  0  0  0  0  0  0  0  0
   24.4168  -20.6547  -10.1423 O   0  0  0  0  0  0  0  0  0  0  0  0
  1  2  1  0
  3  2  1  0
  4  3  1  0
  5  4  1  0
  5  1  1  0
  6  7  2  0
  5  6  1  1
  8  9  1  0
  9 10  2  0
  9 19  1  0
 10 11  1  0
 11 12  2  0
 12 13  1  0
 14 13  1  6
 14 15  1  0
 15  6  1  0
 16 17  2  0
 16 14  1  0
 18 12  1  0
 19 18  2  0
 20 16  1  0
 21 22  1  1
 21 20  1  0
 23 22  1  0
 23 28  1  0
 24 23  2  0
 25 24  1  0
 25 26  2  0
 26 27  1  0
 27 28  2  0
 29 21  1  0
 30 29  1  0
 31 29  2  0
M  END
$$$$
