PYF.pdb
     RDKit          3D

 31 33  0  0  1  0  0  0  0  0999 V2000
   28.0249  -20.7150  -15.3233 N   0  0  0  0  0  0  0  0  0  0  0  0
   28.3266  -20.4001  -16.6966 C   0  0  0  0  0  0  0  0  0  0  0  0
   28.2712  -18.9122  -16.8548 C   0  0  0  0  0  0  0  0  0  0  0  0
   27.4815  -18.4988  -15.6048 C   0  0  0  0  0  0  0  0  0  0  0  0
   28.0250  -19.4873  -14.5970 C   0  0  1  0  0  0  0  0  0  0  0  0
   27.2676  -19.5248  -13.3437 C   0  0  0  0  0  0  0  0  0  0  0  0
   27.2339  -18.4628  -12.6485 O   0  0  0  0  0  0  0  0  0  0  0  0
   21.2793  -18.8786  -16.1494 O   0  0  0  0  0  0  0  0  0  0  0  0
   22.0237  -19.4459  -15.1234 C   0  0  0  0  0  0  0  0  0  0  0  0
   21.9603  -18.9443  -13.8389 C   0  0  0  0  0  0  0  0  0  0  0  0
   22.7061  -19.5186  -12.8289 C   0  0  0  0  0  0  0  0  0  0  0  0
   23.5358  -20.5969  -13.0356 C   0  0  0  0  0  0  0  0  0  0  0  0
   24.3502  -21.2478  -11.9981 C   0  0  0  0  0  0  0  0  0  0  0  0
   25.6511  -20.5597  -11.7121 C   0  0  2  0  0  0  0  0  0  0  0  0
   26.5678  -20.6364  -12.8333 N   0  0  0  0  0  0  0  0  0  0  0  0
   26.2950  -20.9618  -10.4481 C   0  0  0  0  0  0  0  0  0  0  0  0
   26.9104  -22.0766  -10.4340 O   0  0  0  0  0  0  0  0  0  0  0  0
   23.5907  -21.0934  -14.3360 C   0  0  0  0  0  0  0  0  0  0  0  0
   22.8476  -20.5231  -15.3485 C   0  0  0  0  0  0  0  0  0  0  0  0
   26.2611  -20.1740   -9.2688 N   0  0  0  0  0  0  0  0  0  0  0  0
   26.7522  -20.6634   -7.9896 C   0  0  1  0  0  0  0  0  0  0  0  0
   27.8431  -19.6903   -7.5913 C   0  0  0  0  0  0  0  0  0  0  0  0
   28.3161  -19.8214   -6.2207 C   0  0  0  0  0  0  0  0  0  0  0  0
   27.8352  -19.0694   -5.1767 C   0  0  0  0  0  0  0  0  0  0  0  0
   28.3210  -19.2358   -3.8752 C   0  0  0  0  0  0  0  0  0  0  0  0
   29.3026  -20.1745   -3.6389 C   0  0  0  0  0  0  0  0  0  0  0  0
   29.7959  -20.9373   -4.6764 C   0  0  0  0  0  0  0  0  0  0  0  0
   29.3129  -20.7735   -5.9765 C   0  0  0  0  0  0  0  0  0  0  0  0
   25.6268  -20.6532   -7.0350 C   0  0  0  0  0  0  0  0  0  0  0  0
   25.7263  -21.3921   -5.8657 O   0  0  0  0  0  0  0  0  0  0  0  0
   24.5959  -20.0046   -7.2475 O   0  0  0  0  0  0  0  0  0  0  0  0
  1  2  1  0
  3  2  1  0
  4  3  1  0
  5  4  1  0
  5  1  1  0
  6  7  2  0
  5  6  1  1
  8  9  1  0
  9 10  2  0
  9 19  1  0
 10 11  1  0
 11 12  2  0
 12 13  1  0
 14 13  1  6
 14 15  1  0
 15  6  1  0
 16 17  2  0
 16 14  1  0
 18 12  1  0
 19 18  2  0
 20 16  1  0
 21 22  1  1
 21 20  1  0
 23 22  1  0
 23 28  1  0
 24 23  2  0
 25 24  1  0
 25 26  2  0
 26 27  1  0
 27 28  2  0
 29 21  1  0
 30 29  1  0
 31 29  2  0
M  END
$$$$
