PYF.pdb
     RDKit          3D

 31 33  0  0  1  0  0  0  0  0999 V2000
   26.4660  -22.4727  -16.3196 N   0  0  0  0  0  0  0  0  0  0  0  0
   26.6875  -22.6903  -17.7266 C   0  0  0  0  0  0  0  0  0  0  0  0
   28.1352  -22.4372  -18.0133 C   0  0  0  0  0  0  0  0  0  0  0  0
   28.5595  -21.6377  -16.7732 C   0  0  0  0  0  0  0  0  0  0  0  0
   27.7460  -22.3346  -15.7053 C   0  0  1  0  0  0  0  0  0  0  0  0
   27.7294  -21.6258  -14.4235 C   0  0  0  0  0  0  0  0  0  0  0  0
   28.8244  -21.5441  -13.7860 O   0  0  0  0  0  0  0  0  0  0  0  0
   27.8672  -16.2509  -17.6392 O   0  0  0  0  0  0  0  0  0  0  0  0
   27.4509  -16.8767  -16.4714 C   0  0  0  0  0  0  0  0  0  0  0  0
   28.3162  -17.0463  -15.4094 C   0  0  0  0  0  0  0  0  0  0  0  0
   27.8883  -17.6703  -14.2546 C   0  0  0  0  0  0  0  0  0  0  0  0
   26.6075  -18.1482  -14.0961 C   0  0  0  0  0  0  0  0  0  0  0  0
   26.0986  -18.8184  -12.8898 C   0  0  0  0  0  0  0  0  0  0  0  0
   26.6785  -20.1797  -12.6485 C   0  0  2  0  0  0  0  0  0  0  0  0
   26.6046  -21.0218  -13.8269 N   0  0  0  0  0  0  0  0  0  0  0  0
   26.1605  -20.8655  -11.4504 C   0  0  0  0  0  0  0  0  0  0  0  0
   25.1701  -21.6502  -11.6079 O   0  0  0  0  0  0  0  0  0  0  0  0
   25.7444  -17.9708  -15.1751 C   0  0  0  0  0  0  0  0  0  0  0  0
   26.1672  -17.3480  -16.3309 C   0  0  0  0  0  0  0  0  0  0  0  0
   26.7093  -20.6939  -10.1534 N   0  0  0  0  0  0  0  0  0  0  0  0
   26.1569  -21.3528   -8.9796 C   0  0  1  0  0  0  0  0  0  0  0  0
   27.3374  -21.5512   -8.0507 C   0  0  0  0  0  0  0  0  0  0  0  0
   27.5619  -20.4721   -7.0997 C   0  0  0  0  0  0  0  0  0  0  0  0
   28.1704  -19.2852   -7.4283 C   0  0  0  0  0  0  0  0  0  0  0  0
   28.3602  -18.2767   -6.4773 C   0  0  0  0  0  0  0  0  0  0  0  0
   27.9266  -18.4812   -5.1848 C   0  0  0  0  0  0  0  0  0  0  0  0
   27.3140  -19.6673   -4.8390 C   0  0  0  0  0  0  0  0  0  0  0  0
   27.1232  -20.6758   -5.7861 C   0  0  0  0  0  0  0  0  0  0  0  0
   25.1365  -20.4616   -8.3943 C   0  0  0  0  0  0  0  0  0  0  0  0
   24.3047  -20.9499   -7.3980 O   0  0  0  0  0  0  0  0  0  0  0  0
   25.0010  -19.2905   -8.7669 O   0  0  0  0  0  0  0  0  0  0  0  0
  1  2  1  0
  3  2  1  0
  4  3  1  0
  5  4  1  0
  5  1  1  0
  6  7  2  0
  5  6  1  1
  8  9  1  0
  9 10  2  0
  9 19  1  0
 10 11  1  0
 11 12  2  0
 12 13  1  0
 14 13  1  6
 14 15  1  0
 15  6  1  0
 16 17  2  0
 16 14  1  0
 18 12  1  0
 19 18  2  0
 20 16  1  0
 21 22  1  1
 21 20  1  0
 23 22  1  0
 23 28  1  0
 24 23  2  0
 25 24  1  0
 25 26  2  0
 26 27  1  0
 27 28  2  0
 29 21  1  0
 30 29  1  0
 31 29  2  0
M  END
$$$$
