PYF.pdb
     RDKit          3D

 31 33  0  0  1  0  0  0  0  0999 V2000
   23.0582  -19.7374  -17.4875 N   0  0  0  0  0  0  0  0  0  0  0  0
   23.5134  -21.0250  -17.9470 C   0  0  0  0  0  0  0  0  0  0  0  0
   24.6622  -20.8048  -18.8818 C   0  0  0  0  0  0  0  0  0  0  0  0
   24.4893  -19.3214  -19.2380 C   0  0  0  0  0  0  0  0  0  0  0  0
   24.0205  -18.7724  -17.9089 C   0  0  1  0  0  0  0  0  0  0  0  0
   23.5096  -17.4017  -17.9868 C   0  0  0  0  0  0  0  0  0  0  0  0
   23.1068  -16.9910  -19.1187 O   0  0  0  0  0  0  0  0  0  0  0  0
   17.4185  -18.5888  -17.3735 O   0  0  0  0  0  0  0  0  0  0  0  0
   18.4565  -17.7168  -17.0725 C   0  0  0  0  0  0  0  0  0  0  0  0
   19.3920  -18.0324  -16.1079 C   0  0  0  0  0  0  0  0  0  0  0  0
   20.4186  -17.1556  -15.8193 C   0  0  0  0  0  0  0  0  0  0  0  0
   20.5677  -15.9460  -16.4585 C   0  0  0  0  0  0  0  0  0  0  0  0
   21.6409  -14.9760  -16.1923 C   0  0  0  0  0  0  0  0  0  0  0  0
   22.8624  -15.1577  -17.0424 C   0  0  2  0  0  0  0  0  0  0  0  0
   23.4226  -16.4895  -16.9162 N   0  0  0  0  0  0  0  0  0  0  0  0
   23.8888  -14.1124  -16.8760 C   0  0  0  0  0  0  0  0  0  0  0  0
   23.5334  -12.9064  -17.0784 O   0  0  0  0  0  0  0  0  0  0  0  0
   19.6172  -15.6395  -17.4297 C   0  0  0  0  0  0  0  0  0  0  0  0
   18.5897  -16.5123  -17.7216 C   0  0  0  0  0  0  0  0  0  0  0  0
   25.2303  -14.3865  -16.5048 N   0  0  0  0  0  0  0  0  0  0  0  0
   26.2620  -13.3606  -16.4954 C   0  0  1  0  0  0  0  0  0  0  0  0
   27.3234  -13.8822  -15.5483 C   0  0  0  0  0  0  0  0  0  0  0  0
   27.8443  -15.2023  -15.8726 C   0  0  0  0  0  0  0  0  0  0  0  0
   27.3977  -16.3601  -15.2836 C   0  0  0  0  0  0  0  0  0  0  0  0
   27.9292  -17.6064  -15.6328 C   0  0  0  0  0  0  0  0  0  0  0  0
   28.9213  -17.6705  -16.5877 C   0  0  0  0  0  0  0  0  0  0  0  0
   29.3807  -16.5172  -17.1881 C   0  0  0  0  0  0  0  0  0  0  0  0
   28.8521  -15.2718  -16.8417 C   0  0  0  0  0  0  0  0  0  0  0  0
   26.7729  -13.2151  -17.8723 C   0  0  0  0  0  0  0  0  0  0  0  0
   27.5151  -12.0910  -18.2019 O   0  0  0  0  0  0  0  0  0  0  0  0
   26.5580  -14.0669  -18.7422 O   0  0  0  0  0  0  0  0  0  0  0  0
  1  2  1  0
  3  2  1  0
  4  3  1  0
  5  4  1  0
  5  1  1  0
  6  7  2  0
  5  6  1  6
  8  9  1  0
  9 10  2  0
  9 19  1  0
 10 11  1  0
 11 12  2  0
 12 13  1  0
 14 13  1  1
 14 15  1  0
 15  6  1  0
 16 17  2  0
 16 14  1  0
 18 12  1  0
 19 18  2  0
 20 16  1  0
 21 22  1  1
 21 20  1  0
 23 22  1  0
 23 28  1  0
 24 23  2  0
 25 24  1  0
 25 26  2  0
 26 27  1  0
 27 28  2  0
 29 21  1  0
 30 29  1  0
 31 29  2  0
M  END
$$$$
