PYF.pdb
     RDKit          3D

 31 33  0  0  1  0  0  0  0  0999 V2000
   28.7471  -20.6667  -18.4349 N   0  0  0  0  0  0  0  0  0  0  0  0
   29.3652  -20.3721  -19.7027 C   0  0  0  0  0  0  0  0  0  0  0  0
   29.4570  -18.8839  -19.8398 C   0  0  0  0  0  0  0  0  0  0  0  0
   28.4455  -18.4144  -18.7845 C   0  0  0  0  0  0  0  0  0  0  0  0
   28.6795  -19.4447  -17.7021 C   0  0  1  0  0  0  0  0  0  0  0  0
   27.6651  -19.4274  -16.6454 C   0  0  0  0  0  0  0  0  0  0  0  0
   27.6019  -18.3927  -15.9121 O   0  0  0  0  0  0  0  0  0  0  0  0
   20.1226  -20.2503  -12.1440 O   0  0  0  0  0  0  0  0  0  0  0  0
   21.1690  -20.4158  -13.0419 C   0  0  0  0  0  0  0  0  0  0  0  0
   21.9178  -21.5753  -13.0538 C   0  0  0  0  0  0  0  0  0  0  0  0
   22.9552  -21.7257  -13.9523 C   0  0  0  0  0  0  0  0  0  0  0  0
   23.2966  -20.7551  -14.8662 C   0  0  0  0  0  0  0  0  0  0  0  0
   24.3891  -20.8627  -15.8452 C   0  0  0  0  0  0  0  0  0  0  0  0
   25.7111  -20.3544  -15.3537 C   0  0  2  0  0  0  0  0  0  0  0  0
   26.7463  -20.4581  -16.3642 N   0  0  0  0  0  0  0  0  0  0  0  0
   26.1457  -20.9186  -14.0626 C   0  0  0  0  0  0  0  0  0  0  0  0
   26.6496  -22.0880  -14.0753 O   0  0  0  0  0  0  0  0  0  0  0  0
   22.5333  -19.5900  -14.8438 C   0  0  0  0  0  0  0  0  0  0  0  0
   21.4959  -19.4350  -13.9481 C   0  0  0  0  0  0  0  0  0  0  0  0
   26.0310  -20.2268  -12.8294 N   0  0  0  0  0  0  0  0  0  0  0  0
   26.4161  -20.8257  -11.5605 C   0  0  1  0  0  0  0  0  0  0  0  0
   27.4330  -19.8704  -10.9698 C   0  0  0  0  0  0  0  0  0  0  0  0
   27.7958  -20.1348   -9.5850 C   0  0  0  0  0  0  0  0  0  0  0  0
   28.7620  -21.0375   -9.2126 C   0  0  0  0  0  0  0  0  0  0  0  0
   29.0765  -21.2533   -7.8665 C   0  0  0  0  0  0  0  0  0  0  0  0
   28.4012  -20.5441   -6.8963 C   0  0  0  0  0  0  0  0  0  0  0  0
   27.4285  -19.6344   -7.2538 C   0  0  0  0  0  0  0  0  0  0  0  0
   27.1124  -19.4168   -8.5966 C   0  0  0  0  0  0  0  0  0  0  0  0
   25.2067  -20.9338  -10.7216 C   0  0  0  0  0  0  0  0  0  0  0  0
   25.1574  -21.9011   -9.7292 O   0  0  0  0  0  0  0  0  0  0  0  0
   24.2344  -20.1864  -10.8780 O   0  0  0  0  0  0  0  0  0  0  0  0
  1  2  1  0
  3  2  1  0
  4  3  1  0
  5  4  1  0
  5  1  1  0
  6  7  2  0
  5  6  1  1
  8  9  1  0
  9 10  2  0
  9 19  1  0
 10 11  1  0
 11 12  2  0
 12 13  1  0
 14 13  1  6
 14 15  1  0
 15  6  1  0
 16 17  2  0
 16 14  1  0
 18 12  1  0
 19 18  2  0
 20 16  1  0
 21 22  1  1
 21 20  1  0
 23 22  1  0
 23 28  1  0
 24 23  2  0
 25 24  1  0
 25 26  2  0
 26 27  1  0
 27 28  2  0
 29 21  1  0
 30 29  1  0
 31 29  2  0
M  END
$$$$
