PYF.pdb
     RDKit          3D

 31 33  0  0  1  0  0  0  0  0999 V2000
   27.4735  -20.9129  -17.0758 N   0  0  0  0  0  0  0  0  0  0  0  0
   28.5889  -21.2366  -17.9286 C   0  0  0  0  0  0  0  0  0  0  0  0
   29.1599  -22.5427  -17.4705 C   0  0  0  0  0  0  0  0  0  0  0  0
   28.5710  -22.6576  -16.0573 C   0  0  0  0  0  0  0  0  0  0  0  0
   27.1972  -22.0662  -16.2832 C   0  0  1  0  0  0  0  0  0  0  0  0
   26.4662  -21.7890  -15.0444 C   0  0  0  0  0  0  0  0  0  0  0  0
   26.1088  -22.7837  -14.3409 O   0  0  0  0  0  0  0  0  0  0  0  0
   26.4683  -21.5643   -7.0690 O   0  0  0  0  0  0  0  0  0  0  0  0
   26.4310  -21.0595   -8.3622 C   0  0  0  0  0  0  0  0  0  0  0  0
   27.4679  -21.2888   -9.2441 C   0  0  0  0  0  0  0  0  0  0  0  0
   27.4170  -20.7806  -10.5268 C   0  0  0  0  0  0  0  0  0  0  0  0
   26.3581  -20.0346  -10.9917 C   0  0  0  0  0  0  0  0  0  0  0  0
   26.2514  -19.4710  -12.3461 C   0  0  0  0  0  0  0  0  0  0  0  0
   25.4363  -20.2962  -13.2959 C   0  0  2  0  0  0  0  0  0  0  0  0
   26.1198  -20.5131  -14.5565 N   0  0  0  0  0  0  0  0  0  0  0  0
   24.0550  -19.8203  -13.4951 C   0  0  0  0  0  0  0  0  0  0  0  0
   23.9023  -18.6793  -14.0396 O   0  0  0  0  0  0  0  0  0  0  0  0
   25.3185  -19.8105  -10.0919 C   0  0  0  0  0  0  0  0  0  0  0  0
   25.3647  -20.3160   -8.8094 C   0  0  0  0  0  0  0  0  0  0  0  0
   22.9093  -20.5659  -13.1155 N   0  0  0  0  0  0  0  0  0  0  0  0
   21.5620  -20.0231  -13.2014 C   0  0  1  0  0  0  0  0  0  0  0  0
   21.3782  -19.6621  -14.6614 C   0  0  0  0  0  0  0  0  0  0  0  0
   21.4013  -20.7889  -15.5828 C   0  0  0  0  0  0  0  0  0  0  0  0
   20.9968  -20.7064  -16.8929 C   0  0  0  0  0  0  0  0  0  0  0  0
   21.0415  -21.8190  -17.7401 C   0  0  0  0  0  0  0  0  0  0  0  0
   21.5013  -23.0214  -17.2470 C   0  0  0  0  0  0  0  0  0  0  0  0
   21.9109  -23.1206  -15.9340 C   0  0  0  0  0  0  0  0  0  0  0  0
   21.8675  -22.0118  -15.0860 C   0  0  0  0  0  0  0  0  0  0  0  0
   20.6192  -21.0726  -12.7684 C   0  0  0  0  0  0  0  0  0  0  0  0
   21.1191  -22.2809  -12.3067 O   0  0  0  0  0  0  0  0  0  0  0  0
   19.3946  -20.9063  -12.8055 O   0  0  0  0  0  0  0  0  0  0  0  0
  1  2  1  0
  3  2  1  0
  4  3  1  0
  5  4  1  0
  5  1  1  0
  6  7  2  0
  5  6  1  1
  8  9  1  0
  9 10  2  0
  9 19  1  0
 10 11  1  0
 11 12  2  0
 12 13  1  0
 14 13  1  1
 14 15  1  0
 15  6  1  0
 16 17  2  0
 16 14  1  0
 18 12  1  0
 19 18  2  0
 20 16  1  0
 21 22  1  6
 21 20  1  0
 23 22  1  0
 23 28  1  0
 24 23  2  0
 25 24  1  0
 25 26  2  0
 26 27  1  0
 27 28  2  0
 29 21  1  0
 30 29  1  0
 31 29  2  0
M  END
$$$$
