PYF.pdb
     RDKit          3D

 31 33  0  0  1  0  0  0  0  0999 V2000
   25.9148  -22.9683  -16.0208 N   0  0  0  0  0  0  0  0  0  0  0  0
   26.0347  -23.1105  -17.4497 C   0  0  0  0  0  0  0  0  0  0  0  0
   27.3168  -22.4643  -17.8746 C   0  0  0  0  0  0  0  0  0  0  0  0
   27.6353  -21.5830  -16.6584 C   0  0  0  0  0  0  0  0  0  0  0  0
   27.1655  -22.4825  -15.5367 C   0  0  1  0  0  0  0  0  0  0  0  0
   27.0924  -21.8110  -14.2369 C   0  0  0  0  0  0  0  0  0  0  0  0
   28.1843  -21.4280  -13.7140 O   0  0  0  0  0  0  0  0  0  0  0  0
   19.8618  -22.7417  -11.4802 O   0  0  0  0  0  0  0  0  0  0  0  0
   21.0049  -21.9982  -11.7430 C   0  0  0  0  0  0  0  0  0  0  0  0
   21.5563  -21.1787  -10.7786 C   0  0  0  0  0  0  0  0  0  0  0  0
   22.6931  -20.4454  -11.0542 C   0  0  0  0  0  0  0  0  0  0  0  0
   23.3287  -20.4856  -12.2742 C   0  0  0  0  0  0  0  0  0  0  0  0
   24.5407  -19.7280  -12.6212 C   0  0  0  0  0  0  0  0  0  0  0  0
   25.8139  -20.5100  -12.4993 C   0  0  2  0  0  0  0  0  0  0  0  0
   25.9161  -21.5482  -13.5068 N   0  0  0  0  0  0  0  0  0  0  0  0
   26.0904  -21.0283  -11.1469 C   0  0  0  0  0  0  0  0  0  0  0  0
   25.9421  -22.2790  -10.9582 O   0  0  0  0  0  0  0  0  0  0  0  0
   22.7622  -21.3162  -13.2385 C   0  0  0  0  0  0  0  0  0  0  0  0
   21.6265  -22.0509  -12.9680 C   0  0  0  0  0  0  0  0  0  0  0  0
   26.5092  -20.2094  -10.0668 N   0  0  0  0  0  0  0  0  0  0  0  0
   26.8192  -20.7508   -8.7523 C   0  0  1  0  0  0  0  0  0  0  0  0
   27.8388  -19.7953   -8.1664 C   0  0  0  0  0  0  0  0  0  0  0  0
   28.0597  -19.9315   -6.7340 C   0  0  0  0  0  0  0  0  0  0  0  0
   27.3370  -19.2487   -5.7862 C   0  0  0  0  0  0  0  0  0  0  0  0
   27.5861  -19.4171   -4.4198 C   0  0  0  0  0  0  0  0  0  0  0  0
   28.5778  -20.2869   -4.0194 C   0  0  0  0  0  0  0  0  0  0  0  0
   29.3123  -20.9798   -4.9585 C   0  0  0  0  0  0  0  0  0  0  0  0
   29.0660  -20.8137   -6.3231 C   0  0  0  0  0  0  0  0  0  0  0  0
   25.5714  -20.7787   -7.9648 C   0  0  0  0  0  0  0  0  0  0  0  0
   25.4170  -21.7405   -6.9778 O   0  0  0  0  0  0  0  0  0  0  0  0
   24.6578  -19.9688   -8.1597 O   0  0  0  0  0  0  0  0  0  0  0  0
  1  2  1  0
  3  2  1  0
  4  3  1  0
  5  4  1  0
  5  1  1  0
  6  7  2  0
  5  6  1  1
  8  9  1  0
  9 10  2  0
  9 19  1  0
 10 11  1  0
 11 12  2  0
 12 13  1  0
 14 13  1  1
 14 15  1  0
 15  6  1  0
 16 17  2  0
 16 14  1  0
 18 12  1  0
 19 18  2  0
 20 16  1  0
 21 22  1  1
 21 20  1  0
 23 22  1  0
 23 28  1  0
 24 23  2  0
 25 24  1  0
 25 26  2  0
 26 27  1  0
 27 28  2  0
 29 21  1  0
 30 29  1  0
 31 29  2  0
M  END
$$$$
