AGG.pdb
     RDKit          3D

 14 13  0  0  1  0  0  0  0  0999 V2000
   18.2496   -7.7648  -18.5155 C   0  0  0  0  0  0  0  0  0  0  0  0
   19.0551   -9.0180  -18.2604 C   0  0  2  0  0  0  0  0  0  0  0  0
   18.1897   -9.9821  -17.6456 N   0  0  0  0  0  0  0  0  0  0  0  0
   20.2234   -8.7388  -17.3921 C   0  0  0  0  0  0  0  0  0  0  0  0
   20.0392   -8.4602  -16.2015 O   0  0  0  0  0  0  0  0  0  0  0  0
   21.5387   -8.7855  -17.9001 N   0  0  0  0  0  0  0  0  0  0  0  0
   22.7228   -8.6638  -17.1006 C   0  0  0  0  0  0  0  0  0  0  0  0
   23.0201   -7.2994  -16.6749 C   0  0  0  0  0  0  0  0  0  0  0  0
   23.1489   -6.3904  -17.5201 O   0  0  0  0  0  0  0  0  0  0  0  0
   23.1669   -6.9837  -15.3062 N   0  0  0  0  0  0  0  0  0  0  0  0
   23.4619   -5.6418  -14.8492 C   0  0  0  0  0  0  0  0  0  0  0  0
   22.2067   -5.0216  -14.3732 C   0  0  0  0  0  0  0  0  0  0  0  0
   21.6343   -4.1754  -15.0831 O   0  0  0  0  0  0  0  0  0  0  0  0
   21.6387   -5.3632  -13.1336 O   0  0  0  0  0  0  0  0  0  0  0  0
  2  1  1  1
  3  2  1  0
  4  6  1  0
  4  2  1  0
  5  4  2  0
  7  6  1  0
  8  7  1  0
  9  8  2  0
 10  8  1  0
 11 10  1  0
 12 11  1  0
 12 14  1  0
 13 12  2  0
M  END
$$$$
