AGG.pdb
     RDKit          3D

 14 13  0  0  1  0  0  0  0  0999 V2000
   16.6699   -8.9955  -16.5336 C   0  0  0  0  0  0  0  0  0  0  0  0
   17.8212   -9.9373  -16.2654 C   0  0  2  0  0  0  0  0  0  0  0  0
   17.6023  -10.5502  -14.9876 N   0  0  0  0  0  0  0  0  0  0  0  0
   19.1181   -9.2199  -16.2832 C   0  0  0  0  0  0  0  0  0  0  0  0
   19.5136   -8.7117  -17.3389 O   0  0  0  0  0  0  0  0  0  0  0  0
   19.9067   -9.1076  -15.1189 N   0  0  0  0  0  0  0  0  0  0  0  0
   21.1921   -8.4742  -15.0666 C   0  0  0  0  0  0  0  0  0  0  0  0
   21.2714   -7.3570  -14.1301 C   0  0  0  0  0  0  0  0  0  0  0  0
   20.4698   -7.2766  -13.1772 O   0  0  0  0  0  0  0  0  0  0  0  0
   22.2511   -6.3515  -14.2838 N   0  0  0  0  0  0  0  0  0  0  0  0
   22.4050   -5.2699  -13.3337 C   0  0  0  0  0  0  0  0  0  0  0  0
   21.5226   -4.1562  -13.7434 C   0  0  0  0  0  0  0  0  0  0  0  0
   21.5071   -3.1087  -13.0726 O   0  0  0  0  0  0  0  0  0  0  0  0
   20.6957   -4.2485  -14.8765 O   0  0  0  0  0  0  0  0  0  0  0  0
  2  1  1  1
  3  2  1  0
  4  6  1  0
  4  2  1  0
  5  4  2  0
  7  6  1  0
  8  7  1  0
  9  8  2  0
 10  8  1  0
 11 10  1  0
 12 11  1  0
 12 14  1  0
 13 12  2  0
M  END
$$$$
