AGG.pdb
     RDKit          3D

 14 13  0  0  1  0  0  0  0  0999 V2000
   12.8106  -11.3491  -16.0586 C   0  0  0  0  0  0  0  0  0  0  0  0
   13.9377  -11.9576  -15.2564 C   0  0  2  0  0  0  0  0  0  0  0  0
   13.3589  -12.7849  -14.2380 N   0  0  0  0  0  0  0  0  0  0  0  0
   14.7939  -10.9099  -14.6516 C   0  0  0  0  0  0  0  0  0  0  0  0
   14.2915  -10.0967  -13.8670 O   0  0  0  0  0  0  0  0  0  0  0  0
   16.1690  -10.8251  -14.9552 N   0  0  0  0  0  0  0  0  0  0  0  0
   17.0489   -9.8070  -14.4596 C   0  0  0  0  0  0  0  0  0  0  0  0
   18.4053   -9.8754  -14.9952 C   0  0  0  0  0  0  0  0  0  0  0  0
   18.7604  -10.8516  -15.6867 O   0  0  0  0  0  0  0  0  0  0  0  0
   19.3364   -8.8440  -14.7424 N   0  0  0  0  0  0  0  0  0  0  0  0
   20.6910   -8.8829  -15.2523 C   0  0  0  0  0  0  0  0  0  0  0  0
   21.4086   -7.6832  -14.7701 C   0  0  0  0  0  0  0  0  0  0  0  0
   20.7919   -6.8217  -14.1182 O   0  0  0  0  0  0  0  0  0  0  0  0
   22.7762   -7.4876  -15.0293 O   0  0  0  0  0  0  0  0  0  0  0  0
  2  1  1  1
  3  2  1  0
  4  6  1  0
  4  2  1  0
  5  4  2  0
  7  6  1  0
  8  7  1  0
  9  8  2  0
 10  8  1  0
 11 10  1  0
 12 11  1  0
 12 14  1  0
 13 12  2  0
M  END
$$$$
