AGG.pdb
     RDKit          3D

 14 13  0  0  1  0  0  0  0  0999 V2000
   24.5024  -11.5595  -15.3144 C   0  0  0  0  0  0  0  0  0  0  0  0
   23.1709  -11.3641  -16.0021 C   0  0  2  0  0  0  0  0  0  0  0  0
   22.6984  -12.6507  -16.4242 N   0  0  0  0  0  0  0  0  0  0  0  0
   23.2936  -10.4488  -17.1614 C   0  0  0  0  0  0  0  0  0  0  0  0
   23.7100  -10.8900  -18.2389 O   0  0  0  0  0  0  0  0  0  0  0  0
   22.9440   -9.0860  -17.0562 N   0  0  0  0  0  0  0  0  0  0  0  0
   21.6000   -8.5984  -16.9474 C   0  0  0  0  0  0  0  0  0  0  0  0
   21.3709   -7.7254  -15.7998 C   0  0  0  0  0  0  0  0  0  0  0  0
   20.2414   -7.2351  -15.5978 O   0  0  0  0  0  0  0  0  0  0  0  0
   22.4172   -7.4209  -14.9014 N   0  0  0  0  0  0  0  0  0  0  0  0
   22.2229   -6.5661  -13.7491 C   0  0  0  0  0  0  0  0  0  0  0  0
   22.4788   -5.1671  -14.1540 C   0  0  0  0  0  0  0  0  0  0  0  0
   23.1379   -4.9386  -15.1840 O   0  0  0  0  0  0  0  0  0  0  0  0
   21.9954   -4.0815  -13.4032 O   0  0  0  0  0  0  0  0  0  0  0  0
  2  1  1  6
  3  2  1  0
  4  6  1  0
  4  2  1  0
  5  4  2  0
  7  6  1  0
  8  7  1  0
  9  8  2  0
 10  8  1  0
 11 10  1  0
 12 11  1  0
 12 14  1  0
 13 12  2  0
M  END
$$$$
