AGG.pdb
     RDKit          3D

 14 13  0  0  1  0  0  0  0  0999 V2000
   17.7229  -10.7333  -17.9083 C   0  0  0  0  0  0  0  0  0  0  0  0
   19.0898  -11.2762  -17.5607 C   0  0  2  0  0  0  0  0  0  0  0  0
   18.9891  -11.9536  -16.3008 N   0  0  0  0  0  0  0  0  0  0  0  0
   20.0971  -10.1912  -17.4893 C   0  0  0  0  0  0  0  0  0  0  0  0
   20.4140   -9.5912  -18.5230 O   0  0  0  0  0  0  0  0  0  0  0  0
   20.6987   -9.8326  -16.2647 N   0  0  0  0  0  0  0  0  0  0  0  0
   21.7019   -8.8184  -16.1189 C   0  0  0  0  0  0  0  0  0  0  0  0
   21.5145   -7.9533  -14.9579 C   0  0  0  0  0  0  0  0  0  0  0  0
   20.4498   -7.9939  -14.3083 O   0  0  0  0  0  0  0  0  0  0  0  0
   22.5285   -7.0589  -14.5501 N   0  0  0  0  0  0  0  0  0  0  0  0
   22.3843   -6.2024  -13.3917 C   0  0  0  0  0  0  0  0  0  0  0  0
   21.7175   -4.9515  -13.8130 C   0  0  0  0  0  0  0  0  0  0  0  0
   20.5084   -4.7901  -13.5692 O   0  0  0  0  0  0  0  0  0  0  0  0
   22.4158   -3.9335  -14.4854 O   0  0  0  0  0  0  0  0  0  0  0  0
  2  1  1  1
  3  2  1  0
  4  6  1  0
  4  2  1  0
  5  4  2  0
  7  6  1  0
  8  7  1  0
  9  8  2  0
 10  8  1  0
 11 10  1  0
 12 11  1  0
 12 14  1  0
 13 12  2  0
M  END
$$$$
