AGG.pdb
     RDKit          3D

 14 13  0  0  1  0  0  0  0  0999 V2000
   22.1986  -18.4914  -16.8087 C   0  0  0  0  0  0  0  0  0  0  0  0
   23.6749  -18.6889  -16.5528 C   0  0  2  0  0  0  0  0  0  0  0  0
   23.8620  -20.0180  -16.0478 N   0  0  0  0  0  0  0  0  0  0  0  0
   24.1922  -17.6885  -15.5892 C   0  0  0  0  0  0  0  0  0  0  0  0
   23.9911  -17.8529  -14.3803 O   0  0  0  0  0  0  0  0  0  0  0  0
   24.9084  -16.5547  -16.0273 N   0  0  0  0  0  0  0  0  0  0  0  0
   25.3563  -15.4959  -15.1704 C   0  0  0  0  0  0  0  0  0  0  0  0
   25.1319  -14.1565  -15.7061 C   0  0  0  0  0  0  0  0  0  0  0  0
   25.5258  -13.8636  -16.8534 O   0  0  0  0  0  0  0  0  0  0  0  0
   24.4686  -13.1722  -14.9408 N   0  0  0  0  0  0  0  0  0  0  0  0
   24.2616  -11.8241  -15.4267 C   0  0  0  0  0  0  0  0  0  0  0  0
   22.8357  -11.6686  -15.7863 C   0  0  0  0  0  0  0  0  0  0  0  0
   22.3886  -12.2584  -16.7862 O   0  0  0  0  0  0  0  0  0  0  0  0
   21.9659  -10.8683  -15.0255 O   0  0  0  0  0  0  0  0  0  0  0  0
  2  1  1  1
  3  2  1  0
  4  6  1  0
  4  2  1  0
  5  4  2  0
  7  6  1  0
  8  7  1  0
  9  8  2  0
 10  8  1  0
 11 10  1  0
 12 11  1  0
 12 14  1  0
 13 12  2  0
M  END
$$$$
