AGG.pdb
     RDKit          3D

 14 13  0  0  1  0  0  0  0  0999 V2000
   20.4200  -11.7163  -18.1597 C   0  0  0  0  0  0  0  0  0  0  0  0
   19.5905  -10.4975  -18.4923 C   0  0  2  0  0  0  0  0  0  0  0  0
   20.4462   -9.5422  -19.1340 N   0  0  0  0  0  0  0  0  0  0  0  0
   18.9799   -9.9138  -17.2744 C   0  0  0  0  0  0  0  0  0  0  0  0
   18.1957  -10.5960  -16.6047 O   0  0  0  0  0  0  0  0  0  0  0  0
   19.2778   -8.5962  -16.8676 N   0  0  0  0  0  0  0  0  0  0  0  0
   18.6118   -7.9049  -15.8024 C   0  0  0  0  0  0  0  0  0  0  0  0
   19.5115   -7.3337  -14.8046 C   0  0  0  0  0  0  0  0  0  0  0  0
   19.0531   -6.6890  -13.8396 O   0  0  0  0  0  0  0  0  0  0  0  0
   20.9100   -7.4990  -14.9116 N   0  0  0  0  0  0  0  0  0  0  0  0
   21.8293   -6.9660  -13.9281 C   0  0  0  0  0  0  0  0  0  0  0  0
   21.9853   -5.5153  -14.1692 C   0  0  0  0  0  0  0  0  0  0  0  0
   21.5001   -5.0098  -15.1970 O   0  0  0  0  0  0  0  0  0  0  0  0
   22.6706   -4.6865  -13.2640 O   0  0  0  0  0  0  0  0  0  0  0  0
  2  1  1  1
  3  2  1  0
  4  6  1  0
  4  2  1  0
  5  4  2  0
  7  6  1  0
  8  7  1  0
  9  8  2  0
 10  8  1  0
 11 10  1  0
 12 11  1  0
 12 14  1  0
 13 12  2  0
M  END
$$$$
