AGG.pdb
     RDKit          3D

 14 13  0  0  1  0  0  0  0  0999 V2000
   19.2078   -7.8441  -18.3654 C   0  0  0  0  0  0  0  0  0  0  0  0
   19.9614   -8.8740  -17.5558 C   0  0  2  0  0  0  0  0  0  0  0  0
   19.0378   -9.4790  -16.6407 N   0  0  0  0  0  0  0  0  0  0  0  0
   21.0930   -8.2587  -16.8225 C   0  0  0  0  0  0  0  0  0  0  0  0
   22.0335   -7.7712  -17.4605 O   0  0  0  0  0  0  0  0  0  0  0  0
   21.1149   -8.2200  -15.4124 N   0  0  0  0  0  0  0  0  0  0  0  0
   22.2052   -7.7137  -14.6307 C   0  0  0  0  0  0  0  0  0  0  0  0
   21.9746   -6.3850  -14.0714 C   0  0  0  0  0  0  0  0  0  0  0  0
   22.6758   -5.9697  -13.1264 O   0  0  0  0  0  0  0  0  0  0  0  0
   20.9594   -5.5489  -14.5860 N   0  0  0  0  0  0  0  0  0  0  0  0
   20.6090   -4.2875  -13.9678 C   0  0  0  0  0  0  0  0  0  0  0  0
   21.5957   -3.2690  -14.3874 C   0  0  0  0  0  0  0  0  0  0  0  0
   22.7667   -3.6134  -14.6273 O   0  0  0  0  0  0  0  0  0  0  0  0
   21.2454   -1.9145  -14.5236 O   0  0  0  0  0  0  0  0  0  0  0  0
  2  1  1  1
  3  2  1  0
  4  6  1  0
  4  2  1  0
  5  4  2  0
  7  6  1  0
  8  7  1  0
  9  8  2  0
 10  8  1  0
 11 10  1  0
 12 11  1  0
 12 14  1  0
 13 12  2  0
M  END
$$$$
