AGG.pdb
     RDKit          3D

 14 13  0  0  1  0  0  0  0  0999 V2000
   19.4492   -9.2811  -17.3139 C   0  0  0  0  0  0  0  0  0  0  0  0
   20.5651   -9.3539  -18.3306 C   0  0  2  0  0  0  0  0  0  0  0  0
   21.5976  -10.1922  -17.7943 N   0  0  0  0  0  0  0  0  0  0  0  0
   21.0979   -8.0062  -18.6416 C   0  0  0  0  0  0  0  0  0  0  0  0
   20.3618   -7.1760  -19.1875 O   0  0  0  0  0  0  0  0  0  0  0  0
   22.4275   -7.6557  -18.3260 N   0  0  0  0  0  0  0  0  0  0  0  0
   23.0036   -6.3633  -18.5580 C   0  0  0  0  0  0  0  0  0  0  0  0
   23.0455   -5.5057  -17.3773 C   0  0  0  0  0  0  0  0  0  0  0  0
   24.1052   -4.9319  -17.0535 O   0  0  0  0  0  0  0  0  0  0  0  0
   21.8940   -5.3101  -16.5832 N   0  0  0  0  0  0  0  0  0  0  0  0
   21.8481   -4.3344  -15.5145 C   0  0  0  0  0  0  0  0  0  0  0  0
   22.2247   -5.0042  -14.2510 C   0  0  0  0  0  0  0  0  0  0  0  0
   23.0539   -5.9312  -14.2730 O   0  0  0  0  0  0  0  0  0  0  0  0
   21.6686   -4.6204  -13.0183 O   0  0  0  0  0  0  0  0  0  0  0  0
  2  1  1  1
  3  2  1  0
  4  6  1  0
  4  2  1  0
  5  4  2  0
  7  6  1  0
  8  7  1  0
  9  8  2  0
 10  8  1  0
 11 10  1  0
 12 11  1  0
 12 14  1  0
 13 12  2  0
M  END
$$$$
