AGG.pdb
     RDKit          3D

 14 13  0  0  1  0  0  0  0  0999 V2000
   18.2240  -11.3053  -17.3865 C   0  0  0  0  0  0  0  0  0  0  0  0
   19.4994  -10.5709  -17.7300 C   0  0  2  0  0  0  0  0  0  0  0  0
   20.4722  -11.5420  -18.1388 N   0  0  0  0  0  0  0  0  0  0  0  0
   19.9981   -9.7895  -16.5735 C   0  0  0  0  0  0  0  0  0  0  0  0
   19.3341   -8.8323  -16.1588 O   0  0  0  0  0  0  0  0  0  0  0  0
   21.2146  -10.1188  -15.9395 N   0  0  0  0  0  0  0  0  0  0  0  0
   21.7473   -9.4334  -14.7982 C   0  0  0  0  0  0  0  0  0  0  0  0
   22.4094   -8.1709  -15.1132 C   0  0  0  0  0  0  0  0  0  0  0  0
   23.2922   -8.1260  -15.9939 O   0  0  0  0  0  0  0  0  0  0  0  0
   22.0655   -6.9830  -14.4311 N   0  0  0  0  0  0  0  0  0  0  0  0
   22.6796   -5.7086  -14.7394 C   0  0  0  0  0  0  0  0  0  0  0  0
   22.1138   -4.6840  -13.8356 C   0  0  0  0  0  0  0  0  0  0  0  0
   21.4091   -3.7737  -14.3070 O   0  0  0  0  0  0  0  0  0  0  0  0
   22.3513   -4.7099  -12.4504 O   0  0  0  0  0  0  0  0  0  0  0  0
  2  1  1  1
  3  2  1  0
  4  6  1  0
  4  2  1  0
  5  4  2  0
  7  6  1  0
  8  7  1  0
  9  8  2  0
 10  8  1  0
 11 10  1  0
 12 11  1  0
 12 14  1  0
 13 12  2  0
M  END
$$$$
