AGG.pdb
     RDKit          3D

 14 13  0  0  1  0  0  0  0  0999 V2000
   23.0061   -9.1901  -18.2868 C   0  0  0  0  0  0  0  0  0  0  0  0
   21.7948   -9.9159  -17.7482 C   0  0  2  0  0  0  0  0  0  0  0  0
   20.6412   -9.4302  -18.4481 N   0  0  0  0  0  0  0  0  0  0  0  0
   21.6457   -9.7038  -16.2889 C   0  0  0  0  0  0  0  0  0  0  0  0
   22.5106  -10.1438  -15.5224 O   0  0  0  0  0  0  0  0  0  0  0  0
   20.5364   -9.0102  -15.7612 N   0  0  0  0  0  0  0  0  0  0  0  0
   20.2755   -8.8406  -14.3614 C   0  0  0  0  0  0  0  0  0  0  0  0
   21.0671   -7.7901  -13.7279 C   0  0  0  0  0  0  0  0  0  0  0  0
   21.1099   -7.6978  -12.4842 O   0  0  0  0  0  0  0  0  0  0  0  0
   21.7954   -6.8634  -14.5059 N   0  0  0  0  0  0  0  0  0  0  0  0
   22.5821   -5.8035  -13.9109 C   0  0  0  0  0  0  0  0  0  0  0  0
   21.7702   -4.5676  -13.8967 C   0  0  0  0  0  0  0  0  0  0  0  0
   20.5955   -4.6021  -14.3046 O   0  0  0  0  0  0  0  0  0  0  0  0
   22.2915   -3.3476  -13.4322 O   0  0  0  0  0  0  0  0  0  0  0  0
  2  1  1  6
  3  2  1  0
  4  6  1  0
  4  2  1  0
  5  4  2  0
  7  6  1  0
  8  7  1  0
  9  8  2  0
 10  8  1  0
 11 10  1  0
 12 11  1  0
 12 14  1  0
 13 12  2  0
M  END
$$$$
