AGG.pdb
     RDKit          3D

 14 13  0  0  1  0  0  0  0  0999 V2000
   16.8201  -12.4162  -16.1294 C   0  0  0  0  0  0  0  0  0  0  0  0
   18.1731  -12.1465  -16.7464 C   0  0  2  0  0  0  0  0  0  0  0  0
   19.1546  -12.8729  -15.9942 N   0  0  0  0  0  0  0  0  0  0  0  0
   18.4850  -10.6975  -16.7464 C   0  0  0  0  0  0  0  0  0  0  0  0
   17.7476   -9.9202  -17.3638 O   0  0  0  0  0  0  0  0  0  0  0  0
   19.6062  -10.1917  -16.0555 N   0  0  0  0  0  0  0  0  0  0  0  0
   19.9798   -8.8079  -16.0167 C   0  0  0  0  0  0  0  0  0  0  0  0
   20.5687   -8.3820  -14.7505 C   0  0  0  0  0  0  0  0  0  0  0  0
   20.6096   -9.1658  -13.7803 O   0  0  0  0  0  0  0  0  0  0  0  0
   21.1004   -7.0823  -14.6000 N   0  0  0  0  0  0  0  0  0  0  0  0
   21.8769   -6.6937  -13.4414 C   0  0  0  0  0  0  0  0  0  0  0  0
   22.2449   -5.2681  -13.5797 C   0  0  0  0  0  0  0  0  0  0  0  0
   21.9739   -4.6653  -14.6335 O   0  0  0  0  0  0  0  0  0  0  0  0
   22.8962   -4.5708  -12.5475 O   0  0  0  0  0  0  0  0  0  0  0  0
  2  1  1  1
  3  2  1  0
  4  6  1  0
  4  2  1  0
  5  4  2  0
  7  6  1  0
  8  7  1  0
  9  8  2  0
 10  8  1  0
 11 10  1  0
 12 11  1  0
 12 14  1  0
 13 12  2  0
M  END
$$$$
