AGG.pdb
     RDKit          3D

 14 13  0  0  1  0  0  0  0  0999 V2000
   18.7982  -13.3561  -16.3073 C   0  0  0  0  0  0  0  0  0  0  0  0
   19.5943  -12.5700  -17.3234 C   0  0  2  0  0  0  0  0  0  0  0  0
   20.9468  -13.0455  -17.2889 N   0  0  0  0  0  0  0  0  0  0  0  0
   19.5461  -11.1166  -17.0366 C   0  0  0  0  0  0  0  0  0  0  0  0
   18.4499  -10.5472  -16.9813 O   0  0  0  0  0  0  0  0  0  0  0  0
   20.7271  -10.3741  -16.8263 N   0  0  0  0  0  0  0  0  0  0  0  0
   20.7711   -8.9523  -16.6458 C   0  0  0  0  0  0  0  0  0  0  0  0
   20.9808   -8.5305  -15.2639 C   0  0  0  0  0  0  0  0  0  0  0  0
   20.6865   -9.2936  -14.3215 O   0  0  0  0  0  0  0  0  0  0  0  0
   21.5177   -7.2580  -14.9688 N   0  0  0  0  0  0  0  0  0  0  0  0
   21.8213   -6.8415  -13.6158 C   0  0  0  0  0  0  0  0  0  0  0  0
   22.3220   -5.4505  -13.6541 C   0  0  0  0  0  0  0  0  0  0  0  0
   22.3879   -4.8533  -14.7434 O   0  0  0  0  0  0  0  0  0  0  0  0
   22.7280   -4.7801  -12.4872 O   0  0  0  0  0  0  0  0  0  0  0  0
  2  1  1  1
  3  2  1  0
  4  6  1  0
  4  2  1  0
  5  4  2  0
  7  6  1  0
  8  7  1  0
  9  8  2  0
 10  8  1  0
 11 10  1  0
 12 11  1  0
 12 14  1  0
 13 12  2  0
M  END
$$$$
