AGG.pdb
     RDKit          3D

 14 13  0  0  1  0  0  0  0  0999 V2000
   20.8077  -12.5021  -17.8109 C   0  0  0  0  0  0  0  0  0  0  0  0
   20.0937  -11.2030  -18.1054 C   0  0  2  0  0  0  0  0  0  0  0  0
   21.0832  -10.2216  -18.4435 N   0  0  0  0  0  0  0  0  0  0  0  0
   19.2919  -10.7544  -16.9423 C   0  0  0  0  0  0  0  0  0  0  0  0
   18.4100  -11.4960  -16.4935 O   0  0  0  0  0  0  0  0  0  0  0  0
   19.5176   -9.4987  -16.3403 N   0  0  0  0  0  0  0  0  0  0  0  0
   18.7666   -8.9819  -15.2334 C   0  0  0  0  0  0  0  0  0  0  0  0
   19.5617   -8.2227  -14.2728 C   0  0  0  0  0  0  0  0  0  0  0  0
   19.0076   -7.6387  -13.3194 O   0  0  0  0  0  0  0  0  0  0  0  0
   20.9652   -8.1352  -14.4032 N   0  0  0  0  0  0  0  0  0  0  0  0
   21.7710   -7.2945  -13.5428 C   0  0  0  0  0  0  0  0  0  0  0  0
   21.7988   -5.9300  -14.1121 C   0  0  0  0  0  0  0  0  0  0  0  0
   21.1636   -5.6882  -15.1540 O   0  0  0  0  0  0  0  0  0  0  0  0
   22.5273   -4.8921  -13.5054 O   0  0  0  0  0  0  0  0  0  0  0  0
  2  1  1  1
  3  2  1  0
  4  6  1  0
  4  2  1  0
  5  4  2  0
  7  6  1  0
  8  7  1  0
  9  8  2  0
 10  8  1  0
 11 10  1  0
 12 11  1  0
 12 14  1  0
 13 12  2  0
M  END
$$$$
