AEK.pdb
     RDKit          3D

 24 23  0  0  1  0  0  0  0  0999 V2000
   16.6368  -12.5008  -18.5116 C   0  0  0  0  0  0  0  0  0  0  0  0
   17.8847  -12.5137  -17.6795 C   0  0  2  0  0  0  0  0  0  0  0  0
   18.0581  -13.7541  -16.9596 N   0  0  0  0  0  0  0  0  0  0  0  0
   17.9628  -11.3580  -16.7607 C   0  0  0  0  0  0  0  0  0  0  0  0
   17.1626  -11.1949  -15.8181 O   0  0  0  0  0  0  0  0  0  0  0  0
   18.9861  -10.3978  -16.9579 N   0  0  0  0  0  0  0  0  0  0  0  0
   19.0389   -9.1770  -16.1779 C   0  0  1  0  0  0  0  0  0  0  0  0
   20.4646   -8.7083  -15.9758 C   0  0  0  0  0  0  0  0  0  0  0  0
   20.5127   -7.4847  -15.1117 C   0  0  0  0  0  0  0  0  0  0  0  0
   21.9088   -7.1533  -14.7615 C   0  0  0  0  0  0  0  0  0  0  0  0
   22.8381   -7.8586  -15.2097 O   0  0  0  0  0  0  0  0  0  0  0  0
   18.2206   -8.1155  -16.7872 C   0  0  0  0  0  0  0  0  0  0  0  0
   18.0217   -8.1119  -18.0154 O   0  0  0  0  0  0  0  0  0  0  0  0
   22.2136   -6.0805  -13.9488 O   0  0  0  0  0  0  0  0  0  0  0  0
   17.6630   -7.1049  -15.9821 N   0  0  0  0  0  0  0  0  0  0  0  0
   16.7485   -6.1516  -16.5576 C   0  0  1  0  0  0  0  0  0  0  0  0
   15.4854   -6.8214  -17.0588 C   0  0  0  0  0  0  0  0  0  0  0  0
   14.4810   -5.8062  -17.5889 C   0  0  0  0  0  0  0  0  0  0  0  0
   13.2907   -6.6006  -18.0848 C   0  0  0  0  0  0  0  0  0  0  0  0
   12.2119   -5.6963  -18.6449 C   0  0  0  0  0  0  0  0  0  0  0  0
   11.0989   -6.5288  -19.0336 N   0  0  0  0  0  0  0  0  0  0  0  0
   16.4522   -5.1017  -15.5564 C   0  0  0  0  0  0  0  0  0  0  0  0
   16.4287   -5.3365  -14.3250 O   0  0  0  0  0  0  0  0  0  0  0  0
   16.1876   -3.8038  -15.9707 O   0  0  0  0  0  0  0  0  0  0  0  0
  2  3  1  0
  2  1  1  1
  4  2  1  0
  4  5  2  0
  6  4  1  0
  7  6  1  0
  7 12  1  0
  7  8  1  6
  9  8  1  0
  9 10  1  0
 10 11  2  0
 12 13  2  0
 12 15  1  0
 14 10  1  0
 15 16  1  0
 16 22  1  0
 16 17  1  1
 18 17  1  0
 19 18  1  0
 20 19  1  0
 21 20  1  0
 22 23  2  0
 22 24  1  0
M  END
$$$$
