AEK.pdb
     RDKit          3D

 24 23  0  0  1  0  0  0  0  0999 V2000
   25.3727  -20.5744  -17.2344 C   0  0  0  0  0  0  0  0  0  0  0  0
   24.5338  -19.3311  -17.2504 C   0  0  2  0  0  0  0  0  0  0  0  0
   25.3273  -18.1259  -17.1811 N   0  0  0  0  0  0  0  0  0  0  0  0
   23.4951  -19.3371  -16.1982 C   0  0  0  0  0  0  0  0  0  0  0  0
   23.7580  -19.5466  -14.9971 O   0  0  0  0  0  0  0  0  0  0  0  0
   22.1486  -19.0957  -16.5676 N   0  0  0  0  0  0  0  0  0  0  0  0
   21.1027  -18.9638  -15.5722 C   0  0  1  0  0  0  0  0  0  0  0  0
   20.2490  -17.7384  -15.8227 C   0  0  0  0  0  0  0  0  0  0  0  0
   20.9599  -16.4897  -15.3966 C   0  0  0  0  0  0  0  0  0  0  0  0
   20.0916  -15.3100  -15.5862 C   0  0  0  0  0  0  0  0  0  0  0  0
   19.7049  -14.6654  -14.5876 O   0  0  0  0  0  0  0  0  0  0  0  0
   20.2705  -20.1764  -15.5051 C   0  0  0  0  0  0  0  0  0  0  0  0
   19.9641  -20.7786  -16.5499 O   0  0  0  0  0  0  0  0  0  0  0  0
   19.6953  -14.9002  -16.8430 O   0  0  0  0  0  0  0  0  0  0  0  0
   19.8212  -20.6553  -14.2605 N   0  0  0  0  0  0  0  0  0  0  0  0
   19.1200  -21.9120  -14.1857 C   0  0  1  0  0  0  0  0  0  0  0  0
   19.6444  -22.7781  -13.0586 C   0  0  0  0  0  0  0  0  0  0  0  0
   18.8591  -24.0775  -12.9338 C   0  0  0  0  0  0  0  0  0  0  0  0
   19.4642  -24.8330  -11.7690 C   0  0  0  0  0  0  0  0  0  0  0  0
   18.7122  -26.1177  -11.4875 C   0  0  0  0  0  0  0  0  0  0  0  0
   19.3121  -26.7330  -10.3279 N   0  0  0  0  0  0  0  0  0  0  0  0
   17.6698  -21.6482  -14.0453 C   0  0  0  0  0  0  0  0  0  0  0  0
   17.2236  -20.7088  -13.3451 O   0  0  0  0  0  0  0  0  0  0  0  0
   16.7517  -22.4553  -14.7024 O   0  0  0  0  0  0  0  0  0  0  0  0
  2  3  1  0
  2  1  1  1
  4  2  1  0
  4  5  2  0
  6  4  1  0
  7  6  1  0
  7 12  1  0
  7  8  1  6
  9  8  1  0
  9 10  1  0
 10 11  2  0
 12 13  2  0
 12 15  1  0
 14 10  1  0
 15 16  1  0
 16 22  1  0
 16 17  1  1
 18 17  1  0
 19 18  1  0
 20 19  1  0
 21 20  1  0
 22 23  2  0
 22 24  1  0
M  END
$$$$
