AEK.pdb
     RDKit          3D

 24 23  0  0  1  0  0  0  0  0999 V2000
   18.4451  -14.5473  -17.3484 C   0  0  0  0  0  0  0  0  0  0  0  0
   19.8877  -14.8497  -17.0706 C   0  0  2  0  0  0  0  0  0  0  0  0
   20.0763  -16.1523  -16.4750 N   0  0  0  0  0  0  0  0  0  0  0  0
   20.5380  -13.8008  -16.2563 C   0  0  0  0  0  0  0  0  0  0  0  0
   20.0748  -13.4157  -15.1643 O   0  0  0  0  0  0  0  0  0  0  0  0
   21.7338  -13.2097  -16.7343 N   0  0  0  0  0  0  0  0  0  0  0  0
   22.4278  -12.1868  -15.9767 C   0  0  1  0  0  0  0  0  0  0  0  0
   23.9252  -12.2564  -16.1918 C   0  0  0  0  0  0  0  0  0  0  0  0
   24.5180  -13.4347  -15.4803 C   0  0  0  0  0  0  0  0  0  0  0  0
   25.9873  -13.4443  -15.6308 C   0  0  0  0  0  0  0  0  0  0  0  0
   26.6070  -14.5255  -15.5372 O   0  0  0  0  0  0  0  0  0  0  0  0
   21.9154  -10.8438  -16.2946 C   0  0  0  0  0  0  0  0  0  0  0  0
   21.9159  -10.4409  -17.4718 O   0  0  0  0  0  0  0  0  0  0  0  0
   26.6954  -12.2847  -15.8730 O   0  0  0  0  0  0  0  0  0  0  0  0
   21.4250  -10.0149  -15.2685 N   0  0  0  0  0  0  0  0  0  0  0  0
   20.9008   -8.7112  -15.5879 C   0  0  1  0  0  0  0  0  0  0  0  0
   19.4151   -8.6218  -15.3050 C   0  0  0  0  0  0  0  0  0  0  0  0
   18.6140   -9.5640  -16.1943 C   0  0  0  0  0  0  0  0  0  0  0  0
   17.1590   -9.3717  -15.8204 C   0  0  0  0  0  0  0  0  0  0  0  0
   16.2570  -10.3149  -16.5897 C   0  0  0  0  0  0  0  0  0  0  0  0
   14.8936  -10.0177  -16.2208 N   0  0  0  0  0  0  0  0  0  0  0  0
   21.6642   -7.6872  -14.8388 C   0  0  0  0  0  0  0  0  0  0  0  0
   22.5453   -7.9882  -13.9992 O   0  0  0  0  0  0  0  0  0  0  0  0
   21.4140   -6.3395  -15.0562 O   0  0  0  0  0  0  0  0  0  0  0  0
  2  3  1  0
  2  1  1  1
  4  2  1  0
  4  5  2  0
  6  4  1  0
  7  6  1  0
  7 12  1  0
  7  8  1  6
  9  8  1  0
  9 10  1  0
 10 11  2  0
 12 13  2  0
 12 15  1  0
 14 10  1  0
 15 16  1  0
 16 22  1  0
 16 17  1  1
 18 17  1  0
 19 18  1  0
 20 19  1  0
 21 20  1  0
 22 23  2  0
 22 24  1  0
M  END
$$$$
