AEK.pdb
     RDKit          3D

 24 23  0  0  1  0  0  0  0  0999 V2000
   20.9961  -12.0659    6.1447 C   0  0  0  0  0  0  0  0  0  0  0  0
   19.5283  -12.2866    6.3606 C   0  0  2  0  0  0  0  0  0  0  0  0
   18.8615  -11.1140    6.8778 N   0  0  0  0  0  0  0  0  0  0  0  0
   19.2534  -13.4647    7.2106 C   0  0  0  0  0  0  0  0  0  0  0  0
   19.2691  -13.4115    8.4565 O   0  0  0  0  0  0  0  0  0  0  0  0
   18.9607  -14.7027    6.5864 N   0  0  0  0  0  0  0  0  0  0  0  0
   18.7146  -15.9022    7.3626 C   0  0  1  0  0  0  0  0  0  0  0  0
   17.8904  -16.9072    6.5855 C   0  0  0  0  0  0  0  0  0  0  0  0
   17.5461  -18.0935    7.4342 C   0  0  0  0  0  0  0  0  0  0  0  0
   16.7883  -19.0888    6.6488 C   0  0  0  0  0  0  0  0  0  0  0  0
   16.6427  -18.9188    5.4192 O   0  0  0  0  0  0  0  0  0  0  0  0
   19.9734  -16.5067    7.8290 C   0  0  0  0  0  0  0  0  0  0  0  0
   20.9689  -16.5228    7.0829 O   0  0  0  0  0  0  0  0  0  0  0  0
   16.2350  -20.2057    7.2411 O   0  0  0  0  0  0  0  0  0  0  0  0
   20.0520  -17.0663    9.1178 N   0  0  0  0  0  0  0  0  0  0  0  0
   21.3079  -17.5813    9.6012 C   0  0  1  0  0  0  0  0  0  0  0  0
   22.0774  -16.5353   10.3817 C   0  0  0  0  0  0  0  0  0  0  0  0
   23.3834  -17.0917   10.9344 C   0  0  0  0  0  0  0  0  0  0  0  0
   24.0466  -15.9578   11.6883 C   0  0  0  0  0  0  0  0  0  0  0  0
   25.3959  -16.3701   12.2402 C   0  0  0  0  0  0  0  0  0  0  0  0
   26.0028  -15.2031   12.8343 N   0  0  0  0  0  0  0  0  0  0  0  0
   21.0526  -18.7932   10.4128 C   0  0  0  0  0  0  0  0  0  0  0  0
   19.9752  -18.9736   11.0283 O   0  0  0  0  0  0  0  0  0  0  0  0
   22.0246  -19.7788   10.5114 O   0  0  0  0  0  0  0  0  0  0  0  0
  2  3  1  0
  2  1  1  1
  4  2  1  0
  4  5  2  0
  6  4  1  0
  7  6  1  0
  7 12  1  0
  7  8  1  6
  9  8  1  0
  9 10  1  0
 10 11  2  0
 12 13  2  0
 12 15  1  0
 14 10  1  0
 15 16  1  0
 16 22  1  0
 16 17  1  1
 18 17  1  0
 19 18  1  0
 20 19  1  0
 21 20  1  0
 22 23  2  0
 22 24  1  0
M  END
$$$$
