AEK.pdb
     RDKit          3D

 24 23  0  0  1  0  0  0  0  0999 V2000
   19.4700  -13.7246  -18.3585 C   0  0  0  0  0  0  0  0  0  0  0  0
   20.1287  -12.9514  -17.2548 C   0  0  2  0  0  0  0  0  0  0  0  0
   19.7908  -13.4581  -15.9449 N   0  0  0  0  0  0  0  0  0  0  0  0
   19.8583  -11.5005  -17.3425 C   0  0  0  0  0  0  0  0  0  0  0  0
   20.1618  -10.8207  -18.3431 O   0  0  0  0  0  0  0  0  0  0  0  0
   19.2302  -10.8563  -16.2477 N   0  0  0  0  0  0  0  0  0  0  0  0
   18.9115   -9.4425  -16.2829 C   0  0  1  0  0  0  0  0  0  0  0  0
   17.6088   -9.1489  -15.5686 C   0  0  0  0  0  0  0  0  0  0  0  0
   17.3042   -7.6816  -15.5841 C   0  0  0  0  0  0  0  0  0  0  0  0
   16.0204   -7.4127  -14.9050 C   0  0  0  0  0  0  0  0  0  0  0  0
   15.6959   -6.2330  -14.6501 O   0  0  0  0  0  0  0  0  0  0  0  0
   20.0074   -8.6319  -15.7266 C   0  0  0  0  0  0  0  0  0  0  0  0
   20.6606   -9.0529  -14.7549 O   0  0  0  0  0  0  0  0  0  0  0  0
   15.1672   -8.4355  -14.5436 O   0  0  0  0  0  0  0  0  0  0  0  0
   20.3171   -7.3812  -16.2926 N   0  0  0  0  0  0  0  0  0  0  0  0
   21.3814   -6.5852  -15.7358 C   0  0  1  0  0  0  0  0  0  0  0  0
   21.8116   -5.4853  -16.6847 C   0  0  0  0  0  0  0  0  0  0  0  0
   22.9289   -4.6354  -16.0933 C   0  0  0  0  0  0  0  0  0  0  0  0
   23.2964   -3.6155  -17.1509 C   0  0  0  0  0  0  0  0  0  0  0  0
   24.4907   -2.7833  -16.7309 C   0  0  0  0  0  0  0  0  0  0  0  0
   24.8239   -1.9076  -17.8287 N   0  0  0  0  0  0  0  0  0  0  0  0
   20.9454   -6.0425  -14.4289 C   0  0  0  0  0  0  0  0  0  0  0  0
   19.8089   -5.5420  -14.2559 O   0  0  0  0  0  0  0  0  0  0  0  0
   21.8071   -6.0775  -13.3416 O   0  0  0  0  0  0  0  0  0  0  0  0
  2  3  1  0
  2  1  1  6
  4  2  1  0
  4  5  2  0
  6  4  1  0
  7  6  1  0
  7 12  1  0
  7  8  1  1
  9  8  1  0
  9 10  1  0
 10 11  2  0
 12 13  2  0
 12 15  1  0
 14 10  1  0
 15 16  1  0
 16 22  1  0
 16 17  1  6
 18 17  1  0
 19 18  1  0
 20 19  1  0
 21 20  1  0
 22 23  2  0
 22 24  1  0
M  END
$$$$
