AEK.pdb
     RDKit          3D

 24 23  0  0  1  0  0  0  0  0999 V2000
   19.4826  -11.3934  -16.0583 C   0  0  0  0  0  0  0  0  0  0  0  0
   18.6048  -10.2540  -15.6329 C   0  0  2  0  0  0  0  0  0  0  0  0
   18.7814   -9.0805  -16.4568 N   0  0  0  0  0  0  0  0  0  0  0  0
   18.7669   -9.9200  -14.2017 C   0  0  0  0  0  0  0  0  0  0  0  0
   18.6054  -10.7602  -13.2943 O   0  0  0  0  0  0  0  0  0  0  0  0
   19.1193   -8.5944  -13.8463 N   0  0  0  0  0  0  0  0  0  0  0  0
   19.3109   -8.2074  -12.4624 C   0  0  1  0  0  0  0  0  0  0  0  0
   20.5724   -7.3888  -12.2842 C   0  0  0  0  0  0  0  0  0  0  0  0
   20.4540   -6.0600  -12.9670 C   0  0  0  0  0  0  0  0  0  0  0  0
   21.6524   -5.2366  -12.7076 C   0  0  0  0  0  0  0  0  0  0  0  0
   21.8432   -4.2010  -13.3808 O   0  0  0  0  0  0  0  0  0  0  0  0
   18.1396   -7.4837  -11.9409 C   0  0  0  0  0  0  0  0  0  0  0  0
   17.4708   -6.7567  -12.6973 O   0  0  0  0  0  0  0  0  0  0  0  0
   22.5700   -5.5835  -11.7369 O   0  0  0  0  0  0  0  0  0  0  0  0
   17.7755   -7.6133  -10.5877 N   0  0  0  0  0  0  0  0  0  0  0  0
   16.5556   -7.0118  -10.1120 C   0  0  1  0  0  0  0  0  0  0  0  0
   15.6004   -8.0490   -9.5577 C   0  0  0  0  0  0  0  0  0  0  0  0
   14.2932   -7.4202   -9.0926 C   0  0  0  0  0  0  0  0  0  0  0  0
   13.4180   -8.5589   -8.6115 C   0  0  0  0  0  0  0  0  0  0  0  0
   12.0619   -8.0634   -8.1525 C   0  0  0  0  0  0  0  0  0  0  0  0
   11.3312   -9.1966   -7.6378 N   0  0  0  0  0  0  0  0  0  0  0  0
   16.8876   -5.9784   -9.1048 C   0  0  0  0  0  0  0  0  0  0  0  0
   17.9659   -5.9870   -8.4652 O   0  0  0  0  0  0  0  0  0  0  0  0
   15.9897   -4.9535   -8.8415 O   0  0  0  0  0  0  0  0  0  0  0  0
  2  3  1  0
  2  1  1  6
  4  2  1  0
  4  5  2  0
  6  4  1  0
  7  6  1  0
  7 12  1  0
  7  8  1  6
  9  8  1  0
  9 10  1  0
 10 11  2  0
 12 13  2  0
 12 15  1  0
 14 10  1  0
 15 16  1  0
 16 22  1  0
 16 17  1  1
 18 17  1  0
 19 18  1  0
 20 19  1  0
 21 20  1  0
 22 23  2  0
 22 24  1  0
M  END
$$$$
