AEK.pdb
     RDKit          3D

 24 23  0  0  1  0  0  0  0  0999 V2000
   21.3828  -20.2331  -13.2145 C   0  0  0  0  0  0  0  0  0  0  0  0
   20.9975  -19.7183  -14.5696 C   0  0  2  0  0  0  0  0  0  0  0  0
   21.5131  -20.5382  -15.6414 N   0  0  0  0  0  0  0  0  0  0  0  0
   21.3747  -18.3019  -14.7638 C   0  0  0  0  0  0  0  0  0  0  0  0
   21.1722  -17.4287  -13.8967 O   0  0  0  0  0  0  0  0  0  0  0  0
   21.9901  -17.9209  -15.9820 N   0  0  0  0  0  0  0  0  0  0  0  0
   22.4488  -16.5640  -16.2062 C   0  0  1  0  0  0  0  0  0  0  0  0
   23.6636  -16.5305  -17.1097 C   0  0  0  0  0  0  0  0  0  0  0  0
   24.8867  -17.0074  -16.3867 C   0  0  0  0  0  0  0  0  0  0  0  0
   26.0674  -16.9470  -17.2720 C   0  0  0  0  0  0  0  0  0  0  0  0
   25.9210  -16.6193  -18.4691 O   0  0  0  0  0  0  0  0  0  0  0  0
   21.3724  -15.7164  -16.7452 C   0  0  0  0  0  0  0  0  0  0  0  0
   20.5072  -16.2097  -17.4910 O   0  0  0  0  0  0  0  0  0  0  0  0
   27.3328  -17.2443  -16.8085 O   0  0  0  0  0  0  0  0  0  0  0  0
   21.3209  -14.3487  -16.4178 N   0  0  0  0  0  0  0  0  0  0  0  0
   20.2459  -13.5307  -16.9195 C   0  0  1  0  0  0  0  0  0  0  0  0
   19.9468  -12.3707  -15.9919 C   0  0  0  0  0  0  0  0  0  0  0  0
   18.7263  -11.5826  -16.4501 C   0  0  0  0  0  0  0  0  0  0  0  0
   18.5196  -10.4825  -15.4298 C   0  0  0  0  0  0  0  0  0  0  0  0
   17.2203   -9.7403  -15.6667 C   0  0  0  0  0  0  0  0  0  0  0  0
   17.0203   -8.8394  -14.5570 N   0  0  0  0  0  0  0  0  0  0  0  0
   20.5878  -13.0677  -18.2838 C   0  0  0  0  0  0  0  0  0  0  0  0
   19.7190  -12.8950  -19.1710 O   0  0  0  0  0  0  0  0  0  0  0  0
   21.9100  -12.8089  -18.6168 O   0  0  0  0  0  0  0  0  0  0  0  0
  2  3  1  0
  2  1  1  1
  4  2  1  0
  4  5  2  0
  6  4  1  0
  7  6  1  0
  7 12  1  0
  7  8  1  6
  9  8  1  0
  9 10  1  0
 10 11  2  0
 12 13  2  0
 12 15  1  0
 14 10  1  0
 15 16  1  0
 16 22  1  0
 16 17  1  1
 18 17  1  0
 19 18  1  0
 20 19  1  0
 21 20  1  0
 22 23  2  0
 22 24  1  0
M  END
$$$$
