AEK.pdb
     RDKit          3D

 24 23  0  0  1  0  0  0  0  0999 V2000
   15.8629  -10.1377  -15.6550 C   0  0  0  0  0  0  0  0  0  0  0  0
   17.2541  -10.5377  -15.2617 C   0  0  2  0  0  0  0  0  0  0  0  0
   17.4237  -11.9712  -15.2051 N   0  0  0  0  0  0  0  0  0  0  0  0
   17.6864   -9.9073  -13.9961 C   0  0  0  0  0  0  0  0  0  0  0  0
   17.3931  -10.3766  -12.8784 O   0  0  0  0  0  0  0  0  0  0  0  0
   18.4641   -8.7242  -14.0542 N   0  0  0  0  0  0  0  0  0  0  0  0
   18.9145   -8.0547  -12.8498 C   0  0  1  0  0  0  0  0  0  0  0  0
   20.0685   -7.1163  -13.1345 C   0  0  0  0  0  0  0  0  0  0  0  0
   20.6107   -6.5284  -11.8671 C   0  0  0  0  0  0  0  0  0  0  0  0
   21.7594   -5.6460  -12.1562 C   0  0  0  0  0  0  0  0  0  0  0  0
   22.8007   -5.7500  -11.4730 O   0  0  0  0  0  0  0  0  0  0  0  0
   17.8101   -7.3401  -12.1886 C   0  0  0  0  0  0  0  0  0  0  0  0
   17.0551   -6.6096  -12.8553 O   0  0  0  0  0  0  0  0  0  0  0  0
   21.7111   -4.7062  -13.1656 O   0  0  0  0  0  0  0  0  0  0  0  0
   17.6072   -7.4824  -10.8033 N   0  0  0  0  0  0  0  0  0  0  0  0
   16.4816   -6.8404  -10.1732 C   0  0  1  0  0  0  0  0  0  0  0  0
   15.5223   -7.8514   -9.5791 C   0  0  0  0  0  0  0  0  0  0  0  0
   14.3409   -7.1743   -8.8963 C   0  0  0  0  0  0  0  0  0  0  0  0
   13.4330   -8.2851   -8.4108 C   0  0  0  0  0  0  0  0  0  0  0  0
   12.1749   -7.7359   -7.7698 C   0  0  0  0  0  0  0  0  0  0  0  0
   11.3198   -8.8543   -7.4517 N   0  0  0  0  0  0  0  0  0  0  0  0
   16.9775   -5.8894   -9.1522 C   0  0  0  0  0  0  0  0  0  0  0  0
   18.1136   -5.9951   -8.6327 O   0  0  0  0  0  0  0  0  0  0  0  0
   16.1749   -4.8352   -8.7391 O   0  0  0  0  0  0  0  0  0  0  0  0
  2  3  1  0
  2  1  1  1
  4  2  1  0
  4  5  2  0
  6  4  1  0
  7  6  1  0
  7 12  1  0
  7  8  1  6
  9  8  1  0
  9 10  1  0
 10 11  2  0
 12 13  2  0
 12 15  1  0
 14 10  1  0
 15 16  1  0
 16 22  1  0
 16 17  1  1
 18 17  1  0
 19 18  1  0
 20 19  1  0
 21 20  1  0
 22 23  2  0
 22 24  1  0
M  END
$$$$
