AEK.pdb
     RDKit          3D

 24 23  0  0  1  0  0  0  0  0999 V2000
   19.6522  -12.3977  -16.3250 C   0  0  0  0  0  0  0  0  0  0  0  0
   20.1247  -11.2443  -17.1596 C   0  0  2  0  0  0  0  0  0  0  0  0
   21.5457  -11.2907  -17.4156 N   0  0  0  0  0  0  0  0  0  0  0  0
   19.7365   -9.9372  -16.5879 C   0  0  0  0  0  0  0  0  0  0  0  0
   18.5558   -9.6536  -16.3030 O   0  0  0  0  0  0  0  0  0  0  0  0
   20.7440   -8.9686  -16.3542 N   0  0  0  0  0  0  0  0  0  0  0  0
   20.4341   -7.6817  -15.7629 C   0  0  1  0  0  0  0  0  0  0  0  0
   21.4980   -7.2545  -14.7736 C   0  0  0  0  0  0  0  0  0  0  0  0
   21.0799   -6.0217  -14.0309 C   0  0  0  0  0  0  0  0  0  0  0  0
   22.1097   -5.6382  -13.0440 C   0  0  0  0  0  0  0  0  0  0  0  0
   22.0609   -6.1142  -11.8894 O   0  0  0  0  0  0  0  0  0  0  0  0
   20.2356   -6.6511  -16.7954 C   0  0  0  0  0  0  0  0  0  0  0  0
   21.0678   -6.5202  -17.7110 O   0  0  0  0  0  0  0  0  0  0  0  0
   23.1280   -4.7643  -13.3662 O   0  0  0  0  0  0  0  0  0  0  0  0
   19.1056   -5.8137  -16.7479 N   0  0  0  0  0  0  0  0  0  0  0  0
   18.8294   -4.9183  -17.8426 C   0  0  1  0  0  0  0  0  0  0  0  0
   17.5392   -5.2809  -18.5491 C   0  0  0  0  0  0  0  0  0  0  0  0
   17.1641   -4.2477  -19.6037 C   0  0  0  0  0  0  0  0  0  0  0  0
   15.8991   -4.7522  -20.2663 C   0  0  0  0  0  0  0  0  0  0  0  0
   15.4497   -3.8315  -21.3824 C   0  0  0  0  0  0  0  0  0  0  0  0
   14.1643   -4.2969  -21.8451 N   0  0  0  0  0  0  0  0  0  0  0  0
   18.8040   -3.5278  -17.3343 C   0  0  0  0  0  0  0  0  0  0  0  0
   19.1857   -2.5538  -18.0254 O   0  0  0  0  0  0  0  0  0  0  0  0
   18.3458   -3.2674  -16.0503 O   0  0  0  0  0  0  0  0  0  0  0  0
  2  3  1  0
  2  1  1  1
  4  2  1  0
  4  5  2  0
  6  4  1  0
  7  6  1  0
  7 12  1  0
  7  8  1  1
  9  8  1  0
  9 10  1  0
 10 11  2  0
 12 13  2  0
 12 15  1  0
 14 10  1  0
 15 16  1  0
 16 22  1  0
 16 17  1  1
 18 17  1  0
 19 18  1  0
 20 19  1  0
 21 20  1  0
 22 23  2  0
 22 24  1  0
M  END
$$$$
