AEK.pdb
     RDKit          3D

 24 23  0  0  1  0  0  0  0  0999 V2000
   17.8863  -12.3838  -16.5010 C   0  0  0  0  0  0  0  0  0  0  0  0
   19.0563  -11.8821  -17.2944 C   0  0  2  0  0  0  0  0  0  0  0  0
   19.6726  -12.9190  -18.0893 N   0  0  0  0  0  0  0  0  0  0  0  0
   20.0607  -11.2007  -16.4500 C   0  0  0  0  0  0  0  0  0  0  0  0
   20.9988  -11.8105  -15.8991 O   0  0  0  0  0  0  0  0  0  0  0  0
   19.9541   -9.8008  -16.2586 N   0  0  0  0  0  0  0  0  0  0  0  0
   21.0254   -9.0363  -15.6507 C   0  0  1  0  0  0  0  0  0  0  0  0
   22.1968   -8.8725  -16.5964 C   0  0  0  0  0  0  0  0  0  0  0  0
   21.7888   -8.1392  -17.8381 C   0  0  0  0  0  0  0  0  0  0  0  0
   22.9526   -7.9355  -18.7244 C   0  0  0  0  0  0  0  0  0  0  0  0
   23.5309   -6.8275  -18.7337 O   0  0  0  0  0  0  0  0  0  0  0  0
   20.5479   -7.7265  -15.1776 C   0  0  0  0  0  0  0  0  0  0  0  0
   19.6828   -7.1095  -15.8249 O   0  0  0  0  0  0  0  0  0  0  0  0
   23.4192   -8.9418  -19.5455 O   0  0  0  0  0  0  0  0  0  0  0  0
   21.0687   -7.1714  -13.9939 N   0  0  0  0  0  0  0  0  0  0  0  0
   20.4364   -6.0195  -13.4026 C   0  0  1  0  0  0  0  0  0  0  0  0
   19.5349   -6.4079  -12.2485 C   0  0  0  0  0  0  0  0  0  0  0  0
   18.8989   -5.1879  -11.5946 C   0  0  0  0  0  0  0  0  0  0  0  0
   18.1170   -5.7000  -10.4028 C   0  0  0  0  0  0  0  0  0  0  0  0
   17.4126   -4.5743   -9.6735 C   0  0  0  0  0  0  0  0  0  0  0  0
   16.7758   -5.1373   -8.5070 N   0  0  0  0  0  0  0  0  0  0  0  0
   21.4810   -5.0577  -12.9828 C   0  0  0  0  0  0  0  0  0  0  0  0
   22.6426   -5.4189  -12.6794 O   0  0  0  0  0  0  0  0  0  0  0  0
   21.1885   -3.7027  -12.9150 O   0  0  0  0  0  0  0  0  0  0  0  0
  2  3  1  0
  2  1  1  1
  4  2  1  0
  4  5  2  0
  6  4  1  0
  7  6  1  0
  7 12  1  0
  7  8  1  6
  9  8  1  0
  9 10  1  0
 10 11  2  0
 12 13  2  0
 12 15  1  0
 14 10  1  0
 15 16  1  0
 16 22  1  0
 16 17  1  1
 18 17  1  0
 19 18  1  0
 20 19  1  0
 21 20  1  0
 22 23  2  0
 22 24  1  0
M  END
$$$$
