AEK.pdb
     RDKit          3D

 24 23  0  0  1  0  0  0  0  0999 V2000
   19.3970  -13.0647  -16.2470 C   0  0  0  0  0  0  0  0  0  0  0  0
   19.3678  -11.6833  -16.8306 C   0  0  2  0  0  0  0  0  0  0  0  0
   19.2375  -11.6919  -18.2693 N   0  0  0  0  0  0  0  0  0  0  0  0
   20.5294  -10.8693  -16.4133 C   0  0  0  0  0  0  0  0  0  0  0  0
   20.8447  -10.7141  -15.2167 O   0  0  0  0  0  0  0  0  0  0  0  0
   21.3153  -10.2406  -17.4108 N   0  0  0  0  0  0  0  0  0  0  0  0
   22.4803   -9.4485  -17.0687 C   0  0  1  0  0  0  0  0  0  0  0  0
   23.5440   -9.5323  -18.1433 C   0  0  0  0  0  0  0  0  0  0  0  0
   24.0114  -10.9439  -18.3304 C   0  0  0  0  0  0  0  0  0  0  0  0
   24.9662  -11.0280  -19.4541 C   0  0  0  0  0  0  0  0  0  0  0  0
   25.2756   -9.9889  -20.0759 O   0  0  0  0  0  0  0  0  0  0  0  0
   22.1162   -8.0473  -16.8011 C   0  0  0  0  0  0  0  0  0  0  0  0
   21.7174   -7.3207  -17.7291 O   0  0  0  0  0  0  0  0  0  0  0  0
   25.5272  -12.2296  -19.8360 O   0  0  0  0  0  0  0  0  0  0  0  0
   22.2187   -7.5287  -15.4969 N   0  0  0  0  0  0  0  0  0  0  0  0
   21.8053   -6.1746  -15.2285 C   0  0  1  0  0  0  0  0  0  0  0  0
   20.3845   -5.9223  -15.6902 C   0  0  0  0  0  0  0  0  0  0  0  0
   19.8888   -4.5466  -15.2633 C   0  0  0  0  0  0  0  0  0  0  0  0
   18.4575   -4.4386  -15.7465 C   0  0  0  0  0  0  0  0  0  0  0  0
   17.8531   -3.0930  -15.4009 C   0  0  0  0  0  0  0  0  0  0  0  0
   16.4570   -3.1319  -15.7652 N   0  0  0  0  0  0  0  0  0  0  0  0
   21.9696   -5.8971  -13.7833 C   0  0  0  0  0  0  0  0  0  0  0  0
   21.9913   -6.8092  -12.9233 O   0  0  0  0  0  0  0  0  0  0  0  0
   22.1064   -4.5892  -13.3399 O   0  0  0  0  0  0  0  0  0  0  0  0
  2  3  1  0
  2  1  1  6
  4  2  1  0
  4  5  2  0
  6  4  1  0
  7  6  1  0
  7 12  1  0
  7  8  1  6
  9  8  1  0
  9 10  1  0
 10 11  2  0
 12 13  2  0
 12 15  1  0
 14 10  1  0
 15 16  1  0
 16 22  1  0
 16 17  1  1
 18 17  1  0
 19 18  1  0
 20 19  1  0
 21 20  1  0
 22 23  2  0
 22 24  1  0
M  END
$$$$
