DPW.pdb
     RDKit          3D

 30 32  0  0  1  0  0  0  0  0999 V2000
    6.9774  -16.7075   19.0891 N   0  0  0  0  0  0  0  0  0  0  0  0
    8.2034  -16.2800   19.6929 C   0  0  1  0  0  0  0  0  0  0  0  0
    8.2100  -14.7730   19.7603 C   0  0  0  0  0  0  0  0  0  0  0  0
    8.2653  -14.2301   18.3939 C   0  0  0  0  0  0  0  0  0  0  0  0
    9.3253  -14.2595   17.7351 O   0  0  0  0  0  0  0  0  0  0  0  0
    8.4292  -16.8802   21.0308 C   0  0  0  0  0  0  0  0  0  0  0  0
    7.3615  -17.2562   21.6236 O   0  0  0  0  0  0  0  0  0  0  0  0
    7.1366  -13.6815   17.8295 O   0  0  0  0  0  0  0  0  0  0  0  0
    9.6869  -17.0482   21.6491 N   0  0  0  0  0  0  0  0  0  0  0  0
   10.9851  -16.5605   21.2628 C   0  0  0  0  0  0  0  0  0  0  0  0
   12.0145  -17.4470   21.9685 C   0  0  0  0  0  0  0  0  0  0  0  0
   11.1370  -18.5973   22.4848 C   0  0  0  0  0  0  0  0  0  0  0  0
    9.9106  -17.7941   22.8673 C   0  0  1  0  0  0  0  0  0  0  0  0
   10.2794  -16.8836   23.9969 C   0  0  0  0  0  0  0  0  0  0  0  0
   11.1433  -15.9654   23.8601 O   0  0  0  0  0  0  0  0  0  0  0  0
    9.6463  -17.0494   25.2576 N   0  0  0  0  0  0  0  0  0  0  0  0
   10.0323  -16.2430   26.4203 C   0  0  1  0  0  0  0  0  0  0  0  0
    8.7461  -16.1187   27.2488 C   0  0  0  0  0  0  0  0  0  0  0  0
    7.6831  -15.4312   26.4981 C   0  0  0  0  0  0  0  0  0  0  0  0
    6.6623  -15.9963   25.7629 C   0  0  0  0  0  0  0  0  0  0  0  0
    5.9165  -15.0061   25.2408 N   0  0  0  0  0  0  0  0  0  0  0  0
    6.4181  -13.8108   25.6118 C   0  0  0  0  0  0  0  0  0  0  0  0
    6.0681  -12.5166   25.3755 C   0  0  0  0  0  0  0  0  0  0  0  0
    6.7911  -11.4723   25.9030 C   0  0  0  0  0  0  0  0  0  0  0  0
    7.9018  -11.6921   26.6941 C   0  0  0  0  0  0  0  0  0  0  0  0
    8.2508  -13.0106   26.9294 C   0  0  0  0  0  0  0  0  0  0  0  0
    7.5342  -14.0730   26.4062 C   0  0  0  0  0  0  0  0  0  0  0  0
   11.0149  -16.9932   27.2424 C   0  0  0  0  0  0  0  0  0  0  0  0
   11.3173  -18.1822   27.0429 O   0  0  0  0  0  0  0  0  0  0  0  0
   11.6353  -16.3407   28.2936 O   0  0  0  0  0  0  0  0  0  0  0  0
  2  1  1  1
  2  6  1  0
  3  2  1  0
  4  8  1  0
  4  3  1  0
  5  4  2  0
  6  7  2  0
  9  6  1  0
  9 13  1  0
 10  9  1  0
 11 10  1  0
 11 12  1  0
 12 13  1  0
 13 14  1  1
 14 15  2  0
 16 14  1  0
 17 16  1  0
 17 28  1  0
 17 18  1  1
 19 18  1  0
 20 19  2  0
 21 22  1  0
 21 20  1  0
 22 27  2  0
 23 24  2  0
 23 22  1  0
 24 25  1  0
 25 26  2  0
 27 26  1  0
 27 19  1  0
 28 29  2  0
 28 30  1  0
M  END
$$$$
