DPW.pdb
     RDKit          3D

 30 32  0  0  1  0  0  0  0  0999 V2000
    8.2004  -19.0107   19.1951 N   0  0  0  0  0  0  0  0  0  0  0  0
    7.6737  -18.0830   20.1504 C   0  0  1  0  0  0  0  0  0  0  0  0
    7.2188  -18.8481   21.3682 C   0  0  0  0  0  0  0  0  0  0  0  0
    6.1442  -19.7755   20.9806 C   0  0  0  0  0  0  0  0  0  0  0  0
    5.6358  -19.7270   19.8415 O   0  0  0  0  0  0  0  0  0  0  0  0
    8.6391  -17.0165   20.5137 C   0  0  0  0  0  0  0  0  0  0  0  0
    9.8333  -17.2320   20.1136 O   0  0  0  0  0  0  0  0  0  0  0  0
    5.6896  -20.7108   21.8818 O   0  0  0  0  0  0  0  0  0  0  0  0
    8.3279  -15.8444   21.2360 N   0  0  0  0  0  0  0  0  0  0  0  0
    7.0715  -15.3879   21.7702 C   0  0  0  0  0  0  0  0  0  0  0  0
    7.2072  -13.8777   21.9810 C   0  0  0  0  0  0  0  0  0  0  0  0
    8.5098  -13.5712   21.2264 C   0  0  0  0  0  0  0  0  0  0  0  0
    9.2845  -14.8206   21.5927 C   0  0  1  0  0  0  0  0  0  0  0  0
    9.5311  -14.8041   23.0691 C   0  0  0  0  0  0  0  0  0  0  0  0
    9.8939  -13.7502   23.6741 O   0  0  0  0  0  0  0  0  0  0  0  0
    9.3547  -15.9992   23.8162 N   0  0  0  0  0  0  0  0  0  0  0  0
   10.1906  -16.3039   24.9822 C   0  0  1  0  0  0  0  0  0  0  0  0
    9.6447  -15.3998   26.0960 C   0  0  0  0  0  0  0  0  0  0  0  0
    8.2028  -15.1529   25.9347 C   0  0  0  0  0  0  0  0  0  0  0  0
    7.2229  -16.0541   25.5745 C   0  0  0  0  0  0  0  0  0  0  0  0
    6.0430  -15.4092   25.5453 N   0  0  0  0  0  0  0  0  0  0  0  0
    6.2208  -14.1139   25.8752 C   0  0  0  0  0  0  0  0  0  0  0  0
    5.3924  -13.0408   25.9996 C   0  0  0  0  0  0  0  0  0  0  0  0
    5.8733  -11.8043   26.3621 C   0  0  0  0  0  0  0  0  0  0  0  0
    7.2156  -11.5991   26.6150 C   0  0  0  0  0  0  0  0  0  0  0  0
    8.0508  -12.6952   26.4862 C   0  0  0  0  0  0  0  0  0  0  0  0
    7.5832  -13.9461   26.1224 C   0  0  0  0  0  0  0  0  0  0  0  0
    9.9631  -17.7090   25.4043 C   0  0  0  0  0  0  0  0  0  0  0  0
    9.0995  -18.4493   24.9031 O   0  0  0  0  0  0  0  0  0  0  0  0
   10.7520  -18.2343   26.4130 O   0  0  0  0  0  0  0  0  0  0  0  0
  2  1  1  6
  2  6  1  0
  3  2  1  0
  4  8  1  0
  4  3  1  0
  5  4  2  0
  6  7  2  0
  9  6  1  0
  9 13  1  0
 10  9  1  0
 11 10  1  0
 11 12  1  0
 12 13  1  0
 13 14  1  1
 14 15  2  0
 16 14  1  0
 17 16  1  0
 17 28  1  0
 17 18  1  1
 19 18  1  0
 20 19  2  0
 21 22  1  0
 21 20  1  0
 22 27  2  0
 23 24  2  0
 23 22  1  0
 24 25  1  0
 25 26  2  0
 27 26  1  0
 27 19  1  0
 28 29  2  0
 28 30  1  0
M  END
$$$$
