DPW.pdb
     RDKit          3D

 30 32  0  0  1  0  0  0  0  0999 V2000
   11.1938  -16.6832   17.4996 N   0  0  0  0  0  0  0  0  0  0  0  0
   10.2431  -17.2045   18.4350 C   0  0  1  0  0  0  0  0  0  0  0  0
   10.6837  -18.5847   18.8546 C   0  0  0  0  0  0  0  0  0  0  0  0
   10.8319  -19.4276   17.6578 C   0  0  0  0  0  0  0  0  0  0  0  0
    9.8308  -19.8363   17.0338 O   0  0  0  0  0  0  0  0  0  0  0  0
   10.0447  -16.3215   19.6106 C   0  0  0  0  0  0  0  0  0  0  0  0
   11.0433  -15.5699   19.8762 O   0  0  0  0  0  0  0  0  0  0  0  0
   12.0884  -19.7731   17.2155 O   0  0  0  0  0  0  0  0  0  0  0  0
    8.8798  -16.2699   20.4062 N   0  0  0  0  0  0  0  0  0  0  0  0
    7.6610  -17.0310   20.3201 C   0  0  0  0  0  0  0  0  0  0  0  0
    6.5892  -16.2282   21.0619 C   0  0  0  0  0  0  0  0  0  0  0  0
    7.2886  -14.8741   21.2550 C   0  0  0  0  0  0  0  0  0  0  0  0
    8.6905  -15.3791   21.5292 C   0  0  1  0  0  0  0  0  0  0  0  0
    8.6727  -16.1359   22.8207 C   0  0  0  0  0  0  0  0  0  0  0  0
    8.5503  -17.3977   22.8539 O   0  0  0  0  0  0  0  0  0  0  0  0
    8.7963  -15.4248   24.0440 N   0  0  0  0  0  0  0  0  0  0  0  0
    9.8827  -15.7078   24.9879 C   0  0  1  0  0  0  0  0  0  0  0  0
    9.5590  -14.8495   26.2186 C   0  0  0  0  0  0  0  0  0  0  0  0
    8.1226  -14.5387   26.2990 C   0  0  0  0  0  0  0  0  0  0  0  0
    7.0598  -15.4144   26.2253 C   0  0  0  0  0  0  0  0  0  0  0  0
    5.9201  -14.7098   26.3432 N   0  0  0  0  0  0  0  0  0  0  0  0
    6.2048  -13.4002   26.4917 C   0  0  0  0  0  0  0  0  0  0  0  0
    5.4550  -12.2748   26.6484 C   0  0  0  0  0  0  0  0  0  0  0  0
    6.0411  -11.0375   26.7794 C   0  0  0  0  0  0  0  0  0  0  0  0
    7.4136  -10.8844   26.7575 C   0  0  0  0  0  0  0  0  0  0  0  0
    8.1684  -12.0335   26.5978 C   0  0  0  0  0  0  0  0  0  0  0  0
    7.5946  -13.2860   26.4646 C   0  0  0  0  0  0  0  0  0  0  0  0
    9.8159  -17.1289   25.4121 C   0  0  0  0  0  0  0  0  0  0  0  0
   10.6758  -17.6790   26.1213 O   0  0  0  0  0  0  0  0  0  0  0  0
    8.7387  -17.8941   24.9998 O   0  0  0  0  0  0  0  0  0  0  0  0
  2  1  1  6
  2  6  1  0
  3  2  1  0
  4  8  1  0
  4  3  1  0
  5  4  2  0
  6  7  2  0
  9  6  1  0
  9 13  1  0
 10  9  1  0
 11 10  1  0
 11 12  1  0
 12 13  1  0
 13 14  1  1
 14 15  2  0
 16 14  1  0
 17 16  1  0
 17 28  1  0
 17 18  1  1
 19 18  1  0
 20 19  2  0
 21 22  1  0
 21 20  1  0
 22 27  2  0
 23 24  2  0
 23 22  1  0
 24 25  1  0
 25 26  2  0
 27 26  1  0
 27 19  1  0
 28 29  2  0
 28 30  1  0
M  END
$$$$
