DPW.pdb
     RDKit          3D

 30 32  0  0  1  0  0  0  0  0999 V2000
   11.4220  -17.3362   18.0300 N   0  0  0  0  0  0  0  0  0  0  0  0
   10.1111  -17.1351   18.5700 C   0  0  1  0  0  0  0  0  0  0  0  0
    9.4762  -18.4815   18.8140 C   0  0  0  0  0  0  0  0  0  0  0  0
   10.1818  -19.4979   18.0178 C   0  0  0  0  0  0  0  0  0  0  0  0
   11.1023  -19.1760   17.2383 O   0  0  0  0  0  0  0  0  0  0  0  0
   10.1139  -16.3094   19.8027 C   0  0  0  0  0  0  0  0  0  0  0  0
   11.2790  -15.9738   20.2061 O   0  0  0  0  0  0  0  0  0  0  0  0
    9.8266  -20.8227   18.1299 O   0  0  0  0  0  0  0  0  0  0  0  0
    8.9656  -15.8984   20.5133 N   0  0  0  0  0  0  0  0  0  0  0  0
    7.5714  -16.1335   20.2426 C   0  0  0  0  0  0  0  0  0  0  0  0
    6.7896  -15.0600   21.0041 C   0  0  0  0  0  0  0  0  0  0  0  0
    7.9082  -14.0930   21.4206 C   0  0  0  0  0  0  0  0  0  0  0  0
    8.9876  -15.1114   21.7260 C   0  0  1  0  0  0  0  0  0  0  0  0
    8.5469  -15.9236   22.9038 C   0  0  0  0  0  0  0  0  0  0  0  0
    8.0291  -17.0730   22.7665 O   0  0  0  0  0  0  0  0  0  0  0  0
    8.7121  -15.3959   24.2121 N   0  0  0  0  0  0  0  0  0  0  0  0
    9.5619  -16.0617   25.2048 C   0  0  1  0  0  0  0  0  0  0  0  0
    9.3414  -15.2659   26.4987 C   0  0  0  0  0  0  0  0  0  0  0  0
    7.9689  -14.7412   26.5840 C   0  0  0  0  0  0  0  0  0  0  0  0
    6.7866  -15.4507   26.5614 C   0  0  0  0  0  0  0  0  0  0  0  0
    5.7667  -14.5798   26.6636 N   0  0  0  0  0  0  0  0  0  0  0  0
    6.2455  -13.3224   26.7523 C   0  0  0  0  0  0  0  0  0  0  0  0
    5.6744  -12.0922   26.8702 C   0  0  0  0  0  0  0  0  0  0  0  0
    6.4402  -10.9520   26.9406 C   0  0  0  0  0  0  0  0  0  0  0  0
    7.8195  -11.0065   26.8947 C   0  0  0  0  0  0  0  0  0  0  0  0
    8.3920  -12.2608   26.7747 C   0  0  0  0  0  0  0  0  0  0  0  0
    7.6361  -13.4181   26.7026 C   0  0  0  0  0  0  0  0  0  0  0  0
    9.0621  -17.4390   25.4444 C   0  0  0  0  0  0  0  0  0  0  0  0
    7.9684  -17.8587   25.0287 O   0  0  0  0  0  0  0  0  0  0  0  0
    9.8511  -18.3137   26.1711 O   0  0  0  0  0  0  0  0  0  0  0  0
  2  1  1  1
  2  6  1  0
  3  2  1  0
  4  8  1  0
  4  3  1  0
  5  4  2  0
  6  7  2  0
  9  6  1  0
  9 13  1  0
 10  9  1  0
 11 10  1  0
 11 12  1  0
 12 13  1  0
 13 14  1  1
 14 15  2  0
 16 14  1  0
 17 16  1  0
 17 28  1  0
 17 18  1  1
 19 18  1  0
 20 19  2  0
 21 22  1  0
 21 20  1  0
 22 27  2  0
 23 24  2  0
 23 22  1  0
 24 25  1  0
 25 26  2  0
 27 26  1  0
 27 19  1  0
 28 29  2  0
 28 30  1  0
M  END
$$$$
