DPW.pdb
     RDKit          3D

 30 32  0  0  1  0  0  0  0  0999 V2000
   11.2881  -16.6597   17.5522 N   0  0  0  0  0  0  0  0  0  0  0  0
   10.2345  -17.0456   18.4419 C   0  0  1  0  0  0  0  0  0  0  0  0
   10.4237  -18.4946   18.8164 C   0  0  0  0  0  0  0  0  0  0  0  0
   10.4666  -19.3071   17.5905 C   0  0  0  0  0  0  0  0  0  0  0  0
    9.5528  -19.2371   16.7428 O   0  0  0  0  0  0  0  0  0  0  0  0
   10.1506  -16.1842   19.6469 C   0  0  0  0  0  0  0  0  0  0  0  0
   11.2596  -15.6478   19.9861 O   0  0  0  0  0  0  0  0  0  0  0  0
   11.5260  -20.1574   17.3700 O   0  0  0  0  0  0  0  0  0  0  0  0
    8.9796  -15.9393   20.3961 N   0  0  0  0  0  0  0  0  0  0  0  0
    7.6397  -16.4331   20.2143 C   0  0  0  0  0  0  0  0  0  0  0  0
    6.7123  -15.4697   20.9594 C   0  0  0  0  0  0  0  0  0  0  0  0
    7.6565  -14.2965   21.2628 C   0  0  0  0  0  0  0  0  0  0  0  0
    8.9134  -15.0876   21.5625 C   0  0  1  0  0  0  0  0  0  0  0  0
    8.6779  -15.8905   22.8038 C   0  0  0  0  0  0  0  0  0  0  0  0
    8.2726  -17.0912   22.7558 O   0  0  0  0  0  0  0  0  0  0  0  0
    8.9140  -15.2948   24.0715 N   0  0  0  0  0  0  0  0  0  0  0  0
    9.7197  -15.9679   25.0957 C   0  0  1  0  0  0  0  0  0  0  0  0
    9.5027  -15.1355   26.3669 C   0  0  0  0  0  0  0  0  0  0  0  0
    8.1117  -14.6669   26.4761 C   0  0  0  0  0  0  0  0  0  0  0  0
    6.9595  -15.4247   26.4844 C   0  0  0  0  0  0  0  0  0  0  0  0
    5.9068  -14.5955   26.6000 N   0  0  0  0  0  0  0  0  0  0  0  0
    6.3349  -13.3187   26.6676 C   0  0  0  0  0  0  0  0  0  0  0  0
    5.7159  -12.1120   26.7865 C   0  0  0  0  0  0  0  0  0  0  0  0
    6.4351  -10.9406   26.8308 C   0  0  0  0  0  0  0  0  0  0  0  0
    7.8143  -10.9387   26.7567 C   0  0  0  0  0  0  0  0  0  0  0  0
    8.4357  -12.1695   26.6359 C   0  0  0  0  0  0  0  0  0  0  0  0
    7.7269  -13.3575   26.5898 C   0  0  0  0  0  0  0  0  0  0  0  0
    9.1659  -17.3207   25.3552 C   0  0  0  0  0  0  0  0  0  0  0  0
    8.0471  -17.6955   24.9643 O   0  0  0  0  0  0  0  0  0  0  0  0
    9.9308  -18.2238   26.0728 O   0  0  0  0  0  0  0  0  0  0  0  0
  2  1  1  6
  2  6  1  0
  3  2  1  0
  4  8  1  0
  4  3  1  0
  5  4  2  0
  6  7  2  0
  9  6  1  0
  9 13  1  0
 10  9  1  0
 11 10  1  0
 11 12  1  0
 12 13  1  0
 13 14  1  1
 14 15  2  0
 16 14  1  0
 17 16  1  0
 17 28  1  0
 17 18  1  1
 19 18  1  0
 20 19  2  0
 21 22  1  0
 21 20  1  0
 22 27  2  0
 23 24  2  0
 23 22  1  0
 24 25  1  0
 25 26  2  0
 27 26  1  0
 27 19  1  0
 28 29  2  0
 28 30  1  0
M  END
$$$$
