DPW.pdb
     RDKit          3D

 30 32  0  0  1  0  0  0  0  0999 V2000
   11.1768  -17.3797   17.9245 N   0  0  0  0  0  0  0  0  0  0  0  0
    9.9024  -17.2386   18.5622 C   0  0  1  0  0  0  0  0  0  0  0  0
    9.3507  -18.6125   18.8506 C   0  0  0  0  0  0  0  0  0  0  0  0
    9.1866  -19.3414   17.5831 C   0  0  0  0  0  0  0  0  0  0  0  0
    8.8946  -18.7379   16.5300 O   0  0  0  0  0  0  0  0  0  0  0  0
    9.9600  -16.4118   19.7928 C   0  0  0  0  0  0  0  0  0  0  0  0
   11.1446  -16.1294   20.1796 O   0  0  0  0  0  0  0  0  0  0  0  0
    9.3562  -20.7067   17.5520 O   0  0  0  0  0  0  0  0  0  0  0  0
    8.8416  -15.9473   20.5179 N   0  0  0  0  0  0  0  0  0  0  0  0
    7.4345  -16.1136   20.2635 C   0  0  0  0  0  0  0  0  0  0  0  0
    6.7149  -15.0054   21.0365 C   0  0  0  0  0  0  0  0  0  0  0  0
    7.8842  -14.0949   21.4413 C   0  0  0  0  0  0  0  0  0  0  0  0
    8.9162  -15.1654   21.7318 C   0  0  1  0  0  0  0  0  0  0  0  0
    8.4507  -15.9581   22.9132 C   0  0  0  0  0  0  0  0  0  0  0  0
    7.9185  -17.1018   22.7826 O   0  0  0  0  0  0  0  0  0  0  0  0
    8.6079  -15.4181   24.2175 N   0  0  0  0  0  0  0  0  0  0  0  0
    9.6534  -15.9013   25.1255 C   0  0  1  0  0  0  0  0  0  0  0  0
    9.3641  -15.1967   26.4581 C   0  0  0  0  0  0  0  0  0  0  0  0
    7.9739  -14.7182   26.5267 C   0  0  0  0  0  0  0  0  0  0  0  0
    6.8157  -15.4541   26.3890 C   0  0  0  0  0  0  0  0  0  0  0  0
    5.7664  -14.6230   26.5203 N   0  0  0  0  0  0  0  0  0  0  0  0
    6.2026  -13.3660   26.7396 C   0  0  0  0  0  0  0  0  0  0  0  0
    5.5898  -12.1667   26.9381 C   0  0  0  0  0  0  0  0  0  0  0  0
    6.3168  -11.0171   27.1420 C   0  0  0  0  0  0  0  0  0  0  0  0
    7.6979  -11.0308   27.1539 C   0  0  0  0  0  0  0  0  0  0  0  0
    8.3129  -12.2540   26.9513 C   0  0  0  0  0  0  0  0  0  0  0  0
    7.5963  -13.4200   26.7447 C   0  0  0  0  0  0  0  0  0  0  0  0
    9.4818  -17.3586   25.3516 C   0  0  0  0  0  0  0  0  0  0  0  0
   10.2900  -18.0589   25.9851 O   0  0  0  0  0  0  0  0  0  0  0  0
    8.3614  -17.9829   24.8314 O   0  0  0  0  0  0  0  0  0  0  0  0
  2  1  1  1
  2  6  1  0
  3  2  1  0
  4  8  1  0
  4  3  1  0
  5  4  2  0
  6  7  2  0
  9  6  1  0
  9 13  1  0
 10  9  1  0
 11 10  1  0
 11 12  1  0
 12 13  1  0
 13 14  1  1
 14 15  2  0
 16 14  1  0
 17 16  1  0
 17 28  1  0
 17 18  1  1
 19 18  1  0
 20 19  2  0
 21 22  1  0
 21 20  1  0
 22 27  2  0
 23 24  2  0
 23 22  1  0
 24 25  1  0
 25 26  2  0
 27 26  1  0
 27 19  1  0
 28 29  2  0
 28 30  1  0
M  END
$$$$
