DPW.pdb
     RDKit          3D

 30 32  0  0  1  0  0  0  0  0999 V2000
    6.7473  -19.3734   20.0881 N   0  0  0  0  0  0  0  0  0  0  0  0
    6.5264  -18.0097   20.4649 C   0  0  1  0  0  0  0  0  0  0  0  0
    5.7162  -17.9841   21.7370 C   0  0  0  0  0  0  0  0  0  0  0  0
    6.3826  -18.8185   22.7492 C   0  0  0  0  0  0  0  0  0  0  0  0
    7.4025  -19.4797   22.4643 O   0  0  0  0  0  0  0  0  0  0  0  0
    7.7858  -17.2394   20.6126 C   0  0  0  0  0  0  0  0  0  0  0  0
    8.8420  -17.9038   20.3376 O   0  0  0  0  0  0  0  0  0  0  0  0
    5.8794  -18.8745   24.0288 O   0  0  0  0  0  0  0  0  0  0  0  0
    7.8754  -15.8901   21.0175 N   0  0  0  0  0  0  0  0  0  0  0  0
    6.8385  -14.9496   21.3529 C   0  0  0  0  0  0  0  0  0  0  0  0
    7.4492  -13.5533   21.2083 C   0  0  0  0  0  0  0  0  0  0  0  0
    8.7673  -13.8608   20.4816 C   0  0  0  0  0  0  0  0  0  0  0  0
    9.1134  -15.1609   21.1783 C   0  0  1  0  0  0  0  0  0  0  0  0
    9.3806  -14.8636   22.6210 C   0  0  0  0  0  0  0  0  0  0  0  0
    9.5795  -13.6812   23.0337 O   0  0  0  0  0  0  0  0  0  0  0  0
    9.4125  -15.9325   23.5560 N   0  0  0  0  0  0  0  0  0  0  0  0
   10.4070  -15.9784   24.6330 C   0  0  1  0  0  0  0  0  0  0  0  0
    9.9896  -14.8554   25.5926 C   0  0  0  0  0  0  0  0  0  0  0  0
    8.5254  -14.7320   25.6771 C   0  0  0  0  0  0  0  0  0  0  0  0
    7.5758  -15.6928   25.3995 C   0  0  0  0  0  0  0  0  0  0  0  0
    6.3587  -15.1589   25.6063 N   0  0  0  0  0  0  0  0  0  0  0  0
    6.4830  -13.8786   26.0106 C   0  0  0  0  0  0  0  0  0  0  0  0
    5.6022  -12.8975   26.3497 C   0  0  0  0  0  0  0  0  0  0  0  0
    6.0345  -11.6498   26.7342 C   0  0  0  0  0  0  0  0  0  0  0  0
    7.3792  -11.3396   26.7926 C   0  0  0  0  0  0  0  0  0  0  0  0
    8.2678  -12.3426   26.4463 C   0  0  0  0  0  0  0  0  0  0  0  0
    7.8495  -13.6033   26.0572 C   0  0  0  0  0  0  0  0  0  0  0  0
   10.2809  -17.2594   25.3727 C   0  0  0  0  0  0  0  0  0  0  0  0
   10.9919  -17.5685   26.3443 O   0  0  0  0  0  0  0  0  0  0  0  0
    9.3201  -18.1685   24.9653 O   0  0  0  0  0  0  0  0  0  0  0  0
  2  1  1  1
  2  6  1  0
  3  2  1  0
  4  8  1  0
  4  3  1  0
  5  4  2  0
  6  7  2  0
  9  6  1  0
  9 13  1  0
 10  9  1  0
 11 10  1  0
 11 12  1  0
 12 13  1  0
 13 14  1  1
 14 15  2  0
 16 14  1  0
 17 16  1  0
 17 28  1  0
 17 18  1  1
 19 18  1  0
 20 19  2  0
 21 22  1  0
 21 20  1  0
 22 27  2  0
 23 24  2  0
 23 22  1  0
 24 25  1  0
 25 26  2  0
 27 26  1  0
 27 19  1  0
 28 29  2  0
 28 30  1  0
M  END
$$$$
