DPW.pdb
     RDKit          3D

 30 32  0  0  1  0  0  0  0  0999 V2000
    9.2095  -18.7846   19.0803 N   0  0  0  0  0  0  0  0  0  0  0  0
    8.4450  -18.2163   20.1495 C   0  0  1  0  0  0  0  0  0  0  0  0
    8.1591  -19.2935   21.1659 C   0  0  0  0  0  0  0  0  0  0  0  0
    7.1390  -20.2062   20.6262 C   0  0  0  0  0  0  0  0  0  0  0  0
    7.3180  -20.7982   19.5417 O   0  0  0  0  0  0  0  0  0  0  0  0
    9.1082  -17.0464   20.7763 C   0  0  0  0  0  0  0  0  0  0  0  0
   10.3814  -17.0455   20.6682 O   0  0  0  0  0  0  0  0  0  0  0  0
    5.9700  -20.4141   21.3219 O   0  0  0  0  0  0  0  0  0  0  0  0
    8.4472  -15.9951   21.4472 N   0  0  0  0  0  0  0  0  0  0  0  0
    7.0472  -15.8025   21.7214 C   0  0  0  0  0  0  0  0  0  0  0  0
    6.8548  -14.3082   21.9926 C   0  0  0  0  0  0  0  0  0  0  0  0
    8.2009  -13.7295   21.5309 C   0  0  0  0  0  0  0  0  0  0  0  0
    9.1062  -14.8421   22.0187 C   0  0  1  0  0  0  0  0  0  0  0  0
    9.0474  -14.8736   23.5142 C   0  0  0  0  0  0  0  0  0  0  0  0
    8.7972  -13.8334   24.1950 O   0  0  0  0  0  0  0  0  0  0  0  0
    9.2773  -16.1003   24.1925 N   0  0  0  0  0  0  0  0  0  0  0  0
   10.3055  -16.2197   25.2316 C   0  0  1  0  0  0  0  0  0  0  0  0
    9.6920  -15.5382   26.4626 C   0  0  0  0  0  0  0  0  0  0  0  0
    8.2918  -15.1514   26.2256 C   0  0  0  0  0  0  0  0  0  0  0  0
    7.2428  -15.9586   25.8382 C   0  0  0  0  0  0  0  0  0  0  0  0
    6.1375  -15.1989   25.7369 N   0  0  0  0  0  0  0  0  0  0  0  0
    6.4313  -13.9197   26.0459 C   0  0  0  0  0  0  0  0  0  0  0  0
    5.7119  -12.7654   26.1055 C   0  0  0  0  0  0  0  0  0  0  0  0
    6.2994  -11.5743   26.4631 C   0  0  0  0  0  0  0  0  0  0  0  0
    7.6424  -11.4989   26.7766 C   0  0  0  0  0  0  0  0  0  0  0  0
    8.3663  -12.6768   26.7135 C   0  0  0  0  0  0  0  0  0  0  0  0
    7.7907  -13.8836   26.3555 C   0  0  0  0  0  0  0  0  0  0  0  0
   10.5038  -17.6507   25.5736 C   0  0  0  0  0  0  0  0  0  0  0  0
   11.2803  -18.0478   26.4592 O   0  0  0  0  0  0  0  0  0  0  0  0
    9.7881  -18.6054   24.8720 O   0  0  0  0  0  0  0  0  0  0  0  0
  2  1  1  6
  2  6  1  0
  3  2  1  0
  4  8  1  0
  4  3  1  0
  5  4  2  0
  6  7  2  0
  9  6  1  0
  9 13  1  0
 10  9  1  0
 11 10  1  0
 11 12  1  0
 12 13  1  0
 13 14  1  1
 14 15  2  0
 16 14  1  0
 17 16  1  0
 17 28  1  0
 17 18  1  1
 19 18  1  0
 20 19  2  0
 21 22  1  0
 21 20  1  0
 22 27  2  0
 23 24  2  0
 23 22  1  0
 24 25  1  0
 25 26  2  0
 27 26  1  0
 27 19  1  0
 28 29  2  0
 28 30  1  0
M  END
$$$$
