DPW.pdb
     RDKit          3D

 30 32  0  0  1  0  0  0  0  0999 V2000
    6.9334  -19.6961   20.1379 N   0  0  0  0  0  0  0  0  0  0  0  0
    6.8277  -18.6475   21.1074 C   0  0  1  0  0  0  0  0  0  0  0  0
    6.7987  -19.2626   22.4844 C   0  0  0  0  0  0  0  0  0  0  0  0
    5.5933  -20.0962   22.6142 C   0  0  0  0  0  0  0  0  0  0  0  0
    5.6370  -21.3246   22.3962 O   0  0  0  0  0  0  0  0  0  0  0  0
    7.9105  -17.6401   20.9899 C   0  0  0  0  0  0  0  0  0  0  0  0
    8.9093  -18.0232   20.2911 O   0  0  0  0  0  0  0  0  0  0  0  0
    4.3988  -19.5194   22.9808 O   0  0  0  0  0  0  0  0  0  0  0  0
    7.8981  -16.3555   21.5748 N   0  0  0  0  0  0  0  0  0  0  0  0
    6.9021  -15.7174   22.3951 C   0  0  0  0  0  0  0  0  0  0  0  0
    7.1603  -14.2110   22.3067 C   0  0  0  0  0  0  0  0  0  0  0  0
    8.1597  -14.1316   21.1427 C   0  0  0  0  0  0  0  0  0  0  0  0
    8.9596  -15.3826   21.4438 C   0  0  1  0  0  0  0  0  0  0  0  0
    9.6714  -15.1828   22.7454 C   0  0  0  0  0  0  0  0  0  0  0  0
   10.4719  -14.2163   22.9276 O   0  0  0  0  0  0  0  0  0  0  0  0
    9.4464  -16.0985   23.8077 N   0  0  0  0  0  0  0  0  0  0  0  0
   10.3182  -16.1330   24.9866 C   0  0  1  0  0  0  0  0  0  0  0  0
    9.9215  -14.8914   25.7973 C   0  0  0  0  0  0  0  0  0  0  0  0
    8.4607  -14.7835   25.9418 C   0  0  0  0  0  0  0  0  0  0  0  0
    7.5222  -15.7895   25.8460 C   0  0  0  0  0  0  0  0  0  0  0  0
    6.3043  -15.2541   26.0436 N   0  0  0  0  0  0  0  0  0  0  0  0
    6.4172  -13.9290   26.2657 C   0  0  0  0  0  0  0  0  0  0  0  0
    5.5306  -12.9267   26.5165 C   0  0  0  0  0  0  0  0  0  0  0  0
    5.9509  -11.6311   26.7071 C   0  0  0  0  0  0  0  0  0  0  0  0
    7.2888  -11.2923   26.6522 C   0  0  0  0  0  0  0  0  0  0  0  0
    8.1834  -12.3170   26.3968 C   0  0  0  0  0  0  0  0  0  0  0  0
    7.7771  -13.6259   26.2026 C   0  0  0  0  0  0  0  0  0  0  0  0
    9.9908  -17.3218   25.8134 C   0  0  0  0  0  0  0  0  0  0  0  0
    9.0013  -18.0480   25.6172 O   0  0  0  0  0  0  0  0  0  0  0  0
   10.8286  -17.6490   26.8654 O   0  0  0  0  0  0  0  0  0  0  0  0
  2  1  1  6
  2  6  1  0
  3  2  1  0
  4  8  1  0
  4  3  1  0
  5  4  2  0
  6  7  2  0
  9  6  1  0
  9 13  1  0
 10  9  1  0
 11 10  1  0
 11 12  1  0
 12 13  1  0
 13 14  1  1
 14 15  2  0
 16 14  1  0
 17 16  1  0
 17 28  1  0
 17 18  1  1
 19 18  1  0
 20 19  2  0
 21 22  1  0
 21 20  1  0
 22 27  2  0
 23 24  2  0
 23 22  1  0
 24 25  1  0
 25 26  2  0
 27 26  1  0
 27 19  1  0
 28 29  2  0
 28 30  1  0
M  END
$$$$
