DPW.pdb
     RDKit          3D

 30 32  0  0  1  0  0  0  0  0999 V2000
    8.4853  -18.3514   17.8190 N   0  0  0  0  0  0  0  0  0  0  0  0
    7.7883  -17.6097   18.8261 C   0  0  1  0  0  0  0  0  0  0  0  0
    7.2176  -18.5777   19.8324 C   0  0  0  0  0  0  0  0  0  0  0  0
    6.2838  -19.4871   19.1498 C   0  0  0  0  0  0  0  0  0  0  0  0
    6.0831  -19.3955   17.9210 O   0  0  0  0  0  0  0  0  0  0  0  0
    8.6388  -16.5875   19.4842 C   0  0  0  0  0  0  0  0  0  0  0  0
    9.8786  -16.6657   19.1849 O   0  0  0  0  0  0  0  0  0  0  0  0
    5.6201  -20.4535   19.8703 O   0  0  0  0  0  0  0  0  0  0  0  0
    8.1794  -15.5910   20.3721 N   0  0  0  0  0  0  0  0  0  0  0  0
    6.8782  -15.3941   20.9554 C   0  0  0  0  0  0  0  0  0  0  0  0
    6.8111  -13.9289   21.3937 C   0  0  0  0  0  0  0  0  0  0  0  0
    8.0531  -13.3390   20.7084 C   0  0  0  0  0  0  0  0  0  0  0  0
    8.9926  -14.5136   20.8900 C   0  0  1  0  0  0  0  0  0  0  0  0
    9.2490  -14.6877   22.3546 C   0  0  0  0  0  0  0  0  0  0  0  0
    9.3113  -13.6973   23.1442 O   0  0  0  0  0  0  0  0  0  0  0  0
    9.4275  -15.9961   22.8777 N   0  0  0  0  0  0  0  0  0  0  0  0
    9.4939  -16.2409   24.3222 C   0  0  1  0  0  0  0  0  0  0  0  0
    8.1645  -15.7008   24.8674 C   0  0  0  0  0  0  0  0  0  0  0  0
    8.3778  -14.7574   25.9768 C   0  0  0  0  0  0  0  0  0  0  0  0
    9.2854  -14.8549   27.0106 C   0  0  0  0  0  0  0  0  0  0  0  0
    9.1434  -13.7775   27.8032 N   0  0  0  0  0  0  0  0  0  0  0  0
    8.1709  -12.9784   27.3197 C   0  0  0  0  0  0  0  0  0  0  0  0
    7.6283  -11.7937   27.7141 C   0  0  0  0  0  0  0  0  0  0  0  0
    6.6159  -11.1975   26.9991 C   0  0  0  0  0  0  0  0  0  0  0  0
    6.1074  -11.7747   25.8520 C   0  0  0  0  0  0  0  0  0  0  0  0
    6.6645  -12.9789   25.4581 C   0  0  0  0  0  0  0  0  0  0  0  0
    7.6836  -13.5922   26.1660 C   0  0  0  0  0  0  0  0  0  0  0  0
    9.5137  -17.7030   24.5791 C   0  0  0  0  0  0  0  0  0  0  0  0
    9.0535  -18.5484   23.7927 O   0  0  0  0  0  0  0  0  0  0  0  0
   10.0743  -18.1614   25.7586 O   0  0  0  0  0  0  0  0  0  0  0  0
  2  1  1  6
  2  6  1  0
  3  2  1  0
  4  8  1  0
  4  3  1  0
  5  4  2  0
  6  7  2  0
  9  6  1  0
  9 13  1  0
 10  9  1  0
 11 10  1  0
 11 12  1  0
 12 13  1  0
 13 14  1  1
 14 15  2  0
 16 14  1  0
 17 16  1  0
 17 28  1  0
 17 18  1  1
 19 18  1  0
 20 19  2  0
 21 22  1  0
 21 20  1  0
 22 27  2  0
 23 24  2  0
 23 22  1  0
 24 25  1  0
 25 26  2  0
 27 26  1  0
 27 19  1  0
 28 29  2  0
 28 30  1  0
M  END
$$$$
