DPW.pdb
     RDKit          3D

 30 32  0  0  1  0  0  0  0  0999 V2000
   11.0447  -17.3222   17.7481 N   0  0  0  0  0  0  0  0  0  0  0  0
    9.8998  -17.4507   18.5986 C   0  0  1  0  0  0  0  0  0  0  0  0
    9.7357  -18.9026   18.9733 C   0  0  0  0  0  0  0  0  0  0  0  0
    9.5227  -19.6941   17.7514 C   0  0  0  0  0  0  0  0  0  0  0  0
    8.4194  -19.6868   17.1673 O   0  0  0  0  0  0  0  0  0  0  0  0
    9.9750  -16.5884   19.8036 C   0  0  0  0  0  0  0  0  0  0  0  0
   11.1602  -16.2290   20.1179 O   0  0  0  0  0  0  0  0  0  0  0  0
   10.5498  -20.4546   17.2411 O   0  0  0  0  0  0  0  0  0  0  0  0
    8.8718  -16.1680   20.5774 N   0  0  0  0  0  0  0  0  0  0  0  0
    7.4678  -16.4450   20.4217 C   0  0  0  0  0  0  0  0  0  0  0  0
    6.7175  -15.3530   21.1885 C   0  0  0  0  0  0  0  0  0  0  0  0
    7.8396  -14.3438   21.4760 C   0  0  0  0  0  0  0  0  0  0  0  0
    8.9629  -15.3236   21.7475 C   0  0  1  0  0  0  0  0  0  0  0  0
    8.6292  -16.0875   22.9909 C   0  0  0  0  0  0  0  0  0  0  0  0
    8.1936  -17.2777   22.9471 O   0  0  0  0  0  0  0  0  0  0  0  0
    8.8044  -15.4658   24.2560 N   0  0  0  0  0  0  0  0  0  0  0  0
    9.7219  -16.0160   25.2592 C   0  0  1  0  0  0  0  0  0  0  0  0
    9.4210  -15.2197   26.5364 C   0  0  0  0  0  0  0  0  0  0  0  0
    8.0105  -14.8032   26.5948 C   0  0  0  0  0  0  0  0  0  0  0  0
    6.8870  -15.5988   26.5123 C   0  0  0  0  0  0  0  0  0  0  0  0
    5.8010  -14.8112   26.6096 N   0  0  0  0  0  0  0  0  0  0  0  0
    6.1796  -13.5250   26.7532 C   0  0  0  0  0  0  0  0  0  0  0  0
    5.5129  -12.3462   26.8919 C   0  0  0  0  0  0  0  0  0  0  0  0
    6.1868  -11.1544   27.0226 C   0  0  0  0  0  0  0  0  0  0  0  0
    7.5671  -11.1032   27.0187 C   0  0  0  0  0  0  0  0  0  0  0  0
    8.2371  -12.3059   26.8772 C   0  0  0  0  0  0  0  0  0  0  0  0
    7.5742  -13.5138   26.7446 C   0  0  0  0  0  0  0  0  0  0  0  0
    9.3712  -17.4328   25.5306 C   0  0  0  0  0  0  0  0  0  0  0  0
    8.3305  -17.9768   25.1232 O   0  0  0  0  0  0  0  0  0  0  0  0
   10.2460  -18.2007   26.2795 O   0  0  0  0  0  0  0  0  0  0  0  0
  2  1  1  1
  2  6  1  0
  3  2  1  0
  4  8  1  0
  4  3  1  0
  5  4  2  0
  6  7  2  0
  9  6  1  0
  9 13  1  0
 10  9  1  0
 11 10  1  0
 11 12  1  0
 12 13  1  0
 13 14  1  1
 14 15  2  0
 16 14  1  0
 17 16  1  0
 17 28  1  0
 17 18  1  1
 19 18  1  0
 20 19  2  0
 21 22  1  0
 21 20  1  0
 22 27  2  0
 23 24  2  0
 23 22  1  0
 24 25  1  0
 25 26  2  0
 27 26  1  0
 27 19  1  0
 28 29  2  0
 28 30  1  0
M  END
$$$$
