DPW.pdb
     RDKit          3D

 30 32  0  0  1  0  0  0  0  0999 V2000
    6.7441  -18.6858   18.9027 N   0  0  0  0  0  0  0  0  0  0  0  0
    6.6465  -17.6789   19.9162 C   0  0  1  0  0  0  0  0  0  0  0  0
    6.2463  -18.3356   21.2139 C   0  0  0  0  0  0  0  0  0  0  0  0
    6.2551  -19.7963   21.0373 C   0  0  0  0  0  0  0  0  0  0  0  0
    6.3494  -20.3038   19.9006 O   0  0  0  0  0  0  0  0  0  0  0  0
    7.8952  -16.8931   20.0727 C   0  0  0  0  0  0  0  0  0  0  0  0
    8.9086  -17.3953   19.4782 O   0  0  0  0  0  0  0  0  0  0  0  0
    6.1585  -20.6189   22.1363 O   0  0  0  0  0  0  0  0  0  0  0  0
    8.0175  -15.6901   20.8011 N   0  0  0  0  0  0  0  0  0  0  0  0
    7.0693  -15.0169   21.6496 C   0  0  0  0  0  0  0  0  0  0  0  0
    7.5250  -13.5586   21.7459 C   0  0  0  0  0  0  0  0  0  0  0  0
    8.5884  -13.4882   20.6394 C   0  0  0  0  0  0  0  0  0  0  0  0
    9.2017  -14.8610   20.8254 C   0  0  1  0  0  0  0  0  0  0  0  0
    9.8613  -14.9024   22.1686 C   0  0  0  0  0  0  0  0  0  0  0  0
   10.7521  -14.0635   22.5016 O   0  0  0  0  0  0  0  0  0  0  0  0
    9.4815  -15.9071   23.0981 N   0  0  0  0  0  0  0  0  0  0  0  0
   10.1819  -16.0721   24.3762 C   0  0  1  0  0  0  0  0  0  0  0  0
    9.8201  -14.8156   25.1802 C   0  0  0  0  0  0  0  0  0  0  0  0
    8.3779  -14.7534   25.4673 C   0  0  0  0  0  0  0  0  0  0  0  0
    7.4405  -15.7547   25.3238 C   0  0  0  0  0  0  0  0  0  0  0  0
    6.2423  -15.2714   25.6979 N   0  0  0  0  0  0  0  0  0  0  0  0
    6.3672  -13.9848   26.0817 C   0  0  0  0  0  0  0  0  0  0  0  0
    5.5011  -13.0398   26.5403 C   0  0  0  0  0  0  0  0  0  0  0  0
    5.9295  -11.7730   26.8618 C   0  0  0  0  0  0  0  0  0  0  0  0
    7.2549  -11.4063   26.7331 C   0  0  0  0  0  0  0  0  0  0  0  0
    8.1285  -12.3728   26.2662 C   0  0  0  0  0  0  0  0  0  0  0  0
    7.7140  -13.6521   25.9382 C   0  0  0  0  0  0  0  0  0  0  0  0
    9.6207  -17.2377   25.1045 C   0  0  0  0  0  0  0  0  0  0  0  0
   10.0316  -17.6226   26.2127 O   0  0  0  0  0  0  0  0  0  0  0  0
    8.5804  -17.9434   24.5252 O   0  0  0  0  0  0  0  0  0  0  0  0
  2  1  1  6
  2  6  1  0
  3  2  1  0
  4  8  1  0
  4  3  1  0
  5  4  2  0
  6  7  2  0
  9  6  1  0
  9 13  1  0
 10  9  1  0
 11 10  1  0
 11 12  1  0
 12 13  1  0
 13 14  1  1
 14 15  2  0
 16 14  1  0
 17 16  1  0
 17 28  1  0
 17 18  1  1
 19 18  1  0
 20 19  2  0
 21 22  1  0
 21 20  1  0
 22 27  2  0
 23 24  2  0
 23 22  1  0
 24 25  1  0
 25 26  2  0
 27 26  1  0
 27 19  1  0
 28 29  2  0
 28 30  1  0
M  END
$$$$
