DPW.pdb
     RDKit          3D

 30 32  0  0  1  0  0  0  0  0999 V2000
   11.0626  -17.5982   17.7969 N   0  0  0  0  0  0  0  0  0  0  0  0
    9.7980  -17.3486   18.4207 C   0  0  1  0  0  0  0  0  0  0  0  0
    9.1261  -18.6703   18.6983 C   0  0  0  0  0  0  0  0  0  0  0  0
    9.0195  -19.4295   17.4425 C   0  0  0  0  0  0  0  0  0  0  0  0
    8.6491  -18.8744   16.3875 O   0  0  0  0  0  0  0  0  0  0  0  0
    9.9129  -16.5329   19.6546 C   0  0  0  0  0  0  0  0  0  0  0  0
   11.1102  -16.3852   20.0758 O   0  0  0  0  0  0  0  0  0  0  0  0
    9.3312  -20.7698   17.4247 O   0  0  0  0  0  0  0  0  0  0  0  0
    8.8335  -15.9451   20.3488 N   0  0  0  0  0  0  0  0  0  0  0  0
    7.4240  -15.9563   20.0564 C   0  0  0  0  0  0  0  0  0  0  0  0
    6.8106  -14.7725   20.8087 C   0  0  0  0  0  0  0  0  0  0  0  0
    8.0618  -13.9949   21.2443 C   0  0  0  0  0  0  0  0  0  0  0  0
    8.9613  -15.1715   21.5635 C   0  0  1  0  0  0  0  0  0  0  0  0
    8.3796  -15.9036   22.7326 C   0  0  0  0  0  0  0  0  0  0  0  0
    7.7450  -16.9923   22.5905 O   0  0  0  0  0  0  0  0  0  0  0  0
    8.5411  -15.3674   24.0380 N   0  0  0  0  0  0  0  0  0  0  0  0
    9.5341  -15.9098   24.9711 C   0  0  1  0  0  0  0  0  0  0  0  0
    9.3237  -15.1126   26.2659 C   0  0  0  0  0  0  0  0  0  0  0  0
    7.9188  -14.7053   26.4284 C   0  0  0  0  0  0  0  0  0  0  0  0
    6.7893  -15.4872   26.3064 C   0  0  0  0  0  0  0  0  0  0  0  0
    5.7118  -14.7153   26.5346 N   0  0  0  0  0  0  0  0  0  0  0  0
    6.1016  -13.4525   26.8022 C   0  0  0  0  0  0  0  0  0  0  0  0
    5.4465  -12.2961   27.0968 C   0  0  0  0  0  0  0  0  0  0  0  0
    6.1305  -11.1257   27.3288 C   0  0  0  0  0  0  0  0  0  0  0  0
    7.5096  -11.0740   27.2729 C   0  0  0  0  0  0  0  0  0  0  0  0
    8.1679  -12.2539   26.9727 C   0  0  0  0  0  0  0  0  0  0  0  0
    7.4948  -13.4401   26.7365 C   0  0  0  0  0  0  0  0  0  0  0  0
    9.2136  -17.3282   25.2703 C   0  0  0  0  0  0  0  0  0  0  0  0
    8.1477  -17.8786   24.9450 O   0  0  0  0  0  0  0  0  0  0  0  0
   10.1481  -18.0900   25.9499 O   0  0  0  0  0  0  0  0  0  0  0  0
  2  1  1  1
  2  6  1  0
  3  2  1  0
  4  8  1  0
  4  3  1  0
  5  4  2  0
  6  7  2  0
  9  6  1  0
  9 13  1  0
 10  9  1  0
 11 10  1  0
 11 12  1  0
 12 13  1  0
 13 14  1  1
 14 15  2  0
 16 14  1  0
 17 16  1  0
 17 28  1  0
 17 18  1  1
 19 18  1  0
 20 19  2  0
 21 22  1  0
 21 20  1  0
 22 27  2  0
 23 24  2  0
 23 22  1  0
 24 25  1  0
 25 26  2  0
 27 26  1  0
 27 19  1  0
 28 29  2  0
 28 30  1  0
M  END
$$$$
