DPW.pdb
     RDKit          3D

 30 32  0  0  1  0  0  0  0  0999 V2000
    6.7152  -19.4398   19.8969 N   0  0  0  0  0  0  0  0  0  0  0  0
    6.6127  -18.3392   20.8072 C   0  0  1  0  0  0  0  0  0  0  0  0
    6.3450  -18.8784   22.1903 C   0  0  0  0  0  0  0  0  0  0  0  0
    5.5379  -20.1039   22.0816 C   0  0  0  0  0  0  0  0  0  0  0  0
    4.4901  -20.1230   21.4032 O   0  0  0  0  0  0  0  0  0  0  0  0
    7.8102  -17.4634   20.7928 C   0  0  0  0  0  0  0  0  0  0  0  0
    8.8364  -17.9877   20.2408 O   0  0  0  0  0  0  0  0  0  0  0  0
    5.9387  -21.2472   22.7342 O   0  0  0  0  0  0  0  0  0  0  0  0
    7.8738  -16.1577   21.3253 N   0  0  0  0  0  0  0  0  0  0  0  0
    6.8964  -15.4099   22.0721 C   0  0  0  0  0  0  0  0  0  0  0  0
    7.2766  -13.9332   21.9366 C   0  0  0  0  0  0  0  0  0  0  0  0
    8.3293  -13.9814   20.8188 C   0  0  0  0  0  0  0  0  0  0  0  0
    9.0137  -15.2763   21.2062 C   0  0  1  0  0  0  0  0  0  0  0  0
    9.6813  -15.0764   22.5311 C   0  0  0  0  0  0  0  0  0  0  0  0
   10.5798  -14.1976   22.7005 O   0  0  0  0  0  0  0  0  0  0  0  0
    9.3005  -15.8909   23.6306 N   0  0  0  0  0  0  0  0  0  0  0  0
   10.2201  -16.1560   24.7420 C   0  0  1  0  0  0  0  0  0  0  0  0
    9.9624  -15.0162   25.7373 C   0  0  0  0  0  0  0  0  0  0  0  0
    8.5274  -14.7083   25.8478 C   0  0  0  0  0  0  0  0  0  0  0  0
    7.4617  -15.5742   25.7193 C   0  0  0  0  0  0  0  0  0  0  0  0
    6.3248  -14.8768   25.8931 N   0  0  0  0  0  0  0  0  0  0  0  0
    6.6140  -13.5816   26.1313 C   0  0  0  0  0  0  0  0  0  0  0  0
    5.8683  -12.4681   26.3709 C   0  0  0  0  0  0  0  0  0  0  0  0
    6.4585  -11.2444   26.5848 C   0  0  0  0  0  0  0  0  0  0  0  0
    7.8313  -11.0935   26.5655 C   0  0  0  0  0  0  0  0  0  0  0  0
    8.5820  -12.2303   26.3211 C   0  0  0  0  0  0  0  0  0  0  0  0
    8.0039  -13.4691   26.1039 C   0  0  0  0  0  0  0  0  0  0  0  0
    9.8364  -17.4228   25.4143 C   0  0  0  0  0  0  0  0  0  0  0  0
    8.7794  -18.0346   25.1830 O   0  0  0  0  0  0  0  0  0  0  0  0
   10.6976  -17.9619   26.3542 O   0  0  0  0  0  0  0  0  0  0  0  0
  2  1  1  6
  2  6  1  0
  3  2  1  0
  4  8  1  0
  4  3  1  0
  5  4  2  0
  6  7  2  0
  9  6  1  0
  9 13  1  0
 10  9  1  0
 11 10  1  0
 11 12  1  0
 12 13  1  0
 13 14  1  1
 14 15  2  0
 16 14  1  0
 17 16  1  0
 17 28  1  0
 17 18  1  1
 19 18  1  0
 20 19  2  0
 21 22  1  0
 21 20  1  0
 22 27  2  0
 23 24  2  0
 23 22  1  0
 24 25  1  0
 25 26  2  0
 27 26  1  0
 27 19  1  0
 28 29  2  0
 28 30  1  0
M  END
$$$$
