YWF.pdb
     RDKit          3D

 38 41  0  0  1  0  0  0  0  0999 V2000
   22.6021  -13.3197  -19.7206 O   0  0  0  0  0  0  0  0  0  0  0  0
   22.8800  -14.4291  -18.8981 C   0  0  0  0  0  0  0  0  0  0  0  0
   22.0220  -15.5082  -18.9185 C   0  0  0  0  0  0  0  0  0  0  0  0
   22.2998  -16.6057  -18.1024 C   0  0  0  0  0  0  0  0  0  0  0  0
   23.4152  -16.6005  -17.2939 C   0  0  0  0  0  0  0  0  0  0  0  0
   23.6749  -17.7834  -16.4462 C   0  0  0  0  0  0  0  0  0  0  0  0
   25.0567  -18.3340  -16.7377 C   0  0  2  0  0  0  0  0  0  0  0  0
   25.1231  -18.9835  -18.0070 N   0  0  0  0  0  0  0  0  0  0  0  0
   25.4633  -19.1876  -15.5959 C   0  0  0  0  0  0  0  0  0  0  0  0
   25.0788  -20.3991  -15.5327 O   0  0  0  0  0  0  0  0  0  0  0  0
   24.2837  -15.5398  -17.2558 C   0  0  0  0  0  0  0  0  0  0  0  0
   23.9722  -14.4602  -18.0863 C   0  0  0  0  0  0  0  0  0  0  0  0
   26.2793  -18.7503  -14.5223 N   0  0  0  0  0  0  0  0  0  0  0  0
   26.6138  -19.6271  -13.3814 C   0  0  1  0  0  0  0  0  0  0  0  0
   27.8349  -19.0867  -12.6975 C   0  0  0  0  0  0  0  0  0  0  0  0
   28.2338  -19.9298  -11.5662 C   0  0  0  0  0  0  0  0  0  0  0  0
   29.0068  -21.0977  -11.6027 C   0  0  0  0  0  0  0  0  0  0  0  0
   29.1263  -21.5990  -10.3689 N   0  0  0  0  0  0  0  0  0  0  0  0
   28.4730  -20.8282   -9.5030 C   0  0  0  0  0  0  0  0  0  0  0  0
   28.3082  -20.9346   -8.1213 C   0  0  0  0  0  0  0  0  0  0  0  0
   27.5626  -19.9607   -7.4964 C   0  0  0  0  0  0  0  0  0  0  0  0
   26.9839  -18.9023   -8.1808 C   0  0  0  0  0  0  0  0  0  0  0  0
   27.1775  -18.8415   -9.5558 C   0  0  0  0  0  0  0  0  0  0  0  0
   27.9125  -19.7905  -10.2141 C   0  0  0  0  0  0  0  0  0  0  0  0
   25.4039  -19.6791  -12.5507 C   0  0  0  0  0  0  0  0  0  0  0  0
   24.7678  -18.5925  -12.3295 O   0  0  0  0  0  0  0  0  0  0  0  0
   24.9031  -20.8737  -11.9889 N   0  0  0  0  0  0  0  0  0  0  0  0
   23.7726  -20.7547  -11.0642 C   0  0  1  0  0  0  0  0  0  0  0  0
   22.6881  -21.7441  -11.4892 C   0  0  0  0  0  0  0  0  0  0  0  0
   21.5363  -21.5863  -10.5818 C   0  0  0  0  0  0  0  0  0  0  0  0
   21.4477  -22.3749   -9.4319 C   0  0  0  0  0  0  0  0  0  0  0  0
   20.3934  -22.2112   -8.5760 C   0  0  0  0  0  0  0  0  0  0  0  0
   19.3828  -21.2942   -8.7769 C   0  0  0  0  0  0  0  0  0  0  0  0
   19.4678  -20.5182   -9.9059 C   0  0  0  0  0  0  0  0  0  0  0  0
   20.5206  -20.6687  -10.7776 C   0  0  0  0  0  0  0  0  0  0  0  0
   24.2380  -21.0713   -9.7184 C   0  0  0  0  0  0  0  0  0  0  0  0
   23.6999  -20.4603   -8.6074 O   0  0  0  0  0  0  0  0  0  0  0  0
   25.1470  -21.9130   -9.5407 O   0  0  0  0  0  0  0  0  0  0  0  0
  2  1  1  0
  3  2  2  0
  4  3  1  0
  5  4  2  0
  5 11  1  0
  6  5  1  0
  7  8  1  6
  7  6  1  0
  9  7  1  0
 10  9  2  0
 11 12  2  0
 12  2  1  0
 13  9  1  0
 14 13  1  0
 14 25  1  0
 14 15  1  1
 16 15  1  0
 17 16  2  0
 18 17  1  0
 19 18  1  0
 19 24  2  0
 20 21  2  0
 20 19  1  0
 21 22  1  0
 22 23  2  0
 24 23  1  0
 24 16  1  0
 25 26  2  0
 27 25  1  0
 27 28  1  0
 28 29  1  6
 29 30  1  0
 30 35  2  0
 31 32  2  0
 31 30  1  0
 32 33  1  0
 33 34  2  0
 35 34  1  0
 36 37  1  0
 36 28  1  0
 38 36  2  0
M  END
$$$$
