YWF.pdb
     RDKit          3D

 38 41  0  0  1  0  0  0  0  0999 V2000
   19.2437  -13.3995  -17.0257 O   0  0  0  0  0  0  0  0  0  0  0  0
   19.9937  -14.5721  -16.8090 C   0  0  0  0  0  0  0  0  0  0  0  0
   20.9235  -14.5927  -15.7911 C   0  0  0  0  0  0  0  0  0  0  0  0
   21.6652  -15.7557  -15.5791 C   0  0  0  0  0  0  0  0  0  0  0  0
   21.4637  -16.8588  -16.3792 C   0  0  0  0  0  0  0  0  0  0  0  0
   22.2682  -18.0718  -16.1204 C   0  0  0  0  0  0  0  0  0  0  0  0
   23.6735  -17.8831  -16.6561 C   0  0  2  0  0  0  0  0  0  0  0  0
   23.7016  -17.7938  -18.0804 N   0  0  0  0  0  0  0  0  0  0  0  0
   24.5282  -18.9579  -16.0973 C   0  0  0  0  0  0  0  0  0  0  0  0
   24.5067  -20.1238  -16.6069 O   0  0  0  0  0  0  0  0  0  0  0  0
   20.5452  -16.8635  -17.3976 C   0  0  0  0  0  0  0  0  0  0  0  0
   19.8225  -15.6816  -17.5789 C   0  0  0  0  0  0  0  0  0  0  0  0
   25.4051  -18.7899  -14.9961 N   0  0  0  0  0  0  0  0  0  0  0  0
   26.2867  -19.8758  -14.5206 C   0  0  1  0  0  0  0  0  0  0  0  0
   27.6127  -19.2890  -14.1357 C   0  0  0  0  0  0  0  0  0  0  0  0
   28.5198  -20.3130  -13.6080 C   0  0  0  0  0  0  0  0  0  0  0  0
   28.9387  -21.4905  -14.2410 C   0  0  0  0  0  0  0  0  0  0  0  0
   29.7401  -22.1820  -13.4240 N   0  0  0  0  0  0  0  0  0  0  0  0
   29.8823  -21.5302  -12.2727 C   0  0  0  0  0  0  0  0  0  0  0  0
   30.6096  -21.8438  -11.1236 C   0  0  0  0  0  0  0  0  0  0  0  0
   30.5560  -20.9503  -10.0778 C   0  0  0  0  0  0  0  0  0  0  0  0
   29.8195  -19.7763  -10.1292 C   0  0  0  0  0  0  0  0  0  0  0  0
   29.1126  -19.5099  -11.2959 C   0  0  0  0  0  0  0  0  0  0  0  0
   29.1402  -20.3732  -12.3581 C   0  0  0  0  0  0  0  0  0  0  0  0
   25.5550  -20.5346  -13.4309 C   0  0  0  0  0  0  0  0  0  0  0  0
   26.1220  -21.4964  -12.8086 O   0  0  0  0  0  0  0  0  0  0  0  0
   24.2559  -20.1525  -13.0309 N   0  0  0  0  0  0  0  0  0  0  0  0
   23.4596  -21.1475  -12.3077 C   0  0  1  0  0  0  0  0  0  0  0  0
   23.1381  -20.5990  -10.9179 C   0  0  0  0  0  0  0  0  0  0  0  0
   24.3806  -20.5944  -10.1234 C   0  0  0  0  0  0  0  0  0  0  0  0
   24.9970  -21.8045   -9.7952 C   0  0  0  0  0  0  0  0  0  0  0  0
   26.1634  -21.8005   -9.0808 C   0  0  0  0  0  0  0  0  0  0  0  0
   26.7903  -20.6500   -8.6500 C   0  0  0  0  0  0  0  0  0  0  0  0
   26.1866  -19.4598   -8.9713 C   0  0  0  0  0  0  0  0  0  0  0  0
   25.0139  -19.4445   -9.6892 C   0  0  0  0  0  0  0  0  0  0  0  0
   22.2258  -21.3832  -13.0494 C   0  0  0  0  0  0  0  0  0  0  0  0
   21.9313  -20.6841  -14.1991 O   0  0  0  0  0  0  0  0  0  0  0  0
   21.3974  -22.2337  -12.6534 O   0  0  0  0  0  0  0  0  0  0  0  0
  2  1  1  0
  3  2  2  0
  4  3  1  0
  5  4  2  0
  5 11  1  0
  6  5  1  0
  7  8  1  6
  7  6  1  0
  9  7  1  0
 10  9  2  0
 11 12  2  0
 12  2  1  0
 13  9  1  0
 14 13  1  0
 14 25  1  0
 14 15  1  1
 16 15  1  0
 17 16  2  0
 18 17  1  0
 19 18  1  0
 19 24  2  0
 20 21  2  0
 20 19  1  0
 21 22  1  0
 22 23  2  0
 24 23  1  0
 24 16  1  0
 25 26  2  0
 27 25  1  0
 27 28  1  0
 28 29  1  1
 29 30  1  0
 30 35  2  0
 31 32  2  0
 31 30  1  0
 32 33  1  0
 33 34  2  0
 35 34  1  0
 36 37  1  0
 36 28  1  0
 38 36  2  0
M  END
$$$$
