YWF.pdb
     RDKit          3D

 38 41  0  0  1  0  0  0  0  0999 V2000
   26.4080  -31.8722  -16.4457 O   0  0  0  0  0  0  0  0  0  0  0  0
   26.7410  -30.5042  -16.4924 C   0  0  0  0  0  0  0  0  0  0  0  0
   27.7398  -30.0305  -15.6684 C   0  0  0  0  0  0  0  0  0  0  0  0
   28.0674  -28.6748  -15.7168 C   0  0  0  0  0  0  0  0  0  0  0  0
   27.3976  -27.8327  -16.5771 C   0  0  0  0  0  0  0  0  0  0  0  0
   27.7761  -26.4039  -16.5995 C   0  0  0  0  0  0  0  0  0  0  0  0
   28.7706  -26.1509  -17.7151 C   0  0  2  0  0  0  0  0  0  0  0  0
   30.0883  -26.5790  -17.3720 N   0  0  0  0  0  0  0  0  0  0  0  0
   28.6766  -24.7226  -18.1014 C   0  0  0  0  0  0  0  0  0  0  0  0
   29.6072  -23.9121  -17.7905 O   0  0  0  0  0  0  0  0  0  0  0  0
   26.4009  -28.2793  -17.4065 C   0  0  0  0  0  0  0  0  0  0  0  0
   26.1015  -29.6419  -17.3294 C   0  0  0  0  0  0  0  0  0  0  0  0
   27.5916  -24.1588  -18.8187 N   0  0  0  0  0  0  0  0  0  0  0  0
   27.6255  -22.7756  -19.3364 C   0  0  1  0  0  0  0  0  0  0  0  0
   26.9265  -22.7382  -20.6634 C   0  0  0  0  0  0  0  0  0  0  0  0
   26.7444  -21.3621  -21.1353 C   0  0  0  0  0  0  0  0  0  0  0  0
   27.7106  -20.5172  -21.6970 C   0  0  0  0  0  0  0  0  0  0  0  0
   27.1659  -19.3272  -21.9706 N   0  0  0  0  0  0  0  0  0  0  0  0
   25.8818  -19.3273  -21.6218 C   0  0  0  0  0  0  0  0  0  0  0  0
   24.9063  -18.3330  -21.7092 C   0  0  0  0  0  0  0  0  0  0  0  0
   23.6441  -18.6439  -21.2563 C   0  0  0  0  0  0  0  0  0  0  0  0
   23.3193  -19.8847  -20.7286 C   0  0  0  0  0  0  0  0  0  0  0  0
   24.3263  -20.8405  -20.6633 C   0  0  0  0  0  0  0  0  0  0  0  0
   25.5942  -20.5703  -21.1033 C   0  0  0  0  0  0  0  0  0  0  0  0
   27.0213  -21.9431  -18.2882 C   0  0  0  0  0  0  0  0  0  0  0  0
   26.0341  -22.4146  -17.6271 O   0  0  0  0  0  0  0  0  0  0  0  0
   27.4826  -20.6474  -17.9690 N   0  0  0  0  0  0  0  0  0  0  0  0
   26.7495  -19.9132  -16.9342 C   0  0  1  0  0  0  0  0  0  0  0  0
   27.7520  -19.3783  -15.9122 C   0  0  0  0  0  0  0  0  0  0  0  0
   28.8022  -18.6391  -16.6372 C   0  0  0  0  0  0  0  0  0  0  0  0
   29.9648  -19.3024  -17.0376 C   0  0  0  0  0  0  0  0  0  0  0  0
   30.9281  -18.6245  -17.7329 C   0  0  0  0  0  0  0  0  0  0  0  0
   30.8266  -17.2922  -18.0753 C   0  0  0  0  0  0  0  0  0  0  0  0
   29.6851  -16.6384  -17.6832 C   0  0  0  0  0  0  0  0  0  0  0  0
   28.7060  -17.3040  -16.9836 C   0  0  0  0  0  0  0  0  0  0  0  0
   26.0401  -18.8055  -17.5649 C   0  0  0  0  0  0  0  0  0  0  0  0
   25.0834  -18.0829  -16.8869 O   0  0  0  0  0  0  0  0  0  0  0  0
   26.2861  -18.4839  -18.7492 O   0  0  0  0  0  0  0  0  0  0  0  0
  2  1  1  0
  3  2  2  0
  4  3  1  0
  5  4  2  0
  5 11  1  0
  6  5  1  0
  7  8  1  1
  7  6  1  0
  9  7  1  0
 10  9  2  0
 11 12  2  0
 12  2  1  0
 13  9  1  0
 14 13  1  0
 14 25  1  0
 14 15  1  6
 16 15  1  0
 17 16  2  0
 18 17  1  0
 19 18  1  0
 19 24  2  0
 20 21  2  0
 20 19  1  0
 21 22  1  0
 22 23  2  0
 24 23  1  0
 24 16  1  0
 25 26  2  0
 27 25  1  0
 27 28  1  0
 28 29  1  1
 29 30  1  0
 30 35  2  0
 31 32  2  0
 31 30  1  0
 32 33  1  0
 33 34  2  0
 35 34  1  0
 36 37  1  0
 36 28  1  0
 38 36  2  0
M  END
$$$$
