YWF.pdb
     RDKit          3D

 38 41  0  0  1  0  0  0  0  0999 V2000
   31.4911  -30.2615  -19.2171 O   0  0  0  0  0  0  0  0  0  0  0  0
   30.3681  -29.5567  -18.7412 C   0  0  0  0  0  0  0  0  0  0  0  0
   29.7543  -29.9810  -17.5819 C   0  0  0  0  0  0  0  0  0  0  0  0
   28.6417  -29.2809  -17.1130 C   0  0  0  0  0  0  0  0  0  0  0  0
   28.1731  -28.1856  -17.8048 C   0  0  0  0  0  0  0  0  0  0  0  0
   26.9935  -27.4703  -17.2735 C   0  0  0  0  0  0  0  0  0  0  0  0
   27.3546  -26.0284  -16.9771 C   0  0  2  0  0  0  0  0  0  0  0  0
   28.3692  -25.9194  -15.9791 N   0  0  0  0  0  0  0  0  0  0  0  0
   26.1056  -25.2967  -16.6568 C   0  0  0  0  0  0  0  0  0  0  0  0
   25.5601  -25.4294  -15.5147 O   0  0  0  0  0  0  0  0  0  0  0  0
   28.7659  -27.7438  -18.9597 C   0  0  0  0  0  0  0  0  0  0  0  0
   29.8764  -28.4701  -19.3974 C   0  0  0  0  0  0  0  0  0  0  0  0
   25.4386  -24.4241  -17.5532 N   0  0  0  0  0  0  0  0  0  0  0  0
   24.2736  -23.6146  -17.1414 C   0  0  1  0  0  0  0  0  0  0  0  0
   24.3207  -22.2983  -17.8597 C   0  0  0  0  0  0  0  0  0  0  0  0
   23.1345  -21.4864  -17.5706 C   0  0  0  0  0  0  0  0  0  0  0  0
   22.8163  -20.8370  -16.3707 C   0  0  0  0  0  0  0  0  0  0  0  0
   21.6335  -20.2246  -16.4885 N   0  0  0  0  0  0  0  0  0  0  0  0
   21.1387  -20.4285  -17.7067 C   0  0  0  0  0  0  0  0  0  0  0  0
   19.9500  -19.9994  -18.2988 C   0  0  0  0  0  0  0  0  0  0  0  0
   19.7177  -20.3823  -19.6006 C   0  0  0  0  0  0  0  0  0  0  0  0
   20.6068  -21.1624  -20.3246 C   0  0  0  0  0  0  0  0  0  0  0  0
   21.7762  -21.5640  -19.6898 C   0  0  0  0  0  0  0  0  0  0  0  0
   22.0440  -21.2041  -18.3964 C   0  0  0  0  0  0  0  0  0  0  0  0
   23.0934  -24.4406  -17.4275 C   0  0  0  0  0  0  0  0  0  0  0  0
   23.1152  -25.2020  -18.4541 O   0  0  0  0  0  0  0  0  0  0  0  0
   21.9360  -24.4407  -16.6190 N   0  0  0  0  0  0  0  0  0  0  0  0
   20.8583  -25.3598  -16.9948 C   0  0  1  0  0  0  0  0  0  0  0  0
   20.5250  -26.2398  -15.7907 C   0  0  0  0  0  0  0  0  0  0  0  0
   19.8652  -25.4009  -14.7728 C   0  0  0  0  0  0  0  0  0  0  0  0
   18.4762  -25.4493  -14.6303 C   0  0  0  0  0  0  0  0  0  0  0  0
   17.8655  -24.6914  -13.6693 C   0  0  0  0  0  0  0  0  0  0  0  0
   18.5475  -23.8588  -12.8067 C   0  0  0  0  0  0  0  0  0  0  0  0
   19.9123  -23.8097  -12.9447 C   0  0  0  0  0  0  0  0  0  0  0  0
   20.5434  -24.5648  -13.9052 C   0  0  0  0  0  0  0  0  0  0  0  0
   19.6904  -24.5741  -17.3779 C   0  0  0  0  0  0  0  0  0  0  0  0
   19.6640  -23.2046  -17.2333 O   0  0  0  0  0  0  0  0  0  0  0  0
   18.6747  -25.1323  -17.8503 O   0  0  0  0  0  0  0  0  0  0  0  0
  2  1  1  0
  3  2  2  0
  4  3  1  0
  5  4  2  0
  5 11  1  0
  6  5  1  0
  7  8  1  1
  7  6  1  0
  9  7  1  0
 10  9  2  0
 11 12  2  0
 12  2  1  0
 13  9  1  0
 14 13  1  0
 14 25  1  0
 14 15  1  6
 16 15  1  0
 17 16  2  0
 18 17  1  0
 19 18  1  0
 19 24  2  0
 20 21  2  0
 20 19  1  0
 21 22  1  0
 22 23  2  0
 24 23  1  0
 24 16  1  0
 25 26  2  0
 27 25  1  0
 27 28  1  0
 28 29  1  1
 29 30  1  0
 30 35  2  0
 31 32  2  0
 31 30  1  0
 32 33  1  0
 33 34  2  0
 35 34  1  0
 36 37  1  0
 36 28  1  0
 38 36  2  0
M  END
$$$$
