YWF.pdb
     RDKit          3D

 38 41  0  0  1  0  0  0  0  0999 V2000
   19.7754  -19.8049  -25.8969 O   0  0  0  0  0  0  0  0  0  0  0  0
   19.8429  -20.5174  -24.6836 C   0  0  0  0  0  0  0  0  0  0  0  0
   19.3905  -19.9156  -23.5285 C   0  0  0  0  0  0  0  0  0  0  0  0
   19.4589  -20.6239  -22.3280 C   0  0  0  0  0  0  0  0  0  0  0  0
   19.9717  -21.9024  -22.3086 C   0  0  0  0  0  0  0  0  0  0  0  0
   20.0246  -22.6194  -21.0170 C   0  0  0  0  0  0  0  0  0  0  0  0
   21.2013  -22.1244  -20.1997 C   0  0  2  0  0  0  0  0  0  0  0  0
   22.4502  -22.3740  -20.8441 N   0  0  0  0  0  0  0  0  0  0  0  0
   21.0931  -22.7022  -18.8387 C   0  0  0  0  0  0  0  0  0  0  0  0
   21.9158  -23.5936  -18.4537 O   0  0  0  0  0  0  0  0  0  0  0  0
   20.4277  -22.5228  -23.4435 C   0  0  0  0  0  0  0  0  0  0  0  0
   20.3429  -21.7822  -24.6253 C   0  0  0  0  0  0  0  0  0  0  0  0
   20.1088  -22.3300  -17.8888 N   0  0  0  0  0  0  0  0  0  0  0  0
   20.1311  -22.8270  -16.4978 C   0  0  1  0  0  0  0  0  0  0  0  0
   21.1529  -22.0490  -15.7223 C   0  0  0  0  0  0  0  0  0  0  0  0
   20.8484  -20.6148  -15.7216 C   0  0  0  0  0  0  0  0  0  0  0  0
   20.1033  -19.9008  -14.7741 C   0  0  0  0  0  0  0  0  0  0  0  0
   20.0197  -18.6172  -15.1394 N   0  0  0  0  0  0  0  0  0  0  0  0
   20.6707  -18.4303  -16.2848 C   0  0  0  0  0  0  0  0  0  0  0  0
   20.8647  -17.2821  -17.0540 C   0  0  0  0  0  0  0  0  0  0  0  0
   21.5985  -17.4127  -18.2114 C   0  0  0  0  0  0  0  0  0  0  0  0
   22.1381  -18.6209  -18.6268 C   0  0  0  0  0  0  0  0  0  0  0  0
   21.9165  -19.7348  -17.8256 C   0  0  0  0  0  0  0  0  0  0  0  0
   21.1921  -19.6462  -16.6674 C   0  0  0  0  0  0  0  0  0  0  0  0
   18.7513  -22.7065  -16.0095 C   0  0  0  0  0  0  0  0  0  0  0  0
   18.0571  -21.7000  -16.3827 O   0  0  0  0  0  0  0  0  0  0  0  0
   18.1497  -23.6531  -15.1520 N   0  0  0  0  0  0  0  0  0  0  0  0
   16.7912  -23.3637  -14.6851 C   0  0  1  0  0  0  0  0  0  0  0  0
   16.0756  -24.6867  -14.4149 C   0  0  0  0  0  0  0  0  0  0  0  0
   14.6828  -24.3896  -14.0317 C   0  0  0  0  0  0  0  0  0  0  0  0
   13.7325  -24.1305  -15.0226 C   0  0  0  0  0  0  0  0  0  0  0  0
   12.4348  -23.8807  -14.6699 C   0  0  0  0  0  0  0  0  0  0  0  0
   11.9879  -23.8667  -13.3651 C   0  0  0  0  0  0  0  0  0  0  0  0
   12.9197  -24.1212  -12.3899 C   0  0  0  0  0  0  0  0  0  0  0  0
   14.2288  -24.3746  -12.7258 C   0  0  0  0  0  0  0  0  0  0  0  0
   16.8790  -22.5830  -13.4559 C   0  0  0  0  0  0  0  0  0  0  0  0
   17.9986  -22.6237  -12.6547 O   0  0  0  0  0  0  0  0  0  0  0  0
   15.9288  -21.8519  -13.0969 O   0  0  0  0  0  0  0  0  0  0  0  0
  2  1  1  0
  3  2  2  0
  4  3  1  0
  5  4  2  0
  5 11  1  0
  6  5  1  0
  7  8  1  6
  7  6  1  0
  9  7  1  0
 10  9  2  0
 11 12  2  0
 12  2  1  0
 13  9  1  0
 14 13  1  0
 14 25  1  0
 14 15  1  1
 16 15  1  0
 17 16  2  0
 18 17  1  0
 19 18  1  0
 19 24  2  0
 20 21  2  0
 20 19  1  0
 21 22  1  0
 22 23  2  0
 24 23  1  0
 24 16  1  0
 25 26  2  0
 27 25  1  0
 27 28  1  0
 28 29  1  1
 29 30  1  0
 30 35  2  0
 31 32  2  0
 31 30  1  0
 32 33  1  0
 33 34  2  0
 35 34  1  0
 36 37  1  0
 36 28  1  0
 38 36  2  0
M  END
$$$$
