YWF.pdb
     RDKit          3D

 38 41  0  0  1  0  0  0  0  0999 V2000
   14.6440  -15.3929  -15.9202 O   0  0  0  0  0  0  0  0  0  0  0  0
   15.7243  -14.4892  -15.8966 C   0  0  0  0  0  0  0  0  0  0  0  0
   15.7129  -13.4107  -16.7555 C   0  0  0  0  0  0  0  0  0  0  0  0
   16.7847  -12.5172  -16.7300 C   0  0  0  0  0  0  0  0  0  0  0  0
   17.8313  -12.7189  -15.8571 C   0  0  0  0  0  0  0  0  0  0  0  0
   18.9462  -11.7482  -15.8598 C   0  0  0  0  0  0  0  0  0  0  0  0
   19.6377  -11.7601  -17.2086 C   0  0  2  0  0  0  0  0  0  0  0  0
   20.2685  -13.0110  -17.4817 N   0  0  0  0  0  0  0  0  0  0  0  0
   20.5499  -10.5930  -17.2695 C   0  0  0  0  0  0  0  0  0  0  0  0
   21.7541  -10.6995  -16.8718 O   0  0  0  0  0  0  0  0  0  0  0  0
   17.8660  -13.7833  -14.9931 C   0  0  0  0  0  0  0  0  0  0  0  0
   16.7758  -14.6555  -15.0482 C   0  0  0  0  0  0  0  0  0  0  0  0
   20.1788   -9.3134  -17.7539 N   0  0  0  0  0  0  0  0  0  0  0  0
   21.1498   -8.2067  -17.8747 C   0  0  1  0  0  0  0  0  0  0  0  0
   21.1289   -7.6964  -19.2854 C   0  0  0  0  0  0  0  0  0  0  0  0
   19.7858   -7.7820  -19.8672 C   0  0  0  0  0  0  0  0  0  0  0  0
   18.6159   -7.1620  -19.4092 C   0  0  0  0  0  0  0  0  0  0  0  0
   17.5860   -7.5095  -20.1880 N   0  0  0  0  0  0  0  0  0  0  0  0
   18.0026   -8.3321  -21.1473 C   0  0  0  0  0  0  0  0  0  0  0  0
   17.3109   -8.9556  -22.1868 C   0  0  0  0  0  0  0  0  0  0  0  0
   18.0355   -9.7646  -23.0328 C   0  0  0  0  0  0  0  0  0  0  0  0
   19.3987   -9.9742  -22.8877 C   0  0  0  0  0  0  0  0  0  0  0  0
   20.0413   -9.3305  -21.8368 C   0  0  0  0  0  0  0  0  0  0  0  0
   19.3561   -8.5179  -20.9739 C   0  0  0  0  0  0  0  0  0  0  0  0
   20.7667   -7.2269  -16.8501 C   0  0  0  0  0  0  0  0  0  0  0  0
   19.6223   -7.3423  -16.2923 O   0  0  0  0  0  0  0  0  0  0  0  0
   21.6046   -6.1655  -16.4443 N   0  0  0  0  0  0  0  0  0  0  0  0
   21.1730   -5.3786  -15.2859 C   0  0  1  0  0  0  0  0  0  0  0  0
   22.3143   -5.3385  -14.2704 C   0  0  0  0  0  0  0  0  0  0  0  0
   23.5480   -4.9442  -14.9759 C   0  0  0  0  0  0  0  0  0  0  0  0
   23.9111   -3.5964  -15.0347 C   0  0  0  0  0  0  0  0  0  0  0  0
   25.0684   -3.2320  -15.6661 C   0  0  0  0  0  0  0  0  0  0  0  0
   25.9259   -4.1307  -16.2659 C   0  0  0  0  0  0  0  0  0  0  0  0
   25.5712   -5.4555  -16.2092 C   0  0  0  0  0  0  0  0  0  0  0  0
   24.4115   -5.8403  -15.5785 C   0  0  0  0  0  0  0  0  0  0  0  0
   20.8559   -4.0272  -15.7345 C   0  0  0  0  0  0  0  0  0  0  0  0
   21.0346   -3.6423  -17.0449 O   0  0  0  0  0  0  0  0  0  0  0  0
   20.4108   -3.1776  -14.9306 O   0  0  0  0  0  0  0  0  0  0  0  0
  2  1  1  0
  3  2  2  0
  4  3  1  0
  5  4  2  0
  5 11  1  0
  6  5  1  0
  7  8  1  1
  7  6  1  0
  9  7  1  0
 10  9  2  0
 11 12  2  0
 12  2  1  0
 13  9  1  0
 14 13  1  0
 14 25  1  0
 14 15  1  6
 16 15  1  0
 17 16  2  0
 18 17  1  0
 19 18  1  0
 19 24  2  0
 20 21  2  0
 20 19  1  0
 21 22  1  0
 22 23  2  0
 24 23  1  0
 24 16  1  0
 25 26  2  0
 27 25  1  0
 27 28  1  0
 28 29  1  1
 29 30  1  0
 30 35  2  0
 31 32  2  0
 31 30  1  0
 32 33  1  0
 33 34  2  0
 35 34  1  0
 36 37  1  0
 36 28  1  0
 38 36  2  0
M  END
$$$$
