YWF.pdb
     RDKit          3D

 38 41  0  0  1  0  0  0  0  0999 V2000
   30.7638  -16.4624  -18.6929 O   0  0  0  0  0  0  0  0  0  0  0  0
   29.9114  -16.7540  -17.6099 C   0  0  0  0  0  0  0  0  0  0  0  0
   28.8638  -15.9009  -17.3348 C   0  0  0  0  0  0  0  0  0  0  0  0
   28.0212  -16.1923  -16.2611 C   0  0  0  0  0  0  0  0  0  0  0  0
   28.2416  -17.3162  -15.4955 C   0  0  0  0  0  0  0  0  0  0  0  0
   27.3251  -17.5903  -14.3685 C   0  0  0  0  0  0  0  0  0  0  0  0
   26.5140  -18.8384  -14.6547 C   0  0  2  0  0  0  0  0  0  0  0  0
   25.7325  -18.7147  -15.8427 N   0  0  0  0  0  0  0  0  0  0  0  0
   25.7279  -19.1658  -13.4411 C   0  0  0  0  0  0  0  0  0  0  0  0
   24.8262  -18.3687  -13.0273 O   0  0  0  0  0  0  0  0  0  0  0  0
   29.2761  -18.1801  -15.7487 C   0  0  0  0  0  0  0  0  0  0  0  0
   30.0976  -17.8549  -16.8312 C   0  0  0  0  0  0  0  0  0  0  0  0
   25.9027  -20.3420  -12.6693 N   0  0  0  0  0  0  0  0  0  0  0  0
   25.0620  -20.6419  -11.4922 C   0  0  1  0  0  0  0  0  0  0  0  0
   24.2361  -21.8597  -11.7849 C   0  0  0  0  0  0  0  0  0  0  0  0
   23.1248  -21.5497  -12.6896 C   0  0  0  0  0  0  0  0  0  0  0  0
   21.8480  -21.0864  -12.3459 C   0  0  0  0  0  0  0  0  0  0  0  0
   21.1040  -20.9530  -13.4489 N   0  0  0  0  0  0  0  0  0  0  0  0
   21.8145  -21.3029  -14.5181 C   0  0  0  0  0  0  0  0  0  0  0  0
   21.4808  -21.3330  -15.8729 C   0  0  0  0  0  0  0  0  0  0  0  0
   22.4523  -21.7505  -16.7544 C   0  0  0  0  0  0  0  0  0  0  0  0
   23.7220  -22.1328  -16.3478 C   0  0  0  0  0  0  0  0  0  0  0  0
   24.0045  -22.0850  -14.9878 C   0  0  0  0  0  0  0  0  0  0  0  0
   23.0657  -21.6756  -14.0794 C   0  0  0  0  0  0  0  0  0  0  0  0
   25.9910  -20.7738  -10.3624 C   0  0  0  0  0  0  0  0  0  0  0  0
   26.9769  -21.5800  -10.4733 O   0  0  0  0  0  0  0  0  0  0  0  0
   25.8530  -20.0472   -9.1597 N   0  0  0  0  0  0  0  0  0  0  0  0
   26.7886  -20.3630   -8.0770 C   0  0  1  0  0  0  0  0  0  0  0  0
   27.4816  -19.0733   -7.6390 C   0  0  0  0  0  0  0  0  0  0  0  0
   28.1825  -19.3333   -6.3677 C   0  0  0  0  0  0  0  0  0  0  0  0
   29.4129  -19.9949   -6.3782 C   0  0  0  0  0  0  0  0  0  0  0  0
   30.0764  -20.2135   -5.2023 C   0  0  0  0  0  0  0  0  0  0  0  0
   29.5994  -19.8136   -3.9714 C   0  0  0  0  0  0  0  0  0  0  0  0
   28.3907  -19.1632   -3.9585 C   0  0  0  0  0  0  0  0  0  0  0  0
   27.7096  -18.9345   -5.1311 C   0  0  0  0  0  0  0  0  0  0  0  0
   26.0357  -20.9287   -6.9629 C   0  0  0  0  0  0  0  0  0  0  0  0
   26.6210  -21.7893   -6.0607 O   0  0  0  0  0  0  0  0  0  0  0  0
   24.8281  -20.6432   -6.8004 O   0  0  0  0  0  0  0  0  0  0  0  0
  2  1  1  0
  3  2  2  0
  4  3  1  0
  5  4  2  0
  5 11  1  0
  6  5  1  0
  7  8  1  6
  7  6  1  0
  9  7  1  0
 10  9  2  0
 11 12  2  0
 12  2  1  0
 13  9  1  0
 14 13  1  0
 14 25  1  0
 14 15  1  6
 16 15  1  0
 17 16  2  0
 18 17  1  0
 19 18  1  0
 19 24  2  0
 20 21  2  0
 20 19  1  0
 21 22  1  0
 22 23  2  0
 24 23  1  0
 24 16  1  0
 25 26  2  0
 27 25  1  0
 27 28  1  0
 28 29  1  1
 29 30  1  0
 30 35  2  0
 31 32  2  0
 31 30  1  0
 32 33  1  0
 33 34  2  0
 35 34  1  0
 36 37  1  0
 36 28  1  0
 38 36  2  0
M  END
$$$$
