YWF.pdb
     RDKit          3D

 38 41  0  0  1  0  0  0  0  0999 V2000
   27.2962  -19.8119  -23.4572 O   0  0  0  0  0  0  0  0  0  0  0  0
   27.0580  -20.3653  -22.1839 C   0  0  0  0  0  0  0  0  0  0  0  0
   27.4481  -19.6606  -21.0649 C   0  0  0  0  0  0  0  0  0  0  0  0
   27.2110  -20.2115  -19.8047 C   0  0  0  0  0  0  0  0  0  0  0  0
   26.5969  -21.4395  -19.6922 C   0  0  0  0  0  0  0  0  0  0  0  0
   26.3620  -21.9871  -18.3394 C   0  0  0  0  0  0  0  0  0  0  0  0
   27.6805  -22.3897  -17.7094 C   0  0  2  0  0  0  0  0  0  0  0  0
   28.1357  -23.6604  -18.1734 N   0  0  0  0  0  0  0  0  0  0  0  0
   27.5356  -22.2963  -16.2369 C   0  0  0  0  0  0  0  0  0  0  0  0
   27.5125  -23.3523  -15.5270 O   0  0  0  0  0  0  0  0  0  0  0  0
   26.1995  -22.1598  -20.7895 C   0  0  0  0  0  0  0  0  0  0  0  0
   26.4538  -21.5758  -22.0331 C   0  0  0  0  0  0  0  0  0  0  0  0
   27.4154  -21.0782  -15.5216 N   0  0  0  0  0  0  0  0  0  0  0  0
   27.3219  -21.0379  -14.0479 C   0  0  1  0  0  0  0  0  0  0  0  0
   28.0914  -19.8517  -13.5463 C   0  0  0  0  0  0  0  0  0  0  0  0
   27.5936  -18.6028  -14.1312 C   0  0  0  0  0  0  0  0  0  0  0  0
   26.6305  -17.7354  -13.5994 C   0  0  0  0  0  0  0  0  0  0  0  0
   26.4218  -16.7199  -14.4438 N   0  0  0  0  0  0  0  0  0  0  0  0
   27.1954  -16.8590  -15.5175 C   0  0  0  0  0  0  0  0  0  0  0  0
   27.3345  -16.0668  -16.6580 C   0  0  0  0  0  0  0  0  0  0  0  0
   28.2352  -16.4841  -17.6118 C   0  0  0  0  0  0  0  0  0  0  0  0
   28.9905  -17.6396  -17.4778 C   0  0  0  0  0  0  0  0  0  0  0  0
   28.8150  -18.3937  -16.3236 C   0  0  0  0  0  0  0  0  0  0  0  0
   27.9293  -18.0125  -15.3517 C   0  0  0  0  0  0  0  0  0  0  0  0
   25.8860  -21.0268  -13.7400 C   0  0  0  0  0  0  0  0  0  0  0  0
   25.0533  -21.0407  -14.7099 O   0  0  0  0  0  0  0  0  0  0  0  0
   25.3783  -21.0089  -12.4227 N   0  0  0  0  0  0  0  0  0  0  0  0
   23.9231  -20.9332  -12.2682 C   0  0  1  0  0  0  0  0  0  0  0  0
   23.5900  -20.9292  -10.7767 C   0  0  0  0  0  0  0  0  0  0  0  0
   22.1363  -20.7307  -10.6276 C   0  0  0  0  0  0  0  0  0  0  0  0
   21.2755  -21.8279  -10.7121 C   0  0  0  0  0  0  0  0  0  0  0  0
   19.9294  -21.6490  -10.5480 C   0  0  0  0  0  0  0  0  0  0  0  0
   19.3475  -20.4238  -10.2977 C   0  0  0  0  0  0  0  0  0  0  0  0
   20.1912  -19.3443  -10.2142 C   0  0  0  0  0  0  0  0  0  0  0  0
   21.5472  -19.5053  -10.3763 C   0  0  0  0  0  0  0  0  0  0  0  0
   23.4538  -19.6990  -12.8881 C   0  0  0  0  0  0  0  0  0  0  0  0
   24.2232  -18.5565  -12.8920 O   0  0  0  0  0  0  0  0  0  0  0  0
   22.3292  -19.6489  -13.4352 O   0  0  0  0  0  0  0  0  0  0  0  0
  2  1  1  0
  3  2  2  0
  4  3  1  0
  5  4  2  0
  5 11  1  0
  6  5  1  0
  7  8  1  1
  7  6  1  0
  9  7  1  0
 10  9  2  0
 11 12  2  0
 12  2  1  0
 13  9  1  0
 14 13  1  0
 14 25  1  0
 14 15  1  6
 16 15  1  0
 17 16  2  0
 18 17  1  0
 19 18  1  0
 19 24  2  0
 20 21  2  0
 20 19  1  0
 21 22  1  0
 22 23  2  0
 24 23  1  0
 24 16  1  0
 25 26  2  0
 27 25  1  0
 27 28  1  0
 28 29  1  1
 29 30  1  0
 30 35  2  0
 31 32  2  0
 31 30  1  0
 32 33  1  0
 33 34  2  0
 35 34  1  0
 36 37  1  0
 36 28  1  0
 38 36  2  0
M  END
$$$$
