YWF.pdb
     RDKit          3D

 38 41  0  0  1  0  0  0  0  0999 V2000
   26.6092  -28.6294  -21.9028 O   0  0  0  0  0  0  0  0  0  0  0  0
   26.5782  -27.8788  -20.7111 C   0  0  0  0  0  0  0  0  0  0  0  0
   26.3087  -26.5283  -20.7783 C   0  0  0  0  0  0  0  0  0  0  0  0
   26.2788  -25.7872  -19.5960 C   0  0  0  0  0  0  0  0  0  0  0  0
   26.5161  -26.4048  -18.3877 C   0  0  0  0  0  0  0  0  0  0  0  0
   26.4732  -25.5848  -17.1584 C   0  0  0  0  0  0  0  0  0  0  0  0
   27.7825  -24.8403  -16.9886 C   0  0  2  0  0  0  0  0  0  0  0  0
   28.8329  -25.6913  -16.5306 N   0  0  0  0  0  0  0  0  0  0  0  0
   27.5341  -23.6618  -16.1241 C   0  0  0  0  0  0  0  0  0  0  0  0
   27.5798  -23.7753  -14.8573 O   0  0  0  0  0  0  0  0  0  0  0  0
   26.7862  -27.7461  -18.2944 C   0  0  0  0  0  0  0  0  0  0  0  0
   26.8075  -28.4540  -19.4989 C   0  0  0  0  0  0  0  0  0  0  0  0
   27.2372  -22.3633  -16.6094 N   0  0  0  0  0  0  0  0  0  0  0  0
   27.1144  -21.1973  -15.7107 C   0  0  1  0  0  0  0  0  0  0  0  0
   27.2835  -19.9441  -16.5180 C   0  0  0  0  0  0  0  0  0  0  0  0
   26.8937  -18.7559  -15.7525 C   0  0  0  0  0  0  0  0  0  0  0  0
   27.5642  -18.1844  -14.6632 C   0  0  0  0  0  0  0  0  0  0  0  0
   26.8782  -17.1281  -14.2143 N   0  0  0  0  0  0  0  0  0  0  0  0
   25.7797  -16.9589  -14.9459 C   0  0  0  0  0  0  0  0  0  0  0  0
   24.7615  -16.0077  -14.8674 C   0  0  0  0  0  0  0  0  0  0  0  0
   23.7391  -16.0984  -15.7848 C   0  0  0  0  0  0  0  0  0  0  0  0
   23.6907  -17.0821  -16.7612 C   0  0  0  0  0  0  0  0  0  0  0  0
   24.7287  -18.0057  -16.7973 C   0  0  0  0  0  0  0  0  0  0  0  0
   25.7634  -17.9494  -15.9027 C   0  0  0  0  0  0  0  0  0  0  0  0
   25.8126  -21.3418  -15.0464 C   0  0  0  0  0  0  0  0  0  0  0  0
   24.8342  -21.8179  -15.7172 O   0  0  0  0  0  0  0  0  0  0  0  0
   25.5896  -20.9867  -13.6982 N   0  0  0  0  0  0  0  0  0  0  0  0
   24.2441  -21.2096  -13.1622 C   0  0  1  0  0  0  0  0  0  0  0  0
   24.3671  -21.9179  -11.8136 C   0  0  0  0  0  0  0  0  0  0  0  0
   25.1654  -21.0647  -10.9138 C   0  0  0  0  0  0  0  0  0  0  0  0
   26.5478  -21.2488  -10.8310 C   0  0  0  0  0  0  0  0  0  0  0  0
   27.2928  -20.4410  -10.0166 C   0  0  0  0  0  0  0  0  0  0  0  0
   26.7565  -19.4278   -9.2495 C   0  0  0  0  0  0  0  0  0  0  0  0
   25.3984  -19.2449   -9.3294 C   0  0  0  0  0  0  0  0  0  0  0  0
   24.6336  -20.0474  -10.1429 C   0  0  0  0  0  0  0  0  0  0  0  0
   23.5928  -19.9159  -12.9893 C   0  0  0  0  0  0  0  0  0  0  0  0
   22.2364  -19.8152  -12.7719 O   0  0  0  0  0  0  0  0  0  0  0  0
   24.2580  -18.8568  -13.0365 O   0  0  0  0  0  0  0  0  0  0  0  0
  2  1  1  0
  3  2  2  0
  4  3  1  0
  5  4  2  0
  5 11  1  0
  6  5  1  0
  7  8  1  1
  7  6  1  0
  9  7  1  0
 10  9  2  0
 11 12  2  0
 12  2  1  0
 13  9  1  0
 14 13  1  0
 14 25  1  0
 14 15  1  6
 16 15  1  0
 17 16  2  0
 18 17  1  0
 19 18  1  0
 19 24  2  0
 20 21  2  0
 20 19  1  0
 21 22  1  0
 22 23  2  0
 24 23  1  0
 24 16  1  0
 25 26  2  0
 27 25  1  0
 27 28  1  0
 28 29  1  1
 29 30  1  0
 30 35  2  0
 31 32  2  0
 31 30  1  0
 32 33  1  0
 33 34  2  0
 35 34  1  0
 36 37  1  0
 36 28  1  0
 38 36  2  0
M  END
$$$$
