YWF.pdb
     RDKit          3D

 38 41  0  0  1  0  0  0  0  0999 V2000
   23.6418  -29.4752  -16.5768 O   0  0  0  0  0  0  0  0  0  0  0  0
   24.3056  -28.3103  -16.1445 C   0  0  0  0  0  0  0  0  0  0  0  0
   23.6708  -27.4703  -15.2543 C   0  0  0  0  0  0  0  0  0  0  0  0
   24.3307  -26.3169  -14.8280 C   0  0  0  0  0  0  0  0  0  0  0  0
   25.5951  -26.0320  -15.2951 C   0  0  0  0  0  0  0  0  0  0  0  0
   26.2606  -24.8015  -14.8174 C   0  0  0  0  0  0  0  0  0  0  0  0
   25.4832  -23.5834  -15.2748 C   0  0  2  0  0  0  0  0  0  0  0  0
   25.5668  -23.3873  -16.6861 N   0  0  0  0  0  0  0  0  0  0  0  0
   25.9328  -22.4211  -14.4717 C   0  0  0  0  0  0  0  0  0  0  0  0
   26.9702  -21.7684  -14.8142 O   0  0  0  0  0  0  0  0  0  0  0  0
   26.2475  -26.8513  -16.1804 C   0  0  0  0  0  0  0  0  0  0  0  0
   25.5550  -27.9958  -16.5839 C   0  0  0  0  0  0  0  0  0  0  0  0
   25.2770  -21.9549  -13.3045 N   0  0  0  0  0  0  0  0  0  0  0  0
   25.6581  -20.6917  -12.6403 C   0  0  1  0  0  0  0  0  0  0  0  0
   24.5025  -19.7378  -12.7150 C   0  0  0  0  0  0  0  0  0  0  0  0
   24.4181  -19.0992  -14.0321 C   0  0  0  0  0  0  0  0  0  0  0  0
   23.2997  -19.0196  -14.8721 C   0  0  0  0  0  0  0  0  0  0  0  0
   23.6285  -18.3868  -16.0032 N   0  0  0  0  0  0  0  0  0  0  0  0
   24.9115  -18.0360  -15.9679 C   0  0  0  0  0  0  0  0  0  0  0  0
   25.7061  -17.3651  -16.8986 C   0  0  0  0  0  0  0  0  0  0  0  0
   27.0236  -17.1466  -16.5646 C   0  0  0  0  0  0  0  0  0  0  0  0
   27.5727  -17.5626  -15.3609 C   0  0  0  0  0  0  0  0  0  0  0  0
   26.7398  -18.2265  -14.4681 C   0  0  0  0  0  0  0  0  0  0  0  0
   25.4240  -18.4630  -14.7630 C   0  0  0  0  0  0  0  0  0  0  0  0
   26.0730  -21.0652  -11.2819 C   0  0  0  0  0  0  0  0  0  0  0  0
   25.6144  -22.1473  -10.7791 O   0  0  0  0  0  0  0  0  0  0  0  0
   26.9612  -20.2902  -10.5047 N   0  0  0  0  0  0  0  0  0  0  0  0
   27.1447  -20.6860   -9.1058 C   0  0  1  0  0  0  0  0  0  0  0  0
   28.1236  -19.7141   -8.4479 C   0  0  0  0  0  0  0  0  0  0  0  0
   28.1395  -19.9838   -6.9981 C   0  0  0  0  0  0  0  0  0  0  0  0
   29.0086  -20.9489   -6.4830 C   0  0  0  0  0  0  0  0  0  0  0  0
   29.0431  -21.1816   -5.1356 C   0  0  0  0  0  0  0  0  0  0  0  0
   28.2555  -20.5088   -4.2248 C   0  0  0  0  0  0  0  0  0  0  0  0
   27.4009  -19.5601   -4.7285 C   0  0  0  0  0  0  0  0  0  0  0  0
   27.3529  -19.3126   -6.0803 C   0  0  0  0  0  0  0  0  0  0  0  0
   25.8520  -20.6251   -8.4325 C   0  0  0  0  0  0  0  0  0  0  0  0
   25.5071  -21.5283   -7.4514 O   0  0  0  0  0  0  0  0  0  0  0  0
   25.0176  -19.7427   -8.7349 O   0  0  0  0  0  0  0  0  0  0  0  0
  2  1  1  0
  3  2  2  0
  4  3  1  0
  5  4  2  0
  5 11  1  0
  6  5  1  0
  7  8  1  6
  7  6  1  0
  9  7  1  0
 10  9  2  0
 11 12  2  0
 12  2  1  0
 13  9  1  0
 14 13  1  0
 14 25  1  0
 14 15  1  1
 16 15  1  0
 17 16  2  0
 18 17  1  0
 19 18  1  0
 19 24  2  0
 20 21  2  0
 20 19  1  0
 21 22  1  0
 22 23  2  0
 24 23  1  0
 24 16  1  0
 25 26  2  0
 27 25  1  0
 27 28  1  0
 28 29  1  1
 29 30  1  0
 30 35  2  0
 31 32  2  0
 31 30  1  0
 32 33  1  0
 33 34  2  0
 35 34  1  0
 36 37  1  0
 36 28  1  0
 38 36  2  0
M  END
$$$$
