YWF.pdb
     RDKit          3D

 38 41  0  0  1  0  0  0  0  0999 V2000
   17.2108  -18.2961  -13.6682 O   0  0  0  0  0  0  0  0  0  0  0  0
   18.4207  -18.9666  -13.4016 C   0  0  0  0  0  0  0  0  0  0  0  0
   18.6264  -20.2167  -13.9457 C   0  0  0  0  0  0  0  0  0  0  0  0
   19.8258  -20.8787  -13.6797 C   0  0  0  0  0  0  0  0  0  0  0  0
   20.7815  -20.2839  -12.8854 C   0  0  0  0  0  0  0  0  0  0  0  0
   22.0392  -21.0174  -12.6296 C   0  0  0  0  0  0  0  0  0  0  0  0
   23.1368  -20.4904  -13.5325 C   0  0  2  0  0  0  0  0  0  0  0  0
   22.9307  -20.8475  -14.8990 N   0  0  0  0  0  0  0  0  0  0  0  0
   24.4399  -20.9301  -12.9790 C   0  0  0  0  0  0  0  0  0  0  0  0
   24.8071  -22.1435  -13.0908 O   0  0  0  0  0  0  0  0  0  0  0  0
   20.6010  -19.0418  -12.3329 C   0  0  0  0  0  0  0  0  0  0  0  0
   19.3882  -18.4109  -12.6217 C   0  0  0  0  0  0  0  0  0  0  0  0
   25.3512  -20.0770  -12.3070 N   0  0  0  0  0  0  0  0  0  0  0  0
   26.6885  -20.5362  -11.8792 C   0  0  1  0  0  0  0  0  0  0  0  0
   27.7160  -19.5606  -12.3725 C   0  0  0  0  0  0  0  0  0  0  0  0
   27.8851  -19.6484  -13.8262 C   0  0  0  0  0  0  0  0  0  0  0  0
   28.4871  -20.6826  -14.5547 C   0  0  0  0  0  0  0  0  0  0  0  0
   28.4784  -20.3818  -15.8575 N   0  0  0  0  0  0  0  0  0  0  0  0
   27.9012  -19.1975  -16.0437 C   0  0  0  0  0  0  0  0  0  0  0  0
   27.6599  -18.4663  -17.2077 C   0  0  0  0  0  0  0  0  0  0  0  0
   27.0307  -17.2495  -17.0713 C   0  0  0  0  0  0  0  0  0  0  0  0
   26.6385  -16.7398  -15.8425 C   0  0  0  0  0  0  0  0  0  0  0  0
   26.9015  -17.5065  -14.7135 C   0  0  0  0  0  0  0  0  0  0  0  0
   27.5252  -18.7216  -14.8072 C   0  0  0  0  0  0  0  0  0  0  0  0
   26.6125  -20.6790  -10.4195 C   0  0  0  0  0  0  0  0  0  0  0  0
   25.5014  -20.4301   -9.8386 O   0  0  0  0  0  0  0  0  0  0  0  0
   27.7065  -21.0854   -9.6250 N   0  0  0  0  0  0  0  0  0  0  0  0
   27.5625  -20.9554   -8.1725 C   0  0  1  0  0  0  0  0  0  0  0  0
   28.9457  -21.0685   -7.5327 C   0  0  0  0  0  0  0  0  0  0  0  0
   28.8560  -20.5743   -6.1460 C   0  0  0  0  0  0  0  0  0  0  0  0
   28.4439  -21.4384   -5.1284 C   0  0  0  0  0  0  0  0  0  0  0  0
   28.3854  -20.9886   -3.8380 C   0  0  0  0  0  0  0  0  0  0  0  0
   28.7150  -19.7030   -3.4625 C   0  0  0  0  0  0  0  0  0  0  0  0
   29.1203  -18.8523   -4.4605 C   0  0  0  0  0  0  0  0  0  0  0  0
   29.1854  -19.2871   -5.7634 C   0  0  0  0  0  0  0  0  0  0  0  0
   26.9813  -19.6500   -7.8785 C   0  0  0  0  0  0  0  0  0  0  0  0
   27.4689  -18.4978   -8.4544 O   0  0  0  0  0  0  0  0  0  0  0  0
   26.0174  -19.5460   -7.0871 O   0  0  0  0  0  0  0  0  0  0  0  0
  2  1  1  0
  3  2  2  0
  4  3  1  0
  5  4  2  0
  5 11  1  0
  6  5  1  0
  7  8  1  6
  7  6  1  0
  9  7  1  0
 10  9  2  0
 11 12  2  0
 12  2  1  0
 13  9  1  0
 14 13  1  0
 14 25  1  0
 14 15  1  1
 16 15  1  0
 17 16  2  0
 18 17  1  0
 19 18  1  0
 19 24  2  0
 20 21  2  0
 20 19  1  0
 21 22  1  0
 22 23  2  0
 24 23  1  0
 24 16  1  0
 25 26  2  0
 27 25  1  0
 27 28  1  0
 28 29  1  1
 29 30  1  0
 30 35  2  0
 31 32  2  0
 31 30  1  0
 32 33  1  0
 33 34  2  0
 35 34  1  0
 36 37  1  0
 36 28  1  0
 38 36  2  0
M  END
$$$$
