YWF.pdb
     RDKit          3D

 38 41  0  0  1  0  0  0  0  0999 V2000
   27.1016  -28.8886  -22.1290 O   0  0  0  0  0  0  0  0  0  0  0  0
   27.0120  -28.0948  -20.9687 C   0  0  0  0  0  0  0  0  0  0  0  0
   27.0136  -28.7108  -19.7352 C   0  0  0  0  0  0  0  0  0  0  0  0
   26.9245  -27.9218  -18.5875 C   0  0  0  0  0  0  0  0  0  0  0  0
   26.8368  -26.5513  -18.6967 C   0  0  0  0  0  0  0  0  0  0  0  0
   26.7463  -25.7514  -17.4568 C   0  0  0  0  0  0  0  0  0  0  0  0
   28.0951  -25.1372  -17.1392 C   0  0  2  0  0  0  0  0  0  0  0  0
   29.0105  -26.0913  -16.6017 N   0  0  0  0  0  0  0  0  0  0  0  0
   27.8710  -23.9548  -16.2734 C   0  0  0  0  0  0  0  0  0  0  0  0
   28.0454  -24.0393  -15.0156 O   0  0  0  0  0  0  0  0  0  0  0  0
   26.8335  -25.9149  -19.9115 C   0  0  0  0  0  0  0  0  0  0  0  0
   26.9241  -26.7381  -21.0369 C   0  0  0  0  0  0  0  0  0  0  0  0
   27.4613  -22.6833  -16.7479 N   0  0  0  0  0  0  0  0  0  0  0  0
   27.3728  -21.5047  -15.8617 C   0  0  1  0  0  0  0  0  0  0  0  0
   27.7099  -20.2765  -16.6546 C   0  0  0  0  0  0  0  0  0  0  0  0
   27.3556  -19.0539  -15.9270 C   0  0  0  0  0  0  0  0  0  0  0  0
   27.6680  -18.7290  -14.6005 C   0  0  0  0  0  0  0  0  0  0  0  0
   27.1410  -17.5398  -14.2907 N   0  0  0  0  0  0  0  0  0  0  0  0
   26.4894  -17.0471  -15.3410 C   0  0  0  0  0  0  0  0  0  0  0  0
   25.7852  -15.8538  -15.5077 C   0  0  0  0  0  0  0  0  0  0  0  0
   25.2101  -15.6253  -16.7374 C   0  0  0  0  0  0  0  0  0  0  0  0
   25.3065  -16.5226  -17.7906 C   0  0  0  0  0  0  0  0  0  0  0  0
   26.0186  -17.6963  -17.5737 C   0  0  0  0  0  0  0  0  0  0  0  0
   26.6051  -17.9604  -16.3652 C   0  0  0  0  0  0  0  0  0  0  0  0
   26.0171  -21.5315  -15.2975 C   0  0  0  0  0  0  0  0  0  0  0  0
   25.0494  -21.8932  -16.0503 O   0  0  0  0  0  0  0  0  0  0  0  0
   25.7300  -21.1837  -13.9596 N   0  0  0  0  0  0  0  0  0  0  0  0
   24.3191  -21.1528  -13.5651 C   0  0  1  0  0  0  0  0  0  0  0  0
   24.2378  -21.1909  -12.0395 C   0  0  0  0  0  0  0  0  0  0  0  0
   22.8269  -21.0173  -11.6468 C   0  0  0  0  0  0  0  0  0  0  0  0
   22.4031  -19.8000  -11.1076 C   0  0  0  0  0  0  0  0  0  0  0  0
   21.0895  -19.6289  -10.7672 C   0  0  0  0  0  0  0  0  0  0  0  0
   20.1272  -20.6044  -10.9246 C   0  0  0  0  0  0  0  0  0  0  0  0
   20.5412  -21.8011  -11.4543 C   0  0  0  0  0  0  0  0  0  0  0  0
   21.8578  -21.9911  -11.8025 C   0  0  0  0  0  0  0  0  0  0  0  0
   23.7235  -19.9192  -14.0665 C   0  0  0  0  0  0  0  0  0  0  0  0
   24.2980  -18.6910  -13.8239 O   0  0  0  0  0  0  0  0  0  0  0  0
   22.6655  -19.9486  -14.7343 O   0  0  0  0  0  0  0  0  0  0  0  0
  2  1  1  0
  3  2  2  0
  4  3  1  0
  5  4  2  0
  5 11  1  0
  6  5  1  0
  7  8  1  1
  7  6  1  0
  9  7  1  0
 10  9  2  0
 11 12  2  0
 12  2  1  0
 13  9  1  0
 14 13  1  0
 14 25  1  0
 14 15  1  6
 16 15  1  0
 17 16  2  0
 18 17  1  0
 19 18  1  0
 19 24  2  0
 20 21  2  0
 20 19  1  0
 21 22  1  0
 22 23  2  0
 24 23  1  0
 24 16  1  0
 25 26  2  0
 27 25  1  0
 27 28  1  0
 28 29  1  1
 29 30  1  0
 30 35  2  0
 31 32  2  0
 31 30  1  0
 32 33  1  0
 33 34  2  0
 35 34  1  0
 36 37  1  0
 36 28  1  0
 38 36  2  0
M  END
$$$$
