YWF.pdb
     RDKit          3D

 38 41  0  0  1  0  0  0  0  0999 V2000
   29.2214  -34.7652  -16.1416 O   0  0  0  0  0  0  0  0  0  0  0  0
   28.2986  -33.7281  -15.9028 C   0  0  0  0  0  0  0  0  0  0  0  0
   26.9695  -33.9324  -16.2072 C   0  0  0  0  0  0  0  0  0  0  0  0
   26.0575  -32.9030  -15.9698 C   0  0  0  0  0  0  0  0  0  0  0  0
   26.4889  -31.7068  -15.4396 C   0  0  0  0  0  0  0  0  0  0  0  0
   25.4909  -30.6426  -15.2011 C   0  0  0  0  0  0  0  0  0  0  0  0
   25.1779  -29.9279  -16.5006 C   0  0  2  0  0  0  0  0  0  0  0  0
   26.3277  -29.2925  -17.0586 N   0  0  0  0  0  0  0  0  0  0  0  0
   24.0348  -29.0148  -16.2609 C   0  0  0  0  0  0  0  0  0  0  0  0
   24.2407  -27.7932  -15.9694 O   0  0  0  0  0  0  0  0  0  0  0  0
   27.8049  -31.4791  -15.1282 C   0  0  0  0  0  0  0  0  0  0  0  0
   28.6873  -32.5328  -15.3801 C   0  0  0  0  0  0  0  0  0  0  0  0
   22.6733  -29.4034  -16.3320 N   0  0  0  0  0  0  0  0  0  0  0  0
   21.5700  -28.4458  -16.1129 C   0  0  1  0  0  0  0  0  0  0  0  0
   20.7619  -28.3420  -17.3727 C   0  0  0  0  0  0  0  0  0  0  0  0
   21.4222  -27.4882  -18.3650 C   0  0  0  0  0  0  0  0  0  0  0  0
   22.4702  -27.8352  -19.2276 C   0  0  0  0  0  0  0  0  0  0  0  0
   22.8216  -26.7739  -19.9611 N   0  0  0  0  0  0  0  0  0  0  0  0
   22.0637  -25.7295  -19.6365 C   0  0  0  0  0  0  0  0  0  0  0  0
   22.0501  -24.4197  -20.1179 C   0  0  0  0  0  0  0  0  0  0  0  0
   21.1292  -23.5545  -19.5714 C   0  0  0  0  0  0  0  0  0  0  0  0
   20.2360  -23.9350  -18.5811 C   0  0  0  0  0  0  0  0  0  0  0  0
   20.2899  -25.2505  -18.1357 C   0  0  0  0  0  0  0  0  0  0  0  0
   21.1910  -26.1414  -18.6539 C   0  0  0  0  0  0  0  0  0  0  0  0
   20.8384  -28.9425  -14.9404 C   0  0  0  0  0  0  0  0  0  0  0  0
   20.4973  -30.1741  -14.9101 O   0  0  0  0  0  0  0  0  0  0  0  0
   20.4985  -28.1269  -13.8392 N   0  0  0  0  0  0  0  0  0  0  0  0
   19.7851  -28.7652  -12.7298 C   0  0  1  0  0  0  0  0  0  0  0  0
   20.1097  -28.0098  -11.4416 C   0  0  0  0  0  0  0  0  0  0  0  0
   19.3062  -28.5903  -10.3496 C   0  0  0  0  0  0  0  0  0  0  0  0
   19.7589  -29.7360   -9.6906 C   0  0  0  0  0  0  0  0  0  0  0  0
   19.0277  -30.2603   -8.6604 C   0  0  0  0  0  0  0  0  0  0  0  0
   17.8397  -29.7192   -8.2153 C   0  0  0  0  0  0  0  0  0  0  0  0
   17.3929  -28.5934   -8.8612 C   0  0  0  0  0  0  0  0  0  0  0  0
   18.1149  -28.0522   -9.8988 C   0  0  0  0  0  0  0  0  0  0  0  0
   18.3530  -28.6999  -12.9998 C   0  0  0  0  0  0  0  0  0  0  0  0
   17.4767  -29.6200  -12.4681 O   0  0  0  0  0  0  0  0  0  0  0  0
   17.8831  -27.7980  -13.7292 O   0  0  0  0  0  0  0  0  0  0  0  0
  2  1  1  0
  3  2  2  0
  4  3  1  0
  5  4  2  0
  5 11  1  0
  6  5  1  0
  7  8  1  1
  7  6  1  0
  9  7  1  0
 10  9  2  0
 11 12  2  0
 12  2  1  0
 13  9  1  0
 14 13  1  0
 14 25  1  0
 14 15  1  6
 16 15  1  0
 17 16  2  0
 18 17  1  0
 19 18  1  0
 19 24  2  0
 20 21  2  0
 20 19  1  0
 21 22  1  0
 22 23  2  0
 24 23  1  0
 24 16  1  0
 25 26  2  0
 27 25  1  0
 27 28  1  0
 28 29  1  1
 29 30  1  0
 30 35  2  0
 31 32  2  0
 31 30  1  0
 32 33  1  0
 33 34  2  0
 35 34  1  0
 36 37  1  0
 36 28  1  0
 38 36  2  0
M  END
$$$$
