YWF.pdb
     RDKit          3D

 38 41  0  0  1  0  0  0  0  0999 V2000
   19.3267  -22.8267  -19.6093 O   0  0  0  0  0  0  0  0  0  0  0  0
   19.2677  -22.1064  -18.4001 C   0  0  0  0  0  0  0  0  0  0  0  0
   18.1174  -21.4121  -18.0907 C   0  0  0  0  0  0  0  0  0  0  0  0
   18.0620  -20.6992  -16.8922 C   0  0  0  0  0  0  0  0  0  0  0  0
   19.1443  -20.6960  -16.0399 C   0  0  0  0  0  0  0  0  0  0  0  0
   19.0445  -19.9303  -14.7793 C   0  0  0  0  0  0  0  0  0  0  0  0
   20.2508  -19.0251  -14.6284 C   0  0  2  0  0  0  0  0  0  0  0  0
   20.9434  -19.2477  -13.4003 N   0  0  0  0  0  0  0  0  0  0  0  0
   19.8052  -17.6256  -14.8302 C   0  0  0  0  0  0  0  0  0  0  0  0
   19.4645  -16.9115  -13.8334 O   0  0  0  0  0  0  0  0  0  0  0  0
   20.2992  -21.3785  -16.3246 C   0  0  0  0  0  0  0  0  0  0  0  0
   20.3167  -22.0799  -17.5329 C   0  0  0  0  0  0  0  0  0  0  0  0
   19.7230  -16.9876  -16.0935 N   0  0  0  0  0  0  0  0  0  0  0  0
   19.2531  -15.5950  -16.2418 C   0  0  1  0  0  0  0  0  0  0  0  0
   20.0680  -14.9199  -17.3052 C   0  0  0  0  0  0  0  0  0  0  0  0
   19.5958  -13.5549  -17.5577 C   0  0  0  0  0  0  0  0  0  0  0  0
   19.5339  -12.4911  -16.6481 C   0  0  0  0  0  0  0  0  0  0  0  0
   19.0145  -11.4144  -17.2472 N   0  0  0  0  0  0  0  0  0  0  0  0
   18.7233  -11.6988  -18.5140 C   0  0  0  0  0  0  0  0  0  0  0  0
   18.1714  -10.9144  -19.5278 C   0  0  0  0  0  0  0  0  0  0  0  0
   17.9886  -11.5065  -20.7571 C   0  0  0  0  0  0  0  0  0  0  0  0
   18.3276  -12.8268  -21.0132 C   0  0  0  0  0  0  0  0  0  0  0  0
   18.8738  -13.5655  -19.9703 C   0  0  0  0  0  0  0  0  0  0  0  0
   19.0715  -13.0131  -18.7334 C   0  0  0  0  0  0  0  0  0  0  0  0
   17.8144  -15.6877  -16.5217 C   0  0  0  0  0  0  0  0  0  0  0  0
   17.4003  -16.6236  -17.2877 O   0  0  0  0  0  0  0  0  0  0  0  0
   16.8628  -14.7967  -15.9795 N   0  0  0  0  0  0  0  0  0  0  0  0
   15.4608  -15.0105  -16.3484 C   0  0  1  0  0  0  0  0  0  0  0  0
   14.6300  -15.1143  -15.0700 C   0  0  0  0  0  0  0  0  0  0  0  0
   13.2163  -15.2933  -15.4500 C   0  0  0  0  0  0  0  0  0  0  0  0
   12.7406  -16.5683  -15.7663 C   0  0  0  0  0  0  0  0  0  0  0  0
   11.4236  -16.7397  -16.0936 C   0  0  0  0  0  0  0  0  0  0  0  0
   10.5071  -15.7097  -16.1336 C   0  0  0  0  0  0  0  0  0  0  0  0
   10.9721  -14.4562  -15.8231 C   0  0  0  0  0  0  0  0  0  0  0  0
   12.2929  -14.2650  -15.4915 C   0  0  0  0  0  0  0  0  0  0  0  0
   15.0117  -13.8740  -17.1451 C   0  0  0  0  0  0  0  0  0  0  0  0
   14.0310  -14.0079  -18.1030 O   0  0  0  0  0  0  0  0  0  0  0  0
   15.5132  -12.7399  -16.9757 O   0  0  0  0  0  0  0  0  0  0  0  0
  2  1  1  0
  3  2  2  0
  4  3  1  0
  5  4  2  0
  5 11  1  0
  6  5  1  0
  7  8  1  1
  7  6  1  0
  9  7  1  0
 10  9  2  0
 11 12  2  0
 12  2  1  0
 13  9  1  0
 14 13  1  0
 14 25  1  0
 14 15  1  6
 16 15  1  0
 17 16  2  0
 18 17  1  0
 19 18  1  0
 19 24  2  0
 20 21  2  0
 20 19  1  0
 21 22  1  0
 22 23  2  0
 24 23  1  0
 24 16  1  0
 25 26  2  0
 27 25  1  0
 27 28  1  0
 28 29  1  1
 29 30  1  0
 30 35  2  0
 31 32  2  0
 31 30  1  0
 32 33  1  0
 33 34  2  0
 35 34  1  0
 36 37  1  0
 36 28  1  0
 38 36  2  0
M  END
$$$$
