YWF.pdb
     RDKit          3D

 38 41  0  0  1  0  0  0  0  0999 V2000
   32.2484  -25.2505  -17.7001 O   0  0  0  0  0  0  0  0  0  0  0  0
   31.5954  -24.2152  -17.0028 C   0  0  0  0  0  0  0  0  0  0  0  0
   31.2942  -23.0464  -17.6693 C   0  0  0  0  0  0  0  0  0  0  0  0
   30.6474  -22.0224  -16.9759 C   0  0  0  0  0  0  0  0  0  0  0  0
   30.3200  -22.1872  -15.6480 C   0  0  0  0  0  0  0  0  0  0  0  0
   29.6335  -21.0794  -14.9502 C   0  0  0  0  0  0  0  0  0  0  0  0
   28.1515  -21.3780  -14.8406 C   0  0  2  0  0  0  0  0  0  0  0  0
   27.4991  -21.3496  -16.1098 N   0  0  0  0  0  0  0  0  0  0  0  0
   27.5684  -20.4564  -13.8364 C   0  0  0  0  0  0  0  0  0  0  0  0
   27.6944  -19.1973  -13.9727 O   0  0  0  0  0  0  0  0  0  0  0  0
   30.6085  -23.3397  -14.9630 C   0  0  0  0  0  0  0  0  0  0  0  0
   31.2561  -24.3415  -15.6906 C   0  0  0  0  0  0  0  0  0  0  0  0
   26.8515  -20.8764  -12.6878 N   0  0  0  0  0  0  0  0  0  0  0  0
   26.3461  -19.9189  -11.6829 C   0  0  1  0  0  0  0  0  0  0  0  0
   25.0030  -19.4173  -12.1248 C   0  0  0  0  0  0  0  0  0  0  0  0
   24.4066  -20.2981  -13.1339 C   0  0  0  0  0  0  0  0  0  0  0  0
   24.0145  -21.6339  -12.9766 C   0  0  0  0  0  0  0  0  0  0  0  0
   23.5440  -22.1059  -14.1358 N   0  0  0  0  0  0  0  0  0  0  0  0
   23.5992  -21.1561  -15.0660 C   0  0  0  0  0  0  0  0  0  0  0  0
   23.2284  -21.1656  -16.4114 C   0  0  0  0  0  0  0  0  0  0  0  0
   23.4116  -20.0034  -17.1262 C   0  0  0  0  0  0  0  0  0  0  0  0
   23.9406  -18.8510  -16.5643 C   0  0  0  0  0  0  0  0  0  0  0  0
   24.2941  -18.8930  -15.2208 C   0  0  0  0  0  0  0  0  0  0  0  0
   24.1275  -20.0294  -14.4759 C   0  0  0  0  0  0  0  0  0  0  0  0
   26.3534  -20.6419  -10.4047 C   0  0  0  0  0  0  0  0  0  0  0  0
   26.5515  -21.9047  -10.4185 O   0  0  0  0  0  0  0  0  0  0  0  0
   26.1592  -20.0088   -9.1577 N   0  0  0  0  0  0  0  0  0  0  0  0
   25.9057  -20.8729   -8.0017 C   0  0  1  0  0  0  0  0  0  0  0  0
   25.9641  -20.0218   -6.7338 C   0  0  0  0  0  0  0  0  0  0  0  0
   27.3722  -19.9244   -6.3063 C   0  0  0  0  0  0  0  0  0  0  0  0
   28.0388  -18.6996   -6.3928 C   0  0  0  0  0  0  0  0  0  0  0  0
   29.3367  -18.6018   -5.9722 C   0  0  0  0  0  0  0  0  0  0  0  0
   30.0525  -19.6606   -5.4537 C   0  0  0  0  0  0  0  0  0  0  0  0
   29.3996  -20.8649   -5.3676 C   0  0  0  0  0  0  0  0  0  0  0  0
   28.0947  -20.9819   -5.7854 C   0  0  0  0  0  0  0  0  0  0  0  0
   24.5799  -21.4642   -8.1458 C   0  0  0  0  0  0  0  0  0  0  0  0
   24.1499  -22.4795   -7.3203 O   0  0  0  0  0  0  0  0  0  0  0  0
   23.7952  -21.0592   -9.0327 O   0  0  0  0  0  0  0  0  0  0  0  0
  2  1  1  0
  3  2  2  0
  4  3  1  0
  5  4  2  0
  5 11  1  0
  6  5  1  0
  7  8  1  6
  7  6  1  0
  9  7  1  0
 10  9  2  0
 11 12  2  0
 12  2  1  0
 13  9  1  0
 14 13  1  0
 14 25  1  0
 14 15  1  6
 16 15  1  0
 17 16  2  0
 18 17  1  0
 19 18  1  0
 19 24  2  0
 20 21  2  0
 20 19  1  0
 21 22  1  0
 22 23  2  0
 24 23  1  0
 24 16  1  0
 25 26  2  0
 27 25  1  0
 27 28  1  0
 28 29  1  1
 29 30  1  0
 30 35  2  0
 31 32  2  0
 31 30  1  0
 32 33  1  0
 33 34  2  0
 35 34  1  0
 36 37  1  0
 36 28  1  0
 38 36  2  0
M  END
$$$$
