YWF.pdb
     RDKit          3D

 38 41  0  0  1  0  0  0  0  0999 V2000
   16.9784  -17.4158  -19.7183 O   0  0  0  0  0  0  0  0  0  0  0  0
   17.6851  -16.2820  -19.2714 C   0  0  0  0  0  0  0  0  0  0  0  0
   17.2483  -15.0300  -19.6489 C   0  0  0  0  0  0  0  0  0  0  0  0
   17.9505  -13.9087  -19.2049 C   0  0  0  0  0  0  0  0  0  0  0  0
   19.0603  -14.0617  -18.4031 C   0  0  0  0  0  0  0  0  0  0  0  0
   19.7749  -12.8487  -17.9522 C   0  0  0  0  0  0  0  0  0  0  0  0
   20.3434  -12.1103  -19.1477 C   0  0  2  0  0  0  0  0  0  0  0  0
   21.3642  -12.8572  -19.8090 N   0  0  0  0  0  0  0  0  0  0  0  0
   20.7700  -10.7637  -18.6977 C   0  0  0  0  0  0  0  0  0  0  0  0
   21.9354  -10.5877  -18.2177 O   0  0  0  0  0  0  0  0  0  0  0  0
   19.5146  -15.2957  -18.0138 C   0  0  0  0  0  0  0  0  0  0  0  0
   18.7857  -16.3936  -18.4782 C   0  0  0  0  0  0  0  0  0  0  0  0
   19.9549   -9.6053  -18.7593 N   0  0  0  0  0  0  0  0  0  0  0  0
   20.4957   -8.2504  -18.5267 C   0  0  1  0  0  0  0  0  0  0  0  0
   19.7830   -7.2839  -19.4260 C   0  0  0  0  0  0  0  0  0  0  0  0
   20.2051   -5.9030  -19.1718 C   0  0  0  0  0  0  0  0  0  0  0  0
   19.5695   -4.9510  -18.3640 C   0  0  0  0  0  0  0  0  0  0  0  0
   20.2420   -3.7964  -18.4124 N   0  0  0  0  0  0  0  0  0  0  0  0
   21.2983   -3.9220  -19.2116 C   0  0  0  0  0  0  0  0  0  0  0  0
   22.2883   -3.0082  -19.5758 C   0  0  0  0  0  0  0  0  0  0  0  0
   23.2682   -3.4472  -20.4373 C   0  0  0  0  0  0  0  0  0  0  0  0
   23.3014   -4.7384  -20.9426 C   0  0  0  0  0  0  0  0  0  0  0  0
   22.2928   -5.6101  -20.5495 C   0  0  0  0  0  0  0  0  0  0  0  0
   21.3006   -5.2119  -19.6944 C   0  0  0  0  0  0  0  0  0  0  0  0
   20.3363   -7.9995  -17.0885 C   0  0  0  0  0  0  0  0  0  0  0  0
   19.2631   -8.3916  -16.5153 O   0  0  0  0  0  0  0  0  0  0  0  0
   21.3153   -7.3514  -16.3041 N   0  0  0  0  0  0  0  0  0  0  0  0
   21.1035   -7.3302  -14.8543 C   0  0  1  0  0  0  0  0  0  0  0  0
   22.4492   -7.1001  -14.1677 C   0  0  0  0  0  0  0  0  0  0  0  0
   23.1345   -5.9886  -14.8532 C   0  0  0  0  0  0  0  0  0  0  0  0
   23.9789   -6.2569  -15.9335 C   0  0  0  0  0  0  0  0  0  0  0  0
   24.5946   -5.2248  -16.5867 C   0  0  0  0  0  0  0  0  0  0  0  0
   24.4338   -3.8992  -16.2413 C   0  0  0  0  0  0  0  0  0  0  0  0
   23.6045   -3.6331  -15.1803 C   0  0  0  0  0  0  0  0  0  0  0  0
   22.9770   -4.6580  -14.5119 C   0  0  0  0  0  0  0  0  0  0  0  0
   20.1869   -6.2412  -14.5348 C   0  0  0  0  0  0  0  0  0  0  0  0
   19.7822   -5.3359  -15.4906 O   0  0  0  0  0  0  0  0  0  0  0  0
   19.7438   -6.1024  -13.3725 O   0  0  0  0  0  0  0  0  0  0  0  0
  2  1  1  0
  3  2  2  0
  4  3  1  0
  5  4  2  0
  5 11  1  0
  6  5  1  0
  7  8  1  1
  7  6  1  0
  9  7  1  0
 10  9  2  0
 11 12  2  0
 12  2  1  0
 13  9  1  0
 14 13  1  0
 14 25  1  0
 14 15  1  6
 16 15  1  0
 17 16  2  0
 18 17  1  0
 19 18  1  0
 19 24  2  0
 20 21  2  0
 20 19  1  0
 21 22  1  0
 22 23  2  0
 24 23  1  0
 24 16  1  0
 25 26  2  0
 27 25  1  0
 27 28  1  0
 28 29  1  1
 29 30  1  0
 30 35  2  0
 31 32  2  0
 31 30  1  0
 32 33  1  0
 33 34  2  0
 35 34  1  0
 36 37  1  0
 36 28  1  0
 38 36  2  0
M  END
$$$$
