GWT.pdb
     RDKit          3D

 26 27  0  0  1  0  0  0  0  0999 V2000
   28.3049  -23.2873  -16.0616 N   0  0  0  0  0  0  0  0  0  0  0  0
   28.0902  -21.9431  -15.5344 C   0  0  0  0  0  0  0  0  0  0  0  0
   27.1230  -22.0243  -14.4033 C   0  0  0  0  0  0  0  0  0  0  0  0
   26.3755  -23.0056  -14.2469 O   0  0  0  0  0  0  0  0  0  0  0  0
   27.0580  -20.9370  -13.4730 N   0  0  0  0  0  0  0  0  0  0  0  0
   26.0936  -20.8552  -12.4223 C   0  0  1  0  0  0  0  0  0  0  0  0
   26.5143  -19.8890  -11.3350 C   0  0  0  0  0  0  0  0  0  0  0  0
   27.6103  -20.3771  -10.4944 C   0  0  0  0  0  0  0  0  0  0  0  0
   28.7772  -21.0384  -10.8605 C   0  0  0  0  0  0  0  0  0  0  0  0
   29.5019  -21.3007   -9.7567 N   0  0  0  0  0  0  0  0  0  0  0  0
   28.8495  -20.8346   -8.6880 C   0  0  0  0  0  0  0  0  0  0  0  0
   29.1737  -20.8579   -7.3602 C   0  0  0  0  0  0  0  0  0  0  0  0
   28.3295  -20.3020   -6.4095 C   0  0  0  0  0  0  0  0  0  0  0  0
   27.1497  -19.7211   -6.8255 C   0  0  0  0  0  0  0  0  0  0  0  0
   26.8534  -19.7128   -8.1541 C   0  0  0  0  0  0  0  0  0  0  0  0
   27.6703  -20.2566   -9.1271 C   0  0  0  0  0  0  0  0  0  0  0  0
   24.7398  -20.5071  -12.8564 C   0  0  0  0  0  0  0  0  0  0  0  0
   24.6062  -19.4948  -13.5984 O   0  0  0  0  0  0  0  0  0  0  0  0
   20.4088  -21.6250  -14.5555 C   0  0  0  0  0  0  0  0  0  0  0  0
   21.7994  -21.9551  -14.0597 C   0  0  1  0  0  0  0  0  0  0  0  0
   22.6807  -22.0920  -15.1451 O   0  0  0  0  0  0  0  0  0  0  0  0
   22.2704  -20.8682  -13.1082 C   0  0  2  0  0  0  0  0  0  0  0  0
   23.5492  -21.2082  -12.5179 N   0  0  0  0  0  0  0  0  0  0  0  0
   21.2703  -20.7758  -12.0284 C   0  0  0  0  0  0  0  0  0  0  0  0
   21.3675  -21.4277  -10.9650 O   0  0  0  0  0  0  0  0  0  0  0  0
   20.1863  -19.9423  -12.1917 O   0  0  0  0  0  0  0  0  0  0  0  0
  2  1  1  0
  3  2  1  0
  4  3  2  0
  5  3  1  0
  6  5  1  0
  7  8  1  0
  6  7  1  1
  8  9  2  0
  9 10  1  0
 11 10  1  0
 12 11  2  0
 13 12  1  0
 14 15  1  0
 14 13  2  0
 15 16  2  0
 16  8  1  0
 16 11  1  0
 17  6  1  0
 17 23  1  0
 18 17  2  0
 20 19  1  6
 20 21  1  0
 22 20  1  0
 22 23  1  1
 22 24  1  0
 24 25  2  0
 24 26  1  0
M  END
$$$$
