GWT.pdb
     RDKit          3D

 26 27  0  0  1  0  0  0  0  0999 V2000
   28.2789  -22.0958  -15.1579 N   0  0  0  0  0  0  0  0  0  0  0  0
   28.3470  -20.9899  -14.2074 C   0  0  0  0  0  0  0  0  0  0  0  0
   27.4862  -21.3161  -13.0352 C   0  0  0  0  0  0  0  0  0  0  0  0
   26.6303  -22.2170  -13.0787 O   0  0  0  0  0  0  0  0  0  0  0  0
   27.6553  -20.5662  -11.8265 N   0  0  0  0  0  0  0  0  0  0  0  0
   26.7311  -20.6066  -10.7380 C   0  0  1  0  0  0  0  0  0  0  0  0
   27.1705  -19.7319   -9.5828 C   0  0  0  0  0  0  0  0  0  0  0  0
   26.6350  -20.1458   -8.2836 C   0  0  0  0  0  0  0  0  0  0  0  0
   25.4475  -20.8052   -7.9872 C   0  0  0  0  0  0  0  0  0  0  0  0
   25.3608  -20.9833   -6.6556 N   0  0  0  0  0  0  0  0  0  0  0  0
   26.4473  -20.4644   -6.0765 C   0  0  0  0  0  0  0  0  0  0  0  0
   26.8171  -20.3995   -4.7621 C   0  0  0  0  0  0  0  0  0  0  0  0
   28.0125  -19.8037   -4.3854 C   0  0  0  0  0  0  0  0  0  0  0  0
   28.8287  -19.2737   -5.3628 C   0  0  0  0  0  0  0  0  0  0  0  0
   28.4343  -19.3529   -6.6633 C   0  0  0  0  0  0  0  0  0  0  0  0
   27.2517  -19.9387   -7.0734 C   0  0  0  0  0  0  0  0  0  0  0  0
   25.3533  -20.2579  -11.0883 C   0  0  0  0  0  0  0  0  0  0  0  0
   25.1385  -19.0937  -11.5263 O   0  0  0  0  0  0  0  0  0  0  0  0
   21.3159  -21.3904  -13.3610 C   0  0  0  0  0  0  0  0  0  0  0  0
   22.6899  -21.6880  -12.8023 C   0  0  1  0  0  0  0  0  0  0  0  0
   23.6661  -21.5087  -13.7965 O   0  0  0  0  0  0  0  0  0  0  0  0
   22.9574  -20.7894  -11.6067 C   0  0  2  0  0  0  0  0  0  0  0  0
   24.2230  -21.1148  -10.9808 N   0  0  0  0  0  0  0  0  0  0  0  0
   21.8796  -21.0360  -10.6310 C   0  0  0  0  0  0  0  0  0  0  0  0
   22.0684  -21.6648   -9.5660 O   0  0  0  0  0  0  0  0  0  0  0  0
   20.6155  -20.5587  -10.8973 O   0  0  0  0  0  0  0  0  0  0  0  0
  2  1  1  0
  3  2  1  0
  4  3  2  0
  5  3  1  0
  6  5  1  0
  7  8  1  0
  6  7  1  1
  8  9  2  0
  9 10  1  0
 11 10  1  0
 12 11  2  0
 13 12  1  0
 14 15  1  0
 14 13  2  0
 15 16  2  0
 16  8  1  0
 16 11  1  0
 17  6  1  0
 17 23  1  0
 18 17  2  0
 20 19  1  6
 20 21  1  0
 22 20  1  0
 22 23  1  1
 22 24  1  0
 24 25  2  0
 24 26  1  0
M  END
$$$$
