GWT.pdb
     RDKit          3D

 26 27  0  0  1  0  0  0  0  0999 V2000
   29.2199  -21.7327  -14.2373 N   0  0  0  0  0  0  0  0  0  0  0  0
   28.8337  -20.6499  -13.3376 C   0  0  0  0  0  0  0  0  0  0  0  0
   27.7067  -21.1202  -12.4831 C   0  0  0  0  0  0  0  0  0  0  0  0
   26.9904  -22.0822  -12.8109 O   0  0  0  0  0  0  0  0  0  0  0  0
   27.4470  -20.4397  -11.2496 N   0  0  0  0  0  0  0  0  0  0  0  0
   26.2976  -20.6889  -10.4388 C   0  0  1  0  0  0  0  0  0  0  0  0
   26.4332  -20.0878   -9.0557 C   0  0  0  0  0  0  0  0  0  0  0  0
   27.6779  -20.4438   -8.3698 C   0  0  0  0  0  0  0  0  0  0  0  0
   28.7550  -21.1942   -8.8273 C   0  0  0  0  0  0  0  0  0  0  0  0
   29.6858  -21.2692   -7.8575 N   0  0  0  0  0  0  0  0  0  0  0  0
   29.2533  -20.5957   -6.7878 C   0  0  0  0  0  0  0  0  0  0  0  0
   29.8335  -20.3831   -5.5684 C   0  0  0  0  0  0  0  0  0  0  0  0
   29.1890  -19.6377   -4.5914 C   0  0  0  0  0  0  0  0  0  0  0  0
   27.9454  -19.1099   -4.8694 C   0  0  0  0  0  0  0  0  0  0  0  0
   27.3924  -19.3382   -6.0922 C   0  0  0  0  0  0  0  0  0  0  0  0
   28.0057  -20.0750   -7.0875 C   0  0  0  0  0  0  0  0  0  0  0  0
   25.0290  -20.2440  -11.0176 C   0  0  0  0  0  0  0  0  0  0  0  0
   24.8885  -19.0092  -11.2382 O   0  0  0  0  0  0  0  0  0  0  0  0
   23.7790  -20.6792  -14.3172 C   0  0  0  0  0  0  0  0  0  0  0  0
   22.6493  -21.1783  -13.4437 C   0  0  1  0  0  0  0  0  0  0  0  0
   22.6716  -22.5814  -13.3780 O   0  0  0  0  0  0  0  0  0  0  0  0
   22.7696  -20.5653  -12.0587 C   0  0  2  0  0  0  0  0  0  0  0  0
   23.9291  -21.0794  -11.3582 N   0  0  0  0  0  0  0  0  0  0  0  0
   21.5622  -20.9552  -11.3071 C   0  0  0  0  0  0  0  0  0  0  0  0
   21.6028  -21.7299  -10.3255 O   0  0  0  0  0  0  0  0  0  0  0  0
   20.3414  -20.4507  -11.6963 O   0  0  0  0  0  0  0  0  0  0  0  0
  2  1  1  0
  3  2  1  0
  4  3  2  0
  5  3  1  0
  6  5  1  0
  7  8  1  0
  6  7  1  1
  8  9  2  0
  9 10  1  0
 11 10  1  0
 12 11  2  0
 13 12  1  0
 14 15  1  0
 14 13  2  0
 15 16  2  0
 16  8  1  0
 16 11  1  0
 17  6  1  0
 17 23  1  0
 18 17  2  0
 20 19  1  6
 20 21  1  0
 22 20  1  0
 22 23  1  1
 22 24  1  0
 24 25  2  0
 24 26  1  0
M  END
$$$$
