GWT.pdb
     RDKit          3D

 26 27  0  0  1  0  0  0  0  0999 V2000
   27.8317  -23.5345  -15.5753 N   0  0  0  0  0  0  0  0  0  0  0  0
   27.6292  -22.1756  -15.0821 C   0  0  0  0  0  0  0  0  0  0  0  0
   26.7015  -22.2255  -13.9167 C   0  0  0  0  0  0  0  0  0  0  0  0
   25.9335  -23.1851  -13.7285 O   0  0  0  0  0  0  0  0  0  0  0  0
   26.6998  -21.1329  -12.9902 N   0  0  0  0  0  0  0  0  0  0  0  0
   25.7195  -20.9712  -11.9639 C   0  0  1  0  0  0  0  0  0  0  0  0
   26.1971  -20.0552  -10.8569 C   0  0  0  0  0  0  0  0  0  0  0  0
   27.3666  -20.5564  -10.1307 C   0  0  0  0  0  0  0  0  0  0  0  0
   28.4590  -21.2744  -10.6036 C   0  0  0  0  0  0  0  0  0  0  0  0
   29.2986  -21.5267   -9.5819 N   0  0  0  0  0  0  0  0  0  0  0  0
   28.7922  -20.9994   -8.4636 C   0  0  0  0  0  0  0  0  0  0  0  0
   29.2686  -20.9899   -7.1823 C   0  0  0  0  0  0  0  0  0  0  0  0
   28.5611  -20.3696   -6.1623 C   0  0  0  0  0  0  0  0  0  0  0  0
   27.3615  -19.7579   -6.4610 C   0  0  0  0  0  0  0  0  0  0  0  0
   26.9122  -19.7836   -7.7458 C   0  0  0  0  0  0  0  0  0  0  0  0
   27.5903  -20.3915   -8.7851 C   0  0  0  0  0  0  0  0  0  0  0  0
   24.4147  -20.4984  -12.4292 C   0  0  0  0  0  0  0  0  0  0  0  0
   24.3630  -19.3541  -12.9594 O   0  0  0  0  0  0  0  0  0  0  0  0
   22.4768  -21.2781  -15.2428 C   0  0  0  0  0  0  0  0  0  0  0  0
   21.5098  -21.4965  -14.1002 C   0  0  1  0  0  0  0  0  0  0  0  0
   21.4295  -22.8640  -13.7884 O   0  0  0  0  0  0  0  0  0  0  0  0
   21.9572  -20.6874  -12.8946 C   0  0  2  0  0  0  0  0  0  0  0  0
   23.1880  -21.2130  -12.3396 N   0  0  0  0  0  0  0  0  0  0  0  0
   20.8986  -20.8092  -11.8752 C   0  0  0  0  0  0  0  0  0  0  0  0
   19.7774  -20.2689  -12.0030 O   0  0  0  0  0  0  0  0  0  0  0  0
   21.1484  -21.5440  -10.7376 O   0  0  0  0  0  0  0  0  0  0  0  0
  2  1  1  0
  3  2  1  0
  4  3  2  0
  5  3  1  0
  6  5  1  0
  7  8  1  0
  6  7  1  1
  8  9  2  0
  9 10  1  0
 11 10  1  0
 12 11  2  0
 13 12  1  0
 14 15  1  0
 14 13  2  0
 15 16  2  0
 16  8  1  0
 16 11  1  0
 17  6  1  0
 17 23  1  0
 18 17  2  0
 20 19  1  6
 20 21  1  0
 22 20  1  0
 22 23  1  1
 22 24  1  0
 24 25  2  0
 24 26  1  0
M  END
$$$$
