GWT.pdb
     RDKit          3D

 26 27  0  0  1  0  0  0  0  0999 V2000
   28.2178  -22.3997  -15.2646 N   0  0  0  0  0  0  0  0  0  0  0  0
   28.6934  -21.5268  -14.1955 C   0  0  0  0  0  0  0  0  0  0  0  0
   27.7272  -21.5921  -13.0625 C   0  0  0  0  0  0  0  0  0  0  0  0
   26.6250  -22.1576  -13.1703 O   0  0  0  0  0  0  0  0  0  0  0  0
   28.0852  -20.9838  -11.8160 N   0  0  0  0  0  0  0  0  0  0  0  0
   27.2227  -20.9529  -10.6776 C   0  0  1  0  0  0  0  0  0  0  0  0
   27.9052  -20.3665   -9.4598 C   0  0  0  0  0  0  0  0  0  0  0  0
   27.0993  -20.4257   -8.2378 C   0  0  0  0  0  0  0  0  0  0  0  0
   25.7702  -20.7987   -8.0735 C   0  0  0  0  0  0  0  0  0  0  0  0
   25.4413  -20.7025   -6.7716 N   0  0  0  0  0  0  0  0  0  0  0  0
   26.5069  -20.2811   -6.0846 C   0  0  0  0  0  0  0  0  0  0  0  0
   26.6718  -20.0333   -4.7505 C   0  0  0  0  0  0  0  0  0  0  0  0
   27.8901  -19.5951   -4.2510 C   0  0  0  0  0  0  0  0  0  0  0  0
   28.9406  -19.4116   -5.1258 C   0  0  0  0  0  0  0  0  0  0  0  0
   28.7469  -19.6664   -6.4489 C   0  0  0  0  0  0  0  0  0  0  0  0
   27.5483  -20.1034   -6.9799 C   0  0  0  0  0  0  0  0  0  0  0  0
   25.9558  -20.2498  -10.8853 C   0  0  0  0  0  0  0  0  0  0  0  0
   25.9887  -18.9890  -10.9353 O   0  0  0  0  0  0  0  0  0  0  0  0
   24.4652  -19.6450  -13.7791 C   0  0  0  0  0  0  0  0  0  0  0  0
   23.3491  -20.3339  -13.0254 C   0  0  1  0  0  0  0  0  0  0  0  0
   23.3261  -21.7031  -13.3389 O   0  0  0  0  0  0  0  0  0  0  0  0
   23.5361  -20.1190  -11.5330 C   0  0  2  0  0  0  0  0  0  0  0  0
   24.6792  -20.8586  -11.0374 N   0  0  0  0  0  0  0  0  0  0  0  0
   22.3253  -20.6339  -10.8670 C   0  0  0  0  0  0  0  0  0  0  0  0
   21.2135  -20.0685  -10.9635 O   0  0  0  0  0  0  0  0  0  0  0  0
   22.4164  -21.7800  -10.1089 O   0  0  0  0  0  0  0  0  0  0  0  0
  2  1  1  0
  3  2  1  0
  4  3  2  0
  5  3  1  0
  6  5  1  0
  7  8  1  0
  6  7  1  1
  8  9  2  0
  9 10  1  0
 11 10  1  0
 12 11  2  0
 13 12  1  0
 14 15  1  0
 14 13  2  0
 15 16  2  0
 16  8  1  0
 16 11  1  0
 17  6  1  0
 17 23  1  0
 18 17  2  0
 20 19  1  6
 20 21  1  0
 22 20  1  0
 22 23  1  1
 22 24  1  0
 24 25  2  0
 24 26  1  0
M  END
$$$$
