GWT.pdb
     RDKit          3D

 26 27  0  0  1  0  0  0  0  0999 V2000
   27.2091  -25.1007  -16.2124 N   0  0  0  0  0  0  0  0  0  0  0  0
   26.8385  -23.6896  -16.2609 C   0  0  0  0  0  0  0  0  0  0  0  0
   26.0377  -23.3657  -15.0463 C   0  0  0  0  0  0  0  0  0  0  0  0
   25.7011  -24.2399  -14.2286 O   0  0  0  0  0  0  0  0  0  0  0  0
   25.6480  -22.0059  -14.8205 N   0  0  0  0  0  0  0  0  0  0  0  0
   24.8026  -21.5966  -13.7441 C   0  0  1  0  0  0  0  0  0  0  0  0
   25.3149  -20.3473  -13.0589 C   0  0  0  0  0  0  0  0  0  0  0  0
   26.5262  -20.5578  -12.2623 C   0  0  0  0  0  0  0  0  0  0  0  0
   27.8524  -20.6292  -12.6733 C   0  0  0  0  0  0  0  0  0  0  0  0
   28.6378  -20.8357  -11.5996 N   0  0  0  0  0  0  0  0  0  0  0  0
   27.8715  -20.9010  -10.5071 C   0  0  0  0  0  0  0  0  0  0  0  0
   28.1984  -21.0942   -9.1940 C   0  0  0  0  0  0  0  0  0  0  0  0
   27.2188  -21.1252   -8.2116 C   0  0  0  0  0  0  0  0  0  0  0  0
   25.9005  -20.9573   -8.5809 C   0  0  0  0  0  0  0  0  0  0  0  0
   25.6051  -20.7669   -9.8960 C   0  0  0  0  0  0  0  0  0  0  0  0
   26.5545  -20.7304  -10.8995 C   0  0  0  0  0  0  0  0  0  0  0  0
   23.4010  -21.3859  -14.1094 C   0  0  0  0  0  0  0  0  0  0  0  0
   23.1633  -20.8203  -15.2125 O   0  0  0  0  0  0  0  0  0  0  0  0
   18.5856  -22.4409  -13.7215 C   0  0  0  0  0  0  0  0  0  0  0  0
   20.0029  -22.6821  -13.2510 C   0  0  1  0  0  0  0  0  0  0  0  0
   20.4244  -23.9694  -13.6233 O   0  0  0  0  0  0  0  0  0  0  0  0
   20.9188  -21.6185  -13.8326 C   0  0  2  0  0  0  0  0  0  0  0  0
   22.2708  -21.7618  -13.3316 N   0  0  0  0  0  0  0  0  0  0  0  0
   20.3968  -20.3112  -13.3934 C   0  0  0  0  0  0  0  0  0  0  0  0
   20.9095  -19.6645  -12.4531 O   0  0  0  0  0  0  0  0  0  0  0  0
   19.3036  -19.7775  -14.0389 O   0  0  0  0  0  0  0  0  0  0  0  0
  2  1  1  0
  3  2  1  0
  4  3  2  0
  5  3  1  0
  6  5  1  0
  7  8  1  0
  6  7  1  6
  8  9  2  0
  9 10  1  0
 11 10  1  0
 12 11  2  0
 13 12  1  0
 14 15  1  0
 14 13  2  0
 15 16  2  0
 16  8  1  0
 16 11  1  0
 17  6  1  0
 17 23  1  0
 18 17  2  0
 20 19  1  6
 20 21  1  0
 22 20  1  0
 22 23  1  1
 22 24  1  0
 24 25  2  0
 24 26  1  0
M  END
$$$$
