GWT.pdb
     RDKit          3D

 26 27  0  0  1  0  0  0  0  0999 V2000
   27.8465  -22.4567  -15.7022 N   0  0  0  0  0  0  0  0  0  0  0  0
   27.4881  -21.2782  -14.9188 C   0  0  0  0  0  0  0  0  0  0  0  0
   26.5219  -21.6864  -13.8599 C   0  0  0  0  0  0  0  0  0  0  0  0
   25.9258  -22.7769  -13.8990 O   0  0  0  0  0  0  0  0  0  0  0  0
   26.2778  -20.7917  -12.7681 N   0  0  0  0  0  0  0  0  0  0  0  0
   25.2436  -20.9898  -11.8027 C   0  0  1  0  0  0  0  0  0  0  0  0
   25.5984  -20.3964  -10.4557 C   0  0  0  0  0  0  0  0  0  0  0  0
   26.8889  -20.8453   -9.9272 C   0  0  0  0  0  0  0  0  0  0  0  0
   27.8643  -21.6323  -10.5288 C   0  0  0  0  0  0  0  0  0  0  0  0
   28.8907  -21.7959   -9.6732 N   0  0  0  0  0  0  0  0  0  0  0  0
   28.6183  -21.1447   -8.5388 C   0  0  0  0  0  0  0  0  0  0  0  0
   29.3409  -21.0131   -7.3860 C   0  0  0  0  0  0  0  0  0  0  0  0
   28.8520  -20.2751   -6.3173 C   0  0  0  0  0  0  0  0  0  0  0  0
   27.6174  -19.6715   -6.4350 C   0  0  0  0  0  0  0  0  0  0  0  0
   26.9206  -19.8201   -7.5949 C   0  0  0  0  0  0  0  0  0  0  0  0
   27.3770  -20.5471   -8.6779 C   0  0  0  0  0  0  0  0  0  0  0  0
   23.9273  -20.4883  -12.2005 C   0  0  0  0  0  0  0  0  0  0  0  0
   23.8868  -19.4145  -12.8628 O   0  0  0  0  0  0  0  0  0  0  0  0
   21.8424  -22.9949  -13.9412 C   0  0  0  0  0  0  0  0  0  0  0  0
   21.6499  -21.5024  -14.0949 C   0  0  1  0  0  0  0  0  0  0  0  0
   20.5265  -21.2389  -14.8962 O   0  0  0  0  0  0  0  0  0  0  0  0
   21.5032  -20.8655  -12.7233 C   0  0  2  0  0  0  0  0  0  0  0  0
   22.6777  -21.1022  -11.9085 N   0  0  0  0  0  0  0  0  0  0  0  0
   20.3475  -21.5075  -12.0700 C   0  0  0  0  0  0  0  0  0  0  0  0
   19.1735  -21.3457  -12.4712 O   0  0  0  0  0  0  0  0  0  0  0  0
   20.5629  -22.3163  -10.9765 O   0  0  0  0  0  0  0  0  0  0  0  0
  2  1  1  0
  3  2  1  0
  4  3  2  0
  5  3  1  0
  6  5  1  0
  7  8  1  0
  6  7  1  1
  8  9  2  0
  9 10  1  0
 11 10  1  0
 12 11  2  0
 13 12  1  0
 14 15  1  0
 14 13  2  0
 15 16  2  0
 16  8  1  0
 16 11  1  0
 17  6  1  0
 17 23  1  0
 18 17  2  0
 20 19  1  1
 20 21  1  0
 22 20  1  0
 22 23  1  1
 22 24  1  0
 24 25  2  0
 24 26  1  0
M  END
$$$$
