GWT.pdb
     RDKit          3D

 26 27  0  0  1  0  0  0  0  0999 V2000
   28.6406  -21.4960  -14.5879 N   0  0  0  0  0  0  0  0  0  0  0  0
   28.3481  -20.5298  -13.5335 C   0  0  0  0  0  0  0  0  0  0  0  0
   27.2793  -21.0893  -12.6583 C   0  0  0  0  0  0  0  0  0  0  0  0
   26.6564  -22.1223  -12.9601 O   0  0  0  0  0  0  0  0  0  0  0  0
   26.9656  -20.4124  -11.4355 N   0  0  0  0  0  0  0  0  0  0  0  0
   25.9086  -20.8125  -10.5618 C   0  0  1  0  0  0  0  0  0  0  0  0
   26.1277  -20.3318   -9.1428 C   0  0  0  0  0  0  0  0  0  0  0  0
   27.4179  -20.7262   -8.5718 C   0  0  0  0  0  0  0  0  0  0  0  0
   28.4263  -21.5079   -9.1239 C   0  0  0  0  0  0  0  0  0  0  0  0
   29.4381  -21.6124   -8.2420 N   0  0  0  0  0  0  0  0  0  0  0  0
   29.1245  -20.9279   -7.1383 C   0  0  0  0  0  0  0  0  0  0  0  0
   29.8186  -20.7349   -5.9766 C   0  0  0  0  0  0  0  0  0  0  0  0
   29.2877  -19.9720   -4.9462 C   0  0  0  0  0  0  0  0  0  0  0  0
   28.0405  -19.4066   -5.1113 C   0  0  0  0  0  0  0  0  0  0  0  0
   27.3727  -19.6161   -6.2789 C   0  0  0  0  0  0  0  0  0  0  0  0
   27.8711  -20.3695   -7.3247 C   0  0  0  0  0  0  0  0  0  0  0  0
   24.5696  -20.4049  -10.9901 C   0  0  0  0  0  0  0  0  0  0  0  0
   24.2565  -19.1900  -10.8518 O   0  0  0  0  0  0  0  0  0  0  0  0
   23.2537  -20.8550  -14.4964 C   0  0  0  0  0  0  0  0  0  0  0  0
   22.1718  -21.3370  -13.5554 C   0  0  1  0  0  0  0  0  0  0  0  0
   22.1768  -22.7404  -13.4901 O   0  0  0  0  0  0  0  0  0  0  0  0
   22.3854  -20.7261  -12.1808 C   0  0  2  0  0  0  0  0  0  0  0  0
   23.5785  -21.2563  -11.5525 N   0  0  0  0  0  0  0  0  0  0  0  0
   21.2212  -21.0995  -11.3562 C   0  0  0  0  0  0  0  0  0  0  0  0
   21.3161  -21.8524  -10.3615 O   0  0  0  0  0  0  0  0  0  0  0  0
   19.9803  -20.6038  -11.6894 O   0  0  0  0  0  0  0  0  0  0  0  0
  2  1  1  0
  3  2  1  0
  4  3  2  0
  5  3  1  0
  6  5  1  0
  7  8  1  0
  6  7  1  1
  8  9  2  0
  9 10  1  0
 11 10  1  0
 12 11  2  0
 13 12  1  0
 14 15  1  0
 14 13  2  0
 15 16  2  0
 16  8  1  0
 16 11  1  0
 17  6  1  0
 17 23  1  0
 18 17  2  0
 20 19  1  6
 20 21  1  0
 22 20  1  0
 22 23  1  1
 22 24  1  0
 24 25  2  0
 24 26  1  0
M  END
$$$$
