GWT.pdb
     RDKit          3D

 26 27  0  0  1  0  0  0  0  0999 V2000
   31.4297  -21.9889  -10.3987 N   0  0  0  0  0  0  0  0  0  0  0  0
   30.5129  -20.8969  -10.0856 C   0  0  0  0  0  0  0  0  0  0  0  0
   29.1497  -21.4638   -9.8809 C   0  0  0  0  0  0  0  0  0  0  0  0
   28.9031  -22.6676  -10.0715 O   0  0  0  0  0  0  0  0  0  0  0  0
   28.0979  -20.5910   -9.4521 N   0  0  0  0  0  0  0  0  0  0  0  0
   26.7360  -21.0023   -9.3225 C   0  0  1  0  0  0  0  0  0  0  0  0
   26.1476  -20.6153   -7.9821 C   0  0  0  0  0  0  0  0  0  0  0  0
   27.0430  -19.8106   -7.1474 C   0  0  0  0  0  0  0  0  0  0  0  0
   27.3710  -18.4634   -7.2479 C   0  0  0  0  0  0  0  0  0  0  0  0
   28.2357  -18.1442   -6.2666 N   0  0  0  0  0  0  0  0  0  0  0  0
   28.4813  -19.2335   -5.5330 C   0  0  0  0  0  0  0  0  0  0  0  0
   29.2814  -19.4153   -4.4397 C   0  0  0  0  0  0  0  0  0  0  0  0
   29.3839  -20.6570   -3.8287 C   0  0  0  0  0  0  0  0  0  0  0  0
   28.6619  -21.7135   -4.3434 C   0  0  0  0  0  0  0  0  0  0  0  0
   27.8736  -21.5025   -5.4330 C   0  0  0  0  0  0  0  0  0  0  0  0
   27.7482  -20.2804   -6.0658 C   0  0  0  0  0  0  0  0  0  0  0  0
   25.8451  -20.5197  -10.3790 C   0  0  0  0  0  0  0  0  0  0  0  0
   25.8149  -19.2765  -10.5952 O   0  0  0  0  0  0  0  0  0  0  0  0
   25.9284  -21.3184  -14.0439 C   0  0  0  0  0  0  0  0  0  0  0  0
   24.5078  -21.5533  -13.5802 C   0  0  1  0  0  0  0  0  0  0  0  0
   24.2831  -22.9261  -13.3841 O   0  0  0  0  0  0  0  0  0  0  0  0
   24.2549  -20.7711  -12.3025 C   0  0  2  0  0  0  0  0  0  0  0  0
   25.0023  -21.3268  -11.1925 N   0  0  0  0  0  0  0  0  0  0  0  0
   22.8165  -20.8904  -12.0001 C   0  0  0  0  0  0  0  0  0  0  0  0
   22.3917  -21.4544  -10.9673 O   0  0  0  0  0  0  0  0  0  0  0  0
   21.9022  -20.3633  -12.8847 O   0  0  0  0  0  0  0  0  0  0  0  0
  2  1  1  0
  3  2  1  0
  4  3  2  0
  5  3  1  0
  6  5  1  0
  7  8  1  0
  6  7  1  1
  8  9  2  0
  9 10  1  0
 11 10  1  0
 12 11  2  0
 13 12  1  0
 14 15  1  0
 14 13  2  0
 15 16  2  0
 16  8  1  0
 16 11  1  0
 17  6  1  0
 17 23  1  0
 18 17  2  0
 20 19  1  1
 20 21  1  0
 22 20  1  0
 22 23  1  1
 22 24  1  0
 24 25  2  0
 24 26  1  0
M  END
$$$$
