GWT.pdb
     RDKit          3D

 26 27  0  0  1  0  0  0  0  0999 V2000
   28.8969  -18.1507  -14.3129 N   0  0  0  0  0  0  0  0  0  0  0  0
   28.0534  -18.3174  -13.1332 C   0  0  0  0  0  0  0  0  0  0  0  0
   27.4202  -19.6656  -13.1873 C   0  0  0  0  0  0  0  0  0  0  0  0
   27.7794  -20.5279  -14.0081 O   0  0  0  0  0  0  0  0  0  0  0  0
   26.3681  -19.9701  -12.2641 N   0  0  0  0  0  0  0  0  0  0  0  0
   25.6708  -21.2168  -12.2471 C   0  0  1  0  0  0  0  0  0  0  0  0
   25.5290  -21.7728  -10.8459 C   0  0  0  0  0  0  0  0  0  0  0  0
   26.2644  -21.0187   -9.8276 C   0  0  0  0  0  0  0  0  0  0  0  0
   25.7967  -20.0830   -8.9120 C   0  0  0  0  0  0  0  0  0  0  0  0
   26.8264  -19.6412   -8.1657 N   0  0  0  0  0  0  0  0  0  0  0  0
   27.9448  -20.2550   -8.5624 C   0  0  0  0  0  0  0  0  0  0  0  0
   29.2326  -20.1458   -8.1171 C   0  0  0  0  0  0  0  0  0  0  0  0
   30.2513  -20.8956   -8.6878 C   0  0  0  0  0  0  0  0  0  0  0  0
   29.9445  -21.7594   -9.7184 C   0  0  0  0  0  0  0  0  0  0  0  0
   28.6534  -21.8470  -10.1408 C   0  0  0  0  0  0  0  0  0  0  0  0
   27.6151  -21.1159   -9.5956 C   0  0  0  0  0  0  0  0  0  0  0  0
   24.3481  -21.1897  -12.8734 C   0  0  0  0  0  0  0  0  0  0  0  0
   23.5335  -20.3091  -12.4807 O   0  0  0  0  0  0  0  0  0  0  0  0
   23.4820  -21.5837  -16.8229 C   0  0  0  0  0  0  0  0  0  0  0  0
   22.6065  -22.4488  -15.9435 C   0  0  1  0  0  0  0  0  0  0  0  0
   23.0642  -23.7769  -15.9614 O   0  0  0  0  0  0  0  0  0  0  0  0
   22.6003  -21.8929  -14.5295 C   0  0  2  0  0  0  0  0  0  0  0  0
   23.8895  -22.0701  -13.8923 N   0  0  0  0  0  0  0  0  0  0  0  0
   21.5965  -22.6592  -13.7681 C   0  0  0  0  0  0  0  0  0  0  0  0
   21.9097  -23.4550  -12.8550 O   0  0  0  0  0  0  0  0  0  0  0  0
   20.2627  -22.4968  -14.0697 O   0  0  0  0  0  0  0  0  0  0  0  0
  2  1  1  0
  3  2  1  0
  4  3  2  0
  5  3  1  0
  6  5  1  0
  7  8  1  0
  6  7  1  1
  8  9  2  0
  9 10  1  0
 11 10  1  0
 12 11  2  0
 13 12  1  0
 14 15  1  0
 14 13  2  0
 15 16  2  0
 16  8  1  0
 16 11  1  0
 17  6  1  0
 17 23  1  0
 18 17  2  0
 20 19  1  6
 20 21  1  0
 22 20  1  0
 22 23  1  1
 22 24  1  0
 24 25  2  0
 24 26  1  0
M  END
$$$$
