GWT.pdb
     RDKit          3D

 26 27  0  0  1  0  0  0  0  0999 V2000
   20.2227  -10.1793  -18.9040 N   0  0  0  0  0  0  0  0  0  0  0  0
   19.6388   -8.8587  -19.1190 C   0  0  0  0  0  0  0  0  0  0  0  0
   20.0292   -7.9752  -17.9839 C   0  0  0  0  0  0  0  0  0  0  0  0
   19.3115   -7.8425  -16.9772 O   0  0  0  0  0  0  0  0  0  0  0  0
   21.2686   -7.2612  -18.0614 N   0  0  0  0  0  0  0  0  0  0  0  0
   21.7242   -6.3608  -17.0502 C   0  0  1  0  0  0  0  0  0  0  0  0
   23.1063   -6.7197  -16.5466 C   0  0  0  0  0  0  0  0  0  0  0  0
   23.1347   -7.8880  -15.6632 C   0  0  0  0  0  0  0  0  0  0  0  0
   23.7117   -9.1362  -15.8677 C   0  0  0  0  0  0  0  0  0  0  0  0
   23.4923   -9.9076  -14.7864 N   0  0  0  0  0  0  0  0  0  0  0  0
   22.7947   -9.2070  -13.8877 C   0  0  0  0  0  0  0  0  0  0  0  0
   22.3351   -9.5489  -12.6465 C   0  0  0  0  0  0  0  0  0  0  0  0
   21.6205   -8.6430  -11.8755 C   0  0  0  0  0  0  0  0  0  0  0  0
   21.3783   -7.3833  -12.3823 C   0  0  0  0  0  0  0  0  0  0  0  0
   21.8482   -7.0713  -13.6213 C   0  0  0  0  0  0  0  0  0  0  0  0
   22.5627   -7.9480  -14.4154 C   0  0  0  0  0  0  0  0  0  0  0  0
   21.7216   -4.9493  -17.4375 C   0  0  0  0  0  0  0  0  0  0  0  0
   22.3669   -4.6264  -18.4732 O   0  0  0  0  0  0  0  0  0  0  0  0
   19.0021   -2.7398  -18.7082 C   0  0  0  0  0  0  0  0  0  0  0  0
   19.5830   -2.0796  -17.4774 C   0  0  1  0  0  0  0  0  0  0  0  0
   18.7945   -2.3734  -16.3524 O   0  0  0  0  0  0  0  0  0  0  0  0
   21.0144   -2.5480  -17.2777 C   0  0  2  0  0  0  0  0  0  0  0  0
   21.0545   -3.8972  -16.7509 N   0  0  0  0  0  0  0  0  0  0  0  0
   21.6309   -1.6446  -16.2885 C   0  0  0  0  0  0  0  0  0  0  0  0
   21.9683   -2.0285  -15.1466 O   0  0  0  0  0  0  0  0  0  0  0  0
   21.8452   -0.3276  -16.6293 O   0  0  0  0  0  0  0  0  0  0  0  0
  2  1  1  0
  3  2  1  0
  4  3  2  0
  5  3  1  0
  6  5  1  0
  7  8  1  0
  6  7  1  6
  8  9  2  0
  9 10  1  0
 11 10  1  0
 12 11  2  0
 13 12  1  0
 14 15  1  0
 14 13  2  0
 15 16  2  0
 16  8  1  0
 16 11  1  0
 17  6  1  0
 17 23  1  0
 18 17  2  0
 20 19  1  6
 20 21  1  0
 22 20  1  0
 22 23  1  1
 22 24  1  0
 24 25  2  0
 24 26  1  0
M  END
$$$$
