GWT.pdb
     RDKit          3D

 26 27  0  0  1  0  0  0  0  0999 V2000
   28.5945  -21.6491  -15.3552 N   0  0  0  0  0  0  0  0  0  0  0  0
   28.0108  -20.6272  -14.4915 C   0  0  0  0  0  0  0  0  0  0  0  0
   26.9891  -21.2699  -13.6171 C   0  0  0  0  0  0  0  0  0  0  0  0
   26.5448  -22.4072  -13.8519 O   0  0  0  0  0  0  0  0  0  0  0  0
   26.5097  -20.5509  -12.4746 N   0  0  0  0  0  0  0  0  0  0  0  0
   25.4599  -21.0240  -11.6291 C   0  0  1  0  0  0  0  0  0  0  0  0
   25.6394  -20.5799  -10.1927 C   0  0  0  0  0  0  0  0  0  0  0  0
   26.9581  -20.8874   -9.6336 C   0  0  0  0  0  0  0  0  0  0  0  0
   27.9956  -21.6359  -10.1777 C   0  0  0  0  0  0  0  0  0  0  0  0
   29.0269  -21.6571   -9.3125 N   0  0  0  0  0  0  0  0  0  0  0  0
   28.6978  -20.9506   -8.2273 C   0  0  0  0  0  0  0  0  0  0  0  0
   29.4014  -20.6812   -7.0867 C   0  0  0  0  0  0  0  0  0  0  0  0
   28.8500  -19.9101   -6.0733 C   0  0  0  0  0  0  0  0  0  0  0  0
   27.5726  -19.4153   -6.2337 C   0  0  0  0  0  0  0  0  0  0  0  0
   26.8961  -19.7001   -7.3801 C   0  0  0  0  0  0  0  0  0  0  0  0
   27.4143  -20.4638   -8.4087 C   0  0  0  0  0  0  0  0  0  0  0  0
   24.1101  -20.6611  -12.0636 C   0  0  0  0  0  0  0  0  0  0  0  0
   23.8441  -19.4327  -12.1797 O   0  0  0  0  0  0  0  0  0  0  0  0
   22.4418  -21.5081  -15.2925 C   0  0  0  0  0  0  0  0  0  0  0  0
   21.4643  -21.8844  -14.2010 C   0  0  1  0  0  0  0  0  0  0  0  0
   21.4964  -23.2712  -13.9792 O   0  0  0  0  0  0  0  0  0  0  0  0
   21.8021  -21.1208  -12.9317 C   0  0  2  0  0  0  0  0  0  0  0  0
   23.0599  -21.5703  -12.3701 N   0  0  0  0  0  0  0  0  0  0  0  0
   20.7311  -21.4046  -11.9586 C   0  0  0  0  0  0  0  0  0  0  0  0
   20.9311  -22.0592  -10.9112 O   0  0  0  0  0  0  0  0  0  0  0  0
   19.4609  -20.9342  -12.2073 O   0  0  0  0  0  0  0  0  0  0  0  0
  2  1  1  0
  3  2  1  0
  4  3  2  0
  5  3  1  0
  6  5  1  0
  7  8  1  0
  6  7  1  1
  8  9  2  0
  9 10  1  0
 11 10  1  0
 12 11  2  0
 13 12  1  0
 14 15  1  0
 14 13  2  0
 15 16  2  0
 16  8  1  0
 16 11  1  0
 17  6  1  0
 17 23  1  0
 18 17  2  0
 20 19  1  6
 20 21  1  0
 22 20  1  0
 22 23  1  1
 22 24  1  0
 24 25  2  0
 24 26  1  0
M  END
$$$$
