GWT.pdb
     RDKit          3D

 26 27  0  0  1  0  0  0  0  0999 V2000
   28.1237  -22.6604  -15.3109 N   0  0  0  0  0  0  0  0  0  0  0  0
   28.4004  -21.5362  -14.4217 C   0  0  0  0  0  0  0  0  0  0  0  0
   27.5016  -21.6342  -13.2367 C   0  0  0  0  0  0  0  0  0  0  0  0
   26.4242  -22.2534  -13.2784 O   0  0  0  0  0  0  0  0  0  0  0  0
   27.8967  -20.9941  -12.0176 N   0  0  0  0  0  0  0  0  0  0  0  0
   27.0549  -20.9014  -10.8673 C   0  0  1  0  0  0  0  0  0  0  0  0
   27.7562  -20.2434   -9.6978 C   0  0  0  0  0  0  0  0  0  0  0  0
   27.0663  -20.4123   -8.4165 C   0  0  0  0  0  0  0  0  0  0  0  0
   25.7769  -20.8645   -8.1605 C   0  0  0  0  0  0  0  0  0  0  0  0
   25.5611  -20.8572   -6.8317 N   0  0  0  0  0  0  0  0  0  0  0  0
   26.6620  -20.4173   -6.2155 C   0  0  0  0  0  0  0  0  0  0  0  0
   26.9328  -20.2341   -4.8882 C   0  0  0  0  0  0  0  0  0  0  0  0
   28.1680  -19.7591   -4.4707 C   0  0  0  0  0  0  0  0  0  0  0  0
   29.1262  -19.4721   -5.4204 C   0  0  0  0  0  0  0  0  0  0  0  0
   28.8279  -19.6643   -6.7346 C   0  0  0  0  0  0  0  0  0  0  0  0
   27.6094  -20.1355   -7.1852 C   0  0  0  0  0  0  0  0  0  0  0  0
   25.7809  -20.2165  -11.0916 C   0  0  0  0  0  0  0  0  0  0  0  0
   25.8098  -18.9639  -11.2440 O   0  0  0  0  0  0  0  0  0  0  0  0
   23.9938  -19.8127  -13.9517 C   0  0  0  0  0  0  0  0  0  0  0  0
   22.9734  -20.4387  -13.0269 C   0  0  1  0  0  0  0  0  0  0  0  0
   22.9251  -21.8281  -13.2286 O   0  0  0  0  0  0  0  0  0  0  0  0
   23.3241  -20.1084  -11.5860 C   0  0  2  0  0  0  0  0  0  0  0  0
   24.5013  -20.8348  -11.1546 N   0  0  0  0  0  0  0  0  0  0  0  0
   22.1837  -20.5362  -10.7546 C   0  0  0  0  0  0  0  0  0  0  0  0
   21.0709  -19.9659  -10.7958 O   0  0  0  0  0  0  0  0  0  0  0  0
   22.3444  -21.6029   -9.8985 O   0  0  0  0  0  0  0  0  0  0  0  0
  2  1  1  0
  3  2  1  0
  4  3  2  0
  5  3  1  0
  6  5  1  0
  7  8  1  0
  6  7  1  1
  8  9  2  0
  9 10  1  0
 11 10  1  0
 12 11  2  0
 13 12  1  0
 14 15  1  0
 14 13  2  0
 15 16  2  0
 16  8  1  0
 16 11  1  0
 17  6  1  0
 17 23  1  0
 18 17  2  0
 20 19  1  6
 20 21  1  0
 22 20  1  0
 22 23  1  1
 22 24  1  0
 24 25  2  0
 24 26  1  0
M  END
$$$$
