GWT.pdb
     RDKit          3D

 26 27  0  0  1  0  0  0  0  0999 V2000
   28.7475  -21.5340  -15.3991 N   0  0  0  0  0  0  0  0  0  0  0  0
   28.3308  -20.5609  -14.3939 C   0  0  0  0  0  0  0  0  0  0  0  0
   27.2393  -21.1604  -13.5749 C   0  0  0  0  0  0  0  0  0  0  0  0
   26.6826  -22.2239  -13.8991 O   0  0  0  0  0  0  0  0  0  0  0  0
   26.8246  -20.4866  -12.3807 N   0  0  0  0  0  0  0  0  0  0  0  0
   25.7516  -20.9383  -11.5529 C   0  0  1  0  0  0  0  0  0  0  0  0
   25.8845  -20.4470  -10.1269 C   0  0  0  0  0  0  0  0  0  0  0  0
   27.1746  -20.7583   -9.5064 C   0  0  0  0  0  0  0  0  0  0  0  0
   28.2528  -21.4701  -10.0198 C   0  0  0  0  0  0  0  0  0  0  0  0
   29.2342  -21.5116   -9.0992 N   0  0  0  0  0  0  0  0  0  0  0  0
   28.8337  -20.8536   -8.0076 C   0  0  0  0  0  0  0  0  0  0  0  0
   29.4679  -20.6203   -6.8194 C   0  0  0  0  0  0  0  0  0  0  0  0
   28.8483  -19.8979   -5.8094 C   0  0  0  0  0  0  0  0  0  0  0  0
   27.5741  -19.4148   -6.0223 C   0  0  0  0  0  0  0  0  0  0  0  0
   26.9675  -19.6629   -7.2154 C   0  0  0  0  0  0  0  0  0  0  0  0
   27.5546  -20.3778   -8.2421 C   0  0  0  0  0  0  0  0  0  0  0  0
   24.4140  -20.5976  -12.0401 C   0  0  0  0  0  0  0  0  0  0  0  0
   24.2041  -19.4008  -12.3822 O   0  0  0  0  0  0  0  0  0  0  0  0
   20.5443  -21.7228  -14.7061 C   0  0  0  0  0  0  0  0  0  0  0  0
   21.8419  -22.0974  -14.0246 C   0  0  1  0  0  0  0  0  0  0  0  0
   22.8963  -22.0895  -14.9529 O   0  0  0  0  0  0  0  0  0  0  0  0
   22.1128  -21.1322  -12.8829 C   0  0  2  0  0  0  0  0  0  0  0  0
   23.3182  -21.4958  -12.1657 N   0  0  0  0  0  0  0  0  0  0  0  0
   20.9719  -21.2305  -11.9538 C   0  0  0  0  0  0  0  0  0  0  0  0
   21.0578  -21.7979  -10.8421 O   0  0  0  0  0  0  0  0  0  0  0  0
   19.7640  -20.6789  -12.3188 O   0  0  0  0  0  0  0  0  0  0  0  0
  2  1  1  0
  3  2  1  0
  4  3  2  0
  5  3  1  0
  6  5  1  0
  7  8  1  0
  6  7  1  1
  8  9  2  0
  9 10  1  0
 11 10  1  0
 12 11  2  0
 13 12  1  0
 14 15  1  0
 14 13  2  0
 15 16  2  0
 16  8  1  0
 16 11  1  0
 17  6  1  0
 17 23  1  0
 18 17  2  0
 20 19  1  6
 20 21  1  0
 22 20  1  0
 22 23  1  1
 22 24  1  0
 24 25  2  0
 24 26  1  0
M  END
$$$$
