GWT.pdb
     RDKit          3D

 26 27  0  0  1  0  0  0  0  0999 V2000
   29.3896  -20.2941  -14.5930 N   0  0  0  0  0  0  0  0  0  0  0  0
   29.1129  -20.0755  -13.1764 C   0  0  0  0  0  0  0  0  0  0  0  0
   27.8879  -20.8401  -12.8072 C   0  0  0  0  0  0  0  0  0  0  0  0
   27.3109  -21.5875  -13.6162 O   0  0  0  0  0  0  0  0  0  0  0  0
   27.3655  -20.7053  -11.4802 N   0  0  0  0  0  0  0  0  0  0  0  0
   26.2366  -21.4367  -10.9994 C   0  0  1  0  0  0  0  0  0  0  0  0
   26.3751  -21.8050   -9.5373 C   0  0  0  0  0  0  0  0  0  0  0  0
   26.6486  -20.6653   -8.6583 C   0  0  0  0  0  0  0  0  0  0  0  0
   26.1376  -19.3732   -8.7025 C   0  0  0  0  0  0  0  0  0  0  0  0
   26.6675  -18.6531   -7.6960 N   0  0  0  0  0  0  0  0  0  0  0  0
   27.5032  -19.4292   -7.0000 C   0  0  0  0  0  0  0  0  0  0  0  0
   28.2707  -19.1596   -5.9015 C   0  0  0  0  0  0  0  0  0  0  0  0
   29.0765  -20.1377   -5.3361 C   0  0  0  0  0  0  0  0  0  0  0  0
   29.0928  -21.3954   -5.9021 C   0  0  0  0  0  0  0  0  0  0  0  0
   28.3182  -21.6346   -6.9957 C   0  0  0  0  0  0  0  0  0  0  0  0
   27.5047  -20.6849   -7.5838 C   0  0  0  0  0  0  0  0  0  0  0  0
   24.9465  -20.7726  -11.1921 C   0  0  0  0  0  0  0  0  0  0  0  0
   24.8645  -19.5528  -10.8779 O   0  0  0  0  0  0  0  0  0  0  0  0
   23.9198  -19.6574  -14.1670 C   0  0  0  0  0  0  0  0  0  0  0  0
   22.7424  -20.5131  -13.7550 C   0  0  1  0  0  0  0  0  0  0  0  0
   22.8547  -21.7951  -14.3183 O   0  0  0  0  0  0  0  0  0  0  0  0
   22.6746  -20.5873  -12.2390 C   0  0  2  0  0  0  0  0  0  0  0  0
   23.7654  -21.3773  -11.7048 N   0  0  0  0  0  0  0  0  0  0  0  0
   21.4055  -21.2551  -11.8952 C   0  0  0  0  0  0  0  0  0  0  0  0
   20.3002  -20.6727  -11.9618 O   0  0  0  0  0  0  0  0  0  0  0  0
   21.4323  -22.5693  -11.4844 O   0  0  0  0  0  0  0  0  0  0  0  0
  2  1  1  0
  3  2  1  0
  4  3  2  0
  5  3  1  0
  6  5  1  0
  7  8  1  0
  6  7  1  1
  8  9  2  0
  9 10  1  0
 11 10  1  0
 12 11  2  0
 13 12  1  0
 14 15  1  0
 14 13  2  0
 15 16  2  0
 16  8  1  0
 16 11  1  0
 17  6  1  0
 17 23  1  0
 18 17  2  0
 20 19  1  1
 20 21  1  0
 22 20  1  0
 22 23  1  6
 22 24  1  0
 24 25  2  0
 24 26  1  0
M  END
$$$$
