DTG.pdb
     RDKit          3D

 20 19  0  0  1  0  0  0  0  0999 V2000
    7.8167  -13.9882   16.1805 N   0  0  0  0  0  0  0  0  0  0  0  0
    8.6333  -14.8921   16.9290 C   0  0  1  0  0  0  0  0  0  0  0  0
    9.9409  -15.1039   16.1930 C   0  0  0  0  0  0  0  0  0  0  0  0
    9.7051  -15.8535   14.9333 C   0  0  0  0  0  0  0  0  0  0  0  0
    8.7326  -16.6476   14.8678 O   0  0  0  0  0  0  0  0  0  0  0  0
    8.8620  -14.4372   18.3239 C   0  0  0  0  0  0  0  0  0  0  0  0
    9.2782  -13.2858   18.5353 O   0  0  0  0  0  0  0  0  0  0  0  0
   10.5084  -15.7213   13.8185 O   0  0  0  0  0  0  0  0  0  0  0  0
    6.9919  -13.4116   20.9968 C   0  0  0  0  0  0  0  0  0  0  0  0
    7.7075  -14.5920   21.6188 C   0  0  1  0  0  0  0  0  0  0  0  0
    6.8523  -15.6573   21.8061 O   0  0  0  0  0  0  0  0  0  0  0  0
    8.9158  -14.9040   20.7942 C   0  0  2  0  0  0  0  0  0  0  0  0
    8.6194  -15.2816   19.4432 N   0  0  0  0  0  0  0  0  0  0  0  0
    9.8440  -15.8570   21.4634 C   0  0  0  0  0  0  0  0  0  0  0  0
   10.0925  -16.9958   20.9816 O   0  0  0  0  0  0  0  0  0  0  0  0
   10.5048  -15.5443   22.6811 N   0  0  0  0  0  0  0  0  0  0  0  0
   11.3731  -16.4831   23.3636 C   0  0  0  0  0  0  0  0  0  0  0  0
   11.1009  -16.4917   24.8027 C   0  0  0  0  0  0  0  0  0  0  0  0
   11.8748  -17.2862   25.6334 O   0  0  0  0  0  0  0  0  0  0  0  0
   10.1888  -15.8038   25.3169 O   0  0  0  0  0  0  0  0  0  0  0  0
  2  1  1  6
  3  2  1  0
  4  3  1  0
  4  5  2  0
  6  2  1  0
  7  6  2  0
  8  4  1  0
 10  9  1  6
 10 12  1  0
 11 10  1  0
 12 13  1  6
 13  6  1  0
 14 15  2  0
 14 12  1  0
 16 14  1  0
 17 18  1  0
 17 16  1  0
 18 19  1  0
 20 18  2  0
M  END
$$$$
