DTG.pdb
     RDKit          3D

 20 19  0  0  1  0  0  0  0  0999 V2000
   11.9294  -14.6111   18.3594 N   0  0  0  0  0  0  0  0  0  0  0  0
   12.6627  -15.1636   19.4554 C   0  0  1  0  0  0  0  0  0  0  0  0
   13.8679  -14.2888   19.7362 C   0  0  0  0  0  0  0  0  0  0  0  0
   14.8648  -14.4227   18.6443 C   0  0  0  0  0  0  0  0  0  0  0  0
   14.8870  -15.4794   17.9635 O   0  0  0  0  0  0  0  0  0  0  0  0
   11.8282  -15.3457   20.6700 C   0  0  0  0  0  0  0  0  0  0  0  0
   10.8369  -14.6187   20.8503 O   0  0  0  0  0  0  0  0  0  0  0  0
   15.7786  -13.4351   18.3356 O   0  0  0  0  0  0  0  0  0  0  0  0
    9.7006  -18.2483   23.7830 C   0  0  0  0  0  0  0  0  0  0  0  0
   10.6513  -18.0442   22.6226 C   0  0  1  0  0  0  0  0  0  0  0  0
   10.0403  -18.3183   21.4171 O   0  0  0  0  0  0  0  0  0  0  0  0
   11.2369  -16.6715   22.7232 C   0  0  2  0  0  0  0  0  0  0  0  0
   12.1247  -16.3349   21.6489 N   0  0  0  0  0  0  0  0  0  0  0  0
   11.8263  -16.3894   24.0614 C   0  0  0  0  0  0  0  0  0  0  0  0
   13.0634  -16.2008   24.2191 O   0  0  0  0  0  0  0  0  0  0  0  0
   11.0356  -16.3155   25.2388 N   0  0  0  0  0  0  0  0  0  0  0  0
   11.5996  -16.0322   26.5437 C   0  0  0  0  0  0  0  0  0  0  0  0
   10.5537  -16.0108   27.5689 C   0  0  0  0  0  0  0  0  0  0  0  0
   10.9128  -15.8668   28.8995 O   0  0  0  0  0  0  0  0  0  0  0  0
    9.3375  -16.1185   27.2886 O   0  0  0  0  0  0  0  0  0  0  0  0
  2  1  1  6
  3  2  1  0
  4  3  1  0
  4  5  2  0
  6  2  1  0
  7  6  2  0
  8  4  1  0
 10  9  1  1
 10 12  1  0
 11 10  1  0
 12 13  1  6
 13  6  1  0
 14 15  2  0
 14 12  1  0
 16 14  1  0
 17 18  1  0
 17 16  1  0
 18 19  1  0
 20 18  2  0
M  END
$$$$
