DTG.pdb
     RDKit          3D

 20 19  0  0  1  0  0  0  0  0999 V2000
   13.7731  -17.2386   18.2387 N   0  0  0  0  0  0  0  0  0  0  0  0
   12.5524  -16.9805   17.5405 C   0  0  1  0  0  0  0  0  0  0  0  0
   12.2933  -18.1083   16.5621 C   0  0  0  0  0  0  0  0  0  0  0  0
   13.3479  -18.1338   15.5173 C   0  0  0  0  0  0  0  0  0  0  0  0
   14.3134  -18.9291   15.6431 O   0  0  0  0  0  0  0  0  0  0  0  0
   11.4003  -16.7789   18.4553 C   0  0  0  0  0  0  0  0  0  0  0  0
   10.3008  -16.4313   17.9929 O   0  0  0  0  0  0  0  0  0  0  0  0
   13.3216  -17.3196   14.4029 O   0  0  0  0  0  0  0  0  0  0  0  0
    9.4544  -18.9020   20.2157 C   0  0  0  0  0  0  0  0  0  0  0  0
    9.1580  -17.4302   20.4112 C   0  0  1  0  0  0  0  0  0  0  0  0
    8.1255  -17.2391   21.3050 O   0  0  0  0  0  0  0  0  0  0  0  0
   10.4304  -16.7330   20.7749 C   0  0  2  0  0  0  0  0  0  0  0  0
   11.5090  -16.9714   19.8609 N   0  0  0  0  0  0  0  0  0  0  0  0
   10.8252  -16.9503   22.1942 C   0  0  0  0  0  0  0  0  0  0  0  0
   10.0085  -16.8028   23.1439 O   0  0  0  0  0  0  0  0  0  0  0  0
   12.1408  -17.3357   22.5656 N   0  0  0  0  0  0  0  0  0  0  0  0
   12.5270  -17.5747   23.9421 C   0  0  0  0  0  0  0  0  0  0  0  0
   13.4085  -16.5103   24.4273 C   0  0  0  0  0  0  0  0  0  0  0  0
   14.6721  -16.8375   24.8927 O   0  0  0  0  0  0  0  0  0  0  0  0
   13.0630  -15.3062   24.4384 O   0  0  0  0  0  0  0  0  0  0  0  0
  2  1  1  1
  3  2  1  0
  4  3  1  0
  4  5  2  0
  6  2  1  0
  7  6  2  0
  8  4  1  0
 10  9  1  1
 10 12  1  0
 11 10  1  0
 12 13  1  6
 13  6  1  0
 14 15  2  0
 14 12  1  0
 16 14  1  0
 17 18  1  0
 17 16  1  0
 18 19  1  0
 20 18  2  0
M  END
$$$$
