DTG.pdb
     RDKit          3D

 20 19  0  0  1  0  0  0  0  0999 V2000
    8.1506  -14.5734   15.0488 N   0  0  0  0  0  0  0  0  0  0  0  0
    8.7413  -15.5438   15.9168 C   0  0  1  0  0  0  0  0  0  0  0  0
    9.9667  -16.1293   15.2444 C   0  0  0  0  0  0  0  0  0  0  0  0
    9.5621  -17.0534   14.1552 C   0  0  0  0  0  0  0  0  0  0  0  0
    8.3553  -17.3920   14.0579 O   0  0  0  0  0  0  0  0  0  0  0  0
    9.0675  -14.9920   17.2562 C   0  0  0  0  0  0  0  0  0  0  0  0
    9.5647  -13.8573   17.3498 O   0  0  0  0  0  0  0  0  0  0  0  0
   10.4537  -17.5653   13.2339 O   0  0  0  0  0  0  0  0  0  0  0  0
    7.5601  -13.2747   19.4315 C   0  0  0  0  0  0  0  0  0  0  0  0
    7.8697  -14.4553   20.3272 C   0  0  1  0  0  0  0  0  0  0  0  0
    6.7543  -15.2407   20.5283 O   0  0  0  0  0  0  0  0  0  0  0  0
    9.0481  -15.1840   19.7633 C   0  0  2  0  0  0  0  0  0  0  0  0
    8.8290  -15.7235   18.4531 N   0  0  0  0  0  0  0  0  0  0  0  0
    9.6152  -16.1869   20.7068 C   0  0  0  0  0  0  0  0  0  0  0  0
    9.3210  -17.4113   20.6352 O   0  0  0  0  0  0  0  0  0  0  0  0
   10.5191  -15.8288   21.7422 N   0  0  0  0  0  0  0  0  0  0  0  0
   10.9928  -16.7777   22.7302 C   0  0  0  0  0  0  0  0  0  0  0  0
   12.0869  -16.2055   23.5182 C   0  0  0  0  0  0  0  0  0  0  0  0
   12.6141  -16.9332   24.5730 O   0  0  0  0  0  0  0  0  0  0  0  0
   12.5691  -15.0752   23.2745 O   0  0  0  0  0  0  0  0  0  0  0  0
  2  1  1  6
  3  2  1  0
  4  3  1  0
  4  5  2  0
  6  2  1  0
  7  6  2  0
  8  4  1  0
 10  9  1  6
 10 12  1  0
 11 10  1  0
 12 13  1  6
 13  6  1  0
 14 15  2  0
 14 12  1  0
 16 14  1  0
 17 18  1  0
 17 16  1  0
 18 19  1  0
 20 18  2  0
M  END
$$$$
