DTG.pdb
     RDKit          3D

 20 19  0  0  1  0  0  0  0  0999 V2000
   -6.2766  -25.9008   28.8257 N   0  0  0  0  0  0  0  0  0  0  0  0
   -4.8720  -25.6443   28.7519 C   0  0  1  0  0  0  0  0  0  0  0  0
   -4.1889  -26.2798   29.9460 C   0  0  0  0  0  0  0  0  0  0  0  0
   -4.7097  -25.6941   31.2069 C   0  0  0  0  0  0  0  0  0  0  0  0
   -4.6071  -24.4550   31.3931 O   0  0  0  0  0  0  0  0  0  0  0  0
   -4.2716  -26.1037   27.4739 C   0  0  0  0  0  0  0  0  0  0  0  0
   -4.9680  -26.7284   26.6563 O   0  0  0  0  0  0  0  0  0  0  0  0
   -5.3073  -26.4495   32.1958 O   0  0  0  0  0  0  0  0  0  0  0  0
   -4.5278  -25.9876   24.8512 C   0  0  0  0  0  0  0  0  0  0  0  0
   -3.0568  -25.6635   24.6993 C   0  0  1  0  0  0  0  0  0  0  0  0
   -2.8586  -24.3179   24.4722 O   0  0  0  0  0  0  0  0  0  0  0  0
   -2.3250  -26.2068   25.8854 C   0  0  2  0  0  0  0  0  0  0  0  0
   -2.9102  -25.8523   27.1454 N   0  0  0  0  0  0  0  0  0  0  0  0
   -0.8617  -25.9349   25.8381 C   0  0  0  0  0  0  0  0  0  0  0  0
   -0.3449  -24.9570   26.4442 O   0  0  0  0  0  0  0  0  0  0  0  0
    0.0399  -26.7565   25.1106 N   0  0  0  0  0  0  0  0  0  0  0  0
    1.4769  -26.5719   25.1552 C   0  0  0  0  0  0  0  0  0  0  0  0
    1.8910  -25.4946   24.2533 C   0  0  0  0  0  0  0  0  0  0  0  0
    3.2301  -25.1444   24.1871 O   0  0  0  0  0  0  0  0  0  0  0  0
    1.0763  -24.8721   23.5334 O   0  0  0  0  0  0  0  0  0  0  0  0
  2  1  1  6
  3  2  1  0
  4  3  1  0
  4  5  2  0
  6  2  1  0
  7  6  2  0
  8  4  1  0
 10  9  1  1
 10 12  1  0
 11 10  1  0
 12 13  1  1
 13  6  1  0
 14 15  2  0
 14 12  1  0
 16 14  1  0
 17 18  1  0
 17 16  1  0
 18 19  1  0
 20 18  2  0
M  END
$$$$
