DTG.pdb
     RDKit          3D

 20 19  0  0  1  0  0  0  0  0999 V2000
    8.6257  -16.6860   15.6308 N   0  0  0  0  0  0  0  0  0  0  0  0
    7.9374  -16.8346   16.8750 C   0  0  1  0  0  0  0  0  0  0  0  0
    7.7250  -18.3095   17.1506 C   0  0  0  0  0  0  0  0  0  0  0  0
    6.9108  -18.9214   16.0704 C   0  0  0  0  0  0  0  0  0  0  0  0
    7.4598  -19.7194   15.2688 O   0  0  0  0  0  0  0  0  0  0  0  0
    8.6376  -16.1664   18.0011 C   0  0  0  0  0  0  0  0  0  0  0  0
    9.8768  -16.0780   17.9895 O   0  0  0  0  0  0  0  0  0  0  0  0
    5.5670  -18.6556   15.8998 O   0  0  0  0  0  0  0  0  0  0  0  0
    7.5818  -12.8258   19.6488 C   0  0  0  0  0  0  0  0  0  0  0  0
    7.8355  -13.8092   20.7716 C   0  0  1  0  0  0  0  0  0  0  0  0
    6.6680  -14.1342   21.4296 O   0  0  0  0  0  0  0  0  0  0  0  0
    8.5825  -14.9809   20.2180 C   0  0  2  0  0  0  0  0  0  0  0  0
    7.9336  -15.6159   19.1083 N   0  0  0  0  0  0  0  0  0  0  0  0
    8.9994  -15.9512   21.2679 C   0  0  0  0  0  0  0  0  0  0  0  0
    8.2637  -16.9149   21.6157 O   0  0  0  0  0  0  0  0  0  0  0  0
   10.2463  -15.8525   21.9406 N   0  0  0  0  0  0  0  0  0  0  0  0
   10.6253  -16.7418   23.0208 C   0  0  0  0  0  0  0  0  0  0  0  0
   12.0080  -16.4955   23.4363 C   0  0  0  0  0  0  0  0  0  0  0  0
   12.4928  -17.1155   24.5768 O   0  0  0  0  0  0  0  0  0  0  0  0
   12.7763  -15.7405   22.7967 O   0  0  0  0  0  0  0  0  0  0  0  0
  2  1  1  6
  3  2  1  0
  4  3  1  0
  4  5  2  0
  6  2  1  0
  7  6  2  0
  8  4  1  0
 10  9  1  6
 10 12  1  0
 11 10  1  0
 12 13  1  6
 13  6  1  0
 14 15  2  0
 14 12  1  0
 16 14  1  0
 17 18  1  0
 17 16  1  0
 18 19  1  0
 20 18  2  0
M  END
$$$$
