DTG.pdb
     RDKit          3D

 20 19  0  0  1  0  0  0  0  0999 V2000
    8.8272  -15.6088   15.1455 N   0  0  0  0  0  0  0  0  0  0  0  0
    8.6821  -16.3198   16.3774 C   0  0  1  0  0  0  0  0  0  0  0  0
    9.4659  -17.6143   16.2976 C   0  0  0  0  0  0  0  0  0  0  0  0
    8.9413  -18.4651   15.1999 C   0  0  0  0  0  0  0  0  0  0  0  0
    9.5569  -18.4969   14.1041 O   0  0  0  0  0  0  0  0  0  0  0  0
    9.0848  -15.5121   17.5565 C   0  0  0  0  0  0  0  0  0  0  0  0
   10.1218  -14.8293   17.5096 O   0  0  0  0  0  0  0  0  0  0  0  0
    7.7996  -19.2312   15.3228 O   0  0  0  0  0  0  0  0  0  0  0  0
    7.5540  -12.7271   19.2912 C   0  0  0  0  0  0  0  0  0  0  0  0
    7.7279  -13.7532   20.3907 C   0  0  1  0  0  0  0  0  0  0  0  0
    6.5144  -14.2698   20.7935 O   0  0  0  0  0  0  0  0  0  0  0  0
    8.7171  -14.7777   19.9332 C   0  0  2  0  0  0  0  0  0  0  0  0
    8.3177  -15.4899   18.7547 N   0  0  0  0  0  0  0  0  0  0  0  0
    9.1593  -15.6857   21.0274 C   0  0  0  0  0  0  0  0  0  0  0  0
    8.8406  -16.9058   21.0517 O   0  0  0  0  0  0  0  0  0  0  0  0
    9.9644  -15.2365   22.1078 N   0  0  0  0  0  0  0  0  0  0  0  0
   10.3379  -16.0944   23.2149 C   0  0  0  0  0  0  0  0  0  0  0  0
   11.7839  -16.3274   23.2275 C   0  0  0  0  0  0  0  0  0  0  0  0
   12.3613  -16.9403   24.3281 O   0  0  0  0  0  0  0  0  0  0  0  0
   12.5257  -15.9919   22.2753 O   0  0  0  0  0  0  0  0  0  0  0  0
  2  1  1  6
  3  2  1  0
  4  3  1  0
  4  5  2  0
  6  2  1  0
  7  6  2  0
  8  4  1  0
 10  9  1  6
 10 12  1  0
 11 10  1  0
 12 13  1  6
 13  6  1  0
 14 15  2  0
 14 12  1  0
 16 14  1  0
 17 18  1  0
 17 16  1  0
 18 19  1  0
 20 18  2  0
M  END
$$$$
