DTG.pdb
     RDKit          3D

 20 19  0  0  1  0  0  0  0  0999 V2000
    8.4088  -14.7848   14.9863 N   0  0  0  0  0  0  0  0  0  0  0  0
    8.6318  -15.7157   16.0484 C   0  0  1  0  0  0  0  0  0  0  0  0
    9.5650  -16.8066   15.5632 C   0  0  0  0  0  0  0  0  0  0  0  0
    8.8745  -17.6689   14.5713 C   0  0  0  0  0  0  0  0  0  0  0  0
    8.2894  -17.1315   13.5969 O   0  0  0  0  0  0  0  0  0  0  0  0
    9.1478  -15.0670   17.2804 C   0  0  0  0  0  0  0  0  0  0  0  0
   10.1852  -14.3853   17.2288 O   0  0  0  0  0  0  0  0  0  0  0  0
    8.8422  -19.0457   14.6657 O   0  0  0  0  0  0  0  0  0  0  0  0
    7.7235  -12.5903   19.5789 C   0  0  0  0  0  0  0  0  0  0  0  0
    8.0592  -13.7592   20.4806 C   0  0  1  0  0  0  0  0  0  0  0  0
    6.9191  -14.3833   20.9412 O   0  0  0  0  0  0  0  0  0  0  0  0
    9.0104  -14.6595   19.7579 C   0  0  2  0  0  0  0  0  0  0  0  0
    8.4902  -15.1984   18.5354 N   0  0  0  0  0  0  0  0  0  0  0  0
    9.6005  -15.7056   20.6382 C   0  0  0  0  0  0  0  0  0  0  0  0
    8.9977  -16.7849   20.8883 O   0  0  0  0  0  0  0  0  0  0  0  0
   10.8739  -15.5541   21.2488 N   0  0  0  0  0  0  0  0  0  0  0  0
   11.4076  -16.5143   22.1944 C   0  0  0  0  0  0  0  0  0  0  0  0
   12.7653  -16.1445   22.6010 C   0  0  0  0  0  0  0  0  0  0  0  0
   13.4095  -16.8951   23.5714 O   0  0  0  0  0  0  0  0  0  0  0  0
   13.3723  -15.1687   22.1023 O   0  0  0  0  0  0  0  0  0  0  0  0
  2  1  1  6
  3  2  1  0
  4  3  1  0
  4  5  2  0
  6  2  1  0
  7  6  2  0
  8  4  1  0
 10  9  1  6
 10 12  1  0
 11 10  1  0
 12 13  1  6
 13  6  1  0
 14 15  2  0
 14 12  1  0
 16 14  1  0
 17 18  1  0
 17 16  1  0
 18 19  1  0
 20 18  2  0
M  END
$$$$
