DTG.pdb
     RDKit          3D

 20 19  0  0  1  0  0  0  0  0999 V2000
    9.3033  -15.3882   14.9769 N   0  0  0  0  0  0  0  0  0  0  0  0
    9.2780  -16.1753   16.1702 C   0  0  1  0  0  0  0  0  0  0  0  0
   10.2508  -17.3280   16.0241 C   0  0  0  0  0  0  0  0  0  0  0  0
    9.8966  -18.1517   14.8408 C   0  0  0  0  0  0  0  0  0  0  0  0
   10.7470  -18.3070   13.9278 O   0  0  0  0  0  0  0  0  0  0  0  0
    9.5602  -15.3768   17.3898 C   0  0  0  0  0  0  0  0  0  0  0  0
   10.5238  -14.5926   17.4027 O   0  0  0  0  0  0  0  0  0  0  0  0
    8.6677  -18.7621   14.6906 O   0  0  0  0  0  0  0  0  0  0  0  0
    7.6278  -12.8306   18.9824 C   0  0  0  0  0  0  0  0  0  0  0  0
    7.8641  -13.8009   20.1203 C   0  0  1  0  0  0  0  0  0  0  0  0
    6.7021  -14.4532   20.4750 O   0  0  0  0  0  0  0  0  0  0  0  0
    8.9945  -14.7063   19.7464 C   0  0  2  0  0  0  0  0  0  0  0  0
    8.7581  -15.4769   18.5608 N   0  0  0  0  0  0  0  0  0  0  0  0
    9.4700  -15.5403   20.8848 C   0  0  0  0  0  0  0  0  0  0  0  0
    9.3609  -16.7968   20.8825 O   0  0  0  0  0  0  0  0  0  0  0  0
   10.0737  -14.9752   22.0395 N   0  0  0  0  0  0  0  0  0  0  0  0
   10.3942  -15.7573   23.2171 C   0  0  0  0  0  0  0  0  0  0  0  0
   11.8007  -16.1658   23.2033 C   0  0  0  0  0  0  0  0  0  0  0  0
   12.5475  -15.9826   22.0505 O   0  0  0  0  0  0  0  0  0  0  0  0
   12.3601  -16.6784   24.2001 O   0  0  0  0  0  0  0  0  0  0  0  0
  2  1  1  6
  3  2  1  0
  4  3  1  0
  4  5  2  0
  6  2  1  0
  7  6  2  0
  8  4  1  0
 10  9  1  6
 10 12  1  0
 11 10  1  0
 12 13  1  6
 13  6  1  0
 14 15  2  0
 14 12  1  0
 16 14  1  0
 17 18  1  0
 17 16  1  0
 18 19  1  0
 20 18  2  0
M  END
$$$$
