QSA.pdb
     RDKit          3D

 21 20  0  0  1  0  0  0  0  0999 V2000
   17.0125  -16.3767  -19.3010 N   0  0  0  0  0  0  0  0  0  0  0  0
   17.6070  -15.5882  -18.2968 C   0  0  0  0  0  0  0  0  0  0  0  0
   16.8682  -14.8493  -17.5713 O   0  0  0  0  0  0  0  0  0  0  0  0
   19.0516  -15.5666  -18.0298 C   0  0  0  0  0  0  0  0  0  0  0  0
   19.5906  -14.2396  -17.5692 C   0  0  0  0  0  0  0  0  0  0  0  0
   20.0462  -13.3469  -18.6696 C   0  0  2  0  0  0  0  0  0  0  0  0
   21.2752  -13.9380  -19.2049 N   0  0  0  0  0  0  0  0  0  0  0  0
   20.2834  -11.9478  -18.2256 C   0  0  0  0  0  0  0  0  0  0  0  0
   21.4435  -11.6804  -17.8154 O   0  0  0  0  0  0  0  0  0  0  0  0
   18.7441   -7.3132  -18.1773 O   0  0  0  0  0  0  0  0  0  0  0  0
   18.4726   -8.6455  -18.4690 C   0  0  0  0  0  0  0  0  0  0  0  0
   19.5121   -9.5829  -17.9158 C   0  0  2  0  0  0  0  0  0  0  0  0
   19.2619  -10.9603  -18.2591 N   0  0  0  0  0  0  0  0  0  0  0  0
   19.7118   -9.4541  -16.4743 C   0  0  0  0  0  0  0  0  0  0  0  0
   19.0003  -10.1273  -15.6934 O   0  0  0  0  0  0  0  0  0  0  0  0
   22.0399   -7.6853  -14.0829 C   0  0  0  0  0  0  0  0  0  0  0  0
   20.8406   -8.5479  -14.4696 C   0  0  2  0  0  0  0  0  0  0  0  0
   20.6852   -8.5926  -15.9075 N   0  0  0  0  0  0  0  0  0  0  0  0
   19.6633   -7.9357  -13.8251 C   0  0  0  0  0  0  0  0  0  0  0  0
   18.8064   -7.3189  -14.5010 O   0  0  0  0  0  0  0  0  0  0  0  0
   19.5059   -8.0450  -12.4604 O   0  0  0  0  0  0  0  0  0  0  0  0
  2  3  2  0
  2  1  1  0
  4  2  1  0
  5  4  1  0
  6  7  1  1
  6  5  1  0
  8  6  1  0
  9  8  2  0
 10 11  1  0
 12 11  1  1
 12 13  1  0
 12 14  1  0
 13  8  1  0
 14 18  1  0
 15 14  2  0
 17 16  1  6
 17 19  1  0
 18 17  1  0
 19 20  2  0
 19 21  1  0
M  END
$$$$
