QSA.pdb
     RDKit          3D

 21 20  0  0  1  0  0  0  0  0999 V2000
   12.8215  -11.8488  -16.4407 N   0  0  0  0  0  0  0  0  0  0  0  0
   13.1129  -11.7088  -15.0700 C   0  0  0  0  0  0  0  0  0  0  0  0
   12.6310  -10.7191  -14.4326 O   0  0  0  0  0  0  0  0  0  0  0  0
   13.9518  -12.6514  -14.3175 C   0  0  0  0  0  0  0  0  0  0  0  0
   14.8617  -12.0170  -13.3009 C   0  0  0  0  0  0  0  0  0  0  0  0
   16.0752  -11.3770  -13.8782 C   0  0  2  0  0  0  0  0  0  0  0  0
   16.9984  -12.4628  -14.2174 N   0  0  0  0  0  0  0  0  0  0  0  0
   16.7187  -10.4064  -12.9539 C   0  0  0  0  0  0  0  0  0  0  0  0
   17.7394  -10.8128  -12.3383 O   0  0  0  0  0  0  0  0  0  0  0  0
   18.2920   -6.2040  -11.8009 O   0  0  0  0  0  0  0  0  0  0  0  0
   17.6749   -7.1201  -12.6457 C   0  0  0  0  0  0  0  0  0  0  0  0
   16.8558   -8.1373  -11.8975 C   0  0  2  0  0  0  0  0  0  0  0  0
   16.2157   -9.0901  -12.7693 N   0  0  0  0  0  0  0  0  0  0  0  0
   15.8729   -7.5484  -10.9911 C   0  0  0  0  0  0  0  0  0  0  0  0
   14.8060   -7.0871  -11.4581 O   0  0  0  0  0  0  0  0  0  0  0  0
   15.2914   -7.1939   -7.2857 C   0  0  0  0  0  0  0  0  0  0  0  0
   15.0403   -6.8837   -8.7597 C   0  0  2  0  0  0  0  0  0  0  0  0
   16.0698   -7.4722   -9.5888 N   0  0  0  0  0  0  0  0  0  0  0  0
   15.0349   -5.4135   -8.8799 C   0  0  0  0  0  0  0  0  0  0  0  0
   15.9531   -4.8130   -9.4865 O   0  0  0  0  0  0  0  0  0  0  0  0
   14.0047   -4.6924   -8.3163 O   0  0  0  0  0  0  0  0  0  0  0  0
  2  3  2  0
  2  1  1  0
  4  2  1  0
  5  4  1  0
  6  7  1  1
  6  5  1  0
  8  6  1  0
  9  8  2  0
 10 11  1  0
 12 11  1  6
 12 13  1  0
 12 14  1  0
 13  8  1  0
 14 18  1  0
 15 14  2  0
 17 16  1  1
 17 19  1  0
 18 17  1  0
 19 20  2  0
 19 21  1  0
M  END
$$$$
