QSA.pdb
     RDKit          3D

 21 20  0  0  1  0  0  0  0  0999 V2000
   27.7838  -13.8110  -15.7384 N   0  0  0  0  0  0  0  0  0  0  0  0
   26.8283  -12.8971  -16.2234 C   0  0  0  0  0  0  0  0  0  0  0  0
   27.2246  -11.8229  -16.7776 O   0  0  0  0  0  0  0  0  0  0  0  0
   25.3779  -13.1114  -16.1287 C   0  0  0  0  0  0  0  0  0  0  0  0
   24.5354  -11.9449  -16.5683 C   0  0  0  0  0  0  0  0  0  0  0  0
   23.0685  -12.1712  -16.4574 C   0  0  2  0  0  0  0  0  0  0  0  0
   22.7113  -13.1194  -17.5156 N   0  0  0  0  0  0  0  0  0  0  0  0
   22.2743  -10.9202  -16.5796 C   0  0  0  0  0  0  0  0  0  0  0  0
   21.9854  -10.5532  -17.7490 O   0  0  0  0  0  0  0  0  0  0  0  0
   19.0628  -10.3877  -15.3611 O   0  0  0  0  0  0  0  0  0  0  0  0
   19.6605   -9.2000  -14.9537 C   0  0  0  0  0  0  0  0  0  0  0  0
   21.0261   -9.0030  -15.5549 C   0  0  2  0  0  0  0  0  0  0  0  0
   21.8599  -10.1735  -15.4436 N   0  0  0  0  0  0  0  0  0  0  0  0
   21.7327   -7.8335  -15.0375 C   0  0  0  0  0  0  0  0  0  0  0  0
   22.3224   -7.9106  -13.9350 O   0  0  0  0  0  0  0  0  0  0  0  0
   22.6362   -4.3422  -16.1484 C   0  0  0  0  0  0  0  0  0  0  0  0
   22.4995   -5.4852  -15.1449 C   0  0  2  0  0  0  0  0  0  0  0  0
   21.7846   -6.5980  -15.7317 N   0  0  0  0  0  0  0  0  0  0  0  0
   21.7713   -4.9356  -13.9858 C   0  0  0  0  0  0  0  0  0  0  0  0
   22.3272   -4.1377  -13.1946 O   0  0  0  0  0  0  0  0  0  0  0  0
   20.4613   -5.3062  -13.7720 O   0  0  0  0  0  0  0  0  0  0  0  0
  2  3  2  0
  2  1  1  0
  4  2  1  0
  5  4  1  0
  6  7  1  6
  6  5  1  0
  8  6  1  0
  9  8  2  0
 10 11  1  0
 12 11  1  1
 12 13  1  0
 12 14  1  0
 13  8  1  0
 14 18  1  0
 15 14  2  0
 17 16  1  6
 17 19  1  0
 18 17  1  0
 19 20  2  0
 19 21  1  0
M  END
$$$$
