QSA.pdb
     RDKit          3D

 21 20  0  0  1  0  0  0  0  0999 V2000
   22.5812  -21.2936  -12.4118 N   0  0  0  0  0  0  0  0  0  0  0  0
   22.0829  -21.3942  -11.0984 C   0  0  0  0  0  0  0  0  0  0  0  0
   21.0072  -22.0410  -10.8922 O   0  0  0  0  0  0  0  0  0  0  0  0
   22.7400  -20.7893   -9.9318 C   0  0  0  0  0  0  0  0  0  0  0  0
   24.0108  -20.0438  -10.2367 C   0  0  0  0  0  0  0  0  0  0  0  0
   25.1656  -20.9161  -10.5845 C   0  0  2  0  0  0  0  0  0  0  0  0
   25.8731  -21.1913   -9.3315 N   0  0  0  0  0  0  0  0  0  0  0  0
   26.0802  -20.3026  -11.5834 C   0  0  0  0  0  0  0  0  0  0  0  0
   26.8923  -19.4455  -11.1458 O   0  0  0  0  0  0  0  0  0  0  0  0
   28.4689  -21.9607  -14.1631 O   0  0  0  0  0  0  0  0  0  0  0  0
   27.5667  -21.1357  -14.8259 C   0  0  0  0  0  0  0  0  0  0  0  0
   26.9600  -20.0967  -13.9216 C   0  0  2  0  0  0  0  0  0  0  0  0
   26.0462  -20.6585  -12.9589 N   0  0  0  0  0  0  0  0  0  0  0  0
   26.3192  -18.9964  -14.6380 C   0  0  0  0  0  0  0  0  0  0  0  0
   25.1290  -19.1165  -15.0097 O   0  0  0  0  0  0  0  0  0  0  0  0
   27.0891  -15.4472  -15.6626 C   0  0  0  0  0  0  0  0  0  0  0  0
   26.2812  -16.7431  -15.6555 C   0  0  2  0  0  0  0  0  0  0  0  0
   26.9874  -17.7820  -14.9374 N   0  0  0  0  0  0  0  0  0  0  0  0
   26.0795  -17.1148  -17.0687 C   0  0  0  0  0  0  0  0  0  0  0  0
   25.2022  -16.5510  -17.7645 O   0  0  0  0  0  0  0  0  0  0  0  0
   26.8680  -18.0960  -17.6294 O   0  0  0  0  0  0  0  0  0  0  0  0
  2  3  2  0
  2  1  1  0
  4  2  1  0
  5  4  1  0
  6  7  1  1
  6  5  1  0
  8  6  1  0
  9  8  2  0
 10 11  1  0
 12 11  1  6
 12 13  1  0
 12 14  1  0
 13  8  1  0
 14 18  1  0
 15 14  2  0
 17 16  1  6
 17 19  1  0
 18 17  1  0
 19 20  2  0
 19 21  1  0
M  END
$$$$
