QSA.pdb
     RDKit          3D

 21 20  0  0  1  0  0  0  0  0999 V2000
   24.9329  -13.8710  -17.9751 N   0  0  0  0  0  0  0  0  0  0  0  0
   24.8966  -14.2282  -16.6133 C   0  0  0  0  0  0  0  0  0  0  0  0
   25.2643  -15.3964  -16.2697 O   0  0  0  0  0  0  0  0  0  0  0  0
   24.4542  -13.3197  -15.5468 C   0  0  0  0  0  0  0  0  0  0  0  0
   24.0483  -11.9476  -16.0117 C   0  0  0  0  0  0  0  0  0  0  0  0
   22.6241  -11.8379  -16.4303 C   0  0  2  0  0  0  0  0  0  0  0  0
   22.5371  -12.4214  -17.7713 N   0  0  0  0  0  0  0  0  0  0  0  0
   22.1220  -10.4384  -16.4300 C   0  0  0  0  0  0  0  0  0  0  0  0
   22.6425   -9.6574  -17.2696 O   0  0  0  0  0  0  0  0  0  0  0  0
   18.9139   -9.1541  -13.8861 O   0  0  0  0  0  0  0  0  0  0  0  0
   19.0629   -8.6891  -15.1881 C   0  0  0  0  0  0  0  0  0  0  0  0
   20.4966   -8.6986  -15.6459 C   0  0  2  0  0  0  0  0  0  0  0  0
   21.1103   -9.9981  -15.5344 N   0  0  0  0  0  0  0  0  0  0  0  0
   21.3295   -7.6933  -14.9900 C   0  0  0  0  0  0  0  0  0  0  0  0
   21.9743   -8.0057  -13.9625 O   0  0  0  0  0  0  0  0  0  0  0  0
   22.5709   -4.1948  -15.6152 C   0  0  0  0  0  0  0  0  0  0  0  0
   22.2952   -5.4288  -14.7588 C   0  0  2  0  0  0  0  0  0  0  0  0
   21.4457   -6.3626  -15.4660 N   0  0  0  0  0  0  0  0  0  0  0  0
   21.6439   -4.9430  -13.5276 C   0  0  0  0  0  0  0  0  0  0  0  0
   20.4182   -5.1205  -13.3336 O   0  0  0  0  0  0  0  0  0  0  0  0
   22.3962   -4.2850  -12.5788 O   0  0  0  0  0  0  0  0  0  0  0  0
  2  3  2  0
  2  1  1  0
  4  2  1  0
  5  4  1  0
  6  7  1  6
  6  5  1  0
  8  6  1  0
  9  8  2  0
 10 11  1  0
 12 11  1  1
 12 13  1  0
 12 14  1  0
 13  8  1  0
 14 18  1  0
 15 14  2  0
 17 16  1  6
 17 19  1  0
 18 17  1  0
 19 20  2  0
 19 21  1  0
M  END
$$$$
