QSA.pdb
     RDKit          3D

 21 20  0  0  1  0  0  0  0  0999 V2000
   20.4116  -13.1097  -16.9768 N   0  0  0  0  0  0  0  0  0  0  0  0
   19.2126  -13.7788  -16.6631 C   0  0  0  0  0  0  0  0  0  0  0  0
   19.0902  -15.0068  -16.9711 O   0  0  0  0  0  0  0  0  0  0  0  0
   18.0760  -13.1360  -15.9897 C   0  0  0  0  0  0  0  0  0  0  0  0
   18.3199  -11.7180  -15.5500 C   0  0  0  0  0  0  0  0  0  0  0  0
   17.1919  -11.1070  -14.7952 C   0  0  2  0  0  0  0  0  0  0  0  0
   15.9683  -11.4469  -15.5255 N   0  0  0  0  0  0  0  0  0  0  0  0
   17.3228   -9.6339  -14.6414 C   0  0  0  0  0  0  0  0  0  0  0  0
   16.8745   -8.9311  -15.5853 O   0  0  0  0  0  0  0  0  0  0  0  0
   18.0061   -7.7926  -10.9403 O   0  0  0  0  0  0  0  0  0  0  0  0
   17.4894   -7.1147  -12.0390 C   0  0  0  0  0  0  0  0  0  0  0  0
   18.0480   -7.6156  -13.3437 C   0  0  2  0  0  0  0  0  0  0  0  0
   17.9201   -9.0433  -13.4950 N   0  0  0  0  0  0  0  0  0  0  0  0
   19.4298   -7.2079  -13.5863 C   0  0  0  0  0  0  0  0  0  0  0  0
   20.3570   -7.7850  -12.9727 O   0  0  0  0  0  0  0  0  0  0  0  0
   21.3322   -4.8456  -15.8373 C   0  0  0  0  0  0  0  0  0  0  0  0
   21.1744   -5.8621  -14.7086 C   0  0  2  0  0  0  0  0  0  0  0  0
   19.7782   -6.1765  -14.4950 N   0  0  0  0  0  0  0  0  0  0  0  0
   21.7717   -5.2465  -13.5085 C   0  0  0  0  0  0  0  0  0  0  0  0
   21.0509   -4.7286  -12.6231 O   0  0  0  0  0  0  0  0  0  0  0  0
   23.1418   -5.2421  -13.3611 O   0  0  0  0  0  0  0  0  0  0  0  0
  2  3  2  0
  2  1  1  0
  4  2  1  0
  5  4  1  0
  6  7  1  6
  6  5  1  0
  8  6  1  0
  9  8  2  0
 10 11  1  0
 12 11  1  1
 12 13  1  0
 12 14  1  0
 13  8  1  0
 14 18  1  0
 15 14  2  0
 17 16  1  6
 17 19  1  0
 18 17  1  0
 19 20  2  0
 19 21  1  0
M  END
$$$$
