QSA.pdb
     RDKit          3D

 21 20  0  0  1  0  0  0  0  0999 V2000
   19.9393  -12.9268  -19.6880 N   0  0  0  0  0  0  0  0  0  0  0  0
   20.5419  -11.8592  -20.3812 C   0  0  0  0  0  0  0  0  0  0  0  0
   21.1215  -12.0896  -21.4898 O   0  0  0  0  0  0  0  0  0  0  0  0
   20.5415  -10.4724  -19.8960 C   0  0  0  0  0  0  0  0  0  0  0  0
   19.7027  -10.2305  -18.6707 C   0  0  0  0  0  0  0  0  0  0  0  0
   20.4169  -10.4543  -17.3841 C   0  0  2  0  0  0  0  0  0  0  0  0
   20.0751  -11.8102  -16.9474 N   0  0  0  0  0  0  0  0  0  0  0  0
   20.0624   -9.4580  -16.3390 C   0  0  0  0  0  0  0  0  0  0  0  0
   18.8471   -9.3958  -16.0149 O   0  0  0  0  0  0  0  0  0  0  0  0
   20.9459   -7.3611  -12.2718 O   0  0  0  0  0  0  0  0  0  0  0  0
   21.1907   -8.2514  -13.3116 C   0  0  0  0  0  0  0  0  0  0  0  0
   20.7160   -7.7324  -14.6423 C   0  0  2  0  0  0  0  0  0  0  0  0
   21.0359   -8.6178  -15.7338 N   0  0  0  0  0  0  0  0  0  0  0  0
   21.1769   -6.3791  -14.9433 C   0  0  0  0  0  0  0  0  0  0  0  0
   22.3543   -6.2040  -15.3334 O   0  0  0  0  0  0  0  0  0  0  0  0
   19.7435   -2.9014  -15.2229 C   0  0  0  0  0  0  0  0  0  0  0  0
   20.8645   -3.9377  -15.1798 C   0  0  2  0  0  0  0  0  0  0  0  0
   20.3453   -5.2378  -14.8140 N   0  0  0  0  0  0  0  0  0  0  0  0
   21.8395   -3.4538  -14.1842 C   0  0  0  0  0  0  0  0  0  0  0  0
   22.4527   -2.3737  -14.3547 O   0  0  0  0  0  0  0  0  0  0  0  0
   22.0777   -4.2017  -13.0516 O   0  0  0  0  0  0  0  0  0  0  0  0
  2  3  2  0
  2  1  1  0
  4  2  1  0
  5  4  1  0
  6  7  1  1
  6  5  1  0
  8  6  1  0
  9  8  2  0
 10 11  1  0
 12 11  1  1
 12 13  1  0
 12 14  1  0
 13  8  1  0
 14 18  1  0
 15 14  2  0
 17 16  1  1
 17 19  1  0
 18 17  1  0
 19 20  2  0
 19 21  1  0
M  END
$$$$
