QSA.pdb
     RDKit          3D

 21 20  0  0  1  0  0  0  0  0999 V2000
   18.6028  -23.8803  -12.9226 N   0  0  0  0  0  0  0  0  0  0  0  0
   19.4270  -23.4592  -13.9840 C   0  0  0  0  0  0  0  0  0  0  0  0
   19.9869  -24.3345  -14.7178 O   0  0  0  0  0  0  0  0  0  0  0  0
   19.6837  -22.0481  -14.3026 C   0  0  0  0  0  0  0  0  0  0  0  0
   21.1252  -21.6285  -14.2033 C   0  0  0  0  0  0  0  0  0  0  0  0
   21.6046  -21.4044  -12.8122 C   0  0  2  0  0  0  0  0  0  0  0  0
   20.5942  -20.5747  -12.1511 N   0  0  0  0  0  0  0  0  0  0  0  0
   22.9412  -20.7558  -12.7531 C   0  0  0  0  0  0  0  0  0  0  0  0
   22.9509  -19.4971  -12.7179 O   0  0  0  0  0  0  0  0  0  0  0  0
   27.6898  -21.0750  -11.8236 O   0  0  0  0  0  0  0  0  0  0  0  0
   26.4236  -21.6499  -11.8306 C   0  0  0  0  0  0  0  0  0  0  0  0
   25.4436  -20.8816  -12.6760 C   0  0  2  0  0  0  0  0  0  0  0  0
   24.1468  -21.5081  -12.7369 N   0  0  0  0  0  0  0  0  0  0  0  0
   25.9271  -20.5985  -14.0253 C   0  0  0  0  0  0  0  0  0  0  0  0
   25.7073  -21.4235  -14.9419 O   0  0  0  0  0  0  0  0  0  0  0  0
   27.8197  -17.8829  -15.8508 C   0  0  0  0  0  0  0  0  0  0  0  0
   27.1094  -19.2274  -15.7093 C   0  0  2  0  0  0  0  0  0  0  0  0
   26.6431  -19.4192  -14.3531 N   0  0  0  0  0  0  0  0  0  0  0  0
   28.0944  -20.2592  -16.0852 C   0  0  0  0  0  0  0  0  0  0  0  0
   28.4574  -20.4001  -17.2769 O   0  0  0  0  0  0  0  0  0  0  0  0
   28.6213  -21.0785  -15.1105 O   0  0  0  0  0  0  0  0  0  0  0  0
  2  3  2  0
  2  1  1  0
  4  2  1  0
  5  4  1  0
  6  7  1  1
  6  5  1  0
  8  6  1  0
  9  8  2  0
 10 11  1  0
 12 11  1  6
 12 13  1  0
 12 14  1  0
 13  8  1  0
 14 18  1  0
 15 14  2  0
 17 16  1  1
 17 19  1  0
 18 17  1  0
 19 20  2  0
 19 21  1  0
M  END
$$$$
