QSA.pdb
     RDKit          3D

 21 20  0  0  1  0  0  0  0  0999 V2000
   18.4501   -8.8663  -20.2784 N   0  0  0  0  0  0  0  0  0  0  0  0
   17.4737   -9.8715  -20.4192 C   0  0  0  0  0  0  0  0  0  0  0  0
   17.1360  -10.2473  -21.5865 O   0  0  0  0  0  0  0  0  0  0  0  0
   16.8109  -10.5250  -19.2824 C   0  0  0  0  0  0  0  0  0  0  0  0
   17.2606  -10.0486  -17.9279 C   0  0  0  0  0  0  0  0  0  0  0  0
   18.4674  -10.7437  -17.4025 C   0  0  2  0  0  0  0  0  0  0  0  0
   18.0429  -12.0970  -17.0354 N   0  0  0  0  0  0  0  0  0  0  0  0
   19.0807  -10.0492  -16.2396 C   0  0  0  0  0  0  0  0  0  0  0  0
   18.6021  -10.3245  -15.1078 O   0  0  0  0  0  0  0  0  0  0  0  0
   23.0196   -9.1951  -16.0195 O   0  0  0  0  0  0  0  0  0  0  0  0
   22.1338   -9.2253  -14.9480 C   0  0  0  0  0  0  0  0  0  0  0  0
   20.8278   -8.5439  -15.2571 C   0  0  2  0  0  0  0  0  0  0  0  0
   20.1489   -9.1238  -16.3887 N   0  0  0  0  0  0  0  0  0  0  0  0
   20.9461   -7.0981  -15.4308 C   0  0  0  0  0  0  0  0  0  0  0  0
   21.0698   -6.6265  -16.5847 O   0  0  0  0  0  0  0  0  0  0  0  0
   20.7572   -3.9534  -13.3631 C   0  0  0  0  0  0  0  0  0  0  0  0
   21.1277   -4.7786  -14.5935 C   0  0  2  0  0  0  0  0  0  0  0  0
   20.9276   -6.1895  -14.3422 N   0  0  0  0  0  0  0  0  0  0  0  0
   22.5444   -4.4840  -14.8802 C   0  0  0  0  0  0  0  0  0  0  0  0
   23.4356   -5.3410  -14.6731 O   0  0  0  0  0  0  0  0  0  0  0  0
   22.8901   -3.2484  -15.3827 O   0  0  0  0  0  0  0  0  0  0  0  0
  2  3  2  0
  2  1  1  0
  4  2  1  0
  5  4  1  0
  6  7  1  1
  6  5  1  0
  8  6  1  0
  9  8  2  0
 10 11  1  0
 12 11  1  6
 12 13  1  0
 12 14  1  0
 13  8  1  0
 14 18  1  0
 15 14  2  0
 17 16  1  1
 17 19  1  0
 18 17  1  0
 19 20  2  0
 19 21  1  0
M  END
$$$$
