QSA.pdb
     RDKit          3D

 21 20  0  0  1  0  0  0  0  0999 V2000
   15.1622   -6.8730   -8.2292 N   0  0  0  0  0  0  0  0  0  0  0  0
   13.9246   -7.4704   -8.5375 C   0  0  0  0  0  0  0  0  0  0  0  0
   12.8951   -7.1434   -7.8659 O   0  0  0  0  0  0  0  0  0  0  0  0
   13.7456   -8.4635   -9.6053 C   0  0  0  0  0  0  0  0  0  0  0  0
   15.0108   -8.8691  -10.3114 C   0  0  0  0  0  0  0  0  0  0  0  0
   14.8000   -9.7616  -11.4838 C   0  0  2  0  0  0  0  0  0  0  0  0
   14.5031  -11.0922  -10.9474 N   0  0  0  0  0  0  0  0  0  0  0  0
   15.9716   -9.8104  -12.3979 C   0  0  0  0  0  0  0  0  0  0  0  0
   16.7645  -10.7759  -12.2398 O   0  0  0  0  0  0  0  0  0  0  0  0
   15.7760   -9.4510  -16.2724 O   0  0  0  0  0  0  0  0  0  0  0  0
   16.7416   -8.5809  -15.7780 C   0  0  0  0  0  0  0  0  0  0  0  0
   17.2167   -8.9643  -14.4023 C   0  0  2  0  0  0  0  0  0  0  0  0
   16.1920   -8.8252  -13.3982 N   0  0  0  0  0  0  0  0  0  0  0  0
   18.4280   -8.2635  -13.9826 C   0  0  0  0  0  0  0  0  0  0  0  0
   18.3356   -7.1070  -13.5101 O   0  0  0  0  0  0  0  0  0  0  0  0
   22.1455   -8.8971  -13.7577 C   0  0  0  0  0  0  0  0  0  0  0  0
   20.8760   -8.0499  -13.7075 C   0  0  2  0  0  0  0  0  0  0  0  0
   19.7213   -8.8360  -14.0849 N   0  0  0  0  0  0  0  0  0  0  0  0
   21.0869   -6.9293  -14.6433 C   0  0  0  0  0  0  0  0  0  0  0  0
   20.5491   -6.9254  -15.7758 O   0  0  0  0  0  0  0  0  0  0  0  0
   21.8870   -5.8732  -14.2648 O   0  0  0  0  0  0  0  0  0  0  0  0
  2  3  2  0
  2  1  1  0
  4  2  1  0
  5  4  1  0
  6  7  1  1
  6  5  1  0
  8  6  1  0
  9  8  2  0
 10 11  1  0
 12 11  1  6
 12 13  1  0
 12 14  1  0
 13  8  1  0
 14 18  1  0
 15 14  2  0
 17 16  1  6
 17 19  1  0
 18 17  1  0
 19 20  2  0
 19 21  1  0
M  END
$$$$
