QSA.pdb
     RDKit          3D

 21 20  0  0  1  0  0  0  0  0999 V2000
   25.7029  -37.6847   -5.5467 N   0  0  0  0  0  0  0  0  0  0  0  0
   26.6747  -37.7508   -6.5639 C   0  0  0  0  0  0  0  0  0  0  0  0
   26.4101  -38.3882   -7.6325 O   0  0  0  0  0  0  0  0  0  0  0  0
   27.9969  -37.1177   -6.4665 C   0  0  0  0  0  0  0  0  0  0  0  0
   28.2499  -36.3740   -5.1833 C   0  0  0  0  0  0  0  0  0  0  0  0
   27.9646  -34.9149   -5.2532 C   0  0  2  0  0  0  0  0  0  0  0  0
   29.0876  -34.3038   -5.9686 N   0  0  0  0  0  0  0  0  0  0  0  0
   27.7883  -34.2901   -3.9156 C   0  0  0  0  0  0  0  0  0  0  0  0
   28.8411  -34.0449   -3.2697 O   0  0  0  0  0  0  0  0  0  0  0  0
   23.9722  -33.7521   -2.0129 O   0  0  0  0  0  0  0  0  0  0  0  0
   24.9393  -32.7548   -1.9505 C   0  0  0  0  0  0  0  0  0  0  0  0
   26.3343  -33.2886   -2.1360 C   0  0  2  0  0  0  0  0  0  0  0  0
   26.5051  -33.9833   -3.3874 N   0  0  0  0  0  0  0  0  0  0  0  0
   26.7947  -34.1262   -1.0311 C   0  0  0  0  0  0  0  0  0  0  0  0
   26.7156  -35.3723   -1.1310 O   0  0  0  0  0  0  0  0  0  0  0  0
   28.4386  -33.7124    2.3462 C   0  0  0  0  0  0  0  0  0  0  0  0
   27.7976  -34.4910    1.1994 C   0  0  2  0  0  0  0  0  0  0  0  0
   27.3344  -33.5905    0.1659 N   0  0  0  0  0  0  0  0  0  0  0  0
   26.6770  -35.2491    1.7872 C   0  0  0  0  0  0  0  0  0  0  0  0
   25.4939  -35.0251    1.4383 O   0  0  0  0  0  0  0  0  0  0  0  0
   26.9373  -36.2168    2.7332 O   0  0  0  0  0  0  0  0  0  0  0  0
  2  3  2  0
  2  1  1  0
  4  2  1  0
  5  4  1  0
  6  7  1  1
  6  5  1  0
  8  6  1  0
  9  8  2  0
 10 11  1  0
 12 11  1  1
 12 13  1  0
 12 14  1  0
 13  8  1  0
 14 18  1  0
 15 14  2  0
 17 16  1  1
 17 19  1  0
 18 17  1  0
 19 20  2  0
 19 21  1  0
M  END
$$$$
