QSA.pdb
     RDKit          3D

 21 20  0  0  1  0  0  0  0  0999 V2000
   22.8818  -20.3852   -9.7185 N   0  0  0  0  0  0  0  0  0  0  0  0
   23.8118  -20.7068   -8.7110 C   0  0  0  0  0  0  0  0  0  0  0  0
   23.3871  -21.0194   -7.5534 O   0  0  0  0  0  0  0  0  0  0  0  0
   25.2664  -20.7047   -8.9176 C   0  0  0  0  0  0  0  0  0  0  0  0
   25.7166  -20.1582  -10.2451 C   0  0  0  0  0  0  0  0  0  0  0  0
   25.3756  -21.0189  -11.4106 C   0  0  2  0  0  0  0  0  0  0  0  0
   26.2427  -22.1968  -11.3274 N   0  0  0  0  0  0  0  0  0  0  0  0
   25.5474  -20.3282  -12.7160 C   0  0  0  0  0  0  0  0  0  0  0  0
   25.2583  -19.1029  -12.7427 O   0  0  0  0  0  0  0  0  0  0  0  0
   27.2978  -20.3885  -17.2714 O   0  0  0  0  0  0  0  0  0  0  0  0
   27.0858  -21.0760  -16.0813 C   0  0  0  0  0  0  0  0  0  0  0  0
   26.1612  -20.3437  -15.1464 C   0  0  2  0  0  0  0  0  0  0  0  0
   26.0118  -21.0067  -13.8752 N   0  0  0  0  0  0  0  0  0  0  0  0
   24.8482  -20.0603  -15.7211 C   0  0  0  0  0  0  0  0  0  0  0  0
   23.9581  -20.9409  -15.6825 O   0  0  0  0  0  0  0  0  0  0  0  0
   22.9509  -17.1486  -17.1712 C   0  0  0  0  0  0  0  0  0  0  0  0
   23.2088  -18.6279  -16.8935 C   0  0  2  0  0  0  0  0  0  0  0  0
   24.5271  -18.8200  -16.3289 N   0  0  0  0  0  0  0  0  0  0  0  0
   23.0769  -19.3228  -18.1880 C   0  0  0  0  0  0  0  0  0  0  0  0
   24.0839  -19.5683  -18.8933 O   0  0  0  0  0  0  0  0  0  0  0  0
   21.8279  -19.7066  -18.6257 O   0  0  0  0  0  0  0  0  0  0  0  0
  2  3  2  0
  2  1  1  0
  4  2  1  0
  5  4  1  0
  6  7  1  6
  6  5  1  0
  8  6  1  0
  9  8  2  0
 10 11  1  0
 12 11  1  6
 12 13  1  0
 12 14  1  0
 13  8  1  0
 14 18  1  0
 15 14  2  0
 17 16  1  6
 17 19  1  0
 18 17  1  0
 19 20  2  0
 19 21  1  0
M  END
$$$$
