QSA.pdb
     RDKit          3D

 21 20  0  0  1  0  0  0  0  0999 V2000
   15.1170   -4.7888   -7.1669 N   0  0  0  0  0  0  0  0  0  0  0  0
   13.9415   -5.4991   -7.4785 C   0  0  0  0  0  0  0  0  0  0  0  0
   12.8676   -5.2227   -6.8553 O   0  0  0  0  0  0  0  0  0  0  0  0
   13.8771   -6.5563   -8.4967 C   0  0  0  0  0  0  0  0  0  0  0  0
   15.1812   -6.8514   -9.1865 C   0  0  0  0  0  0  0  0  0  0  0  0
   15.0889   -7.8779  -10.2603 C   0  0  2  0  0  0  0  0  0  0  0  0
   15.0295   -9.1792   -9.5898 N   0  0  0  0  0  0  0  0  0  0  0  0
   16.2275   -7.8276  -11.2151 C   0  0  0  0  0  0  0  0  0  0  0  0
   17.1601   -8.6504  -11.0172 O   0  0  0  0  0  0  0  0  0  0  0  0
   16.4668   -5.0025  -14.4601 O   0  0  0  0  0  0  0  0  0  0  0  0
   16.8474   -6.3315  -14.6105 C   0  0  0  0  0  0  0  0  0  0  0  0
   17.2863   -6.9584  -13.3144 C   0  0  2  0  0  0  0  0  0  0  0  0
   16.2689   -6.9044  -12.2947 N   0  0  0  0  0  0  0  0  0  0  0  0
   18.5427   -6.4208  -12.7976 C   0  0  0  0  0  0  0  0  0  0  0  0
   18.5170   -5.4358  -12.0241 O   0  0  0  0  0  0  0  0  0  0  0  0
   22.2165   -7.2505  -12.8095 C   0  0  0  0  0  0  0  0  0  0  0  0
   21.0082   -6.3337  -12.6317 C   0  0  2  0  0  0  0  0  0  0  0  0
   19.8077   -6.9669  -13.1331 N   0  0  0  0  0  0  0  0  0  0  0  0
   21.3108   -5.0981  -13.3786 C   0  0  0  0  0  0  0  0  0  0  0  0
   22.2477   -4.3440  -13.0246 O   0  0  0  0  0  0  0  0  0  0  0  0
   20.5512   -4.7705  -14.4806 O   0  0  0  0  0  0  0  0  0  0  0  0
  2  3  2  0
  2  1  1  0
  4  2  1  0
  5  4  1  0
  6  7  1  1
  6  5  1  0
  8  6  1  0
  9  8  2  0
 10 11  1  0
 12 11  1  6
 12 13  1  0
 12 14  1  0
 13  8  1  0
 14 18  1  0
 15 14  2  0
 17 16  1  6
 17 19  1  0
 18 17  1  0
 19 20  2  0
 19 21  1  0
M  END
$$$$
