ARR.pdb
     RDKit          3D

 28 27  0  0  1  0  0  0  0  0999 V2000
   19.6444  -22.8418  -16.9656 C   0  0  0  0  0  0  0  0  0  0  0  0
   20.6070  -23.1750  -15.8228 C   0  0  2  0  0  0  0  0  0  0  0  0
   19.8216  -23.5210  -14.6669 N   0  0  0  0  0  0  0  0  0  0  0  0
   21.4186  -21.9520  -15.5927 C   0  0  0  0  0  0  0  0  0  0  0  0
   20.8302  -20.8692  -15.3563 O   0  0  0  0  0  0  0  0  0  0  0  0
   26.1378  -22.0569  -10.4560 N   0  0  0  0  0  0  0  0  0  0  0  0
   25.0866  -21.1174  -10.3604 C   0  0  0  0  0  0  0  0  0  0  0  0
   24.2295  -21.2493   -9.3859 N   0  0  0  0  0  0  0  0  0  0  0  0
   24.9347  -20.0573  -11.2837 N   0  0  0  0  0  0  0  0  0  0  0  0
   24.2979  -20.2114  -12.5409 C   0  0  0  0  0  0  0  0  0  0  0  0
   24.7806  -21.3875  -13.3225 C   0  0  0  0  0  0  0  0  0  0  0  0
   24.9338  -21.0862  -14.7677 C   0  0  0  0  0  0  0  0  0  0  0  0
   23.6064  -20.7108  -15.4007 C   0  0  2  0  0  0  0  0  0  0  0  0
   22.8256  -21.9381  -15.6251 N   0  0  0  0  0  0  0  0  0  0  0  0
   23.7884  -20.0062  -16.6799 C   0  0  0  0  0  0  0  0  0  0  0  0
   24.0957  -20.6247  -17.7445 O   0  0  0  0  0  0  0  0  0  0  0  0
   23.4809  -20.5623   -9.2890 N   0  0  0  0  0  0  0  0  0  0  0  0
   17.9578  -16.5188  -17.8964 C   0  0  0  0  0  0  0  0  0  0  0  0
   18.6081  -15.2471  -17.9375 N   0  0  0  0  0  0  0  0  0  0  0  0
   17.8896  -14.1759  -17.7953 N   0  0  0  0  0  0  0  0  0  0  0  0
   20.0108  -15.1716  -18.1299 C   0  0  0  0  0  0  0  0  0  0  0  0
   20.6664  -16.4621  -18.5183 C   0  0  0  0  0  0  0  0  0  0  0  0
   22.0854  -16.1199  -18.7621 C   0  0  0  0  0  0  0  0  0  0  0  0
   23.1608  -16.6081  -17.9281 C   0  0  2  0  0  0  0  0  0  0  0  0
   23.8198  -17.9211  -18.0540 N   0  0  0  0  0  0  0  0  0  0  0  0
   23.6166  -18.6027  -16.7264 C   0  0  0  0  0  0  0  0  0  0  0  0
   25.2652  -17.9862  -18.2379 O   0  0  0  0  0  0  0  0  0  0  0  0
   26.0929  -17.6793  -17.2914 O   0  0  0  0  0  0  0  0  0  0  0  0
  2  1  1  6
  2  3  1  0
  4  2  1  0
  5  4  2  0
  7  6  1  0
  7  8  2  0
  9  7  1  0
 10  9  1  0
 11 10  1  0
 13 12  1  6
 12 11  1  0
 13 14  1  0
 14  4  1  0
 15 25  1  0
 15 13  1  0
 16 15  2  0
 18 17  1  0
 18 19  2  0
 20 18  1  0
 21 20  1  0
 22 21  1  0
 23 22  1  0
 24 23  1  6
 24 25  1  0
 26 28  1  0
 26 24  1  0
 27 26  2  0
M  END
$$$$
