ARR.pdb
     RDKit          3D

 28 27  0  0  1  0  0  0  0  0999 V2000
   24.9586  -24.0149  -18.0210 C   0  0  0  0  0  0  0  0  0  0  0  0
   26.0818  -23.4827  -17.1274 C   0  0  2  0  0  0  0  0  0  0  0  0
   26.7464  -24.6112  -16.5295 N   0  0  0  0  0  0  0  0  0  0  0  0
   25.4293  -22.6222  -16.1071 C   0  0  0  0  0  0  0  0  0  0  0  0
   24.8364  -23.1663  -15.1443 O   0  0  0  0  0  0  0  0  0  0  0  0
   29.1032  -18.9611  -16.5389 N   0  0  0  0  0  0  0  0  0  0  0  0
   28.3962  -17.8870  -17.1249 C   0  0  0  0  0  0  0  0  0  0  0  0
   28.5552  -17.6684  -18.4010 N   0  0  0  0  0  0  0  0  0  0  0  0
   27.5390  -17.0487  -16.3755 N   0  0  0  0  0  0  0  0  0  0  0  0
   27.1118  -17.3569  -15.0593 C   0  0  0  0  0  0  0  0  0  0  0  0
   26.6424  -18.7634  -14.8903 C   0  0  0  0  0  0  0  0  0  0  0  0
   25.2317  -18.9471  -15.3130 C   0  0  0  0  0  0  0  0  0  0  0  0
   24.7815  -20.3858  -15.1362 C   0  0  2  0  0  0  0  0  0  0  0  0
   25.4381  -21.2158  -16.1591 N   0  0  0  0  0  0  0  0  0  0  0  0
   23.3213  -20.5228  -15.2586 C   0  0  0  0  0  0  0  0  0  0  0  0
   22.7414  -20.5011  -16.3871 O   0  0  0  0  0  0  0  0  0  0  0  0
   27.9916  -16.9478  -18.8536 N   0  0  0  0  0  0  0  0  0  0  0  0
   17.1704  -22.7950  -11.1786 C   0  0  0  0  0  0  0  0  0  0  0  0
   16.5510  -23.3426  -12.3439 N   0  0  0  0  0  0  0  0  0  0  0  0
   15.2551  -23.3576  -12.4111 N   0  0  0  0  0  0  0  0  0  0  0  0
   17.3480  -23.8552  -13.3986 C   0  0  0  0  0  0  0  0  0  0  0  0
   18.8273  -23.7595  -13.1776 C   0  0  0  0  0  0  0  0  0  0  0  0
   19.2110  -22.4236  -13.6856 C   0  0  0  0  0  0  0  0  0  0  0  0
   20.5880  -21.9990  -13.8036 C   0  0  1  0  0  0  0  0  0  0  0  0
   21.0438  -20.6679  -14.2444 N   0  0  0  0  0  0  0  0  0  0  0  0
   22.5418  -20.6831  -14.0889 C   0  0  0  0  0  0  0  0  0  0  0  0
   20.6479  -19.4850  -13.4885 O   0  0  0  0  0  0  0  0  0  0  0  0
   21.4297  -18.9326  -12.6174 O   0  0  0  0  0  0  0  0  0  0  0  0
  2  1  1  6
  2  3  1  0
  4  2  1  0
  5  4  2  0
  7  6  1  0
  7  8  2  0
  9  7  1  0
 10  9  1  0
 11 10  1  0
 13 12  1  6
 12 11  1  0
 13 14  1  0
 14  4  1  0
 15 25  1  0
 15 13  1  0
 16 15  2  0
 18 17  1  0
 18 19  2  0
 20 18  1  0
 21 20  1  0
 22 21  1  0
 23 22  1  0
 24 23  1  6
 24 25  1  0
 26 28  1  0
 26 24  1  0
 27 26  2  0
M  END
$$$$
