ARR.pdb
     RDKit          3D

 28 27  0  0  1  0  0  0  0  0999 V2000
   19.5422  -22.0002   -9.0879 C   0  0  0  0  0  0  0  0  0  0  0  0
   19.2380  -23.1053  -10.1027 C   0  0  2  0  0  0  0  0  0  0  0  0
   18.5255  -22.5128  -11.2045 N   0  0  0  0  0  0  0  0  0  0  0  0
   18.4108  -24.1108   -9.3872 C   0  0  0  0  0  0  0  0  0  0  0  0
   17.2202  -23.8293   -9.1087 O   0  0  0  0  0  0  0  0  0  0  0  0
   19.8624  -31.8376   -5.5742 N   0  0  0  0  0  0  0  0  0  0  0  0
   18.4742  -31.8610   -5.8372 C   0  0  0  0  0  0  0  0  0  0  0  0
   17.7309  -32.6837   -5.1500 N   0  0  0  0  0  0  0  0  0  0  0  0
   17.8770  -31.0346   -6.8169 N   0  0  0  0  0  0  0  0  0  0  0  0
   18.5950  -30.0489   -7.5399 C   0  0  0  0  0  0  0  0  0  0  0  0
   17.9754  -28.6922   -7.4903 C   0  0  0  0  0  0  0  0  0  0  0  0
   18.7187  -27.6971   -8.3027 C   0  0  0  0  0  0  0  0  0  0  0  0
   18.0759  -26.3244   -8.2245 C   0  0  2  0  0  0  0  0  0  0  0  0
   18.8916  -25.3755   -8.9996 N   0  0  0  0  0  0  0  0  0  0  0  0
   17.9616  -25.8504   -6.8360 C   0  0  0  0  0  0  0  0  0  0  0  0
   18.9685  -25.4259   -6.1907 O   0  0  0  0  0  0  0  0  0  0  0  0
   16.7370  -32.7552   -5.3712 N   0  0  0  0  0  0  0  0  0  0  0  0
   11.6031  -21.1209   -3.2796 C   0  0  0  0  0  0  0  0  0  0  0  0
   12.3412  -21.5832   -2.1469 N   0  0  0  0  0  0  0  0  0  0  0  0
   12.0711  -21.0813   -0.9810 N   0  0  0  0  0  0  0  0  0  0  0  0
   13.3454  -22.5711   -2.3075 C   0  0  0  0  0  0  0  0  0  0  0  0
   13.7532  -22.8340   -3.7256 C   0  0  0  0  0  0  0  0  0  0  0  0
   14.8255  -23.8503   -3.6402 C   0  0  0  0  0  0  0  0  0  0  0  0
   15.5180  -24.3545   -4.8049 C   0  0  1  0  0  0  0  0  0  0  0  0
   16.6178  -25.3365   -4.7947 N   0  0  0  0  0  0  0  0  0  0  0  0
   16.6970  -25.8673   -6.2019 C   0  0  0  0  0  0  0  0  0  0  0  0
   16.4925  -26.5489   -3.9936 O   0  0  0  0  0  0  0  0  0  0  0  0
   16.5084  -26.5225   -2.6997 O   0  0  0  0  0  0  0  0  0  0  0  0
  2  1  1  1
  2  3  1  0
  4  2  1  0
  5  4  2  0
  7  6  1  0
  7  8  2  0
  9  7  1  0
 10  9  1  0
 11 10  1  0
 13 12  1  1
 12 11  1  0
 13 14  1  0
 14  4  1  0
 15 25  1  0
 15 13  1  0
 16 15  2  0
 18 17  1  0
 18 19  2  0
 20 18  1  0
 21 20  1  0
 22 21  1  0
 23 22  1  0
 24 23  1  6
 24 25  1  0
 26 28  1  0
 26 24  1  0
 27 26  2  0
M  END
$$$$
