ARR.pdb
     RDKit          3D

 28 27  0  0  1  0  0  0  0  0999 V2000
   18.7534  -29.0124   -4.5774 C   0  0  0  0  0  0  0  0  0  0  0  0
   17.6761  -28.7764   -3.5157 C   0  0  2  0  0  0  0  0  0  0  0  0
   17.0241  -30.0337   -3.2572 N   0  0  0  0  0  0  0  0  0  0  0  0
   16.7390  -27.7762   -4.0891 C   0  0  0  0  0  0  0  0  0  0  0  0
   16.0945  -28.0726   -5.1241 O   0  0  0  0  0  0  0  0  0  0  0  0
   12.6937  -20.4056   -0.8646 N   0  0  0  0  0  0  0  0  0  0  0  0
   12.4166  -20.4963   -2.2473 C   0  0  0  0  0  0  0  0  0  0  0  0
   11.6572  -19.5818   -2.7845 N   0  0  0  0  0  0  0  0  0  0  0  0
   12.9258  -21.5410   -3.0527 N   0  0  0  0  0  0  0  0  0  0  0  0
   13.8366  -22.5152   -2.5718 C   0  0  0  0  0  0  0  0  0  0  0  0
   14.2363  -23.5257   -3.5946 C   0  0  0  0  0  0  0  0  0  0  0  0
   15.2054  -24.5177   -3.0661 C   0  0  0  0  0  0  0  0  0  0  0  0
   15.6109  -25.5202   -4.1311 C   0  0  2  0  0  0  0  0  0  0  0  0
   16.5304  -26.5009   -3.5316 N   0  0  0  0  0  0  0  0  0  0  0  0
   16.2685  -24.8692   -5.2755 C   0  0  0  0  0  0  0  0  0  0  0  0
   17.4745  -24.4786   -5.2184 O   0  0  0  0  0  0  0  0  0  0  0  0
   11.4448  -19.6380   -3.7812 N   0  0  0  0  0  0  0  0  0  0  0  0
   19.7952  -27.3100  -12.0990 C   0  0  0  0  0  0  0  0  0  0  0  0
   19.8636  -27.5430  -10.6910 N   0  0  0  0  0  0  0  0  0  0  0  0
   20.9380  -28.0812  -10.2008 N   0  0  0  0  0  0  0  0  0  0  0  0
   18.7729  -27.1880   -9.8576 C   0  0  0  0  0  0  0  0  0  0  0  0
   17.6879  -26.4063  -10.5343 C   0  0  0  0  0  0  0  0  0  0  0  0
   17.4687  -25.2211   -9.6757 C   0  0  0  0  0  0  0  0  0  0  0  0
   16.6700  -25.2663   -8.4714 C   0  0  2  0  0  0  0  0  0  0  0  0
   16.2804  -24.1037   -7.6526 N   0  0  0  0  0  0  0  0  0  0  0  0
   15.5390  -24.6730   -6.4716 C   0  0  0  0  0  0  0  0  0  0  0  0
   15.3397  -23.1274   -8.1905 O   0  0  0  0  0  0  0  0  0  0  0  0
   14.0855  -23.1330   -7.8708 O   0  0  0  0  0  0  0  0  0  0  0  0
  2  1  1  6
  2  3  1  0
  4  2  1  0
  5  4  2  0
  7  6  1  0
  7  8  2  0
  9  7  1  0
 10  9  1  0
 11 10  1  0
 13 12  1  1
 12 11  1  0
 13 14  1  0
 14  4  1  0
 15 25  1  0
 15 13  1  0
 16 15  2  0
 18 17  1  0
 18 19  2  0
 20 18  1  0
 21 20  1  0
 22 21  1  0
 23 22  1  0
 24 23  1  1
 24 25  1  0
 26 28  1  0
 26 24  1  0
 27 26  2  0
M  END
$$$$
