ARR.pdb
     RDKit          3D

 28 27  0  0  1  0  0  0  0  0999 V2000
   19.7522  -26.8977  -14.7166 C   0  0  0  0  0  0  0  0  0  0  0  0
   21.1923  -27.3719  -14.9281 C   0  0  2  0  0  0  0  0  0  0  0  0
   21.3213  -28.6783  -14.3370 N   0  0  0  0  0  0  0  0  0  0  0  0
   22.0622  -26.3731  -14.2549 C   0  0  0  0  0  0  0  0  0  0  0  0
   22.9839  -26.7784  -13.5061 O   0  0  0  0  0  0  0  0  0  0  0  0
   28.5728  -23.6967  -16.2884 N   0  0  0  0  0  0  0  0  0  0  0  0
   28.0709  -25.0005  -16.5008 C   0  0  0  0  0  0  0  0  0  0  0  0
   28.8761  -26.0090  -16.3101 N   0  0  0  0  0  0  0  0  0  0  0  0
   26.7407  -25.2395  -16.9165 N   0  0  0  0  0  0  0  0  0  0  0  0
   25.8350  -24.2004  -17.2475 C   0  0  0  0  0  0  0  0  0  0  0  0
   25.0226  -23.7165  -16.0928 C   0  0  0  0  0  0  0  0  0  0  0  0
   23.8528  -24.5868  -15.8158 C   0  0  0  0  0  0  0  0  0  0  0  0
   23.0558  -24.0842  -14.6259 C   0  0  2  0  0  0  0  0  0  0  0  0
   21.9099  -24.9827  -14.4108 N   0  0  0  0  0  0  0  0  0  0  0  0
   22.5684  -22.7110  -14.8325 C   0  0  0  0  0  0  0  0  0  0  0  0
   22.1741  -22.3068  -15.9689 O   0  0  0  0  0  0  0  0  0  0  0  0
   29.8289  -25.8281  -15.9920 N   0  0  0  0  0  0  0  0  0  0  0  0
   24.5924  -18.1608  -19.6419 C   0  0  0  0  0  0  0  0  0  0  0  0
   23.7918  -19.3021  -19.3289 N   0  0  0  0  0  0  0  0  0  0  0  0
   23.6065  -20.2024  -20.2450 N   0  0  0  0  0  0  0  0  0  0  0  0
   23.2179  -19.4361  -18.0394 C   0  0  0  0  0  0  0  0  0  0  0  0
   23.5955  -18.3625  -17.0642 C   0  0  0  0  0  0  0  0  0  0  0  0
   22.8500  -18.6814  -15.8262 C   0  0  0  0  0  0  0  0  0  0  0  0
   22.8724  -19.9924  -15.2170 C   0  0  2  0  0  0  0  0  0  0  0  0
   22.1243  -20.3946  -14.0118 N   0  0  0  0  0  0  0  0  0  0  0  0
   22.5377  -21.8165  -13.7368 C   0  0  0  0  0  0  0  0  0  0  0  0
   20.6692  -20.4804  -14.0632 O   0  0  0  0  0  0  0  0  0  0  0  0
   20.0589  -21.4525  -14.6612 O   0  0  0  0  0  0  0  0  0  0  0  0
  2  1  1  1
  2  3  1  0
  4  2  1  0
  5  4  2  0
  7  6  1  0
  7  8  2  0
  9  7  1  0
 10  9  1  0
 11 10  1  0
 13 12  1  6
 12 11  1  0
 13 14  1  0
 14  4  1  0
 15 25  1  0
 15 13  1  0
 16 15  2  0
 18 17  1  0
 18 19  2  0
 20 18  1  0
 21 20  1  0
 22 21  1  0
 23 22  1  0
 24 23  1  1
 24 25  1  0
 26 28  1  0
 26 24  1  0
 27 26  2  0
M  END
$$$$
