ARR.pdb
     RDKit          3D

 28 27  0  0  1  0  0  0  0  0999 V2000
   21.5991  -29.9048  -10.3531 C   0  0  0  0  0  0  0  0  0  0  0  0
   20.4261  -30.3439   -9.4729 C   0  0  2  0  0  0  0  0  0  0  0  0
   19.5802  -31.2053  -10.2573 N   0  0  0  0  0  0  0  0  0  0  0  0
   19.7225  -29.1000   -9.0667 C   0  0  0  0  0  0  0  0  0  0  0  0
   20.3470  -28.2401   -8.3997 O   0  0  0  0  0  0  0  0  0  0  0  0
   17.5173  -23.4094  -12.3880 N   0  0  0  0  0  0  0  0  0  0  0  0
   17.6992  -24.3474  -13.4293 C   0  0  0  0  0  0  0  0  0  0  0  0
   18.4886  -24.0260  -14.4167 N   0  0  0  0  0  0  0  0  0  0  0  0
   17.0518  -25.6045  -13.4351 N   0  0  0  0  0  0  0  0  0  0  0  0
   16.4207  -26.1551  -12.2912 C   0  0  0  0  0  0  0  0  0  0  0  0
   17.3547  -26.4331  -11.1609 C   0  0  0  0  0  0  0  0  0  0  0  0
   16.7093  -27.1968  -10.0642 C   0  0  0  0  0  0  0  0  0  0  0  0
   17.7106  -27.5799   -8.9899 C   0  0  2  0  0  0  0  0  0  0  0  0
   18.3802  -28.8278   -9.3910 N   0  0  0  0  0  0  0  0  0  0  0  0
   17.0653  -27.7702   -7.6810 C   0  0  0  0  0  0  0  0  0  0  0  0
   16.7624  -28.9238   -7.2477 O   0  0  0  0  0  0  0  0  0  0  0  0
   18.5956  -24.6759  -15.1964 N   0  0  0  0  0  0  0  0  0  0  0  0
   13.5927  -22.2320   -2.9350 C   0  0  0  0  0  0  0  0  0  0  0  0
   13.7411  -23.0770   -1.7924 N   0  0  0  0  0  0  0  0  0  0  0  0
   12.8818  -22.9728   -0.8255 N   0  0  0  0  0  0  0  0  0  0  0  0
   14.8098  -24.0067   -1.7295 C   0  0  0  0  0  0  0  0  0  0  0  0
   15.7490  -23.9708   -2.8968 C   0  0  0  0  0  0  0  0  0  0  0  0
   15.5637  -25.2676   -3.5855 C   0  0  0  0  0  0  0  0  0  0  0  0
   16.2496  -25.6050   -4.8127 C   0  0  1  0  0  0  0  0  0  0  0  0
   16.1300  -26.8802   -5.5432 N   0  0  0  0  0  0  0  0  0  0  0  0
   16.7741  -26.6387   -6.8831 C   0  0  0  0  0  0  0  0  0  0  0  0
   14.8086  -27.3835   -5.9007 O   0  0  0  0  0  0  0  0  0  0  0  0
   14.2017  -27.0135   -6.9824 O   0  0  0  0  0  0  0  0  0  0  0  0
  2  1  1  6
  2  3  1  0
  4  2  1  0
  5  4  2  0
  7  6  1  0
  7  8  2  0
  9  7  1  0
 10  9  1  0
 11 10  1  0
 13 12  1  6
 12 11  1  0
 13 14  1  0
 14  4  1  0
 15 25  1  0
 15 13  1  0
 16 15  2  0
 18 17  1  0
 18 19  2  0
 20 18  1  0
 21 20  1  0
 22 21  1  0
 23 22  1  0
 24 23  1  1
 24 25  1  0
 26 28  1  0
 26 24  1  0
 27 26  2  0
M  END
$$$$
