ARR.pdb
     RDKit          3D

 28 27  0  0  1  0  0  0  0  0999 V2000
   26.9020  -19.2736  -16.9790 C   0  0  0  0  0  0  0  0  0  0  0  0
   27.7833  -20.1188  -16.0558 C   0  0  2  0  0  0  0  0  0  0  0  0
   28.4750  -21.0873  -16.8660 N   0  0  0  0  0  0  0  0  0  0  0  0
   26.8656  -20.7670  -15.0837 C   0  0  0  0  0  0  0  0  0  0  0  0
   26.4503  -21.9268  -15.3221 O   0  0  0  0  0  0  0  0  0  0  0  0
   28.6119  -20.9227   -7.8649 N   0  0  0  0  0  0  0  0  0  0  0  0
   27.3544  -20.2852   -7.7697 C   0  0  0  0  0  0  0  0  0  0  0  0
   26.8702  -20.0527   -6.5810 N   0  0  0  0  0  0  0  0  0  0  0  0
   26.6122  -19.9044   -8.9114 N   0  0  0  0  0  0  0  0  0  0  0  0
   25.2719  -20.3095   -9.1335 C   0  0  0  0  0  0  0  0  0  0  0  0
   25.0318  -20.8869  -10.4885 C   0  0  0  0  0  0  0  0  0  0  0  0
   25.8287  -20.2127  -11.5436 C   0  0  0  0  0  0  0  0  0  0  0  0
   25.5986  -20.8459  -12.9036 C   0  0  2  0  0  0  0  0  0  0  0  0
   26.4305  -20.1477  -13.8971 N   0  0  0  0  0  0  0  0  0  0  0  0
   24.1863  -20.7736  -13.3108 C   0  0  0  0  0  0  0  0  0  0  0  0
   23.6297  -19.6693  -13.5956 O   0  0  0  0  0  0  0  0  0  0  0  0
   25.9110  -19.7147   -6.4948 N   0  0  0  0  0  0  0  0  0  0  0  0
   21.0408  -27.5396  -14.5087 C   0  0  0  0  0  0  0  0  0  0  0  0
   20.6029  -26.9474  -13.2844 N   0  0  0  0  0  0  0  0  0  0  0  0
   20.8090  -27.5878  -12.1747 N   0  0  0  0  0  0  0  0  0  0  0  0
   19.9580  -25.6848  -13.2959 C   0  0  0  0  0  0  0  0  0  0  0  0
   19.8277  -25.0533  -14.6488 C   0  0  0  0  0  0  0  0  0  0  0  0
   20.2091  -23.6365  -14.4554 C   0  0  0  0  0  0  0  0  0  0  0  0
   21.5109  -23.2377  -13.9689 C   0  0  2  0  0  0  0  0  0  0  0  0
   22.0011  -21.8516  -13.8581 N   0  0  0  0  0  0  0  0  0  0  0  0
   23.4273  -21.9650  -13.3876 C   0  0  0  0  0  0  0  0  0  0  0  0
   21.4029  -20.9530  -12.8773 O   0  0  0  0  0  0  0  0  0  0  0  0
   21.7573  -20.9602  -11.6326 O   0  0  0  0  0  0  0  0  0  0  0  0
  2  1  1  6
  2  3  1  0
  4  2  1  0
  5  4  2  0
  7  6  1  0
  7  8  2  0
  9  7  1  0
 10  9  1  0
 11 10  1  0
 13 12  1  1
 12 11  1  0
 13 14  1  0
 14  4  1  0
 15 25  1  0
 15 13  1  0
 16 15  2  0
 18 17  1  0
 18 19  2  0
 20 18  1  0
 21 20  1  0
 22 21  1  0
 23 22  1  0
 24 23  1  6
 24 25  1  0
 26 28  1  0
 26 24  1  0
 27 26  2  0
M  END
$$$$
