ARR.pdb
     RDKit          3D

 28 27  0  0  1  0  0  0  0  0999 V2000
   27.4764  -22.0647  -15.6023 C   0  0  0  0  0  0  0  0  0  0  0  0
   26.7161  -21.4759  -16.7934 C   0  0  2  0  0  0  0  0  0  0  0  0
   27.6718  -20.8302  -17.6553 N   0  0  0  0  0  0  0  0  0  0  0  0
   25.7412  -20.5082  -16.2274 C   0  0  0  0  0  0  0  0  0  0  0  0
   26.0941  -19.7844  -15.2651 O   0  0  0  0  0  0  0  0  0  0  0  0
   22.9584  -18.3863  -21.6004 N   0  0  0  0  0  0  0  0  0  0  0  0
   21.7590  -18.4422  -20.8553 C   0  0  0  0  0  0  0  0  0  0  0  0
   20.7398  -19.0690  -21.3749 N   0  0  0  0  0  0  0  0  0  0  0  0
   21.6315  -17.8391  -19.5828 N   0  0  0  0  0  0  0  0  0  0  0  0
   22.6245  -16.9963  -19.0229 C   0  0  0  0  0  0  0  0  0  0  0  0
   23.4113  -17.6348  -17.9273 C   0  0  0  0  0  0  0  0  0  0  0  0
   22.6869  -18.7620  -17.2890 C   0  0  0  0  0  0  0  0  0  0  0  0
   23.4919  -19.3683  -16.1542 C   0  0  2  0  0  0  0  0  0  0  0  0
   24.4296  -20.3551  -16.7142 N   0  0  0  0  0  0  0  0  0  0  0  0
   22.6290  -20.0239  -15.1585 C   0  0  0  0  0  0  0  0  0  0  0  0
   22.2242  -21.2171  -15.3087 O   0  0  0  0  0  0  0  0  0  0  0  0
   19.8596  -19.0953  -20.8589 N   0  0  0  0  0  0  0  0  0  0  0  0
   22.8380  -21.7792   -7.6388 C   0  0  0  0  0  0  0  0  0  0  0  0
   23.7532  -21.0558   -8.4638 N   0  0  0  0  0  0  0  0  0  0  0  0
   24.9967  -21.4265   -8.4873 N   0  0  0  0  0  0  0  0  0  0  0  0
   23.2986  -19.9575   -9.2368 C   0  0  0  0  0  0  0  0  0  0  0  0
   21.8327  -19.6673   -9.1225 C   0  0  0  0  0  0  0  0  0  0  0  0
   21.2564  -20.0539  -10.4296 C   0  0  0  0  0  0  0  0  0  0  0  0
   21.8507  -19.6678  -11.6899 C   0  0  1  0  0  0  0  0  0  0  0  0
   21.3278  -20.0035  -13.0270 N   0  0  0  0  0  0  0  0  0  0  0  0
   22.2396  -19.3070  -14.0026 C   0  0  0  0  0  0  0  0  0  0  0  0
   20.0048  -19.5328  -13.4214 O   0  0  0  0  0  0  0  0  0  0  0  0
   19.8340  -18.4236  -14.0661 O   0  0  0  0  0  0  0  0  0  0  0  0
  2  1  1  1
  2  3  1  0
  4  2  1  0
  5  4  2  0
  7  6  1  0
  7  8  2  0
  9  7  1  0
 10  9  1  0
 11 10  1  0
 13 12  1  6
 12 11  1  0
 13 14  1  0
 14  4  1  0
 15 25  1  0
 15 13  1  0
 16 15  2  0
 18 17  1  0
 18 19  2  0
 20 18  1  0
 21 20  1  0
 22 21  1  0
 23 22  1  0
 24 23  1  6
 24 25  1  0
 26 28  1  0
 26 24  1  0
 27 26  2  0
M  END
$$$$
