ARR.pdb
     RDKit          3D

 28 27  0  0  1  0  0  0  0  0999 V2000
   28.6148  -22.6660  -18.6789 C   0  0  0  0  0  0  0  0  0  0  0  0
   28.3367  -21.9887  -17.3345 C   0  0  2  0  0  0  0  0  0  0  0  0
   29.1947  -22.5910  -16.3476 N   0  0  0  0  0  0  0  0  0  0  0  0
   26.9008  -22.2279  -17.0374 C   0  0  0  0  0  0  0  0  0  0  0  0
   26.0359  -21.7977  -17.8382 O   0  0  0  0  0  0  0  0  0  0  0  0
   20.4745  -26.5140  -13.5939 N   0  0  0  0  0  0  0  0  0  0  0  0
   21.5751  -27.2684  -14.0591 C   0  0  0  0  0  0  0  0  0  0  0  0
   21.3371  -28.4161  -14.6317 N   0  0  0  0  0  0  0  0  0  0  0  0
   22.9099  -26.8243  -13.9161 N   0  0  0  0  0  0  0  0  0  0  0  0
   23.2537  -25.5886  -13.3122 C   0  0  0  0  0  0  0  0  0  0  0  0
   23.4324  -24.4703  -14.2841 C   0  0  0  0  0  0  0  0  0  0  0  0
   24.8480  -24.2927  -14.6932 C   0  0  0  0  0  0  0  0  0  0  0  0
   25.0199  -23.0784  -15.5874 C   0  0  2  0  0  0  0  0  0  0  0  0
   26.4499  -22.9172  -15.8962 N   0  0  0  0  0  0  0  0  0  0  0  0
   24.5160  -21.8516  -14.9495 C   0  0  0  0  0  0  0  0  0  0  0  0
   25.1563  -21.2714  -14.0202 O   0  0  0  0  0  0  0  0  0  0  0  0
   22.1243  -29.0061  -14.9036 N   0  0  0  0  0  0  0  0  0  0  0  0
   18.8182  -16.2028  -17.6121 C   0  0  0  0  0  0  0  0  0  0  0  0
   19.5619  -15.3704  -16.7202 N   0  0  0  0  0  0  0  0  0  0  0  0
   19.0189  -14.2704  -16.2971 N   0  0  0  0  0  0  0  0  0  0  0  0
   20.8657  -15.7509  -16.3131 C   0  0  0  0  0  0  0  0  0  0  0  0
   21.3558  -17.0450  -16.8887 C   0  0  0  0  0  0  0  0  0  0  0  0
   21.7459  -17.8671  -15.7217 C   0  0  0  0  0  0  0  0  0  0  0  0
   22.3443  -19.1766  -15.8541 C   0  0  1  0  0  0  0  0  0  0  0  0
   22.8372  -20.0140  -14.7451 N   0  0  0  0  0  0  0  0  0  0  0  0
   23.2859  -21.3029  -15.3822 C   0  0  0  0  0  0  0  0  0  0  0  0
   21.9079  -20.4638  -13.7149 O   0  0  0  0  0  0  0  0  0  0  0  0
   21.2504  -21.5737  -13.8196 O   0  0  0  0  0  0  0  0  0  0  0  0
  2  1  1  6
  2  3  1  0
  4  2  1  0
  5  4  2  0
  7  6  1  0
  7  8  2  0
  9  7  1  0
 10  9  1  0
 11 10  1  0
 13 12  1  1
 12 11  1  0
 13 14  1  0
 14  4  1  0
 15 25  1  0
 15 13  1  0
 16 15  2  0
 18 17  1  0
 18 19  2  0
 20 18  1  0
 21 20  1  0
 22 21  1  0
 23 22  1  0
 24 23  1  6
 24 25  1  0
 26 28  1  0
 26 24  1  0
 27 26  2  0
M  END
$$$$
