ARR.pdb
     RDKit          3D

 28 27  0  0  1  0  0  0  0  0999 V2000
   18.6553  -21.4319   -9.4730 C   0  0  0  0  0  0  0  0  0  0  0  0
   18.7566  -22.7014  -10.3226 C   0  0  2  0  0  0  0  0  0  0  0  0
   18.0202  -22.4813  -11.5399 N   0  0  0  0  0  0  0  0  0  0  0  0
   18.1645  -23.7945   -9.5091 C   0  0  0  0  0  0  0  0  0  0  0  0
   16.9159  -23.9116   -9.4677 O   0  0  0  0  0  0  0  0  0  0  0  0
   21.3412  -29.2454  -10.9165 N   0  0  0  0  0  0  0  0  0  0  0  0
   20.4561  -28.9131  -11.9668 C   0  0  0  0  0  0  0  0  0  0  0  0
   20.4166  -29.6956  -13.0097 N   0  0  0  0  0  0  0  0  0  0  0  0
   19.6289  -27.7671  -11.9233 N   0  0  0  0  0  0  0  0  0  0  0  0
   19.4847  -26.9603  -10.7666 C   0  0  0  0  0  0  0  0  0  0  0  0
   18.6614  -27.5874   -9.6914 C   0  0  0  0  0  0  0  0  0  0  0  0
   19.0311  -27.1053   -8.3373 C   0  0  0  0  0  0  0  0  0  0  0  0
   18.3219  -25.8074   -7.9967 C   0  0  2  0  0  0  0  0  0  0  0  0
   18.9325  -24.7169   -8.7740 N   0  0  0  0  0  0  0  0  0  0  0  0
   18.4105  -25.4941   -6.5615 C   0  0  0  0  0  0  0  0  0  0  0  0
   19.4874  -25.0784   -6.0345 O   0  0  0  0  0  0  0  0  0  0  0  0
   19.8662  -29.4115  -13.8209 N   0  0  0  0  0  0  0  0  0  0  0  0
   11.5274  -22.2746   -3.2053 C   0  0  0  0  0  0  0  0  0  0  0  0
   12.2951  -21.6850   -4.2563 N   0  0  0  0  0  0  0  0  0  0  0  0
   11.7894  -20.6850   -4.9107 N   0  0  0  0  0  0  0  0  0  0  0  0
   13.5824  -22.1918   -4.5670 C   0  0  0  0  0  0  0  0  0  0  0  0
   13.9408  -23.4736   -3.8782 C   0  0  0  0  0  0  0  0  0  0  0  0
   15.3206  -23.7789   -4.3175 C   0  0  0  0  0  0  0  0  0  0  0  0
   16.0554  -24.9292   -3.8407 C   0  0  2  0  0  0  0  0  0  0  0  0
   17.4029  -25.3335   -4.2821 N   0  0  0  0  0  0  0  0  0  0  0  0
   17.2662  -25.6595   -5.7461 C   0  0  0  0  0  0  0  0  0  0  0  0
   18.0079  -26.5415   -3.7325 O   0  0  0  0  0  0  0  0  0  0  0  0
   17.8928  -27.6928   -4.3124 O   0  0  0  0  0  0  0  0  0  0  0  0
  2  1  1  1
  2  3  1  0
  4  2  1  0
  5  4  2  0
  7  6  1  0
  7  8  2  0
  9  7  1  0
 10  9  1  0
 11 10  1  0
 13 12  1  1
 12 11  1  0
 13 14  1  0
 14  4  1  0
 15 25  1  0
 15 13  1  0
 16 15  2  0
 18 17  1  0
 18 19  2  0
 20 18  1  0
 21 20  1  0
 22 21  1  0
 23 22  1  0
 24 23  1  6
 24 25  1  0
 26 28  1  0
 26 24  1  0
 27 26  2  0
M  END
$$$$
