ARR.pdb
     RDKit          3D

 28 27  0  0  1  0  0  0  0  0999 V2000
   25.1059  -13.7650  -15.7764 C   0  0  0  0  0  0  0  0  0  0  0  0
   26.0489  -14.7491  -16.4733 C   0  0  2  0  0  0  0  0  0  0  0  0
   26.3255  -14.2414  -17.7919 N   0  0  0  0  0  0  0  0  0  0  0  0
   25.3315  -16.0492  -16.5217 C   0  0  0  0  0  0  0  0  0  0  0  0
   24.4638  -16.2304  -17.4097 O   0  0  0  0  0  0  0  0  0  0  0  0
   24.8729  -23.6407  -16.3696 N   0  0  0  0  0  0  0  0  0  0  0  0
   26.2232  -23.2944  -16.1377 C   0  0  0  0  0  0  0  0  0  0  0  0
   27.1246  -23.7392  -16.9691 N   0  0  0  0  0  0  0  0  0  0  0  0
   26.6206  -22.4967  -15.0399 N   0  0  0  0  0  0  0  0  0  0  0  0
   25.7006  -21.8000  -14.2165 C   0  0  0  0  0  0  0  0  0  0  0  0
   24.9322  -20.7396  -14.9320 C   0  0  0  0  0  0  0  0  0  0  0  0
   25.6456  -19.4383  -14.9564 C   0  0  0  0  0  0  0  0  0  0  0  0
   24.8389  -18.3759  -15.6803 C   0  0  2  0  0  0  0  0  0  0  0  0
   25.5723  -17.1013  -15.6183 N   0  0  0  0  0  0  0  0  0  0  0  0
   23.5037  -18.2012  -15.0865 C   0  0  0  0  0  0  0  0  0  0  0  0
   23.2920  -17.3668  -14.1542 O   0  0  0  0  0  0  0  0  0  0  0  0
   28.1108  -23.5738  -16.7648 N   0  0  0  0  0  0  0  0  0  0  0  0
   17.8505  -13.0230  -16.5651 C   0  0  0  0  0  0  0  0  0  0  0  0
   17.2841  -13.7352  -15.4636 N   0  0  0  0  0  0  0  0  0  0  0  0
   16.3173  -13.1834  -14.7966 N   0  0  0  0  0  0  0  0  0  0  0  0
   17.7775  -15.0186  -15.1173 C   0  0  0  0  0  0  0  0  0  0  0  0
   19.1359  -15.3421  -15.6616 C   0  0  0  0  0  0  0  0  0  0  0  0
   19.4630  -16.6805  -15.1214 C   0  0  0  0  0  0  0  0  0  0  0  0
   20.6537  -17.4067  -15.5026 C   0  0  2  0  0  0  0  0  0  0  0  0
   21.0638  -18.7229  -14.9797 N   0  0  0  0  0  0  0  0  0  0  0  0
   22.4264  -18.9827  -15.5663 C   0  0  0  0  0  0  0  0  0  0  0  0
   20.3115  -19.9138  -15.3582 O   0  0  0  0  0  0  0  0  0  0  0  0
   20.5198  -20.5317  -16.4762 O   0  0  0  0  0  0  0  0  0  0  0  0
  2  1  1  1
  2  3  1  0
  4  2  1  0
  5  4  2  0
  7  6  1  0
  7  8  2  0
  9  7  1  0
 10  9  1  0
 11 10  1  0
 13 12  1  1
 12 11  1  0
 13 14  1  0
 14  4  1  0
 15 25  1  0
 15 13  1  0
 16 15  2  0
 18 17  1  0
 18 19  2  0
 20 18  1  0
 21 20  1  0
 22 21  1  0
 23 22  1  0
 24 23  1  1
 24 25  1  0
 26 28  1  0
 26 24  1  0
 27 26  2  0
M  END
$$$$
