ARR.pdb
     RDKit          3D

 28 27  0  0  1  0  0  0  0  0999 V2000
   17.0645  -28.9902   -1.7253 C   0  0  0  0  0  0  0  0  0  0  0  0
   18.4485  -28.5142   -2.1741 C   0  0  2  0  0  0  0  0  0  0  0  0
   19.2820  -28.4064   -1.0051 N   0  0  0  0  0  0  0  0  0  0  0  0
   18.2430  -27.1965   -2.8290 C   0  0  0  0  0  0  0  0  0  0  0  0
   18.1714  -26.1683   -2.1135 O   0  0  0  0  0  0  0  0  0  0  0  0
   18.6614  -23.0803  -10.8577 N   0  0  0  0  0  0  0  0  0  0  0  0
   18.1170  -24.3532  -10.5742 C   0  0  0  0  0  0  0  0  0  0  0  0
   17.3975  -24.9341  -11.4943 N   0  0  0  0  0  0  0  0  0  0  0  0
   18.3205  -25.0028   -9.3349 N   0  0  0  0  0  0  0  0  0  0  0  0
   19.0533  -24.4233   -8.2686 C   0  0  0  0  0  0  0  0  0  0  0  0
   18.3452  -24.4658   -6.9556 C   0  0  0  0  0  0  0  0  0  0  0  0
   18.5434  -25.7528   -6.2436 C   0  0  0  0  0  0  0  0  0  0  0  0
   17.9480  -25.7132   -4.8481 C   0  0  2  0  0  0  0  0  0  0  0  0
   18.1229  -27.0337   -4.2218 N   0  0  0  0  0  0  0  0  0  0  0  0
   16.5174  -25.3687   -4.8715 C   0  0  0  0  0  0  0  0  0  0  0  0
   15.6266  -26.2349   -5.1291 O   0  0  0  0  0  0  0  0  0  0  0  0
   16.9611  -25.8332  -11.2870 N   0  0  0  0  0  0  0  0  0  0  0  0
   10.6538  -19.0977   -3.6188 C   0  0  0  0  0  0  0  0  0  0  0  0
   10.2851  -20.1520   -2.7277 N   0  0  0  0  0  0  0  0  0  0  0  0
    9.1204  -20.1061   -2.1574 N   0  0  0  0  0  0  0  0  0  0  0  0
   11.1831  -21.2212   -2.4810 C   0  0  0  0  0  0  0  0  0  0  0  0
   12.4140  -21.2235   -3.3360 C   0  0  0  0  0  0  0  0  0  0  0  0
   13.2017  -22.3908   -2.8810 C   0  0  0  0  0  0  0  0  0  0  0  0
   14.4640  -22.7625   -3.4802 C   0  0  2  0  0  0  0  0  0  0  0  0
   14.6459  -23.7436   -4.5657 N   0  0  0  0  0  0  0  0  0  0  0  0
   16.1227  -24.0376   -4.5996 C   0  0  0  0  0  0  0  0  0  0  0  0
   14.3572  -23.3560   -5.9418 O   0  0  0  0  0  0  0  0  0  0  0  0
   13.1965  -22.9102   -6.3012 O   0  0  0  0  0  0  0  0  0  0  0  0
  2  1  1  1
  2  3  1  0
  4  2  1  0
  5  4  2  0
  7  6  1  0
  7  8  2  0
  9  7  1  0
 10  9  1  0
 11 10  1  0
 13 12  1  6
 12 11  1  0
 13 14  1  0
 14  4  1  0
 15 25  1  0
 15 13  1  0
 16 15  2  0
 18 17  1  0
 18 19  2  0
 20 18  1  0
 21 20  1  0
 22 21  1  0
 23 22  1  0
 24 23  1  1
 24 25  1  0
 26 28  1  0
 26 24  1  0
 27 26  2  0
M  END
$$$$
