CPR.pdb
     RDKit          3D

 25 25  0  0  1  0  0  0  0  0999 V2000
    5.2128  -13.6829   26.3516 N   0  0  0  0  0  0  0  0  0  0  0  0
    6.0639  -13.1481   25.3278 C   0  0  1  0  0  0  0  0  0  0  0  0
    7.0672  -12.1838   25.9287 C   0  0  0  0  0  0  0  0  0  0  0  0
    8.3292  -13.0542   26.8902 S   0  0  0  0  0  0  0  0  0  0  0  0
    6.7338  -14.2051   24.5514 C   0  0  0  0  0  0  0  0  0  0  0  0
    6.8990  -15.3126   25.1200 O   0  0  0  0  0  0  0  0  0  0  0  0
    7.1974  -14.0318   23.2028 N   0  0  0  0  0  0  0  0  0  0  0  0
    7.2145  -12.8029   22.4422 C   0  0  0  0  0  0  0  0  0  0  0  0
    7.7137  -13.1522   21.0680 C   0  0  0  0  0  0  0  0  0  0  0  0
    7.4900  -14.6440   20.9861 C   0  0  0  0  0  0  0  0  0  0  0  0
    7.7243  -15.0828   22.4040 C   0  0  1  0  0  0  0  0  0  0  0  0
    9.1970  -15.1685   22.6252 C   0  0  0  0  0  0  0  0  0  0  0  0
    9.7695  -14.0802   22.9332 O   0  0  0  0  0  0  0  0  0  0  0  0
   10.7365  -14.1615   29.4883 N   0  0  0  0  0  0  0  0  0  0  0  0
   10.7637  -15.5449   29.2037 C   0  0  0  0  0  0  0  0  0  0  0  0
   11.0218  -16.4210   30.1230 N   0  0  0  0  0  0  0  0  0  0  0  0
   10.5005  -15.9673   27.8776 N   0  0  0  0  0  0  0  0  0  0  0  0
   11.4776  -15.7586   26.8527 C   0  0  0  0  0  0  0  0  0  0  0  0
   11.4138  -16.9550   25.8923 C   0  0  0  0  0  0  0  0  0  0  0  0
   10.4497  -16.5495   24.8080 C   0  0  0  0  0  0  0  0  0  0  0  0
   11.0063  -16.6461   23.4183 C   0  0  2  0  0  0  0  0  0  0  0  0
    9.9222  -16.3719   22.5031 N   0  0  0  0  0  0  0  0  0  0  0  0
   11.6126  -17.9337   23.0751 C   0  0  0  0  0  0  0  0  0  0  0  0
   10.9079  -18.8719   22.6299 O   0  0  0  0  0  0  0  0  0  0  0  0
   12.9677  -18.2135   23.2082 O   0  0  0  0  0  0  0  0  0  0  0  0
  2  1  1  1
  2  3  1  0
  4  3  1  0
  5  2  1  0
  6  5  2  0
  7  5  1  0
  7  8  1  0
  9  8  1  0
 10  9  1  0
 10 11  1  0
 11  7  1  0
 11 12  1  6
 12 22  1  0
 13 12  2  0
 15 16  2  0
 15 14  1  0
 17 15  1  0
 18 17  1  0
 19 18  1  0
 20 19  1  0
 21 22  1  0
 21 20  1  1
 23 21  1  0
 24 23  2  0
 25 23  1  0
M  END
$$$$
