CPR.pdb
     RDKit          3D

 25 25  0  0  1  0  0  0  0  0999 V2000
    8.9925  -16.0929   15.6230 N   0  0  0  0  0  0  0  0  0  0  0  0
    8.2654  -15.9147   16.8470 C   0  0  1  0  0  0  0  0  0  0  0  0
    7.5378  -17.1918   17.2171 C   0  0  0  0  0  0  0  0  0  0  0  0
    6.7467  -17.0577   18.8391 S   0  0  0  0  0  0  0  0  0  0  0  0
    9.1292  -15.4513   17.9461 C   0  0  0  0  0  0  0  0  0  0  0  0
   10.3039  -15.8947   17.9739 O   0  0  0  0  0  0  0  0  0  0  0  0
    8.6997  -14.5353   18.9660 N   0  0  0  0  0  0  0  0  0  0  0  0
    7.3651  -14.0153   19.1592 C   0  0  0  0  0  0  0  0  0  0  0  0
    7.4423  -13.0408   20.3011 C   0  0  0  0  0  0  0  0  0  0  0  0
    8.9134  -12.7045   20.3717 C   0  0  0  0  0  0  0  0  0  0  0  0
    9.5592  -13.9980   19.9625 C   0  0  1  0  0  0  0  0  0  0  0  0
    9.5613  -14.9090   21.1437 C   0  0  0  0  0  0  0  0  0  0  0  0
    8.4438  -15.4319   21.4350 O   0  0  0  0  0  0  0  0  0  0  0  0
   11.7258  -18.4061   17.9364 N   0  0  0  0  0  0  0  0  0  0  0  0
   11.1495  -19.6338   18.3316 C   0  0  0  0  0  0  0  0  0  0  0  0
   10.4812  -20.3680   17.4989 N   0  0  0  0  0  0  0  0  0  0  0  0
   11.3155  -20.0575   19.6730 N   0  0  0  0  0  0  0  0  0  0  0  0
   11.9495  -19.1946   20.6229 C   0  0  0  0  0  0  0  0  0  0  0  0
   10.8692  -18.2841   21.2243 C   0  0  0  0  0  0  0  0  0  0  0  0
   11.5977  -17.3677   22.1725 C   0  0  0  0  0  0  0  0  0  0  0  0
   10.7340  -16.3130   22.7988 C   0  0  2  0  0  0  0  0  0  0  0  0
   10.7201  -15.1818   21.8998 N   0  0  0  0  0  0  0  0  0  0  0  0
   11.1555  -15.8670   24.1280 C   0  0  0  0  0  0  0  0  0  0  0  0
   11.0717  -16.6372   25.1153 O   0  0  0  0  0  0  0  0  0  0  0  0
   11.6647  -14.6018   24.3969 O   0  0  0  0  0  0  0  0  0  0  0  0
  2  1  1  6
  2  3  1  0
  4  3  1  0
  5  2  1  0
  6  5  2  0
  7  5  1  0
  7  8  1  0
  9  8  1  0
 10  9  1  0
 10 11  1  0
 11  7  1  0
 11 12  1  1
 12 22  1  0
 13 12  2  0
 15 16  2  0
 15 14  1  0
 17 15  1  0
 18 17  1  0
 19 18  1  0
 20 19  1  0
 21 22  1  0
 21 20  1  6
 23 21  1  0
 24 23  2  0
 25 23  1  0
M  END
$$$$
