CPR.pdb
     RDKit          3D

 25 25  0  0  1  0  0  0  0  0999 V2000
    6.9377  -17.8186   17.1349 N   0  0  0  0  0  0  0  0  0  0  0  0
    6.5851  -17.2222   18.3913 C   0  0  1  0  0  0  0  0  0  0  0  0
    5.7826  -18.1974   19.2294 C   0  0  0  0  0  0  0  0  0  0  0  0
    4.0749  -18.3249   18.6444 S   0  0  0  0  0  0  0  0  0  0  0  0
    7.7631  -16.7278   19.1239 C   0  0  0  0  0  0  0  0  0  0  0  0
    8.8565  -17.3043   18.9011 O   0  0  0  0  0  0  0  0  0  0  0  0
    7.7207  -15.6402   20.0614 N   0  0  0  0  0  0  0  0  0  0  0  0
    6.5410  -14.9736   20.5642 C   0  0  0  0  0  0  0  0  0  0  0  0
    7.0199  -13.8591   21.4521 C   0  0  0  0  0  0  0  0  0  0  0  0
    8.4518  -13.6577   21.0147 C   0  0  0  0  0  0  0  0  0  0  0  0
    8.8748  -15.0516   20.6462 C   0  0  1  0  0  0  0  0  0  0  0  0
    9.2081  -15.7824   21.9031 C   0  0  0  0  0  0  0  0  0  0  0  0
    8.2632  -16.4572   22.4121 O   0  0  0  0  0  0  0  0  0  0  0  0
   17.2281  -19.1604   22.0914 N   0  0  0  0  0  0  0  0  0  0  0  0
   16.2226  -20.1496   22.1689 C   0  0  0  0  0  0  0  0  0  0  0  0
   16.4302  -21.3608   21.7577 N   0  0  0  0  0  0  0  0  0  0  0  0
   14.9638  -19.7926   22.7113 N   0  0  0  0  0  0  0  0  0  0  0  0
   14.2797  -18.6315   22.2288 C   0  0  0  0  0  0  0  0  0  0  0  0
   12.9585  -18.5098   23.0017 C   0  0  0  0  0  0  0  0  0  0  0  0
   12.3222  -17.2349   22.5124 C   0  0  0  0  0  0  0  0  0  0  0  0
   11.0061  -16.9141   23.1569 C   0  0  2  0  0  0  0  0  0  0  0  0
   10.4843  -15.7368   22.5015 N   0  0  0  0  0  0  0  0  0  0  0  0
   11.0574  -16.6788   24.6011 C   0  0  0  0  0  0  0  0  0  0  0  0
   11.3249  -17.6168   25.3908 O   0  0  0  0  0  0  0  0  0  0  0  0
   10.8234  -15.4441   25.1950 O   0  0  0  0  0  0  0  0  0  0  0  0
  2  1  1  6
  2  3  1  0
  4  3  1  0
  5  2  1  0
  6  5  2  0
  7  5  1  0
  7  8  1  0
  9  8  1  0
 10  9  1  0
 10 11  1  0
 11  7  1  0
 11 12  1  1
 12 22  1  0
 13 12  2  0
 15 16  2  0
 15 14  1  0
 17 15  1  0
 18 17  1  0
 19 18  1  0
 20 19  1  0
 21 22  1  0
 21 20  1  6
 23 21  1  0
 24 23  2  0
 25 23  1  0
M  END
$$$$
