CPR.pdb
     RDKit          3D

 25 25  0  0  1  0  0  0  0  0999 V2000
    8.2131  -13.5180   20.9055 N   0  0  0  0  0  0  0  0  0  0  0  0
    7.3762  -13.7024   22.0563 C   0  0  1  0  0  0  0  0  0  0  0  0
    6.6017  -15.0002   21.9406 C   0  0  0  0  0  0  0  0  0  0  0  0
    7.2696  -16.0562   20.6316 S   0  0  0  0  0  0  0  0  0  0  0  0
    8.1380  -13.6422   23.3151 C   0  0  0  0  0  0  0  0  0  0  0  0
    9.3778  -13.8285   23.2408 O   0  0  0  0  0  0  0  0  0  0  0  0
    7.5417  -13.3861   24.5967 N   0  0  0  0  0  0  0  0  0  0  0  0
    6.1304  -13.2925   24.8940 C   0  0  0  0  0  0  0  0  0  0  0  0
    6.0183  -12.9357   26.3500 C   0  0  0  0  0  0  0  0  0  0  0  0
    7.3818  -12.3725   26.6754 C   0  0  0  0  0  0  0  0  0  0  0  0
    8.2851  -13.1854   25.7915 C   0  0  1  0  0  0  0  0  0  0  0  0
    8.5120  -14.5049   26.4491 C   0  0  0  0  0  0  0  0  0  0  0  0
    7.6482  -15.3983   26.1983 O   0  0  0  0  0  0  0  0  0  0  0  0
   15.8523  -15.7336   23.5005 N   0  0  0  0  0  0  0  0  0  0  0  0
   15.6336  -17.0442   23.9799 C   0  0  0  0  0  0  0  0  0  0  0  0
   16.4389  -18.0163   23.6870 N   0  0  0  0  0  0  0  0  0  0  0  0
   14.5030  -17.2844   24.7988 N   0  0  0  0  0  0  0  0  0  0  0  0
   13.5935  -16.2192   25.0937 C   0  0  0  0  0  0  0  0  0  0  0  0
   12.4990  -16.7776   26.0145 C   0  0  0  0  0  0  0  0  0  0  0  0
   11.5473  -15.6334   26.2481 C   0  0  0  0  0  0  0  0  0  0  0  0
   10.3773  -15.9715   27.1240 C   0  0  2  0  0  0  0  0  0  0  0  0
    9.6088  -14.7603   27.2981 N   0  0  0  0  0  0  0  0  0  0  0  0
   10.7173  -16.5196   28.4383 C   0  0  0  0  0  0  0  0  0  0  0  0
   11.1339  -17.6981   28.5494 O   0  0  0  0  0  0  0  0  0  0  0  0
   10.6115  -15.8071   29.6273 O   0  0  0  0  0  0  0  0  0  0  0  0
  2  1  1  6
  2  3  1  0
  4  3  1  0
  5  2  1  0
  6  5  2  0
  7  5  1  0
  7  8  1  0
  9  8  1  0
 10  9  1  0
 10 11  1  0
 11  7  1  0
 11 12  1  1
 12 22  1  0
 13 12  2  0
 15 16  2  0
 15 14  1  0
 17 15  1  0
 18 17  1  0
 19 18  1  0
 20 19  1  0
 21 22  1  0
 21 20  1  1
 23 21  1  0
 24 23  2  0
 25 23  1  0
M  END
$$$$
