CPR.pdb
     RDKit          3D

 25 25  0  0  1  0  0  0  0  0999 V2000
    9.1573  -13.9991   16.5964 N   0  0  0  0  0  0  0  0  0  0  0  0
    8.3380  -14.5434   17.6409 C   0  0  1  0  0  0  0  0  0  0  0  0
    7.7951  -15.8980   17.2314 C   0  0  0  0  0  0  0  0  0  0  0  0
    7.0374  -16.7591   18.6310 S   0  0  0  0  0  0  0  0  0  0  0  0
    9.0510  -14.6175   18.9274 C   0  0  0  0  0  0  0  0  0  0  0  0
   10.2462  -15.0017   18.8956 O   0  0  0  0  0  0  0  0  0  0  0  0
    8.4555  -14.2781   20.1899 N   0  0  0  0  0  0  0  0  0  0  0  0
    7.0782  -13.9109   20.4290 C   0  0  0  0  0  0  0  0  0  0  0  0
    6.9682  -13.5742   21.8898 C   0  0  0  0  0  0  0  0  0  0  0  0
    8.3988  -13.3035   22.2924 C   0  0  0  0  0  0  0  0  0  0  0  0
    9.1645  -14.2593   21.4217 C   0  0  1  0  0  0  0  0  0  0  0  0
    9.0918  -15.6130   22.0440 C   0  0  0  0  0  0  0  0  0  0  0  0
    8.3893  -16.4654   21.4220 O   0  0  0  0  0  0  0  0  0  0  0  0
   12.1392  -20.8026   20.5259 N   0  0  0  0  0  0  0  0  0  0  0  0
   13.4811  -20.7440   20.9633 C   0  0  0  0  0  0  0  0  0  0  0  0
   14.1279  -21.8117   21.3109 N   0  0  0  0  0  0  0  0  0  0  0  0
   14.1198  -19.4808   21.0173 N   0  0  0  0  0  0  0  0  0  0  0  0
   13.3370  -18.2868   21.1188 C   0  0  0  0  0  0  0  0  0  0  0  0
   12.3608  -18.4635   22.2907 C   0  0  0  0  0  0  0  0  0  0  0  0
   11.4948  -17.2307   22.2824 C   0  0  0  0  0  0  0  0  0  0  0  0
   10.4460  -17.2048   23.3547 C   0  0  2  0  0  0  0  0  0  0  0  0
    9.7533  -15.9414   23.2454 N   0  0  0  0  0  0  0  0  0  0  0  0
   10.9448  -17.3642   24.7219 C   0  0  0  0  0  0  0  0  0  0  0  0
   11.2076  -16.3592   25.4260 O   0  0  0  0  0  0  0  0  0  0  0  0
   11.1602  -18.5951   25.3308 O   0  0  0  0  0  0  0  0  0  0  0  0
  2  1  1  6
  2  3  1  0
  4  3  1  0
  5  2  1  0
  6  5  2  0
  7  5  1  0
  7  8  1  0
  9  8  1  0
 10  9  1  0
 10 11  1  0
 11  7  1  0
 11 12  1  1
 12 22  1  0
 13 12  2  0
 15 16  2  0
 15 14  1  0
 17 15  1  0
 18 17  1  0
 19 18  1  0
 20 19  1  0
 21 22  1  0
 21 20  1  6
 23 21  1  0
 24 23  2  0
 25 23  1  0
M  END
$$$$
