CPR.pdb
     RDKit          3D

 25 25  0  0  1  0  0  0  0  0999 V2000
    5.3198  -18.6132   19.6172 N   0  0  0  0  0  0  0  0  0  0  0  0
    5.5266  -17.3852   20.3298 C   0  0  1  0  0  0  0  0  0  0  0  0
    5.1014  -17.5388   21.7766 C   0  0  0  0  0  0  0  0  0  0  0  0
    3.3242  -17.8499   21.9156 S   0  0  0  0  0  0  0  0  0  0  0  0
    6.9160  -16.9079   20.2265 C   0  0  0  0  0  0  0  0  0  0  0  0
    7.8093  -17.7793   20.0858 O   0  0  0  0  0  0  0  0  0  0  0  0
    7.2888  -15.5215   20.2781 N   0  0  0  0  0  0  0  0  0  0  0  0
    6.4087  -14.3932   20.4806 C   0  0  0  0  0  0  0  0  0  0  0  0
    7.2588  -13.1578   20.3758 C   0  0  0  0  0  0  0  0  0  0  0  0
    8.4850  -13.6418   19.6381 C   0  0  0  0  0  0  0  0  0  0  0  0
    8.6232  -15.0532   20.1347 C   0  0  1  0  0  0  0  0  0  0  0  0
    9.2693  -15.0106   21.4785 C   0  0  0  0  0  0  0  0  0  0  0  0
    8.6599  -14.3315   22.3587 O   0  0  0  0  0  0  0  0  0  0  0  0
    8.9456  -13.6987   28.2881 N   0  0  0  0  0  0  0  0  0  0  0  0
    9.9048  -14.6938   28.5794 C   0  0  0  0  0  0  0  0  0  0  0  0
   10.4975  -14.7477   29.7306 N   0  0  0  0  0  0  0  0  0  0  0  0
   10.2147  -15.6474   27.5789 N   0  0  0  0  0  0  0  0  0  0  0  0
    9.7960  -15.4289   26.2277 C   0  0  0  0  0  0  0  0  0  0  0  0
   10.2791  -16.6202   25.3879 C   0  0  0  0  0  0  0  0  0  0  0  0
    9.8703  -16.3065   23.9722 C   0  0  0  0  0  0  0  0  0  0  0  0
   10.9611  -15.7124   23.1311 C   0  0  2  0  0  0  0  0  0  0  0  0
   10.4791  -15.6745   21.7694 N   0  0  0  0  0  0  0  0  0  0  0  0
   12.2397  -16.4246   23.1700 C   0  0  0  0  0  0  0  0  0  0  0  0
   13.2538  -15.8870   23.6773 O   0  0  0  0  0  0  0  0  0  0  0  0
   12.4293  -17.7069   22.6679 O   0  0  0  0  0  0  0  0  0  0  0  0
  2  1  1  6
  2  3  1  0
  4  3  1  0
  5  2  1  0
  6  5  2  0
  7  5  1  0
  7  8  1  0
  9  8  1  0
 10  9  1  0
 10 11  1  0
 11  7  1  0
 11 12  1  1
 12 22  1  0
 13 12  2  0
 15 16  2  0
 15 14  1  0
 17 15  1  0
 18 17  1  0
 19 18  1  0
 20 19  1  0
 21 22  1  0
 21 20  1  1
 23 21  1  0
 24 23  2  0
 25 23  1  0
M  END
$$$$
