CPR.pdb
     RDKit          3D

 25 25  0  0  1  0  0  0  0  0999 V2000
    8.7376  -14.7006   21.1020 N   0  0  0  0  0  0  0  0  0  0  0  0
    7.7635  -14.3325   22.0890 C   0  0  1  0  0  0  0  0  0  0  0  0
    6.5109  -15.1711   21.9299 C   0  0  0  0  0  0  0  0  0  0  0  0
    6.8769  -16.9390   22.0525 S   0  0  0  0  0  0  0  0  0  0  0  0
    8.2974  -14.4197   23.4587 C   0  0  0  0  0  0  0  0  0  0  0  0
    9.3745  -15.0471   23.6121 O   0  0  0  0  0  0  0  0  0  0  0  0
    7.6571  -13.8330   24.6031 N   0  0  0  0  0  0  0  0  0  0  0  0
    6.4053  -13.1109   24.6218 C   0  0  0  0  0  0  0  0  0  0  0  0
    6.2037  -12.6321   26.0324 C   0  0  0  0  0  0  0  0  0  0  0  0
    7.5926  -12.6974   26.6230 C   0  0  0  0  0  0  0  0  0  0  0  0
    8.1849  -13.8871   25.9218 C   0  0  1  0  0  0  0  0  0  0  0  0
    7.6823  -15.1195   26.5952 C   0  0  0  0  0  0  0  0  0  0  0  0
    6.6767  -15.6693   26.0534 O   0  0  0  0  0  0  0  0  0  0  0  0
    7.5330  -20.0285   22.0281 N   0  0  0  0  0  0  0  0  0  0  0  0
    6.5129  -20.3273   22.9585 C   0  0  0  0  0  0  0  0  0  0  0  0
    5.4393  -20.9619   22.6066 N   0  0  0  0  0  0  0  0  0  0  0  0
    6.6833  -19.9166   24.3033 N   0  0  0  0  0  0  0  0  0  0  0  0
    7.7033  -18.9701   24.6390 C   0  0  0  0  0  0  0  0  0  0  0  0
    7.5303  -18.5983   26.1187 C   0  0  0  0  0  0  0  0  0  0  0  0
    8.5943  -17.5699   26.4021 C   0  0  0  0  0  0  0  0  0  0  0  0
    8.6000  -17.0591   27.8125 C   0  0  2  0  0  0  0  0  0  0  0  0
    8.2732  -15.6525   27.7596 N   0  0  0  0  0  0  0  0  0  0  0  0
    9.8605  -17.2340   28.5364 C   0  0  0  0  0  0  0  0  0  0  0  0
   10.8465  -16.4990   28.2866 O   0  0  0  0  0  0  0  0  0  0  0  0
   10.0622  -18.1919   29.5233 O   0  0  0  0  0  0  0  0  0  0  0  0
  2  1  1  6
  2  3  1  0
  4  3  1  0
  5  2  1  0
  6  5  2  0
  7  5  1  0
  7  8  1  0
  9  8  1  0
 10  9  1  0
 10 11  1  0
 11  7  1  0
 11 12  1  1
 12 22  1  0
 13 12  2  0
 15 16  2  0
 15 14  1  0
 17 15  1  0
 18 17  1  0
 19 18  1  0
 20 19  1  0
 21 22  1  0
 21 20  1  6
 23 21  1  0
 24 23  2  0
 25 23  1  0
M  END
$$$$
