CPR.pdb
     RDKit          3D

 25 25  0  0  1  0  0  0  0  0999 V2000
    8.2732  -18.3287   18.4302 N   0  0  0  0  0  0  0  0  0  0  0  0
    7.4805  -17.3057   19.0496 C   0  0  1  0  0  0  0  0  0  0  0  0
    6.2966  -17.9210   19.7687 C   0  0  0  0  0  0  0  0  0  0  0  0
    5.5493  -19.2519   18.7966 S   0  0  0  0  0  0  0  0  0  0  0  0
    8.2744  -16.4555   19.9528 C   0  0  0  0  0  0  0  0  0  0  0  0
    9.2751  -16.9824   20.4990 O   0  0  0  0  0  0  0  0  0  0  0  0
    7.9640  -15.0810   20.2321 N   0  0  0  0  0  0  0  0  0  0  0  0
    6.8407  -14.3250   19.7266 C   0  0  0  0  0  0  0  0  0  0  0  0
    6.9987  -12.9209   20.2397 C   0  0  0  0  0  0  0  0  0  0  0  0
    8.4622  -12.8483   20.6071 C   0  0  0  0  0  0  0  0  0  0  0  0
    8.7460  -14.2471   21.0768 C   0  0  1  0  0  0  0  0  0  0  0  0
    8.2504  -14.3749   22.4780 C   0  0  0  0  0  0  0  0  0  0  0  0
    7.0125  -14.1577   22.6438 O   0  0  0  0  0  0  0  0  0  0  0  0
    6.9690  -20.9018   22.9231 N   0  0  0  0  0  0  0  0  0  0  0  0
    6.6950  -21.0630   24.2994 C   0  0  0  0  0  0  0  0  0  0  0  0
    6.6188  -22.2371   24.8424 N   0  0  0  0  0  0  0  0  0  0  0  0
    6.5017  -19.9039   25.0903 N   0  0  0  0  0  0  0  0  0  0  0  0
    6.4877  -18.6116   24.4748 C   0  0  0  0  0  0  0  0  0  0  0  0
    7.6018  -17.7732   25.1180 C   0  0  0  0  0  0  0  0  0  0  0  0
    7.9671  -16.7337   24.0905 C   0  0  0  0  0  0  0  0  0  0  0  0
    8.5543  -15.4778   24.6636 C   0  0  2  0  0  0  0  0  0  0  0  0
    9.0890  -14.7131   23.5603 N   0  0  0  0  0  0  0  0  0  0  0  0
    9.6038  -15.6779   25.6646 C   0  0  0  0  0  0  0  0  0  0  0  0
    9.3083  -15.9748   26.8476 O   0  0  0  0  0  0  0  0  0  0  0  0
   10.9630  -15.5606   25.3981 O   0  0  0  0  0  0  0  0  0  0  0  0
  2  1  1  1
  2  3  1  0
  4  3  1  0
  5  2  1  0
  6  5  2  0
  7  5  1  0
  7  8  1  0
  9  8  1  0
 10  9  1  0
 10 11  1  0
 11  7  1  0
 11 12  1  1
 12 22  1  0
 13 12  2  0
 15 16  2  0
 15 14  1  0
 17 15  1  0
 18 17  1  0
 19 18  1  0
 20 19  1  0
 21 22  1  0
 21 20  1  6
 23 21  1  0
 24 23  2  0
 25 23  1  0
M  END
$$$$
