CPR.pdb
     RDKit          3D

 25 25  0  0  1  0  0  0  0  0999 V2000
    5.4891  -14.0799   26.0142 N   0  0  0  0  0  0  0  0  0  0  0  0
    6.3009  -13.5515   24.9557 C   0  0  1  0  0  0  0  0  0  0  0  0
    7.3376  -12.5972   25.5144 C   0  0  0  0  0  0  0  0  0  0  0  0
    6.5624  -11.1846   26.3380 S   0  0  0  0  0  0  0  0  0  0  0  0
    6.9275  -14.6135   24.1505 C   0  0  0  0  0  0  0  0  0  0  0  0
    7.0553  -15.7394   24.6919 O   0  0  0  0  0  0  0  0  0  0  0  0
    7.3897  -14.4252   22.8034 N   0  0  0  0  0  0  0  0  0  0  0  0
    7.3366  -13.2053   22.0302 C   0  0  0  0  0  0  0  0  0  0  0  0
    7.8669  -13.5367   20.6632 C   0  0  0  0  0  0  0  0  0  0  0  0
    7.7363  -15.0402   20.5953 C   0  0  0  0  0  0  0  0  0  0  0  0
    7.9866  -15.4496   22.0193 C   0  0  1  0  0  0  0  0  0  0  0  0
    9.4601  -15.4418   22.2516 C   0  0  0  0  0  0  0  0  0  0  0  0
   10.0292  -14.3160   22.1255 O   0  0  0  0  0  0  0  0  0  0  0  0
   10.9112  -14.8329   29.3667 N   0  0  0  0  0  0  0  0  0  0  0  0
   10.7228  -16.2223   29.1955 C   0  0  0  0  0  0  0  0  0  0  0  0
   10.4856  -17.0032   30.2020 N   0  0  0  0  0  0  0  0  0  0  0  0
   10.7979  -16.7583   27.8865 N   0  0  0  0  0  0  0  0  0  0  0  0
   11.2143  -15.9293   26.7965 C   0  0  0  0  0  0  0  0  0  0  0  0
   11.1820  -16.7814   25.5195 C   0  0  0  0  0  0  0  0  0  0  0  0
   11.5202  -15.8360   24.3963 C   0  0  0  0  0  0  0  0  0  0  0  0
   11.5566  -16.4757   23.0399 C   0  0  2  0  0  0  0  0  0  0  0  0
   10.1895  -16.6007   22.5889 N   0  0  0  0  0  0  0  0  0  0  0  0
   12.2045  -17.7873   22.9837 C   0  0  0  0  0  0  0  0  0  0  0  0
   11.5314  -18.8217   22.7555 O   0  0  0  0  0  0  0  0  0  0  0  0
   13.5671  -17.9886   23.1707 O   0  0  0  0  0  0  0  0  0  0  0  0
  2  1  1  1
  2  3  1  0
  4  3  1  0
  5  2  1  0
  6  5  2  0
  7  5  1  0
  7  8  1  0
  9  8  1  0
 10  9  1  0
 10 11  1  0
 11  7  1  0
 11 12  1  6
 12 22  1  0
 13 12  2  0
 15 16  2  0
 15 14  1  0
 17 15  1  0
 18 17  1  0
 19 18  1  0
 20 19  1  0
 21 22  1  0
 21 20  1  1
 23 21  1  0
 24 23  2  0
 25 23  1  0
M  END
$$$$
