CPR.pdb
     RDKit          3D

 25 25  0  0  1  0  0  0  0  0999 V2000
    8.8851  -15.1641   14.5242 N   0  0  0  0  0  0  0  0  0  0  0  0
    8.1544  -15.0105   15.7494 C   0  0  1  0  0  0  0  0  0  0  0  0
    7.2987  -16.2346   16.0082 C   0  0  0  0  0  0  0  0  0  0  0  0
    8.0974  -17.3676   17.1714 S   0  0  0  0  0  0  0  0  0  0  0  0
    9.0369  -14.7210   16.8922 C   0  0  0  0  0  0  0  0  0  0  0  0
   10.2455  -15.0416   16.7749 O   0  0  0  0  0  0  0  0  0  0  0  0
    8.5891  -14.1023   18.1089 N   0  0  0  0  0  0  0  0  0  0  0  0
    7.2325  -13.7374   18.4487 C   0  0  0  0  0  0  0  0  0  0  0  0
    7.2909  -13.0548   19.7867 C   0  0  0  0  0  0  0  0  0  0  0  0
    8.7393  -12.6416   19.9027 C   0  0  0  0  0  0  0  0  0  0  0  0
    9.4498  -13.7544   19.1853 C   0  0  1  0  0  0  0  0  0  0  0  0
    9.5543  -14.9144   20.1172 C   0  0  0  0  0  0  0  0  0  0  0  0
    8.6721  -15.8136   19.9746 O   0  0  0  0  0  0  0  0  0  0  0  0
   16.6871  -18.5179   18.9659 N   0  0  0  0  0  0  0  0  0  0  0  0
   16.1189  -19.4890   19.8199 C   0  0  0  0  0  0  0  0  0  0  0  0
   16.6816  -20.6416   20.0047 N   0  0  0  0  0  0  0  0  0  0  0  0
   14.9056  -19.1797   20.4822 N   0  0  0  0  0  0  0  0  0  0  0  0
   14.2648  -17.9208   20.2511 C   0  0  0  0  0  0  0  0  0  0  0  0
   12.9824  -17.8848   21.0950 C   0  0  0  0  0  0  0  0  0  0  0  0
   12.3031  -16.5880   20.7393 C   0  0  0  0  0  0  0  0  0  0  0  0
   11.0340  -16.3274   21.4956 C   0  0  2  0  0  0  0  0  0  0  0  0
   10.5605  -15.0208   21.0997 N   0  0  0  0  0  0  0  0  0  0  0  0
   11.1535  -16.3751   22.9540 C   0  0  0  0  0  0  0  0  0  0  0  0
   11.2670  -15.3171   23.6194 O   0  0  0  0  0  0  0  0  0  0  0  0
   11.1509  -17.5513   23.6948 O   0  0  0  0  0  0  0  0  0  0  0  0
  2  1  1  6
  2  3  1  0
  4  3  1  0
  5  2  1  0
  6  5  2  0
  7  5  1  0
  7  8  1  0
  9  8  1  0
 10  9  1  0
 10 11  1  0
 11  7  1  0
 11 12  1  1
 12 22  1  0
 13 12  2  0
 15 16  2  0
 15 14  1  0
 17 15  1  0
 18 17  1  0
 19 18  1  0
 20 19  1  0
 21 22  1  0
 21 20  1  6
 23 21  1  0
 24 23  2  0
 25 23  1  0
M  END
$$$$
