CPR.pdb
     RDKit          3D

 25 25  0  0  1  0  0  0  0  0999 V2000
    9.5077  -15.1845   15.0260 N   0  0  0  0  0  0  0  0  0  0  0  0
    8.6407  -15.3916   16.1503 C   0  0  1  0  0  0  0  0  0  0  0  0
    8.0952  -16.8057   16.1401 C   0  0  0  0  0  0  0  0  0  0  0  0
    7.2540  -17.2028   17.6923 S   0  0  0  0  0  0  0  0  0  0  0  0
    9.3018  -15.0805   17.4289 C   0  0  0  0  0  0  0  0  0  0  0  0
   10.4944  -15.4521   17.5595 O   0  0  0  0  0  0  0  0  0  0  0  0
    8.6598  -14.3867   18.5106 N   0  0  0  0  0  0  0  0  0  0  0  0
    7.3200  -13.8448   18.5202 C   0  0  0  0  0  0  0  0  0  0  0  0
    7.1443  -13.1500   19.8416 C   0  0  0  0  0  0  0  0  0  0  0  0
    8.5639  -12.9235   20.3061 C   0  0  0  0  0  0  0  0  0  0  0  0
    9.2758  -14.1315   19.7659 C   0  0  1  0  0  0  0  0  0  0  0  0
    9.0043  -15.2775   20.6814 C   0  0  0  0  0  0  0  0  0  0  0  0
    8.2257  -16.1691   20.2277 O   0  0  0  0  0  0  0  0  0  0  0  0
   14.0039  -19.6661   18.5706 N   0  0  0  0  0  0  0  0  0  0  0  0
   14.4362  -20.0218   19.8675 C   0  0  0  0  0  0  0  0  0  0  0  0
   15.0305  -21.1500   20.0982 N   0  0  0  0  0  0  0  0  0  0  0  0
   14.2070  -19.1128   20.9293 N   0  0  0  0  0  0  0  0  0  0  0  0
   13.3944  -17.9538   20.7165 C   0  0  0  0  0  0  0  0  0  0  0  0
   12.2685  -17.9717   21.7605 C   0  0  0  0  0  0  0  0  0  0  0  0
   11.3990  -16.7853   21.4347 C   0  0  0  0  0  0  0  0  0  0  0  0
   10.2347  -16.5990   22.3622 C   0  0  2  0  0  0  0  0  0  0  0  0
    9.5666  -15.3791   21.9707 N   0  0  0  0  0  0  0  0  0  0  0  0
   10.5730  -16.5280   23.7848 C   0  0  0  0  0  0  0  0  0  0  0  0
   10.6125  -17.5697   24.4836 O   0  0  0  0  0  0  0  0  0  0  0  0
   10.8681  -15.3461   24.4543 O   0  0  0  0  0  0  0  0  0  0  0  0
  2  1  1  6
  2  3  1  0
  4  3  1  0
  5  2  1  0
  6  5  2  0
  7  5  1  0
  7  8  1  0
  9  8  1  0
 10  9  1  0
 10 11  1  0
 11  7  1  0
 11 12  1  1
 12 22  1  0
 13 12  2  0
 15 16  2  0
 15 14  1  0
 17 15  1  0
 18 17  1  0
 19 18  1  0
 20 19  1  0
 21 22  1  0
 21 20  1  6
 23 21  1  0
 24 23  2  0
 25 23  1  0
M  END
$$$$
