CPR.pdb
     RDKit          3D

 25 25  0  0  1  0  0  0  0  0999 V2000
    5.0676  -12.7576   26.2260 N   0  0  0  0  0  0  0  0  0  0  0  0
    6.3210  -12.5071   25.5741 C   0  0  1  0  0  0  0  0  0  0  0  0
    7.3508  -12.0315   26.5795 C   0  0  0  0  0  0  0  0  0  0  0  0
    8.9683  -11.7866   25.8060 S   0  0  0  0  0  0  0  0  0  0  0  0
    6.8037  -13.6794   24.8248 C   0  0  0  0  0  0  0  0  0  0  0  0
    6.6742  -14.8008   25.3752 O   0  0  0  0  0  0  0  0  0  0  0  0
    7.4031  -13.6015   23.5217 N   0  0  0  0  0  0  0  0  0  0  0  0
    7.7565  -12.4005   22.7994 C   0  0  0  0  0  0  0  0  0  0  0  0
    8.2760  -12.8395   21.4589 C   0  0  0  0  0  0  0  0  0  0  0  0
    7.7323  -14.2419   21.3182 C   0  0  0  0  0  0  0  0  0  0  0  0
    7.7458  -14.7362   22.7371 C   0  0  1  0  0  0  0  0  0  0  0  0
    9.1390  -15.1529   23.0695 C   0  0  0  0  0  0  0  0  0  0  0  0
    9.9153  -14.2228   23.4428 O   0  0  0  0  0  0  0  0  0  0  0  0
   10.3037  -20.7168   28.9657 N   0  0  0  0  0  0  0  0  0  0  0  0
   11.6562  -20.4401   28.6668 C   0  0  0  0  0  0  0  0  0  0  0  0
   12.6177  -20.8550   29.4302 N   0  0  0  0  0  0  0  0  0  0  0  0
   11.9512  -19.6905   27.5017 N   0  0  0  0  0  0  0  0  0  0  0  0
   10.8887  -19.1350   26.7199 C   0  0  0  0  0  0  0  0  0  0  0  0
   11.4957  -18.6016   25.4142 C   0  0  0  0  0  0  0  0  0  0  0  0
   10.3526  -17.9599   24.6718 C   0  0  0  0  0  0  0  0  0  0  0  0
   10.7672  -16.8961   23.6987 C   0  0  2  0  0  0  0  0  0  0  0  0
    9.5821  -16.4887   22.9793 N   0  0  0  0  0  0  0  0  0  0  0  0
   11.8003  -17.2929   22.7402 C   0  0  0  0  0  0  0  0  0  0  0  0
   11.4886  -17.6500   21.5782 O   0  0  0  0  0  0  0  0  0  0  0  0
   13.1605  -17.3063   23.0264 O   0  0  0  0  0  0  0  0  0  0  0  0
  2  1  1  1
  2  3  1  0
  4  3  1  0
  5  2  1  0
  6  5  2  0
  7  5  1  0
  7  8  1  0
  9  8  1  0
 10  9  1  0
 10 11  1  0
 11  7  1  0
 11 12  1  1
 12 22  1  0
 13 12  2  0
 15 16  2  0
 15 14  1  0
 17 15  1  0
 18 17  1  0
 19 18  1  0
 20 19  1  0
 21 22  1  0
 21 20  1  1
 23 21  1  0
 24 23  2  0
 25 23  1  0
M  END
$$$$
