KRV.pdb
     RDKit          3D

 28 27  0  0  1  0  0  0  0  0999 V2000
    8.0146  -16.9912   18.7904 N   0  0  0  0  0  0  0  0  0  0  0  0
    8.3049  -15.8363   19.5956 C   0  0  1  0  0  0  0  0  0  0  0  0
    7.9405  -14.5788   18.8984 C   0  0  0  0  0  0  0  0  0  0  0  0
    8.2942  -14.6039   17.4459 C   0  0  0  0  0  0  0  0  0  0  0  0
    8.0302  -13.3680   16.6689 C   0  0  0  0  0  0  0  0  0  0  0  0
    8.3464  -13.5576   15.2000 C   0  0  0  0  0  0  0  0  0  0  0  0
    8.0764  -12.2928   14.5334 N   0  0  0  0  0  0  0  0  0  0  0  0
    7.6499  -15.9680   20.9256 C   0  0  0  0  0  0  0  0  0  0  0  0
    6.4129  -16.1745   20.9560 O   0  0  0  0  0  0  0  0  0  0  0  0
    9.1408  -19.0761   27.7622 N   0  0  0  0  0  0  0  0  0  0  0  0
    7.8431  -19.6519   27.6817 C   0  0  0  0  0  0  0  0  0  0  0  0
    7.1197  -19.8383   28.7545 N   0  0  0  0  0  0  0  0  0  0  0  0
    7.2523  -20.0570   26.4589 N   0  0  0  0  0  0  0  0  0  0  0  0
    7.6806  -19.5177   25.1897 C   0  0  0  0  0  0  0  0  0  0  0  0
    7.3852  -18.0349   25.0796 C   0  0  0  0  0  0  0  0  0  0  0  0
    7.8395  -17.6025   23.7044 C   0  0  0  0  0  0  0  0  0  0  0  0
    7.7147  -16.1344   23.4502 C   0  0  2  0  0  0  0  0  0  0  0  0
    8.3351  -15.8747   22.1468 N   0  0  0  0  0  0  0  0  0  0  0  0
    8.3322  -15.2662   24.4511 C   0  0  0  0  0  0  0  0  0  0  0  0
    9.5606  -15.2210   24.7110 O   0  0  0  0  0  0  0  0  0  0  0  0
    6.1910  -20.2750   28.7533 C   0  0  0  0  0  0  0  0  0  0  0  0
    7.0319  -11.5498   25.0332 C   0  0  2  0  0  0  0  0  0  0  0  0
    7.2280  -12.2138   26.3792 C   0  0  0  0  0  0  0  0  0  0  0  0
    5.8586  -12.6163   26.8839 C   0  0  2  0  0  0  0  0  0  0  0  0
    8.0711  -13.4411   26.1698 N   0  0  0  0  0  0  0  0  0  0  0  0
    7.5168  -14.3690   25.2330 C   0  0  0  0  0  0  0  0  0  0  0  0
    8.4301  -14.0844   27.4576 O   0  0  0  0  0  0  0  0  0  0  0  0
    9.1708  -13.4243   28.4022 O   0  0  0  0  0  0  0  0  0  0  0  0
  2  1  1  6
  2  3  1  0
  3  4  1  0
  4  5  1  0
  5  6  1  0
  7  6  1  0
  8  9  2  0
  8  2  1  0
 10 11  1  0
 11 12  2  0
 13 14  1  0
 13 11  1  0
 14 15  1  0
 15 16  1  0
 17 16  1  1
 17 18  1  0
 18  8  1  0
 19 17  1  0
 20 19  2  0
 22 21  1  1
 22 24  1  0
 23 22  1  0
 24 26  1  0
 24 25  1  1
 25 19  1  0
 26 27  1  0
 28 26  2  0
M  END
$$$$
