KRV.pdb
     RDKit          3D

 28 27  0  0  1  0  0  0  0  0999 V2000
    7.2885  -16.1143   20.3048 N   0  0  0  0  0  0  0  0  0  0  0  0
    8.2473  -15.2704   20.9643 C   0  0  1  0  0  0  0  0  0  0  0  0
    7.7235  -13.8963   21.1579 C   0  0  0  0  0  0  0  0  0  0  0  0
    8.1883  -12.9496   20.0981 C   0  0  0  0  0  0  0  0  0  0  0  0
    7.6711  -13.1716   18.7254 C   0  0  0  0  0  0  0  0  0  0  0  0
    8.6251  -12.6343   17.6791 C   0  0  0  0  0  0  0  0  0  0  0  0
    8.0068  -12.8496   16.3797 N   0  0  0  0  0  0  0  0  0  0  0  0
    8.6887  -15.9032   22.2371 C   0  0  0  0  0  0  0  0  0  0  0  0
    7.8226  -16.1232   23.1177 O   0  0  0  0  0  0  0  0  0  0  0  0
    9.1628  -20.5641   20.6524 N   0  0  0  0  0  0  0  0  0  0  0  0
   10.5220  -20.9486   20.4886 C   0  0  0  0  0  0  0  0  0  0  0  0
   10.8842  -22.2017   20.5758 N   0  0  0  0  0  0  0  0  0  0  0  0
   11.5606  -20.0212   20.2248 N   0  0  0  0  0  0  0  0  0  0  0  0
   11.8804  -18.9532   21.1425 C   0  0  0  0  0  0  0  0  0  0  0  0
   11.0867  -19.0603   22.4296 C   0  0  0  0  0  0  0  0  0  0  0  0
   11.5320  -17.9160   23.3109 C   0  0  0  0  0  0  0  0  0  0  0  0
   10.4309  -16.9896   23.7170 C   0  0  2  0  0  0  0  0  0  0  0  0
   10.0162  -16.2677   22.5094 N   0  0  0  0  0  0  0  0  0  0  0  0
   10.7734  -16.0197   24.7557 C   0  0  0  0  0  0  0  0  0  0  0  0
   11.6857  -15.1600   24.6706 O   0  0  0  0  0  0  0  0  0  0  0  0
   11.8552  -22.5260   20.5053 C   0  0  0  0  0  0  0  0  0  0  0  0
    8.1213  -14.3728   27.3311 C   0  0  2  0  0  0  0  0  0  0  0  0
    9.5684  -13.9369   27.2469 C   0  0  0  0  0  0  0  0  0  0  0  0
    9.9028  -13.2402   28.5488 C   0  0  1  0  0  0  0  0  0  0  0  0
   10.4145  -15.1714   27.1018 N   0  0  0  0  0  0  0  0  0  0  0  0
   10.0406  -16.0007   25.9981 C   0  0  0  0  0  0  0  0  0  0  0  0
   10.4999  -15.9288   28.3745 O   0  0  0  0  0  0  0  0  0  0  0  0
   11.1417  -15.4129   29.4695 O   0  0  0  0  0  0  0  0  0  0  0  0
  2  1  1  1
  2  3  1  0
  3  4  1  0
  4  5  1  0
  5  6  1  0
  7  6  1  0
  8  9  2  0
  8  2  1  0
 10 11  1  0
 11 12  2  0
 13 14  1  0
 13 11  1  0
 14 15  1  0
 15 16  1  0
 17 16  1  6
 17 18  1  0
 18  8  1  0
 19 17  1  0
 20 19  2  0
 22 21  1  6
 22 24  1  0
 23 22  1  0
 24 26  1  0
 24 25  1  6
 25 19  1  0
 26 27  1  0
 28 26  2  0
M  END
$$$$
