KRV.pdb
     RDKit          3D

 28 27  0  0  1  0  0  0  0  0999 V2000
    6.6523  -16.2955   19.1901 N   0  0  0  0  0  0  0  0  0  0  0  0
    7.4635  -15.4394   20.0119 C   0  0  1  0  0  0  0  0  0  0  0  0
    7.2781  -14.0101   19.6613 C   0  0  0  0  0  0  0  0  0  0  0  0
    8.2807  -13.5288   18.6621 C   0  0  0  0  0  0  0  0  0  0  0  0
    7.9640  -13.7546   17.2304 C   0  0  0  0  0  0  0  0  0  0  0  0
    9.0690  -13.2431   16.3300 C   0  0  0  0  0  0  0  0  0  0  0  0
    8.6358  -13.4473   14.9561 N   0  0  0  0  0  0  0  0  0  0  0  0
    7.1997  -15.7186   21.4499 C   0  0  0  0  0  0  0  0  0  0  0  0
    6.0235  -15.5954   21.8685 O   0  0  0  0  0  0  0  0  0  0  0  0
    6.0195  -20.8903   26.6300 N   0  0  0  0  0  0  0  0  0  0  0  0
    7.2826  -20.7353   27.2644 C   0  0  0  0  0  0  0  0  0  0  0  0
    7.3913  -20.7603   28.5669 N   0  0  0  0  0  0  0  0  0  0  0  0
    8.4896  -20.5464   26.5462 N   0  0  0  0  0  0  0  0  0  0  0  0
    8.5106  -19.9370   25.2374 C   0  0  0  0  0  0  0  0  0  0  0  0
    8.0690  -18.4875   25.2841 C   0  0  0  0  0  0  0  0  0  0  0  0
    8.2241  -17.9409   23.8835 C   0  0  0  0  0  0  0  0  0  0  0  0
    7.9108  -16.4845   23.7549 C   0  0  2  0  0  0  0  0  0  0  0  0
    8.1893  -16.1114   22.3640 N   0  0  0  0  0  0  0  0  0  0  0  0
    8.6596  -15.5975   24.6433 C   0  0  0  0  0  0  0  0  0  0  0  0
    9.9064  -15.4423   24.6284 O   0  0  0  0  0  0  0  0  0  0  0  0
    8.2852  -20.7319   29.0702 C   0  0  0  0  0  0  0  0  0  0  0  0
    7.8751  -11.9542   25.2185 C   0  0  2  0  0  0  0  0  0  0  0  0
    7.9504  -12.5547   26.6059 C   0  0  0  0  0  0  0  0  0  0  0  0
    6.5284  -12.7528   27.0861 C   0  0  2  0  0  0  0  0  0  0  0  0
    8.6374  -13.8877   26.4950 N   0  0  0  0  0  0  0  0  0  0  0  0
    7.9660  -14.8132   25.6357 C   0  0  0  0  0  0  0  0  0  0  0  0
    8.9293  -14.4654   27.8299 O   0  0  0  0  0  0  0  0  0  0  0  0
    9.7354  -13.8157   28.7271 O   0  0  0  0  0  0  0  0  0  0  0  0
  2  1  1  6
  2  3  1  0
  3  4  1  0
  4  5  1  0
  5  6  1  0
  7  6  1  0
  8  9  2  0
  8  2  1  0
 10 11  1  0
 11 12  2  0
 13 14  1  0
 13 11  1  0
 14 15  1  0
 15 16  1  0
 17 16  1  6
 17 18  1  0
 18  8  1  0
 19 17  1  0
 20 19  2  0
 22 21  1  1
 22 24  1  0
 23 22  1  0
 24 26  1  0
 24 25  1  1
 25 19  1  0
 26 27  1  0
 28 26  2  0
M  END
$$$$
