KRV.pdb
     RDKit          3D

 28 27  0  0  1  0  0  0  0  0999 V2000
    5.3130  -21.0255   20.8768 N   0  0  0  0  0  0  0  0  0  0  0  0
    4.9291  -19.8838   21.6614 C   0  0  1  0  0  0  0  0  0  0  0  0
    4.3309  -20.2878   22.9571 C   0  0  0  0  0  0  0  0  0  0  0  0
    4.7806  -21.6432   23.4000 C   0  0  0  0  0  0  0  0  0  0  0  0
    3.7228  -22.6511   23.6571 C   0  0  0  0  0  0  0  0  0  0  0  0
    4.3135  -23.9808   24.0772 C   0  0  0  0  0  0  0  0  0  0  0  0
    3.2086  -24.9153   24.2294 N   0  0  0  0  0  0  0  0  0  0  0  0
    6.0902  -18.9668   21.8239 C   0  0  0  0  0  0  0  0  0  0  0  0
    7.2387  -19.4702   21.8597 O   0  0  0  0  0  0  0  0  0  0  0  0
    7.9915  -15.1535   19.1256 N   0  0  0  0  0  0  0  0  0  0  0  0
    7.9751  -13.7805   18.7564 C   0  0  0  0  0  0  0  0  0  0  0  0
    8.3416  -13.3985   17.5611 N   0  0  0  0  0  0  0  0  0  0  0  0
    7.5690  -12.7483   19.6385 N   0  0  0  0  0  0  0  0  0  0  0  0
    7.1634  -13.0220   20.9970 C   0  0  0  0  0  0  0  0  0  0  0  0
    7.7877  -14.2987   21.5246 C   0  0  0  0  0  0  0  0  0  0  0  0
    6.6882  -15.3350   21.5663 C   0  0  0  0  0  0  0  0  0  0  0  0
    7.1224  -16.6702   22.0800 C   0  0  2  0  0  0  0  0  0  0  0  0
    5.9750  -17.5731   21.9396 N   0  0  0  0  0  0  0  0  0  0  0  0
    7.5778  -16.6941   23.4689 C   0  0  0  0  0  0  0  0  0  0  0  0
    6.8912  -16.3456   24.4618 O   0  0  0  0  0  0  0  0  0  0  0  0
    8.3853  -12.4189   17.2585 C   0  0  0  0  0  0  0  0  0  0  0  0
    9.8030  -19.6107   24.9561 C   0  0  2  0  0  0  0  0  0  0  0  0
   10.4306  -18.2886   25.3424 C   0  0  0  0  0  0  0  0  0  0  0  0
   11.6080  -18.0644   24.4174 C   0  0  2  0  0  0  0  0  0  0  0  0
    9.4051  -17.2104   25.1264 N   0  0  0  0  0  0  0  0  0  0  0  0
    8.9115  -17.1436   23.7856 C   0  0  0  0  0  0  0  0  0  0  0  0
    9.8822  -15.8949   25.6192 O   0  0  0  0  0  0  0  0  0  0  0  0
   10.1828  -15.6950   26.9408 O   0  0  0  0  0  0  0  0  0  0  0  0
  2  1  1  1
  2  3  1  0
  3  4  1  0
  4  5  1  0
  5  6  1  0
  7  6  1  0
  8  9  2  0
  8  2  1  0
 10 11  1  0
 11 12  2  0
 13 14  1  0
 13 11  1  0
 14 15  1  0
 15 16  1  0
 17 16  1  1
 17 18  1  0
 18  8  1  0
 19 17  1  0
 20 19  2  0
 22 21  1  1
 22 24  1  0
 23 22  1  0
 24 26  1  0
 24 25  1  1
 25 19  1  0
 26 27  1  0
 28 26  2  0
M  END
$$$$
