KRV.pdb
     RDKit          3D

 28 27  0  0  1  0  0  0  0  0999 V2000
    6.1509  -16.5195   20.1413 N   0  0  0  0  0  0  0  0  0  0  0  0
    7.3205  -15.8907   20.6918 C   0  0  1  0  0  0  0  0  0  0  0  0
    7.4255  -14.4715   20.2738 C   0  0  0  0  0  0  0  0  0  0  0  0
    7.4191  -14.3081   18.7876 C   0  0  0  0  0  0  0  0  0  0  0  0
    8.5953  -13.6382   18.1804 C   0  0  0  0  0  0  0  0  0  0  0  0
    8.3566  -13.3132   16.7206 C   0  0  0  0  0  0  0  0  0  0  0  0
    9.5180  -12.5755   16.2471 N   0  0  0  0  0  0  0  0  0  0  0  0
    7.3377  -16.0585   22.1706 C   0  0  0  0  0  0  0  0  0  0  0  0
    6.2411  -16.0365   22.7794 O   0  0  0  0  0  0  0  0  0  0  0  0
   10.4293  -18.6093   29.2038 N   0  0  0  0  0  0  0  0  0  0  0  0
   11.6183  -18.4098   28.4498 C   0  0  0  0  0  0  0  0  0  0  0  0
   12.7159  -17.9863   29.0199 N   0  0  0  0  0  0  0  0  0  0  0  0
   11.6982  -18.6502   27.0555 N   0  0  0  0  0  0  0  0  0  0  0  0
   10.5367  -19.0081   26.2758 C   0  0  0  0  0  0  0  0  0  0  0  0
    9.5592  -17.8553   26.1600 C   0  0  0  0  0  0  0  0  0  0  0  0
    9.4319  -17.5400   24.6873 C   0  0  0  0  0  0  0  0  0  0  0  0
    8.5231  -16.3927   24.3816 C   0  0  2  0  0  0  0  0  0  0  0  0
    8.5084  -16.2395   22.9230 N   0  0  0  0  0  0  0  0  0  0  0  0
    8.8929  -15.1157   24.9893 C   0  0  0  0  0  0  0  0  0  0  0  0
    9.9141  -14.4442   24.6976 O   0  0  0  0  0  0  0  0  0  0  0  0
   13.6087  -17.8639   28.5289 C   0  0  0  0  0  0  0  0  0  0  0  0
    6.8656  -12.0602   25.2578 C   0  0  2  0  0  0  0  0  0  0  0  0
    7.2906  -12.2974   26.6911 C   0  0  0  0  0  0  0  0  0  0  0  0
    6.0914  -12.8560   27.4273 C   0  0  2  0  0  0  0  0  0  0  0  0
    8.3976  -13.3149   26.6818 N   0  0  0  0  0  0  0  0  0  0  0  0
    8.0579  -14.5312   26.0101 C   0  0  0  0  0  0  0  0  0  0  0  0
    8.9337  -13.5525   28.0445 O   0  0  0  0  0  0  0  0  0  0  0  0
    9.5113  -12.5436   28.7693 O   0  0  0  0  0  0  0  0  0  0  0  0
  2  1  1  1
  2  3  1  0
  3  4  1  0
  4  5  1  0
  5  6  1  0
  7  6  1  0
  8  9  2  0
  8  2  1  0
 10 11  1  0
 11 12  2  0
 13 14  1  0
 13 11  1  0
 14 15  1  0
 15 16  1  0
 17 16  1  6
 17 18  1  0
 18  8  1  0
 19 17  1  0
 20 19  2  0
 22 21  1  1
 22 24  1  0
 23 22  1  0
 24 26  1  0
 24 25  1  1
 25 19  1  0
 26 27  1  0
 28 26  2  0
M  END
$$$$
