KRV.pdb
     RDKit          3D

 28 27  0  0  1  0  0  0  0  0999 V2000
    9.8922  -18.6559   21.6670 N   0  0  0  0  0  0  0  0  0  0  0  0
   10.7434  -18.0804   22.6722 C   0  0  1  0  0  0  0  0  0  0  0  0
   12.1521  -18.0004   22.2147 C   0  0  0  0  0  0  0  0  0  0  0  0
   12.9071  -19.2683   22.4547 C   0  0  0  0  0  0  0  0  0  0  0  0
   13.1920  -19.6235   23.8667 C   0  0  0  0  0  0  0  0  0  0  0  0
   14.0355  -20.8774   23.9643 C   0  0  0  0  0  0  0  0  0  0  0  0
   13.2669  -21.9621   23.3730 N   0  0  0  0  0  0  0  0  0  0  0  0
   10.2014  -16.7623   23.1015 C   0  0  0  0  0  0  0  0  0  0  0  0
   10.8278  -16.1257   23.9825 O   0  0  0  0  0  0  0  0  0  0  0  0
    8.6778  -13.0299   17.0505 N   0  0  0  0  0  0  0  0  0  0  0  0
    8.4652  -14.3012   17.6510 C   0  0  0  0  0  0  0  0  0  0  0  0
    8.9897  -15.3847   17.1410 N   0  0  0  0  0  0  0  0  0  0  0  0
    7.6860  -14.4822   18.8207 N   0  0  0  0  0  0  0  0  0  0  0  0
    7.3617  -13.3826   19.6985 C   0  0  0  0  0  0  0  0  0  0  0  0
    8.2143  -13.3923   20.9519 C   0  0  0  0  0  0  0  0  0  0  0  0
    7.6075  -14.4173   21.8822 C   0  0  0  0  0  0  0  0  0  0  0  0
    8.5221  -14.8731   22.9736 C   0  0  2  0  0  0  0  0  0  0  0  0
    9.0313  -16.1907   22.5786 N   0  0  0  0  0  0  0  0  0  0  0  0
    7.9181  -14.9762   24.3008 C   0  0  0  0  0  0  0  0  0  0  0  0
    7.0334  -15.8052   24.6309 O   0  0  0  0  0  0  0  0  0  0  0  0
    8.8413  -16.3277   17.5176 C   0  0  0  0  0  0  0  0  0  0  0  0
    9.8123  -14.4411   27.6969 C   0  0  2  0  0  0  0  0  0  0  0  0
    8.5558  -13.5990   27.7547 C   0  0  0  0  0  0  0  0  0  0  0  0
    8.9742  -12.1565   27.5644 C   0  0  2  0  0  0  0  0  0  0  0  0
    7.6647  -14.0214   26.6196 N   0  0  0  0  0  0  0  0  0  0  0  0
    8.3304  -14.0821   25.3551 C   0  0  0  0  0  0  0  0  0  0  0  0
    6.4241  -13.2095   26.5668 O   0  0  0  0  0  0  0  0  0  0  0  0
    5.5391  -13.1910   27.6123 O   0  0  0  0  0  0  0  0  0  0  0  0
  2  1  1  6
  2  3  1  0
  3  4  1  0
  4  5  1  0
  5  6  1  0
  7  6  1  0
  8  9  2  0
  8  2  1  0
 10 11  1  0
 11 12  2  0
 13 14  1  0
 13 11  1  0
 14 15  1  0
 15 16  1  0
 17 16  1  6
 17 18  1  0
 18  8  1  0
 19 17  1  0
 20 19  2  0
 22 21  1  1
 22 24  1  0
 23 22  1  0
 24 26  1  0
 24 25  1  1
 25 19  1  0
 26 27  1  0
 28 26  2  0
M  END
$$$$
