KRV.pdb
     RDKit          3D

 28 27  0  0  1  0  0  0  0  0999 V2000
    5.9190  -17.0164   19.8475 N   0  0  0  0  0  0  0  0  0  0  0  0
    7.0069  -16.2665   20.4136 C   0  0  1  0  0  0  0  0  0  0  0  0
    6.9647  -14.8436   19.9969 C   0  0  0  0  0  0  0  0  0  0  0  0
    7.8997  -14.5473   18.8686 C   0  0  0  0  0  0  0  0  0  0  0  0
    7.8560  -13.1768   18.3022 C   0  0  0  0  0  0  0  0  0  0  0  0
    8.8504  -13.0113   17.1720 C   0  0  0  0  0  0  0  0  0  0  0  0
    8.1479  -12.3738   16.0687 N   0  0  0  0  0  0  0  0  0  0  0  0
    7.0222  -16.4335   21.8925 C   0  0  0  0  0  0  0  0  0  0  0  0
    5.9362  -16.3190   22.5102 O   0  0  0  0  0  0  0  0  0  0  0  0
    5.9792  -20.4277   27.8055 N   0  0  0  0  0  0  0  0  0  0  0  0
    7.3079  -20.2012   28.2586 C   0  0  0  0  0  0  0  0  0  0  0  0
    7.5569  -19.9361   29.5143 N   0  0  0  0  0  0  0  0  0  0  0  0
    8.4347  -20.2452   27.4002 N   0  0  0  0  0  0  0  0  0  0  0  0
    8.3626  -19.8120   26.0247 C   0  0  0  0  0  0  0  0  0  0  0  0
    9.1277  -18.5228   25.7995 C   0  0  0  0  0  0  0  0  0  0  0  0
    8.9689  -18.1732   24.3376 C   0  0  0  0  0  0  0  0  0  0  0  0
    8.1835  -16.9259   24.0867 C   0  0  2  0  0  0  0  0  0  0  0  0
    8.1797  -16.7111   22.6357 N   0  0  0  0  0  0  0  0  0  0  0  0
    8.6866  -15.7208   24.7435 C   0  0  0  0  0  0  0  0  0  0  0  0
    9.7838  -15.1632   24.4907 O   0  0  0  0  0  0  0  0  0  0  0  0
    8.4987  -19.7947   29.8965 C   0  0  0  0  0  0  0  0  0  0  0  0
    7.1333  -12.3385   25.2335 C   0  0  2  0  0  0  0  0  0  0  0  0
    7.4256  -12.8266   26.6362 C   0  0  0  0  0  0  0  0  0  0  0  0
    6.1184  -13.3177   27.2211 C   0  0  2  0  0  0  0  0  0  0  0  0
    8.3958  -13.9708   26.5339 N   0  0  0  0  0  0  0  0  0  0  0  0
    7.9053  -15.0768   25.7710 C   0  0  0  0  0  0  0  0  0  0  0  0
    8.8985  -14.3826   27.8675 O   0  0  0  0  0  0  0  0  0  0  0  0
    9.5933  -13.5138   28.6670 O   0  0  0  0  0  0  0  0  0  0  0  0
  2  1  1  1
  2  3  1  0
  3  4  1  0
  4  5  1  0
  5  6  1  0
  7  6  1  0
  8  9  2  0
  8  2  1  0
 10 11  1  0
 11 12  2  0
 13 14  1  0
 13 11  1  0
 14 15  1  0
 15 16  1  0
 17 16  1  6
 17 18  1  0
 18  8  1  0
 19 17  1  0
 20 19  2  0
 22 21  1  1
 22 24  1  0
 23 22  1  0
 24 26  1  0
 24 25  1  1
 25 19  1  0
 26 27  1  0
 28 26  2  0
M  END
$$$$
