KRV.pdb
     RDKit          3D

 28 27  0  0  1  0  0  0  0  0999 V2000
   10.2265  -13.7374   19.5037 N   0  0  0  0  0  0  0  0  0  0  0  0
    8.9045  -13.3577   19.9214 C   0  0  1  0  0  0  0  0  0  0  0  0
    7.9417  -13.4016   18.7940 C   0  0  0  0  0  0  0  0  0  0  0  0
    8.4750  -14.1454   17.6117 C   0  0  0  0  0  0  0  0  0  0  0  0
    7.6758  -14.0841   16.3633 C   0  0  0  0  0  0  0  0  0  0  0  0
    8.2403  -14.9998   15.2973 C   0  0  0  0  0  0  0  0  0  0  0  0
    7.3499  -14.9261   14.1489 N   0  0  0  0  0  0  0  0  0  0  0  0
    8.4779  -14.1943   21.0762 C   0  0  0  0  0  0  0  0  0  0  0  0
    7.3244  -14.0189   21.5372 O   0  0  0  0  0  0  0  0  0  0  0  0
    8.4632  -21.3528   21.9547 N   0  0  0  0  0  0  0  0  0  0  0  0
    9.4017  -21.2446   20.8919 C   0  0  0  0  0  0  0  0  0  0  0  0
    9.4214  -22.1160   19.9175 N   0  0  0  0  0  0  0  0  0  0  0  0
   10.3634  -20.2066   20.8134 N   0  0  0  0  0  0  0  0  0  0  0  0
   10.5142  -19.2260   21.8625 C   0  0  0  0  0  0  0  0  0  0  0  0
    9.4657  -18.1352   21.7684 C   0  0  0  0  0  0  0  0  0  0  0  0
    9.7495  -17.1621   22.8896 C   0  0  0  0  0  0  0  0  0  0  0  0
    8.8977  -15.9335   22.8663 C   0  0  2  0  0  0  0  0  0  0  0  0
    9.2902  -15.1670   21.6789 N   0  0  0  0  0  0  0  0  0  0  0  0
    9.0009  -15.0720   24.0427 C   0  0  0  0  0  0  0  0  0  0  0  0
   10.0533  -14.5117   24.4394 O   0  0  0  0  0  0  0  0  0  0  0  0
   10.0927  -22.0960   19.1416 C   0  0  0  0  0  0  0  0  0  0  0  0
    6.8310  -12.4688   27.5998 C   0  0  2  0  0  0  0  0  0  0  0  0
    6.6310  -13.2432   26.3147 C   0  0  0  0  0  0  0  0  0  0  0  0
    6.4157  -12.2304   25.2102 C   0  0  1  0  0  0  0  0  0  0  0  0
    7.8872  -14.0250   26.0467 N   0  0  0  0  0  0  0  0  0  0  0  0
    7.8355  -14.8079   24.8509 C   0  0  0  0  0  0  0  0  0  0  0  0
    8.2970  -14.8235   27.2279 O   0  0  0  0  0  0  0  0  0  0  0  0
    8.8826  -14.2354   28.3178 O   0  0  0  0  0  0  0  0  0  0  0  0
  2  1  1  6
  2  3  1  0
  3  4  1  0
  4  5  1  0
  5  6  1  0
  7  6  1  0
  8  9  2  0
  8  2  1  0
 10 11  1  0
 11 12  2  0
 13 14  1  0
 13 11  1  0
 14 15  1  0
 15 16  1  0
 17 16  1  1
 17 18  1  0
 18  8  1  0
 19 17  1  0
 20 19  2  0
 22 21  1  1
 22 24  1  0
 23 22  1  0
 24 26  1  0
 24 25  1  1
 25 19  1  0
 26 27  1  0
 28 26  2  0
M  END
$$$$
