AMM.pdb
     RDKit          3D

 22 21  0  0  1  0  0  0  0  0999 V2000
    9.0227  -15.5992   18.5496 C   0  0  0  0  0  0  0  0  0  0  0  0
    9.3173  -16.6132   19.6496 C   0  0  2  0  0  0  0  0  0  0  0  0
    8.4077  -17.7107   19.6248 N   0  0  0  0  0  0  0  0  0  0  0  0
    9.3792  -15.8936   20.9192 C   0  0  0  0  0  0  0  0  0  0  0  0
   10.2140  -14.9609   21.0410 O   0  0  0  0  0  0  0  0  0  0  0  0
    6.9916  -12.3079   26.5398 C   0  0  0  0  0  0  0  0  0  0  0  0
    7.1640  -13.1732   24.9730 S   0  0  0  0  0  0  0  0  0  0  0  0
    7.0270  -14.9622   25.1926 C   0  0  0  0  0  0  0  0  0  0  0  0
    7.0577  -15.6192   23.8248 C   0  0  0  0  0  0  0  0  0  0  0  0
    8.4386  -15.5013   23.1989 C   0  0  2  0  0  0  0  0  0  0  0  0
    8.5037  -16.2620   21.9732 N   0  0  0  0  0  0  0  0  0  0  0  0
    9.3953  -16.0907   24.1683 C   0  0  0  0  0  0  0  0  0  0  0  0
    9.3148  -17.3336   24.3928 O   0  0  0  0  0  0  0  0  0  0  0  0
   10.5575  -12.9302   29.1655 C   0  0  0  0  0  0  0  0  0  0  0  0
   10.9261  -14.5878   29.8249 S   0  0  0  0  0  0  0  0  0  0  0  0
   11.3230  -15.7235   28.4501 C   0  0  0  0  0  0  0  0  0  0  0  0
   10.7500  -15.1245   27.2027 C   0  0  0  0  0  0  0  0  0  0  0  0
   11.0697  -15.9167   25.9781 C   0  0  2  0  0  0  0  0  0  0  0  0
   10.3737  -15.3400   24.8392 N   0  0  0  0  0  0  0  0  0  0  0  0
   10.6836  -17.3205   26.1187 C   0  0  0  0  0  0  0  0  0  0  0  0
   11.5406  -18.2429   26.2249 O   0  0  0  0  0  0  0  0  0  0  0  0
    9.3111  -17.6516   26.1359 O   0  0  0  0  0  0  0  0  0  0  0  0
  2  1  1  6
  2  4  1  0
  3  2  1  0
  4  5  2  0
  4 11  1  0
  6  7  1  0
  7  8  1  0
  8  9  1  0
 10  9  1  1
 10 12  1  0
 11 10  1  0
 12 19  1  0
 12 13  2  0
 14 15  1  0
 15 16  1  0
 16 17  1  0
 18 17  1  1
 18 20  1  0
 19 18  1  0
 20 22  1  0
 21 20  2  0
M  END
$$$$
