AMM.pdb
     RDKit          3D

 22 21  0  0  1  0  0  0  0  0999 V2000
    8.0637  -15.6973   18.7928 C   0  0  0  0  0  0  0  0  0  0  0  0
    8.3385  -16.6484   19.9524 C   0  0  2  0  0  0  0  0  0  0  0  0
    7.2132  -17.4722   20.2485 N   0  0  0  0  0  0  0  0  0  0  0  0
    8.8341  -15.8565   21.0753 C   0  0  0  0  0  0  0  0  0  0  0  0
    9.8858  -15.1849   20.9189 O   0  0  0  0  0  0  0  0  0  0  0  0
    6.4676  -11.3542   26.3946 C   0  0  0  0  0  0  0  0  0  0  0  0
    6.3121  -13.1408   26.2642 S   0  0  0  0  0  0  0  0  0  0  0  0
    7.7703  -13.8714   25.4847 C   0  0  0  0  0  0  0  0  0  0  0  0
    7.3390  -14.5520   24.1985 C   0  0  0  0  0  0  0  0  0  0  0  0
    8.5453  -15.0594   23.4241 C   0  0  2  0  0  0  0  0  0  0  0  0
    8.1227  -15.8653   22.3029 N   0  0  0  0  0  0  0  0  0  0  0  0
    9.3162  -15.9195   24.3560 C   0  0  0  0  0  0  0  0  0  0  0  0
    8.6726  -16.7591   25.0505 O   0  0  0  0  0  0  0  0  0  0  0  0
   10.6711  -12.9756   28.5345 C   0  0  0  0  0  0  0  0  0  0  0  0
   10.9450  -14.5618   29.3872 S   0  0  0  0  0  0  0  0  0  0  0  0
   11.4613  -15.8303   28.1781 C   0  0  0  0  0  0  0  0  0  0  0  0
   10.8083  -15.4893   26.8740 C   0  0  0  0  0  0  0  0  0  0  0  0
   11.3340  -16.2961   25.7329 C   0  0  2  0  0  0  0  0  0  0  0  0
   10.7108  -15.8441   24.4995 N   0  0  0  0  0  0  0  0  0  0  0  0
   11.0752  -17.7250   25.9084 C   0  0  0  0  0  0  0  0  0  0  0  0
   11.9867  -18.5344   26.2408 O   0  0  0  0  0  0  0  0  0  0  0  0
    9.7662  -18.2114   25.6993 O   0  0  0  0  0  0  0  0  0  0  0  0
  2  1  1  6
  2  4  1  0
  3  2  1  0
  4  5  2  0
  4 11  1  0
  6  7  1  0
  7  8  1  0
  8  9  1  0
 10  9  1  1
 10 12  1  0
 11 10  1  0
 12 19  1  0
 12 13  2  0
 14 15  1  0
 15 16  1  0
 16 17  1  0
 18 17  1  1
 18 20  1  0
 19 18  1  0
 20 22  1  0
 21 20  2  0
M  END
$$$$
