AMM.pdb
     RDKit          3D

 22 21  0  0  1  0  0  0  0  0999 V2000
    9.4211  -20.1195   19.8862 C   0  0  0  0  0  0  0  0  0  0  0  0
    8.9156  -19.5921   21.2245 C   0  0  2  0  0  0  0  0  0  0  0  0
    7.5553  -19.9469   21.4616 N   0  0  0  0  0  0  0  0  0  0  0  0
    9.1964  -18.1596   21.2780 C   0  0  0  0  0  0  0  0  0  0  0  0
   10.3849  -17.7746   21.1340 O   0  0  0  0  0  0  0  0  0  0  0  0
    8.1147  -11.4622   19.4804 C   0  0  0  0  0  0  0  0  0  0  0  0
    7.9446  -13.2315   19.7518 S   0  0  0  0  0  0  0  0  0  0  0  0
    7.2387  -13.5811   21.3788 C   0  0  0  0  0  0  0  0  0  0  0  0
    7.0218  -15.0785   21.4982 C   0  0  0  0  0  0  0  0  0  0  0  0
    8.3495  -15.8199   21.4887 C   0  0  2  0  0  0  0  0  0  0  0  0
    8.1305  -17.2472   21.4891 N   0  0  0  0  0  0  0  0  0  0  0  0
    9.0494  -15.4523   22.7446 C   0  0  0  0  0  0  0  0  0  0  0  0
    9.7929  -14.4284   22.7258 O   0  0  0  0  0  0  0  0  0  0  0  0
    6.5786  -11.3989   26.6054 C   0  0  0  0  0  0  0  0  0  0  0  0
    6.3396  -13.1442   27.0692 S   0  0  0  0  0  0  0  0  0  0  0  0
    7.9088  -14.0568   26.8637 C   0  0  0  0  0  0  0  0  0  0  0  0
    7.8248  -14.7927   25.5619 C   0  0  0  0  0  0  0  0  0  0  0  0
    9.0900  -15.5060   25.2154 C   0  0  2  0  0  0  0  0  0  0  0  0
    8.9248  -16.1810   23.9382 N   0  0  0  0  0  0  0  0  0  0  0  0
    9.4614  -16.4871   26.2348 C   0  0  0  0  0  0  0  0  0  0  0  0
    9.4707  -17.7280   25.9973 O   0  0  0  0  0  0  0  0  0  0  0  0
    9.8199  -16.0304   27.5218 O   0  0  0  0  0  0  0  0  0  0  0  0
  2  1  1  6
  2  4  1  0
  3  2  1  0
  4  5  2  0
  4 11  1  0
  6  7  1  0
  7  8  1  0
  8  9  1  0
 10  9  1  1
 10 12  1  0
 11 10  1  0
 12 19  1  0
 12 13  2  0
 14 15  1  0
 15 16  1  0
 16 17  1  0
 18 17  1  1
 18 20  1  0
 19 18  1  0
 20 22  1  0
 21 20  2  0
M  END
$$$$
