AMM.pdb
     RDKit          3D

 22 21  0  0  1  0  0  0  0  0999 V2000
    9.8078  -16.2664   18.4487 C   0  0  0  0  0  0  0  0  0  0  0  0
   10.1276  -17.0829   19.6960 C   0  0  2  0  0  0  0  0  0  0  0  0
    9.4025  -18.3097   19.7344 N   0  0  0  0  0  0  0  0  0  0  0  0
    9.9385  -16.2194   20.8589 C   0  0  0  0  0  0  0  0  0  0  0  0
   10.6418  -15.1816   20.9574 O   0  0  0  0  0  0  0  0  0  0  0  0
    6.4198  -12.5917   26.0929 C   0  0  0  0  0  0  0  0  0  0  0  0
    7.0943  -14.1558   25.5169 S   0  0  0  0  0  0  0  0  0  0  0  0
    6.7266  -14.4247   23.7675 C   0  0  0  0  0  0  0  0  0  0  0  0
    7.2473  -15.7940   23.3707 C   0  0  0  0  0  0  0  0  0  0  0  0
    8.7146  -15.7218   22.9780 C   0  0  2  0  0  0  0  0  0  0  0  0
    8.9745  -16.5706   21.8391 N   0  0  0  0  0  0  0  0  0  0  0  0
    9.4889  -16.2378   24.1342 C   0  0  0  0  0  0  0  0  0  0  0  0
    9.6185  -17.4920   24.2429 O   0  0  0  0  0  0  0  0  0  0  0  0
    9.8046  -13.1871   29.5305 C   0  0  0  0  0  0  0  0  0  0  0  0
   11.1361  -14.3577   29.9487 S   0  0  0  0  0  0  0  0  0  0  0  0
   11.2538  -15.6442   28.6570 C   0  0  0  0  0  0  0  0  0  0  0  0
   10.6795  -15.0635   27.4015 C   0  0  0  0  0  0  0  0  0  0  0  0
   10.7616  -15.9974   26.2393 C   0  0  2  0  0  0  0  0  0  0  0  0
   10.0768  -15.4066   25.1009 N   0  0  0  0  0  0  0  0  0  0  0  0
   10.1638  -17.2981   26.5397 C   0  0  0  0  0  0  0  0  0  0  0  0
   10.8684  -18.3218   26.7677 O   0  0  0  0  0  0  0  0  0  0  0  0
    8.7567  -17.4098   26.5753 O   0  0  0  0  0  0  0  0  0  0  0  0
  2  1  1  6
  2  4  1  0
  3  2  1  0
  4  5  2  0
  4 11  1  0
  6  7  1  0
  7  8  1  0
  8  9  1  0
 10  9  1  1
 10 12  1  0
 11 10  1  0
 12 19  1  0
 12 13  2  0
 14 15  1  0
 15 16  1  0
 16 17  1  0
 18 17  1  1
 18 20  1  0
 19 18  1  0
 20 22  1  0
 21 20  2  0
M  END
$$$$
