AMM.pdb
     RDKit          3D

 22 21  0  0  1  0  0  0  0  0999 V2000
    9.1728  -18.1854   20.3126 C   0  0  0  0  0  0  0  0  0  0  0  0
    8.9424  -16.6808   20.2248 C   0  0  2  0  0  0  0  0  0  0  0  0
    9.5650  -16.1090   19.0769 N   0  0  0  0  0  0  0  0  0  0  0  0
    9.3411  -16.0900   21.4998 C   0  0  0  0  0  0  0  0  0  0  0  0
   10.5602  -15.8522   21.6967 O   0  0  0  0  0  0  0  0  0  0  0  0
    6.3393  -11.3131   25.8625 C   0  0  0  0  0  0  0  0  0  0  0  0
    6.2795  -13.0592   26.2878 S   0  0  0  0  0  0  0  0  0  0  0  0
    7.7501  -13.9292   25.6977 C   0  0  0  0  0  0  0  0  0  0  0  0
    7.4228  -14.5801   24.3662 C   0  0  0  0  0  0  0  0  0  0  0  0
    8.6811  -15.1189   23.7037 C   0  0  2  0  0  0  0  0  0  0  0  0
    8.3515  -15.8021   22.4750 N   0  0  0  0  0  0  0  0  0  0  0  0
    9.2677  -16.1043   24.6457 C   0  0  0  0  0  0  0  0  0  0  0  0
    9.0909  -17.3326   24.3978 O   0  0  0  0  0  0  0  0  0  0  0  0
   10.0498  -13.2840   28.6100 C   0  0  0  0  0  0  0  0  0  0  0  0
   10.7578  -14.5920   29.6618 S   0  0  0  0  0  0  0  0  0  0  0  0
   10.6977  -16.1912   28.7806 C   0  0  0  0  0  0  0  0  0  0  0  0
   11.5742  -16.0633   27.5728 C   0  0  0  0  0  0  0  0  0  0  0  0
   10.9682  -16.6669   26.3489 C   0  0  2  0  0  0  0  0  0  0  0  0
   10.0010  -15.7388   25.7858 N   0  0  0  0  0  0  0  0  0  0  0  0
   10.3050  -17.9384   26.6372 C   0  0  0  0  0  0  0  0  0  0  0  0
   10.9133  -19.0431   26.5597 O   0  0  0  0  0  0  0  0  0  0  0  0
    8.9441  -17.9275   27.0133 O   0  0  0  0  0  0  0  0  0  0  0  0
  2  1  1  1
  2  4  1  0
  3  2  1  0
  4  5  2  0
  4 11  1  0
  6  7  1  0
  7  8  1  0
  8  9  1  0
 10  9  1  1
 10 12  1  0
 11 10  1  0
 12 19  1  0
 12 13  2  0
 14 15  1  0
 15 16  1  0
 16 17  1  0
 18 17  1  1
 18 20  1  0
 19 18  1  0
 20 22  1  0
 21 20  2  0
M  END
$$$$
