AMM.pdb
     RDKit          3D

 22 21  0  0  1  0  0  0  0  0999 V2000
    9.2935  -18.4490   20.5852 C   0  0  0  0  0  0  0  0  0  0  0  0
    8.9750  -16.9679   20.4130 C   0  0  2  0  0  0  0  0  0  0  0  0
    9.6545  -16.3996   19.2960 N   0  0  0  0  0  0  0  0  0  0  0  0
    9.2256  -16.3031   21.6893 C   0  0  0  0  0  0  0  0  0  0  0  0
   10.3862  -15.8830   21.9302 O   0  0  0  0  0  0  0  0  0  0  0  0
    6.8227  -11.4141   25.7835 C   0  0  0  0  0  0  0  0  0  0  0  0
    5.9904  -13.0072   25.8339 S   0  0  0  0  0  0  0  0  0  0  0  0
    7.1779  -14.3696   25.7981 C   0  0  0  0  0  0  0  0  0  0  0  0
    6.9980  -15.1315   24.4978 C   0  0  0  0  0  0  0  0  0  0  0  0
    8.3438  -15.4368   23.8591 C   0  0  2  0  0  0  0  0  0  0  0  0
    8.1625  -16.1496   22.6164 N   0  0  0  0  0  0  0  0  0  0  0  0
    9.0714  -16.3195   24.8045 C   0  0  0  0  0  0  0  0  0  0  0  0
    8.9290  -17.5698   24.6704 O   0  0  0  0  0  0  0  0  0  0  0  0
   10.1380  -14.3866   30.1265 C   0  0  0  0  0  0  0  0  0  0  0  0
    9.9544  -13.9611   28.3648 S   0  0  0  0  0  0  0  0  0  0  0  0
   11.4287  -14.5166   27.4399 C   0  0  0  0  0  0  0  0  0  0  0  0
   11.5160  -16.0033   27.5995 C   0  0  0  0  0  0  0  0  0  0  0  0
   10.7961  -16.7462   26.5228 C   0  0  2  0  0  0  0  0  0  0  0  0
    9.9007  -15.8350   25.8286 N   0  0  0  0  0  0  0  0  0  0  0  0
   10.0241  -17.8687   27.0552 C   0  0  0  0  0  0  0  0  0  0  0  0
    8.7606  -17.8729   27.0529 O   0  0  0  0  0  0  0  0  0  0  0  0
   10.7145  -18.9796   27.5871 O   0  0  0  0  0  0  0  0  0  0  0  0
  2  1  1  1
  2  4  1  0
  3  2  1  0
  4  5  2  0
  4 11  1  0
  6  7  1  0
  7  8  1  0
  8  9  1  0
 10  9  1  1
 10 12  1  0
 11 10  1  0
 12 19  1  0
 12 13  2  0
 14 15  1  0
 15 16  1  0
 16 17  1  0
 18 17  1  1
 18 20  1  0
 19 18  1  0
 20 22  1  0
 21 20  2  0
M  END
$$$$
