AMM.pdb
     RDKit          3D

 22 21  0  0  1  0  0  0  0  0999 V2000
    7.5548  -18.2863   19.6909 C   0  0  0  0  0  0  0  0  0  0  0  0
    7.9281  -18.3658   21.1670 C   0  0  2  0  0  0  0  0  0  0  0  0
    6.8330  -18.7904   21.9751 N   0  0  0  0  0  0  0  0  0  0  0  0
    8.5165  -17.0852   21.5512 C   0  0  0  0  0  0  0  0  0  0  0  0
    9.5883  -16.7268   20.9995 O   0  0  0  0  0  0  0  0  0  0  0  0
    5.7886  -13.5010   26.1281 C   0  0  0  0  0  0  0  0  0  0  0  0
    7.0378  -12.3121   25.6187 S   0  0  0  0  0  0  0  0  0  0  0  0
    7.9049  -12.8672   24.1329 C   0  0  0  0  0  0  0  0  0  0  0  0
    7.3749  -14.2366   23.7490 C   0  0  0  0  0  0  0  0  0  0  0  0
    8.3939  -14.9967   22.9146 C   0  0  2  0  0  0  0  0  0  0  0  0
    7.8695  -16.2855   22.5285 N   0  0  0  0  0  0  0  0  0  0  0  0
    9.5772  -15.2129   23.7838 C   0  0  0  0  0  0  0  0  0  0  0  0
   10.4183  -14.2719   23.8774 O   0  0  0  0  0  0  0  0  0  0  0  0
    9.9648  -13.3028   28.5751 C   0  0  0  0  0  0  0  0  0  0  0  0
   10.3607  -14.9342   29.2822 S   0  0  0  0  0  0  0  0  0  0  0  0
   11.1047  -15.9985   27.9972 C   0  0  0  0  0  0  0  0  0  0  0  0
   10.1429  -16.0441   26.8500 C   0  0  0  0  0  0  0  0  0  0  0  0
   10.7938  -16.4251   25.5613 C   0  0  2  0  0  0  0  0  0  0  0  0
    9.8022  -16.4003   24.4982 N   0  0  0  0  0  0  0  0  0  0  0  0
   11.3979  -17.7557   25.6262 C   0  0  0  0  0  0  0  0  0  0  0  0
   10.8946  -18.7491   25.0293 O   0  0  0  0  0  0  0  0  0  0  0  0
   12.5791  -17.9320   26.3794 O   0  0  0  0  0  0  0  0  0  0  0  0
  2  1  1  6
  2  4  1  0
  3  2  1  0
  4  5  2  0
  4 11  1  0
  6  7  1  0
  7  8  1  0
  8  9  1  0
 10  9  1  1
 10 12  1  0
 11 10  1  0
 12 19  1  0
 12 13  2  0
 14 15  1  0
 15 16  1  0
 16 17  1  0
 18 17  1  1
 18 20  1  0
 19 18  1  0
 20 22  1  0
 21 20  2  0
M  END
$$$$
