AMM.pdb
     RDKit          3D

 22 21  0  0  1  0  0  0  0  0999 V2000
    8.4385  -19.9854   19.5454 C   0  0  0  0  0  0  0  0  0  0  0  0
    7.8212  -19.5151   20.8578 C   0  0  2  0  0  0  0  0  0  0  0  0
    6.4022  -19.6526   20.8627 N   0  0  0  0  0  0  0  0  0  0  0  0
    8.3097  -18.1648   21.1257 C   0  0  0  0  0  0  0  0  0  0  0  0
    9.5508  -17.9623   21.1177 O   0  0  0  0  0  0  0  0  0  0  0  0
    8.4370  -10.9758   20.0045 C   0  0  0  0  0  0  0  0  0  0  0  0
    8.0131  -12.7180   19.8693 S   0  0  0  0  0  0  0  0  0  0  0  0
    7.3360  -13.3512   21.4212 C   0  0  0  0  0  0  0  0  0  0  0  0
    6.8276  -14.7616   21.1851 C   0  0  0  0  0  0  0  0  0  0  0  0
    7.8162  -15.7887   21.7144 C   0  0  2  0  0  0  0  0  0  0  0  0
    7.3796  -17.1253   21.3859 N   0  0  0  0  0  0  0  0  0  0  0  0
    7.8241  -15.6475   23.1917 C   0  0  0  0  0  0  0  0  0  0  0  0
    6.8639  -15.0215   23.7281 O   0  0  0  0  0  0  0  0  0  0  0  0
    6.2187  -11.1442   26.3068 C   0  0  0  0  0  0  0  0  0  0  0  0
    6.9311  -12.7318   26.8456 S   0  0  0  0  0  0  0  0  0  0  0  0
    7.7027  -13.5760   25.4209 C   0  0  0  0  0  0  0  0  0  0  0  0
    8.3362  -14.8298   25.9404 C   0  0  0  0  0  0  0  0  0  0  0  0
    9.4218  -15.3427   25.0528 C   0  0  2  0  0  0  0  0  0  0  0  0
    8.8371  -16.1711   24.0107 N   0  0  0  0  0  0  0  0  0  0  0  0
   10.4098  -16.1263   25.7941 C   0  0  0  0  0  0  0  0  0  0  0  0
   11.2137  -15.5911   26.6088 O   0  0  0  0  0  0  0  0  0  0  0  0
   10.4641  -17.5225   25.5909 O   0  0  0  0  0  0  0  0  0  0  0  0
  2  1  1  6
  2  4  1  0
  3  2  1  0
  4  5  2  0
  4 11  1  0
  6  7  1  0
  7  8  1  0
  8  9  1  0
 10  9  1  6
 10 12  1  0
 11 10  1  0
 12 19  1  0
 12 13  2  0
 14 15  1  0
 15 16  1  0
 16 17  1  0
 18 17  1  1
 18 20  1  0
 19 18  1  0
 20 22  1  0
 21 20  2  0
M  END
$$$$
