AMM.pdb
     RDKit          3D

 22 21  0  0  1  0  0  0  0  0999 V2000
   10.5464  -18.5664   18.9381 C   0  0  0  0  0  0  0  0  0  0  0  0
   10.1311  -18.4765   20.4024 C   0  0  2  0  0  0  0  0  0  0  0  0
    8.9875  -19.2793   20.6857 N   0  0  0  0  0  0  0  0  0  0  0  0
    9.9909  -17.0632   20.7438 C   0  0  0  0  0  0  0  0  0  0  0  0
   10.9733  -16.3002   20.5588 O   0  0  0  0  0  0  0  0  0  0  0  0
    8.4014  -11.6428   20.1265 C   0  0  0  0  0  0  0  0  0  0  0  0
    7.5091  -12.7467   19.0226 S   0  0  0  0  0  0  0  0  0  0  0  0
    7.6874  -14.4713   19.5339 C   0  0  0  0  0  0  0  0  0  0  0  0
    7.4418  -14.5584   21.0291 C   0  0  0  0  0  0  0  0  0  0  0  0
    8.6109  -15.2312   21.7312 C   0  0  2  0  0  0  0  0  0  0  0  0
    8.7609  -16.5916   21.2708 N   0  0  0  0  0  0  0  0  0  0  0  0
    8.2780  -15.2591   23.1772 C   0  0  0  0  0  0  0  0  0  0  0  0
    7.1752  -15.7785   23.5171 O   0  0  0  0  0  0  0  0  0  0  0  0
    6.5313  -11.1592   26.9001 C   0  0  0  0  0  0  0  0  0  0  0  0
    6.9809  -12.9077   27.1432 S   0  0  0  0  0  0  0  0  0  0  0  0
    6.5516  -13.8677   25.6493 C   0  0  0  0  0  0  0  0  0  0  0  0
    7.3225  -15.1502   25.7117 C   0  0  0  0  0  0  0  0  0  0  0  0
    8.7958  -14.9495   25.5741 C   0  0  2  0  0  0  0  0  0  0  0  0
    9.1219  -14.7413   24.1726 N   0  0  0  0  0  0  0  0  0  0  0  0
    9.5532  -16.0938   26.0806 C   0  0  0  0  0  0  0  0  0  0  0  0
    9.6462  -16.3407   27.3163 O   0  0  0  0  0  0  0  0  0  0  0  0
   10.1986  -16.9462   25.1584 O   0  0  0  0  0  0  0  0  0  0  0  0
  2  1  1  6
  2  4  1  0
  3  2  1  0
  4  5  2  0
  4 11  1  0
  6  7  1  0
  7  8  1  0
  8  9  1  0
 10  9  1  6
 10 12  1  0
 11 10  1  0
 12 19  1  0
 12 13  2  0
 14 15  1  0
 15 16  1  0
 16 17  1  0
 18 17  1  6
 18 20  1  0
 19 18  1  0
 20 22  1  0
 21 20  2  0
M  END
$$$$
