AMM.pdb
     RDKit          3D

 22 21  0  0  1  0  0  0  0  0999 V2000
    7.9256  -13.7122   19.5329 C   0  0  0  0  0  0  0  0  0  0  0  0
    8.2905  -15.0736   20.1144 C   0  0  2  0  0  0  0  0  0  0  0  0
    7.2265  -16.0139   19.9870 N   0  0  0  0  0  0  0  0  0  0  0  0
    8.7683  -14.8658   21.4790 C   0  0  0  0  0  0  0  0  0  0  0  0
    9.8051  -14.1759   21.6541 O   0  0  0  0  0  0  0  0  0  0  0  0
    5.7621  -11.4914   26.4973 C   0  0  0  0  0  0  0  0  0  0  0  0
    6.5842  -13.0884   26.4142 S   0  0  0  0  0  0  0  0  0  0  0  0
    6.3449  -13.8666   24.8003 C   0  0  0  0  0  0  0  0  0  0  0  0
    7.0953  -15.1858   24.7856 C   0  0  0  0  0  0  0  0  0  0  0  0
    8.3490  -15.0856   23.9309 C   0  0  2  0  0  0  0  0  0  0  0  0
    8.0568  -15.4427   22.5626 N   0  0  0  0  0  0  0  0  0  0  0  0
    9.3145  -16.0714   24.4772 C   0  0  0  0  0  0  0  0  0  0  0  0
    9.3987  -17.1945   23.9001 O   0  0  0  0  0  0  0  0  0  0  0  0
   10.5787  -13.2964   29.7999 C   0  0  0  0  0  0  0  0  0  0  0  0
   11.2730  -14.8935   29.2656 S   0  0  0  0  0  0  0  0  0  0  0  0
   11.5930  -14.8555   27.4673 C   0  0  0  0  0  0  0  0  0  0  0  0
   11.9839  -16.2424   27.0588 C   0  0  0  0  0  0  0  0  0  0  0  0
   11.0427  -16.8427   26.0671 C   0  0  2  0  0  0  0  0  0  0  0  0
   10.1288  -15.8164   25.5922 N   0  0  0  0  0  0  0  0  0  0  0  0
   10.2726  -17.9454   26.6421 C   0  0  0  0  0  0  0  0  0  0  0  0
    9.0254  -17.8654   26.8276 O   0  0  0  0  0  0  0  0  0  0  0  0
   10.9463  -19.1337   26.9994 O   0  0  0  0  0  0  0  0  0  0  0  0
  2  1  1  1
  2  4  1  0
  3  2  1  0
  4  5  2  0
  4 11  1  0
  6  7  1  0
  7  8  1  0
  8  9  1  0
 10  9  1  1
 10 12  1  0
 11 10  1  0
 12 19  1  0
 12 13  2  0
 14 15  1  0
 15 16  1  0
 16 17  1  0
 18 17  1  1
 18 20  1  0
 19 18  1  0
 20 22  1  0
 21 20  2  0
M  END
$$$$
