AMM.pdb
     RDKit          3D

 22 21  0  0  1  0  0  0  0  0999 V2000
    8.2488  -19.7943   19.2943 C   0  0  0  0  0  0  0  0  0  0  0  0
    8.2886  -19.3587   20.7549 C   0  0  2  0  0  0  0  0  0  0  0  0
    6.9870  -19.3052   21.3342 N   0  0  0  0  0  0  0  0  0  0  0  0
    9.0483  -18.1135   20.8319 C   0  0  0  0  0  0  0  0  0  0  0  0
   10.2590  -18.1265   20.4921 O   0  0  0  0  0  0  0  0  0  0  0  0
    7.9174  -11.7581   19.7644 C   0  0  0  0  0  0  0  0  0  0  0  0
    7.8307  -13.1760   18.6620 S   0  0  0  0  0  0  0  0  0  0  0  0
    7.5972  -14.7123   19.5855 C   0  0  0  0  0  0  0  0  0  0  0  0
    8.1661  -14.5270   20.9804 C   0  0  0  0  0  0  0  0  0  0  0  0
    9.1047  -15.6688   21.3378 C   0  0  2  0  0  0  0  0  0  0  0  0
    8.4065  -16.9317   21.2842 N   0  0  0  0  0  0  0  0  0  0  0  0
    9.5440  -15.4346   22.7359 C   0  0  0  0  0  0  0  0  0  0  0  0
   10.4373  -14.5602   22.9333 O   0  0  0  0  0  0  0  0  0  0  0  0
    6.0549  -12.2406   26.8248 C   0  0  0  0  0  0  0  0  0  0  0  0
    7.8584  -12.4427   26.9824 S   0  0  0  0  0  0  0  0  0  0  0  0
    8.2817  -14.2198   26.9814 C   0  0  0  0  0  0  0  0  0  0  0  0
    8.1664  -14.7007   25.5676 C   0  0  0  0  0  0  0  0  0  0  0  0
    9.2611  -15.6403   25.1827 C   0  0  2  0  0  0  0  0  0  0  0  0
    9.0191  -16.1316   23.8359 N   0  0  0  0  0  0  0  0  0  0  0  0
    9.3553  -16.7755   26.1004 C   0  0  0  0  0  0  0  0  0  0  0  0
    9.1124  -17.9584   25.7287 O   0  0  0  0  0  0  0  0  0  0  0  0
    9.7291  -16.5389   27.4413 O   0  0  0  0  0  0  0  0  0  0  0  0
  2  1  1  6
  2  4  1  0
  3  2  1  0
  4  5  2  0
  4 11  1  0
  6  7  1  0
  7  8  1  0
  8  9  1  0
 10  9  1  1
 10 12  1  0
 11 10  1  0
 12 19  1  0
 12 13  2  0
 14 15  1  0
 15 16  1  0
 16 17  1  0
 18 17  1  1
 18 20  1  0
 19 18  1  0
 20 22  1  0
 21 20  2  0
M  END
$$$$
