AMM.pdb
     RDKit          3D

 22 21  0  0  1  0  0  0  0  0999 V2000
    7.9221  -17.8744   19.5303 C   0  0  0  0  0  0  0  0  0  0  0  0
    8.3802  -18.0877   20.9688 C   0  0  2  0  0  0  0  0  0  0  0  0
    7.4095  -18.7890   21.7424 N   0  0  0  0  0  0  0  0  0  0  0  0
    8.7789  -16.7910   21.5103 C   0  0  0  0  0  0  0  0  0  0  0  0
    9.7358  -16.1817   20.9674 O   0  0  0  0  0  0  0  0  0  0  0  0
    6.4753  -12.1209   25.7783 C   0  0  0  0  0  0  0  0  0  0  0  0
    6.8061  -13.7673   26.4211 S   0  0  0  0  0  0  0  0  0  0  0  0
    6.8175  -14.9986   25.0977 C   0  0  0  0  0  0  0  0  0  0  0  0
    7.2116  -14.3110   23.8033 C   0  0  0  0  0  0  0  0  0  0  0  0
    8.4340  -14.9744   23.1887 C   0  0  2  0  0  0  0  0  0  0  0  0
    8.0826  -16.2566   22.6251 N   0  0  0  0  0  0  0  0  0  0  0  0
    9.3974  -15.1966   24.2956 C   0  0  0  0  0  0  0  0  0  0  0  0
    9.8891  -14.1769   24.8612 O   0  0  0  0  0  0  0  0  0  0  0  0
   10.8627  -12.6346   28.2108 C   0  0  0  0  0  0  0  0  0  0  0  0
   10.6004  -14.2805   28.9460 S   0  0  0  0  0  0  0  0  0  0  0  0
   11.4046  -15.5530   27.9109 C   0  0  0  0  0  0  0  0  0  0  0  0
   10.3386  -16.1648   27.0551 C   0  0  0  0  0  0  0  0  0  0  0  0
   10.8457  -16.6037   25.7210 C   0  0  2  0  0  0  0  0  0  0  0  0
    9.7828  -16.4722   24.7377 N   0  0  0  0  0  0  0  0  0  0  0  0
   11.3139  -17.9893   25.7426 C   0  0  0  0  0  0  0  0  0  0  0  0
   11.6776  -18.5893   24.6919 O   0  0  0  0  0  0  0  0  0  0  0  0
   11.3595  -18.6741   26.9765 O   0  0  0  0  0  0  0  0  0  0  0  0
  2  1  1  6
  2  4  1  0
  3  2  1  0
  4  5  2  0
  4 11  1  0
  6  7  1  0
  7  8  1  0
  8  9  1  0
 10  9  1  1
 10 12  1  0
 11 10  1  0
 12 19  1  0
 12 13  2  0
 14 15  1  0
 15 16  1  0
 16 17  1  0
 18 17  1  1
 18 20  1  0
 19 18  1  0
 20 22  1  0
 21 20  2  0
M  END
$$$$
