AMM.pdb
     RDKit          3D

 22 21  0  0  1  0  0  0  0  0999 V2000
    8.3571  -15.4144   18.7554 C   0  0  0  0  0  0  0  0  0  0  0  0
    8.6842  -16.4228   19.8512 C   0  0  2  0  0  0  0  0  0  0  0  0
    7.6512  -17.3917   20.0141 N   0  0  0  0  0  0  0  0  0  0  0  0
    9.0254  -15.6776   21.0603 C   0  0  0  0  0  0  0  0  0  0  0  0
   10.0550  -14.9555   21.0505 O   0  0  0  0  0  0  0  0  0  0  0  0
    6.6185  -11.3722   25.9352 C   0  0  0  0  0  0  0  0  0  0  0  0
    6.1372  -13.1019   26.0335 S   0  0  0  0  0  0  0  0  0  0  0  0
    7.4965  -14.1901   25.5478 C   0  0  0  0  0  0  0  0  0  0  0  0
    7.1946  -14.7528   24.1709 C   0  0  0  0  0  0  0  0  0  0  0  0
    8.4798  -15.0543   23.4161 C   0  0  2  0  0  0  0  0  0  0  0  0
    8.1938  -15.7864   22.2048 N   0  0  0  0  0  0  0  0  0  0  0  0
    9.3001  -15.9165   24.3028 C   0  0  0  0  0  0  0  0  0  0  0  0
    8.8896  -17.0931   24.5232 O   0  0  0  0  0  0  0  0  0  0  0  0
   10.6831  -13.3760   29.4059 C   0  0  0  0  0  0  0  0  0  0  0  0
   11.7777  -14.7887   29.7581 S   0  0  0  0  0  0  0  0  0  0  0  0
   11.6038  -16.0456   28.4438 C   0  0  0  0  0  0  0  0  0  0  0  0
   11.1596  -15.3308   27.2049 C   0  0  0  0  0  0  0  0  0  0  0  0
   11.0477  -16.2345   26.0215 C   0  0  2  0  0  0  0  0  0  0  0  0
   10.4966  -15.4900   24.9008 N   0  0  0  0  0  0  0  0  0  0  0  0
   10.1971  -17.3923   26.2962 C   0  0  0  0  0  0  0  0  0  0  0  0
    8.9412  -17.3460   26.1659 O   0  0  0  0  0  0  0  0  0  0  0  0
   10.8007  -18.5966   26.7194 O   0  0  0  0  0  0  0  0  0  0  0  0
  2  1  1  6
  2  4  1  0
  3  2  1  0
  4  5  2  0
  4 11  1  0
  6  7  1  0
  7  8  1  0
  8  9  1  0
 10  9  1  1
 10 12  1  0
 11 10  1  0
 12 19  1  0
 12 13  2  0
 14 15  1  0
 15 16  1  0
 16 17  1  0
 18 17  1  1
 18 20  1  0
 19 18  1  0
 20 22  1  0
 21 20  2  0
M  END
$$$$
