AMM.pdb
     RDKit          3D

 22 21  0  0  1  0  0  0  0  0999 V2000
    8.5285  -18.6628   20.4285 C   0  0  0  0  0  0  0  0  0  0  0  0
    8.0467  -17.2311   20.2215 C   0  0  2  0  0  0  0  0  0  0  0  0
    8.3117  -16.7617   18.9017 N   0  0  0  0  0  0  0  0  0  0  0  0
    8.6070  -16.4094   21.2912 C   0  0  0  0  0  0  0  0  0  0  0  0
    9.7815  -15.9778   21.1648 O   0  0  0  0  0  0  0  0  0  0  0  0
    6.3620  -11.2388   25.6908 C   0  0  0  0  0  0  0  0  0  0  0  0
    6.2858  -12.9665   26.1832 S   0  0  0  0  0  0  0  0  0  0  0  0
    7.6636  -13.9083   25.4889 C   0  0  0  0  0  0  0  0  0  0  0  0
    7.1546  -14.6998   24.2981 C   0  0  0  0  0  0  0  0  0  0  0  0
    8.3116  -15.2741   23.4957 C   0  0  2  0  0  0  0  0  0  0  0  0
    7.8189  -16.1216   22.4354 N   0  0  0  0  0  0  0  0  0  0  0  0
    9.1048  -16.1080   24.4326 C   0  0  0  0  0  0  0  0  0  0  0  0
    8.5349  -17.1096   24.9556 O   0  0  0  0  0  0  0  0  0  0  0  0
   10.1167  -13.2126   28.8902 C   0  0  0  0  0  0  0  0  0  0  0  0
   10.7203  -14.7287   29.6998 S   0  0  0  0  0  0  0  0  0  0  0  0
   11.2180  -15.9473   28.4330 C   0  0  0  0  0  0  0  0  0  0  0  0
   10.7256  -15.4387   27.1131 C   0  0  0  0  0  0  0  0  0  0  0  0
   11.0074  -16.3780   25.9871 C   0  0  2  0  0  0  0  0  0  0  0  0
   10.4431  -15.8383   24.7606 N   0  0  0  0  0  0  0  0  0  0  0  0
   10.4484  -17.7074   26.2310 C   0  0  0  0  0  0  0  0  0  0  0  0
    9.2029  -17.9060   26.3072 O   0  0  0  0  0  0  0  0  0  0  0  0
   11.3297  -18.7997   26.3854 O   0  0  0  0  0  0  0  0  0  0  0  0
  2  1  1  6
  2  4  1  0
  3  2  1  0
  4  5  2  0
  4 11  1  0
  6  7  1  0
  7  8  1  0
  8  9  1  0
 10  9  1  1
 10 12  1  0
 11 10  1  0
 12 19  1  0
 12 13  2  0
 14 15  1  0
 15 16  1  0
 16 17  1  0
 18 17  1  1
 18 20  1  0
 19 18  1  0
 20 22  1  0
 21 20  2  0
M  END
$$$$
