AMM.pdb
     RDKit          3D

 22 21  0  0  1  0  0  0  0  0999 V2000
   10.2311  -17.7251   18.4658 C   0  0  0  0  0  0  0  0  0  0  0  0
   10.4794  -18.2161   19.8878 C   0  0  2  0  0  0  0  0  0  0  0  0
    9.6491  -19.3249   20.2250 N   0  0  0  0  0  0  0  0  0  0  0  0
   10.3685  -17.0688   20.7851 C   0  0  0  0  0  0  0  0  0  0  0  0
   11.2670  -16.1896   20.7498 O   0  0  0  0  0  0  0  0  0  0  0  0
    7.2433  -11.9353   20.5513 C   0  0  0  0  0  0  0  0  0  0  0  0
    7.9996  -13.0988   21.6947 S   0  0  0  0  0  0  0  0  0  0  0  0
    7.1452  -14.6916   21.6712 C   0  0  0  0  0  0  0  0  0  0  0  0
    7.6692  -15.5364   22.8181 C   0  0  0  0  0  0  0  0  0  0  0  0
    9.1334  -15.8880   22.6060 C   0  0  2  0  0  0  0  0  0  0  0  0
    9.2599  -16.9766   21.6657 N   0  0  0  0  0  0  0  0  0  0  0  0
    9.6556  -16.3396   23.9197 C   0  0  0  0  0  0  0  0  0  0  0  0
    9.0734  -17.3129   24.4812 O   0  0  0  0  0  0  0  0  0  0  0  0
    9.4200  -12.5169   27.9726 C   0  0  0  0  0  0  0  0  0  0  0  0
    9.9704  -13.7757   29.1686 S   0  0  0  0  0  0  0  0  0  0  0  0
   10.6312  -15.2264   28.2761 C   0  0  0  0  0  0  0  0  0  0  0  0
   10.4726  -14.9541   26.8119 C   0  0  0  0  0  0  0  0  0  0  0  0
   11.0263  -16.0445   25.9552 C   0  0  2  0  0  0  0  0  0  0  0  0
   10.7534  -15.7423   24.5594 N   0  0  0  0  0  0  0  0  0  0  0  0
   10.4504  -17.3472   26.2880 C   0  0  0  0  0  0  0  0  0  0  0  0
    9.4681  -17.8264   25.6540 O   0  0  0  0  0  0  0  0  0  0  0  0
   11.0114  -18.0892   27.3503 O   0  0  0  0  0  0  0  0  0  0  0  0
  2  1  1  6
  2  4  1  0
  3  2  1  0
  4  5  2  0
  4 11  1  0
  6  7  1  0
  7  8  1  0
  8  9  1  0
 10  9  1  1
 10 12  1  0
 11 10  1  0
 12 19  1  0
 12 13  2  0
 14 15  1  0
 15 16  1  0
 16 17  1  0
 18 17  1  1
 18 20  1  0
 19 18  1  0
 20 22  1  0
 21 20  2  0
M  END
$$$$
