EWI.pdb
     RDKit          3D

 32 33  0  0  1  0  0  0  0  0999 V2000
    9.4128  -16.5301   19.1160 N   0  0  0  0  0  0  0  0  0  0  0  0
    9.5975  -17.3889   20.2630 C   0  0  1  0  0  0  0  0  0  0  0  0
   10.9260  -18.1133   20.1949 C   0  0  0  0  0  0  0  0  0  0  0  0
   11.9253  -17.1589   19.6285 C   0  0  0  0  0  0  0  0  0  0  0  0
   13.2630  -17.7657   19.4370 C   0  0  0  0  0  0  0  0  0  0  0  0
   13.5503  -18.9559   19.7270 O   0  0  0  0  0  0  0  0  0  0  0  0
    9.4476  -16.5669   21.4872 C   0  0  0  0  0  0  0  0  0  0  0  0
    9.6698  -15.3253   21.4887 O   0  0  0  0  0  0  0  0  0  0  0  0
   14.3216  -17.0191   18.9030 O   0  0  0  0  0  0  0  0  0  0  0  0
    9.0493  -17.1581   22.6922 N   0  0  0  0  0  0  0  0  0  0  0  0
    8.7299  -16.4942   23.9071 C   0  0  1  0  0  0  0  0  0  0  0  0
    7.3976  -16.9129   24.4308 C   0  0  0  0  0  0  0  0  0  0  0  0
    6.5349  -15.8064   24.8880 C   0  0  0  0  0  0  0  0  0  0  0  0
    5.2254  -15.9427   25.3422 C   0  0  0  0  0  0  0  0  0  0  0  0
    4.8239  -14.7218   25.6964 N   0  0  0  0  0  0  0  0  0  0  0  0
    5.8157  -13.8149   25.4885 C   0  0  0  0  0  0  0  0  0  0  0  0
    5.8744  -12.4562   25.6864 C   0  0  0  0  0  0  0  0  0  0  0  0
    7.0404  -11.7960   25.3597 C   0  0  0  0  0  0  0  0  0  0  0  0
    8.1321  -12.4498   24.8478 C   0  0  0  0  0  0  0  0  0  0  0  0
    8.0738  -13.8102   24.6497 C   0  0  0  0  0  0  0  0  0  0  0  0
    6.9013  -14.4851   24.9779 C   0  0  0  0  0  0  0  0  0  0  0  0
    9.8063  -16.5685   24.9184 C   0  0  0  0  0  0  0  0  0  0  0  0
   10.8227  -17.2677   24.6290 O   0  0  0  0  0  0  0  0  0  0  0  0
    9.8849  -13.0797   29.3266 C   0  0  0  0  0  0  0  0  0  0  0  0
   10.3425  -13.8111   28.0747 C   0  0  0  0  0  0  0  0  0  0  0  0
   10.5991  -15.2623   28.3781 C   0  0  2  0  0  0  0  0  0  0  0  0
   11.8537  -15.4022   29.2569 C   0  0  0  0  0  0  0  0  0  0  0  0
   10.8405  -16.1109   27.1813 C   0  0  2  0  0  0  0  0  0  0  0  0
    9.7778  -15.9183   26.1764 N   0  0  0  0  0  0  0  0  0  0  0  0
   11.0189  -17.5537   27.4568 C   0  0  0  0  0  0  0  0  0  0  0  0
   10.1242  -18.3902   27.6439 O   0  0  0  0  0  0  0  0  0  0  0  0
   12.3359  -18.0590   27.5188 O   0  0  0  0  0  0  0  0  0  0  0  0
  2  1  1  6
  2  3  1  0
  3  4  1  0
  4  5  1  0
  5  6  2  0
  7  8  2  0
  7  2  1  0
  9  5  1  0
 10  7  1  0
 11 10  1  0
 11 12  1  1
 13 14  2  0
 13 12  1  0
 15 14  1  0
 16 21  2  0
 16 15  1  0
 17 16  1  0
 18 19  1  0
 18 17  2  0
 19 20  2  0
 20 21  1  0
 21 13  1  0
 22 11  1  0
 22 29  1  0
 23 22  2  0
 24 25  1  0
 26 25  1  0
 26 28  1  0
 26 27  1  1
 28 29  1  6
 28 30  1  0
 30 31  2  0
 30 32  1  0
M  END
$$$$
