EWI.pdb
     RDKit          3D

 32 33  0  0  1  0  0  0  0  0999 V2000
   10.3103  -19.5132   20.6411 N   0  0  0  0  0  0  0  0  0  0  0  0
   11.3890  -18.5569   20.5454 C   0  0  1  0  0  0  0  0  0  0  0  0
   11.5637  -18.0709   19.1214 C   0  0  0  0  0  0  0  0  0  0  0  0
   12.9534  -18.4184   18.6996 C   0  0  0  0  0  0  0  0  0  0  0  0
   13.2728  -17.9655   17.3257 C   0  0  0  0  0  0  0  0  0  0  0  0
   13.8320  -16.8724   17.0511 O   0  0  0  0  0  0  0  0  0  0  0  0
   11.1217  -17.4585   21.5041 C   0  0  0  0  0  0  0  0  0  0  0  0
   11.9380  -16.5132   21.6804 O   0  0  0  0  0  0  0  0  0  0  0  0
   12.9570  -18.7594   16.2151 O   0  0  0  0  0  0  0  0  0  0  0  0
    9.9372  -17.4430   22.2502 N   0  0  0  0  0  0  0  0  0  0  0  0
    9.5345  -16.4631   23.1971 C   0  0  1  0  0  0  0  0  0  0  0  0
    8.0881  -16.1258   23.0606 C   0  0  0  0  0  0  0  0  0  0  0  0
    7.7509  -14.7160   23.3367 C   0  0  0  0  0  0  0  0  0  0  0  0
    7.9661  -13.6520   22.4642 C   0  0  0  0  0  0  0  0  0  0  0  0
    7.4854  -12.5673   23.0721 N   0  0  0  0  0  0  0  0  0  0  0  0
    6.9751  -12.8905   24.2904 C   0  0  0  0  0  0  0  0  0  0  0  0
    6.3901  -12.1282   25.2730 C   0  0  0  0  0  0  0  0  0  0  0  0
    5.9771  -12.7549   26.4301 C   0  0  0  0  0  0  0  0  0  0  0  0
    6.1322  -14.1035   26.6267 C   0  0  0  0  0  0  0  0  0  0  0  0
    6.7177  -14.8671   25.6431 C   0  0  0  0  0  0  0  0  0  0  0  0
    7.1363  -14.2432   24.4712 C   0  0  0  0  0  0  0  0  0  0  0  0
    9.9318  -16.7874   24.5841 C   0  0  0  0  0  0  0  0  0  0  0  0
   10.2566  -17.9882   24.8255 O   0  0  0  0  0  0  0  0  0  0  0  0
   10.5542  -12.6461   28.3586 C   0  0  0  0  0  0  0  0  0  0  0  0
   10.9876  -13.8113   27.4834 C   0  0  0  0  0  0  0  0  0  0  0  0
   10.3261  -15.0842   27.9377 C   0  0  2  0  0  0  0  0  0  0  0  0
   10.9478  -15.5561   29.2631 C   0  0  0  0  0  0  0  0  0  0  0  0
   10.4630  -16.2236   26.9924 C   0  0  2  0  0  0  0  0  0  0  0  0
    9.9726  -15.8561   25.6505 N   0  0  0  0  0  0  0  0  0  0  0  0
    9.8310  -17.4872   27.4319 C   0  0  0  0  0  0  0  0  0  0  0  0
    8.6460  -17.8162   27.2820 O   0  0  0  0  0  0  0  0  0  0  0  0
   10.6386  -18.4370   28.0946 O   0  0  0  0  0  0  0  0  0  0  0  0
  2  1  1  6
  2  3  1  0
  3  4  1  0
  4  5  1  0
  5  6  2  0
  7  8  2  0
  7  2  1  0
  9  5  1  0
 10  7  1  0
 11 10  1  0
 11 12  1  1
 13 14  2  0
 13 12  1  0
 15 14  1  0
 16 21  2  0
 16 15  1  0
 17 16  1  0
 18 19  1  0
 18 17  2  0
 19 20  2  0
 20 21  1  0
 21 13  1  0
 22 11  1  0
 22 29  1  0
 23 22  2  0
 24 25  1  0
 26 25  1  0
 26 28  1  0
 26 27  1  1
 28 29  1  6
 28 30  1  0
 30 31  2  0
 30 32  1  0
M  END
$$$$
