EWI.pdb
     RDKit          3D

 32 33  0  0  1  0  0  0  0  0999 V2000
   11.7546  -16.4175   19.1828 N   0  0  0  0  0  0  0  0  0  0  0  0
   11.1842  -17.3080   20.1671 C   0  0  1  0  0  0  0  0  0  0  0  0
   12.1561  -18.4100   20.5354 C   0  0  0  0  0  0  0  0  0  0  0  0
   13.5346  -17.8822   20.3085 C   0  0  0  0  0  0  0  0  0  0  0  0
   14.5916  -18.8812   20.5902 C   0  0  0  0  0  0  0  0  0  0  0  0
   15.5830  -18.6736   21.3366 O   0  0  0  0  0  0  0  0  0  0  0  0
   10.7569  -16.4985   21.3330 C   0  0  0  0  0  0  0  0  0  0  0  0
   11.3818  -15.4634   21.6917 O   0  0  0  0  0  0  0  0  0  0  0  0
   14.5437  -20.1596   20.0187 O   0  0  0  0  0  0  0  0  0  0  0  0
    9.6306  -16.8693   22.0772 N   0  0  0  0  0  0  0  0  0  0  0  0
    9.0453  -16.1557   23.1575 C   0  0  1  0  0  0  0  0  0  0  0  0
    7.5555  -16.2077   23.1104 C   0  0  0  0  0  0  0  0  0  0  0  0
    6.8746  -15.5005   24.2122 C   0  0  0  0  0  0  0  0  0  0  0  0
    6.0453  -16.0965   25.1592 C   0  0  0  0  0  0  0  0  0  0  0  0
    5.6742  -15.1259   25.9943 N   0  0  0  0  0  0  0  0  0  0  0  0
    6.2276  -13.9404   25.6233 C   0  0  0  0  0  0  0  0  0  0  0  0
    6.1334  -12.6764   26.1543 C   0  0  0  0  0  0  0  0  0  0  0  0
    6.8146  -11.6514   25.5319 C   0  0  0  0  0  0  0  0  0  0  0  0
    7.5757  -11.8552   24.4091 C   0  0  0  0  0  0  0  0  0  0  0  0
    7.6705  -13.1206   23.8772 C   0  0  0  0  0  0  0  0  0  0  0  0
    6.9872  -14.1616   24.4996 C   0  0  0  0  0  0  0  0  0  0  0  0
    9.6026  -16.5249   24.4767 C   0  0  0  0  0  0  0  0  0  0  0  0
   10.1204  -17.6765   24.5825 O   0  0  0  0  0  0  0  0  0  0  0  0
   10.2462  -12.5779   28.4046 C   0  0  0  0  0  0  0  0  0  0  0  0
   10.6259  -13.6738   27.4215 C   0  0  0  0  0  0  0  0  0  0  0  0
   10.1231  -15.0081   27.9020 C   0  0  2  0  0  0  0  0  0  0  0  0
   10.9519  -15.4790   29.1091 C   0  0  0  0  0  0  0  0  0  0  0  0
   10.2080  -16.0995   26.8958 C   0  0  2  0  0  0  0  0  0  0  0  0
    9.5960  -15.6869   25.6186 N   0  0  0  0  0  0  0  0  0  0  0  0
    9.6480  -17.3996   27.3269 C   0  0  0  0  0  0  0  0  0  0  0  0
    8.4656  -17.7614   27.2486 O   0  0  0  0  0  0  0  0  0  0  0  0
   10.5300  -18.3473   27.8902 O   0  0  0  0  0  0  0  0  0  0  0  0
  2  1  1  6
  2  3  1  0
  3  4  1  0
  4  5  1  0
  5  6  2  0
  7  8  2  0
  7  2  1  0
  9  5  1  0
 10  7  1  0
 11 10  1  0
 11 12  1  1
 13 14  2  0
 13 12  1  0
 15 14  1  0
 16 21  2  0
 16 15  1  0
 17 16  1  0
 18 19  1  0
 18 17  2  0
 19 20  2  0
 20 21  1  0
 21 13  1  0
 22 11  1  0
 22 29  1  0
 23 22  2  0
 24 25  1  0
 26 25  1  0
 26 28  1  0
 26 27  1  1
 28 29  1  6
 28 30  1  0
 30 31  2  0
 30 32  1  0
M  END
$$$$
