EWI.pdb
     RDKit          3D

 32 33  0  0  1  0  0  0  0  0999 V2000
   10.4251  -18.4536   19.5389 N   0  0  0  0  0  0  0  0  0  0  0  0
   10.9231  -18.6781   20.8763 C   0  0  1  0  0  0  0  0  0  0  0  0
   12.3596  -19.1580   20.8511 C   0  0  0  0  0  0  0  0  0  0  0  0
   12.6689  -19.5642   19.4477 C   0  0  0  0  0  0  0  0  0  0  0  0
   14.1196  -19.7317   19.1987 C   0  0  0  0  0  0  0  0  0  0  0  0
   14.8019  -18.9847   18.4506 O   0  0  0  0  0  0  0  0  0  0  0  0
   10.7427  -17.4295   21.6544 C   0  0  0  0  0  0  0  0  0  0  0  0
   11.4822  -16.4225   21.4812 O   0  0  0  0  0  0  0  0  0  0  0  0
   14.8381  -20.7706   19.8051 O   0  0  0  0  0  0  0  0  0  0  0  0
    9.7304  -17.3357   22.6170 N   0  0  0  0  0  0  0  0  0  0  0  0
    9.4570  -16.2303   23.4668 C   0  0  1  0  0  0  0  0  0  0  0  0
    7.9910  -16.0177   23.6410 C   0  0  0  0  0  0  0  0  0  0  0  0
    7.5796  -14.6065   23.7705 C   0  0  0  0  0  0  0  0  0  0  0  0
    7.7564  -13.6249   22.7984 C   0  0  0  0  0  0  0  0  0  0  0  0
    7.2123  -12.5111   23.2889 N   0  0  0  0  0  0  0  0  0  0  0  0
    6.6982  -12.7373   24.5274 C   0  0  0  0  0  0  0  0  0  0  0  0
    6.0596  -11.9120   25.4218 C   0  0  0  0  0  0  0  0  0  0  0  0
    5.6588  -12.4408   26.6309 C   0  0  0  0  0  0  0  0  0  0  0  0
    5.8774  -13.7535   26.9633 C   0  0  0  0  0  0  0  0  0  0  0  0
    6.5165  -14.5801   26.0681 C   0  0  0  0  0  0  0  0  0  0  0  0
    6.9234  -14.0553   24.8446 C   0  0  0  0  0  0  0  0  0  0  0  0
   10.1982  -16.2742   24.7457 C   0  0  0  0  0  0  0  0  0  0  0  0
   11.4518  -16.0976   24.6924 O   0  0  0  0  0  0  0  0  0  0  0  0
    9.3823  -12.9652   28.5562 C   0  0  0  0  0  0  0  0  0  0  0  0
   10.0452  -13.9706   27.6281 C   0  0  0  0  0  0  0  0  0  0  0  0
    9.8738  -15.3681   28.1588 C   0  0  2  0  0  0  0  0  0  0  0  0
   10.6352  -15.5239   29.4862 C   0  0  0  0  0  0  0  0  0  0  0  0
   10.3891  -16.4371   27.2630 C   0  0  2  0  0  0  0  0  0  0  0  0
    9.6076  -16.4989   26.0133 N   0  0  0  0  0  0  0  0  0  0  0  0
   10.4745  -17.7831   27.8717 C   0  0  0  0  0  0  0  0  0  0  0  0
   11.3928  -18.2216   28.5784 O   0  0  0  0  0  0  0  0  0  0  0  0
    9.4125  -18.6842   27.6400 O   0  0  0  0  0  0  0  0  0  0  0  0
  2  1  1  6
  2  3  1  0
  3  4  1  0
  4  5  1  0
  5  6  2  0
  7  8  2  0
  7  2  1  0
  9  5  1  0
 10  7  1  0
 11 10  1  0
 11 12  1  1
 13 14  2  0
 13 12  1  0
 15 14  1  0
 16 21  2  0
 16 15  1  0
 17 16  1  0
 18 19  1  0
 18 17  2  0
 19 20  2  0
 20 21  1  0
 21 13  1  0
 22 11  1  0
 22 29  1  0
 23 22  2  0
 24 25  1  0
 26 25  1  0
 26 28  1  0
 26 27  1  1
 28 29  1  6
 28 30  1  0
 30 31  2  0
 30 32  1  0
M  END
$$$$
