EWI.pdb
     RDKit          3D

 32 33  0  0  1  0  0  0  0  0999 V2000
   10.1284  -18.7500   20.5688 N   0  0  0  0  0  0  0  0  0  0  0  0
   11.2857  -17.9147   20.7924 C   0  0  1  0  0  0  0  0  0  0  0  0
   11.6490  -17.1387   19.5432 C   0  0  0  0  0  0  0  0  0  0  0  0
   12.2259  -18.1106   18.5671 C   0  0  0  0  0  0  0  0  0  0  0  0
   13.3417  -17.5435   17.7747 C   0  0  0  0  0  0  0  0  0  0  0  0
   13.7921  -16.3774   17.9172 O   0  0  0  0  0  0  0  0  0  0  0  0
   11.0095  -17.0411   21.9576 C   0  0  0  0  0  0  0  0  0  0  0  0
   11.8200  -16.1496   22.3302 O   0  0  0  0  0  0  0  0  0  0  0  0
   13.9799  -18.3031   16.7853 O   0  0  0  0  0  0  0  0  0  0  0  0
    9.8225  -17.1868   22.6855 N   0  0  0  0  0  0  0  0  0  0  0  0
    9.4086  -16.4232   23.8099 C   0  0  1  0  0  0  0  0  0  0  0  0
    7.9236  -16.3015   23.8777 C   0  0  0  0  0  0  0  0  0  0  0  0
    7.3979  -14.9521   23.5937 C   0  0  0  0  0  0  0  0  0  0  0  0
    7.1964  -14.4186   22.3231 C   0  0  0  0  0  0  0  0  0  0  0  0
    6.6734  -13.2060   22.5058 N   0  0  0  0  0  0  0  0  0  0  0  0
    6.5332  -12.9424   23.8325 C   0  0  0  0  0  0  0  0  0  0  0  0
    6.0597  -11.8415   24.5053 C   0  0  0  0  0  0  0  0  0  0  0  0
    6.0559  -11.8677   25.8843 C   0  0  0  0  0  0  0  0  0  0  0  0
    6.5067  -12.9498   26.5963 C   0  0  0  0  0  0  0  0  0  0  0  0
    6.9806  -14.0523   25.9231 C   0  0  0  0  0  0  0  0  0  0  0  0
    6.9870  -14.0353   24.5311 C   0  0  0  0  0  0  0  0  0  0  0  0
   10.0180  -16.8703   25.0810 C   0  0  0  0  0  0  0  0  0  0  0  0
   10.8653  -17.8102   25.0154 O   0  0  0  0  0  0  0  0  0  0  0  0
   10.7015  -12.8790   28.7107 C   0  0  0  0  0  0  0  0  0  0  0  0
   11.0165  -14.0523   27.7966 C   0  0  0  0  0  0  0  0  0  0  0  0
   10.5626  -15.3430   28.4228 C   0  0  2  0  0  0  0  0  0  0  0  0
   11.4645  -15.6935   29.6185 C   0  0  0  0  0  0  0  0  0  0  0  0
   10.6090  -16.5202   27.5157 C   0  0  2  0  0  0  0  0  0  0  0  0
    9.7210  -16.3250   26.3540 N   0  0  0  0  0  0  0  0  0  0  0  0
   10.3219  -17.8223   28.1571 C   0  0  0  0  0  0  0  0  0  0  0  0
   11.1376  -18.5741   28.7090 O   0  0  0  0  0  0  0  0  0  0  0  0
    8.9870  -18.2822   28.1555 O   0  0  0  0  0  0  0  0  0  0  0  0
  2  1  1  6
  2  3  1  0
  3  4  1  0
  4  5  1  0
  5  6  2  0
  7  8  2  0
  7  2  1  0
  9  5  1  0
 10  7  1  0
 11 10  1  0
 11 12  1  1
 13 14  2  0
 13 12  1  0
 15 14  1  0
 16 21  2  0
 16 15  1  0
 17 16  1  0
 18 19  1  0
 18 17  2  0
 19 20  2  0
 20 21  1  0
 21 13  1  0
 22 11  1  0
 22 29  1  0
 23 22  2  0
 24 25  1  0
 26 25  1  0
 26 28  1  0
 26 27  1  1
 28 29  1  6
 28 30  1  0
 30 31  2  0
 30 32  1  0
M  END
$$$$
