EWI.pdb
     RDKit          3D

 32 33  0  0  1  0  0  0  0  0999 V2000
   10.0701  -16.5831   18.9059 N   0  0  0  0  0  0  0  0  0  0  0  0
   10.0945  -17.4574   20.0558 C   0  0  1  0  0  0  0  0  0  0  0  0
   11.3649  -18.2817   20.0887 C   0  0  0  0  0  0  0  0  0  0  0  0
   12.5018  -17.3390   20.3099 C   0  0  0  0  0  0  0  0  0  0  0  0
   13.8097  -18.0249   20.4260 C   0  0  0  0  0  0  0  0  0  0  0  0
   14.2205  -18.5972   21.4684 O   0  0  0  0  0  0  0  0  0  0  0  0
    9.9084  -16.6304   21.2717 C   0  0  0  0  0  0  0  0  0  0  0  0
   10.4067  -15.4765   21.3765 O   0  0  0  0  0  0  0  0  0  0  0  0
   14.6944  -18.0750   19.3406 O   0  0  0  0  0  0  0  0  0  0  0  0
    9.1629  -17.1179   22.3517 N   0  0  0  0  0  0  0  0  0  0  0  0
    8.8222  -16.4197   23.5414 C   0  0  1  0  0  0  0  0  0  0  0  0
    7.5061  -16.8644   24.0844 C   0  0  0  0  0  0  0  0  0  0  0  0
    6.6702  -15.7859   24.6462 C   0  0  0  0  0  0  0  0  0  0  0  0
    5.3602  -15.9349   25.0950 C   0  0  0  0  0  0  0  0  0  0  0  0
    4.9873  -14.7430   25.5615 N   0  0  0  0  0  0  0  0  0  0  0  0
    5.9978  -13.8425   25.4302 C   0  0  0  0  0  0  0  0  0  0  0  0
    6.0873  -12.5090   25.7505 C   0  0  0  0  0  0  0  0  0  0  0  0
    7.2659  -11.8469   25.4772 C   0  0  0  0  0  0  0  0  0  0  0  0
    8.3405  -12.4747   24.9006 C   0  0  0  0  0  0  0  0  0  0  0  0
    8.2514  -13.8098   24.5800 C   0  0  0  0  0  0  0  0  0  0  0  0
    7.0660  -14.4865   24.8534 C   0  0  0  0  0  0  0  0  0  0  0  0
    9.9019  -16.4177   24.5519 C   0  0  0  0  0  0  0  0  0  0  0  0
   10.7994  -17.3051   24.4391 O   0  0  0  0  0  0  0  0  0  0  0  0
   11.3576  -13.7676   30.0123 C   0  0  0  0  0  0  0  0  0  0  0  0
   11.7904  -14.6992   28.8914 C   0  0  0  0  0  0  0  0  0  0  0  0
   10.8531  -14.5830   27.7201 C   0  0  2  0  0  0  0  0  0  0  0  0
    9.3951  -14.5888   28.2103 C   0  0  0  0  0  0  0  0  0  0  0  0
   10.9577  -15.6895   26.7324 C   0  0  2  0  0  0  0  0  0  0  0  0
    9.9994  -15.5006   25.6269 N   0  0  0  0  0  0  0  0  0  0  0  0
   10.8182  -17.0514   27.2940 C   0  0  0  0  0  0  0  0  0  0  0  0
   11.7236  -17.7617   27.7528 O   0  0  0  0  0  0  0  0  0  0  0  0
    9.5296  -17.6277   27.3231 O   0  0  0  0  0  0  0  0  0  0  0  0
  2  1  1  6
  2  3  1  0
  3  4  1  0
  4  5  1  0
  5  6  2  0
  7  8  2  0
  7  2  1  0
  9  5  1  0
 10  7  1  0
 11 10  1  0
 11 12  1  1
 13 14  2  0
 13 12  1  0
 15 14  1  0
 16 21  2  0
 16 15  1  0
 17 16  1  0
 18 19  1  0
 18 17  2  0
 19 20  2  0
 20 21  1  0
 21 13  1  0
 22 11  1  0
 22 29  1  0
 23 22  2  0
 24 25  1  0
 26 25  1  0
 26 28  1  0
 26 27  1  1
 28 29  1  6
 28 30  1  0
 30 31  2  0
 30 32  1  0
M  END
$$$$
