EWI.pdb
     RDKit          3D

 32 33  0  0  1  0  0  0  0  0999 V2000
   10.3254  -16.8613   19.3271 N   0  0  0  0  0  0  0  0  0  0  0  0
   11.1055  -17.2996   20.4613 C   0  0  1  0  0  0  0  0  0  0  0  0
   12.5893  -17.2216   20.1668 C   0  0  0  0  0  0  0  0  0  0  0  0
   12.8895  -18.2414   19.1179 C   0  0  0  0  0  0  0  0  0  0  0  0
   14.3278  -18.3095   18.7700 C   0  0  0  0  0  0  0  0  0  0  0  0
   15.2405  -18.6118   19.5817 O   0  0  0  0  0  0  0  0  0  0  0  0
   10.7052  -16.4939   21.6392 C   0  0  0  0  0  0  0  0  0  0  0  0
   10.8977  -15.2485   21.6925 O   0  0  0  0  0  0  0  0  0  0  0  0
   14.7672  -18.0298   17.4693 O   0  0  0  0  0  0  0  0  0  0  0  0
   10.0938  -17.1055   22.7401 N   0  0  0  0  0  0  0  0  0  0  0  0
    9.5251  -16.4606   23.8713 C   0  0  1  0  0  0  0  0  0  0  0  0
    8.0462  -16.6461   23.9265 C   0  0  0  0  0  0  0  0  0  0  0  0
    7.2575  -15.4265   23.6655 C   0  0  0  0  0  0  0  0  0  0  0  0
    6.6750  -15.0912   22.4457 C   0  0  0  0  0  0  0  0  0  0  0  0
    6.0224  -13.9460   22.6456 N   0  0  0  0  0  0  0  0  0  0  0  0
    6.1626  -13.5363   23.9347 C   0  0  0  0  0  0  0  0  0  0  0  0
    5.6926  -12.4318   24.6038 C   0  0  0  0  0  0  0  0  0  0  0  0
    6.0226  -12.2820   25.9346 C   0  0  0  0  0  0  0  0  0  0  0  0
    6.7989  -13.1944   26.6026 C   0  0  0  0  0  0  0  0  0  0  0  0
    7.2694  -14.3005   25.9331 C   0  0  0  0  0  0  0  0  0  0  0  0
    6.9402  -14.4606   24.5900 C   0  0  0  0  0  0  0  0  0  0  0  0
   10.2047  -16.7937   25.1417 C   0  0  0  0  0  0  0  0  0  0  0  0
   10.9597  -17.8114   25.1425 O   0  0  0  0  0  0  0  0  0  0  0  0
   10.3275  -13.0934   29.3719 C   0  0  0  0  0  0  0  0  0  0  0  0
   10.8149  -14.0438   28.2898 C   0  0  0  0  0  0  0  0  0  0  0  0
   10.5183  -15.4692   28.6699 C   0  0  2  0  0  0  0  0  0  0  0  0
   11.4152  -15.8983   29.8435 C   0  0  0  0  0  0  0  0  0  0  0  0
   10.7578  -16.4602   27.5876 C   0  0  2  0  0  0  0  0  0  0  0  0
   10.0696  -16.0600   26.3456 N   0  0  0  0  0  0  0  0  0  0  0  0
   10.4147  -17.8591   27.9263 C   0  0  0  0  0  0  0  0  0  0  0  0
   11.1954  -18.7454   28.3005 O   0  0  0  0  0  0  0  0  0  0  0  0
    9.0633  -18.2544   27.8213 O   0  0  0  0  0  0  0  0  0  0  0  0
  2  1  1  6
  2  3  1  0
  3  4  1  0
  4  5  1  0
  5  6  2  0
  7  8  2  0
  7  2  1  0
  9  5  1  0
 10  7  1  0
 11 10  1  0
 11 12  1  1
 13 14  2  0
 13 12  1  0
 15 14  1  0
 16 21  2  0
 16 15  1  0
 17 16  1  0
 18 19  1  0
 18 17  2  0
 19 20  2  0
 20 21  1  0
 21 13  1  0
 22 11  1  0
 22 29  1  0
 23 22  2  0
 24 25  1  0
 26 25  1  0
 26 28  1  0
 26 27  1  1
 28 29  1  6
 28 30  1  0
 30 31  2  0
 30 32  1  0
M  END
$$$$
