EWI.pdb
     RDKit          3D

 32 33  0  0  1  0  0  0  0  0999 V2000
   10.9168  -19.1978   21.0561 N   0  0  0  0  0  0  0  0  0  0  0  0
   11.9429  -18.2338   21.3803 C   0  0  1  0  0  0  0  0  0  0  0  0
   12.5904  -17.6825   20.1268 C   0  0  0  0  0  0  0  0  0  0  0  0
   11.5419  -17.6435   19.0641 C   0  0  0  0  0  0  0  0  0  0  0  0
   12.0388  -17.0996   17.7789 C   0  0  0  0  0  0  0  0  0  0  0  0
   11.4891  -16.1615   17.1456 O   0  0  0  0  0  0  0  0  0  0  0  0
   11.3387  -17.1814   22.2315 C   0  0  0  0  0  0  0  0  0  0  0  0
   11.9507  -16.1139   22.5081 O   0  0  0  0  0  0  0  0  0  0  0  0
   13.1912  -17.6201   17.1752 O   0  0  0  0  0  0  0  0  0  0  0  0
   10.0525  -17.3494   22.7584 N   0  0  0  0  0  0  0  0  0  0  0  0
    9.3584  -16.4602   23.6223 C   0  0  1  0  0  0  0  0  0  0  0  0
    7.8798  -16.5976   23.4829 C   0  0  0  0  0  0  0  0  0  0  0  0
    7.3289  -16.1083   22.2043 C   0  0  0  0  0  0  0  0  0  0  0  0
    6.3642  -16.7622   21.4417 C   0  0  0  0  0  0  0  0  0  0  0  0
    6.1148  -15.9719   20.3975 N   0  0  0  0  0  0  0  0  0  0  0  0
    6.8754  -14.8463   20.4592 C   0  0  0  0  0  0  0  0  0  0  0  0
    6.9790  -13.7605   19.6230 C   0  0  0  0  0  0  0  0  0  0  0  0
    7.8702  -12.7612   19.9537 C   0  0  0  0  0  0  0  0  0  0  0  0
    8.6486  -12.8194   21.0815 C   0  0  0  0  0  0  0  0  0  0  0  0
    8.5451  -13.9062   21.9191 C   0  0  0  0  0  0  0  0  0  0  0  0
    7.6471  -14.9191   21.5939 C   0  0  0  0  0  0  0  0  0  0  0  0
    9.8224  -16.5213   25.0251 C   0  0  0  0  0  0  0  0  0  0  0  0
   10.6577  -17.4281   25.3176 O   0  0  0  0  0  0  0  0  0  0  0  0
    8.5812  -12.2644   28.1319 C   0  0  0  0  0  0  0  0  0  0  0  0
    9.6080  -13.2385   27.5764 C   0  0  0  0  0  0  0  0  0  0  0  0
    9.4774  -14.5790   28.2473 C   0  0  2  0  0  0  0  0  0  0  0  0
   10.3250  -14.6099   29.5305 C   0  0  0  0  0  0  0  0  0  0  0  0
    9.9369  -15.7293   27.4250 C   0  0  2  0  0  0  0  0  0  0  0  0
    9.3999  -15.6439   26.0537 N   0  0  0  0  0  0  0  0  0  0  0  0
    9.6543  -17.0651   27.9953 C   0  0  0  0  0  0  0  0  0  0  0  0
    8.6160  -17.7269   27.8572 O   0  0  0  0  0  0  0  0  0  0  0  0
   10.6543  -17.6744   28.7841 O   0  0  0  0  0  0  0  0  0  0  0  0
  2  1  1  6
  2  3  1  0
  3  4  1  0
  4  5  1  0
  5  6  2  0
  7  8  2  0
  7  2  1  0
  9  5  1  0
 10  7  1  0
 11 10  1  0
 11 12  1  1
 13 14  2  0
 13 12  1  0
 15 14  1  0
 16 21  2  0
 16 15  1  0
 17 16  1  0
 18 19  1  0
 18 17  2  0
 19 20  2  0
 20 21  1  0
 21 13  1  0
 22 11  1  0
 22 29  1  0
 23 22  2  0
 24 25  1  0
 26 25  1  0
 26 28  1  0
 26 27  1  1
 28 29  1  6
 28 30  1  0
 30 31  2  0
 30 32  1  0
M  END
$$$$
