EWI.pdb
     RDKit          3D

 32 33  0  0  1  0  0  0  0  0999 V2000
    9.3993  -17.1917   19.5081 N   0  0  0  0  0  0  0  0  0  0  0  0
   10.4562  -17.2652   20.4902 C   0  0  1  0  0  0  0  0  0  0  0  0
   11.7759  -16.8023   19.9083 C   0  0  0  0  0  0  0  0  0  0  0  0
   11.8482  -17.3126   18.5067 C   0  0  0  0  0  0  0  0  0  0  0  0
   13.2226  -17.6793   18.0932 C   0  0  0  0  0  0  0  0  0  0  0  0
   13.9982  -16.9203   17.4564 O   0  0  0  0  0  0  0  0  0  0  0  0
   10.0406  -16.4832   21.6788 C   0  0  0  0  0  0  0  0  0  0  0  0
   10.3319  -15.2631   21.8100 O   0  0  0  0  0  0  0  0  0  0  0  0
   13.7538  -18.9392   18.3996 O   0  0  0  0  0  0  0  0  0  0  0  0
    9.3027  -17.0899   22.7022 N   0  0  0  0  0  0  0  0  0  0  0  0
    8.8727  -16.4923   23.9175 C   0  0  1  0  0  0  0  0  0  0  0  0
    7.4960  -16.9288   24.2900 C   0  0  0  0  0  0  0  0  0  0  0  0
    6.5931  -15.8408   24.7128 C   0  0  0  0  0  0  0  0  0  0  0  0
    5.2543  -15.9974   25.0634 C   0  0  0  0  0  0  0  0  0  0  0  0
    4.8182  -14.7896   25.4213 N   0  0  0  0  0  0  0  0  0  0  0  0
    5.8159  -13.8717   25.3145 C   0  0  0  0  0  0  0  0  0  0  0  0
    5.8493  -12.5190   25.5551 C   0  0  0  0  0  0  0  0  0  0  0  0
    7.0314  -11.8432   25.3359 C   0  0  0  0  0  0  0  0  0  0  0  0
    8.1633  -12.4759   24.8888 C   0  0  0  0  0  0  0  0  0  0  0  0
    8.1304  -13.8302   24.6480 C   0  0  0  0  0  0  0  0  0  0  0  0
    6.9417  -14.5208   24.8678 C   0  0  0  0  0  0  0  0  0  0  0  0
    9.8493  -16.6318   25.0192 C   0  0  0  0  0  0  0  0  0  0  0  0
   10.8415  -17.3937   24.8177 O   0  0  0  0  0  0  0  0  0  0  0  0
    9.8529  -13.0373   29.3160 C   0  0  0  0  0  0  0  0  0  0  0  0
   10.3427  -13.8503   28.1283 C   0  0  0  0  0  0  0  0  0  0  0  0
   10.4718  -15.3019   28.5026 C   0  0  2  0  0  0  0  0  0  0  0  0
   11.6565  -15.4939   29.4647 C   0  0  0  0  0  0  0  0  0  0  0  0
   10.7222  -16.2159   27.3568 C   0  0  2  0  0  0  0  0  0  0  0  0
    9.7512  -15.9783   26.2720 N   0  0  0  0  0  0  0  0  0  0  0  0
   10.7586  -17.6559   27.6951 C   0  0  0  0  0  0  0  0  0  0  0  0
    9.7856  -18.4073   27.8492 O   0  0  0  0  0  0  0  0  0  0  0  0
   12.0208  -18.2652   27.8662 O   0  0  0  0  0  0  0  0  0  0  0  0
  2  1  1  6
  2  3  1  0
  3  4  1  0
  4  5  1  0
  5  6  2  0
  7  8  2  0
  7  2  1  0
  9  5  1  0
 10  7  1  0
 11 10  1  0
 11 12  1  1
 13 14  2  0
 13 12  1  0
 15 14  1  0
 16 21  2  0
 16 15  1  0
 17 16  1  0
 18 19  1  0
 18 17  2  0
 19 20  2  0
 20 21  1  0
 21 13  1  0
 22 11  1  0
 22 29  1  0
 23 22  2  0
 24 25  1  0
 26 25  1  0
 26 28  1  0
 26 27  1  1
 28 29  1  6
 28 30  1  0
 30 31  2  0
 30 32  1  0
M  END
$$$$
