EWI.pdb
     RDKit          3D

 32 33  0  0  1  0  0  0  0  0999 V2000
   10.6814  -17.0521   19.2041 N   0  0  0  0  0  0  0  0  0  0  0  0
   11.1847  -17.6391   20.4244 C   0  0  1  0  0  0  0  0  0  0  0  0
   12.6830  -17.8500   20.3519 C   0  0  0  0  0  0  0  0  0  0  0  0
   13.1378  -17.3588   19.0170 C   0  0  0  0  0  0  0  0  0  0  0  0
   14.5322  -17.7463   18.7008 C   0  0  0  0  0  0  0  0  0  0  0  0
   15.5154  -17.5383   19.4579 O   0  0  0  0  0  0  0  0  0  0  0  0
   10.7750  -16.7763   21.5579 C   0  0  0  0  0  0  0  0  0  0  0  0
   11.4348  -15.7544   21.8911 O   0  0  0  0  0  0  0  0  0  0  0  0
   14.8443  -18.3892   17.4956 O   0  0  0  0  0  0  0  0  0  0  0  0
    9.6266  -17.0797   22.2989 N   0  0  0  0  0  0  0  0  0  0  0  0
    9.1060  -16.3563   23.4055 C   0  0  1  0  0  0  0  0  0  0  0  0
    7.6154  -16.3087   23.3814 C   0  0  0  0  0  0  0  0  0  0  0  0
    7.0027  -15.5069   24.4581 C   0  0  0  0  0  0  0  0  0  0  0  0
    6.2494  -16.0181   25.5122 C   0  0  0  0  0  0  0  0  0  0  0  0
    5.9235  -14.9767   26.2779 N   0  0  0  0  0  0  0  0  0  0  0  0
    6.4330  -13.8268   25.7607 C   0  0  0  0  0  0  0  0  0  0  0  0
    6.3580  -12.5195   26.1778 C   0  0  0  0  0  0  0  0  0  0  0  0
    6.9800  -11.5519   25.4168 C   0  0  0  0  0  0  0  0  0  0  0  0
    7.6642  -11.8539   24.2670 C   0  0  0  0  0  0  0  0  0  0  0  0
    7.7398  -13.1626   23.8491 C   0  0  0  0  0  0  0  0  0  0  0  0
    7.1160  -14.1461   24.6118 C   0  0  0  0  0  0  0  0  0  0  0  0
    9.6567  -16.7945   24.7062 C   0  0  0  0  0  0  0  0  0  0  0  0
    9.8875  -18.0324   24.8475 O   0  0  0  0  0  0  0  0  0  0  0  0
   10.1504  -13.6110   29.6082 C   0  0  0  0  0  0  0  0  0  0  0  0
    9.7153  -14.6857   28.6247 C   0  0  0  0  0  0  0  0  0  0  0  0
   10.9120  -15.2827   27.9352 C   0  0  2  0  0  0  0  0  0  0  0  0
   11.6050  -14.2180   27.0680 C   0  0  0  0  0  0  0  0  0  0  0  0
   10.5992  -16.4142   27.0228 C   0  0  2  0  0  0  0  0  0  0  0  0
    9.9402  -15.9328   25.7939 N   0  0  0  0  0  0  0  0  0  0  0  0
    9.8064  -17.5091   27.6247 C   0  0  0  0  0  0  0  0  0  0  0  0
    8.6119  -17.7627   27.4154 O   0  0  0  0  0  0  0  0  0  0  0  0
   10.4526  -18.3715   28.5370 O   0  0  0  0  0  0  0  0  0  0  0  0
  2  1  1  6
  2  3  1  0
  3  4  1  0
  4  5  1  0
  5  6  2  0
  7  8  2  0
  7  2  1  0
  9  5  1  0
 10  7  1  0
 11 10  1  0
 11 12  1  1
 13 14  2  0
 13 12  1  0
 15 14  1  0
 16 21  2  0
 16 15  1  0
 17 16  1  0
 18 19  1  0
 18 17  2  0
 19 20  2  0
 20 21  1  0
 21 13  1  0
 22 11  1  0
 22 29  1  0
 23 22  2  0
 24 25  1  0
 26 25  1  0
 26 28  1  0
 26 27  1  6
 28 29  1  6
 28 30  1  0
 30 31  2  0
 30 32  1  0
M  END
$$$$
