EWI.pdb
     RDKit          3D

 32 33  0  0  1  0  0  0  0  0999 V2000
   10.5390  -17.3307   19.5585 N   0  0  0  0  0  0  0  0  0  0  0  0
   10.9859  -17.6561   20.8933 C   0  0  1  0  0  0  0  0  0  0  0  0
   12.4855  -17.8665   20.9314 C   0  0  0  0  0  0  0  0  0  0  0  0
   12.9159  -18.2547   19.5550 C   0  0  0  0  0  0  0  0  0  0  0  0
   14.3835  -18.4113   19.4289 C   0  0  0  0  0  0  0  0  0  0  0  0
   15.2036  -18.1826   20.3553 O   0  0  0  0  0  0  0  0  0  0  0  0
   10.5273  -16.5854   21.8101 C   0  0  0  0  0  0  0  0  0  0  0  0
   11.2905  -15.6522   22.1809 O   0  0  0  0  0  0  0  0  0  0  0  0
   14.9605  -18.8380   18.2254 O   0  0  0  0  0  0  0  0  0  0  0  0
    9.2141  -16.5839   22.2954 N   0  0  0  0  0  0  0  0  0  0  0  0
    8.7716  -16.1275   23.5661 C   0  0  1  0  0  0  0  0  0  0  0  0
    7.3608  -16.5294   23.8359 C   0  0  0  0  0  0  0  0  0  0  0  0
    6.5864  -15.5698   24.6465 C   0  0  0  0  0  0  0  0  0  0  0  0
    5.4071  -15.8607   25.3281 C   0  0  0  0  0  0  0  0  0  0  0  0
    5.0584  -14.7427   25.9651 N   0  0  0  0  0  0  0  0  0  0  0  0
    5.9595  -13.7540   25.7207 C   0  0  0  0  0  0  0  0  0  0  0  0
    6.0236  -12.4459   26.1371 C   0  0  0  0  0  0  0  0  0  0  0  0
    7.0761  -11.6694   25.6995 C   0  0  0  0  0  0  0  0  0  0  0  0
    8.0508  -12.1602   24.8686 C   0  0  0  0  0  0  0  0  0  0  0  0
    7.9872  -13.4699   24.4516 C   0  0  0  0  0  0  0  0  0  0  0  0
    6.9291  -14.2615   24.8895 C   0  0  0  0  0  0  0  0  0  0  0  0
    9.6979  -16.4662   24.6679 C   0  0  0  0  0  0  0  0  0  0  0  0
   10.7345  -17.1299   24.3669 O   0  0  0  0  0  0  0  0  0  0  0  0
   10.1451  -12.5129   28.2894 C   0  0  0  0  0  0  0  0  0  0  0  0
   10.4856  -13.5952   27.2774 C   0  0  0  0  0  0  0  0  0  0  0  0
   10.4873  -14.9483   27.9356 C   0  0  2  0  0  0  0  0  0  0  0  0
   11.6762  -15.0602   28.9050 C   0  0  0  0  0  0  0  0  0  0  0  0
   10.6160  -16.0929   26.9955 C   0  0  2  0  0  0  0  0  0  0  0  0
    9.5063  -16.1033   26.0235 N   0  0  0  0  0  0  0  0  0  0  0  0
   10.7403  -17.4222   27.6336 C   0  0  0  0  0  0  0  0  0  0  0  0
   11.7779  -17.9458   28.0628 O   0  0  0  0  0  0  0  0  0  0  0  0
    9.5701  -18.1982   27.7826 O   0  0  0  0  0  0  0  0  0  0  0  0
  2  1  1  6
  2  3  1  0
  3  4  1  0
  4  5  1  0
  5  6  2  0
  7  8  2  0
  7  2  1  0
  9  5  1  0
 10  7  1  0
 11 10  1  0
 11 12  1  1
 13 14  2  0
 13 12  1  0
 15 14  1  0
 16 21  2  0
 16 15  1  0
 17 16  1  0
 18 19  1  0
 18 17  2  0
 19 20  2  0
 20 21  1  0
 21 13  1  0
 22 11  1  0
 22 29  1  0
 23 22  2  0
 24 25  1  0
 26 25  1  0
 26 28  1  0
 26 27  1  1
 28 29  1  6
 28 30  1  0
 30 31  2  0
 30 32  1  0
M  END
$$$$
