EWI.pdb
     RDKit          3D

 32 33  0  0  1  0  0  0  0  0999 V2000
   10.4454  -17.0839   18.7803 N   0  0  0  0  0  0  0  0  0  0  0  0
   11.2599  -17.2150   19.9663 C   0  0  1  0  0  0  0  0  0  0  0  0
   12.7155  -16.9243   19.6643 C   0  0  0  0  0  0  0  0  0  0  0  0
   13.3160  -18.1778   19.1179 C   0  0  0  0  0  0  0  0  0  0  0  0
   14.7752  -18.0691   18.8871 C   0  0  0  0  0  0  0  0  0  0  0  0
   15.4549  -17.0357   19.1179 O   0  0  0  0  0  0  0  0  0  0  0  0
   10.6979  -16.3314   21.0153 C   0  0  0  0  0  0  0  0  0  0  0  0
   11.0163  -15.1142   21.1035 O   0  0  0  0  0  0  0  0  0  0  0  0
   15.5056  -19.1516   18.3794 O   0  0  0  0  0  0  0  0  0  0  0  0
    9.7849  -16.8347   21.9498 N   0  0  0  0  0  0  0  0  0  0  0  0
    9.1719  -16.1237   23.0164 C   0  0  1  0  0  0  0  0  0  0  0  0
    7.6912  -16.3029   23.0198 C   0  0  0  0  0  0  0  0  0  0  0  0
    6.9817  -15.5848   24.0961 C   0  0  0  0  0  0  0  0  0  0  0  0
    6.2688  -16.1866   25.1302 C   0  0  0  0  0  0  0  0  0  0  0  0
    5.8245  -15.1958   25.9037 N   0  0  0  0  0  0  0  0  0  0  0  0
    6.2205  -13.9920   25.4104 C   0  0  0  0  0  0  0  0  0  0  0  0
    6.0039  -12.7057   25.8432 C   0  0  0  0  0  0  0  0  0  0  0  0
    6.5344  -11.6679   25.1058 C   0  0  0  0  0  0  0  0  0  0  0  0
    7.2643  -11.8805   23.9641 C   0  0  0  0  0  0  0  0  0  0  0  0
    7.4817  -13.1681   23.5306 C   0  0  0  0  0  0  0  0  0  0  0  0
    6.9511  -14.2220   24.2695 C   0  0  0  0  0  0  0  0  0  0  0  0
    9.7962  -16.3833   24.3316 C   0  0  0  0  0  0  0  0  0  0  0  0
   10.4219  -17.4767   24.4675 O   0  0  0  0  0  0  0  0  0  0  0  0
   10.8621  -13.6425   29.8520 C   0  0  0  0  0  0  0  0  0  0  0  0
   11.0272  -14.8680   28.9675 C   0  0  0  0  0  0  0  0  0  0  0  0
   10.4109  -14.6275   27.6160 C   0  0  2  0  0  0  0  0  0  0  0  0
    8.9420  -14.2003   27.7760 C   0  0  0  0  0  0  0  0  0  0  0  0
   10.3971  -15.8158   26.7225 C   0  0  2  0  0  0  0  0  0  0  0  0
    9.7419  -15.5016   25.4387 N   0  0  0  0  0  0  0  0  0  0  0  0
    9.8013  -17.0376   27.3073 C   0  0  0  0  0  0  0  0  0  0  0  0
    8.6450  -17.4513   27.1437 O   0  0  0  0  0  0  0  0  0  0  0  0
   10.6120  -17.8357   28.1436 O   0  0  0  0  0  0  0  0  0  0  0  0
  2  1  1  6
  2  3  1  0
  3  4  1  0
  4  5  1  0
  5  6  2  0
  7  8  2  0
  7  2  1  0
  9  5  1  0
 10  7  1  0
 11 10  1  0
 11 12  1  1
 13 14  2  0
 13 12  1  0
 15 14  1  0
 16 21  2  0
 16 15  1  0
 17 16  1  0
 18 19  1  0
 18 17  2  0
 19 20  2  0
 20 21  1  0
 21 13  1  0
 22 11  1  0
 22 29  1  0
 23 22  2  0
 24 25  1  0
 26 25  1  0
 26 28  1  0
 26 27  1  1
 28 29  1  6
 28 30  1  0
 30 31  2  0
 30 32  1  0
M  END
$$$$
