EWI.pdb
     RDKit          3D

 32 33  0  0  1  0  0  0  0  0999 V2000
   10.8557  -18.2352   20.2483 N   0  0  0  0  0  0  0  0  0  0  0  0
   11.7743  -17.1588   20.5397 C   0  0  1  0  0  0  0  0  0  0  0  0
   11.9972  -16.2860   19.3219 C   0  0  0  0  0  0  0  0  0  0  0  0
   12.9779  -16.9899   18.4428 C   0  0  0  0  0  0  0  0  0  0  0  0
   12.3308  -17.8070   17.3901 C   0  0  0  0  0  0  0  0  0  0  0  0
   12.4145  -19.0601   17.3129 O   0  0  0  0  0  0  0  0  0  0  0  0
   11.2523  -16.4059   21.7049 C   0  0  0  0  0  0  0  0  0  0  0  0
   11.8862  -15.4421   22.2149 O   0  0  0  0  0  0  0  0  0  0  0  0
   11.5619  -17.2064   16.3845 O   0  0  0  0  0  0  0  0  0  0  0  0
   10.0227  -16.7520   22.2778 N   0  0  0  0  0  0  0  0  0  0  0  0
    9.3854  -16.1238   23.3815 C   0  0  1  0  0  0  0  0  0  0  0  0
    7.9011  -16.2491   23.3060 C   0  0  0  0  0  0  0  0  0  0  0  0
    7.1642  -15.5519   24.3776 C   0  0  0  0  0  0  0  0  0  0  0  0
    6.4259  -16.1736   25.3817 C   0  0  0  0  0  0  0  0  0  0  0  0
    5.9616  -15.1980   26.1626 N   0  0  0  0  0  0  0  0  0  0  0  0
    6.3689  -13.9848   25.7026 C   0  0  0  0  0  0  0  0  0  0  0  0
    6.1405  -12.7071   26.1544 C   0  0  0  0  0  0  0  0  0  0  0  0
    6.6886  -11.6552   25.4506 C   0  0  0  0  0  0  0  0  0  0  0  0
    7.4472  -11.8457   24.3238 C   0  0  0  0  0  0  0  0  0  0  0  0
    7.6763  -13.1247   23.8713 C   0  0  0  0  0  0  0  0  0  0  0  0
    7.1281  -14.1927   24.5762 C   0  0  0  0  0  0  0  0  0  0  0  0
    9.9414  -16.5296   24.6904 C   0  0  0  0  0  0  0  0  0  0  0  0
   10.5161  -17.6573   24.7486 O   0  0  0  0  0  0  0  0  0  0  0  0
    9.6371  -13.0099   29.1069 C   0  0  0  0  0  0  0  0  0  0  0  0
   10.2285  -13.8175   27.9625 C   0  0  0  0  0  0  0  0  0  0  0  0
   10.1317  -15.2905   28.2538 C   0  0  2  0  0  0  0  0  0  0  0  0
   11.0587  -15.6572   29.4252 C   0  0  0  0  0  0  0  0  0  0  0  0
   10.5305  -16.1716   27.1245 C   0  0  2  0  0  0  0  0  0  0  0  0
    9.8748  -15.7509   25.8717 N   0  0  0  0  0  0  0  0  0  0  0  0
   10.3136  -17.6184   27.3463 C   0  0  0  0  0  0  0  0  0  0  0  0
   11.1754  -18.4649   27.6214 O   0  0  0  0  0  0  0  0  0  0  0  0
    8.9963  -18.1153   27.2399 O   0  0  0  0  0  0  0  0  0  0  0  0
  2  1  1  6
  2  3  1  0
  3  4  1  0
  4  5  1  0
  5  6  2  0
  7  8  2  0
  7  2  1  0
  9  5  1  0
 10  7  1  0
 11 10  1  0
 11 12  1  1
 13 14  2  0
 13 12  1  0
 15 14  1  0
 16 21  2  0
 16 15  1  0
 17 16  1  0
 18 19  1  0
 18 17  2  0
 19 20  2  0
 20 21  1  0
 21 13  1  0
 22 11  1  0
 22 29  1  0
 23 22  2  0
 24 25  1  0
 26 25  1  0
 26 28  1  0
 26 27  1  1
 28 29  1  6
 28 30  1  0
 30 31  2  0
 30 32  1  0
M  END
$$$$
