EWI.pdb
     RDKit          3D

 32 33  0  0  1  0  0  0  0  0999 V2000
   10.9164  -18.8526   20.8036 N   0  0  0  0  0  0  0  0  0  0  0  0
   11.7556  -17.6809   20.9030 C   0  0  1  0  0  0  0  0  0  0  0  0
   11.9439  -17.0272   19.5496 C   0  0  0  0  0  0  0  0  0  0  0  0
   12.7447  -17.9665   18.7089 C   0  0  0  0  0  0  0  0  0  0  0  0
   13.1439  -17.3831   17.4071 C   0  0  0  0  0  0  0  0  0  0  0  0
   12.6913  -16.3040   16.9447 O   0  0  0  0  0  0  0  0  0  0  0  0
   11.1620  -16.7690   21.9095 C   0  0  0  0  0  0  0  0  0  0  0  0
   11.6811  -15.6537   22.1880 O   0  0  0  0  0  0  0  0  0  0  0  0
   14.0820  -18.0257   16.5884 O   0  0  0  0  0  0  0  0  0  0  0  0
    9.9912  -17.1292   22.5875 N   0  0  0  0  0  0  0  0  0  0  0  0
    9.2764  -16.3489   23.5356 C   0  0  1  0  0  0  0  0  0  0  0  0
    7.8101  -16.6154   23.4761 C   0  0  0  0  0  0  0  0  0  0  0  0
    7.1295  -16.0770   22.2826 C   0  0  0  0  0  0  0  0  0  0  0  0
    6.0152  -16.6435   21.6683 C   0  0  0  0  0  0  0  0  0  0  0  0
    5.6905  -15.8317   20.6619 N   0  0  0  0  0  0  0  0  0  0  0  0
    6.5457  -14.7759   20.6062 C   0  0  0  0  0  0  0  0  0  0  0  0
    6.6236  -13.7007   19.7538 C   0  0  0  0  0  0  0  0  0  0  0  0
    7.6344  -12.7825   19.9474 C   0  0  0  0  0  0  0  0  0  0  0  0
    8.5552  -12.9106   20.9559 C   0  0  0  0  0  0  0  0  0  0  0  0
    8.4775  -13.9867   21.8098 C   0  0  0  0  0  0  0  0  0  0  0  0
    7.4596  -14.9178   21.6227 C   0  0  0  0  0  0  0  0  0  0  0  0
    9.8315  -16.4320   24.9038 C   0  0  0  0  0  0  0  0  0  0  0  0
   10.6779  -17.3479   25.1284 O   0  0  0  0  0  0  0  0  0  0  0  0
    9.2602  -12.1231   28.3031 C   0  0  0  0  0  0  0  0  0  0  0  0
    9.9546  -13.2302   27.5261 C   0  0  0  0  0  0  0  0  0  0  0  0
    9.7137  -14.5630   28.1816 C   0  0  2  0  0  0  0  0  0  0  0  0
   10.5935  -14.6991   29.4359 C   0  0  0  0  0  0  0  0  0  0  0  0
   10.0321  -15.7382   27.3283 C   0  0  2  0  0  0  0  0  0  0  0  0
    9.4840  -15.5662   25.9695 N   0  0  0  0  0  0  0  0  0  0  0  0
    9.6167  -17.0477   27.8778 C   0  0  0  0  0  0  0  0  0  0  0  0
    8.5079  -17.5867   27.7546 O   0  0  0  0  0  0  0  0  0  0  0  0
   10.5621  -17.7831   28.6256 O   0  0  0  0  0  0  0  0  0  0  0  0
  2  1  1  6
  2  3  1  0
  3  4  1  0
  4  5  1  0
  5  6  2  0
  7  8  2  0
  7  2  1  0
  9  5  1  0
 10  7  1  0
 11 10  1  0
 11 12  1  1
 13 14  2  0
 13 12  1  0
 15 14  1  0
 16 21  2  0
 16 15  1  0
 17 16  1  0
 18 19  1  0
 18 17  2  0
 19 20  2  0
 20 21  1  0
 21 13  1  0
 22 11  1  0
 22 29  1  0
 23 22  2  0
 24 25  1  0
 26 25  1  0
 26 28  1  0
 26 27  1  1
 28 29  1  6
 28 30  1  0
 30 31  2  0
 30 32  1  0
M  END
$$$$
