EWI.pdb
     RDKit          3D

 32 33  0  0  1  0  0  0  0  0999 V2000
   10.5094  -17.2960   19.3460 N   0  0  0  0  0  0  0  0  0  0  0  0
   11.3377  -17.5918   20.4921 C   0  0  1  0  0  0  0  0  0  0  0  0
   12.8081  -17.4644   20.1511 C   0  0  0  0  0  0  0  0  0  0  0  0
   13.3177  -18.8370   19.8573 C   0  0  0  0  0  0  0  0  0  0  0  0
   14.7969  -18.9157   19.8432 C   0  0  0  0  0  0  0  0  0  0  0  0
   15.5021  -18.8301   18.8047 O   0  0  0  0  0  0  0  0  0  0  0  0
   10.9221  -16.7065   21.6059 C   0  0  0  0  0  0  0  0  0  0  0  0
   11.3325  -15.5177   21.7022 O   0  0  0  0  0  0  0  0  0  0  0  0
   15.5188  -19.0974   21.0303 O   0  0  0  0  0  0  0  0  0  0  0  0
   10.0497  -17.1759   22.5952 N   0  0  0  0  0  0  0  0  0  0  0  0
    9.5180  -16.4390   23.6875 C   0  0  1  0  0  0  0  0  0  0  0  0
    8.0268  -16.4670   23.6980 C   0  0  0  0  0  0  0  0  0  0  0  0
    7.3805  -15.1457   23.5785 C   0  0  0  0  0  0  0  0  0  0  0  0
    6.9344  -14.5733   22.3898 C   0  0  0  0  0  0  0  0  0  0  0  0
    6.3782  -13.4082   22.7220 N   0  0  0  0  0  0  0  0  0  0  0  0
    6.4498  -13.2117   24.0657 C   0  0  0  0  0  0  0  0  0  0  0  0
    6.0323  -12.1756   24.8662 C   0  0  0  0  0  0  0  0  0  0  0  0
    6.2643  -12.2609   26.2231 C   0  0  0  0  0  0  0  0  0  0  0  0
    6.8937  -13.3393   26.7908 C   0  0  0  0  0  0  0  0  0  0  0  0
    7.3116  -14.3770   25.9898 C   0  0  0  0  0  0  0  0  0  0  0  0
    7.0805  -14.3000   24.6192 C   0  0  0  0  0  0  0  0  0  0  0  0
   10.1195  -16.8006   24.9891 C   0  0  0  0  0  0  0  0  0  0  0  0
   10.8128  -17.8605   25.0299 O   0  0  0  0  0  0  0  0  0  0  0  0
   10.2083  -13.0513   29.1973 C   0  0  0  0  0  0  0  0  0  0  0  0
   10.6800  -14.0045   28.1108 C   0  0  0  0  0  0  0  0  0  0  0  0
   10.3970  -15.4294   28.5028 C   0  0  2  0  0  0  0  0  0  0  0  0
   11.2886  -15.8359   29.6885 C   0  0  0  0  0  0  0  0  0  0  0  0
   10.6577  -16.4284   27.4328 C   0  0  2  0  0  0  0  0  0  0  0  0
    9.9739  -16.0502   26.1816 N   0  0  0  0  0  0  0  0  0  0  0  0
   10.3302  -17.8281   27.7835 C   0  0  0  0  0  0  0  0  0  0  0  0
   11.0299  -18.6124   28.4396 O   0  0  0  0  0  0  0  0  0  0  0  0
    9.0975  -18.3524   27.3373 O   0  0  0  0  0  0  0  0  0  0  0  0
  2  1  1  6
  2  3  1  0
  3  4  1  0
  4  5  1  0
  5  6  2  0
  7  8  2  0
  7  2  1  0
  9  5  1  0
 10  7  1  0
 11 10  1  0
 11 12  1  1
 13 14  2  0
 13 12  1  0
 15 14  1  0
 16 21  2  0
 16 15  1  0
 17 16  1  0
 18 19  1  0
 18 17  2  0
 19 20  2  0
 20 21  1  0
 21 13  1  0
 22 11  1  0
 22 29  1  0
 23 22  2  0
 24 25  1  0
 26 25  1  0
 26 28  1  0
 26 27  1  1
 28 29  1  6
 28 30  1  0
 30 31  2  0
 30 32  1  0
M  END
$$$$
