EWI.pdb
     RDKit          3D

 32 33  0  0  1  0  0  0  0  0999 V2000
   10.5494  -16.9492   19.3559 N   0  0  0  0  0  0  0  0  0  0  0  0
   11.4162  -17.1197   20.4991 C   0  0  1  0  0  0  0  0  0  0  0  0
   12.8346  -16.6965   20.1773 C   0  0  0  0  0  0  0  0  0  0  0  0
   13.4054  -17.7196   19.2511 C   0  0  0  0  0  0  0  0  0  0  0  0
   14.5348  -18.4728   19.8441 C   0  0  0  0  0  0  0  0  0  0  0  0
   15.0103  -18.2542   20.9883 O   0  0  0  0  0  0  0  0  0  0  0  0
   10.8330  -16.3732   21.6391 C   0  0  0  0  0  0  0  0  0  0  0  0
   11.2553  -15.2336   21.9765 O   0  0  0  0  0  0  0  0  0  0  0  0
   15.1592  -19.5083   19.1363 O   0  0  0  0  0  0  0  0  0  0  0  0
    9.7819  -16.9239   22.3820 N   0  0  0  0  0  0  0  0  0  0  0  0
    9.1469  -16.3549   23.5186 C   0  0  1  0  0  0  0  0  0  0  0  0
    7.7609  -16.8770   23.6952 C   0  0  0  0  0  0  0  0  0  0  0  0
    6.8687  -16.0121   24.4911 C   0  0  0  0  0  0  0  0  0  0  0  0
    5.6270  -16.3876   24.9980 C   0  0  0  0  0  0  0  0  0  0  0  0
    5.1729  -15.3407   25.6873 N   0  0  0  0  0  0  0  0  0  0  0  0
    6.0665  -14.3166   25.6424 C   0  0  0  0  0  0  0  0  0  0  0  0
    6.0422  -13.0520   26.1799 C   0  0  0  0  0  0  0  0  0  0  0  0
    7.1150  -12.2183   25.9429 C   0  0  0  0  0  0  0  0  0  0  0  0
    8.1945  -12.6109   25.1932 C   0  0  0  0  0  0  0  0  0  0  0  0
    8.2193  -13.8770   24.6550 C   0  0  0  0  0  0  0  0  0  0  0  0
    7.1413  -14.7258   24.8903 C   0  0  0  0  0  0  0  0  0  0  0  0
    9.9633  -16.4333   24.7491 C   0  0  0  0  0  0  0  0  0  0  0  0
   10.8795  -17.3081   24.7790 O   0  0  0  0  0  0  0  0  0  0  0  0
    9.5602  -12.5208   28.8439 C   0  0  0  0  0  0  0  0  0  0  0  0
   10.1915  -13.3901   27.7680 C   0  0  0  0  0  0  0  0  0  0  0  0
   10.1531  -14.8386   28.1732 C   0  0  2  0  0  0  0  0  0  0  0  0
   11.0938  -15.0762   29.3668 C   0  0  0  0  0  0  0  0  0  0  0  0
   10.5866  -15.7884   27.1146 C   0  0  2  0  0  0  0  0  0  0  0  0
    9.7917  -15.6053   25.8854 N   0  0  0  0  0  0  0  0  0  0  0  0
   10.5858  -17.2148   27.5082 C   0  0  0  0  0  0  0  0  0  0  0  0
   11.5680  -17.8956   27.8349 O   0  0  0  0  0  0  0  0  0  0  0  0
    9.3502  -17.8980   27.5223 O   0  0  0  0  0  0  0  0  0  0  0  0
  2  1  1  6
  2  3  1  0
  3  4  1  0
  4  5  1  0
  5  6  2  0
  7  8  2  0
  7  2  1  0
  9  5  1  0
 10  7  1  0
 11 10  1  0
 11 12  1  1
 13 14  2  0
 13 12  1  0
 15 14  1  0
 16 21  2  0
 16 15  1  0
 17 16  1  0
 18 19  1  0
 18 17  2  0
 19 20  2  0
 20 21  1  0
 21 13  1  0
 22 11  1  0
 22 29  1  0
 23 22  2  0
 24 25  1  0
 26 25  1  0
 26 28  1  0
 26 27  1  1
 28 29  1  6
 28 30  1  0
 30 31  2  0
 30 32  1  0
M  END
$$$$
