EDY.pdb
     RDKit          3D

 30 30  0  0  1  0  0  0  0  0999 V2000
   21.3533  -13.0965  -20.7263 N   0  0  0  0  0  0  0  0  0  0  0  0
   21.2629  -12.6302  -19.3496 C   0  0  1  0  0  0  0  0  0  0  0  0
   22.3626  -13.3211  -18.5733 C   0  0  0  0  0  0  0  0  0  0  0  0
   22.1096  -14.7775  -18.3808 C   0  0  0  0  0  0  0  0  0  0  0  0
   21.7217  -15.0268  -16.9759 C   0  0  0  0  0  0  0  0  0  0  0  0
   20.5894  -14.6585  -16.5857 O   0  0  0  0  0  0  0  0  0  0  0  0
   21.3280  -11.1704  -19.2478 C   0  0  0  0  0  0  0  0  0  0  0  0
   21.9115  -10.5121  -20.1441 O   0  0  0  0  0  0  0  0  0  0  0  0
   22.5378  -15.6504  -16.0453 O   0  0  0  0  0  0  0  0  0  0  0  0
   20.7572  -10.4769  -18.1763 N   0  0  0  0  0  0  0  0  0  0  0  0
   20.7387   -9.0573  -17.9935 C   0  0  1  0  0  0  0  0  0  0  0  0
   19.3316   -8.5011  -17.9805 C   0  0  0  0  0  0  0  0  0  0  0  0
   19.2694   -7.0447  -17.8534 C   0  0  0  0  0  0  0  0  0  0  0  0
   19.3547   -6.3278  -18.8767 O   0  0  0  0  0  0  0  0  0  0  0  0
   21.4050   -8.6286  -16.7438 C   0  0  0  0  0  0  0  0  0  0  0  0
   21.1977   -9.3091  -15.7084 O   0  0  0  0  0  0  0  0  0  0  0  0
   19.1175   -6.4360  -16.6228 O   0  0  0  0  0  0  0  0  0  0  0  0
   27.0850  -11.7542  -17.1242 O   0  0  0  0  0  0  0  0  0  0  0  0
   26.4282  -10.5638  -16.7671 C   0  0  0  0  0  0  0  0  0  0  0  0
   26.1315  -10.3151  -15.4339 C   0  0  0  0  0  0  0  0  0  0  0  0
   25.4802   -9.1275  -15.1062 C   0  0  0  0  0  0  0  0  0  0  0  0
   25.1245   -8.1998  -16.0580 C   0  0  0  0  0  0  0  0  0  0  0  0
   24.4355   -6.9560  -15.6422 C   0  0  0  0  0  0  0  0  0  0  0  0
   22.9522   -7.1433  -15.4177 C   0  0  2  0  0  0  0  0  0  0  0  0
   22.2605   -7.5048  -16.6324 N   0  0  0  0  0  0  0  0  0  0  0  0
   22.3880   -5.8867  -14.8993 C   0  0  0  0  0  0  0  0  0  0  0  0
   22.7074   -5.3652  -13.6495 O   0  0  0  0  0  0  0  0  0  0  0  0
   25.4288   -8.4681  -17.3722 C   0  0  0  0  0  0  0  0  0  0  0  0
   26.0737   -9.6364  -17.7271 C   0  0  0  0  0  0  0  0  0  0  0  0
   21.5781   -5.2324  -15.5930 O   0  0  0  0  0  0  0  0  0  0  0  0
  2  1  1  6
  3  2  1  0
  4  3  1  0
  5  4  1  0
  5  6  2  0
  7  2  1  0
  7  8  2  0
  9  5  1  0
 10  7  1  0
 11 10  1  0
 11 12  1  1
 12 13  1  0
 13 14  2  0
 15 11  1  0
 16 15  2  0
 17 13  1  0
 18 19  1  0
 19 20  2  0
 19 29  1  0
 20 21  1  0
 21 22  2  0
 22 23  1  0
 24 23  1  6
 24 25  1  0
 25 15  1  0
 26 27  1  0
 26 24  1  0
 28 22  1  0
 29 28  2  0
 30 26  2  0
M  END
$$$$
