EDY.pdb
     RDKit          3D

 30 30  0  0  1  0  0  0  0  0999 V2000
   19.7525   -9.9341  -21.3363 N   0  0  0  0  0  0  0  0  0  0  0  0
   19.3548   -8.6910  -20.6903 C   0  0  1  0  0  0  0  0  0  0  0  0
   18.2107   -9.0215  -19.7570 C   0  0  0  0  0  0  0  0  0  0  0  0
   16.9193   -9.2270  -20.4727 C   0  0  0  0  0  0  0  0  0  0  0  0
   15.8486   -9.4903  -19.4875 C   0  0  0  0  0  0  0  0  0  0  0  0
   15.1165  -10.4952  -19.6428 O   0  0  0  0  0  0  0  0  0  0  0  0
   20.4713   -8.0329  -20.0079 C   0  0  0  0  0  0  0  0  0  0  0  0
   21.4312   -8.7224  -19.5832 O   0  0  0  0  0  0  0  0  0  0  0  0
   15.5947   -8.6889  -18.3857 O   0  0  0  0  0  0  0  0  0  0  0  0
   20.5062   -6.6492  -19.8104 N   0  0  0  0  0  0  0  0  0  0  0  0
   21.5111   -5.9146  -19.1036 C   0  0  1  0  0  0  0  0  0  0  0  0
   21.5961   -4.4754  -19.5629 C   0  0  0  0  0  0  0  0  0  0  0  0
   22.6832   -3.7170  -18.9431 C   0  0  0  0  0  0  0  0  0  0  0  0
   23.4174   -4.2676  -18.0910 O   0  0  0  0  0  0  0  0  0  0  0  0
   21.2980   -5.9093  -17.6394 C   0  0  0  0  0  0  0  0  0  0  0  0
   20.1739   -5.5437  -17.2142 O   0  0  0  0  0  0  0  0  0  0  0  0
   22.9217   -2.3981  -19.2771 O   0  0  0  0  0  0  0  0  0  0  0  0
   26.2042  -10.9703  -16.5902 O   0  0  0  0  0  0  0  0  0  0  0  0
   25.1783  -10.1420  -16.1027 C   0  0  0  0  0  0  0  0  0  0  0  0
   23.9692  -10.0725  -16.7813 C   0  0  0  0  0  0  0  0  0  0  0  0
   22.9684   -9.2443  -16.2771 C   0  0  0  0  0  0  0  0  0  0  0  0
   23.1412   -8.4979  -15.1342 C   0  0  0  0  0  0  0  0  0  0  0  0
   22.0357   -7.6387  -14.6505 C   0  0  0  0  0  0  0  0  0  0  0  0
   22.0485   -6.2538  -15.2568 C   0  0  2  0  0  0  0  0  0  0  0  0
   22.2723   -6.2874  -16.6828 N   0  0  0  0  0  0  0  0  0  0  0  0
   23.1176   -5.4670  -14.6211 C   0  0  0  0  0  0  0  0  0  0  0  0
   24.1563   -4.8755  -15.3333 O   0  0  0  0  0  0  0  0  0  0  0  0
   24.3475   -8.5831  -14.4791 C   0  0  0  0  0  0  0  0  0  0  0  0
   25.3578   -9.3953  -14.9549 C   0  0  0  0  0  0  0  0  0  0  0  0
   23.1203   -5.3043  -13.3806 O   0  0  0  0  0  0  0  0  0  0  0  0
  2  1  1  1
  3  2  1  0
  4  3  1  0
  5  4  1  0
  5  6  2  0
  7  2  1  0
  7  8  2  0
  9  5  1  0
 10  7  1  0
 11 10  1  0
 11 12  1  6
 12 13  1  0
 13 14  2  0
 15 11  1  0
 16 15  2  0
 17 13  1  0
 18 19  1  0
 19 20  2  0
 19 29  1  0
 20 21  1  0
 21 22  2  0
 22 23  1  0
 24 23  1  1
 24 25  1  0
 25 15  1  0
 26 27  1  0
 26 24  1  0
 28 22  1  0
 29 28  2  0
 30 26  2  0
M  END
$$$$
