EDY.pdb
     RDKit          3D

 30 30  0  0  1  0  0  0  0  0999 V2000
   20.2061  -16.0034  -20.8226 N   0  0  0  0  0  0  0  0  0  0  0  0
   20.7887  -16.3462  -19.5327 C   0  0  1  0  0  0  0  0  0  0  0  0
   19.6676  -16.3176  -18.5170 C   0  0  0  0  0  0  0  0  0  0  0  0
   19.3558  -14.9416  -18.0360 C   0  0  0  0  0  0  0  0  0  0  0  0
   17.9286  -14.6460  -18.2856 C   0  0  0  0  0  0  0  0  0  0  0  0
   17.4974  -13.4947  -18.0437 O   0  0  0  0  0  0  0  0  0  0  0  0
   21.4957  -17.6287  -19.5610 C   0  0  0  0  0  0  0  0  0  0  0  0
   21.0364  -18.5745  -20.2480 O   0  0  0  0  0  0  0  0  0  0  0  0
   17.0200  -15.5699  -18.7769 O   0  0  0  0  0  0  0  0  0  0  0  0
   22.6763  -17.8393  -18.8423 N   0  0  0  0  0  0  0  0  0  0  0  0
   23.4594  -19.0373  -18.8227 C   0  0  1  0  0  0  0  0  0  0  0  0
   24.7935  -18.8369  -18.1373 C   0  0  0  0  0  0  0  0  0  0  0  0
   25.7575  -18.0693  -18.9263 C   0  0  0  0  0  0  0  0  0  0  0  0
   25.4371  -17.6507  -20.0624 O   0  0  0  0  0  0  0  0  0  0  0  0
   22.7726  -20.1637  -18.1525 C   0  0  0  0  0  0  0  0  0  0  0  0
   22.4055  -19.9990  -16.9625 O   0  0  0  0  0  0  0  0  0  0  0  0
   27.0224  -17.7925  -18.4454 O   0  0  0  0  0  0  0  0  0  0  0  0
   16.8012  -21.9977  -14.0451 O   0  0  0  0  0  0  0  0  0  0  0  0
   17.6597  -22.0928  -15.1542 C   0  0  0  0  0  0  0  0  0  0  0  0
   18.3844  -23.2579  -15.3653 C   0  0  0  0  0  0  0  0  0  0  0  0
   19.2281  -23.3269  -16.4722 C   0  0  0  0  0  0  0  0  0  0  0  0
   19.3638  -22.2818  -17.3567 C   0  0  0  0  0  0  0  0  0  0  0  0
   20.2767  -22.4209  -18.5151 C   0  0  0  0  0  0  0  0  0  0  0  0
   21.7359  -22.4622  -18.1219 C   0  0  2  0  0  0  0  0  0  0  0  0
   22.4996  -21.4150  -18.7583 N   0  0  0  0  0  0  0  0  0  0  0  0
   22.2951  -23.7674  -18.5086 C   0  0  0  0  0  0  0  0  0  0  0  0
   23.3767  -23.9085  -19.3724 O   0  0  0  0  0  0  0  0  0  0  0  0
   18.6357  -21.1377  -17.1269 C   0  0  0  0  0  0  0  0  0  0  0  0
   17.7916  -21.0403  -16.0385 C   0  0  0  0  0  0  0  0  0  0  0  0
   21.7948  -24.8206  -18.0549 O   0  0  0  0  0  0  0  0  0  0  0  0
  2  1  1  6
  3  2  1  0
  4  3  1  0
  5  4  1  0
  5  6  2  0
  7  2  1  0
  7  8  2  0
  9  5  1  0
 10  7  1  0
 11 10  1  0
 11 12  1  1
 12 13  1  0
 13 14  2  0
 15 11  1  0
 16 15  2  0
 17 13  1  0
 18 19  1  0
 19 20  2  0
 19 29  1  0
 20 21  1  0
 21 22  2  0
 22 23  1  0
 24 23  1  6
 24 25  1  0
 25 15  1  0
 26 27  1  0
 26 24  1  0
 28 22  1  0
 29 28  2  0
 30 26  2  0
M  END
$$$$
