EDY.pdb
     RDKit          3D

 30 30  0  0  1  0  0  0  0  0999 V2000
   23.1363  -40.8396   -7.6562 N   0  0  0  0  0  0  0  0  0  0  0  0
   23.4927  -40.1986   -6.3981 C   0  0  1  0  0  0  0  0  0  0  0  0
   24.7207  -40.9077   -5.8704 C   0  0  0  0  0  0  0  0  0  0  0  0
   24.4289  -41.7747   -4.6934 C   0  0  0  0  0  0  0  0  0  0  0  0
   23.8569  -43.0567   -5.1579 C   0  0  0  0  0  0  0  0  0  0  0  0
   22.6300  -43.1184   -5.4044 O   0  0  0  0  0  0  0  0  0  0  0  0
   23.6897  -38.7543   -6.5418 C   0  0  0  0  0  0  0  0  0  0  0  0
   24.5247  -38.3227   -7.3747 O   0  0  0  0  0  0  0  0  0  0  0  0
   24.5966  -44.2140   -5.3425 O   0  0  0  0  0  0  0  0  0  0  0  0
   22.9732  -37.8296   -5.7761 N   0  0  0  0  0  0  0  0  0  0  0  0
   23.0883  -36.4040   -5.8348 C   0  0  1  0  0  0  0  0  0  0  0  0
   21.9388  -35.7087   -5.1385 C   0  0  0  0  0  0  0  0  0  0  0  0
   20.6375  -35.9373   -5.7674 C   0  0  0  0  0  0  0  0  0  0  0  0
   20.5117  -35.7920   -7.0049 O   0  0  0  0  0  0  0  0  0  0  0  0
   24.3465  -35.9027   -5.2388 C   0  0  0  0  0  0  0  0  0  0  0  0
   24.4427  -35.9093   -3.9863 O   0  0  0  0  0  0  0  0  0  0  0  0
   19.5354  -36.3124   -5.0240 O   0  0  0  0  0  0  0  0  0  0  0  0
   24.4929  -31.9173  -10.9739 O   0  0  0  0  0  0  0  0  0  0  0  0
   24.8714  -32.1994   -9.6498 C   0  0  0  0  0  0  0  0  0  0  0  0
   26.1483  -32.6762   -9.3860 C   0  0  0  0  0  0  0  0  0  0  0  0
   26.4988  -32.9477   -8.0649 C   0  0  0  0  0  0  0  0  0  0  0  0
   25.6232  -32.7589   -7.0206 C   0  0  0  0  0  0  0  0  0  0  0  0
   26.0598  -33.0652   -5.6386 C   0  0  0  0  0  0  0  0  0  0  0  0
   26.4420  -34.5147   -5.4422 C   0  0  2  0  0  0  0  0  0  0  0  0
   25.4506  -35.4156   -5.9811 N   0  0  0  0  0  0  0  0  0  0  0  0
   26.5947  -34.7746   -4.0016 C   0  0  0  0  0  0  0  0  0  0  0  0
   25.9934  -35.8480   -3.3519 O   0  0  0  0  0  0  0  0  0  0  0  0
   24.3637  -32.2857   -7.3064 C   0  0  0  0  0  0  0  0  0  0  0  0
   23.9880  -32.0077   -8.6058 C   0  0  0  0  0  0  0  0  0  0  0  0
   27.2933  -34.0102   -3.2995 O   0  0  0  0  0  0  0  0  0  0  0  0
  2  1  1  6
  3  2  1  0
  4  3  1  0
  5  4  1  0
  5  6  2  0
  7  2  1  0
  7  8  2  0
  9  5  1  0
 10  7  1  0
 11 10  1  0
 11 12  1  1
 12 13  1  0
 13 14  2  0
 15 11  1  0
 16 15  2  0
 17 13  1  0
 18 19  1  0
 19 20  2  0
 19 29  1  0
 20 21  1  0
 21 22  2  0
 22 23  1  0
 24 23  1  1
 24 25  1  0
 25 15  1  0
 26 27  1  0
 26 24  1  0
 28 22  1  0
 29 28  2  0
 30 26  2  0
M  END
$$$$
