EDY.pdb
     RDKit          3D

 30 30  0  0  1  0  0  0  0  0999 V2000
   16.2331  -11.2128  -15.4788 N   0  0  0  0  0  0  0  0  0  0  0  0
   17.6401  -10.8897  -15.2870 C   0  0  1  0  0  0  0  0  0  0  0  0
   18.4150  -11.6253  -16.3583 C   0  0  0  0  0  0  0  0  0  0  0  0
   19.6534  -12.2714  -15.8381 C   0  0  0  0  0  0  0  0  0  0  0  0
   19.7609  -13.6401  -16.3871 C   0  0  0  0  0  0  0  0  0  0  0  0
   20.6433  -13.8817  -17.2432 O   0  0  0  0  0  0  0  0  0  0  0  0
   17.8893   -9.4463  -15.2970 C   0  0  0  0  0  0  0  0  0  0  0  0
   18.5413   -8.9365  -16.2415 O   0  0  0  0  0  0  0  0  0  0  0  0
   18.9392  -14.6919  -16.0136 O   0  0  0  0  0  0  0  0  0  0  0  0
   17.4218   -8.6074  -14.2809 N   0  0  0  0  0  0  0  0  0  0  0  0
   17.5835   -7.1871  -14.2071 C   0  0  1  0  0  0  0  0  0  0  0  0
   16.3769   -6.5052  -13.5999 C   0  0  0  0  0  0  0  0  0  0  0  0
   15.2072   -6.4739  -14.4786 C   0  0  0  0  0  0  0  0  0  0  0  0
   15.3337   -6.7596  -15.6913 O   0  0  0  0  0  0  0  0  0  0  0  0
   18.7720   -6.7825  -13.4239 C   0  0  0  0  0  0  0  0  0  0  0  0
   18.9019   -7.2618  -12.2700 O   0  0  0  0  0  0  0  0  0  0  0  0
   13.9569   -6.1343  -13.9998 O   0  0  0  0  0  0  0  0  0  0  0  0
   23.0398   -6.6802  -19.2382 O   0  0  0  0  0  0  0  0  0  0  0  0
   22.7941   -6.7002  -17.8543 C   0  0  0  0  0  0  0  0  0  0  0  0
   23.3528   -5.7225  -17.0422 C   0  0  0  0  0  0  0  0  0  0  0  0
   23.0936   -5.7645  -15.6737 C   0  0  0  0  0  0  0  0  0  0  0  0
   22.3057   -6.7395  -15.1064 C   0  0  0  0  0  0  0  0  0  0  0  0
   22.0680   -6.7256  -13.6443 C   0  0  0  0  0  0  0  0  0  0  0  0
   21.0409   -5.7016  -13.2176 C   0  0  2  0  0  0  0  0  0  0  0  0
   19.7742   -5.8928  -13.8836 N   0  0  0  0  0  0  0  0  0  0  0  0
   21.5512   -4.3575  -13.5323 C   0  0  0  0  0  0  0  0  0  0  0  0
   22.7082   -3.8291  -12.9682 O   0  0  0  0  0  0  0  0  0  0  0  0
   21.7631   -7.6974  -15.9310 C   0  0  0  0  0  0  0  0  0  0  0  0
   22.0023   -7.6814  -17.2908 C   0  0  0  0  0  0  0  0  0  0  0  0
   20.9362   -3.6298  -14.3431 O   0  0  0  0  0  0  0  0  0  0  0  0
  2  1  1  6
  3  2  1  0
  4  3  1  0
  5  4  1  0
  5  6  2  0
  7  2  1  0
  7  8  2  0
  9  5  1  0
 10  7  1  0
 11 10  1  0
 11 12  1  1
 12 13  1  0
 13 14  2  0
 15 11  1  0
 16 15  2  0
 17 13  1  0
 18 19  1  0
 19 20  2  0
 19 29  1  0
 20 21  1  0
 21 22  2  0
 22 23  1  0
 24 23  1  6
 24 25  1  0
 25 15  1  0
 26 27  1  0
 26 24  1  0
 28 22  1  0
 29 28  2  0
 30 26  2  0
M  END
$$$$
