EDY.pdb
     RDKit          3D

 30 30  0  0  1  0  0  0  0  0999 V2000
   27.7951  -23.8197  -22.7540 N   0  0  0  0  0  0  0  0  0  0  0  0
   27.5485  -25.2516  -22.6564 C   0  0  1  0  0  0  0  0  0  0  0  0
   28.8905  -25.9210  -22.4559 C   0  0  0  0  0  0  0  0  0  0  0  0
   29.7685  -25.8315  -23.6572 C   0  0  0  0  0  0  0  0  0  0  0  0
   31.0295  -26.5592  -23.3989 C   0  0  0  0  0  0  0  0  0  0  0  0
   31.7389  -26.9058  -24.3718 O   0  0  0  0  0  0  0  0  0  0  0  0
   26.5863  -25.5833  -21.6029 C   0  0  0  0  0  0  0  0  0  0  0  0
   26.4664  -24.8222  -20.6112 O   0  0  0  0  0  0  0  0  0  0  0  0
   31.4886  -26.8898  -22.1337 O   0  0  0  0  0  0  0  0  0  0  0  0
   25.7884  -26.7297  -21.6634 N   0  0  0  0  0  0  0  0  0  0  0  0
   24.8350  -27.1566  -20.6846 C   0  0  1  0  0  0  0  0  0  0  0  0
   23.4765  -27.4309  -21.2918 C   0  0  0  0  0  0  0  0  0  0  0  0
   22.4660  -27.8528  -20.3212 C   0  0  0  0  0  0  0  0  0  0  0  0
   21.8135  -28.9030  -20.5208 O   0  0  0  0  0  0  0  0  0  0  0  0
   25.2596  -28.3746  -19.9597 C   0  0  0  0  0  0  0  0  0  0  0  0
   25.7357  -29.3204  -20.6356 O   0  0  0  0  0  0  0  0  0  0  0  0
   22.2119  -27.1158  -19.1810 O   0  0  0  0  0  0  0  0  0  0  0  0
   27.5797  -34.0796  -13.5522 O   0  0  0  0  0  0  0  0  0  0  0  0
   27.1313  -32.9465  -14.2529 C   0  0  0  0  0  0  0  0  0  0  0  0
   25.7690  -32.7223  -14.3986 C   0  0  0  0  0  0  0  0  0  0  0  0
   25.3505  -31.5915  -15.0972 C   0  0  0  0  0  0  0  0  0  0  0  0
   26.2409  -30.6962  -15.6436 C   0  0  0  0  0  0  0  0  0  0  0  0
   25.7297  -29.5124  -16.3730 C   0  0  0  0  0  0  0  0  0  0  0  0
   25.6295  -29.7301  -17.8657 C   0  0  2  0  0  0  0  0  0  0  0  0
   25.1672  -28.5496  -18.5568 N   0  0  0  0  0  0  0  0  0  0  0  0
   24.6922  -30.8352  -18.1226 C   0  0  0  0  0  0  0  0  0  0  0  0
   25.1031  -32.1349  -18.4020 O   0  0  0  0  0  0  0  0  0  0  0  0
   27.5855  -30.9393  -15.4863 C   0  0  0  0  0  0  0  0  0  0  0  0
   28.0301  -32.0514  -14.7990 C   0  0  0  0  0  0  0  0  0  0  0  0
   23.4588  -30.6274  -18.0959 O   0  0  0  0  0  0  0  0  0  0  0  0
  2  1  1  1
  3  2  1  0
  4  3  1  0
  5  4  1  0
  5  6  2  0
  7  2  1  0
  7  8  2  0
  9  5  1  0
 10  7  1  0
 11 10  1  0
 11 12  1  6
 12 13  1  0
 13 14  2  0
 15 11  1  0
 16 15  2  0
 17 13  1  0
 18 19  1  0
 19 20  2  0
 19 29  1  0
 20 21  1  0
 21 22  2  0
 22 23  1  0
 24 23  1  1
 24 25  1  0
 25 15  1  0
 26 27  1  0
 26 24  1  0
 28 22  1  0
 29 28  2  0
 30 26  2  0
M  END
$$$$
