EDY.pdb
     RDKit          3D

 30 30  0  0  1  0  0  0  0  0999 V2000
   24.5089  -22.4853  -15.4069 N   0  0  0  0  0  0  0  0  0  0  0  0
   24.0880  -21.4100  -14.5195 C   0  0  1  0  0  0  0  0  0  0  0  0
   25.0057  -20.2353  -14.7785 C   0  0  0  0  0  0  0  0  0  0  0  0
   26.4491  -20.5943  -14.6803 C   0  0  0  0  0  0  0  0  0  0  0  0
   26.9810  -20.8643  -16.0332 C   0  0  0  0  0  0  0  0  0  0  0  0
   27.8931  -21.7128  -16.1672 O   0  0  0  0  0  0  0  0  0  0  0  0
   22.6726  -21.0708  -14.6835 C   0  0  0  0  0  0  0  0  0  0  0  0
   22.1286  -21.2076  -15.8072 O   0  0  0  0  0  0  0  0  0  0  0  0
   26.5327  -20.2331  -17.1827 O   0  0  0  0  0  0  0  0  0  0  0  0
   21.8976  -20.5947  -13.6216 N   0  0  0  0  0  0  0  0  0  0  0  0
   20.5337  -20.1653  -13.6880 C   0  0  1  0  0  0  0  0  0  0  0  0
   19.7195  -20.6649  -12.5145 C   0  0  0  0  0  0  0  0  0  0  0  0
   19.0993  -21.9717  -12.7349 C   0  0  0  0  0  0  0  0  0  0  0  0
   18.2483  -22.1100  -13.6433 O   0  0  0  0  0  0  0  0  0  0  0  0
   20.3951  -18.6930  -13.7392 C   0  0  0  0  0  0  0  0  0  0  0  0
   20.9953  -18.0191  -12.8652 O   0  0  0  0  0  0  0  0  0  0  0  0
   19.4317  -23.0655  -11.9597 O   0  0  0  0  0  0  0  0  0  0  0  0
   22.8840  -17.7319  -20.1793 O   0  0  0  0  0  0  0  0  0  0  0  0
   22.4100  -17.3000  -18.9283 C   0  0  0  0  0  0  0  0  0  0  0  0
   21.4365  -16.3123  -18.8652 C   0  0  0  0  0  0  0  0  0  0  0  0
   20.9832  -15.9021  -17.6129 C   0  0  0  0  0  0  0  0  0  0  0  0
   21.4683  -16.4429  -16.4445 C   0  0  0  0  0  0  0  0  0  0  0  0
   20.9421  -15.9633  -15.1455 C   0  0  0  0  0  0  0  0  0  0  0  0
   19.5927  -16.5490  -14.7966 C   0  0  2  0  0  0  0  0  0  0  0  0
   19.6333  -17.9894  -14.7045 N   0  0  0  0  0  0  0  0  0  0  0  0
   18.6239  -16.1611  -15.8344 C   0  0  0  0  0  0  0  0  0  0  0  0
   18.2159  -14.8476  -16.0446 O   0  0  0  0  0  0  0  0  0  0  0  0
   22.4323  -17.4200  -16.5322 C   0  0  0  0  0  0  0  0  0  0  0  0
   22.9008  -17.8468  -17.7590 C   0  0  0  0  0  0  0  0  0  0  0  0
   18.1247  -17.0327  -16.5802 O   0  0  0  0  0  0  0  0  0  0  0  0
  2  1  1  6
  3  2  1  0
  4  3  1  0
  5  4  1  0
  5  6  2  0
  7  2  1  0
  7  8  2  0
  9  5  1  0
 10  7  1  0
 11 10  1  0
 11 12  1  1
 12 13  1  0
 13 14  2  0
 15 11  1  0
 16 15  2  0
 17 13  1  0
 18 19  1  0
 19 20  2  0
 19 29  1  0
 20 21  1  0
 21 22  2  0
 22 23  1  0
 24 23  1  6
 24 25  1  0
 25 15  1  0
 26 27  1  0
 26 24  1  0
 28 22  1  0
 29 28  2  0
 30 26  2  0
M  END
$$$$
