EDY.pdb
     RDKit          3D

 30 30  0  0  1  0  0  0  0  0999 V2000
   18.7908  -11.4791  -18.1931 N   0  0  0  0  0  0  0  0  0  0  0  0
   18.2495  -11.6569  -16.8529 C   0  0  1  0  0  0  0  0  0  0  0  0
   18.6605  -13.0365  -16.3871 C   0  0  0  0  0  0  0  0  0  0  0  0
   17.6704  -14.0900  -16.7500 C   0  0  0  0  0  0  0  0  0  0  0  0
   17.4523  -14.9796  -15.5891 C   0  0  0  0  0  0  0  0  0  0  0  0
   17.3550  -16.2138  -15.7818 O   0  0  0  0  0  0  0  0  0  0  0  0
   18.6729  -10.5983  -15.9333 C   0  0  0  0  0  0  0  0  0  0  0  0
   18.4218  -10.7053  -14.7075 O   0  0  0  0  0  0  0  0  0  0  0  0
   17.3465  -14.5348  -14.2808 O   0  0  0  0  0  0  0  0  0  0  0  0
   19.3538   -9.4608  -16.3772 N   0  0  0  0  0  0  0  0  0  0  0  0
   19.9054   -8.4244  -15.5582 C   0  0  1  0  0  0  0  0  0  0  0  0
   20.9171   -8.9569  -14.5669 C   0  0  0  0  0  0  0  0  0  0  0  0
   21.4736   -7.9356  -13.6791 C   0  0  0  0  0  0  0  0  0  0  0  0
   20.7043   -7.1764  -13.0467 O   0  0  0  0  0  0  0  0  0  0  0  0
   20.5627   -7.3571  -16.3445 C   0  0  0  0  0  0  0  0  0  0  0  0
   20.6687   -7.5264  -17.5847 O   0  0  0  0  0  0  0  0  0  0  0  0
   22.8376   -7.7870  -13.5198 O   0  0  0  0  0  0  0  0  0  0  0  0
   19.1623    0.2876  -19.7988 O   0  0  0  0  0  0  0  0  0  0  0  0
   19.2569   -0.8910  -19.0386 C   0  0  0  0  0  0  0  0  0  0  0  0
   19.6885   -2.0651  -19.6406 C   0  0  0  0  0  0  0  0  0  0  0  0
   19.7739   -3.2197  -18.8650 C   0  0  0  0  0  0  0  0  0  0  0  0
   19.4453   -3.2312  -17.5290 C   0  0  0  0  0  0  0  0  0  0  0  0
   19.5604   -4.4925  -16.7607 C   0  0  0  0  0  0  0  0  0  0  0  0
   20.9906   -4.8744  -16.4534 C   0  0  2  0  0  0  0  0  0  0  0  0
   21.0811   -6.1574  -15.7973 N   0  0  0  0  0  0  0  0  0  0  0  0
   21.5797   -3.8460  -15.5809 C   0  0  0  0  0  0  0  0  0  0  0  0
   22.4474   -2.8605  -16.0412 O   0  0  0  0  0  0  0  0  0  0  0  0
   19.0203   -2.0559  -16.9545 C   0  0  0  0  0  0  0  0  0  0  0  0
   18.9257   -0.8961  -17.6979 C   0  0  0  0  0  0  0  0  0  0  0  0
   21.3063   -3.8310  -14.3601 O   0  0  0  0  0  0  0  0  0  0  0  0
  2  1  1  6
  3  2  1  0
  4  3  1  0
  5  4  1  0
  5  6  2  0
  7  2  1  0
  7  8  2  0
  9  5  1  0
 10  7  1  0
 11 10  1  0
 11 12  1  1
 12 13  1  0
 13 14  2  0
 15 11  1  0
 16 15  2  0
 17 13  1  0
 18 19  1  0
 19 20  2  0
 19 29  1  0
 20 21  1  0
 21 22  2  0
 22 23  1  0
 24 23  1  1
 24 25  1  0
 25 15  1  0
 26 27  1  0
 26 24  1  0
 28 22  1  0
 29 28  2  0
 30 26  2  0
M  END
$$$$
