EDY.pdb
     RDKit          3D

 30 30  0  0  1  0  0  0  0  0999 V2000
   28.5783  -21.6195  -16.7995 N   0  0  0  0  0  0  0  0  0  0  0  0
   27.7311  -20.6746  -16.0851 C   0  0  1  0  0  0  0  0  0  0  0  0
   27.8961  -19.3309  -16.7608 C   0  0  0  0  0  0  0  0  0  0  0  0
   27.3302  -19.3017  -18.1395 C   0  0  0  0  0  0  0  0  0  0  0  0
   27.5053  -17.9503  -18.7136 C   0  0  0  0  0  0  0  0  0  0  0  0
   28.6557  -17.4559  -18.7586 O   0  0  0  0  0  0  0  0  0  0  0  0
   26.3342  -21.1108  -16.0238 C   0  0  0  0  0  0  0  0  0  0  0  0
   25.4769  -20.5482  -16.7488 O   0  0  0  0  0  0  0  0  0  0  0  0
   26.4674  -17.1800  -19.2137 O   0  0  0  0  0  0  0  0  0  0  0  0
   25.9173  -22.1424  -15.1772 N   0  0  0  0  0  0  0  0  0  0  0  0
   24.6019  -22.7016  -15.0995 C   0  0  1  0  0  0  0  0  0  0  0  0
   24.6277  -24.1823  -14.7893 C   0  0  0  0  0  0  0  0  0  0  0  0
   25.2000  -25.0033  -15.8568 C   0  0  0  0  0  0  0  0  0  0  0  0
   24.7848  -24.8726  -17.0311 O   0  0  0  0  0  0  0  0  0  0  0  0
   23.7547  -22.0419  -14.0814 C   0  0  0  0  0  0  0  0  0  0  0  0
   24.1985  -21.9725  -12.9082 O   0  0  0  0  0  0  0  0  0  0  0  0
   26.1948  -25.9263  -15.5995 O   0  0  0  0  0  0  0  0  0  0  0  0
   21.5720  -16.7551  -18.3142 O   0  0  0  0  0  0  0  0  0  0  0  0
   21.6852  -17.3928  -17.0666 C   0  0  0  0  0  0  0  0  0  0  0  0
   20.5539  -17.5781  -16.2835 C   0  0  0  0  0  0  0  0  0  0  0  0
   20.6930  -18.2134  -15.0510 C   0  0  0  0  0  0  0  0  0  0  0  0
   21.9100  -18.6597  -14.5896 C   0  0  0  0  0  0  0  0  0  0  0  0
   21.9886  -19.3294  -13.2706 C   0  0  0  0  0  0  0  0  0  0  0  0
   21.6854  -20.8091  -13.3348 C   0  0  2  0  0  0  0  0  0  0  0  0
   22.4780  -21.4828  -14.3362 N   0  0  0  0  0  0  0  0  0  0  0  0
   20.2592  -20.9884  -13.6503 C   0  0  0  0  0  0  0  0  0  0  0  0
   19.8025  -21.4609  -14.8768 O   0  0  0  0  0  0  0  0  0  0  0  0
   23.0165  -18.4650  -15.3830 C   0  0  0  0  0  0  0  0  0  0  0  0
   22.9095  -17.8387  -16.6089 C   0  0  0  0  0  0  0  0  0  0  0  0
   19.3901  -20.7107  -12.7942 O   0  0  0  0  0  0  0  0  0  0  0  0
  2  1  1  6
  3  2  1  0
  4  3  1  0
  5  4  1  0
  5  6  2  0
  7  2  1  0
  7  8  2  0
  9  5  1  0
 10  7  1  0
 11 10  1  0
 11 12  1  1
 12 13  1  0
 13 14  2  0
 15 11  1  0
 16 15  2  0
 17 13  1  0
 18 19  1  0
 19 20  2  0
 19 29  1  0
 20 21  1  0
 21 22  2  0
 22 23  1  0
 24 23  1  6
 24 25  1  0
 25 15  1  0
 26 27  1  0
 26 24  1  0
 28 22  1  0
 29 28  2  0
 30 26  2  0
M  END
$$$$
