EDY.pdb
     RDKit          3D

 30 30  0  0  1  0  0  0  0  0999 V2000
   16.0676  -11.2485  -15.9419 N   0  0  0  0  0  0  0  0  0  0  0  0
   17.4615  -11.6156  -15.7343 C   0  0  1  0  0  0  0  0  0  0  0  0
   17.7220  -12.8562  -16.5602 C   0  0  0  0  0  0  0  0  0  0  0  0
   16.7103  -13.9272  -16.3331 C   0  0  0  0  0  0  0  0  0  0  0  0
   16.9580  -14.5667  -15.0231 C   0  0  0  0  0  0  0  0  0  0  0  0
   18.1101  -14.9835  -14.7609 O   0  0  0  0  0  0  0  0  0  0  0  0
   18.3816  -10.5205  -16.0501 C   0  0  0  0  0  0  0  0  0  0  0  0
   19.6170  -10.7422  -16.0938 O   0  0  0  0  0  0  0  0  0  0  0  0
   15.9875  -14.7395  -14.0490 O   0  0  0  0  0  0  0  0  0  0  0  0
   17.9279   -9.2233  -16.3071 N   0  0  0  0  0  0  0  0  0  0  0  0
   18.7271   -8.1049  -16.7065 C   0  0  1  0  0  0  0  0  0  0  0  0
   17.9658   -7.1474  -17.5971 C   0  0  0  0  0  0  0  0  0  0  0  0
   18.7517   -5.9955  -18.0403 C   0  0  0  0  0  0  0  0  0  0  0  0
   19.8038   -6.1765  -18.6951 O   0  0  0  0  0  0  0  0  0  0  0  0
   19.2521   -7.3328  -15.5586 C   0  0  0  0  0  0  0  0  0  0  0  0
   18.4785   -7.1267  -14.5905 O   0  0  0  0  0  0  0  0  0  0  0  0
   18.3589   -4.7030  -17.7523 O   0  0  0  0  0  0  0  0  0  0  0  0
   26.1187   -7.1273  -18.1903 O   0  0  0  0  0  0  0  0  0  0  0  0
   25.2084   -7.0147  -17.1251 C   0  0  0  0  0  0  0  0  0  0  0  0
   24.4849   -8.1274  -16.7178 C   0  0  0  0  0  0  0  0  0  0  0  0
   23.5893   -7.9894  -15.6592 C   0  0  0  0  0  0  0  0  0  0  0  0
   23.4014   -6.7913  -15.0094 C   0  0  0  0  0  0  0  0  0  0  0  0
   22.4349   -6.7129  -13.8895 C   0  0  0  0  0  0  0  0  0  0  0  0
   21.0917   -6.1534  -14.3001 C   0  0  2  0  0  0  0  0  0  0  0  0
   20.5660   -6.8094  -15.4740 N   0  0  0  0  0  0  0  0  0  0  0  0
   21.2412   -4.7162  -14.5793 C   0  0  0  0  0  0  0  0  0  0  0  0
   21.6049   -3.7847  -13.6118 O   0  0  0  0  0  0  0  0  0  0  0  0
   24.1294   -5.7029  -15.4305 C   0  0  0  0  0  0  0  0  0  0  0  0
   25.0243   -5.8093  -16.4768 C   0  0  0  0  0  0  0  0  0  0  0  0
   21.0377   -4.2795  -15.7339 O   0  0  0  0  0  0  0  0  0  0  0  0
  2  1  1  6
  3  2  1  0
  4  3  1  0
  5  4  1  0
  5  6  2  0
  7  2  1  0
  7  8  2  0
  9  5  1  0
 10  7  1  0
 11 10  1  0
 11 12  1  6
 12 13  1  0
 13 14  2  0
 15 11  1  0
 16 15  2  0
 17 13  1  0
 18 19  1  0
 19 20  2  0
 19 29  1  0
 20 21  1  0
 21 22  2  0
 22 23  1  0
 24 23  1  6
 24 25  1  0
 25 15  1  0
 26 27  1  0
 26 24  1  0
 28 22  1  0
 29 28  2  0
 30 26  2  0
M  END
$$$$
