EDY.pdb
     RDKit          3D

 30 30  0  0  1  0  0  0  0  0999 V2000
   17.1566  -12.6894  -15.7912 N   0  0  0  0  0  0  0  0  0  0  0  0
   18.5166  -12.2586  -16.0839 C   0  0  1  0  0  0  0  0  0  0  0  0
   19.0856  -13.2357  -17.0892 C   0  0  0  0  0  0  0  0  0  0  0  0
   19.1093  -14.6383  -16.5853 C   0  0  0  0  0  0  0  0  0  0  0  0
   19.4941  -15.5487  -17.6852 C   0  0  0  0  0  0  0  0  0  0  0  0
   20.6919  -15.9015  -17.7883 O   0  0  0  0  0  0  0  0  0  0  0  0
   18.5765  -10.8700  -16.5462 C   0  0  0  0  0  0  0  0  0  0  0  0
   18.2655  -10.5976  -17.7321 O   0  0  0  0  0  0  0  0  0  0  0  0
   18.6063  -16.0470  -18.6255 O   0  0  0  0  0  0  0  0  0  0  0  0
   18.9721   -9.8260  -15.7045 N   0  0  0  0  0  0  0  0  0  0  0  0
   18.9482   -8.4282  -16.0121 C   0  0  1  0  0  0  0  0  0  0  0  0
   17.5536   -7.9380  -16.3354 C   0  0  0  0  0  0  0  0  0  0  0  0
   17.4660   -6.4929  -16.5476 C   0  0  0  0  0  0  0  0  0  0  0  0
   16.7935   -5.7891  -15.7596 O   0  0  0  0  0  0  0  0  0  0  0  0
   19.4791   -7.5879  -14.9160 C   0  0  0  0  0  0  0  0  0  0  0  0
   19.0092   -7.7648  -13.7644 O   0  0  0  0  0  0  0  0  0  0  0  0
   18.1118   -5.8806  -17.6039 O   0  0  0  0  0  0  0  0  0  0  0  0
   25.7993   -6.9942  -18.2202 O   0  0  0  0  0  0  0  0  0  0  0  0
   24.9739   -6.8799  -17.0881 C   0  0  0  0  0  0  0  0  0  0  0  0
   24.8339   -5.6497  -16.4601 C   0  0  0  0  0  0  0  0  0  0  0  0
   24.0095   -5.5630  -15.3399 C   0  0  0  0  0  0  0  0  0  0  0  0
   23.3343   -6.6529  -14.8406 C   0  0  0  0  0  0  0  0  0  0  0  0
   22.4719   -6.4921  -13.6469 C   0  0  0  0  0  0  0  0  0  0  0  0
   21.1116   -5.9159  -13.9682 C   0  0  2  0  0  0  0  0  0  0  0  0
   20.4802   -6.5978  -15.0733 N   0  0  0  0  0  0  0  0  0  0  0  0
   21.2670   -4.4923  -14.3077 C   0  0  0  0  0  0  0  0  0  0  0  0
   20.9613   -3.9687  -15.5601 O   0  0  0  0  0  0  0  0  0  0  0  0
   23.4886   -7.8611  -15.4795 C   0  0  0  0  0  0  0  0  0  0  0  0
   24.2987   -7.9776  -16.5916 C   0  0  0  0  0  0  0  0  0  0  0  0
   21.6931   -3.6882  -13.4492 O   0  0  0  0  0  0  0  0  0  0  0  0
  2  1  1  6
  3  2  1  0
  4  3  1  0
  5  4  1  0
  5  6  2  0
  7  2  1  0
  7  8  2  0
  9  5  1  0
 10  7  1  0
 11 10  1  0
 11 12  1  1
 12 13  1  0
 13 14  2  0
 15 11  1  0
 16 15  2  0
 17 13  1  0
 18 19  1  0
 19 20  2  0
 19 29  1  0
 20 21  1  0
 21 22  2  0
 22 23  1  0
 24 23  1  6
 24 25  1  0
 25 15  1  0
 26 27  1  0
 26 24  1  0
 28 22  1  0
 29 28  2  0
 30 26  2  0
M  END
$$$$
