EDY.pdb
     RDKit          3D

 30 30  0  0  1  0  0  0  0  0999 V2000
   22.3979   -5.9035  -21.5853 N   0  0  0  0  0  0  0  0  0  0  0  0
   22.2050   -4.6613  -20.8501 C   0  0  1  0  0  0  0  0  0  0  0  0
   21.3981   -3.7399  -21.7384 C   0  0  0  0  0  0  0  0  0  0  0  0
   20.0588   -4.2947  -22.0853 C   0  0  0  0  0  0  0  0  0  0  0  0
   19.0095   -3.3365  -21.6761 C   0  0  0  0  0  0  0  0  0  0  0  0
   19.3492   -2.1910  -21.2990 O   0  0  0  0  0  0  0  0  0  0  0  0
   21.5824   -4.8763  -19.5418 C   0  0  0  0  0  0  0  0  0  0  0  0
   21.2283   -3.8870  -18.8539 O   0  0  0  0  0  0  0  0  0  0  0  0
   17.6535   -3.6229  -21.6812 O   0  0  0  0  0  0  0  0  0  0  0  0
   21.3664   -6.1579  -19.0264 N   0  0  0  0  0  0  0  0  0  0  0  0
   20.7829   -6.4793  -17.7594 C   0  0  1  0  0  0  0  0  0  0  0  0
   20.2833   -7.9066  -17.7058 C   0  0  0  0  0  0  0  0  0  0  0  0
   19.1768   -8.1836  -18.6223 C   0  0  0  0  0  0  0  0  0  0  0  0
   18.2093   -7.3909  -18.6854 O   0  0  0  0  0  0  0  0  0  0  0  0
   21.7178   -6.2857  -16.6289 C   0  0  0  0  0  0  0  0  0  0  0  0
   22.9274   -6.5685  -16.8164 O   0  0  0  0  0  0  0  0  0  0  0  0
   19.1728   -9.3069  -19.4261 O   0  0  0  0  0  0  0  0  0  0  0  0
   20.7550    0.6745  -15.2866 O   0  0  0  0  0  0  0  0  0  0  0  0
   21.3606   -0.5849  -15.1334 C   0  0  0  0  0  0  0  0  0  0  0  0
   22.7032   -0.7454  -15.4476 C   0  0  0  0  0  0  0  0  0  0  0  0
   23.2797   -2.0038  -15.2866 C   0  0  0  0  0  0  0  0  0  0  0  0
   22.5630   -3.0853  -14.8285 C   0  0  0  0  0  0  0  0  0  0  0  0
   23.2370   -4.3958  -14.6780 C   0  0  0  0  0  0  0  0  0  0  0  0
   22.2907   -5.5121  -14.2982 C   0  0  2  0  0  0  0  0  0  0  0  0
   21.3452   -5.8039  -15.3497 N   0  0  0  0  0  0  0  0  0  0  0  0
   21.5548   -5.1189  -13.0859 C   0  0  0  0  0  0  0  0  0  0  0  0
   22.1755   -4.8503  -11.8699 O   0  0  0  0  0  0  0  0  0  0  0  0
   21.2344   -2.9019  -14.5236 C   0  0  0  0  0  0  0  0  0  0  0  0
   20.6358   -1.6665  -14.6730 C   0  0  0  0  0  0  0  0  0  0  0  0
   20.3086   -5.0127  -13.1183 O   0  0  0  0  0  0  0  0  0  0  0  0
  2  1  1  6
  3  2  1  0
  4  3  1  0
  5  4  1  0
  5  6  2  0
  7  2  1  0
  7  8  2  0
  9  5  1  0
 10  7  1  0
 11 10  1  0
 11 12  1  6
 12 13  1  0
 13 14  2  0
 15 11  1  0
 16 15  2  0
 17 13  1  0
 18 19  1  0
 19 20  2  0
 19 29  1  0
 20 21  1  0
 21 22  2  0
 22 23  1  0
 24 23  1  6
 24 25  1  0
 25 15  1  0
 26 27  1  0
 26 24  1  0
 28 22  1  0
 29 28  2  0
 30 26  2  0
M  END
$$$$
