EDY.pdb
     RDKit          3D

 30 30  0  0  1  0  0  0  0  0999 V2000
   36.9286   -1.4902    2.7318 N   0  0  0  0  0  0  0  0  0  0  0  0
   35.7414   -0.9872    3.4089 C   0  0  1  0  0  0  0  0  0  0  0  0
   35.0270   -0.0758    2.4350 C   0  0  0  0  0  0  0  0  0  0  0  0
   35.0594   -0.5845    1.0342 C   0  0  0  0  0  0  0  0  0  0  0  0
   35.2962    0.5434    0.1078 C   0  0  0  0  0  0  0  0  0  0  0  0
   36.3959    1.1420    0.1510 O   0  0  0  0  0  0  0  0  0  0  0  0
   34.8847   -2.0641    3.9106 C   0  0  0  0  0  0  0  0  0  0  0  0
   34.8215   -3.1495    3.2820 O   0  0  0  0  0  0  0  0  0  0  0  0
   34.3699    0.9914   -0.8208 O   0  0  0  0  0  0  0  0  0  0  0  0
   34.1266   -1.9245    5.0770 N   0  0  0  0  0  0  0  0  0  0  0  0
   33.3370   -2.9392    5.7063 C   0  0  1  0  0  0  0  0  0  0  0  0
   33.9207   -3.3778    7.0316 C   0  0  0  0  0  0  0  0  0  0  0  0
   33.1837   -4.4661    7.6746 C   0  0  0  0  0  0  0  0  0  0  0  0
   33.1329   -5.5908    7.1260 O   0  0  0  0  0  0  0  0  0  0  0  0
   31.9398   -2.5156    5.9466 C   0  0  0  0  0  0  0  0  0  0  0  0
   31.7473   -1.3447    6.3592 O   0  0  0  0  0  0  0  0  0  0  0  0
   32.5373   -4.2824    8.8814 O   0  0  0  0  0  0  0  0  0  0  0  0
   23.0877   -2.0773    6.1731 O   0  0  0  0  0  0  0  0  0  0  0  0
   24.4100   -2.5000    5.9520 C   0  0  0  0  0  0  0  0  0  0  0  0
   25.2427   -1.7528    5.1301 C   0  0  0  0  0  0  0  0  0  0  0  0
   26.5492   -2.1931    4.9275 C   0  0  0  0  0  0  0  0  0  0  0  0
   27.0358   -3.3389    5.5136 C   0  0  0  0  0  0  0  0  0  0  0  0
   28.4358   -3.7504    5.2584 C   0  0  0  0  0  0  0  0  0  0  0  0
   29.4490   -2.9056    5.9969 C   0  0  2  0  0  0  0  0  0  0  0  0
   30.8034   -3.3372    5.7441 N   0  0  0  0  0  0  0  0  0  0  0  0
   29.1783   -2.9934    7.4409 C   0  0  0  0  0  0  0  0  0  0  0  0
   29.7812   -3.9301    8.2746 O   0  0  0  0  0  0  0  0  0  0  0  0
   26.1923   -4.0626    6.3238 C   0  0  0  0  0  0  0  0  0  0  0  0
   24.8926   -3.6509    6.5432 C   0  0  0  0  0  0  0  0  0  0  0  0
   28.3708   -2.2007    7.9745 O   0  0  0  0  0  0  0  0  0  0  0  0
  2  1  1  6
  3  2  1  0
  4  3  1  0
  5  4  1  0
  5  6  2  0
  7  2  1  0
  7  8  2  0
  9  5  1  0
 10  7  1  0
 11 10  1  0
 11 12  1  1
 12 13  1  0
 13 14  2  0
 15 11  1  0
 16 15  2  0
 17 13  1  0
 18 19  1  0
 19 20  2  0
 19 29  1  0
 20 21  1  0
 21 22  2  0
 22 23  1  0
 24 23  1  6
 24 25  1  0
 25 15  1  0
 26 27  1  0
 26 24  1  0
 28 22  1  0
 29 28  2  0
 30 26  2  0
M  END
$$$$
