EDY.pdb
     RDKit          3D

 30 30  0  0  1  0  0  0  0  0999 V2000
   21.5100  -14.2543  -16.4606 N   0  0  0  0  0  0  0  0  0  0  0  0
   20.6332  -13.2059  -16.9634 C   0  0  1  0  0  0  0  0  0  0  0  0
   19.2138  -13.6242  -16.6476 C   0  0  0  0  0  0  0  0  0  0  0  0
   18.1984  -12.6542  -17.1477 C   0  0  0  0  0  0  0  0  0  0  0  0
   16.8434  -13.1576  -16.8360 C   0  0  0  0  0  0  0  0  0  0  0  0
   15.9576  -12.3402  -16.4939 O   0  0  0  0  0  0  0  0  0  0  0  0
   20.9696  -11.8873  -16.4214 C   0  0  0  0  0  0  0  0  0  0  0  0
   20.7049  -11.6242  -15.2223 O   0  0  0  0  0  0  0  0  0  0  0  0
   16.4796  -14.4935  -16.8974 O   0  0  0  0  0  0  0  0  0  0  0  0
   21.5814  -10.9008  -17.2007 N   0  0  0  0  0  0  0  0  0  0  0  0
   21.9117   -9.5711  -16.7862 C   0  0  1  0  0  0  0  0  0  0  0  0
   23.3200   -9.1828  -17.1807 C   0  0  0  0  0  0  0  0  0  0  0  0
   23.7127   -7.8437  -16.7406 C   0  0  0  0  0  0  0  0  0  0  0  0
   22.8688   -7.0975  -16.1934 O   0  0  0  0  0  0  0  0  0  0  0  0
   20.9917   -8.5509  -17.3360 C   0  0  0  0  0  0  0  0  0  0  0  0
   20.7879   -8.5557  -18.5756 O   0  0  0  0  0  0  0  0  0  0  0  0
   25.0014   -7.3784  -16.9149 O   0  0  0  0  0  0  0  0  0  0  0  0
   15.0610   -2.2214  -18.7782 O   0  0  0  0  0  0  0  0  0  0  0  0
   15.8416   -3.2312  -18.1891 C   0  0  0  0  0  0  0  0  0  0  0  0
   16.3117   -4.2798  -18.9680 C   0  0  0  0  0  0  0  0  0  0  0  0
   17.0838   -5.2678  -18.3600 C   0  0  0  0  0  0  0  0  0  0  0  0
   17.3923   -5.2358  -17.0195 C   0  0  0  0  0  0  0  0  0  0  0  0
   18.2196   -6.3170  -16.4357 C   0  0  0  0  0  0  0  0  0  0  0  0
   19.5492   -6.4925  -17.1336 C   0  0  2  0  0  0  0  0  0  0  0  0
   20.3241   -7.5690  -16.5631 N   0  0  0  0  0  0  0  0  0  0  0  0
   20.3130   -5.2394  -17.0224 C   0  0  0  0  0  0  0  0  0  0  0  0
   20.3317   -4.2664  -18.0168 O   0  0  0  0  0  0  0  0  0  0  0  0
   16.9154   -4.1870  -16.2682 C   0  0  0  0  0  0  0  0  0  0  0  0
   16.1480   -3.1933  -16.8430 C   0  0  0  0  0  0  0  0  0  0  0  0
   20.9890   -5.0088  -15.9952 O   0  0  0  0  0  0  0  0  0  0  0  0
  2  1  1  1
  3  2  1  0
  4  3  1  0
  5  4  1  0
  5  6  2  0
  7  2  1  0
  7  8  2  0
  9  5  1  0
 10  7  1  0
 11 10  1  0
 11 12  1  6
 12 13  1  0
 13 14  2  0
 15 11  1  0
 16 15  2  0
 17 13  1  0
 18 19  1  0
 19 20  2  0
 19 29  1  0
 20 21  1  0
 21 22  2  0
 22 23  1  0
 24 23  1  1
 24 25  1  0
 25 15  1  0
 26 27  1  0
 26 24  1  0
 28 22  1  0
 29 28  2  0
 30 26  2  0
M  END
$$$$
