EDY.pdb
     RDKit          3D

 30 30  0  0  1  0  0  0  0  0999 V2000
   29.2466  -24.1482  -19.3572 N   0  0  0  0  0  0  0  0  0  0  0  0
   29.7575  -23.8515  -18.0262 C   0  0  1  0  0  0  0  0  0  0  0  0
   31.2503  -23.6437  -18.1594 C   0  0  0  0  0  0  0  0  0  0  0  0
   31.9222  -24.7351  -18.9206 C   0  0  0  0  0  0  0  0  0  0  0  0
   31.9990  -25.9468  -18.0767 C   0  0  0  0  0  0  0  0  0  0  0  0
   32.3955  -25.8366  -16.8933 O   0  0  0  0  0  0  0  0  0  0  0  0
   29.0790  -22.7101  -17.4079 C   0  0  0  0  0  0  0  0  0  0  0  0
   29.5657  -22.1842  -16.3765 O   0  0  0  0  0  0  0  0  0  0  0  0
   31.6567  -27.2174  -18.5117 O   0  0  0  0  0  0  0  0  0  0  0  0
   27.8958  -22.1800  -17.9312 N   0  0  0  0  0  0  0  0  0  0  0  0
   27.1630  -21.0625  -17.4181 C   0  0  1  0  0  0  0  0  0  0  0  0
   26.1572  -20.5317  -18.4163 C   0  0  0  0  0  0  0  0  0  0  0  0
   25.5013  -19.2927  -17.9974 C   0  0  0  0  0  0  0  0  0  0  0  0
   24.9452  -18.5650  -18.8515 O   0  0  0  0  0  0  0  0  0  0  0  0
   26.4361  -21.3752  -16.1679 C   0  0  0  0  0  0  0  0  0  0  0  0
   25.6708  -22.3715  -16.1708 O   0  0  0  0  0  0  0  0  0  0  0  0
   25.4799  -18.9026  -16.6726 O   0  0  0  0  0  0  0  0  0  0  0  0
   23.5723  -21.3078   -7.7419 O   0  0  0  0  0  0  0  0  0  0  0  0
   24.2293  -21.0013   -8.9463 C   0  0  0  0  0  0  0  0  0  0  0  0
   25.5729  -21.3167   -9.0965 C   0  0  0  0  0  0  0  0  0  0  0  0
   26.2008  -21.0028  -10.3003 C   0  0  0  0  0  0  0  0  0  0  0  0
   25.5337  -20.3935  -11.3380 C   0  0  0  0  0  0  0  0  0  0  0  0
   26.2599  -20.0887  -12.5926 C   0  0  0  0  0  0  0  0  0  0  0  0
   25.8611  -20.9835  -13.7441 C   0  0  2  0  0  0  0  0  0  0  0  0
   26.5420  -20.6304  -14.9674 N   0  0  0  0  0  0  0  0  0  0  0  0
   24.4087  -20.8701  -13.9527 C   0  0  0  0  0  0  0  0  0  0  0  0
   23.4900  -21.7763  -13.4325 O   0  0  0  0  0  0  0  0  0  0  0  0
   24.2031  -20.0907  -11.1659 C   0  0  0  0  0  0  0  0  0  0  0  0
   23.5542  -20.3898   -9.9843 C   0  0  0  0  0  0  0  0  0  0  0  0
   23.9464  -19.9230  -14.6271 O   0  0  0  0  0  0  0  0  0  0  0  0
  2  1  1  6
  3  2  1  0
  4  3  1  0
  5  4  1  0
  5  6  2  0
  7  2  1  0
  7  8  2  0
  9  5  1  0
 10  7  1  0
 11 10  1  0
 11 12  1  6
 12 13  1  0
 13 14  2  0
 15 11  1  0
 16 15  2  0
 17 13  1  0
 18 19  1  0
 19 20  2  0
 19 29  1  0
 20 21  1  0
 21 22  2  0
 22 23  1  0
 24 23  1  1
 24 25  1  0
 25 15  1  0
 26 27  1  0
 26 24  1  0
 28 22  1  0
 29 28  2  0
 30 26  2  0
M  END
$$$$
