TLH.pdb
     RDKit          3D

 26 26  0  0  1  0  0  0  0  0999 V2000
    8.2372  -17.9969   20.1609 C   0  0  0  0  0  0  0  0  0  0  0  0
    8.6039  -17.3724   21.4677 C   0  0  1  0  0  0  0  0  0  0  0  0
    9.7196  -17.9047   22.0635 O   0  0  0  0  0  0  0  0  0  0  0  0
    8.7110  -15.8664   21.3713 C   0  0  2  0  0  0  0  0  0  0  0  0
    9.7706  -15.5487   20.4341 N   0  0  0  0  0  0  0  0  0  0  0  0
    9.0544  -15.2563   22.6808 C   0  0  0  0  0  0  0  0  0  0  0  0
   10.2708  -15.1443   23.0465 O   0  0  0  0  0  0  0  0  0  0  0  0
    8.2682  -11.7764   26.8695 C   0  0  0  0  0  0  0  0  0  0  0  0
    7.2945  -12.8928   26.7344 C   0  0  1  0  0  0  0  0  0  0  0  0
    5.9017  -12.2757   26.9653 C   0  0  0  0  0  0  0  0  0  0  0  0
    7.2670  -13.4882   25.3854 C   0  0  0  0  0  0  0  0  0  0  0  0
    8.4441  -14.2685   24.9315 C   0  0  2  0  0  0  0  0  0  0  0  0
    8.0936  -14.7710   23.5882 N   0  0  0  0  0  0  0  0  0  0  0  0
    8.8462  -15.4220   25.7133 C   0  0  0  0  0  0  0  0  0  0  0  0
    8.1661  -16.4735   25.7824 O   0  0  0  0  0  0  0  0  0  0  0  0
   10.0662  -15.3971   26.4454 N   0  0  0  0  0  0  0  0  0  0  0  0
   10.4772  -16.5839   27.2607 C   0  0  1  0  0  0  0  0  0  0  0  0
   11.9261  -16.7734   26.9367 C   0  0  0  0  0  0  0  0  0  0  0  0
   12.2350  -17.5075   25.7146 C   0  0  0  0  0  0  0  0  0  0  0  0
   11.4701  -18.1054   24.7490 C   0  0  0  0  0  0  0  0  0  0  0  0
   12.2583  -18.6121   23.7795 N   0  0  0  0  0  0  0  0  0  0  0  0
   13.5038  -18.3352   24.1303 C   0  0  0  0  0  0  0  0  0  0  0  0
   13.5254  -17.6813   25.2715 N   0  0  0  0  0  0  0  0  0  0  0  0
   10.3193  -16.1108   28.6502 C   0  0  0  0  0  0  0  0  0  0  0  0
   10.3070  -16.9676   29.7133 O   0  0  0  0  0  0  0  0  0  0  0  0
   10.1910  -14.8921   28.8920 O   0  0  0  0  0  0  0  0  0  0  0  0
  2  1  1  6
  2  4  1  0
  3  2  1  0
  4  6  1  0
  4  5  1  6
  6  7  2  0
  9  8  1  6
 10  9  1  0
 11  9  1  0
 12 11  1  1
 12 14  1  0
 13 12  1  0
 13  6  1  0
 14 15  2  0
 16 17  1  0
 16 14  1  0
 17 24  1  0
 17 18  1  6
 19 18  1  0
 20 19  2  0
 21 22  1  0
 21 20  1  0
 22 23  2  0
 23 19  1  0
 24 26  2  0
 24 25  1  0
M  END
$$$$
