TLH.pdb
     RDKit          3D

 26 26  0  0  1  0  0  0  0  0999 V2000
    9.1990  -17.6282   20.4140 C   0  0  0  0  0  0  0  0  0  0  0  0
    7.8653  -16.9548   20.4062 C   0  0  1  0  0  0  0  0  0  0  0  0
    6.9523  -17.4829   21.2842 O   0  0  0  0  0  0  0  0  0  0  0  0
    7.9803  -15.4569   20.5843 C   0  0  2  0  0  0  0  0  0  0  0  0
    8.9587  -14.9637   19.6349 N   0  0  0  0  0  0  0  0  0  0  0  0
    8.4419  -15.1010   21.9500 C   0  0  0  0  0  0  0  0  0  0  0  0
    9.6809  -15.1418   22.2484 O   0  0  0  0  0  0  0  0  0  0  0  0
    8.2903  -12.1075   26.5129 C   0  0  0  0  0  0  0  0  0  0  0  0
    7.1970  -13.1040   26.3563 C   0  0  1  0  0  0  0  0  0  0  0  0
    5.8975  -12.3796   26.7573 C   0  0  0  0  0  0  0  0  0  0  0  0
    7.0088  -13.5557   24.9651 C   0  0  0  0  0  0  0  0  0  0  0  0
    8.0401  -14.4334   24.3598 C   0  0  2  0  0  0  0  0  0  0  0  0
    7.5741  -14.7044   22.9853 N   0  0  0  0  0  0  0  0  0  0  0  0
    8.2905  -15.7232   24.9741 C   0  0  0  0  0  0  0  0  0  0  0  0
    7.4296  -16.6334   25.0311 O   0  0  0  0  0  0  0  0  0  0  0  0
    9.5630  -16.0062   25.5448 N   0  0  0  0  0  0  0  0  0  0  0  0
    9.8157  -17.3298   26.1977 C   0  0  1  0  0  0  0  0  0  0  0  0
   11.1187  -17.7863   25.6198 C   0  0  0  0  0  0  0  0  0  0  0  0
   11.0679  -18.4240   24.3088 C   0  0  0  0  0  0  0  0  0  0  0  0
   10.0475  -18.8115   23.4821 C   0  0  0  0  0  0  0  0  0  0  0  0
   10.5450  -19.3150   22.3345 N   0  0  0  0  0  0  0  0  0  0  0  0
   11.8624  -19.2440   22.4375 C   0  0  0  0  0  0  0  0  0  0  0  0
   12.2054  -18.7208   23.5947 N   0  0  0  0  0  0  0  0  0  0  0  0
    9.9806  -16.9783   27.6220 C   0  0  0  0  0  0  0  0  0  0  0  0
   10.0811  -17.9274   28.5984 O   0  0  0  0  0  0  0  0  0  0  0  0
   10.0337  -15.7814   27.9755 O   0  0  0  0  0  0  0  0  0  0  0  0
  2  1  1  1
  2  4  1  0
  3  2  1  0
  4  6  1  0
  4  5  1  6
  6  7  2  0
  9  8  1  6
 10  9  1  0
 11  9  1  0
 12 11  1  1
 12 14  1  0
 13 12  1  0
 13  6  1  0
 14 15  2  0
 16 17  1  0
 16 14  1  0
 17 24  1  0
 17 18  1  6
 19 18  1  0
 20 19  2  0
 21 22  1  0
 21 20  1  0
 22 23  2  0
 23 19  1  0
 24 26  2  0
 24 25  1  0
M  END
$$$$
