TLH.pdb
     RDKit          3D

 26 26  0  0  1  0  0  0  0  0999 V2000
    8.6909  -20.7031   19.9249 C   0  0  0  0  0  0  0  0  0  0  0  0
    9.2179  -19.4325   20.5080 C   0  0  1  0  0  0  0  0  0  0  0  0
   10.4037  -19.5625   21.1863 O   0  0  0  0  0  0  0  0  0  0  0  0
    9.3029  -18.3246   19.4814 C   0  0  2  0  0  0  0  0  0  0  0  0
   10.2562  -18.7240   18.4647 N   0  0  0  0  0  0  0  0  0  0  0  0
    9.7767  -17.0532   20.0847 C   0  0  0  0  0  0  0  0  0  0  0  0
   10.9692  -16.6462   19.8899 O   0  0  0  0  0  0  0  0  0  0  0  0
    6.3727  -12.9743   20.1004 C   0  0  0  0  0  0  0  0  0  0  0  0
    7.6603  -13.7150   20.0221 C   0  0  1  0  0  0  0  0  0  0  0  0
    8.6581  -12.7664   19.3303 C   0  0  0  0  0  0  0  0  0  0  0  0
    8.2361  -14.0332   21.3421 C   0  0  0  0  0  0  0  0  0  0  0  0
    9.4246  -14.9187   21.4015 C   0  0  2  0  0  0  0  0  0  0  0  0
    8.9706  -16.2278   20.8916 N   0  0  0  0  0  0  0  0  0  0  0  0
   10.0325  -15.1661   22.6949 C   0  0  0  0  0  0  0  0  0  0  0  0
   10.6383  -14.2828   23.3473 O   0  0  0  0  0  0  0  0  0  0  0  0
    9.9534  -16.4589   23.2844 N   0  0  0  0  0  0  0  0  0  0  0  0
   10.4714  -16.6851   24.6710 C   0  0  1  0  0  0  0  0  0  0  0  0
    9.2737  -16.5010   25.5495 C   0  0  0  0  0  0  0  0  0  0  0  0
    9.0591  -15.1656   26.0957 C   0  0  0  0  0  0  0  0  0  0  0  0
    9.7744  -13.9986   26.0552 C   0  0  0  0  0  0  0  0  0  0  0  0
    9.0986  -13.0173   26.6861 N   0  0  0  0  0  0  0  0  0  0  0  0
    7.9712  -13.5598   27.1171 C   0  0  0  0  0  0  0  0  0  0  0  0
    7.9162  -14.8312   26.7839 N   0  0  0  0  0  0  0  0  0  0  0  0
   10.8813  -18.1032   24.6518 C   0  0  0  0  0  0  0  0  0  0  0  0
   11.7222  -18.6299   25.5897 O   0  0  0  0  0  0  0  0  0  0  0  0
   10.4607  -18.8705   23.7604 O   0  0  0  0  0  0  0  0  0  0  0  0
  2  1  1  6
  2  4  1  0
  3  2  1  0
  4  6  1  0
  4  5  1  6
  6  7  2  0
  9  8  1  1
 10  9  1  0
 11  9  1  0
 12 11  1  1
 12 14  1  0
 13 12  1  0
 13  6  1  0
 14 15  2  0
 16 17  1  0
 16 14  1  0
 17 24  1  0
 17 18  1  1
 19 18  1  0
 20 19  2  0
 21 22  1  0
 21 20  1  0
 22 23  2  0
 23 19  1  0
 24 26  2  0
 24 25  1  0
M  END
$$$$
