TLH.pdb
     RDKit          3D

 26 26  0  0  1  0  0  0  0  0999 V2000
    8.0103  -19.5992   22.5991 C   0  0  0  0  0  0  0  0  0  0  0  0
    8.4050  -19.8068   21.1732 C   0  0  1  0  0  0  0  0  0  0  0  0
    7.9626  -20.9831   20.6221 O   0  0  0  0  0  0  0  0  0  0  0  0
    8.0329  -18.6289   20.2999 C   0  0  2  0  0  0  0  0  0  0  0  0
    8.3633  -18.9623   18.9281 N   0  0  0  0  0  0  0  0  0  0  0  0
    8.7910  -17.4080   20.6738 C   0  0  0  0  0  0  0  0  0  0  0  0
   10.0269  -17.2955   20.3815 O   0  0  0  0  0  0  0  0  0  0  0  0
    6.8541  -12.6229   19.5817 C   0  0  0  0  0  0  0  0  0  0  0  0
    7.8103  -13.7331   19.8382 C   0  0  1  0  0  0  0  0  0  0  0  0
    9.1518  -13.2934   19.2208 C   0  0  0  0  0  0  0  0  0  0  0  0
    8.0689  -13.9663   21.2713 C   0  0  0  0  0  0  0  0  0  0  0  0
    8.9690  -15.0806   21.6565 C   0  0  2  0  0  0  0  0  0  0  0  0
    8.2203  -16.3176   21.3574 N   0  0  0  0  0  0  0  0  0  0  0  0
    9.3902  -15.1759   23.0411 C   0  0  0  0  0  0  0  0  0  0  0  0
   10.2288  -14.3990   23.5569 O   0  0  0  0  0  0  0  0  0  0  0  0
    8.8436  -16.1829   23.8850 N   0  0  0  0  0  0  0  0  0  0  0  0
    9.1266  -16.1656   25.3553 C   0  0  1  0  0  0  0  0  0  0  0  0
    7.7949  -15.9050   25.9868 C   0  0  0  0  0  0  0  0  0  0  0  0
    7.3795  -14.5106   26.0915 C   0  0  0  0  0  0  0  0  0  0  0  0
    8.0166  -13.3144   25.8958 C   0  0  0  0  0  0  0  0  0  0  0  0
    7.1538  -12.2939   26.0741 N   0  0  0  0  0  0  0  0  0  0  0  0
    5.9878  -12.8412   26.3771 C   0  0  0  0  0  0  0  0  0  0  0  0
    6.0867  -14.1528   26.3956 N   0  0  0  0  0  0  0  0  0  0  0  0
    9.5644  -17.5481   25.6317 C   0  0  0  0  0  0  0  0  0  0  0  0
    9.9995  -17.9403   26.8651 O   0  0  0  0  0  0  0  0  0  0  0  0
    9.5468  -18.4092   24.7271 O   0  0  0  0  0  0  0  0  0  0  0  0
  2  1  1  1
  2  4  1  0
  3  2  1  0
  4  6  1  0
  4  5  1  6
  6  7  2  0
  9  8  1  1
 10  9  1  0
 11  9  1  0
 12 11  1  1
 12 14  1  0
 13 12  1  0
 13  6  1  0
 14 15  2  0
 16 17  1  0
 16 14  1  0
 17 24  1  0
 17 18  1  1
 19 18  1  0
 20 19  2  0
 21 22  1  0
 21 20  1  0
 22 23  2  0
 23 19  1  0
 24 26  2  0
 24 25  1  0
M  END
$$$$
