TLH.pdb
     RDKit          3D

 26 26  0  0  1  0  0  0  0  0999 V2000
    7.8518  -17.4179   19.7190 C   0  0  0  0  0  0  0  0  0  0  0  0
    8.2576  -17.1861   21.1381 C   0  0  1  0  0  0  0  0  0  0  0  0
    9.2327  -18.0338   21.6004 O   0  0  0  0  0  0  0  0  0  0  0  0
    8.6305  -15.7431   21.3975 C   0  0  2  0  0  0  0  0  0  0  0  0
    9.8531  -15.4560   20.6730 N   0  0  0  0  0  0  0  0  0  0  0  0
    8.8785  -15.4917   22.8398 C   0  0  0  0  0  0  0  0  0  0  0  0
   10.0413  -15.6538   23.3371 O   0  0  0  0  0  0  0  0  0  0  0  0
    5.7202  -11.9812   25.9108 C   0  0  0  0  0  0  0  0  0  0  0  0
    6.9156  -12.6678   25.3518 C   0  0  1  0  0  0  0  0  0  0  0  0
    8.1383  -12.0070   26.0168 C   0  0  0  0  0  0  0  0  0  0  0  0
    6.9818  -14.1015   25.6914 C   0  0  0  0  0  0  0  0  0  0  0  0
    8.1260  -14.8974   25.1838 C   0  0  2  0  0  0  0  0  0  0  0  0
    7.8803  -15.0689   23.7381 N   0  0  0  0  0  0  0  0  0  0  0  0
    8.3343  -16.2252   25.7289 C   0  0  0  0  0  0  0  0  0  0  0  0
    7.6534  -17.2210   25.3859 O   0  0  0  0  0  0  0  0  0  0  0  0
    9.3535  -16.4468   26.6971 N   0  0  0  0  0  0  0  0  0  0  0  0
    9.7166  -17.8426   27.0993 C   0  0  1  0  0  0  0  0  0  0  0  0
   10.6449  -18.3100   26.0222 C   0  0  0  0  0  0  0  0  0  0  0  0
   11.2927  -19.6006   26.2282 C   0  0  0  0  0  0  0  0  0  0  0  0
   11.2501  -20.5336   27.2296 C   0  0  0  0  0  0  0  0  0  0  0  0
   12.0082  -21.5998   26.9037 N   0  0  0  0  0  0  0  0  0  0  0  0
   12.5206  -21.3414   25.7113 C   0  0  0  0  0  0  0  0  0  0  0  0
   12.1164  -20.1653   25.2825 N   0  0  0  0  0  0  0  0  0  0  0  0
   10.4532  -17.6494   28.3640 C   0  0  0  0  0  0  0  0  0  0  0  0
   10.6295  -16.4156   28.9217 O   0  0  0  0  0  0  0  0  0  0  0  0
   10.9420  -18.6283   28.9664 O   0  0  0  0  0  0  0  0  0  0  0  0
  2  1  1  6
  2  4  1  0
  3  2  1  0
  4  6  1  0
  4  5  1  6
  6  7  2  0
  9  8  1  1
 10  9  1  0
 11  9  1  0
 12 11  1  1
 12 14  1  0
 13 12  1  0
 13  6  1  0
 14 15  2  0
 16 17  1  0
 16 14  1  0
 17 24  1  0
 17 18  1  6
 19 18  1  0
 20 19  2  0
 21 22  1  0
 21 20  1  0
 22 23  2  0
 23 19  1  0
 24 26  2  0
 24 25  1  0
M  END
$$$$
