TLH.pdb
     RDKit          3D

 26 26  0  0  1  0  0  0  0  0999 V2000
    6.5140  -17.1609   19.1055 C   0  0  0  0  0  0  0  0  0  0  0  0
    7.1824  -16.7363   20.3724 C   0  0  1  0  0  0  0  0  0  0  0  0
    8.4001  -17.3258   20.6026 O   0  0  0  0  0  0  0  0  0  0  0  0
    7.2814  -15.2313   20.4897 C   0  0  2  0  0  0  0  0  0  0  0  0
    8.1212  -14.7491   19.4107 N   0  0  0  0  0  0  0  0  0  0  0  0
    7.9007  -14.8212   21.7755 C   0  0  0  0  0  0  0  0  0  0  0  0
    9.1673  -14.7243   21.8850 O   0  0  0  0  0  0  0  0  0  0  0  0
    8.1074  -12.1052   26.5603 C   0  0  0  0  0  0  0  0  0  0  0  0
    7.0774  -13.1707   26.4319 C   0  0  1  0  0  0  0  0  0  0  0  0
    5.7831  -12.5890   27.0323 C   0  0  0  0  0  0  0  0  0  0  0  0
    6.7661  -13.5212   25.0336 C   0  0  0  0  0  0  0  0  0  0  0  0
    7.7926  -14.2373   24.2375 C   0  0  2  0  0  0  0  0  0  0  0  0
    7.1596  -14.5181   22.9336 N   0  0  0  0  0  0  0  0  0  0  0  0
    8.2890  -15.5047   24.7384 C   0  0  0  0  0  0  0  0  0  0  0  0
    7.5655  -16.5210   24.8675 O   0  0  0  0  0  0  0  0  0  0  0  0
    9.6572  -15.6397   25.1058 N   0  0  0  0  0  0  0  0  0  0  0  0
   10.1612  -16.9353   25.6622 C   0  0  1  0  0  0  0  0  0  0  0  0
   11.4839  -17.1379   24.9918 C   0  0  0  0  0  0  0  0  0  0  0  0
   11.4606  -17.7304   23.6590 C   0  0  0  0  0  0  0  0  0  0  0  0
   10.4739  -18.2736   22.8802 C   0  0  0  0  0  0  0  0  0  0  0  0
   10.9749  -18.6374   21.6825 N   0  0  0  0  0  0  0  0  0  0  0  0
   12.2607  -18.3259   21.7070 C   0  0  0  0  0  0  0  0  0  0  0  0
   12.5810  -17.7864   22.8632 N   0  0  0  0  0  0  0  0  0  0  0  0
   10.3521  -16.6366   27.0953 C   0  0  0  0  0  0  0  0  0  0  0  0
   10.3342  -15.3606   27.5808 O   0  0  0  0  0  0  0  0  0  0  0  0
   10.5378  -17.5613   27.9142 O   0  0  0  0  0  0  0  0  0  0  0  0
  2  1  1  6
  2  4  1  0
  3  2  1  0
  4  6  1  0
  4  5  1  6
  6  7  2  0
  9  8  1  6
 10  9  1  0
 11  9  1  0
 12 11  1  1
 12 14  1  0
 13 12  1  0
 13  6  1  0
 14 15  2  0
 16 17  1  0
 16 14  1  0
 17 24  1  0
 17 18  1  6
 19 18  1  0
 20 19  2  0
 21 22  1  0
 21 20  1  0
 22 23  2  0
 23 19  1  0
 24 26  2  0
 24 25  1  0
M  END
$$$$
