TLH.pdb
     RDKit          3D

 26 26  0  0  1  0  0  0  0  0999 V2000
    7.7153  -18.0890   21.5305 C   0  0  0  0  0  0  0  0  0  0  0  0
    8.3372  -17.0058   20.7108 C   0  0  1  0  0  0  0  0  0  0  0  0
    8.1529  -17.1348   19.3571 O   0  0  0  0  0  0  0  0  0  0  0  0
    7.9290  -15.6271   21.1814 C   0  0  2  0  0  0  0  0  0  0  0  0
    8.4932  -14.6532   20.2674 N   0  0  0  0  0  0  0  0  0  0  0  0
    8.4465  -15.3369   22.5426 C   0  0  0  0  0  0  0  0  0  0  0  0
    9.6954  -15.1748   22.7421 O   0  0  0  0  0  0  0  0  0  0  0  0
    7.1467  -12.0329   25.0003 C   0  0  0  0  0  0  0  0  0  0  0  0
    7.1941  -12.9503   26.1703 C   0  0  1  0  0  0  0  0  0  0  0  0
    5.9634  -12.6083   27.0321 C   0  0  0  0  0  0  0  0  0  0  0  0
    7.0641  -14.3735   25.8063 C   0  0  0  0  0  0  0  0  0  0  0  0
    8.1611  -15.0111   25.0379 C   0  0  2  0  0  0  0  0  0  0  0  0
    7.6235  -15.2227   23.6791 N   0  0  0  0  0  0  0  0  0  0  0  0
    8.6602  -16.2954   25.4905 C   0  0  0  0  0  0  0  0  0  0  0  0
    7.9550  -17.3321   25.5212 O   0  0  0  0  0  0  0  0  0  0  0  0
   10.0099  -16.4239   25.9228 N   0  0  0  0  0  0  0  0  0  0  0  0
   10.4944  -17.7188   26.4977 C   0  0  1  0  0  0  0  0  0  0  0  0
   11.8540  -17.9048   25.9003 C   0  0  0  0  0  0  0  0  0  0  0  0
   11.9092  -18.4743   24.5585 C   0  0  0  0  0  0  0  0  0  0  0  0
   10.9716  -19.0113   23.7172 C   0  0  0  0  0  0  0  0  0  0  0  0
   11.5409  -19.3506   22.5431 N   0  0  0  0  0  0  0  0  0  0  0  0
   12.8207  -19.0300   22.6439 C   0  0  0  0  0  0  0  0  0  0  0  0
   13.0723  -18.5083   23.8250 N   0  0  0  0  0  0  0  0  0  0  0  0
   10.6030  -17.4284   27.9411 C   0  0  0  0  0  0  0  0  0  0  0  0
   10.2977  -16.2036   28.4615 O   0  0  0  0  0  0  0  0  0  0  0  0
   10.9836  -18.3129   28.7366 O   0  0  0  0  0  0  0  0  0  0  0  0
  2  1  1  1
  2  4  1  0
  3  2  1  0
  4  6  1  0
  4  5  1  6
  6  7  2  0
  9  8  1  6
 10  9  1  0
 11  9  1  0
 12 11  1  1
 12 14  1  0
 13 12  1  0
 13  6  1  0
 14 15  2  0
 16 17  1  0
 16 14  1  0
 17 24  1  0
 17 18  1  6
 19 18  1  0
 20 19  2  0
 21 22  1  0
 21 20  1  0
 22 23  2  0
 23 19  1  0
 24 26  2  0
 24 25  1  0
M  END
$$$$
