TLH.pdb
     RDKit          3D

 26 26  0  0  1  0  0  0  0  0999 V2000
    7.9877  -19.3153   21.5622 C   0  0  0  0  0  0  0  0  0  0  0  0
    8.3898  -18.1215   22.3655 C   0  0  1  0  0  0  0  0  0  0  0  0
    9.7327  -18.0387   22.6351 O   0  0  0  0  0  0  0  0  0  0  0  0
    7.8801  -16.8302   21.7644 C   0  0  2  0  0  0  0  0  0  0  0  0
    8.4562  -16.6903   20.4412 N   0  0  0  0  0  0  0  0  0  0  0  0
    8.2860  -15.6519   22.5717 C   0  0  0  0  0  0  0  0  0  0  0  0
    9.3668  -15.0272   22.3118 O   0  0  0  0  0  0  0  0  0  0  0  0
    7.4199  -11.0403   25.3821 C   0  0  0  0  0  0  0  0  0  0  0  0
    6.9039  -12.2936   25.9951 C   0  0  1  0  0  0  0  0  0  0  0  0
    5.4825  -11.9715   26.4951 C   0  0  0  0  0  0  0  0  0  0  0  0
    6.7649  -13.4036   25.0340 C   0  0  0  0  0  0  0  0  0  0  0  0
    7.9956  -14.0376   24.5014 C   0  0  2  0  0  0  0  0  0  0  0  0
    7.5323  -15.1516   23.6504 N   0  0  0  0  0  0  0  0  0  0  0  0
    8.9406  -14.6027   25.4453 C   0  0  0  0  0  0  0  0  0  0  0  0
    9.6351  -13.9035   26.2210 O   0  0  0  0  0  0  0  0  0  0  0  0
    9.1106  -16.0132   25.5263 N   0  0  0  0  0  0  0  0  0  0  0  0
    9.9874  -16.6045   26.5863 C   0  0  1  0  0  0  0  0  0  0  0  0
    9.1453  -17.6717   27.2124 C   0  0  0  0  0  0  0  0  0  0  0  0
    9.7823  -18.4963   28.2332 C   0  0  0  0  0  0  0  0  0  0  0  0
   11.0190  -18.4901   28.8211 C   0  0  0  0  0  0  0  0  0  0  0  0
   11.0889  -19.4491   29.7662 N   0  0  0  0  0  0  0  0  0  0  0  0
    9.9103  -20.0505   29.7738 C   0  0  0  0  0  0  0  0  0  0  0  0
    9.1128  -19.5102   28.8778 N   0  0  0  0  0  0  0  0  0  0  0  0
   11.0914  -17.2082   25.8142 C   0  0  0  0  0  0  0  0  0  0  0  0
   11.1103  -17.2059   24.4489 O   0  0  0  0  0  0  0  0  0  0  0  0
   12.0536  -17.7456   26.4020 O   0  0  0  0  0  0  0  0  0  0  0  0
  2  1  1  6
  2  4  1  0
  3  2  1  0
  4  6  1  0
  4  5  1  6
  6  7  2  0
  9  8  1  6
 10  9  1  0
 11  9  1  0
 12 11  1  1
 12 14  1  0
 13 12  1  0
 13  6  1  0
 14 15  2  0
 16 17  1  0
 16 14  1  0
 17 24  1  0
 17 18  1  6
 19 18  1  0
 20 19  2  0
 21 22  1  0
 21 20  1  0
 22 23  2  0
 23 19  1  0
 24 26  2  0
 24 25  1  0
M  END
$$$$
