TLH.pdb
     RDKit          3D

 26 26  0  0  1  0  0  0  0  0999 V2000
    6.5595  -17.0980   20.0427 C   0  0  0  0  0  0  0  0  0  0  0  0
    7.3353  -16.8675   21.2986 C   0  0  1  0  0  0  0  0  0  0  0  0
    8.4501  -17.6557   21.4358 O   0  0  0  0  0  0  0  0  0  0  0  0
    7.6794  -15.4078   21.4980 C   0  0  2  0  0  0  0  0  0  0  0  0
    8.5891  -15.0105   20.4412 N   0  0  0  0  0  0  0  0  0  0  0  0
    8.3548  -15.1766   22.8000 C   0  0  0  0  0  0  0  0  0  0  0  0
    9.6231  -15.2634   22.8985 O   0  0  0  0  0  0  0  0  0  0  0  0
    6.0718  -11.7670   26.3437 C   0  0  0  0  0  0  0  0  0  0  0  0
    7.0767  -12.4917   25.5204 C   0  0  1  0  0  0  0  0  0  0  0  0
    8.3466  -11.6191   25.5296 C   0  0  0  0  0  0  0  0  0  0  0  0
    7.4658  -13.7979   26.0838 C   0  0  0  0  0  0  0  0  0  0  0  0
    8.3502  -14.6795   25.2833 C   0  0  2  0  0  0  0  0  0  0  0  0
    7.6677  -14.8545   23.9858 N   0  0  0  0  0  0  0  0  0  0  0  0
    8.6307  -16.0105   25.7866 C   0  0  0  0  0  0  0  0  0  0  0  0
    7.7996  -16.9487   25.7425 O   0  0  0  0  0  0  0  0  0  0  0  0
    9.8999  -16.3033   26.3598 N   0  0  0  0  0  0  0  0  0  0  0  0
   10.2109  -17.6917   26.8264 C   0  0  1  0  0  0  0  0  0  0  0  0
   11.6536  -17.8860   26.4785 C   0  0  0  0  0  0  0  0  0  0  0  0
   11.9719  -18.0483   25.0643 C   0  0  0  0  0  0  0  0  0  0  0  0
   11.2193  -18.0804   23.9208 C   0  0  0  0  0  0  0  0  0  0  0  0
   12.0185  -18.2018   22.8418 N   0  0  0  0  0  0  0  0  0  0  0  0
   13.2590  -18.2444   23.3006 C   0  0  0  0  0  0  0  0  0  0  0  0
   13.2668  -18.1555   24.6131 N   0  0  0  0  0  0  0  0  0  0  0  0
   10.0431  -17.6021   28.2903 C   0  0  0  0  0  0  0  0  0  0  0  0
   10.1030  -18.7015   29.0979 O   0  0  0  0  0  0  0  0  0  0  0  0
    9.8386  -16.4975   28.8365 O   0  0  0  0  0  0  0  0  0  0  0  0
  2  1  1  6
  2  4  1  0
  3  2  1  0
  4  6  1  0
  4  5  1  6
  6  7  2  0
  9  8  1  1
 10  9  1  0
 11  9  1  0
 12 11  1  1
 12 14  1  0
 13 12  1  0
 13  6  1  0
 14 15  2  0
 16 17  1  0
 16 14  1  0
 17 24  1  0
 17 18  1  1
 19 18  1  0
 20 19  2  0
 21 22  1  0
 21 20  1  0
 22 23  2  0
 23 19  1  0
 24 26  2  0
 24 25  1  0
M  END
$$$$
