TLH.pdb
     RDKit          3D

 26 26  0  0  1  0  0  0  0  0999 V2000
    8.0178  -18.4365   20.7983 C   0  0  0  0  0  0  0  0  0  0  0  0
    8.1917  -17.6202   22.0375 C   0  0  1  0  0  0  0  0  0  0  0  0
    9.2025  -18.0424   22.8640 O   0  0  0  0  0  0  0  0  0  0  0  0
    8.3236  -16.1437   21.7354 C   0  0  2  0  0  0  0  0  0  0  0  0
    9.4438  -15.9665   20.8322 N   0  0  0  0  0  0  0  0  0  0  0  0
    8.5920  -15.3545   22.9643 C   0  0  0  0  0  0  0  0  0  0  0  0
    9.7878  -15.0868   23.3164 O   0  0  0  0  0  0  0  0  0  0  0  0
    7.4319  -11.3653   26.6169 C   0  0  0  0  0  0  0  0  0  0  0  0
    6.5922  -12.5931   26.6266 C   0  0  1  0  0  0  0  0  0  0  0  0
    5.1359  -12.1140   26.7814 C   0  0  0  0  0  0  0  0  0  0  0  0
    6.6478  -13.3527   25.3638 C   0  0  0  0  0  0  0  0  0  0  0  0
    7.8641  -14.1492   25.0694 C   0  0  2  0  0  0  0  0  0  0  0  0
    7.5786  -14.8583   23.8062 N   0  0  0  0  0  0  0  0  0  0  0  0
    8.2726  -15.1583   26.0276 C   0  0  0  0  0  0  0  0  0  0  0  0
    8.7961  -14.8811   27.1331 O   0  0  0  0  0  0  0  0  0  0  0  0
    8.0815  -16.5379   25.7356 N   0  0  0  0  0  0  0  0  0  0  0  0
    8.3467  -17.5717   26.7859 C   0  0  1  0  0  0  0  0  0  0  0  0
    7.4659  -18.7208   26.4068 C   0  0  0  0  0  0  0  0  0  0  0  0
    7.6399  -19.9579   27.1599 C   0  0  0  0  0  0  0  0  0  0  0  0
    8.3892  -20.3053   28.2522 C   0  0  0  0  0  0  0  0  0  0  0  0
    8.1460  -21.5866   28.5939 N   0  0  0  0  0  0  0  0  0  0  0  0
    7.2537  -22.0396   27.7280 C   0  0  0  0  0  0  0  0  0  0  0  0
    6.9324  -21.1000   26.8652 N   0  0  0  0  0  0  0  0  0  0  0  0
    9.7652  -17.9183   26.5687 C   0  0  0  0  0  0  0  0  0  0  0  0
   10.2910  -18.0812   25.3192 O   0  0  0  0  0  0  0  0  0  0  0  0
   10.5337  -18.0737   27.5410 O   0  0  0  0  0  0  0  0  0  0  0  0
  2  1  1  6
  2  4  1  0
  3  2  1  0
  4  6  1  0
  4  5  1  6
  6  7  2  0
  9  8  1  6
 10  9  1  0
 11  9  1  0
 12 11  1  1
 12 14  1  0
 13 12  1  0
 13  6  1  0
 14 15  2  0
 16 17  1  0
 16 14  1  0
 17 24  1  0
 17 18  1  6
 19 18  1  0
 20 19  2  0
 21 22  1  0
 21 20  1  0
 22 23  2  0
 23 19  1  0
 24 26  2  0
 24 25  1  0
M  END
$$$$
