TLH.pdb
     RDKit          3D

 26 26  0  0  1  0  0  0  0  0999 V2000
    6.4854  -17.4125   21.7736 C   0  0  0  0  0  0  0  0  0  0  0  0
    7.1655  -16.4806   20.8243 C   0  0  1  0  0  0  0  0  0  0  0  0
    6.7483  -16.5857   19.5212 O   0  0  0  0  0  0  0  0  0  0  0  0
    7.1082  -15.0438   21.2944 C   0  0  2  0  0  0  0  0  0  0  0  0
    7.6795  -14.2069   20.2574 N   0  0  0  0  0  0  0  0  0  0  0  0
    7.8956  -14.8416   22.5370 C   0  0  0  0  0  0  0  0  0  0  0  0
    9.1701  -14.8222   22.5028 O   0  0  0  0  0  0  0  0  0  0  0  0
    6.0050  -11.8030   26.6877 C   0  0  0  0  0  0  0  0  0  0  0  0
    6.9008  -12.4318   25.6803 C   0  0  1  0  0  0  0  0  0  0  0  0
    8.2090  -11.6181   25.7041 C   0  0  0  0  0  0  0  0  0  0  0  0
    7.2696  -13.8215   26.0084 C   0  0  0  0  0  0  0  0  0  0  0  0
    8.1087  -14.5775   25.0467 C   0  0  2  0  0  0  0  0  0  0  0  0
    7.3129  -14.6619   23.8059 N   0  0  0  0  0  0  0  0  0  0  0  0
    8.4901  -15.9347   25.3873 C   0  0  0  0  0  0  0  0  0  0  0  0
    7.6669  -16.8773   25.4699 O   0  0  0  0  0  0  0  0  0  0  0  0
    9.8544  -16.2495   25.6416 N   0  0  0  0  0  0  0  0  0  0  0  0
   10.2536  -17.6569   25.9608 C   0  0  1  0  0  0  0  0  0  0  0  0
   11.5798  -17.8284   25.2887 C   0  0  0  0  0  0  0  0  0  0  0  0
   11.5621  -18.0389   23.8453 C   0  0  0  0  0  0  0  0  0  0  0  0
   10.5830  -18.3719   22.9479 C   0  0  0  0  0  0  0  0  0  0  0  0
   11.0854  -18.3879   21.6969 N   0  0  0  0  0  0  0  0  0  0  0  0
   12.3646  -18.0677   21.8056 C   0  0  0  0  0  0  0  0  0  0  0  0
   12.6795  -17.8542   23.0650 N   0  0  0  0  0  0  0  0  0  0  0  0
   10.4198  -17.6370   27.4276 C   0  0  0  0  0  0  0  0  0  0  0  0
   10.1716  -16.5200   28.1725 O   0  0  0  0  0  0  0  0  0  0  0  0
   10.7984  -18.6609   28.0345 O   0  0  0  0  0  0  0  0  0  0  0  0
  2  1  1  1
  2  4  1  0
  3  2  1  0
  4  6  1  0
  4  5  1  6
  6  7  2  0
  9  8  1  1
 10  9  1  0
 11  9  1  0
 12 11  1  1
 12 14  1  0
 13 12  1  0
 13  6  1  0
 14 15  2  0
 16 17  1  0
 16 14  1  0
 17 24  1  0
 17 18  1  6
 19 18  1  0
 20 19  2  0
 21 22  1  0
 21 20  1  0
 22 23  2  0
 23 19  1  0
 24 26  2  0
 24 25  1  0
M  END
$$$$
