IIH.pdb
     RDKit          3D

 27 27  0  0  1  0  0  0  0  0999 V2000
   24.9848  -27.1740  -17.6794 C   0  0  0  0  0  0  0  0  0  0  0  0
   26.1730  -26.4990  -17.0315 C   0  0  0  0  0  0  0  0  0  0  0  0
   27.2209  -26.0561  -18.0008 C   0  0  2  0  0  0  0  0  0  0  0  0
   27.8316  -27.2958  -18.6255 C   0  0  0  0  0  0  0  0  0  0  0  0
   28.2780  -25.2220  -17.3048 C   0  0  2  0  0  0  0  0  0  0  0  0
   28.8083  -26.1390  -16.2591 N   0  0  0  0  0  0  0  0  0  0  0  0
   27.7227  -24.0713  -16.5648 C   0  0  0  0  0  0  0  0  0  0  0  0
   27.7399  -24.0897  -15.3097 O   0  0  0  0  0  0  0  0  0  0  0  0
   29.4631  -19.2283  -17.3584 C   0  0  0  0  0  0  0  0  0  0  0  0
   28.8591  -20.4081  -16.6438 C   0  0  0  0  0  0  0  0  0  0  0  0
   27.3880  -20.4831  -16.6753 C   0  0  2  0  0  0  0  0  0  0  0  0
   26.7473  -19.4499  -15.7296 C   0  0  0  0  0  0  0  0  0  0  0  0
   26.7184  -21.7682  -16.3859 C   0  0  2  0  0  0  0  0  0  0  0  0
   27.1546  -22.9069  -17.1563 N   0  0  0  0  0  0  0  0  0  0  0  0
   25.2248  -21.6690  -16.3603 C   0  0  0  0  0  0  0  0  0  0  0  0
   24.5149  -21.6226  -17.3968 O   0  0  0  0  0  0  0  0  0  0  0  0
   24.5300  -21.6219  -15.1231 N   0  0  0  0  0  0  0  0  0  0  0  0
   23.0802  -21.5601  -15.0656 C   0  0  1  0  0  0  0  0  0  0  0  0
   22.6221  -22.6239  -14.0940 C   0  0  0  0  0  0  0  0  0  0  0  0
   22.8557  -23.9589  -14.6710 C   0  0  0  0  0  0  0  0  0  0  0  0
   23.7856  -24.9033  -14.2981 C   0  0  0  0  0  0  0  0  0  0  0  0
   23.6807  -25.9928  -15.0709 N   0  0  0  0  0  0  0  0  0  0  0  0
   22.6866  -25.7521  -15.9391 C   0  0  0  0  0  0  0  0  0  0  0  0
   22.1817  -24.5056  -15.6933 N   0  0  0  0  0  0  0  0  0  0  0  0
   22.5930  -20.2281  -14.6942 C   0  0  0  0  0  0  0  0  0  0  0  0
   23.2946  -19.3749  -14.1271 O   0  0  0  0  0  0  0  0  0  0  0  0
   21.2568  -19.9321  -15.0106 O   0  0  0  0  0  0  0  0  0  0  0  0
  1  2  1  0
  2  3  1  0
  3  4  1  1
  5  3  1  0
  5  6  1  1
  7  8  2  0
  7  5  1  0
  9 10  1  0
 10 11  1  0
 11 13  1  0
 11 12  1  1
 13 14  1  6
 14  7  1  0
 15 13  1  0
 16 15  2  0
 17 15  1  0
 18 25  1  0
 18 17  1  0
 18 19  1  1
 20 19  1  0
 21 20  2  0
 22 21  1  0
 23 22  1  0
 23 24  2  0
 24 20  1  0
 25 27  1  0
 26 25  2  0
M  END
$$$$
