IIH.pdb
     RDKit          3D

 27 27  0  0  1  0  0  0  0  0999 V2000
   30.0612  -18.6414  -17.1611 C   0  0  0  0  0  0  0  0  0  0  0  0
   28.7707  -18.1946  -16.5114 C   0  0  0  0  0  0  0  0  0  0  0  0
   28.1512  -19.2248  -15.6233 C   0  0  2  0  0  0  0  0  0  0  0  0
   28.0357  -20.5134  -16.4145 C   0  0  0  0  0  0  0  0  0  0  0  0
   26.7926  -18.7647  -15.1337 C   0  0  2  0  0  0  0  0  0  0  0  0
   27.1113  -17.5749  -14.2980 N   0  0  0  0  0  0  0  0  0  0  0  0
   26.1465  -19.7218  -14.2135 C   0  0  0  0  0  0  0  0  0  0  0  0
   25.7685  -20.8330  -14.6588 O   0  0  0  0  0  0  0  0  0  0  0  0
   27.0309  -20.1738   -8.7854 C   0  0  0  0  0  0  0  0  0  0  0  0
   26.6125  -20.7734  -10.1018 C   0  0  0  0  0  0  0  0  0  0  0  0
   25.2818  -20.3690  -10.5881 C   0  0  2  0  0  0  0  0  0  0  0  0
   24.1675  -21.2451   -9.9855 C   0  0  0  0  0  0  0  0  0  0  0  0
   25.0210  -20.3239  -12.0420 C   0  0  2  0  0  0  0  0  0  0  0  0
   25.9061  -19.4992  -12.8275 N   0  0  0  0  0  0  0  0  0  0  0  0
   23.5871  -20.0597  -12.3819 C   0  0  0  0  0  0  0  0  0  0  0  0
   23.0159  -18.9595  -12.1722 O   0  0  0  0  0  0  0  0  0  0  0  0
   22.7911  -21.0753  -12.9737 N   0  0  0  0  0  0  0  0  0  0  0  0
   21.4020  -20.8445  -13.3289 C   0  0  1  0  0  0  0  0  0  0  0  0
   21.0786  -21.7501  -14.4954 C   0  0  0  0  0  0  0  0  0  0  0  0
   21.5181  -21.1194  -15.7519 C   0  0  0  0  0  0  0  0  0  0  0  0
   22.0493  -19.8633  -15.9406 C   0  0  0  0  0  0  0  0  0  0  0  0
   22.3228  -19.6616  -17.2367 N   0  0  0  0  0  0  0  0  0  0  0  0
   21.9694  -20.7836  -17.8816 C   0  0  0  0  0  0  0  0  0  0  0  0
   21.4764  -21.6763  -16.9710 N   0  0  0  0  0  0  0  0  0  0  0  0
   20.4942  -21.0580  -12.1974 C   0  0  0  0  0  0  0  0  0  0  0  0
   20.7128  -21.8741  -11.2876 O   0  0  0  0  0  0  0  0  0  0  0  0
   19.3235  -20.2823  -12.1704 O   0  0  0  0  0  0  0  0  0  0  0  0
  1  2  1  0
  2  3  1  0
  3  4  1  6
  5  3  1  0
  5  6  1  1
  7  8  2  0
  7  5  1  0
  9 10  1  0
 10 11  1  0
 11 13  1  0
 11 12  1  1
 13 14  1  6
 14  7  1  0
 15 13  1  0
 16 15  2  0
 17 15  1  0
 18 25  1  0
 18 17  1  0
 18 19  1  6
 20 19  1  0
 21 20  2  0
 22 21  1  0
 23 22  1  0
 23 24  2  0
 24 20  1  0
 25 27  1  0
 26 25  2  0
M  END
$$$$
