IIH.pdb
     RDKit          3D

 27 27  0  0  1  0  0  0  0  0999 V2000
   26.8564  -17.3276  -19.4672 C   0  0  0  0  0  0  0  0  0  0  0  0
   27.7217  -18.0710  -18.4742 C   0  0  0  0  0  0  0  0  0  0  0  0
   26.9525  -18.7322  -17.3765 C   0  0  2  0  0  0  0  0  0  0  0  0
   26.0791  -17.6803  -16.7204 C   0  0  0  0  0  0  0  0  0  0  0  0
   27.8915  -19.3642  -16.3683 C   0  0  2  0  0  0  0  0  0  0  0  0
   28.5711  -20.4322  -17.1513 N   0  0  0  0  0  0  0  0  0  0  0  0
   27.1905  -20.0707  -15.2777 C   0  0  0  0  0  0  0  0  0  0  0  0
   26.4524  -21.0460  -15.5605 O   0  0  0  0  0  0  0  0  0  0  0  0
   29.5589  -21.0703  -10.5545 C   0  0  0  0  0  0  0  0  0  0  0  0
   28.6592  -21.3400  -11.7315 C   0  0  0  0  0  0  0  0  0  0  0  0
   27.3029  -20.7725  -11.6356 C   0  0  2  0  0  0  0  0  0  0  0  0
   26.3731  -21.6649  -10.7922 C   0  0  0  0  0  0  0  0  0  0  0  0
   26.5552  -20.4612  -12.8717 C   0  0  2  0  0  0  0  0  0  0  0  0
   27.2759  -19.7433  -13.8942 N   0  0  0  0  0  0  0  0  0  0  0  0
   25.2144  -19.8455  -12.6175 C   0  0  0  0  0  0  0  0  0  0  0  0
   25.0390  -18.6128  -12.4437 O   0  0  0  0  0  0  0  0  0  0  0  0
   24.0511  -20.6573  -12.5612 N   0  0  0  0  0  0  0  0  0  0  0  0
   22.7607  -20.1720  -13.0175 C   0  0  1  0  0  0  0  0  0  0  0  0
   22.8867  -19.8773  -14.4948 C   0  0  0  0  0  0  0  0  0  0  0  0
   21.6181  -19.3271  -15.0026 C   0  0  0  0  0  0  0  0  0  0  0  0
   20.4612  -19.0571  -14.3067 C   0  0  0  0  0  0  0  0  0  0  0  0
   19.5263  -18.5620  -15.1290 N   0  0  0  0  0  0  0  0  0  0  0  0
   20.0781  -18.5129  -16.3508 C   0  0  0  0  0  0  0  0  0  0  0  0
   21.3599  -18.9819  -16.2724 N   0  0  0  0  0  0  0  0  0  0  0  0
   21.6772  -21.1186  -12.7349 C   0  0  0  0  0  0  0  0  0  0  0  0
   21.7514  -22.3356  -12.9695 O   0  0  0  0  0  0  0  0  0  0  0  0
   20.5059  -20.5890  -12.1687 O   0  0  0  0  0  0  0  0  0  0  0  0
  1  2  1  0
  2  3  1  0
  3  4  1  1
  5  3  1  0
  5  6  1  6
  7  8  2  0
  7  5  1  0
  9 10  1  0
 10 11  1  0
 11 13  1  0
 11 12  1  1
 13 14  1  6
 14  7  1  0
 15 13  1  0
 16 15  2  0
 17 15  1  0
 18 25  1  0
 18 17  1  0
 18 19  1  6
 20 19  1  0
 21 20  2  0
 22 21  1  0
 23 22  1  0
 23 24  2  0
 24 20  1  0
 25 27  1  0
 26 25  2  0
M  END
$$$$
