IIH.pdb
     RDKit          3D

 27 27  0  0  1  0  0  0  0  0999 V2000
   28.5315  -17.9052  -17.9791 C   0  0  0  0  0  0  0  0  0  0  0  0
   28.9378  -18.7558  -16.7964 C   0  0  0  0  0  0  0  0  0  0  0  0
   27.7856  -19.2626  -15.9905 C   0  0  2  0  0  0  0  0  0  0  0  0
   27.0309  -18.0630  -15.4509 C   0  0  0  0  0  0  0  0  0  0  0  0
   28.2693  -20.1520  -14.8625 C   0  0  2  0  0  0  0  0  0  0  0  0
   28.8096  -21.3447  -15.5704 N   0  0  0  0  0  0  0  0  0  0  0  0
   27.1769  -20.6679  -14.0136 C   0  0  0  0  0  0  0  0  0  0  0  0
   26.4975  -21.6414  -14.4216 O   0  0  0  0  0  0  0  0  0  0  0  0
   27.1528  -20.1227   -8.4884 C   0  0  0  0  0  0  0  0  0  0  0  0
   26.8424  -20.9055   -9.7368 C   0  0  0  0  0  0  0  0  0  0  0  0
   25.7047  -20.4086  -10.5301 C   0  0  2  0  0  0  0  0  0  0  0  0
   24.3631  -20.9413   -9.9927 C   0  0  0  0  0  0  0  0  0  0  0  0
   25.6782  -20.6405  -11.9893 C   0  0  2  0  0  0  0  0  0  0  0  0
   26.8109  -20.1527  -12.7372 N   0  0  0  0  0  0  0  0  0  0  0  0
   24.3877  -20.2384  -12.6329 C   0  0  0  0  0  0  0  0  0  0  0  0
   23.9781  -19.0508  -12.6831 O   0  0  0  0  0  0  0  0  0  0  0  0
   23.5492  -21.2155  -13.2310 N   0  0  0  0  0  0  0  0  0  0  0  0
   22.3151  -20.8513  -13.9043 C   0  0  1  0  0  0  0  0  0  0  0  0
   22.3321  -21.5108  -15.2644 C   0  0  0  0  0  0  0  0  0  0  0  0
   21.1344  -21.1145  -16.0248 C   0  0  0  0  0  0  0  0  0  0  0  0
   21.0479  -20.2719  -17.1102 C   0  0  0  0  0  0  0  0  0  0  0  0
   19.7764  -20.1659  -17.5192 N   0  0  0  0  0  0  0  0  0  0  0  0
   19.0453  -20.9373  -16.7004 C   0  0  0  0  0  0  0  0  0  0  0  0
   19.8783  -21.5181  -15.7851 N   0  0  0  0  0  0  0  0  0  0  0  0
   21.1269  -21.2193  -13.1282 C   0  0  0  0  0  0  0  0  0  0  0  0
   21.1277  -22.0931  -12.2461 O   0  0  0  0  0  0  0  0  0  0  0  0
   19.9400  -20.5281  -13.4222 O   0  0  0  0  0  0  0  0  0  0  0  0
  1  2  1  0
  2  3  1  0
  3  4  1  1
  5  3  1  0
  5  6  1  6
  7  8  2  0
  7  5  1  0
  9 10  1  0
 10 11  1  0
 11 13  1  0
 11 12  1  1
 13 14  1  6
 14  7  1  0
 15 13  1  0
 16 15  2  0
 17 15  1  0
 18 25  1  0
 18 17  1  0
 18 19  1  6
 20 19  1  0
 21 20  2  0
 22 21  1  0
 23 22  1  0
 23 24  2  0
 24 20  1  0
 25 27  1  0
 26 25  2  0
M  END
$$$$
