IIH.pdb
     RDKit          3D

 27 27  0  0  1  0  0  0  0  0999 V2000
   19.8552  -15.0718  -20.9548 C   0  0  0  0  0  0  0  0  0  0  0  0
   20.9084  -13.9948  -20.8207 C   0  0  0  0  0  0  0  0  0  0  0  0
   20.7669  -13.1591  -19.5896 C   0  0  2  0  0  0  0  0  0  0  0  0
   19.3754  -12.5560  -19.5933 C   0  0  0  0  0  0  0  0  0  0  0  0
   21.8275  -12.0770  -19.5504 C   0  0  2  0  0  0  0  0  0  0  0  0
   23.1029  -12.8402  -19.6317 N   0  0  0  0  0  0  0  0  0  0  0  0
   21.8866  -11.3612  -18.2603 C   0  0  0  0  0  0  0  0  0  0  0  0
   20.8228  -11.1683  -17.6224 O   0  0  0  0  0  0  0  0  0  0  0  0
   26.4153  -10.8909  -14.8077 C   0  0  0  0  0  0  0  0  0  0  0  0
   25.0160  -11.0933  -15.3257 C   0  0  0  0  0  0  0  0  0  0  0  0
   24.3104   -9.8684  -15.7409 C   0  0  2  0  0  0  0  0  0  0  0  0
   23.9958   -8.9596  -14.5377 C   0  0  0  0  0  0  0  0  0  0  0  0
   23.0514   -9.9778  -16.5069 C   0  0  2  0  0  0  0  0  0  0  0  0
   23.0707  -10.8556  -17.6513 N   0  0  0  0  0  0  0  0  0  0  0  0
   22.4451   -8.6523  -16.8486 C   0  0  0  0  0  0  0  0  0  0  0  0
   22.7305   -8.0064  -17.8888 O   0  0  0  0  0  0  0  0  0  0  0  0
   21.4928   -8.0541  -15.9820 N   0  0  0  0  0  0  0  0  0  0  0  0
   20.8151   -6.8183  -16.3317 C   0  0  1  0  0  0  0  0  0  0  0  0
   20.1361   -7.0381  -17.6643 C   0  0  0  0  0  0  0  0  0  0  0  0
   19.4468   -5.8049  -18.0813 C   0  0  0  0  0  0  0  0  0  0  0  0
   19.8049   -4.4981  -17.8368 C   0  0  0  0  0  0  0  0  0  0  0  0
   18.9155   -3.6596  -18.3856 N   0  0  0  0  0  0  0  0  0  0  0  0
   17.9871   -4.4227  -18.9818 C   0  0  0  0  0  0  0  0  0  0  0  0
   18.3135   -5.7371  -18.7948 N   0  0  0  0  0  0  0  0  0  0  0  0
   19.8704   -6.3880  -15.2963 C   0  0  0  0  0  0  0  0  0  0  0  0
   19.2860   -7.1733  -14.5324 O   0  0  0  0  0  0  0  0  0  0  0  0
   19.6355   -5.0074  -15.1883 O   0  0  0  0  0  0  0  0  0  0  0  0
  1  2  1  0
  2  3  1  0
  3  4  1  6
  5  3  1  0
  5  6  1  1
  7  8  2  0
  7  5  1  0
  9 10  1  0
 10 11  1  0
 11 13  1  0
 11 12  1  1
 13 14  1  6
 14  7  1  0
 15 13  1  0
 16 15  2  0
 17 15  1  0
 18 25  1  0
 18 17  1  0
 18 19  1  6
 20 19  1  0
 21 20  2  0
 22 21  1  0
 23 22  1  0
 23 24  2  0
 24 20  1  0
 25 27  1  0
 26 25  2  0
M  END
$$$$
