IIH.pdb
     RDKit          3D

 27 27  0  0  1  0  0  0  0  0999 V2000
   14.8449  -12.8334  -16.4159 C   0  0  0  0  0  0  0  0  0  0  0  0
   16.2464  -13.2796  -16.7679 C   0  0  0  0  0  0  0  0  0  0  0  0
   17.3096  -12.6655  -15.9156 C   0  0  2  0  0  0  0  0  0  0  0  0
   17.2111  -11.1592  -16.0611 C   0  0  0  0  0  0  0  0  0  0  0  0
   18.6812  -13.1621  -16.3273 C   0  0  2  0  0  0  0  0  0  0  0  0
   18.6248  -14.6193  -16.0291 N   0  0  0  0  0  0  0  0  0  0  0  0
   19.7724  -12.6364  -15.4828 C   0  0  0  0  0  0  0  0  0  0  0  0
   19.7645  -12.8875  -14.2529 O   0  0  0  0  0  0  0  0  0  0  0  0
   24.9564  -13.6559  -15.7960 C   0  0  0  0  0  0  0  0  0  0  0  0
   23.5361  -13.2776  -15.4688 C   0  0  0  0  0  0  0  0  0  0  0  0
   23.2764  -11.8322  -15.3499 C   0  0  2  0  0  0  0  0  0  0  0  0
   24.1737  -11.1809  -14.2807 C   0  0  0  0  0  0  0  0  0  0  0  0
   21.9043  -11.3598  -15.0707 C   0  0  2  0  0  0  0  0  0  0  0  0
   20.8666  -11.8501  -15.9443 N   0  0  0  0  0  0  0  0  0  0  0  0
   21.8098   -9.8762  -14.8935 C   0  0  0  0  0  0  0  0  0  0  0  0
   22.5068   -9.2301  -14.0704 O   0  0  0  0  0  0  0  0  0  0  0  0
   20.8992   -9.1169  -15.6744 N   0  0  0  0  0  0  0  0  0  0  0  0
   20.8252   -7.6705  -15.5668 C   0  0  1  0  0  0  0  0  0  0  0  0
   20.6187   -7.1249  -16.9614 C   0  0  0  0  0  0  0  0  0  0  0  0
   21.7129   -7.5748  -17.8390 C   0  0  0  0  0  0  0  0  0  0  0  0
   21.7132   -8.6099  -18.7469 C   0  0  0  0  0  0  0  0  0  0  0  0
   22.9051   -8.7000  -19.3522 N   0  0  0  0  0  0  0  0  0  0  0  0
   23.6709   -7.7266  -18.8366 C   0  0  0  0  0  0  0  0  0  0  0  0
   22.9395   -7.0377  -17.9095 N   0  0  0  0  0  0  0  0  0  0  0  0
   19.7744   -7.2330  -14.6427 C   0  0  0  0  0  0  0  0  0  0  0  0
   19.0479   -8.0165  -14.0101 O   0  0  0  0  0  0  0  0  0  0  0  0
   19.6056   -5.8473  -14.4867 O   0  0  0  0  0  0  0  0  0  0  0  0
  1  2  1  0
  2  3  1  0
  3  4  1  6
  5  3  1  0
  5  6  1  1
  7  8  2  0
  7  5  1  0
  9 10  1  0
 10 11  1  0
 11 13  1  0
 11 12  1  1
 13 14  1  6
 14  7  1  0
 15 13  1  0
 16 15  2  0
 17 15  1  0
 18 25  1  0
 18 17  1  0
 18 19  1  6
 20 19  1  0
 21 20  2  0
 22 21  1  0
 23 22  1  0
 23 24  2  0
 24 20  1  0
 25 27  1  0
 26 25  2  0
M  END
$$$$
