IIH.pdb
     RDKit          3D

 27 27  0  0  1  0  0  0  0  0999 V2000
   35.7365  -11.3669   -8.7952 C   0  0  0  0  0  0  0  0  0  0  0  0
   36.7926  -11.8387   -7.8208 C   0  0  0  0  0  0  0  0  0  0  0  0
   38.0423  -11.0191   -7.8383 C   0  0  2  0  0  0  0  0  0  0  0  0
   38.5452  -10.9667   -9.2681 C   0  0  0  0  0  0  0  0  0  0  0  0
   39.0879  -11.6146   -6.9166 C   0  0  2  0  0  0  0  0  0  0  0  0
   38.4663  -11.4993   -5.5690 N   0  0  0  0  0  0  0  0  0  0  0  0
   40.3264  -10.8143   -6.8411 C   0  0  0  0  0  0  0  0  0  0  0  0
   40.3317   -9.7655   -6.1512 O   0  0  0  0  0  0  0  0  0  0  0  0
   45.6737  -12.8661   -6.8096 C   0  0  0  0  0  0  0  0  0  0  0  0
   44.3619  -12.1728   -6.5526 C   0  0  0  0  0  0  0  0  0  0  0  0
   44.0340  -11.0736   -7.4773 C   0  0  2  0  0  0  0  0  0  0  0  0
   45.1322   -9.9936   -7.4864 C   0  0  0  0  0  0  0  0  0  0  0  0
   42.7547  -10.3502   -7.3234 C   0  0  2  0  0  0  0  0  0  0  0  0
   41.5526  -11.1289   -7.4936 N   0  0  0  0  0  0  0  0  0  0  0  0
   42.6929   -9.0763   -8.1075 C   0  0  0  0  0  0  0  0  0  0  0  0
   42.4144   -9.0287   -9.3326 O   0  0  0  0  0  0  0  0  0  0  0  0
   42.9551   -7.8319   -7.4764 N   0  0  0  0  0  0  0  0  0  0  0  0
   42.9290   -6.5823   -8.2158 C   0  0  1  0  0  0  0  0  0  0  0  0
   42.4125   -5.5147   -7.2784 C   0  0  0  0  0  0  0  0  0  0  0  0
   42.2222   -4.2541   -8.0162 C   0  0  0  0  0  0  0  0  0  0  0  0
   42.3524   -4.0235   -9.3673 C   0  0  0  0  0  0  0  0  0  0  0  0
   42.0948   -2.7391   -9.6490 N   0  0  0  0  0  0  0  0  0  0  0  0
   41.7994   -2.1434   -8.4838 C   0  0  0  0  0  0  0  0  0  0  0  0
   41.8778   -3.0725   -7.4839 N   0  0  0  0  0  0  0  0  0  0  0  0
   44.2399   -6.2375   -8.7747 C   0  0  0  0  0  0  0  0  0  0  0  0
   45.3131   -6.4512   -8.1880 O   0  0  0  0  0  0  0  0  0  0  0  0
   44.2481   -5.6345  -10.0433 O   0  0  0  0  0  0  0  0  0  0  0  0
  1  2  1  0
  2  3  1  0
  3  4  1  6
  5  3  1  0
  5  6  1  1
  7  8  2  0
  7  5  1  0
  9 10  1  0
 10 11  1  0
 11 13  1  0
 11 12  1  1
 13 14  1  6
 14  7  1  0
 15 13  1  0
 16 15  2  0
 17 15  1  0
 18 25  1  0
 18 17  1  0
 18 19  1  1
 20 19  1  0
 21 20  2  0
 22 21  1  0
 23 22  1  0
 23 24  2  0
 24 20  1  0
 25 27  1  0
 26 25  2  0
M  END
$$$$
