IIH.pdb
     RDKit          3D

 27 27  0  0  1  0  0  0  0  0999 V2000
   18.1060  -15.7572  -17.2377 C   0  0  0  0  0  0  0  0  0  0  0  0
   19.4029  -15.2396  -17.8185 C   0  0  0  0  0  0  0  0  0  0  0  0
   20.1607  -14.3371  -16.8992 C   0  0  2  0  0  0  0  0  0  0  0  0
   19.2573  -13.1735  -16.5392 C   0  0  0  0  0  0  0  0  0  0  0  0
   21.4370  -13.8505  -17.5562 C   0  0  2  0  0  0  0  0  0  0  0  0
   22.2445  -15.0922  -17.7042 N   0  0  0  0  0  0  0  0  0  0  0  0
   22.2419  -12.9667  -16.6894 C   0  0  0  0  0  0  0  0  0  0  0  0
   22.9439  -13.4786  -15.7833 O   0  0  0  0  0  0  0  0  0  0  0  0
   26.8682  -10.6289  -14.9729 C   0  0  0  0  0  0  0  0  0  0  0  0
   25.4046  -10.2786  -14.9225 C   0  0  0  0  0  0  0  0  0  0  0  0
   24.5407  -11.0299  -15.8498 C   0  0  2  0  0  0  0  0  0  0  0  0
   25.0445  -10.9290  -17.3018 C   0  0  0  0  0  0  0  0  0  0  0  0
   23.0943  -10.7316  -15.9004 C   0  0  2  0  0  0  0  0  0  0  0  0
   22.3015  -11.5471  -16.7874 N   0  0  0  0  0  0  0  0  0  0  0  0
   22.7923   -9.2768  -16.0840 C   0  0  0  0  0  0  0  0  0  0  0  0
   22.5976   -8.7450  -17.2065 O   0  0  0  0  0  0  0  0  0  0  0  0
   22.7117   -8.4133  -14.9600 N   0  0  0  0  0  0  0  0  0  0  0  0
   22.2239   -7.0507  -15.0795 C   0  0  1  0  0  0  0  0  0  0  0  0
   20.8335   -7.1198  -15.6690 C   0  0  0  0  0  0  0  0  0  0  0  0
   20.3084   -5.7579  -15.8667 C   0  0  0  0  0  0  0  0  0  0  0  0
   20.8762   -4.7124  -16.5596 C   0  0  0  0  0  0  0  0  0  0  0  0
   20.0846   -3.6326  -16.5073 N   0  0  0  0  0  0  0  0  0  0  0  0
   19.0100   -3.9804  -15.7833 C   0  0  0  0  0  0  0  0  0  0  0  0
   19.1481   -5.2828  -15.3912 N   0  0  0  0  0  0  0  0  0  0  0  0
   22.2447   -6.3365  -13.7992 C   0  0  0  0  0  0  0  0  0  0  0  0
   22.2040   -6.9052  -12.6962 O   0  0  0  0  0  0  0  0  0  0  0  0
   22.3149   -4.9348  -13.8576 O   0  0  0  0  0  0  0  0  0  0  0  0
  1  2  1  0
  2  3  1  0
  3  4  1  6
  5  3  1  0
  5  6  1  1
  7  8  2  0
  7  5  1  0
  9 10  1  0
 10 11  1  0
 11 13  1  0
 11 12  1  6
 13 14  1  6
 14  7  1  0
 15 13  1  0
 16 15  2  0
 17 15  1  0
 18 25  1  0
 18 17  1  0
 18 19  1  1
 20 19  1  0
 21 20  2  0
 22 21  1  0
 23 22  1  0
 23 24  2  0
 24 20  1  0
 25 27  1  0
 26 25  2  0
M  END
$$$$
