IIH.pdb
     RDKit          3D

 27 27  0  0  1  0  0  0  0  0999 V2000
   25.4419  -19.6585  -19.4876 C   0  0  0  0  0  0  0  0  0  0  0  0
   26.0683  -19.9355  -18.1392 C   0  0  0  0  0  0  0  0  0  0  0  0
   25.1017  -20.4314  -17.1127 C   0  0  2  0  0  0  0  0  0  0  0  0
   23.9643  -19.4324  -17.0226 C   0  0  0  0  0  0  0  0  0  0  0  0
   25.7841  -20.5998  -15.7697 C   0  0  2  0  0  0  0  0  0  0  0  0
   26.7790  -21.6782  -16.0206 N   0  0  0  0  0  0  0  0  0  0  0  0
   24.8912  -21.1335  -14.7218 C   0  0  0  0  0  0  0  0  0  0  0  0
   24.4339  -22.2959  -14.8464 O   0  0  0  0  0  0  0  0  0  0  0  0
   25.7370  -20.6608   -9.4859 C   0  0  0  0  0  0  0  0  0  0  0  0
   25.1527  -21.3712  -10.6781 C   0  0  0  0  0  0  0  0  0  0  0  0
   23.8753  -20.8306  -11.1748 C   0  0  2  0  0  0  0  0  0  0  0  0
   22.6760  -21.4046  -10.3973 C   0  0  0  0  0  0  0  0  0  0  0  0
   23.5343  -20.9678  -12.6061 C   0  0  2  0  0  0  0  0  0  0  0  0
   24.4890  -20.4356  -13.5472 N   0  0  0  0  0  0  0  0  0  0  0  0
   22.1429  -20.5219  -12.9322 C   0  0  0  0  0  0  0  0  0  0  0  0
   21.7794  -19.3184  -12.9198 O   0  0  0  0  0  0  0  0  0  0  0  0
   21.1475  -21.4727  -13.2794 N   0  0  0  0  0  0  0  0  0  0  0  0
   19.7866  -21.0722  -13.5901 C   0  0  1  0  0  0  0  0  0  0  0  0
   19.1741  -22.1702  -14.4294 C   0  0  0  0  0  0  0  0  0  0  0  0
   19.6265  -22.0408  -15.8253 C   0  0  0  0  0  0  0  0  0  0  0  0
   20.4087  -21.0558  -16.3852 C   0  0  0  0  0  0  0  0  0  0  0  0
   20.5992  -21.2955  -17.6896 N   0  0  0  0  0  0  0  0  0  0  0  0
   19.9422  -22.4311  -17.9701 C   0  0  0  0  0  0  0  0  0  0  0  0
   19.3464  -22.8870  -16.8272 N   0  0  0  0  0  0  0  0  0  0  0  0
   18.9982  -20.7945  -12.3855 C   0  0  0  0  0  0  0  0  0  0  0  0
   19.1328  -21.4167  -11.3195 O   0  0  0  0  0  0  0  0  0  0  0  0
   18.0482  -19.7637  -12.4747 O   0  0  0  0  0  0  0  0  0  0  0  0
  1  2  1  0
  2  3  1  0
  3  4  1  1
  5  3  1  0
  5  6  1  6
  7  8  2  0
  7  5  1  0
  9 10  1  0
 10 11  1  0
 11 13  1  0
 11 12  1  1
 13 14  1  6
 14  7  1  0
 15 13  1  0
 16 15  2  0
 17 15  1  0
 18 25  1  0
 18 17  1  0
 18 19  1  1
 20 19  1  0
 21 20  2  0
 22 21  1  0
 23 22  1  0
 23 24  2  0
 24 20  1  0
 25 27  1  0
 26 25  2  0
M  END
$$$$
