IIH.pdb
     RDKit          3D

 27 27  0  0  1  0  0  0  0  0999 V2000
   20.8405  -20.6174   -9.0279 C   0  0  0  0  0  0  0  0  0  0  0  0
   22.2775  -21.0372   -8.8135 C   0  0  0  0  0  0  0  0  0  0  0  0
   23.2355  -20.4406   -9.7934 C   0  0  2  0  0  0  0  0  0  0  0  0
   22.7269  -20.7484  -11.1886 C   0  0  0  0  0  0  0  0  0  0  0  0
   24.6299  -20.9983   -9.5886 C   0  0  2  0  0  0  0  0  0  0  0  0
   25.0060  -20.5004   -8.2372 N   0  0  0  0  0  0  0  0  0  0  0  0
   25.6323  -20.4210  -10.5063 C   0  0  0  0  0  0  0  0  0  0  0  0
   25.9810  -19.2250  -10.3518 O   0  0  0  0  0  0  0  0  0  0  0  0
   30.6162  -21.7759  -11.3585 C   0  0  0  0  0  0  0  0  0  0  0  0
   29.3478  -20.9657  -11.3101 C   0  0  0  0  0  0  0  0  0  0  0  0
   28.5445  -20.9715  -12.5451 C   0  0  2  0  0  0  0  0  0  0  0  0
   29.2454  -20.2031  -13.6812 C   0  0  0  0  0  0  0  0  0  0  0  0
   27.1552  -20.4689  -12.5121 C   0  0  2  0  0  0  0  0  0  0  0  0
   26.2618  -21.1126  -11.5805 N   0  0  0  0  0  0  0  0  0  0  0  0
   26.5327  -20.3495  -13.8684 C   0  0  0  0  0  0  0  0  0  0  0  0
   26.1768  -21.3388  -14.5578 O   0  0  0  0  0  0  0  0  0  0  0  0
   26.3132  -19.0719  -14.4472 N   0  0  0  0  0  0  0  0  0  0  0  0
   25.5069  -18.9059  -15.6436 C   0  0  1  0  0  0  0  0  0  0  0  0
   24.7903  -17.5802  -15.5237 C   0  0  0  0  0  0  0  0  0  0  0  0
   23.9318  -17.3701  -16.7021 C   0  0  0  0  0  0  0  0  0  0  0  0
   22.7865  -18.0454  -17.0597 C   0  0  0  0  0  0  0  0  0  0  0  0
   22.2937  -17.5554  -18.2053 N   0  0  0  0  0  0  0  0  0  0  0  0
   23.1183  -16.5677  -18.5853 C   0  0  0  0  0  0  0  0  0  0  0  0
   24.1216  -16.4549  -17.6635 N   0  0  0  0  0  0  0  0  0  0  0  0
   26.3051  -18.9918  -16.8704 C   0  0  0  0  0  0  0  0  0  0  0  0
   25.9376  -19.6045  -17.8859 O   0  0  0  0  0  0  0  0  0  0  0  0
   27.5469  -18.3354  -16.8647 O   0  0  0  0  0  0  0  0  0  0  0  0
  1  2  1  0
  2  3  1  0
  3  4  1  6
  5  3  1  0
  5  6  1  1
  7  8  2  0
  7  5  1  0
  9 10  1  0
 10 11  1  0
 11 13  1  0
 11 12  1  6
 13 14  1  1
 14  7  1  0
 15 13  1  0
 16 15  2  0
 17 15  1  0
 18 25  1  0
 18 17  1  0
 18 19  1  1
 20 19  1  0
 21 20  2  0
 22 21  1  0
 23 22  1  0
 23 24  2  0
 24 20  1  0
 25 27  1  0
 26 25  2  0
M  END
$$$$
