IIH.pdb
     RDKit          3D

 27 27  0  0  1  0  0  0  0  0999 V2000
   33.3616  -22.2107  -10.1937 C   0  0  0  0  0  0  0  0  0  0  0  0
   32.2608  -21.6586  -11.0716 C   0  0  0  0  0  0  0  0  0  0  0  0
   30.8917  -22.1190  -10.6879 C   0  0  2  0  0  0  0  0  0  0  0  0
   30.8858  -23.6353  -10.7133 C   0  0  0  0  0  0  0  0  0  0  0  0
   29.8508  -21.5561  -11.6351 C   0  0  2  0  0  0  0  0  0  0  0  0
   30.1933  -20.1092  -11.7044 N   0  0  0  0  0  0  0  0  0  0  0  0
   28.4784  -21.6032  -11.0925 C   0  0  0  0  0  0  0  0  0  0  0  0
   27.7735  -22.6192  -11.3085 O   0  0  0  0  0  0  0  0  0  0  0  0
   27.1394  -19.4432   -6.2875 C   0  0  0  0  0  0  0  0  0  0  0  0
   27.0963  -20.4464   -7.4097 C   0  0  0  0  0  0  0  0  0  0  0  0
   26.2069  -20.1030   -8.5330 C   0  0  2  0  0  0  0  0  0  0  0  0
   24.7420  -20.4692   -8.2288 C   0  0  0  0  0  0  0  0  0  0  0  0
   26.4901  -20.6461   -9.8778 C   0  0  2  0  0  0  0  0  0  0  0  0
   27.8604  -20.5767  -10.3225 N   0  0  0  0  0  0  0  0  0  0  0  0
   25.5507  -20.1475  -10.9314 C   0  0  0  0  0  0  0  0  0  0  0  0
   25.5641  -18.9699  -11.3716 O   0  0  0  0  0  0  0  0  0  0  0  0
   24.5763  -21.0142  -11.4924 N   0  0  0  0  0  0  0  0  0  0  0  0
   23.6798  -20.5724  -12.5461 C   0  0  1  0  0  0  0  0  0  0  0  0
   23.9722  -21.4126  -13.7683 C   0  0  0  0  0  0  0  0  0  0  0  0
   23.0751  -21.0198  -14.8686 C   0  0  0  0  0  0  0  0  0  0  0  0
   22.0663  -20.0828  -14.8593 C   0  0  0  0  0  0  0  0  0  0  0  0
   21.4787  -20.0171  -16.0617 N   0  0  0  0  0  0  0  0  0  0  0  0
   22.1062  -20.9085  -16.8437 C   0  0  0  0  0  0  0  0  0  0  0  0
   23.0842  -21.5224  -16.1118 N   0  0  0  0  0  0  0  0  0  0  0  0
   22.2707  -20.6498  -12.1484 C   0  0  0  0  0  0  0  0  0  0  0  0
   21.8161  -21.5330  -11.4035 O   0  0  0  0  0  0  0  0  0  0  0  0
   21.4152  -19.6571  -12.6539 O   0  0  0  0  0  0  0  0  0  0  0  0
  1  2  1  0
  2  3  1  0
  3  4  1  6
  5  3  1  0
  5  6  1  1
  7  8  2  0
  7  5  1  0
  9 10  1  0
 10 11  1  0
 11 13  1  0
 11 12  1  1
 13 14  1  6
 14  7  1  0
 15 13  1  0
 16 15  2  0
 17 15  1  0
 18 25  1  0
 18 17  1  0
 18 19  1  6
 20 19  1  0
 21 20  2  0
 22 21  1  0
 23 22  1  0
 23 24  2  0
 24 20  1  0
 25 27  1  0
 26 25  2  0
M  END
$$$$
