IIH.pdb
     RDKit          3D

 27 27  0  0  1  0  0  0  0  0999 V2000
   21.3331  -31.6015  -12.1683 C   0  0  0  0  0  0  0  0  0  0  0  0
   22.8329  -31.6878  -11.9941 C   0  0  0  0  0  0  0  0  0  0  0  0
   23.2592  -32.4666  -10.7918 C   0  0  2  0  0  0  0  0  0  0  0  0
   22.6055  -31.8405   -9.5751 C   0  0  0  0  0  0  0  0  0  0  0  0
   24.7691  -32.4645  -10.6584 C   0  0  2  0  0  0  0  0  0  0  0  0
   25.2199  -33.2752  -11.8225 N   0  0  0  0  0  0  0  0  0  0  0  0
   25.2531  -33.1931   -9.4688 C   0  0  0  0  0  0  0  0  0  0  0  0
   25.1585  -34.4446   -9.4420 O   0  0  0  0  0  0  0  0  0  0  0  0
   30.1471  -33.4885   -7.5150 C   0  0  0  0  0  0  0  0  0  0  0  0
   28.7017  -33.6535   -7.9037 C   0  0  0  0  0  0  0  0  0  0  0  0
   27.7210  -33.2997   -6.8628 C   0  0  2  0  0  0  0  0  0  0  0  0
   27.9136  -34.1468   -5.5908 C   0  0  0  0  0  0  0  0  0  0  0  0
   26.2774  -33.3565   -7.1734 C   0  0  2  0  0  0  0  0  0  0  0  0
   25.8363  -32.5942   -8.3157 N   0  0  0  0  0  0  0  0  0  0  0  0
   25.4021  -33.1096   -5.9842 C   0  0  0  0  0  0  0  0  0  0  0  0
   25.4176  -32.0414   -5.3214 O   0  0  0  0  0  0  0  0  0  0  0  0
   24.4909  -34.1056   -5.5448 N   0  0  0  0  0  0  0  0  0  0  0  0
   23.6550  -33.9101   -4.3734 C   0  0  1  0  0  0  0  0  0  0  0  0
   22.6418  -35.0318   -4.3505 C   0  0  0  0  0  0  0  0  0  0  0  0
   21.3870  -34.5820   -4.9772 C   0  0  0  0  0  0  0  0  0  0  0  0
   21.2094  -33.6205   -5.9466 C   0  0  0  0  0  0  0  0  0  0  0  0
   19.9109  -33.5020   -6.2547 N   0  0  0  0  0  0  0  0  0  0  0  0
   19.2532  -34.3839   -5.4868 C   0  0  0  0  0  0  0  0  0  0  0  0
   20.1585  -35.0451   -4.7044 N   0  0  0  0  0  0  0  0  0  0  0  0
   24.4368  -33.8482   -3.1346 C   0  0  0  0  0  0  0  0  0  0  0  0
   25.5382  -34.4030   -2.9905 O   0  0  0  0  0  0  0  0  0  0  0  0
   23.8827  -33.1144   -2.0727 O   0  0  0  0  0  0  0  0  0  0  0  0
  1  2  1  0
  2  3  1  0
  3  4  1  1
  5  3  1  0
  5  6  1  6
  7  8  2  0
  7  5  1  0
  9 10  1  0
 10 11  1  0
 11 13  1  0
 11 12  1  1
 13 14  1  6
 14  7  1  0
 15 13  1  0
 16 15  2  0
 17 15  1  0
 18 25  1  0
 18 17  1  0
 18 19  1  1
 20 19  1  0
 21 20  2  0
 22 21  1  0
 23 22  1  0
 23 24  2  0
 24 20  1  0
 25 27  1  0
 26 25  2  0
M  END
$$$$
