IIH.pdb
     RDKit          3D

 27 27  0  0  1  0  0  0  0  0999 V2000
   21.8691  -32.0819  -10.6754 C   0  0  0  0  0  0  0  0  0  0  0  0
   23.3624  -31.9199  -10.4996 C   0  0  0  0  0  0  0  0  0  0  0  0
   23.9382  -32.7600   -9.4057 C   0  0  2  0  0  0  0  0  0  0  0  0
   23.3046  -32.3222   -8.0993 C   0  0  0  0  0  0  0  0  0  0  0  0
   25.4460  -32.6140   -9.3537 C   0  0  2  0  0  0  0  0  0  0  0  0
   25.8989  -33.2533  -10.6193 N   0  0  0  0  0  0  0  0  0  0  0  0
   26.0740  -33.4032   -8.2753 C   0  0  0  0  0  0  0  0  0  0  0  0
   26.1223  -34.6528   -8.3851 O   0  0  0  0  0  0  0  0  0  0  0  0
   31.0417  -33.7299   -6.4120 C   0  0  0  0  0  0  0  0  0  0  0  0
   29.5947  -33.8705   -6.8042 C   0  0  0  0  0  0  0  0  0  0  0  0
   28.6181  -33.5606   -5.7455 C   0  0  2  0  0  0  0  0  0  0  0  0
   28.8776  -34.3904   -4.4741 C   0  0  0  0  0  0  0  0  0  0  0  0
   27.1733  -33.6910   -6.0273 C   0  0  2  0  0  0  0  0  0  0  0  0
   26.6494  -32.8662   -7.0883 N   0  0  0  0  0  0  0  0  0  0  0  0
   26.3177  -33.6085   -4.8016 C   0  0  0  0  0  0  0  0  0  0  0  0
   25.7069  -32.5670   -4.4508 O   0  0  0  0  0  0  0  0  0  0  0  0
   26.1581  -34.7409   -3.9604 N   0  0  0  0  0  0  0  0  0  0  0  0
   25.2691  -34.7179   -2.8123 C   0  0  1  0  0  0  0  0  0  0  0  0
   23.8641  -34.5202   -3.3342 C   0  0  0  0  0  0  0  0  0  0  0  0
   22.9113  -34.5197   -2.2108 C   0  0  0  0  0  0  0  0  0  0  0  0
   23.0492  -33.9393   -0.9700 C   0  0  0  0  0  0  0  0  0  0  0  0
   21.9578  -34.1631   -0.2257 N   0  0  0  0  0  0  0  0  0  0  0  0
   21.1190  -34.8854   -0.9837 C   0  0  0  0  0  0  0  0  0  0  0  0
   21.7041  -35.1034   -2.1999 N   0  0  0  0  0  0  0  0  0  0  0  0
   25.3868  -35.9270   -1.9914 C   0  0  0  0  0  0  0  0  0  0  0  0
   25.9829  -36.9515   -2.3614 O   0  0  0  0  0  0  0  0  0  0  0  0
   24.7824  -35.8927   -0.7239 O   0  0  0  0  0  0  0  0  0  0  0  0
  1  2  1  0
  2  3  1  0
  3  4  1  1
  5  3  1  0
  5  6  1  6
  7  8  2  0
  7  5  1  0
  9 10  1  0
 10 11  1  0
 11 13  1  0
 11 12  1  1
 13 14  1  6
 14  7  1  0
 15 13  1  0
 16 15  2  0
 17 15  1  0
 18 25  1  0
 18 17  1  0
 18 19  1  6
 20 19  1  0
 21 20  2  0
 22 21  1  0
 23 22  1  0
 23 24  2  0
 24 20  1  0
 25 27  1  0
 26 25  2  0
M  END
$$$$
