IIH.pdb
     RDKit          3D

 27 27  0  0  1  0  0  0  0  0999 V2000
   19.0209  -19.1512  -16.0279 C   0  0  0  0  0  0  0  0  0  0  0  0
   20.3638  -19.1030  -15.3340 C   0  0  0  0  0  0  0  0  0  0  0  0
   20.4367  -19.9387  -14.0970 C   0  0  2  0  0  0  0  0  0  0  0  0
   19.3018  -19.5183  -13.1831 C   0  0  0  0  0  0  0  0  0  0  0  0
   21.7777  -19.7672  -13.4114 C   0  0  2  0  0  0  0  0  0  0  0  0
   22.7435  -20.3246  -14.3974 N   0  0  0  0  0  0  0  0  0  0  0  0
   21.9300  -20.6044  -12.2048 C   0  0  0  0  0  0  0  0  0  0  0  0
   21.8144  -21.8499  -12.3101 O   0  0  0  0  0  0  0  0  0  0  0  0
   25.5924  -19.5410   -8.4638 C   0  0  0  0  0  0  0  0  0  0  0  0
   24.7543  -20.5821   -9.1575 C   0  0  0  0  0  0  0  0  0  0  0  0
   23.3402  -20.6339   -8.7472 C   0  0  2  0  0  0  0  0  0  0  0  0
   23.1284  -21.5954   -7.5626 C   0  0  0  0  0  0  0  0  0  0  0  0
   22.3057  -20.9829   -9.7430 C   0  0  2  0  0  0  0  0  0  0  0  0
   22.2061  -20.1198  -10.8943 N   0  0  0  0  0  0  0  0  0  0  0  0
   20.9604  -21.2407   -9.1388 C   0  0  0  0  0  0  0  0  0  0  0  0
   20.1550  -20.3281   -8.8239 O   0  0  0  0  0  0  0  0  0  0  0  0
   20.5284  -22.5700   -8.8902 N   0  0  0  0  0  0  0  0  0  0  0  0
   19.2480  -22.8506   -8.2650 C   0  0  1  0  0  0  0  0  0  0  0  0
   18.3402  -23.4184   -9.3321 C   0  0  0  0  0  0  0  0  0  0  0  0
   16.9978  -23.6505   -8.7718 C   0  0  0  0  0  0  0  0  0  0  0  0
   15.9863  -22.7398   -8.5641 C   0  0  0  0  0  0  0  0  0  0  0  0
   14.9147  -23.3447   -8.0339 N   0  0  0  0  0  0  0  0  0  0  0  0
   15.2339  -24.6409   -7.9001 C   0  0  0  0  0  0  0  0  0  0  0  0
   16.5105  -24.8273   -8.3525 N   0  0  0  0  0  0  0  0  0  0  0  0
   19.3746  -23.7496   -7.1137 C   0  0  0  0  0  0  0  0  0  0  0  0
   20.4117  -24.3770   -6.8445 O   0  0  0  0  0  0  0  0  0  0  0  0
   18.2446  -23.8868   -6.2908 O   0  0  0  0  0  0  0  0  0  0  0  0
  1  2  1  0
  2  3  1  0
  3  4  1  1
  5  3  1  0
  5  6  1  6
  7  8  2  0
  7  5  1  0
  9 10  1  0
 10 11  1  0
 11 13  1  0
 11 12  1  1
 13 14  1  6
 14  7  1  0
 15 13  1  0
 16 15  2  0
 17 15  1  0
 18 25  1  0
 18 17  1  0
 18 19  1  6
 20 19  1  0
 21 20  2  0
 22 21  1  0
 23 22  1  0
 23 24  2  0
 24 20  1  0
 25 27  1  0
 26 25  2  0
M  END
$$$$
