IIH.pdb
     RDKit          3D

 27 27  0  0  1  0  0  0  0  0999 V2000
   15.6417  -13.5486  -19.5656 C   0  0  0  0  0  0  0  0  0  0  0  0
   17.0132  -13.7737  -18.9693 C   0  0  0  0  0  0  0  0  0  0  0  0
   17.4729  -12.6692  -18.0735 C   0  0  2  0  0  0  0  0  0  0  0  0
   17.4612  -11.3827  -18.8762 C   0  0  0  0  0  0  0  0  0  0  0  0
   18.8588  -12.9587  -17.5320 C   0  0  2  0  0  0  0  0  0  0  0  0
   18.6544  -14.1678  -16.6883 N   0  0  0  0  0  0  0  0  0  0  0  0
   19.3548  -11.9206  -16.6066 C   0  0  0  0  0  0  0  0  0  0  0  0
   18.7992  -11.7864  -15.4889 O   0  0  0  0  0  0  0  0  0  0  0  0
   24.1068  -11.5623  -14.3931 C   0  0  0  0  0  0  0  0  0  0  0  0
   22.6707  -11.4848  -14.8392 C   0  0  0  0  0  0  0  0  0  0  0  0
   22.2493  -10.1878  -15.3969 C   0  0  2  0  0  0  0  0  0  0  0  0
   22.4434   -9.0447  -14.3830 C   0  0  0  0  0  0  0  0  0  0  0  0
   20.8776  -10.0336  -15.9246 C   0  0  2  0  0  0  0  0  0  0  0  0
   20.4368  -11.0320  -16.8677 N   0  0  0  0  0  0  0  0  0  0  0  0
   20.5812   -8.6515  -16.4178 C   0  0  0  0  0  0  0  0  0  0  0  0
   21.0836   -8.1652  -17.4627 O   0  0  0  0  0  0  0  0  0  0  0  0
   19.6918   -7.8091  -15.7003 N   0  0  0  0  0  0  0  0  0  0  0  0
   19.4095   -6.4526  -16.1355 C   0  0  1  0  0  0  0  0  0  0  0  0
   18.0770   -6.0568  -15.5413 C   0  0  0  0  0  0  0  0  0  0  0  0
   16.9852   -6.6866  -16.3036 C   0  0  0  0  0  0  0  0  0  0  0  0
   17.0696   -7.4779  -17.4272 C   0  0  0  0  0  0  0  0  0  0  0  0
   15.8475   -7.8583  -17.8235 N   0  0  0  0  0  0  0  0  0  0  0  0
   14.9780   -7.3144  -16.9586 C   0  0  0  0  0  0  0  0  0  0  0  0
   15.6760   -6.5967  -16.0277 N   0  0  0  0  0  0  0  0  0  0  0  0
   20.4763   -5.5159  -15.7690 C   0  0  0  0  0  0  0  0  0  0  0  0
   21.0703   -5.5458  -14.6791 O   0  0  0  0  0  0  0  0  0  0  0  0
   20.8213   -4.5450  -16.7236 O   0  0  0  0  0  0  0  0  0  0  0  0
  1  2  1  0
  2  3  1  0
  3  4  1  6
  5  3  1  0
  5  6  1  1
  7  8  2  0
  7  5  1  0
  9 10  1  0
 10 11  1  0
 11 13  1  0
 11 12  1  1
 13 14  1  6
 14  7  1  0
 15 13  1  0
 16 15  2  0
 17 15  1  0
 18 25  1  0
 18 17  1  0
 18 19  1  1
 20 19  1  0
 21 20  2  0
 22 21  1  0
 23 22  1  0
 23 24  2  0
 24 20  1  0
 25 27  1  0
 26 25  2  0
M  END
$$$$
