KII.pdb
     RDKit          3D

 26 25  0  0  1  0  0  0  0  0999 V2000
    7.0585  -15.0954   20.8037 N   0  0  0  0  0  0  0  0  0  0  0  0
    6.8590  -15.9045   22.0278 C   0  0  1  0  0  0  0  0  0  0  0  0
    7.1344  -17.3323   21.6840 C   0  0  0  0  0  0  0  0  0  0  0  0
    5.8740  -18.1183   21.5757 C   0  0  0  0  0  0  0  0  0  0  0  0
    6.1531  -19.6085   21.7270 C   0  0  0  0  0  0  0  0  0  0  0  0
    4.8863  -20.3929   21.5460 C   0  0  0  0  0  0  0  0  0  0  0  0
    4.5044  -20.3899   20.1513 N   0  0  0  0  0  0  0  0  0  0  0  0
    7.7844  -15.3730   23.0361 C   0  0  0  0  0  0  0  0  0  0  0  0
    9.0239  -15.2314   22.8329 O   0  0  0  0  0  0  0  0  0  0  0  0
    5.9625  -11.5261   26.1575 C   0  0  0  0  0  0  0  0  0  0  0  0
    6.9015  -12.4190   25.3752 C   0  0  0  0  0  0  0  0  0  0  0  0
    7.3189  -13.6289   26.2166 C   0  0  2  0  0  0  0  0  0  0  0  0
    7.9881  -13.0589   27.4369 C   0  0  0  0  0  0  0  0  0  0  0  0
    8.2339  -14.4518   25.3331 C   0  0  2  0  0  0  0  0  0  0  0  0
    7.3194  -14.9842   24.2998 N   0  0  0  0  0  0  0  0  0  0  0  0
    8.8664  -15.5701   26.0282 C   0  0  0  0  0  0  0  0  0  0  0  0
    8.2016  -16.4555   26.6290 O   0  0  0  0  0  0  0  0  0  0  0  0
   13.7547  -17.0679   24.2364 C   0  0  0  0  0  0  0  0  0  0  0  0
   12.3686  -16.9335   24.7766 C   0  0  0  0  0  0  0  0  0  0  0  0
   12.2694  -17.0523   26.2632 C   0  0  2  0  0  0  0  0  0  0  0  0
   12.8656  -18.3959   26.6557 C   0  0  0  0  0  0  0  0  0  0  0  0
   10.8795  -16.8842   26.7924 C   0  0  2  0  0  0  0  0  0  0  0  0
   10.2814  -15.7455   26.0795 N   0  0  0  0  0  0  0  0  0  0  0  0
   10.8397  -16.6661   28.2537 C   0  0  0  0  0  0  0  0  0  0  0  0
   10.8216  -15.5304   28.7616 O   0  0  0  0  0  0  0  0  0  0  0  0
   10.8206  -17.7592   29.1280 O   0  0  0  0  0  0  0  0  0  0  0  0
  2  1  1  6
  3  2  1  0
  4  3  1  0
  5  4  1  0
  6  5  1  0
  7  6  1  0
  8  2  1  0
  8  9  2  0
 10 11  1  0
 11 12  1  0
 12 13  1  1
 14 15  1  6
 14 12  1  0
 15  8  1  0
 16 14  1  0
 17 16  2  0
 19 18  1  0
 19 20  1  0
 20 21  1  6
 22 20  1  0
 22 23  1  6
 23 16  1  0
 24 26  1  0
 24 22  1  0
 25 24  2  0
M  END
$$$$
