KII.pdb
     RDKit          3D

 26 25  0  0  1  0  0  0  0  0999 V2000
    9.8023  -15.7789   19.7362 N   0  0  0  0  0  0  0  0  0  0  0  0
    9.3765  -16.6245   20.8750 C   0  0  1  0  0  0  0  0  0  0  0  0
   10.1838  -17.8812   20.8402 C   0  0  0  0  0  0  0  0  0  0  0  0
   10.1813  -18.4918   19.4817 C   0  0  0  0  0  0  0  0  0  0  0  0
   10.6386  -19.9439   19.5421 C   0  0  0  0  0  0  0  0  0  0  0  0
   10.5497  -20.5712   18.1815 C   0  0  0  0  0  0  0  0  0  0  0  0
   10.9572  -21.9566   18.2542 N   0  0  0  0  0  0  0  0  0  0  0  0
    9.6048  -15.8344   22.0912 C   0  0  0  0  0  0  0  0  0  0  0  0
   10.6876  -15.2277   22.3302 O   0  0  0  0  0  0  0  0  0  0  0  0
    6.2162  -12.6536   25.9421 C   0  0  0  0  0  0  0  0  0  0  0  0
    7.5526  -13.2939   25.6340 C   0  0  0  0  0  0  0  0  0  0  0  0
    7.3904  -14.3995   24.5865 C   0  0  2  0  0  0  0  0  0  0  0  0
    6.5114  -15.4369   25.2290 C   0  0  0  0  0  0  0  0  0  0  0  0
    8.7920  -14.8807   24.2720 C   0  0  2  0  0  0  0  0  0  0  0  0
    8.6026  -15.7114   23.0632 N   0  0  0  0  0  0  0  0  0  0  0  0
    9.3771  -15.7048   25.3268 C   0  0  0  0  0  0  0  0  0  0  0  0
    9.2322  -16.9555   25.3659 O   0  0  0  0  0  0  0  0  0  0  0  0
   10.7118  -13.0700   29.8882 C   0  0  0  0  0  0  0  0  0  0  0  0
   11.0429  -13.8688   28.6702 C   0  0  0  0  0  0  0  0  0  0  0  0
   10.6068  -15.2972   28.7292 C   0  0  2  0  0  0  0  0  0  0  0  0
   11.4020  -15.9730   29.8363 C   0  0  0  0  0  0  0  0  0  0  0  0
   10.7369  -16.0240   27.4274 C   0  0  2  0  0  0  0  0  0  0  0  0
   10.1556  -15.1585   26.3902 N   0  0  0  0  0  0  0  0  0  0  0  0
   10.0775  -17.3468   27.4352 C   0  0  0  0  0  0  0  0  0  0  0  0
   10.6948  -18.4021   27.6661 O   0  0  0  0  0  0  0  0  0  0  0  0
    8.7057  -17.4506   27.1765 O   0  0  0  0  0  0  0  0  0  0  0  0
  2  1  1  6
  3  2  1  0
  4  3  1  0
  5  4  1  0
  6  5  1  0
  7  6  1  0
  8  2  1  0
  8  9  2  0
 10 11  1  0
 11 12  1  0
 12 13  1  1
 14 15  1  6
 14 12  1  0
 15  8  1  0
 16 14  1  0
 17 16  2  0
 19 18  1  0
 19 20  1  0
 20 21  1  1
 22 20  1  0
 22 23  1  6
 23 16  1  0
 24 26  1  0
 24 22  1  0
 25 24  2  0
M  END
$$$$
