KII.pdb
     RDKit          3D

 26 25  0  0  1  0  0  0  0  0999 V2000
    7.7720  -16.1182   20.8177 N   0  0  0  0  0  0  0  0  0  0  0  0
    7.2618  -16.5701   22.1325 C   0  0  1  0  0  0  0  0  0  0  0  0
    7.3904  -18.0577   22.1877 C   0  0  0  0  0  0  0  0  0  0  0  0
    6.5651  -18.7142   21.1360 C   0  0  0  0  0  0  0  0  0  0  0  0
    5.1500  -18.9675   21.6407 C   0  0  0  0  0  0  0  0  0  0  0  0
    4.3102  -19.5631   20.5485 C   0  0  0  0  0  0  0  0  0  0  0  0
    2.9693  -19.7983   21.0358 N   0  0  0  0  0  0  0  0  0  0  0  0
    8.0713  -15.8904   23.1515 C   0  0  0  0  0  0  0  0  0  0  0  0
    9.3192  -15.7198   23.0448 O   0  0  0  0  0  0  0  0  0  0  0  0
    5.6234  -12.0094   25.8411 C   0  0  0  0  0  0  0  0  0  0  0  0
    6.6986  -12.8374   25.1707 C   0  0  0  0  0  0  0  0  0  0  0  0
    7.2246  -13.9119   26.1272 C   0  0  2  0  0  0  0  0  0  0  0  0
    7.7653  -13.1640   27.3146 C   0  0  0  0  0  0  0  0  0  0  0  0
    8.2710  -14.6827   25.3487 C   0  0  2  0  0  0  0  0  0  0  0  0
    7.4779  -15.3831   24.3154 N   0  0  0  0  0  0  0  0  0  0  0  0
    8.9842  -15.6732   26.1514 C   0  0  0  0  0  0  0  0  0  0  0  0
    8.3871  -16.5613   26.8158 O   0  0  0  0  0  0  0  0  0  0  0  0
   13.3957  -19.0109   26.9451 C   0  0  0  0  0  0  0  0  0  0  0  0
   13.3982  -17.6159   27.4791 C   0  0  0  0  0  0  0  0  0  0  0  0
   12.5479  -16.6572   26.7098 C   0  0  2  0  0  0  0  0  0  0  0  0
   13.0950  -15.2594   26.9581 C   0  0  0  0  0  0  0  0  0  0  0  0
   11.0891  -16.7491   27.0318 C   0  0  2  0  0  0  0  0  0  0  0  0
   10.4073  -15.7112   26.2439 N   0  0  0  0  0  0  0  0  0  0  0  0
   10.8036  -16.5843   28.4726 C   0  0  0  0  0  0  0  0  0  0  0  0
   10.7292  -17.5484   29.2556 O   0  0  0  0  0  0  0  0  0  0  0  0
   10.6041  -15.3067   29.0087 O   0  0  0  0  0  0  0  0  0  0  0  0
  2  1  1  6
  3  2  1  0
  4  3  1  0
  5  4  1  0
  6  5  1  0
  7  6  1  0
  8  2  1  0
  8  9  2  0
 10 11  1  0
 11 12  1  0
 12 13  1  1
 14 15  1  6
 14 12  1  0
 15  8  1  0
 16 14  1  0
 17 16  2  0
 19 18  1  0
 19 20  1  0
 20 21  1  1
 22 20  1  0
 22 23  1  6
 23 16  1  0
 24 26  1  0
 24 22  1  0
 25 24  2  0
M  END
$$$$
