KII.pdb
     RDKit          3D

 26 25  0  0  1  0  0  0  0  0999 V2000
   12.6375  -17.0514   19.6558 N   0  0  0  0  0  0  0  0  0  0  0  0
   11.4074  -17.5183   20.3356 C   0  0  1  0  0  0  0  0  0  0  0  0
   11.7207  -18.8129   21.0126 C   0  0  0  0  0  0  0  0  0  0  0  0
   11.5243  -19.9685   20.0937 C   0  0  0  0  0  0  0  0  0  0  0  0
   10.1647  -20.6161   20.3245 C   0  0  0  0  0  0  0  0  0  0  0  0
   10.0275  -21.8470   19.4766 C   0  0  0  0  0  0  0  0  0  0  0  0
    8.7316  -22.4498   19.6958 N   0  0  0  0  0  0  0  0  0  0  0  0
   11.0235  -16.4607   21.2788 C   0  0  0  0  0  0  0  0  0  0  0  0
   11.8474  -15.8797   22.0413 O   0  0  0  0  0  0  0  0  0  0  0  0
    7.3154  -12.7895   20.0720 C   0  0  0  0  0  0  0  0  0  0  0  0
    8.4904  -13.4810   20.7294 C   0  0  0  0  0  0  0  0  0  0  0  0
    8.0063  -14.4586   21.8046 C   0  0  2  0  0  0  0  0  0  0  0  0
    7.2004  -13.6311   22.7676 C   0  0  0  0  0  0  0  0  0  0  0  0
    9.2573  -15.0675   22.4039 C   0  0  2  0  0  0  0  0  0  0  0  0
    9.6916  -16.0348   21.3729 N   0  0  0  0  0  0  0  0  0  0  0  0
    9.0171  -15.7833   23.6545 C   0  0  0  0  0  0  0  0  0  0  0  0
    8.6151  -16.9768   23.6836 O   0  0  0  0  0  0  0  0  0  0  0  0
   10.6214  -13.1847   28.2786 C   0  0  0  0  0  0  0  0  0  0  0  0
   10.4901  -14.2893   27.2816 C   0  0  0  0  0  0  0  0  0  0  0  0
    9.1749  -14.9987   27.3134 C   0  0  2  0  0  0  0  0  0  0  0  0
    9.0674  -15.7032   28.6576 C   0  0  0  0  0  0  0  0  0  0  0  0
    8.9696  -15.9442   26.1715 C   0  0  2  0  0  0  0  0  0  0  0  0
    9.2192  -15.1880   24.9352 N   0  0  0  0  0  0  0  0  0  0  0  0
    7.6192  -16.5449   26.1539 C   0  0  0  0  0  0  0  0  0  0  0  0
    6.6359  -15.9691   25.6543 O   0  0  0  0  0  0  0  0  0  0  0  0
    7.4047  -17.8102   26.7131 O   0  0  0  0  0  0  0  0  0  0  0  0
  2  1  1  1
  3  2  1  0
  4  3  1  0
  5  4  1  0
  6  5  1  0
  7  6  1  0
  8  2  1  0
  8  9  2  0
 10 11  1  0
 11 12  1  0
 12 13  1  1
 14 15  1  6
 14 12  1  0
 15  8  1  0
 16 14  1  0
 17 16  2  0
 19 18  1  0
 19 20  1  0
 20 21  1  1
 22 20  1  0
 22 23  1  6
 23 16  1  0
 24 26  1  0
 24 22  1  0
 25 24  2  0
M  END
$$$$
