KII.pdb
     RDKit          3D

 26 25  0  0  1  0  0  0  0  0999 V2000
    8.7492  -15.9977   19.9042 N   0  0  0  0  0  0  0  0  0  0  0  0
    8.3316  -16.6319   21.1756 C   0  0  1  0  0  0  0  0  0  0  0  0
    8.8647  -18.0277   21.1887 C   0  0  0  0  0  0  0  0  0  0  0  0
    9.3115  -18.4519   19.8328 C   0  0  0  0  0  0  0  0  0  0  0  0
    9.8200  -19.8879   19.8571 C   0  0  0  0  0  0  0  0  0  0  0  0
   10.3043  -20.2883   18.4940 C   0  0  0  0  0  0  0  0  0  0  0  0
   10.7973  -21.6471   18.5299 N   0  0  0  0  0  0  0  0  0  0  0  0
    8.8795  -15.8030   22.2565 C   0  0  0  0  0  0  0  0  0  0  0  0
    9.9930  -15.2099   22.1785 O   0  0  0  0  0  0  0  0  0  0  0  0
    6.0336  -12.1252   24.6056 C   0  0  0  0  0  0  0  0  0  0  0  0
    7.2143  -12.9462   24.1336 C   0  0  0  0  0  0  0  0  0  0  0  0
    7.4880  -14.1007   25.1022 C   0  0  2  0  0  0  0  0  0  0  0  0
    7.6908  -13.4586   26.4469 C   0  0  0  0  0  0  0  0  0  0  0  0
    8.7115  -14.8126   24.5624 C   0  0  2  0  0  0  0  0  0  0  0  0
    8.1693  -15.6246   23.4515 N   0  0  0  0  0  0  0  0  0  0  0  0
    9.3462  -15.7008   25.5331 C   0  0  0  0  0  0  0  0  0  0  0  0
    8.8409  -16.8041   25.8710 O   0  0  0  0  0  0  0  0  0  0  0  0
   10.1161  -13.5920   29.8635 C   0  0  0  0  0  0  0  0  0  0  0  0
   10.6842  -14.1771   28.6120 C   0  0  0  0  0  0  0  0  0  0  0  0
   10.6174  -15.6686   28.5403 C   0  0  2  0  0  0  0  0  0  0  0  0
   11.3843  -16.2189   29.7335 C   0  0  0  0  0  0  0  0  0  0  0  0
   11.1172  -16.2352   27.2483 C   0  0  2  0  0  0  0  0  0  0  0  0
   10.5836  -15.3884   26.1708 N   0  0  0  0  0  0  0  0  0  0  0  0
   10.7269  -17.6465   27.0465 C   0  0  0  0  0  0  0  0  0  0  0  0
   11.5610  -18.5589   26.9050 O   0  0  0  0  0  0  0  0  0  0  0  0
    9.3740  -18.0038   27.0082 O   0  0  0  0  0  0  0  0  0  0  0  0
  2  1  1  6
  3  2  1  0
  4  3  1  0
  5  4  1  0
  6  5  1  0
  7  6  1  0
  8  2  1  0
  8  9  2  0
 10 11  1  0
 11 12  1  0
 12 13  1  1
 14 15  1  6
 14 12  1  0
 15  8  1  0
 16 14  1  0
 17 16  2  0
 19 18  1  0
 19 20  1  0
 20 21  1  1
 22 20  1  0
 22 23  1  6
 23 16  1  0
 24 26  1  0
 24 22  1  0
 25 24  2  0
M  END
$$$$
