KII.pdb
     RDKit          3D

 26 25  0  0  1  0  0  0  0  0999 V2000
   12.7578  -16.9254   19.6907 N   0  0  0  0  0  0  0  0  0  0  0  0
   11.5902  -17.5093   20.3899 C   0  0  1  0  0  0  0  0  0  0  0  0
   12.0305  -18.7850   21.0312 C   0  0  0  0  0  0  0  0  0  0  0  0
   12.6602  -19.7023   20.0412 C   0  0  0  0  0  0  0  0  0  0  0  0
   13.0324  -21.0275   20.6943 C   0  0  0  0  0  0  0  0  0  0  0  0
   13.4530  -22.0192   19.6491 C   0  0  0  0  0  0  0  0  0  0  0  0
   12.2943  -22.7276   19.1528 N   0  0  0  0  0  0  0  0  0  0  0  0
   11.1419  -16.5071   21.3646 C   0  0  0  0  0  0  0  0  0  0  0  0
   11.9364  -15.7774   22.0235 O   0  0  0  0  0  0  0  0  0  0  0  0
    6.9580  -13.5427   20.2024 C   0  0  0  0  0  0  0  0  0  0  0  0
    8.2461  -14.0335   20.8275 C   0  0  0  0  0  0  0  0  0  0  0  0
    7.9518  -14.8994   22.0562 C   0  0  2  0  0  0  0  0  0  0  0  0
    7.1565  -14.0237   22.9846 C   0  0  0  0  0  0  0  0  0  0  0  0
    9.3022  -15.3179   22.6007 C   0  0  2  0  0  0  0  0  0  0  0  0
    9.7763  -16.3074   21.6089 N   0  0  0  0  0  0  0  0  0  0  0  0
    9.2304  -15.9579   23.9119 C   0  0  0  0  0  0  0  0  0  0  0  0
    8.9578  -17.1795   24.0537 O   0  0  0  0  0  0  0  0  0  0  0  0
   10.6203  -12.7966   28.3003 C   0  0  0  0  0  0  0  0  0  0  0  0
   10.6441  -13.9441   27.3443 C   0  0  0  0  0  0  0  0  0  0  0  0
    9.4984  -14.8933   27.4880 C   0  0  2  0  0  0  0  0  0  0  0  0
    9.5784  -15.4996   28.8811 C   0  0  0  0  0  0  0  0  0  0  0  0
    9.4476  -15.9458   26.4251 C   0  0  2  0  0  0  0  0  0  0  0  0
    9.4634  -15.2510   25.1291 N   0  0  0  0  0  0  0  0  0  0  0  0
    8.2621  -16.8216   26.5349 C   0  0  0  0  0  0  0  0  0  0  0  0
    7.1561  -16.5161   26.0537 O   0  0  0  0  0  0  0  0  0  0  0  0
    8.3539  -18.0498   27.2003 O   0  0  0  0  0  0  0  0  0  0  0  0
  2  1  1  1
  3  2  1  0
  4  3  1  0
  5  4  1  0
  6  5  1  0
  7  6  1  0
  8  2  1  0
  8  9  2  0
 10 11  1  0
 11 12  1  0
 12 13  1  1
 14 15  1  6
 14 12  1  0
 15  8  1  0
 16 14  1  0
 17 16  2  0
 19 18  1  0
 19 20  1  0
 20 21  1  1
 22 20  1  0
 22 23  1  6
 23 16  1  0
 24 26  1  0
 24 22  1  0
 25 24  2  0
M  END
$$$$
