KII.pdb
     RDKit          3D

 26 25  0  0  1  0  0  0  0  0999 V2000
    7.5257  -14.3922   20.2542 N   0  0  0  0  0  0  0  0  0  0  0  0
    6.9677  -15.0761   21.4432 C   0  0  1  0  0  0  0  0  0  0  0  0
    6.9002  -16.5380   21.1420 C   0  0  0  0  0  0  0  0  0  0  0  0
    6.6350  -16.7838   19.6972 C   0  0  0  0  0  0  0  0  0  0  0  0
    7.5126  -17.9133   19.1722 C   0  0  0  0  0  0  0  0  0  0  0  0
    7.1992  -18.1839   17.7295 C   0  0  0  0  0  0  0  0  0  0  0  0
    8.0433  -19.2499   17.2375 N   0  0  0  0  0  0  0  0  0  0  0  0
    7.8647  -14.7663   22.5635 C   0  0  0  0  0  0  0  0  0  0  0  0
    9.1231  -14.7254   22.4526 O   0  0  0  0  0  0  0  0  0  0  0  0
    6.2174  -11.2226   26.0540 C   0  0  0  0  0  0  0  0  0  0  0  0
    7.1578  -12.0912   25.2465 C   0  0  0  0  0  0  0  0  0  0  0  0
    7.3695  -13.4415   25.9376 C   0  0  2  0  0  0  0  0  0  0  0  0
    8.0201  -13.1217   27.2552 C   0  0  0  0  0  0  0  0  0  0  0  0
    8.2353  -14.2560   24.9984 C   0  0  2  0  0  0  0  0  0  0  0  0
    7.3495  -14.4900   23.8373 N   0  0  0  0  0  0  0  0  0  0  0  0
    8.6436  -15.5453   25.5507 C   0  0  0  0  0  0  0  0  0  0  0  0
    7.8131  -16.4356   25.8739 O   0  0  0  0  0  0  0  0  0  0  0  0
   12.6486  -18.1220   23.3104 C   0  0  0  0  0  0  0  0  0  0  0  0
   11.4263  -17.7145   24.0661 C   0  0  0  0  0  0  0  0  0  0  0  0
   11.6063  -17.6550   25.5487 C   0  0  2  0  0  0  0  0  0  0  0  0
   12.0854  -19.0245   26.0067 C   0  0  0  0  0  0  0  0  0  0  0  0
   10.3820  -17.2172   26.2899 C   0  0  2  0  0  0  0  0  0  0  0  0
   10.0101  -15.8946   25.7653 N   0  0  0  0  0  0  0  0  0  0  0  0
   10.5807  -17.1627   27.7535 C   0  0  0  0  0  0  0  0  0  0  0  0
   10.8525  -16.1075   28.3542 O   0  0  0  0  0  0  0  0  0  0  0  0
   10.4657  -18.3264   28.5230 O   0  0  0  0  0  0  0  0  0  0  0  0
  2  1  1  6
  3  2  1  0
  4  3  1  0
  5  4  1  0
  6  5  1  0
  7  6  1  0
  8  2  1  0
  8  9  2  0
 10 11  1  0
 11 12  1  0
 12 13  1  1
 14 15  1  6
 14 12  1  0
 15  8  1  0
 16 14  1  0
 17 16  2  0
 19 18  1  0
 19 20  1  0
 20 21  1  1
 22 20  1  0
 22 23  1  6
 23 16  1  0
 24 26  1  0
 24 22  1  0
 25 24  2  0
M  END
$$$$
