KII.pdb
     RDKit          3D

 26 25  0  0  1  0  0  0  0  0999 V2000
   12.2501  -18.3189   20.1454 N   0  0  0  0  0  0  0  0  0  0  0  0
   10.8818  -18.4428   20.6981 C   0  0  1  0  0  0  0  0  0  0  0  0
   10.8543  -19.6408   21.5905 C   0  0  0  0  0  0  0  0  0  0  0  0
   10.9017  -20.9052   20.8048 C   0  0  0  0  0  0  0  0  0  0  0  0
   12.2961  -21.1344   20.2351 C   0  0  0  0  0  0  0  0  0  0  0  0
   12.3540  -22.4556   19.5252 C   0  0  0  0  0  0  0  0  0  0  0  0
   13.6681  -22.6458   18.9527 N   0  0  0  0  0  0  0  0  0  0  0  0
   10.6056  -17.1919   21.4155 C   0  0  0  0  0  0  0  0  0  0  0  0
   11.5073  -16.4869   21.9516 O   0  0  0  0  0  0  0  0  0  0  0  0
    7.2630  -12.4582   20.5231 C   0  0  0  0  0  0  0  0  0  0  0  0
    8.0465  -13.2541   21.5446 C   0  0  0  0  0  0  0  0  0  0  0  0
    8.0805  -14.7364   21.1605 C   0  0  2  0  0  0  0  0  0  0  0  0
    6.6527  -15.2035   21.2318 C   0  0  0  0  0  0  0  0  0  0  0  0
    9.0030  -15.4022   22.1607 C   0  0  2  0  0  0  0  0  0  0  0  0
    9.2949  -16.7102   21.5351 N   0  0  0  0  0  0  0  0  0  0  0  0
    8.3852  -15.6278   23.4651 C   0  0  0  0  0  0  0  0  0  0  0  0
    7.8295  -16.7163   23.7705 O   0  0  0  0  0  0  0  0  0  0  0  0
    6.0017  -11.6083   26.5313 C   0  0  0  0  0  0  0  0  0  0  0  0
    6.5016  -12.7826   25.7551 C   0  0  0  0  0  0  0  0  0  0  0  0
    7.5178  -13.6114   26.4724 C   0  0  2  0  0  0  0  0  0  0  0  0
    8.7776  -12.7701   26.6134 C   0  0  0  0  0  0  0  0  0  0  0  0
    7.7978  -14.9271   25.8162 C   0  0  2  0  0  0  0  0  0  0  0  0
    8.3640  -14.6361   24.4905 N   0  0  0  0  0  0  0  0  0  0  0  0
    6.5971  -15.7807   25.6965 C   0  0  0  0  0  0  0  0  0  0  0  0
    5.9678  -15.9067   24.6305 O   0  0  0  0  0  0  0  0  0  0  0  0
    6.1234  -16.4885   26.8075 O   0  0  0  0  0  0  0  0  0  0  0  0
  2  1  1  1
  3  2  1  0
  4  3  1  0
  5  4  1  0
  6  5  1  0
  7  6  1  0
  8  2  1  0
  8  9  2  0
 10 11  1  0
 11 12  1  0
 12 13  1  1
 14 15  1  6
 14 12  1  0
 15  8  1  0
 16 14  1  0
 17 16  2  0
 19 18  1  0
 19 20  1  0
 20 21  1  6
 22 20  1  0
 22 23  1  6
 23 16  1  0
 24 26  1  0
 24 22  1  0
 25 24  2  0
M  END
$$$$
