KII.pdb
     RDKit          3D

 26 25  0  0  1  0  0  0  0  0999 V2000
    5.9115  -19.3238   20.4571 N   0  0  0  0  0  0  0  0  0  0  0  0
    7.1542  -18.9224   21.1555 C   0  0  1  0  0  0  0  0  0  0  0  0
    7.8520  -17.9111   20.3052 C   0  0  0  0  0  0  0  0  0  0  0  0
    8.4177  -18.5321   19.0753 C   0  0  0  0  0  0  0  0  0  0  0  0
    9.8220  -18.0076   18.8033 C   0  0  0  0  0  0  0  0  0  0  0  0
   10.4127  -18.7043   17.6122 C   0  0  0  0  0  0  0  0  0  0  0  0
   11.7135  -18.1471   17.3152 N   0  0  0  0  0  0  0  0  0  0  0  0
    6.7465  -18.3857   22.4598 C   0  0  0  0  0  0  0  0  0  0  0  0
    5.7197  -17.6668   22.6230 O   0  0  0  0  0  0  0  0  0  0  0  0
    6.9938  -19.9412   28.2594 C   0  0  0  0  0  0  0  0  0  0  0  0
    6.8497  -18.8267   27.2455 C   0  0  0  0  0  0  0  0  0  0  0  0
    7.1805  -19.3336   25.8385 C   0  0  2  0  0  0  0  0  0  0  0  0
    8.5493  -19.9475   25.9433 C   0  0  0  0  0  0  0  0  0  0  0  0
    7.1109  -18.1201   24.9343 C   0  0  2  0  0  0  0  0  0  0  0  0
    7.4959  -18.6594   23.6121 N   0  0  0  0  0  0  0  0  0  0  0  0
    8.0463  -17.0610   25.3051 C   0  0  0  0  0  0  0  0  0  0  0  0
    9.2823  -17.1399   25.0748 O   0  0  0  0  0  0  0  0  0  0  0  0
    6.0494  -12.0081   25.9265 C   0  0  0  0  0  0  0  0  0  0  0  0
    7.0367  -13.0621   25.5450 C   0  0  0  0  0  0  0  0  0  0  0  0
    7.8419  -13.5975   26.6847 C   0  0  2  0  0  0  0  0  0  0  0  0
    8.7522  -12.4781   27.1676 C   0  0  0  0  0  0  0  0  0  0  0  0
    8.6124  -14.8367   26.3517 C   0  0  2  0  0  0  0  0  0  0  0  0
    7.6333  -15.8595   25.9540 N   0  0  0  0  0  0  0  0  0  0  0  0
    9.4458  -15.3183   27.4734 C   0  0  0  0  0  0  0  0  0  0  0  0
    8.9930  -16.0315   28.3869 O   0  0  0  0  0  0  0  0  0  0  0  0
   10.8016  -14.9763   27.5400 O   0  0  0  0  0  0  0  0  0  0  0  0
  2  1  1  6
  3  2  1  0
  4  3  1  0
  5  4  1  0
  6  5  1  0
  7  6  1  0
  8  2  1  0
  8  9  2  0
 10 11  1  0
 11 12  1  0
 12 13  1  1
 14 15  1  6
 14 12  1  0
 15  8  1  0
 16 14  1  0
 17 16  2  0
 19 18  1  0
 19 20  1  0
 20 21  1  6
 22 20  1  0
 22 23  1  1
 23 16  1  0
 24 26  1  0
 24 22  1  0
 25 24  2  0
M  END
$$$$
