KII.pdb
     RDKit          3D

 26 25  0  0  1  0  0  0  0  0999 V2000
    6.0022  -18.8666   22.1899 N   0  0  0  0  0  0  0  0  0  0  0  0
    6.4593  -18.5799   23.5690 C   0  0  1  0  0  0  0  0  0  0  0  0
    7.3607  -19.6930   23.9942 C   0  0  0  0  0  0  0  0  0  0  0  0
    6.6765  -20.6143   24.9436 C   0  0  0  0  0  0  0  0  0  0  0  0
    7.6413  -21.6778   25.4530 C   0  0  0  0  0  0  0  0  0  0  0  0
    8.4474  -21.1388   26.5986 C   0  0  0  0  0  0  0  0  0  0  0  0
    8.3805  -22.0532   27.7166 N   0  0  0  0  0  0  0  0  0  0  0  0
    7.1418  -17.2808   23.5220 C   0  0  0  0  0  0  0  0  0  0  0  0
    8.0526  -17.0063   22.6897 O   0  0  0  0  0  0  0  0  0  0  0  0
    6.4904  -11.7268   26.1069 C   0  0  0  0  0  0  0  0  0  0  0  0
    7.2665  -12.6929   25.2379 C   0  0  0  0  0  0  0  0  0  0  0  0
    6.6619  -14.0976   25.3228 C   0  0  2  0  0  0  0  0  0  0  0  0
    6.6827  -14.4572   26.7828 C   0  0  0  0  0  0  0  0  0  0  0  0
    7.5360  -14.9778   24.4532 C   0  0  2  0  0  0  0  0  0  0  0  0
    6.7995  -16.2599   24.4192 N   0  0  0  0  0  0  0  0  0  0  0  0
    8.8670  -15.2101   25.0087 C   0  0  0  0  0  0  0  0  0  0  0  0
    9.9206  -14.9071   24.3882 O   0  0  0  0  0  0  0  0  0  0  0  0
    9.8394  -14.3437   30.2234 C   0  0  0  0  0  0  0  0  0  0  0  0
    9.6565  -15.2792   29.0734 C   0  0  0  0  0  0  0  0  0  0  0  0
   10.6313  -15.0858   27.9570 C   0  0  2  0  0  0  0  0  0  0  0  0
   10.5416  -13.6319   27.5179 C   0  0  0  0  0  0  0  0  0  0  0  0
   10.4325  -16.0268   26.8102 C   0  0  2  0  0  0  0  0  0  0  0  0
    9.0755  -15.7956   26.2929 N   0  0  0  0  0  0  0  0  0  0  0  0
   10.6144  -17.4443   27.1872 C   0  0  0  0  0  0  0  0  0  0  0  0
   11.6996  -17.8953   27.5960 O   0  0  0  0  0  0  0  0  0  0  0  0
    9.5433  -18.3406   27.0922 O   0  0  0  0  0  0  0  0  0  0  0  0
  2  1  1  6
  3  2  1  0
  4  3  1  0
  5  4  1  0
  6  5  1  0
  7  6  1  0
  8  2  1  0
  8  9  2  0
 10 11  1  0
 11 12  1  0
 12 13  1  1
 14 15  1  1
 14 12  1  0
 15  8  1  0
 16 14  1  0
 17 16  2  0
 19 18  1  0
 19 20  1  0
 20 21  1  6
 22 20  1  0
 22 23  1  1
 23 16  1  0
 24 26  1  0
 24 22  1  0
 25 24  2  0
M  END
$$$$
