LME.pdb
     RDKit          3D

 26 25  0  0  1  0  0  0  0  0999 V2000
   18.2513  -11.5110  -19.9867 C   0  0  0  0  0  0  0  0  0  0  0  0
   17.5556  -11.0935  -18.7349 C   0  0  2  0  0  0  0  0  0  0  0  0
   16.6331   -9.9168  -19.0837 C   0  0  0  0  0  0  0  0  0  0  0  0
   18.4204  -10.6377  -17.6185 C   0  0  0  0  0  0  0  0  0  0  0  0
   19.4299  -11.6069  -17.1053 C   0  0  2  0  0  0  0  0  0  0  0  0
   18.7560  -12.7159  -16.4739 N   0  0  0  0  0  0  0  0  0  0  0  0
   20.3892  -10.9201  -16.1931 C   0  0  0  0  0  0  0  0  0  0  0  0
   20.0498  -10.6240  -14.9993 O   0  0  0  0  0  0  0  0  0  0  0  0
   27.0789  -10.6362  -16.9987 C   0  0  0  0  0  0  0  0  0  0  0  0
   26.6240  -10.6065  -15.2356 S   0  0  0  0  0  0  0  0  0  0  0  0
   25.0412   -9.7534  -15.0074 C   0  0  0  0  0  0  0  0  0  0  0  0
   23.9979  -10.3851  -15.8809 C   0  0  0  0  0  0  0  0  0  0  0  0
   22.6101   -9.8465  -15.6577 C   0  0  2  0  0  0  0  0  0  0  0  0
   21.7108  -10.5432  -16.5442 N   0  0  0  0  0  0  0  0  0  0  0  0
   22.6016   -8.3797  -15.8498 C   0  0  0  0  0  0  0  0  0  0  0  0
   22.7187   -7.9554  -17.0213 O   0  0  0  0  0  0  0  0  0  0  0  0
   22.4719   -7.4385  -14.7972 N   0  0  0  0  0  0  0  0  0  0  0  0
   22.3521   -5.9944  -15.0581 C   0  0  1  0  0  0  0  0  0  0  0  0
   21.3120   -5.7743  -16.1020 C   0  0  0  0  0  0  0  0  0  0  0  0
   19.8910   -5.8627  -15.7110 C   0  0  0  0  0  0  0  0  0  0  0  0
   18.9121   -5.6294  -16.7990 C   0  0  0  0  0  0  0  0  0  0  0  0
   19.3122   -5.2276  -17.9495 O   0  0  0  0  0  0  0  0  0  0  0  0
   22.3809   -5.1731  -13.8789 C   0  0  0  0  0  0  0  0  0  0  0  0
   22.2092   -3.7871  -13.8475 O   0  0  0  0  0  0  0  0  0  0  0  0
   17.5478   -5.8168  -16.6684 O   0  0  0  0  0  0  0  0  0  0  0  0
   22.5879   -5.7317  -12.7481 O   0  0  0  0  0  0  0  0  0  0  0  0
  2  4  1  0
  2  1  1  6
  3  2  1  0
  5  6  1  1
  5  4  1  0
  7  5  1  0
  8  7  2  0
 10  9  1  0
 10 11  1  0
 11 12  1  0
 13 12  1  6
 13 14  1  0
 14  7  1  0
 15 16  2  0
 15 13  1  0
 17 15  1  0
 18 19  1  1
 18 17  1  0
 19 20  1  0
 20 21  1  0
 21 22  2  0
 23 18  1  0
 24 23  1  0
 25 21  1  0
 26 23  2  0
M  END
$$$$
