LME.pdb
     RDKit          3D

 26 25  0  0  1  0  0  0  0  0999 V2000
   24.8401  -23.4516   -8.9899 C   0  0  0  0  0  0  0  0  0  0  0  0
   24.3733  -22.0377   -9.0817 C   0  0  2  0  0  0  0  0  0  0  0  0
   22.8663  -22.0236   -8.7885 C   0  0  0  0  0  0  0  0  0  0  0  0
   24.5566  -21.3647  -10.3915 C   0  0  0  0  0  0  0  0  0  0  0  0
   25.8478  -20.6534  -10.6119 C   0  0  2  0  0  0  0  0  0  0  0  0
   26.2345  -19.9696   -9.4013 N   0  0  0  0  0  0  0  0  0  0  0  0
   25.7396  -19.7361  -11.7828 C   0  0  0  0  0  0  0  0  0  0  0  0
   25.1385  -18.6158  -11.6753 O   0  0  0  0  0  0  0  0  0  0  0  0
   29.2392  -17.1610  -18.3031 C   0  0  0  0  0  0  0  0  0  0  0  0
   29.0499  -18.4606  -17.0415 S   0  0  0  0  0  0  0  0  0  0  0  0
   27.4682  -18.2735  -16.1765 C   0  0  0  0  0  0  0  0  0  0  0  0
   27.4383  -19.1779  -14.9801 C   0  0  0  0  0  0  0  0  0  0  0  0
   26.1605  -19.0974  -14.1884 C   0  0  2  0  0  0  0  0  0  0  0  0
   26.2668  -20.0044  -13.0721 N   0  0  0  0  0  0  0  0  0  0  0  0
   25.0046  -19.3830  -15.0664 C   0  0  0  0  0  0  0  0  0  0  0  0
   24.5474  -20.5478  -15.0496 O   0  0  0  0  0  0  0  0  0  0  0  0
   24.3935  -18.4265  -15.9162 N   0  0  0  0  0  0  0  0  0  0  0  0
   22.9597  -18.4855  -16.2461 C   0  0  1  0  0  0  0  0  0  0  0  0
   22.1876  -18.7748  -15.0051 C   0  0  0  0  0  0  0  0  0  0  0  0
   20.7128  -18.7513  -15.0708 C   0  0  0  0  0  0  0  0  0  0  0  0
   20.0665  -20.0410  -15.4104 C   0  0  0  0  0  0  0  0  0  0  0  0
   20.5950  -21.1457  -15.0291 O   0  0  0  0  0  0  0  0  0  0  0  0
   22.5163  -17.4634  -17.1541 C   0  0  0  0  0  0  0  0  0  0  0  0
   21.5342  -17.6164  -18.1356 O   0  0  0  0  0  0  0  0  0  0  0  0
   18.8935  -20.1540  -16.1346 O   0  0  0  0  0  0  0  0  0  0  0  0
   23.0560  -16.3068  -17.0855 O   0  0  0  0  0  0  0  0  0  0  0  0
  2  4  1  0
  2  1  1  6
  3  2  1  0
  5  6  1  1
  5  4  1  0
  7  5  1  0
  8  7  2  0
 10  9  1  0
 10 11  1  0
 11 12  1  0
 13 12  1  6
 13 14  1  0
 14  7  1  0
 15 16  2  0
 15 13  1  0
 17 15  1  0
 18 19  1  1
 18 17  1  0
 19 20  1  0
 20 21  1  0
 21 22  2  0
 23 18  1  0
 24 23  1  0
 25 21  1  0
 26 23  2  0
M  END
$$$$
