LME.pdb
     RDKit          3D

 26 25  0  0  1  0  0  0  0  0999 V2000
   21.6416  -10.0127  -23.0859 C   0  0  0  0  0  0  0  0  0  0  0  0
   21.4972  -11.2585  -22.2781 C   0  0  2  0  0  0  0  0  0  0  0  0
   20.1985  -11.9507  -22.7154 C   0  0  0  0  0  0  0  0  0  0  0  0
   21.4109  -11.0860  -20.8067 C   0  0  0  0  0  0  0  0  0  0  0  0
   22.4745  -10.2678  -20.1578 C   0  0  2  0  0  0  0  0  0  0  0  0
   23.7482  -10.9309  -20.3017 N   0  0  0  0  0  0  0  0  0  0  0  0
   22.1228   -9.9978  -18.7339 C   0  0  0  0  0  0  0  0  0  0  0  0
   20.9527   -9.5974  -18.4198 O   0  0  0  0  0  0  0  0  0  0  0  0
   23.7781  -14.9987  -14.6818 C   0  0  0  0  0  0  0  0  0  0  0  0
   24.0939  -13.2262  -14.4084 S   0  0  0  0  0  0  0  0  0  0  0  0
   23.0948  -12.2258  -15.5424 C   0  0  0  0  0  0  0  0  0  0  0  0
   23.4440  -10.7763  -15.3766 C   0  0  0  0  0  0  0  0  0  0  0  0
   22.6585   -9.8551  -16.2713 C   0  0  2  0  0  0  0  0  0  0  0  0
   23.0110  -10.1495  -17.6384 N   0  0  0  0  0  0  0  0  0  0  0  0
   22.9110   -8.4476  -15.8920 C   0  0  0  0  0  0  0  0  0  0  0  0
   23.6861   -7.7888  -16.6210 O   0  0  0  0  0  0  0  0  0  0  0  0
   22.3348   -7.8103  -14.7640 N   0  0  0  0  0  0  0  0  0  0  0  0
   22.4247   -6.3541  -14.5655 C   0  0  1  0  0  0  0  0  0  0  0  0
   22.2288   -5.6726  -15.8759 C   0  0  0  0  0  0  0  0  0  0  0  0
   22.1957   -4.1968  -15.9050 C   0  0  0  0  0  0  0  0  0  0  0  0
   21.8945   -3.5891  -17.2227 C   0  0  0  0  0  0  0  0  0  0  0  0
   21.8550   -4.3213  -18.2752 O   0  0  0  0  0  0  0  0  0  0  0  0
   21.7529   -5.8719  -13.3900 C   0  0  0  0  0  0  0  0  0  0  0  0
   21.9904   -4.6476  -12.7609 O   0  0  0  0  0  0  0  0  0  0  0  0
   21.6433   -2.2428  -17.4170 O   0  0  0  0  0  0  0  0  0  0  0  0
   20.8618   -6.6103  -12.8474 O   0  0  0  0  0  0  0  0  0  0  0  0
  2  4  1  0
  2  1  1  6
  3  2  1  0
  5  6  1  1
  5  4  1  0
  7  5  1  0
  8  7  2  0
 10  9  1  0
 10 11  1  0
 11 12  1  0
 13 12  1  1
 13 14  1  0
 14  7  1  0
 15 16  2  0
 15 13  1  0
 17 15  1  0
 18 19  1  6
 18 17  1  0
 19 20  1  0
 20 21  1  0
 21 22  2  0
 23 18  1  0
 24 23  1  0
 25 21  1  0
 26 23  2  0
M  END
$$$$
