LME.pdb
     RDKit          3D

 26 25  0  0  1  0  0  0  0  0999 V2000
   28.4776  -15.9450  -16.1191 C   0  0  0  0  0  0  0  0  0  0  0  0
   27.4158  -16.4228  -17.0516 C   0  0  2  0  0  0  0  0  0  0  0  0
   26.4105  -15.2778  -17.2405 C   0  0  0  0  0  0  0  0  0  0  0  0
   26.6338  -17.6052  -16.6129 C   0  0  0  0  0  0  0  0  0  0  0  0
   27.4037  -18.7700  -16.0912 C   0  0  2  0  0  0  0  0  0  0  0  0
   27.9534  -19.5185  -17.1959 N   0  0  0  0  0  0  0  0  0  0  0  0
   26.5431  -19.6026  -15.2022 C   0  0  0  0  0  0  0  0  0  0  0  0
   25.7034  -20.4253  -15.6981 O   0  0  0  0  0  0  0  0  0  0  0  0
   24.7052  -21.2793   -7.6180 C   0  0  0  0  0  0  0  0  0  0  0  0
   25.8120  -20.5114   -8.8435 S   0  0  0  0  0  0  0  0  0  0  0  0
   25.1997  -20.8138  -10.5224 C   0  0  0  0  0  0  0  0  0  0  0  0
   26.0881  -20.1234  -11.5146 C   0  0  0  0  0  0  0  0  0  0  0  0
   25.6466  -20.2880  -12.9442 C   0  0  2  0  0  0  0  0  0  0  0  0
   26.5686  -19.5641  -13.7845 N   0  0  0  0  0  0  0  0  0  0  0  0
   24.2443  -19.8410  -13.0935 C   0  0  0  0  0  0  0  0  0  0  0  0
   24.0542  -18.7136  -13.6025 O   0  0  0  0  0  0  0  0  0  0  0  0
   23.1175  -20.6050  -12.6969 N   0  0  0  0  0  0  0  0  0  0  0  0
   21.7898  -20.3996  -13.2994 C   0  0  1  0  0  0  0  0  0  0  0  0
   21.9403  -20.2810  -14.7770 C   0  0  0  0  0  0  0  0  0  0  0  0
   20.7380  -20.0048  -15.5881 C   0  0  0  0  0  0  0  0  0  0  0  0
   20.2795  -21.1178  -16.4526 C   0  0  0  0  0  0  0  0  0  0  0  0
   19.1257  -21.6457  -16.2642 O   0  0  0  0  0  0  0  0  0  0  0  0
   20.7502  -21.2194  -12.7400 C   0  0  0  0  0  0  0  0  0  0  0  0
   19.4420  -20.8072  -12.4750 O   0  0  0  0  0  0  0  0  0  0  0  0
   21.0249  -21.6550  -17.4865 O   0  0  0  0  0  0  0  0  0  0  0  0
   21.0201  -22.4327  -12.4421 O   0  0  0  0  0  0  0  0  0  0  0  0
  2  4  1  0
  2  1  1  1
  3  2  1  0
  5  6  1  6
  5  4  1  0
  7  5  1  0
  8  7  2  0
 10  9  1  0
 10 11  1  0
 11 12  1  0
 13 12  1  1
 13 14  1  0
 14  7  1  0
 15 16  2  0
 15 13  1  0
 17 15  1  0
 18 19  1  6
 18 17  1  0
 19 20  1  0
 20 21  1  0
 21 22  2  0
 23 18  1  0
 24 23  1  0
 25 21  1  0
 26 23  2  0
M  END
$$$$
