LME.pdb
     RDKit          3D

 26 25  0  0  1  0  0  0  0  0999 V2000
   15.9362  -12.9381  -17.8898 C   0  0  0  0  0  0  0  0  0  0  0  0
   16.9834  -13.6371  -17.0897 C   0  0  2  0  0  0  0  0  0  0  0  0
   16.2702  -14.4866  -16.0281 C   0  0  0  0  0  0  0  0  0  0  0  0
   17.9472  -12.7733  -16.3638 C   0  0  0  0  0  0  0  0  0  0  0  0
   18.7079  -11.7794  -17.1733 C   0  0  2  0  0  0  0  0  0  0  0  0
   19.2507  -12.4254  -18.3441 N   0  0  0  0  0  0  0  0  0  0  0  0
   19.7557  -11.1251  -16.3377 C   0  0  0  0  0  0  0  0  0  0  0  0
   19.4567  -10.6086  -15.2100 O   0  0  0  0  0  0  0  0  0  0  0  0
   27.5492  -10.5820  -14.9779 C   0  0  0  0  0  0  0  0  0  0  0  0
   26.1645  -11.1376  -16.0221 S   0  0  0  0  0  0  0  0  0  0  0  0
   24.6083  -10.4099  -15.4447 C   0  0  0  0  0  0  0  0  0  0  0  0
   23.4717  -10.9257  -16.2769 C   0  0  0  0  0  0  0  0  0  0  0  0
   22.1250  -10.3952  -15.8631 C   0  0  2  0  0  0  0  0  0  0  0  0
   21.1238  -11.0148  -16.6959 N   0  0  0  0  0  0  0  0  0  0  0  0
   22.1192   -8.9179  -15.9420 C   0  0  0  0  0  0  0  0  0  0  0  0
   22.2560   -8.4048  -17.0752 O   0  0  0  0  0  0  0  0  0  0  0  0
   21.9714   -8.0604  -14.8224 N   0  0  0  0  0  0  0  0  0  0  0  0
   21.8833   -6.5981  -14.9713 C   0  0  1  0  0  0  0  0  0  0  0  0
   20.6491   -6.2614  -15.7351 C   0  0  0  0  0  0  0  0  0  0  0  0
   20.2847   -4.8396  -15.8946 C   0  0  0  0  0  0  0  0  0  0  0  0
   19.0581   -4.5778  -16.6840 C   0  0  0  0  0  0  0  0  0  0  0  0
   18.4424   -5.5465  -17.2567 O   0  0  0  0  0  0  0  0  0  0  0  0
   22.2282   -5.8585  -13.7883 C   0  0  0  0  0  0  0  0  0  0  0  0
   22.6786   -4.5365  -13.7568 O   0  0  0  0  0  0  0  0  0  0  0  0
   18.5021   -3.3237  -16.8608 O   0  0  0  0  0  0  0  0  0  0  0  0
   22.1318   -6.4383  -12.6533 O   0  0  0  0  0  0  0  0  0  0  0  0
  2  4  1  0
  2  1  1  1
  3  2  1  0
  5  6  1  6
  5  4  1  0
  7  5  1  0
  8  7  2  0
 10  9  1  0
 10 11  1  0
 11 12  1  0
 13 12  1  6
 13 14  1  0
 14  7  1  0
 15 16  2  0
 15 13  1  0
 17 15  1  0
 18 19  1  1
 18 17  1  0
 19 20  1  0
 20 21  1  0
 21 22  2  0
 23 18  1  0
 24 23  1  0
 25 21  1  0
 26 23  2  0
M  END
$$$$
