LME.pdb
     RDKit          3D

 26 25  0  0  1  0  0  0  0  0999 V2000
   17.7491  -12.9109  -18.5377 C   0  0  0  0  0  0  0  0  0  0  0  0
   17.7607  -13.0660  -17.0541 C   0  0  2  0  0  0  0  0  0  0  0  0
   16.3665  -12.6880  -16.5342 C   0  0  0  0  0  0  0  0  0  0  0  0
   18.7325  -12.2276  -16.3092 C   0  0  0  0  0  0  0  0  0  0  0  0
   20.1690  -12.3622  -16.6837 C   0  0  2  0  0  0  0  0  0  0  0  0
   20.6104  -13.7116  -16.4246 N   0  0  0  0  0  0  0  0  0  0  0  0
   20.9876  -11.3405  -15.9694 C   0  0  0  0  0  0  0  0  0  0  0  0
   21.0504  -11.3355  -14.6951 O   0  0  0  0  0  0  0  0  0  0  0  0
   26.7987  -11.5951  -14.7883 C   0  0  0  0  0  0  0  0  0  0  0  0
   26.6332  -10.0045  -15.6594 S   0  0  0  0  0  0  0  0  0  0  0  0
   25.0318   -9.2436  -15.2833 C   0  0  0  0  0  0  0  0  0  0  0  0
   24.0183   -9.6728  -16.3026 C   0  0  0  0  0  0  0  0  0  0  0  0
   22.5948   -9.3953  -15.8994 C   0  0  2  0  0  0  0  0  0  0  0  0
   21.7409  -10.3197  -16.6039 N   0  0  0  0  0  0  0  0  0  0  0  0
   22.2639   -7.9773  -16.1610 C   0  0  0  0  0  0  0  0  0  0  0  0
   21.6255   -7.7223  -17.2067 O   0  0  0  0  0  0  0  0  0  0  0  0
   22.6250   -6.9039  -15.3077 N   0  0  0  0  0  0  0  0  0  0  0  0
   21.9541   -5.5952  -15.3808 C   0  0  1  0  0  0  0  0  0  0  0  0
   20.4827   -5.8088  -15.4769 C   0  0  0  0  0  0  0  0  0  0  0  0
   19.5935   -4.6324  -15.4047 C   0  0  0  0  0  0  0  0  0  0  0  0
   18.1499   -4.9085  -15.5950 C   0  0  0  0  0  0  0  0  0  0  0  0
   17.5935   -4.6737  -16.7266 O   0  0  0  0  0  0  0  0  0  0  0  0
   22.4860   -4.6040  -14.4862 C   0  0  0  0  0  0  0  0  0  0  0  0
   22.6199   -3.2421  -14.7665 O   0  0  0  0  0  0  0  0  0  0  0  0
   17.3213   -5.4183  -14.6117 O   0  0  0  0  0  0  0  0  0  0  0  0
   22.8863   -4.9739  -13.3301 O   0  0  0  0  0  0  0  0  0  0  0  0
  2  4  1  0
  2  1  1  6
  3  2  1  0
  5  6  1  1
  5  4  1  0
  7  5  1  0
  8  7  2  0
 10  9  1  0
 10 11  1  0
 11 12  1  0
 13 12  1  6
 13 14  1  0
 14  7  1  0
 15 16  2  0
 15 13  1  0
 17 15  1  0
 18 19  1  1
 18 17  1  0
 19 20  1  0
 20 21  1  0
 21 22  2  0
 23 18  1  0
 24 23  1  0
 25 21  1  0
 26 23  2  0
M  END
$$$$
