LME.pdb
     RDKit          3D

 26 25  0  0  1  0  0  0  0  0999 V2000
   29.0227  -18.2433  -15.5066 C   0  0  0  0  0  0  0  0  0  0  0  0
   27.7580  -18.8387  -16.0277 C   0  0  2  0  0  0  0  0  0  0  0  0
   26.8926  -17.6935  -16.5724 C   0  0  0  0  0  0  0  0  0  0  0  0
   26.9204  -19.5737  -15.0477 C   0  0  0  0  0  0  0  0  0  0  0  0
   27.5790  -20.6704  -14.2826 C   0  0  2  0  0  0  0  0  0  0  0  0
   27.7339  -21.8260  -15.1330 N   0  0  0  0  0  0  0  0  0  0  0  0
   26.8102  -20.9679  -13.0398 C   0  0  0  0  0  0  0  0  0  0  0  0
   25.7955  -21.7407  -13.0745 O   0  0  0  0  0  0  0  0  0  0  0  0
   26.6527  -20.2428   -5.1310 C   0  0  0  0  0  0  0  0  0  0  0  0
   27.3529  -19.7228   -6.7297 S   0  0  0  0  0  0  0  0  0  0  0  0
   26.3139  -20.3102   -8.0937 C   0  0  0  0  0  0  0  0  0  0  0  0
   27.0256  -20.0971   -9.3970 C   0  0  0  0  0  0  0  0  0  0  0  0
   26.2975  -20.6622  -10.5872 C   0  0  2  0  0  0  0  0  0  0  0  0
   27.1136  -20.4456  -11.7563 N   0  0  0  0  0  0  0  0  0  0  0  0
   24.9530  -20.0537  -10.6912 C   0  0  0  0  0  0  0  0  0  0  0  0
   24.8513  -19.0018  -11.3615 O   0  0  0  0  0  0  0  0  0  0  0  0
   23.7881  -20.5852  -10.0820 N   0  0  0  0  0  0  0  0  0  0  0  0
   22.4630  -20.4761  -10.7147 C   0  0  1  0  0  0  0  0  0  0  0  0
   22.5797  -20.8477  -12.1528 C   0  0  0  0  0  0  0  0  0  0  0  0
   22.3680  -19.7998  -13.1711 C   0  0  0  0  0  0  0  0  0  0  0  0
   22.1905  -20.2839  -14.5606 C   0  0  0  0  0  0  0  0  0  0  0  0
   22.2519  -21.5391  -14.8175 O   0  0  0  0  0  0  0  0  0  0  0  0
   21.3808  -20.9877   -9.9192 C   0  0  0  0  0  0  0  0  0  0  0  0
   21.5096  -21.6278   -8.6843 O   0  0  0  0  0  0  0  0  0  0  0  0
   21.9554  -19.4588  -15.6455 O   0  0  0  0  0  0  0  0  0  0  0  0
   20.1868  -20.8673  -10.3593 O   0  0  0  0  0  0  0  0  0  0  0  0
  2  4  1  0
  2  1  1  1
  3  2  1  0
  5  6  1  6
  5  4  1  0
  7  5  1  0
  8  7  2  0
 10  9  1  0
 10 11  1  0
 11 12  1  0
 13 12  1  1
 13 14  1  0
 14  7  1  0
 15 16  2  0
 15 13  1  0
 17 15  1  0
 18 19  1  6
 18 17  1  0
 19 20  1  0
 20 21  1  0
 21 22  2  0
 23 18  1  0
 24 23  1  0
 25 21  1  0
 26 23  2  0
M  END
$$$$
