LME.pdb
     RDKit          3D

 26 25  0  0  1  0  0  0  0  0999 V2000
   32.2232  -22.4155  -11.8360 C   0  0  0  0  0  0  0  0  0  0  0  0
   31.6279  -21.8173  -10.6058 C   0  0  2  0  0  0  0  0  0  0  0  0
   32.3639  -22.4095   -9.3956 C   0  0  0  0  0  0  0  0  0  0  0  0
   30.1814  -22.0637  -10.3843 C   0  0  0  0  0  0  0  0  0  0  0  0
   29.2429  -21.5708  -11.4322 C   0  0  2  0  0  0  0  0  0  0  0  0
   29.5910  -20.2176  -11.7934 N   0  0  0  0  0  0  0  0  0  0  0  0
   27.8325  -21.6980  -10.9643 C   0  0  0  0  0  0  0  0  0  0  0  0
   27.3113  -22.8482  -10.7817 O   0  0  0  0  0  0  0  0  0  0  0  0
   27.1962  -18.6742   -6.3816 C   0  0  0  0  0  0  0  0  0  0  0  0
   25.8694  -19.9179   -6.2847 S   0  0  0  0  0  0  0  0  0  0  0  0
   25.8392  -20.9258   -7.7907 C   0  0  0  0  0  0  0  0  0  0  0  0
   25.4180  -20.0791   -8.9552 C   0  0  0  0  0  0  0  0  0  0  0  0
   25.5914  -20.7516  -10.2907 C   0  0  2  0  0  0  0  0  0  0  0  0
   26.9695  -20.6061  -10.6904 N   0  0  0  0  0  0  0  0  0  0  0  0
   24.6358  -20.1857  -11.2681 C   0  0  0  0  0  0  0  0  0  0  0  0
   24.8709  -19.0338  -11.6971 O   0  0  0  0  0  0  0  0  0  0  0  0
   23.4829  -20.8631  -11.7397 N   0  0  0  0  0  0  0  0  0  0  0  0
   22.6375  -20.3045  -12.8080 C   0  0  1  0  0  0  0  0  0  0  0  0
   22.8750  -21.0689  -14.0647 C   0  0  0  0  0  0  0  0  0  0  0  0
   22.0954  -20.7100  -15.2661 C   0  0  0  0  0  0  0  0  0  0  0  0
   22.4067  -21.4895  -16.4876 C   0  0  0  0  0  0  0  0  0  0  0  0
   23.1638  -22.5224  -16.4163 O   0  0  0  0  0  0  0  0  0  0  0  0
   21.2984  -19.9810  -12.3983 C   0  0  0  0  0  0  0  0  0  0  0  0
   20.4112  -19.1555  -13.0931 O   0  0  0  0  0  0  0  0  0  0  0  0
   21.9282  -21.1804  -17.7481 O   0  0  0  0  0  0  0  0  0  0  0  0
   20.8577  -20.4707  -11.3030 O   0  0  0  0  0  0  0  0  0  0  0  0
  2  4  1  0
  2  1  1  6
  3  2  1  0
  5  6  1  1
  5  4  1  0
  7  5  1  0
  8  7  2  0
 10  9  1  0
 10 11  1  0
 11 12  1  0
 13 12  1  1
 13 14  1  0
 14  7  1  0
 15 16  2  0
 15 13  1  0
 17 15  1  0
 18 19  1  6
 18 17  1  0
 19 20  1  0
 20 21  1  0
 21 22  2  0
 23 18  1  0
 24 23  1  0
 25 21  1  0
 26 23  2  0
M  END
$$$$
