LME.pdb
     RDKit          3D

 26 25  0  0  1  0  0  0  0  0999 V2000
   19.4745  -11.5499  -20.4076 C   0  0  0  0  0  0  0  0  0  0  0  0
   18.5668  -11.3162  -19.2471 C   0  0  2  0  0  0  0  0  0  0  0  0
   17.4386  -10.3868  -19.7165 C   0  0  0  0  0  0  0  0  0  0  0  0
   19.1724  -10.6776  -18.0522 C   0  0  0  0  0  0  0  0  0  0  0  0
   20.3733  -11.3388  -17.4671 C   0  0  2  0  0  0  0  0  0  0  0  0
   20.0079  -12.6388  -16.9578 N   0  0  0  0  0  0  0  0  0  0  0  0
   20.9901  -10.4649  -16.4279 C   0  0  0  0  0  0  0  0  0  0  0  0
   20.4260  -10.3086  -15.2942 O   0  0  0  0  0  0  0  0  0  0  0  0
   26.8391  -10.6960  -17.0330 C   0  0  0  0  0  0  0  0  0  0  0  0
   26.4890  -10.7070  -15.2459 S   0  0  0  0  0  0  0  0  0  0  0  0
   24.7205  -10.4444  -14.9486 C   0  0  0  0  0  0  0  0  0  0  0  0
   24.2883   -9.1567  -15.5853 C   0  0  0  0  0  0  0  0  0  0  0  0
   22.7997   -8.9345  -15.5590 C   0  0  2  0  0  0  0  0  0  0  0  0
   22.2061   -9.7522  -16.5880 N   0  0  0  0  0  0  0  0  0  0  0  0
   22.5023   -7.4935  -15.7125 C   0  0  0  0  0  0  0  0  0  0  0  0
   22.2945   -7.0725  -16.8726 O   0  0  0  0  0  0  0  0  0  0  0  0
   22.4415   -6.5729  -14.6357 N   0  0  0  0  0  0  0  0  0  0  0  0
   22.0319   -5.1726  -14.8343 C   0  0  1  0  0  0  0  0  0  0  0  0
   20.7547   -5.1445  -15.6010 C   0  0  0  0  0  0  0  0  0  0  0  0
   19.5138   -5.5632  -14.9193 C   0  0  0  0  0  0  0  0  0  0  0  0
   18.2697   -5.4254  -15.7127 C   0  0  0  0  0  0  0  0  0  0  0  0
   18.1053   -4.4113  -16.4807 O   0  0  0  0  0  0  0  0  0  0  0  0
   22.2030   -4.3340  -13.6796 C   0  0  0  0  0  0  0  0  0  0  0  0
   21.9988   -2.9527  -13.6390 O   0  0  0  0  0  0  0  0  0  0  0  0
   17.2303   -6.3377  -15.6905 O   0  0  0  0  0  0  0  0  0  0  0  0
   22.5821   -4.8707  -12.5833 O   0  0  0  0  0  0  0  0  0  0  0  0
  2  4  1  0
  2  1  1  6
  3  2  1  0
  5  6  1  1
  5  4  1  0
  7  5  1  0
  8  7  2  0
 10  9  1  0
 10 11  1  0
 11 12  1  0
 13 12  1  6
 13 14  1  0
 14  7  1  0
 15 16  2  0
 15 13  1  0
 17 15  1  0
 18 19  1  1
 18 17  1  0
 19 20  1  0
 20 21  1  0
 21 22  2  0
 23 18  1  0
 24 23  1  0
 25 21  1  0
 26 23  2  0
M  END
$$$$
