LME.pdb
     RDKit          3D

 26 25  0  0  1  0  0  0  0  0999 V2000
   26.7551  -16.8246  -17.6011 C   0  0  0  0  0  0  0  0  0  0  0  0
   27.6673  -17.9898  -17.4127 C   0  0  2  0  0  0  0  0  0  0  0  0
   27.9351  -18.6013  -18.7953 C   0  0  0  0  0  0  0  0  0  0  0  0
   27.1656  -19.0900  -16.5526 C   0  0  0  0  0  0  0  0  0  0  0  0
   26.6423  -18.7133  -15.2086 C   0  0  2  0  0  0  0  0  0  0  0  0
   27.7352  -18.2870  -14.3679 N   0  0  0  0  0  0  0  0  0  0  0  0
   25.8686  -19.8439  -14.6194 C   0  0  0  0  0  0  0  0  0  0  0  0
   25.5533  -20.8545  -15.3316 O   0  0  0  0  0  0  0  0  0  0  0  0
   27.7321  -20.9932   -8.1877 C   0  0  0  0  0  0  0  0  0  0  0  0
   26.0445  -20.9571   -8.8713 S   0  0  0  0  0  0  0  0  0  0  0  0
   26.0943  -21.0749  -10.6792 C   0  0  0  0  0  0  0  0  0  0  0  0
   24.7092  -20.9153  -11.2327 C   0  0  0  0  0  0  0  0  0  0  0  0
   24.6419  -20.9905  -12.7347 C   0  0  2  0  0  0  0  0  0  0  0  0
   25.4250  -19.9059  -13.2735 N   0  0  0  0  0  0  0  0  0  0  0  0
   23.2305  -20.9695  -13.1778 C   0  0  0  0  0  0  0  0  0  0  0  0
   22.7109  -19.8492  -13.3800 O   0  0  0  0  0  0  0  0  0  0  0  0
   22.4419  -22.1301  -13.3824 N   0  0  0  0  0  0  0  0  0  0  0  0
   21.0785  -22.0544  -13.9334 C   0  0  1  0  0  0  0  0  0  0  0  0
   20.2413  -21.2030  -13.0421 C   0  0  0  0  0  0  0  0  0  0  0  0
   18.8468  -20.9248  -13.4393 C   0  0  0  0  0  0  0  0  0  0  0  0
   17.8187  -21.7914  -12.8161 C   0  0  0  0  0  0  0  0  0  0  0  0
   17.5374  -21.6630  -11.5713 O   0  0  0  0  0  0  0  0  0  0  0  0
   21.0225  -21.8854  -15.3596 C   0  0  0  0  0  0  0  0  0  0  0  0
   20.0984  -22.4894  -16.2154 O   0  0  0  0  0  0  0  0  0  0  0  0
   17.1105  -22.7663  -13.4952 O   0  0  0  0  0  0  0  0  0  0  0  0
   21.8859  -21.1287  -15.9212 O   0  0  0  0  0  0  0  0  0  0  0  0
  2  4  1  0
  2  1  1  6
  3  2  1  0
  5  6  1  1
  5  4  1  0
  7  5  1  0
  8  7  2  0
 10  9  1  0
 10 11  1  0
 11 12  1  0
 13 12  1  1
 13 14  1  0
 14  7  1  0
 15 16  2  0
 15 13  1  0
 17 15  1  0
 18 19  1  1
 18 17  1  0
 19 20  1  0
 20 21  1  0
 21 22  2  0
 23 18  1  0
 24 23  1  0
 25 21  1  0
 26 23  2  0
M  END
$$$$
