LME.pdb
     RDKit          3D

 26 25  0  0  1  0  0  0  0  0999 V2000
   28.2328  -16.2334  -16.2258 C   0  0  0  0  0  0  0  0  0  0  0  0
   27.3558  -17.0012  -17.1568 C   0  0  2  0  0  0  0  0  0  0  0  0
   26.2376  -16.0602  -17.6275 C   0  0  0  0  0  0  0  0  0  0  0  0
   26.6903  -18.2038  -16.5975 C   0  0  0  0  0  0  0  0  0  0  0  0
   27.4701  -19.0160  -15.6208 C   0  0  2  0  0  0  0  0  0  0  0  0
   28.4417  -19.8166  -16.3264 N   0  0  0  0  0  0  0  0  0  0  0  0
   26.5511  -19.8344  -14.7783 C   0  0  0  0  0  0  0  0  0  0  0  0
   25.9418  -20.8405  -15.2728 O   0  0  0  0  0  0  0  0  0  0  0  0
   24.2208  -21.4595   -7.3485 C   0  0  0  0  0  0  0  0  0  0  0  0
   25.2300  -20.4886   -8.5127 S   0  0  0  0  0  0  0  0  0  0  0  0
   24.7951  -20.9044  -10.2223 C   0  0  0  0  0  0  0  0  0  0  0  0
   25.6855  -20.1514  -11.1660 C   0  0  0  0  0  0  0  0  0  0  0  0
   25.3629  -20.3787  -12.6187 C   0  0  2  0  0  0  0  0  0  0  0  0
   26.2736  -19.5877  -13.4093 N   0  0  0  0  0  0  0  0  0  0  0  0
   23.9403  -20.0634  -12.8746 C   0  0  0  0  0  0  0  0  0  0  0  0
   23.6239  -18.8540  -12.9332 O   0  0  0  0  0  0  0  0  0  0  0  0
   22.9272  -21.0392  -13.0532 N   0  0  0  0  0  0  0  0  0  0  0  0
   21.5140  -20.6665  -13.2326 C   0  0  1  0  0  0  0  0  0  0  0  0
   20.8292  -21.7266  -14.0245 C   0  0  0  0  0  0  0  0  0  0  0  0
   19.3739  -21.6121  -14.2456 C   0  0  0  0  0  0  0  0  0  0  0  0
   18.7614  -22.6956  -15.0501 C   0  0  0  0  0  0  0  0  0  0  0  0
   18.0568  -23.6022  -14.4783 O   0  0  0  0  0  0  0  0  0  0  0  0
   20.8896  -20.1212  -12.0585 C   0  0  0  0  0  0  0  0  0  0  0  0
   20.9453  -20.6724  -10.7761 O   0  0  0  0  0  0  0  0  0  0  0  0
   18.8941  -22.8132  -16.4219 O   0  0  0  0  0  0  0  0  0  0  0  0
   20.2115  -19.0436  -12.1697 O   0  0  0  0  0  0  0  0  0  0  0  0
  2  4  1  0
  2  1  1  1
  3  2  1  0
  5  6  1  6
  5  4  1  0
  7  5  1  0
  8  7  2  0
 10  9  1  0
 10 11  1  0
 11 12  1  0
 13 12  1  1
 13 14  1  0
 14  7  1  0
 15 16  2  0
 15 13  1  0
 17 15  1  0
 18 19  1  1
 18 17  1  0
 19 20  1  0
 20 21  1  0
 21 22  2  0
 23 18  1  0
 24 23  1  0
 25 21  1  0
 26 23  2  0
M  END
$$$$
