LME.pdb
     RDKit          3D

 26 25  0  0  1  0  0  0  0  0999 V2000
   20.7156  -14.4033  -20.4831 C   0  0  0  0  0  0  0  0  0  0  0  0
   19.9091  -14.3041  -19.2321 C   0  0  2  0  0  0  0  0  0  0  0  0
   18.5231  -13.7637  -19.6117 C   0  0  0  0  0  0  0  0  0  0  0  0
   20.4380  -13.4083  -18.1738 C   0  0  0  0  0  0  0  0  0  0  0  0
   21.8411  -13.6422  -17.7282 C   0  0  2  0  0  0  0  0  0  0  0  0
   21.9622  -14.9792  -17.1986 N   0  0  0  0  0  0  0  0  0  0  0  0
   22.2545  -12.5950  -16.7502 C   0  0  0  0  0  0  0  0  0  0  0  0
   21.6507  -12.4774  -15.6323 O   0  0  0  0  0  0  0  0  0  0  0  0
   28.5915  -12.9136  -15.2405 C   0  0  0  0  0  0  0  0  0  0  0  0
   27.6696  -11.4641  -15.8450 S   0  0  0  0  0  0  0  0  0  0  0  0
   25.8973  -11.6656  -15.5237 C   0  0  0  0  0  0  0  0  0  0  0  0
   25.1534  -10.4668  -16.0336 C   0  0  0  0  0  0  0  0  0  0  0  0
   23.6568  -10.6278  -16.0185 C   0  0  2  0  0  0  0  0  0  0  0  0
   23.3082  -11.6677  -16.9550 N   0  0  0  0  0  0  0  0  0  0  0  0
   23.0073   -9.3319  -16.3145 C   0  0  0  0  0  0  0  0  0  0  0  0
   22.8363   -9.0396  -17.5193 O   0  0  0  0  0  0  0  0  0  0  0  0
   22.5744   -8.4127  -15.3254 N   0  0  0  0  0  0  0  0  0  0  0  0
   21.6555   -7.3069  -15.6430 C   0  0  1  0  0  0  0  0  0  0  0  0
   20.5732   -7.8152  -16.5319 C   0  0  0  0  0  0  0  0  0  0  0  0
   20.3120   -7.1067  -17.8006 C   0  0  0  0  0  0  0  0  0  0  0  0
   19.1570   -7.6034  -18.5852 C   0  0  0  0  0  0  0  0  0  0  0  0
   18.4386   -8.5656  -18.1341 O   0  0  0  0  0  0  0  0  0  0  0  0
   21.3385   -6.4586  -14.5269 C   0  0  0  0  0  0  0  0  0  0  0  0
   20.8905   -5.1380  -14.6093 O   0  0  0  0  0  0  0  0  0  0  0  0
   18.7765   -7.0935  -19.8134 O   0  0  0  0  0  0  0  0  0  0  0  0
   21.4771   -6.9241  -13.3447 O   0  0  0  0  0  0  0  0  0  0  0  0
  2  4  1  0
  2  1  1  6
  3  2  1  0
  5  6  1  1
  5  4  1  0
  7  5  1  0
  8  7  2  0
 10  9  1  0
 10 11  1  0
 11 12  1  0
 13 12  1  6
 13 14  1  0
 14  7  1  0
 15 16  2  0
 15 13  1  0
 17 15  1  0
 18 19  1  1
 18 17  1  0
 19 20  1  0
 20 21  1  0
 21 22  2  0
 23 18  1  0
 24 23  1  0
 25 21  1  0
 26 23  2  0
M  END
$$$$
