LME.pdb
     RDKit          3D

 26 25  0  0  1  0  0  0  0  0999 V2000
   22.9687  -13.6625  -14.1867 C   0  0  0  0  0  0  0  0  0  0  0  0
   23.2577  -12.8518  -15.4052 C   0  0  2  0  0  0  0  0  0  0  0  0
   24.4872  -11.9822  -15.1068 C   0  0  0  0  0  0  0  0  0  0  0  0
   22.1856  -11.9298  -15.8554 C   0  0  0  0  0  0  0  0  0  0  0  0
   20.8479  -12.5286  -16.1268 C   0  0  2  0  0  0  0  0  0  0  0  0
   20.9398  -13.4223  -17.2562 N   0  0  0  0  0  0  0  0  0  0  0  0
   19.8308  -11.4554  -16.3220 C   0  0  0  0  0  0  0  0  0  0  0  0
   19.8025  -10.7780  -17.4029 O   0  0  0  0  0  0  0  0  0  0  0  0
   12.3811   -9.4723  -15.4512 C   0  0  0  0  0  0  0  0  0  0  0  0
   13.8019  -10.5150  -14.9925 S   0  0  0  0  0  0  0  0  0  0  0  0
   15.3534   -9.7187  -15.4860 C   0  0  0  0  0  0  0  0  0  0  0  0
   16.4944  -10.6723  -15.2878 C   0  0  0  0  0  0  0  0  0  0  0  0
   17.8433  -10.0793  -15.5954 C   0  0  2  0  0  0  0  0  0  0  0  0
   18.8417  -11.0957  -15.3711 N   0  0  0  0  0  0  0  0  0  0  0  0
   18.0557   -8.8612  -14.7831 C   0  0  0  0  0  0  0  0  0  0  0  0
   18.7410   -8.9796  -13.7427 O   0  0  0  0  0  0  0  0  0  0  0  0
   17.5331   -7.5842  -15.1097 N   0  0  0  0  0  0  0  0  0  0  0  0
   18.0971   -6.3473  -14.5440 C   0  0  1  0  0  0  0  0  0  0  0  0
   19.5842   -6.4251  -14.5928 C   0  0  0  0  0  0  0  0  0  0  0  0
   20.3669   -5.2731  -14.1028 C   0  0  0  0  0  0  0  0  0  0  0  0
   21.8391   -5.4407  -14.1315 C   0  0  0  0  0  0  0  0  0  0  0  0
   22.3531   -6.5492  -14.5220 O   0  0  0  0  0  0  0  0  0  0  0  0
   17.4203   -5.1459  -14.9493 C   0  0  0  0  0  0  0  0  0  0  0  0
   17.4292   -3.9329  -14.2564 O   0  0  0  0  0  0  0  0  0  0  0  0
   22.7391   -4.4599  -13.7556 O   0  0  0  0  0  0  0  0  0  0  0  0
   16.7368   -5.1623  -16.0292 O   0  0  0  0  0  0  0  0  0  0  0  0
  2  4  1  0
  2  1  1  1
  3  2  1  0
  5  6  1  6
  5  4  1  0
  7  5  1  0
  8  7  2  0
 10  9  1  0
 10 11  1  0
 11 12  1  0
 13 12  1  1
 13 14  1  0
 14  7  1  0
 15 16  2  0
 15 13  1  0
 17 15  1  0
 18 19  1  6
 18 17  1  0
 19 20  1  0
 20 21  1  0
 21 22  2  0
 23 18  1  0
 24 23  1  0
 25 21  1  0
 26 23  2  0
M  END
$$$$
