MPY.pdb
     RDKit          3D

 28 29  0  0  1  0  0  0  0  0999 V2000
   19.4604  -10.6473  -24.2600 C   0  0  0  0  0  0  0  0  0  0  0  0
   20.1981  -10.1300  -22.6939 S   0  0  0  0  0  0  0  0  0  0  0  0
   21.9454   -9.6747  -22.9369 C   0  0  0  0  0  0  0  0  0  0  0  0
   22.4844   -9.2022  -21.6103 C   0  0  0  0  0  0  0  0  0  0  0  0
   23.9759   -8.9329  -21.6186 C   0  0  2  0  0  0  0  0  0  0  0  0
   24.6347  -10.2074  -21.7462 N   0  0  0  0  0  0  0  0  0  0  0  0
   24.4573   -8.1599  -20.4747 C   0  0  0  0  0  0  0  0  0  0  0  0
   24.9593   -8.8152  -19.5125 O   0  0  0  0  0  0  0  0  0  0  0  0
   24.3887   -6.7696  -20.4016 N   0  0  0  0  0  0  0  0  0  0  0  0
   23.9886   -5.9504  -21.5591 C   0  0  0  0  0  0  0  0  0  0  0  0
   23.9609   -4.5322  -21.1276 C   0  0  0  0  0  0  0  0  0  0  0  0
   24.8163   -4.4928  -19.9106 C   0  0  0  0  0  0  0  0  0  0  0  0
   24.6526   -5.8881  -19.3281 C   0  0  1  0  0  0  0  0  0  0  0  0
   23.5946   -5.8995  -18.2748 C   0  0  0  0  0  0  0  0  0  0  0  0
   22.3949   -5.7854  -18.6255 O   0  0  0  0  0  0  0  0  0  0  0  0
   26.5200  -11.5431  -15.9615 O   0  0  0  0  0  0  0  0  0  0  0  0
   25.5591  -10.5685  -15.8257 C   0  0  0  0  0  0  0  0  0  0  0  0
   25.6081   -9.6022  -14.8239 C   0  0  0  0  0  0  0  0  0  0  0  0
   24.6319   -8.6393  -14.7128 C   0  0  0  0  0  0  0  0  0  0  0  0
   23.5519   -8.5865  -15.5955 C   0  0  0  0  0  0  0  0  0  0  0  0
   22.5086   -7.5773  -15.5158 C   0  0  0  0  0  0  0  0  0  0  0  0
   22.9218   -6.1675  -15.8515 C   0  0  2  0  0  0  0  0  0  0  0  0
   23.8741   -6.0326  -16.8966 N   0  0  0  0  0  0  0  0  0  0  0  0
   23.2726   -5.4930  -14.5817 C   0  0  0  0  0  0  0  0  0  0  0  0
   22.4476   -5.3329  -13.6703 O   0  0  0  0  0  0  0  0  0  0  0  0
   23.5061   -9.5381  -16.5806 C   0  0  0  0  0  0  0  0  0  0  0  0
   24.4970  -10.5173  -16.6948 C   0  0  0  0  0  0  0  0  0  0  0  0
   24.5580   -5.0294  -14.4109 O   0  0  0  0  0  0  0  0  0  0  0  0
  2  1  1  0
  3  2  1  0
  4  3  1  0
  4  5  1  0
  5  6  1  1
  7  5  1  0
  7  8  2  0
  9  7  1  0
 10  9  1  0
 11 12  1  0
 11 10  1  0
 12 13  1  0
 13  9  1  0
 13 14  1  1
 14 23  1  0
 15 14  2  0
 17 16  1  0
 17 18  2  0
 18 19  1  0
 20 19  2  0
 21 20  1  0
 22 21  1  1
 22 23  1  0
 22 24  1  0
 24 25  2  0
 24 28  1  0
 26 27  2  0
 26 20  1  0
 27 17  1  0
M  END
$$$$
