MPY.pdb
     RDKit          3D

 28 29  0  0  1  0  0  0  0  0999 V2000
   25.3647  -11.8831  -22.6337 C   0  0  0  0  0  0  0  0  0  0  0  0
   24.2840  -13.2766  -22.2405 S   0  0  0  0  0  0  0  0  0  0  0  0
   24.6712  -13.9306  -20.5847 C   0  0  0  0  0  0  0  0  0  0  0  0
   24.3777  -12.8429  -19.5824 C   0  0  0  0  0  0  0  0  0  0  0  0
   24.6031  -13.2620  -18.1434 C   0  0  2  0  0  0  0  0  0  0  0  0
   23.8333  -14.4598  -17.9267 N   0  0  0  0  0  0  0  0  0  0  0  0
   24.3171  -12.2202  -17.1583 C   0  0  0  0  0  0  0  0  0  0  0  0
   23.1424  -12.1905  -16.6825 O   0  0  0  0  0  0  0  0  0  0  0  0
   25.2583  -11.2843  -16.7324 N   0  0  0  0  0  0  0  0  0  0  0  0
   26.6682  -11.3542  -17.1545 C   0  0  0  0  0  0  0  0  0  0  0  0
   27.3763  -10.1861  -16.5780 C   0  0  0  0  0  0  0  0  0  0  0  0
   26.5187   -9.7493  -15.4430 C   0  0  0  0  0  0  0  0  0  0  0  0
   25.1231  -10.1590  -15.8871 C   0  0  1  0  0  0  0  0  0  0  0  0
   24.4162   -9.0124  -16.5309 C   0  0  0  0  0  0  0  0  0  0  0  0
   24.6381   -8.7724  -17.7427 O   0  0  0  0  0  0  0  0  0  0  0  0
   17.8627  -11.5008  -15.0293 O   0  0  0  0  0  0  0  0  0  0  0  0
   18.7624  -10.6073  -15.5620 C   0  0  0  0  0  0  0  0  0  0  0  0
   19.4543   -9.6849  -14.7810 C   0  0  0  0  0  0  0  0  0  0  0  0
   20.3486   -8.8030  -15.3422 C   0  0  0  0  0  0  0  0  0  0  0  0
   20.6027   -8.7921  -16.7147 C   0  0  0  0  0  0  0  0  0  0  0  0
   21.5487   -7.8831  -17.3409 C   0  0  0  0  0  0  0  0  0  0  0  0
   22.5836   -7.2722  -16.4317 C   0  0  2  0  0  0  0  0  0  0  0  0
   23.5057   -8.1788  -15.8443 N   0  0  0  0  0  0  0  0  0  0  0  0
   21.8736   -6.3849  -15.4835 C   0  0  0  0  0  0  0  0  0  0  0  0
   21.8820   -6.5856  -14.2602 O   0  0  0  0  0  0  0  0  0  0  0  0
   19.9209   -9.7009  -17.4811 C   0  0  0  0  0  0  0  0  0  0  0  0
   19.0118  -10.5976  -16.9125 C   0  0  0  0  0  0  0  0  0  0  0  0
   21.1821   -5.3025  -15.9802 O   0  0  0  0  0  0  0  0  0  0  0  0
  2  1  1  0
  3  2  1  0
  4  3  1  0
  4  5  1  0
  5  6  1  1
  7  5  1  0
  7  8  2  0
  9  7  1  0
 10  9  1  0
 11 12  1  0
 11 10  1  0
 12 13  1  0
 13  9  1  0
 13 14  1  6
 14 23  1  0
 15 14  2  0
 17 16  1  0
 17 18  2  0
 18 19  1  0
 20 19  2  0
 21 20  1  0
 22 21  1  1
 22 23  1  0
 22 24  1  0
 24 25  2  0
 24 28  1  0
 26 27  2  0
 26 20  1  0
 27 17  1  0
M  END
$$$$
