MPY.pdb
     RDKit          3D

 28 29  0  0  1  0  0  0  0  0999 V2000
   19.1511  -18.4720  -15.8032 C   0  0  0  0  0  0  0  0  0  0  0  0
   20.1113  -19.8676  -15.1747 S   0  0  0  0  0  0  0  0  0  0  0  0
   21.8006  -19.3337  -14.7498 C   0  0  0  0  0  0  0  0  0  0  0  0
   22.5761  -20.5573  -14.3314 C   0  0  0  0  0  0  0  0  0  0  0  0
   23.8267  -20.7977  -15.1530 C   0  0  2  0  0  0  0  0  0  0  0  0
   23.4747  -21.7258  -16.1966 N   0  0  0  0  0  0  0  0  0  0  0  0
   24.9862  -21.2337  -14.3763 C   0  0  0  0  0  0  0  0  0  0  0  0
   25.0445  -22.4644  -14.0783 O   0  0  0  0  0  0  0  0  0  0  0  0
   26.0024  -20.3741  -13.9621 N   0  0  0  0  0  0  0  0  0  0  0  0
   26.1141  -18.9987  -14.4786 C   0  0  0  0  0  0  0  0  0  0  0  0
   27.2552  -18.3447  -13.7939 C   0  0  0  0  0  0  0  0  0  0  0  0
   28.0846  -19.4712  -13.2863 C   0  0  0  0  0  0  0  0  0  0  0  0
   27.0631  -20.5724  -13.0484 C   0  0  1  0  0  0  0  0  0  0  0  0
   26.6246  -20.5863  -11.6214 C   0  0  0  0  0  0  0  0  0  0  0  0
   25.6863  -19.8291  -11.2726 O   0  0  0  0  0  0  0  0  0  0  0  0
   28.8486  -18.3941   -3.9081 O   0  0  0  0  0  0  0  0  0  0  0  0
   28.6169  -19.2437   -4.9645 C   0  0  0  0  0  0  0  0  0  0  0  0
   27.5455  -20.1332   -4.9897 C   0  0  0  0  0  0  0  0  0  0  0  0
   27.3391  -20.9715   -6.0608 C   0  0  0  0  0  0  0  0  0  0  0  0
   28.1902  -20.9692   -7.1670 C   0  0  0  0  0  0  0  0  0  0  0  0
   27.9968  -21.8320   -8.3209 C   0  0  0  0  0  0  0  0  0  0  0  0
   26.8802  -21.4478   -9.2572 C   0  0  2  0  0  0  0  0  0  0  0  0
   27.2133  -21.4113  -10.6374 N   0  0  0  0  0  0  0  0  0  0  0  0
   26.2550  -20.2177   -8.7220 C   0  0  0  0  0  0  0  0  0  0  0  0
   25.2250  -20.2477   -8.0327 O   0  0  0  0  0  0  0  0  0  0  0  0
   29.2436  -20.0929   -7.1400 C   0  0  0  0  0  0  0  0  0  0  0  0
   29.4549  -19.2405   -6.0526 C   0  0  0  0  0  0  0  0  0  0  0  0
   26.8392  -19.0023   -9.0012 O   0  0  0  0  0  0  0  0  0  0  0  0
  2  1  1  0
  3  2  1  0
  4  3  1  0
  4  5  1  0
  5  6  1  6
  7  5  1  0
  7  8  2  0
  9  7  1  0
 10  9  1  0
 11 12  1  0
 11 10  1  0
 12 13  1  0
 13  9  1  0
 13 14  1  1
 14 23  1  0
 15 14  2  0
 17 16  1  0
 17 18  2  0
 18 19  1  0
 20 19  2  0
 21 20  1  0
 22 21  1  1
 22 23  1  0
 22 24  1  0
 24 25  2  0
 24 28  1  0
 26 27  2  0
 26 20  1  0
 27 17  1  0
M  END
$$$$
