MPY.pdb
     RDKit          3D

 28 29  0  0  1  0  0  0  0  0999 V2000
   29.8946  -36.0125  -25.1309 C   0  0  0  0  0  0  0  0  0  0  0  0
   29.1021  -35.3864  -23.6327 S   0  0  0  0  0  0  0  0  0  0  0  0
   29.8050  -36.1952  -22.1592 C   0  0  0  0  0  0  0  0  0  0  0  0
   29.1296  -35.6055  -20.9469 C   0  0  0  0  0  0  0  0  0  0  0  0
   29.5138  -36.2805  -19.6455 C   0  0  2  0  0  0  0  0  0  0  0  0
   28.7286  -37.4838  -19.5457 N   0  0  0  0  0  0  0  0  0  0  0  0
   29.3943  -35.4280  -18.4637 C   0  0  0  0  0  0  0  0  0  0  0  0
   28.3248  -35.5303  -17.7908 O   0  0  0  0  0  0  0  0  0  0  0  0
   30.3821  -34.5321  -18.0578 N   0  0  0  0  0  0  0  0  0  0  0  0
   31.7221  -34.5246  -18.6704 C   0  0  0  0  0  0  0  0  0  0  0  0
   32.4988  -33.4205  -18.0571 C   0  0  0  0  0  0  0  0  0  0  0  0
   31.8015  -33.1385  -16.7730 C   0  0  0  0  0  0  0  0  0  0  0  0
   30.3597  -33.5185  -17.0723 C   0  0  1  0  0  0  0  0  0  0  0  0
   29.5693  -32.3168  -17.4723 C   0  0  0  0  0  0  0  0  0  0  0  0
   29.3476  -32.1208  -18.6920 O   0  0  0  0  0  0  0  0  0  0  0  0
   23.4452  -34.5906  -15.6195 O   0  0  0  0  0  0  0  0  0  0  0  0
   24.2921  -33.5113  -15.7167 C   0  0  0  0  0  0  0  0  0  0  0  0
   24.2227  -32.5963  -16.7644 C   0  0  0  0  0  0  0  0  0  0  0  0
   25.0838  -31.5258  -16.8351 C   0  0  0  0  0  0  0  0  0  0  0  0
   26.0626  -31.3082  -15.8641 C   0  0  0  0  0  0  0  0  0  0  0  0
   26.9817  -30.1824  -15.8999 C   0  0  0  0  0  0  0  0  0  0  0  0
   28.1605  -30.3172  -16.8290 C   0  0  2  0  0  0  0  0  0  0  0  0
   29.0550  -31.3833  -16.5451 N   0  0  0  0  0  0  0  0  0  0  0  0
   28.7842  -28.9807  -16.9522 C   0  0  0  0  0  0  0  0  0  0  0  0
   29.9485  -28.7602  -16.5881 O   0  0  0  0  0  0  0  0  0  0  0  0
   26.1288  -32.2097  -14.8340 C   0  0  0  0  0  0  0  0  0  0  0  0
   25.2547  -33.2980  -14.7607 C   0  0  0  0  0  0  0  0  0  0  0  0
   28.0436  -27.9510  -17.4888 O   0  0  0  0  0  0  0  0  0  0  0  0
  2  1  1  0
  3  2  1  0
  4  3  1  0
  4  5  1  0
  5  6  1  1
  7  5  1  0
  7  8  2  0
  9  7  1  0
 10  9  1  0
 11 12  1  0
 11 10  1  0
 12 13  1  0
 13  9  1  0
 13 14  1  6
 14 23  1  0
 15 14  2  0
 17 16  1  0
 17 18  2  0
 18 19  1  0
 20 19  2  0
 21 20  1  0
 22 21  1  1
 22 23  1  0
 22 24  1  0
 24 25  2  0
 24 28  1  0
 26 27  2  0
 26 20  1  0
 27 17  1  0
M  END
$$$$
