MPY.pdb
     RDKit          3D

 28 29  0  0  1  0  0  0  0  0999 V2000
   19.1318  -17.1105  -12.1180 C   0  0  0  0  0  0  0  0  0  0  0  0
   19.7904  -16.4033  -13.6447 S   0  0  0  0  0  0  0  0  0  0  0  0
   19.7631  -17.6425  -14.9799 C   0  0  0  0  0  0  0  0  0  0  0  0
   20.7857  -18.6990  -14.6454 C   0  0  0  0  0  0  0  0  0  0  0  0
   20.6450  -19.9659  -15.4653 C   0  0  2  0  0  0  0  0  0  0  0  0
   19.5598  -20.7208  -14.8936 N   0  0  0  0  0  0  0  0  0  0  0  0
   21.8748  -20.7474  -15.5867 C   0  0  0  0  0  0  0  0  0  0  0  0
   22.0728  -21.6414  -14.7100 O   0  0  0  0  0  0  0  0  0  0  0  0
   22.8123  -20.5546  -16.6001 N   0  0  0  0  0  0  0  0  0  0  0  0
   22.5239  -19.7124  -17.7741 C   0  0  0  0  0  0  0  0  0  0  0  0
   23.7425  -19.6715  -18.6178 C   0  0  0  0  0  0  0  0  0  0  0  0
   24.5265  -20.8668  -18.2037 C   0  0  0  0  0  0  0  0  0  0  0  0
   24.1262  -21.0553  -16.7487 C   0  0  1  0  0  0  0  0  0  0  0  0
   25.1170  -20.4056  -15.8403 C   0  0  0  0  0  0  0  0  0  0  0  0
   25.1121  -19.1545  -15.7406 O   0  0  0  0  0  0  0  0  0  0  0  0
   22.1173  -20.5308  -10.0120 O   0  0  0  0  0  0  0  0  0  0  0  0
   23.3188  -20.6432  -10.6718 C   0  0  0  0  0  0  0  0  0  0  0  0
   24.4055  -19.8170  -10.3958 C   0  0  0  0  0  0  0  0  0  0  0  0
   25.5954  -19.9531  -11.0726 C   0  0  0  0  0  0  0  0  0  0  0  0
   25.7679  -20.9215  -12.0628 C   0  0  0  0  0  0  0  0  0  0  0  0
   27.0135  -21.1020  -12.7902 C   0  0  0  0  0  0  0  0  0  0  0  0
   27.0378  -20.5820  -14.2044 C   0  0  2  0  0  0  0  0  0  0  0  0
   26.0650  -21.1288  -15.0829 N   0  0  0  0  0  0  0  0  0  0  0  0
   28.4370  -20.6558  -14.6810 C   0  0  0  0  0  0  0  0  0  0  0  0
   28.7877  -21.4359  -15.5783 O   0  0  0  0  0  0  0  0  0  0  0  0
   24.6973  -21.7336  -12.3324 C   0  0  0  0  0  0  0  0  0  0  0  0
   23.4875  -21.5966  -11.6458 C   0  0  0  0  0  0  0  0  0  0  0  0
   29.3770  -19.8296  -14.1062 O   0  0  0  0  0  0  0  0  0  0  0  0
  2  1  1  0
  3  2  1  0
  4  3  1  0
  4  5  1  0
  5  6  1  1
  7  5  1  0
  7  8  2  0
  9  7  1  0
 10  9  1  0
 11 12  1  0
 11 10  1  0
 12 13  1  0
 13  9  1  0
 13 14  1  1
 14 23  1  0
 15 14  2  0
 17 16  1  0
 17 18  2  0
 18 19  1  0
 20 19  2  0
 21 20  1  0
 22 21  1  1
 22 23  1  0
 22 24  1  0
 24 25  2  0
 24 28  1  0
 26 27  2  0
 26 20  1  0
 27 17  1  0
M  END
$$$$
