MPY.pdb
     RDKit          3D

 28 29  0  0  1  0  0  0  0  0999 V2000
   18.0906  -15.7214  -21.2367 C   0  0  0  0  0  0  0  0  0  0  0  0
   18.7636  -14.1823  -20.5711 S   0  0  0  0  0  0  0  0  0  0  0  0
   20.5051  -14.4100  -20.0866 C   0  0  0  0  0  0  0  0  0  0  0  0
   20.9883  -13.1119  -19.4908 C   0  0  0  0  0  0  0  0  0  0  0  0
   22.4227  -13.1604  -19.0039 C   0  0  2  0  0  0  0  0  0  0  0  0
   22.5397  -14.3129  -18.1480 N   0  0  0  0  0  0  0  0  0  0  0  0
   22.8856  -11.9307  -18.3625 C   0  0  0  0  0  0  0  0  0  0  0  0
   22.7681  -11.8643  -17.1020 O   0  0  0  0  0  0  0  0  0  0  0  0
   23.4363  -10.8580  -19.0620 N   0  0  0  0  0  0  0  0  0  0  0  0
   23.7180  -10.9359  -20.5061 C   0  0  0  0  0  0  0  0  0  0  0  0
   24.2365   -9.6171  -20.9423 C   0  0  0  0  0  0  0  0  0  0  0  0
   24.7217   -8.9717  -19.6922 C   0  0  0  0  0  0  0  0  0  0  0  0
   23.8215   -9.5705  -18.6226 C   0  0  1  0  0  0  0  0  0  0  0  0
   22.6664   -8.6681  -18.3391 C   0  0  0  0  0  0  0  0  0  0  0  0
   21.6511   -8.7412  -19.0734 O   0  0  0  0  0  0  0  0  0  0  0  0
   18.0786  -12.2230  -15.8072 O   0  0  0  0  0  0  0  0  0  0  0  0
   18.7780  -11.0402  -15.7494 C   0  0  0  0  0  0  0  0  0  0  0  0
   20.0801  -10.9627  -15.2613 C   0  0  0  0  0  0  0  0  0  0  0  0
   20.7550   -9.7648  -15.2156 C   0  0  0  0  0  0  0  0  0  0  0  0
   20.1683   -8.5767  -15.6546 C   0  0  0  0  0  0  0  0  0  0  0  0
   20.8545   -7.2954  -15.6322 C   0  0  0  0  0  0  0  0  0  0  0  0
   21.5678   -6.9021  -16.9001 C   0  0  2  0  0  0  0  0  0  0  0  0
   22.6559   -7.7311  -17.2821 N   0  0  0  0  0  0  0  0  0  0  0  0
   21.8722   -5.4566  -16.8085 C   0  0  0  0  0  0  0  0  0  0  0  0
   23.0344   -5.0254  -16.8210 O   0  0  0  0  0  0  0  0  0  0  0  0
   18.8871   -8.6556  -16.1347 C   0  0  0  0  0  0  0  0  0  0  0  0
   18.1999   -9.8719  -16.1817 C   0  0  0  0  0  0  0  0  0  0  0  0
   20.8277   -4.5649  -16.7058 O   0  0  0  0  0  0  0  0  0  0  0  0
  2  1  1  0
  3  2  1  0
  4  3  1  0
  4  5  1  0
  5  6  1  1
  7  5  1  0
  7  8  2  0
  9  7  1  0
 10  9  1  0
 11 12  1  0
 11 10  1  0
 12 13  1  0
 13  9  1  0
 13 14  1  6
 14 23  1  0
 15 14  2  0
 17 16  1  0
 17 18  2  0
 18 19  1  0
 20 19  2  0
 21 20  1  0
 22 21  1  1
 22 23  1  0
 22 24  1  0
 24 25  2  0
 24 28  1  0
 26 27  2  0
 26 20  1  0
 27 17  1  0
M  END
$$$$
