MPY.pdb
     RDKit          3D

 28 29  0  0  1  0  0  0  0  0999 V2000
   26.0560  -21.2631  -11.0071 C   0  0  0  0  0  0  0  0  0  0  0  0
   27.3109  -19.9693  -11.1320 S   0  0  0  0  0  0  0  0  0  0  0  0
   27.5685  -19.5033  -12.8744 C   0  0  0  0  0  0  0  0  0  0  0  0
   26.8906  -20.5422  -13.7315 C   0  0  0  0  0  0  0  0  0  0  0  0
   27.0841  -20.3270  -15.2192 C   0  0  2  0  0  0  0  0  0  0  0  0
   26.6633  -18.9805  -15.5096 N   0  0  0  0  0  0  0  0  0  0  0  0
   26.4239  -21.3203  -16.0650 C   0  0  0  0  0  0  0  0  0  0  0  0
   25.2202  -21.0873  -16.3870 O   0  0  0  0  0  0  0  0  0  0  0  0
   27.0479  -22.4810  -16.5193 N   0  0  0  0  0  0  0  0  0  0  0  0
   28.4975  -22.6944  -16.3644 C   0  0  0  0  0  0  0  0  0  0  0  0
   28.8203  -24.0413  -16.8935 C   0  0  0  0  0  0  0  0  0  0  0  0
   27.6814  -24.3753  -17.7912 C   0  0  0  0  0  0  0  0  0  0  0  0
   26.5177  -23.6197  -17.1686 C   0  0  1  0  0  0  0  0  0  0  0  0
   25.7343  -24.5106  -16.2623 C   0  0  0  0  0  0  0  0  0  0  0  0
   26.3553  -25.3055  -15.5154 O   0  0  0  0  0  0  0  0  0  0  0  0
   21.8463  -19.9045  -12.0457 O   0  0  0  0  0  0  0  0  0  0  0  0
   22.3362  -21.1160  -12.4746 C   0  0  0  0  0  0  0  0  0  0  0  0
   23.6944  -21.4238  -12.4567 C   0  0  0  0  0  0  0  0  0  0  0  0
   24.1551  -22.6447  -12.8923 C   0  0  0  0  0  0  0  0  0  0  0  0
   23.2863  -23.6270  -13.3703 C   0  0  0  0  0  0  0  0  0  0  0  0
   23.7357  -24.9316  -13.8277 C   0  0  0  0  0  0  0  0  0  0  0  0
   23.5159  -25.2352  -15.2874 C   0  0  2  0  0  0  0  0  0  0  0  0
   24.3230  -24.5062  -16.2007 N   0  0  0  0  0  0  0  0  0  0  0  0
   22.0587  -25.1747  -15.5392 C   0  0  0  0  0  0  0  0  0  0  0  0
   21.5564  -24.3420  -16.3081 O   0  0  0  0  0  0  0  0  0  0  0  0
   21.9503  -23.3218  -13.3867 C   0  0  0  0  0  0  0  0  0  0  0  0
   21.4804  -22.0818  -12.9446 C   0  0  0  0  0  0  0  0  0  0  0  0
   21.2375  -26.0742  -14.8965 O   0  0  0  0  0  0  0  0  0  0  0  0
  2  1  1  0
  3  2  1  0
  4  3  1  0
  4  5  1  0
  5  6  1  6
  7  5  1  0
  7  8  2  0
  9  7  1  0
 10  9  1  0
 11 12  1  0
 11 10  1  0
 12 13  1  0
 13  9  1  0
 13 14  1  1
 14 23  1  0
 15 14  2  0
 17 16  1  0
 17 18  2  0
 18 19  1  0
 20 19  2  0
 21 20  1  0
 22 21  1  1
 22 23  1  0
 22 24  1  0
 24 25  2  0
 24 28  1  0
 26 27  2  0
 26 20  1  0
 27 17  1  0
M  END
$$$$
