MPY.pdb
     RDKit          3D

 28 29  0  0  1  0  0  0  0  0999 V2000
   24.3264  -14.6707  -15.3083 C   0  0  0  0  0  0  0  0  0  0  0  0
   25.9600  -14.5623  -16.0728 S   0  0  0  0  0  0  0  0  0  0  0  0
   26.4399  -16.1746  -16.7725 C   0  0  0  0  0  0  0  0  0  0  0  0
   26.0412  -17.2403  -15.7830 C   0  0  0  0  0  0  0  0  0  0  0  0
   26.2359  -18.6530  -16.2961 C   0  0  2  0  0  0  0  0  0  0  0  0
   25.2817  -18.8527  -17.3563 N   0  0  0  0  0  0  0  0  0  0  0  0
   26.1597  -19.6868  -15.2650 C   0  0  0  0  0  0  0  0  0  0  0  0
   25.0204  -20.2014  -15.0545 O   0  0  0  0  0  0  0  0  0  0  0  0
   27.2593  -20.1180  -14.5247 N   0  0  0  0  0  0  0  0  0  0  0  0
   28.6349  -19.7264  -14.8786 C   0  0  0  0  0  0  0  0  0  0  0  0
   29.5492  -20.2998  -13.8620 C   0  0  0  0  0  0  0  0  0  0  0  0
   28.7749  -21.4100  -13.2435 C   0  0  0  0  0  0  0  0  0  0  0  0
   27.3339  -20.9432  -13.3790 C   0  0  1  0  0  0  0  0  0  0  0  0
   26.8781  -20.2675  -12.1281 C   0  0  0  0  0  0  0  0  0  0  0  0
   27.1233  -19.0455  -11.9806 O   0  0  0  0  0  0  0  0  0  0  0  0
   20.0765  -21.2873  -13.1390 O   0  0  0  0  0  0  0  0  0  0  0  0
   21.1666  -20.8162  -12.4452 C   0  0  0  0  0  0  0  0  0  0  0  0
   22.2937  -20.3008  -13.0806 C   0  0  0  0  0  0  0  0  0  0  0  0
   23.3696  -19.8367  -12.3598 C   0  0  0  0  0  0  0  0  0  0  0  0
   23.3811  -19.8607  -10.9643 C   0  0  0  0  0  0  0  0  0  0  0  0
   24.4946  -19.3686  -10.1698 C   0  0  0  0  0  0  0  0  0  0  0  0
   25.6223  -20.3401   -9.9340 C   0  0  2  0  0  0  0  0  0  0  0  0
   26.1816  -20.9348  -11.0961 N   0  0  0  0  0  0  0  0  0  0  0  0
   25.1810  -21.2870   -8.8856 C   0  0  0  0  0  0  0  0  0  0  0  0
   25.1635  -22.5129   -9.0693 O   0  0  0  0  0  0  0  0  0  0  0  0
   22.2708  -20.3680  -10.3413 C   0  0  0  0  0  0  0  0  0  0  0  0
   21.1768  -20.8402  -11.0721 C   0  0  0  0  0  0  0  0  0  0  0  0
   24.7772  -20.7861   -7.6680 O   0  0  0  0  0  0  0  0  0  0  0  0
  2  1  1  0
  3  2  1  0
  4  3  1  0
  4  5  1  0
  5  6  1  6
  7  5  1  0
  7  8  2  0
  9  7  1  0
 10  9  1  0
 11 12  1  0
 11 10  1  0
 12 13  1  0
 13  9  1  0
 13 14  1  1
 14 23  1  0
 15 14  2  0
 17 16  1  0
 17 18  2  0
 18 19  1  0
 20 19  2  0
 21 20  1  0
 22 21  1  6
 22 23  1  0
 22 24  1  0
 24 25  2  0
 24 28  1  0
 26 27  2  0
 26 20  1  0
 27 17  1  0
M  END
$$$$
