MPY.pdb
     RDKit          3D

 28 29  0  0  1  0  0  0  0  0999 V2000
   16.4193  -25.6437    3.8285 C   0  0  0  0  0  0  0  0  0  0  0  0
   16.4919  -25.3447    2.0481 S   0  0  0  0  0  0  0  0  0  0  0  0
   15.2233  -24.1326    1.5574 C   0  0  0  0  0  0  0  0  0  0  0  0
   15.5153  -22.8442    2.2845 C   0  0  0  0  0  0  0  0  0  0  0  0
   14.5109  -21.7443    2.0044 C   0  0  2  0  0  0  0  0  0  0  0  0
   14.3864  -21.6402    0.5733 N   0  0  0  0  0  0  0  0  0  0  0  0
   14.8228  -20.4646    2.6391 C   0  0  0  0  0  0  0  0  0  0  0  0
   15.2440  -19.5388    1.8824 O   0  0  0  0  0  0  0  0  0  0  0  0
   14.6792  -20.2278    4.0053 N   0  0  0  0  0  0  0  0  0  0  0  0
   14.1849  -21.2672    4.9253 C   0  0  0  0  0  0  0  0  0  0  0  0
   14.2117  -20.7113    6.2996 C   0  0  0  0  0  0  0  0  0  0  0  0
   14.2295  -19.2357    6.1079 C   0  0  0  0  0  0  0  0  0  0  0  0
   14.9390  -19.0693    4.7731 C   0  0  1  0  0  0  0  0  0  0  0  0
   16.3940  -18.8052    4.9781 C   0  0  0  0  0  0  0  0  0  0  0  0
   17.1962  -19.7678    4.9080 O   0  0  0  0  0  0  0  0  0  0  0  0
   17.2734  -11.4034    2.6664 O   0  0  0  0  0  0  0  0  0  0  0  0
   17.6562  -12.6755    3.0223 C   0  0  0  0  0  0  0  0  0  0  0  0
   16.9576  -13.8097    2.6157 C   0  0  0  0  0  0  0  0  0  0  0  0
   17.3646  -15.0700    2.9877 C   0  0  0  0  0  0  0  0  0  0  0  0
   18.4918  -15.2694    3.7863 C   0  0  0  0  0  0  0  0  0  0  0  0
   18.9580  -16.5861    4.1891 C   0  0  0  0  0  0  0  0  0  0  0  0
   18.2898  -17.1851    5.3999 C   0  0  2  0  0  0  0  0  0  0  0  0
   16.9184  -17.5216    5.2483 N   0  0  0  0  0  0  0  0  0  0  0  0
   18.6070  -16.3182    6.5568 C   0  0  0  0  0  0  0  0  0  0  0  0
   17.7370  -15.6604    7.1460 O   0  0  0  0  0  0  0  0  0  0  0  0
   19.1778  -14.1520    4.1848 C   0  0  0  0  0  0  0  0  0  0  0  0
   18.7656  -12.8706    3.8080 C   0  0  0  0  0  0  0  0  0  0  0  0
   19.9122  -16.2422    6.9895 O   0  0  0  0  0  0  0  0  0  0  0  0
  2  1  1  0
  3  2  1  0
  4  3  1  0
  4  5  1  0
  5  6  1  6
  7  5  1  0
  7  8  2  0
  9  7  1  0
 10  9  1  0
 11 12  1  0
 11 10  1  0
 12 13  1  0
 13  9  1  0
 13 14  1  1
 14 23  1  0
 15 14  2  0
 17 16  1  0
 17 18  2  0
 18 19  1  0
 20 19  2  0
 21 20  1  0
 22 21  1  6
 22 23  1  0
 22 24  1  0
 24 25  2  0
 24 28  1  0
 26 27  2  0
 26 20  1  0
 27 17  1  0
M  END
$$$$
