MPY.pdb
     RDKit          3D

 28 29  0  0  1  0  0  0  0  0999 V2000
   28.3211  -20.1359   -5.0436 C   0  0  0  0  0  0  0  0  0  0  0  0
   27.6376  -19.2932   -6.4883 S   0  0  0  0  0  0  0  0  0  0  0  0
   27.2798  -20.4937   -7.8112 C   0  0  0  0  0  0  0  0  0  0  0  0
   26.6677  -19.7372   -8.9630 C   0  0  0  0  0  0  0  0  0  0  0  0
   26.3299  -20.6097  -10.1554 C   0  0  2  0  0  0  0  0  0  0  0  0
   27.4102  -21.5493  -10.3111 N   0  0  0  0  0  0  0  0  0  0  0  0
   26.0424  -19.8703  -11.3836 C   0  0  0  0  0  0  0  0  0  0  0  0
   24.9918  -19.1610  -11.3912 O   0  0  0  0  0  0  0  0  0  0  0  0
   26.8551  -19.9126  -12.5154 N   0  0  0  0  0  0  0  0  0  0  0  0
   28.1444  -20.6257  -12.5189 C   0  0  0  0  0  0  0  0  0  0  0  0
   28.7181  -20.5261  -13.8825 C   0  0  0  0  0  0  0  0  0  0  0  0
   28.0293  -19.3581  -14.4957 C   0  0  0  0  0  0  0  0  0  0  0  0
   26.6766  -19.3510  -13.8007 C   0  0  1  0  0  0  0  0  0  0  0  0
   25.6560  -20.0634  -14.6250 C   0  0  0  0  0  0  0  0  0  0  0  0
   26.0155  -21.0583  -15.3004 O   0  0  0  0  0  0  0  0  0  0  0  0
   20.8266  -21.4082   -9.2199 O   0  0  0  0  0  0  0  0  0  0  0  0
   21.3803  -21.4892  -10.4763 C   0  0  0  0  0  0  0  0  0  0  0  0
   22.7551  -21.4424  -10.6938 C   0  0  0  0  0  0  0  0  0  0  0  0
   23.2801  -21.5258  -11.9626 C   0  0  0  0  0  0  0  0  0  0  0  0
   22.4624  -21.6605  -13.0858 C   0  0  0  0  0  0  0  0  0  0  0  0
   22.9819  -21.7631  -14.4397 C   0  0  0  0  0  0  0  0  0  0  0  0
   23.2164  -20.4610  -15.1611 C   0  0  2  0  0  0  0  0  0  0  0  0
   24.2992  -19.6747  -14.6852 N   0  0  0  0  0  0  0  0  0  0  0  0
   21.9150  -19.7619  -15.2504 C   0  0  0  0  0  0  0  0  0  0  0  0
   20.9019  -20.3103  -15.7083 O   0  0  0  0  0  0  0  0  0  0  0  0
   21.1100  -21.7067  -12.8692 C   0  0  0  0  0  0  0  0  0  0  0  0
   20.5749  -21.6220  -11.5807 C   0  0  0  0  0  0  0  0  0  0  0  0
   21.8308  -18.4598  -14.8098 O   0  0  0  0  0  0  0  0  0  0  0  0
  2  1  1  0
  3  2  1  0
  4  3  1  0
  4  5  1  0
  5  6  1  6
  7  5  1  0
  7  8  2  0
  9  7  1  0
 10  9  1  0
 11 12  1  0
 11 10  1  0
 12 13  1  0
 13  9  1  0
 13 14  1  6
 14 23  1  0
 15 14  2  0
 17 16  1  0
 17 18  2  0
 18 19  1  0
 20 19  2  0
 21 20  1  0
 22 21  1  1
 22 23  1  0
 22 24  1  0
 24 25  2  0
 24 28  1  0
 26 27  2  0
 26 20  1  0
 27 17  1  0
M  END
$$$$
