MPY.pdb
     RDKit          3D

 28 29  0  0  1  0  0  0  0  0999 V2000
   27.1832  -24.6133  -19.0784 C   0  0  0  0  0  0  0  0  0  0  0  0
   26.7226  -23.2092  -20.1181 S   0  0  0  0  0  0  0  0  0  0  0  0
   26.6350  -21.6859  -19.1224 C   0  0  0  0  0  0  0  0  0  0  0  0
   26.8963  -22.0621  -17.6858 C   0  0  0  0  0  0  0  0  0  0  0  0
   26.8420  -20.8886  -16.7281 C   0  0  2  0  0  0  0  0  0  0  0  0
   27.9001  -19.9868  -17.1044 N   0  0  0  0  0  0  0  0  0  0  0  0
   26.8908  -21.2589  -15.3145 C   0  0  0  0  0  0  0  0  0  0  0  0
   25.9828  -22.0383  -14.8961 O   0  0  0  0  0  0  0  0  0  0  0  0
   27.8691  -20.8022  -14.4327 N   0  0  0  0  0  0  0  0  0  0  0  0
   28.9865  -19.9548  -14.8844 C   0  0  0  0  0  0  0  0  0  0  0  0
   29.8005  -19.6005  -13.6968 C   0  0  0  0  0  0  0  0  0  0  0  0
   29.4558  -20.6339  -12.6830 C   0  0  0  0  0  0  0  0  0  0  0  0
   28.0260  -21.0071  -13.0425 C   0  0  1  0  0  0  0  0  0  0  0  0
   27.0544  -20.2340  -12.2136 C   0  0  0  0  0  0  0  0  0  0  0  0
   26.8172  -19.0405  -12.5207 O   0  0  0  0  0  0  0  0  0  0  0  0
   21.2921  -24.3932  -13.5002 O   0  0  0  0  0  0  0  0  0  0  0  0
   21.9921  -23.3235  -12.9929 C   0  0  0  0  0  0  0  0  0  0  0  0
   23.3213  -23.0726  -13.3245 C   0  0  0  0  0  0  0  0  0  0  0  0
   23.9960  -21.9941  -12.8010 C   0  0  0  0  0  0  0  0  0  0  0  0
   23.3821  -21.1052  -11.9170 C   0  0  0  0  0  0  0  0  0  0  0  0
   24.0597  -19.9492  -11.3533 C   0  0  0  0  0  0  0  0  0  0  0  0
   25.2352  -20.2408  -10.4566 C   0  0  2  0  0  0  0  0  0  0  0  0
   26.3842  -20.7782  -11.0954 N   0  0  0  0  0  0  0  0  0  0  0  0
   24.7307  -21.0152   -9.3006 C   0  0  0  0  0  0  0  0  0  0  0  0
   25.1785  -22.1342   -9.0105 O   0  0  0  0  0  0  0  0  0  0  0  0
   22.0740  -21.3540  -11.5925 C   0  0  0  0  0  0  0  0  0  0  0  0
   21.3870  -22.4494  -12.1234 C   0  0  0  0  0  0  0  0  0  0  0  0
   23.7312  -20.4718   -8.5246 O   0  0  0  0  0  0  0  0  0  0  0  0
  2  1  1  0
  3  2  1  0
  4  3  1  0
  4  5  1  0
  5  6  1  6
  7  5  1  0
  7  8  2  0
  9  7  1  0
 10  9  1  0
 11 12  1  0
 11 10  1  0
 12 13  1  0
 13  9  1  0
 13 14  1  1
 14 23  1  0
 15 14  2  0
 17 16  1  0
 17 18  2  0
 18 19  1  0
 20 19  2  0
 21 20  1  0
 22 21  1  6
 22 23  1  0
 22 24  1  0
 24 25  2  0
 24 28  1  0
 26 27  2  0
 26 20  1  0
 27 17  1  0
M  END
$$$$
