MPY.pdb
     RDKit          3D

 28 29  0  0  1  0  0  0  0  0999 V2000
   29.2547  -16.6164  -17.4904 C   0  0  0  0  0  0  0  0  0  0  0  0
   27.7632  -17.4552  -16.9102 S   0  0  0  0  0  0  0  0  0  0  0  0
   28.1366  -18.4672  -15.4419 C   0  0  0  0  0  0  0  0  0  0  0  0
   26.8429  -19.0785  -14.9659 C   0  0  0  0  0  0  0  0  0  0  0  0
   26.9216  -20.5752  -14.7410 C   0  0  2  0  0  0  0  0  0  0  0  0
   27.1936  -21.1809  -16.0191 N   0  0  0  0  0  0  0  0  0  0  0  0
   25.7503  -21.1500  -14.0810 C   0  0  0  0  0  0  0  0  0  0  0  0
   24.8982  -21.7219  -14.8251 O   0  0  0  0  0  0  0  0  0  0  0  0
   25.5390  -21.0963  -12.7042 N   0  0  0  0  0  0  0  0  0  0  0  0
   26.5304  -20.5037  -11.7894 C   0  0  0  0  0  0  0  0  0  0  0  0
   25.9719  -20.5520  -10.4168 C   0  0  0  0  0  0  0  0  0  0  0  0
   24.9211  -21.6041  -10.4753 C   0  0  0  0  0  0  0  0  0  0  0  0
   24.4501  -21.5417  -11.9200 C   0  0  1  0  0  0  0  0  0  0  0  0
   23.2367  -20.6806  -12.0428 C   0  0  0  0  0  0  0  0  0  0  0  0
   23.2252  -19.5699  -11.4584 O   0  0  0  0  0  0  0  0  0  0  0  0
   23.7525  -18.7615  -18.6331 O   0  0  0  0  0  0  0  0  0  0  0  0
   23.0983  -18.8052  -17.4241 C   0  0  0  0  0  0  0  0  0  0  0  0
   21.8094  -19.3147  -17.2874 C   0  0  0  0  0  0  0  0  0  0  0  0
   21.1801  -19.3454  -16.0645 C   0  0  0  0  0  0  0  0  0  0  0  0
   21.8019  -18.8693  -14.9091 C   0  0  0  0  0  0  0  0  0  0  0  0
   21.1727  -18.8963  -13.5989 C   0  0  0  0  0  0  0  0  0  0  0  0
   20.9354  -20.2606  -13.0044 C   0  0  2  0  0  0  0  0  0  0  0  0
   22.0944  -21.0520  -12.7862 N   0  0  0  0  0  0  0  0  0  0  0  0
   19.8632  -20.9083  -13.7926 C   0  0  0  0  0  0  0  0  0  0  0  0
   18.7501  -20.3848  -13.9468 O   0  0  0  0  0  0  0  0  0  0  0  0
   23.0703  -18.3687  -15.0460 C   0  0  0  0  0  0  0  0  0  0  0  0
   23.7111  -18.3366  -16.2878 C   0  0  0  0  0  0  0  0  0  0  0  0
   20.1139  -22.1324  -14.3717 O   0  0  0  0  0  0  0  0  0  0  0  0
  2  1  1  0
  3  2  1  0
  4  3  1  0
  4  5  1  0
  5  6  1  6
  7  5  1  0
  7  8  2  0
  9  7  1  0
 10  9  1  0
 11 12  1  0
 11 10  1  0
 12 13  1  0
 13  9  1  0
 13 14  1  1
 14 23  1  0
 15 14  2  0
 17 16  1  0
 17 18  2  0
 18 19  1  0
 20 19  2  0
 21 20  1  0
 22 21  1  6
 22 23  1  0
 22 24  1  0
 24 25  2  0
 24 28  1  0
 26 27  2  0
 26 20  1  0
 27 17  1  0
M  END
$$$$
