MPY.pdb
     RDKit          3D

 28 29  0  0  1  0  0  0  0  0999 V2000
   30.7624  -21.6389  -10.4930 C   0  0  0  0  0  0  0  0  0  0  0  0
   29.8048  -22.0214   -9.0093 S   0  0  0  0  0  0  0  0  0  0  0  0
   28.2412  -21.0862   -9.0063 C   0  0  0  0  0  0  0  0  0  0  0  0
   27.6609  -21.1596  -10.3961 C   0  0  0  0  0  0  0  0  0  0  0  0
   26.4530  -20.2673  -10.6010 C   0  0  2  0  0  0  0  0  0  0  0  0
   25.4521  -20.6870   -9.6541 N   0  0  0  0  0  0  0  0  0  0  0  0
   25.9527  -20.2328  -11.9744 C   0  0  0  0  0  0  0  0  0  0  0  0
   24.7055  -20.3956  -12.1326 O   0  0  0  0  0  0  0  0  0  0  0  0
   26.7694  -20.0330  -13.0862 N   0  0  0  0  0  0  0  0  0  0  0  0
   28.2154  -19.7840  -12.9523 C   0  0  0  0  0  0  0  0  0  0  0  0
   28.7889  -19.6776  -14.3154 C   0  0  0  0  0  0  0  0  0  0  0  0
   27.6265  -19.3602  -15.1887 C   0  0  0  0  0  0  0  0  0  0  0  0
   26.4618  -20.0192  -14.4662 C   0  0  1  0  0  0  0  0  0  0  0  0
   26.1906  -21.3751  -15.0291 C   0  0  0  0  0  0  0  0  0  0  0  0
   27.0284  -22.2881  -14.8298 O   0  0  0  0  0  0  0  0  0  0  0  0
   19.9095  -21.1438  -11.5372 O   0  0  0  0  0  0  0  0  0  0  0  0
   20.8944  -21.7528  -12.2793 C   0  0  0  0  0  0  0  0  0  0  0  0
   20.6133  -22.5596  -13.3792 C   0  0  0  0  0  0  0  0  0  0  0  0
   21.6200  -23.1559  -14.1027 C   0  0  0  0  0  0  0  0  0  0  0  0
   22.9640  -22.9805  -13.7692 C   0  0  0  0  0  0  0  0  0  0  0  0
   24.0542  -23.5851  -14.5170 C   0  0  0  0  0  0  0  0  0  0  0  0
   24.3840  -22.9475  -15.8420 C   0  0  2  0  0  0  0  0  0  0  0  0
   25.0343  -21.6864  -15.7785 N   0  0  0  0  0  0  0  0  0  0  0  0
   23.1596  -22.9896  -16.6723 C   0  0  0  0  0  0  0  0  0  0  0  0
   22.6255  -21.9610  -17.1122 O   0  0  0  0  0  0  0  0  0  0  0  0
   23.2382  -22.1861  -12.6866 C   0  0  0  0  0  0  0  0  0  0  0  0
   22.2165  -21.5795  -11.9503 C   0  0  0  0  0  0  0  0  0  0  0  0
   22.5983  -24.2130  -16.9633 O   0  0  0  0  0  0  0  0  0  0  0  0
  2  1  1  0
  3  2  1  0
  4  3  1  0
  4  5  1  0
  5  6  1  1
  7  5  1  0
  7  8  2  0
  9  7  1  0
 10  9  1  0
 11 12  1  0
 11 10  1  0
 12 13  1  0
 13  9  1  0
 13 14  1  6
 14 23  1  0
 15 14  2  0
 17 16  1  0
 17 18  2  0
 18 19  1  0
 20 19  2  0
 21 20  1  0
 22 21  1  1
 22 23  1  0
 22 24  1  0
 24 25  2  0
 24 28  1  0
 26 27  2  0
 26 20  1  0
 27 17  1  0
M  END
$$$$
