DHG.pdb
     RDKit          3D

 23 23  0  0  1  0  0  0  0  0999 V2000
   24.7322  -18.3232  -18.9679 N   0  0  0  0  0  0  0  0  0  0  0  0
   23.7181  -17.9551  -18.0049 C   0  0  1  0  0  0  0  0  0  0  0  0
   22.5283  -17.4204  -18.7693 C   0  0  0  0  0  0  0  0  0  0  0  0
   22.7830  -16.0249  -19.2098 C   0  0  0  0  0  0  0  0  0  0  0  0
   22.4756  -15.6474  -20.3610 O   0  0  0  0  0  0  0  0  0  0  0  0
   23.3655  -19.1456  -17.1950 C   0  0  0  0  0  0  0  0  0  0  0  0
   23.1430  -20.2595  -17.7513 O   0  0  0  0  0  0  0  0  0  0  0  0
   23.3683  -15.0961  -18.3620 O   0  0  0  0  0  0  0  0  0  0  0  0
   23.2607  -19.1019  -15.7787 N   0  0  0  0  0  0  0  0  0  0  0  0
   22.9980  -20.2388  -14.9573 C   0  0  1  0  0  0  0  0  0  0  0  0
   24.0683  -20.2627  -13.8647 C   0  0  0  0  0  0  0  0  0  0  0  0
   25.3797  -20.4732  -14.5111 C   0  0  0  0  0  0  0  0  0  0  0  0
   25.9352  -21.6746  -14.9248 C   0  0  0  0  0  0  0  0  0  0  0  0
   27.1380  -21.4339  -15.4639 N   0  0  0  0  0  0  0  0  0  0  0  0
   27.3195  -20.1017  -15.3828 C   0  0  0  0  0  0  0  0  0  0  0  0
   26.2585  -19.5191  -14.8074 N   0  0  0  0  0  0  0  0  0  0  0  0
   21.6863  -20.2462  -14.3176 C   0  0  0  0  0  0  0  0  0  0  0  0
   21.2359  -19.2242  -13.7621 O   0  0  0  0  0  0  0  0  0  0  0  0
   20.9102  -21.4321  -14.3261 N   0  0  0  0  0  0  0  0  0  0  0  0
   19.5674  -21.4884  -13.7745 C   0  0  0  0  0  0  0  0  0  0  0  0
   19.6890  -21.7627  -12.3309 C   0  0  0  0  0  0  0  0  0  0  0  0
   20.8332  -21.9200  -11.8229 O   0  0  0  0  0  0  0  0  0  0  0  0
   18.5896  -21.8575  -11.4923 O   0  0  0  0  0  0  0  0  0  0  0  0
  2  1  1  6
  2  3  1  0
  3  4  1  0
  4  8  1  0
  5  4  2  0
  6  9  1  0
  6  2  1  0
  7  6  2  0
 10 17  1  0
 10  9  1  0
 11 12  1  0
 10 11  1  1
 12 16  1  0
 13 14  1  0
 13 12  2  0
 14 15  1  0
 15 16  2  0
 17 19  1  0
 18 17  2  0
 19 20  1  0
 20 21  1  0
 21 22  2  0
 21 23  1  0
M  END
$$$$
