DHG.pdb
     RDKit          3D

 23 23  0  0  1  0  0  0  0  0999 V2000
   24.3185  -13.1407  -19.1524 N   0  0  0  0  0  0  0  0  0  0  0  0
   23.3988  -12.2704  -18.4539 C   0  0  1  0  0  0  0  0  0  0  0  0
   23.0552  -11.1246  -19.3785 C   0  0  0  0  0  0  0  0  0  0  0  0
   24.2462  -10.2645  -19.5987 C   0  0  0  0  0  0  0  0  0  0  0  0
   24.9018   -9.8143  -18.6346 O   0  0  0  0  0  0  0  0  0  0  0  0
   22.1975  -13.0476  -18.0664 C   0  0  0  0  0  0  0  0  0  0  0  0
   21.5713  -13.7347  -18.9240 O   0  0  0  0  0  0  0  0  0  0  0  0
   24.6702   -9.9330  -20.8771 O   0  0  0  0  0  0  0  0  0  0  0  0
   21.6940  -13.0634  -16.7378 N   0  0  0  0  0  0  0  0  0  0  0  0
   20.5583  -13.8185  -16.3182 C   0  0  1  0  0  0  0  0  0  0  0  0
   20.9605  -14.5698  -15.0478 C   0  0  0  0  0  0  0  0  0  0  0  0
   21.4552  -15.9049  -15.4411 C   0  0  0  0  0  0  0  0  0  0  0  0
   21.5453  -16.4297  -16.7215 C   0  0  0  0  0  0  0  0  0  0  0  0
   22.0465  -17.6701  -16.6480 N   0  0  0  0  0  0  0  0  0  0  0  0
   22.2619  -17.9048  -15.3392 C   0  0  0  0  0  0  0  0  0  0  0  0
   21.9053  -16.8396  -14.6080 N   0  0  0  0  0  0  0  0  0  0  0  0
   19.3664  -13.0280  -16.0281 C   0  0  0  0  0  0  0  0  0  0  0  0
   19.4508  -11.9248  -15.4522 O   0  0  0  0  0  0  0  0  0  0  0  0
   18.0916  -13.5194  -16.4054 N   0  0  0  0  0  0  0  0  0  0  0  0
   16.8774  -12.7374  -16.2484 C   0  0  0  0  0  0  0  0  0  0  0  0
   15.8097  -13.6543  -15.8087 C   0  0  0  0  0  0  0  0  0  0  0  0
   16.0678  -14.8797  -15.6548 O   0  0  0  0  0  0  0  0  0  0  0  0
   14.5160  -13.2279  -15.5526 O   0  0  0  0  0  0  0  0  0  0  0  0
  2  1  1  6
  2  3  1  0
  3  4  1  0
  4  8  1  0
  5  4  2  0
  6  9  1  0
  6  2  1  0
  7  6  2  0
 10 17  1  0
 10  9  1  0
 11 12  1  0
 10 11  1  1
 12 16  1  0
 13 14  1  0
 13 12  2  0
 14 15  1  0
 15 16  2  0
 17 19  1  0
 18 17  2  0
 19 20  1  0
 20 21  1  0
 21 22  2  0
 21 23  1  0
M  END
$$$$
