DHG.pdb
     RDKit          3D

 23 23  0  0  1  0  0  0  0  0999 V2000
   19.7529  -13.1855  -15.9661 N   0  0  0  0  0  0  0  0  0  0  0  0
   19.3197  -11.8550  -16.3312 C   0  0  1  0  0  0  0  0  0  0  0  0
   17.9464  -11.6376  -15.7374 C   0  0  0  0  0  0  0  0  0  0  0  0
   16.9634  -12.5611  -16.3597 C   0  0  0  0  0  0  0  0  0  0  0  0
   17.1460  -13.0156  -17.5095 O   0  0  0  0  0  0  0  0  0  0  0  0
   20.3040  -10.8697  -15.8235 C   0  0  0  0  0  0  0  0  0  0  0  0
   20.5030  -10.7405  -14.5811 O   0  0  0  0  0  0  0  0  0  0  0  0
   15.8134  -12.9496  -15.6885 O   0  0  0  0  0  0  0  0  0  0  0  0
   21.0625  -10.0338  -16.6865 N   0  0  0  0  0  0  0  0  0  0  0  0
   21.9590   -9.0184  -16.2375 C   0  0  1  0  0  0  0  0  0  0  0  0
   23.3362   -9.3438  -16.8184 C   0  0  0  0  0  0  0  0  0  0  0  0
   23.8374  -10.5649  -16.1553 C   0  0  0  0  0  0  0  0  0  0  0  0
   24.6291  -10.6461  -15.0196 C   0  0  0  0  0  0  0  0  0  0  0  0
   24.8622  -11.9364  -14.7443 N   0  0  0  0  0  0  0  0  0  0  0  0
   24.2221  -12.6396  -15.6983 C   0  0  0  0  0  0  0  0  0  0  0  0
   23.6021  -11.8130  -16.5521 N   0  0  0  0  0  0  0  0  0  0  0  0
   21.6004   -7.6608  -16.6350 C   0  0  0  0  0  0  0  0  0  0  0  0
   21.3173   -7.3911  -17.8195 O   0  0  0  0  0  0  0  0  0  0  0  0
   21.5728   -6.6308  -15.6618 N   0  0  0  0  0  0  0  0  0  0  0  0
   21.2961   -5.2455  -16.0011 C   0  0  0  0  0  0  0  0  0  0  0  0
   21.4635   -4.4437  -14.7751 C   0  0  0  0  0  0  0  0  0  0  0  0
   21.4403   -3.1843  -14.8488 O   0  0  0  0  0  0  0  0  0  0  0  0
   21.6482   -5.0160  -13.5264 O   0  0  0  0  0  0  0  0  0  0  0  0
  2  1  1  1
  2  3  1  0
  3  4  1  0
  4  8  1  0
  5  4  2  0
  6  9  1  0
  6  2  1  0
  7  6  2  0
 10 17  1  0
 10  9  1  0
 11 12  1  0
 10 11  1  6
 12 16  1  0
 13 14  1  0
 13 12  2  0
 14 15  1  0
 15 16  2  0
 17 19  1  0
 18 17  2  0
 19 20  1  0
 20 21  1  0
 21 22  2  0
 21 23  1  0
M  END
$$$$
