DHG.pdb
     RDKit          3D

 23 23  0  0  1  0  0  0  0  0999 V2000
   20.7023  -11.2538  -17.9534 N   0  0  0  0  0  0  0  0  0  0  0  0
   20.5975  -11.5612  -16.5442 C   0  0  1  0  0  0  0  0  0  0  0  0
   21.0572  -12.9881  -16.3478 C   0  0  0  0  0  0  0  0  0  0  0  0
   20.0997  -13.9304  -16.9815 C   0  0  0  0  0  0  0  0  0  0  0  0
   19.0219  -13.5235  -17.4661 O   0  0  0  0  0  0  0  0  0  0  0  0
   21.4277  -10.6022  -15.7771 C   0  0  0  0  0  0  0  0  0  0  0  0
   21.6119  -10.7599  -14.5357 O   0  0  0  0  0  0  0  0  0  0  0  0
   20.3679  -15.2892  -17.0574 O   0  0  0  0  0  0  0  0  0  0  0  0
   22.0494   -9.4766  -16.3815 N   0  0  0  0  0  0  0  0  0  0  0  0
   22.8763   -8.5453  -15.6848 C   0  0  1  0  0  0  0  0  0  0  0  0
   24.1909   -8.4418  -16.4599 C   0  0  0  0  0  0  0  0  0  0  0  0
   24.9665   -9.6750  -16.2154 C   0  0  0  0  0  0  0  0  0  0  0  0
   25.9529   -9.8784  -15.2622 C   0  0  0  0  0  0  0  0  0  0  0  0
   26.4072  -11.1343  -15.3687 N   0  0  0  0  0  0  0  0  0  0  0  0
   25.7091  -11.6959  -16.3746 C   0  0  0  0  0  0  0  0  0  0  0  0
   24.8380  -10.8160  -16.8877 N   0  0  0  0  0  0  0  0  0  0  0  0
   22.3148   -7.2052  -15.5488 C   0  0  0  0  0  0  0  0  0  0  0  0
   21.6777   -6.6771  -16.4821 O   0  0  0  0  0  0  0  0  0  0  0  0
   22.4952   -6.4903  -14.3383 N   0  0  0  0  0  0  0  0  0  0  0  0
   21.7898   -5.2530  -14.0517 C   0  0  0  0  0  0  0  0  0  0  0  0
   22.5373   -4.1547  -14.6910 C   0  0  0  0  0  0  0  0  0  0  0  0
   23.6068   -4.4094  -15.3103 O   0  0  0  0  0  0  0  0  0  0  0  0
   22.1150   -2.8355  -14.6436 O   0  0  0  0  0  0  0  0  0  0  0  0
  2  1  1  6
  2  3  1  0
  3  4  1  0
  4  8  1  0
  5  4  2  0
  6  9  1  0
  6  2  1  0
  7  6  2  0
 10 17  1  0
 10  9  1  0
 11 12  1  0
 10 11  1  6
 12 16  1  0
 13 14  1  0
 13 12  2  0
 14 15  1  0
 15 16  2  0
 17 19  1  0
 18 17  2  0
 19 20  1  0
 20 21  1  0
 21 22  2  0
 21 23  1  0
M  END
$$$$
