DHG.pdb
     RDKit          3D

 23 23  0  0  1  0  0  0  0  0999 V2000
   13.7419  -10.8806  -12.0492 N   0  0  0  0  0  0  0  0  0  0  0  0
   15.0134  -10.5359  -11.4527 C   0  0  1  0  0  0  0  0  0  0  0  0
   16.0921  -10.8063  -12.4770 C   0  0  0  0  0  0  0  0  0  0  0  0
   16.1165  -12.2485  -12.8318 C   0  0  0  0  0  0  0  0  0  0  0  0
   16.0987  -12.6177  -14.0258 O   0  0  0  0  0  0  0  0  0  0  0  0
   14.9848   -9.1117  -11.0425 C   0  0  0  0  0  0  0  0  0  0  0  0
   14.3396   -8.2599  -11.7193 O   0  0  0  0  0  0  0  0  0  0  0  0
   16.1601  -13.2314  -11.8541 O   0  0  0  0  0  0  0  0  0  0  0  0
   15.6661   -8.6350   -9.8904 N   0  0  0  0  0  0  0  0  0  0  0  0
   15.6112   -7.2871   -9.4251 C   0  0  1  0  0  0  0  0  0  0  0  0
   15.2159   -7.3358   -7.9481 C   0  0  0  0  0  0  0  0  0  0  0  0
   13.7796   -7.6712   -7.8680 C   0  0  0  0  0  0  0  0  0  0  0  0
   12.7093   -6.7928   -7.7914 C   0  0  0  0  0  0  0  0  0  0  0  0
   11.5717   -7.4985   -7.7353 N   0  0  0  0  0  0  0  0  0  0  0  0
   11.9379   -8.7941   -7.7769 C   0  0  0  0  0  0  0  0  0  0  0  0
   13.2715   -8.9009   -7.8571 N   0  0  0  0  0  0  0  0  0  0  0  0
   16.8613   -6.5436   -9.5432 C   0  0  0  0  0  0  0  0  0  0  0  0
   17.6347   -6.4272   -8.5715 O   0  0  0  0  0  0  0  0  0  0  0  0
   17.2043   -5.9431  -10.7804 N   0  0  0  0  0  0  0  0  0  0  0  0
   18.3866   -5.1146  -10.9431 C   0  0  0  0  0  0  0  0  0  0  0  0
   18.4322   -4.6732  -12.3491 C   0  0  0  0  0  0  0  0  0  0  0  0
   17.5661   -5.0988  -13.1621 O   0  0  0  0  0  0  0  0  0  0  0  0
   19.3959   -3.7997  -12.8281 O   0  0  0  0  0  0  0  0  0  0  0  0
  2  1  1  6
  2  3  1  0
  3  4  1  0
  4  8  1  0
  5  4  2  0
  6  9  1  0
  6  2  1  0
  7  6  2  0
 10 17  1  0
 10  9  1  0
 11 12  1  0
 10 11  1  1
 12 16  1  0
 13 14  1  0
 13 12  2  0
 14 15  1  0
 15 16  2  0
 17 19  1  0
 18 17  2  0
 19 20  1  0
 20 21  1  0
 21 22  2  0
 21 23  1  0
M  END
$$$$
