DHG.pdb
     RDKit          3D

 23 23  0  0  1  0  0  0  0  0999 V2000
   25.4177  -23.9595  -15.3598 N   0  0  0  0  0  0  0  0  0  0  0  0
   24.1248  -23.9328  -16.0071 C   0  0  1  0  0  0  0  0  0  0  0  0
   23.1213  -24.5498  -15.0595 C   0  0  0  0  0  0  0  0  0  0  0  0
   23.0735  -26.0227  -15.2461 C   0  0  0  0  0  0  0  0  0  0  0  0
   23.2674  -26.5355  -16.3693 O   0  0  0  0  0  0  0  0  0  0  0  0
   23.7802  -22.5303  -16.3412 C   0  0  0  0  0  0  0  0  0  0  0  0
   22.6644  -22.2494  -16.8664 O   0  0  0  0  0  0  0  0  0  0  0  0
   22.8134  -26.8764  -14.1843 O   0  0  0  0  0  0  0  0  0  0  0  0
   24.6658  -21.4469  -16.0947 N   0  0  0  0  0  0  0  0  0  0  0  0
   24.3816  -20.0870  -16.4206 C   0  0  1  0  0  0  0  0  0  0  0  0
   24.3607  -19.3034  -15.1071 C   0  0  0  0  0  0  0  0  0  0  0  0
   23.2098  -19.7742  -14.3098 C   0  0  0  0  0  0  0  0  0  0  0  0
   23.2131  -20.7243  -13.2997 C   0  0  0  0  0  0  0  0  0  0  0  0
   21.9660  -20.8628  -12.8299 N   0  0  0  0  0  0  0  0  0  0  0  0
   21.2057  -20.0088  -13.5420 C   0  0  0  0  0  0  0  0  0  0  0  0
   21.9550  -19.3499  -14.4368 N   0  0  0  0  0  0  0  0  0  0  0  0
   25.3429  -19.4554  -17.3187 C   0  0  0  0  0  0  0  0  0  0  0  0
   26.5252  -19.8488  -17.3750 O   0  0  0  0  0  0  0  0  0  0  0  0
   24.9290  -18.3776  -18.1409 N   0  0  0  0  0  0  0  0  0  0  0  0
   25.7747  -17.8245  -19.1847 C   0  0  0  0  0  0  0  0  0  0  0  0
   26.5693  -16.7365  -18.5857 C   0  0  0  0  0  0  0  0  0  0  0  0
   26.2057  -16.2345  -17.4866 O   0  0  0  0  0  0  0  0  0  0  0  0
   27.7140  -16.2308  -19.1813 O   0  0  0  0  0  0  0  0  0  0  0  0
  2  1  1  1
  2  3  1  0
  3  4  1  0
  4  8  1  0
  5  4  2  0
  6  9  1  0
  6  2  1  0
  7  6  2  0
 10 17  1  0
 10  9  1  0
 11 12  1  0
 10 11  1  1
 12 16  1  0
 13 14  1  0
 13 12  2  0
 14 15  1  0
 15 16  2  0
 17 19  1  0
 18 17  2  0
 19 20  1  0
 20 21  1  0
 21 22  2  0
 21 23  1  0
M  END
$$$$
