DHG.pdb
     RDKit          3D

 23 23  0  0  1  0  0  0  0  0999 V2000
   25.5005  -22.1143  -11.3763 N   0  0  0  0  0  0  0  0  0  0  0  0
   24.7409  -20.9131  -11.1094 C   0  0  1  0  0  0  0  0  0  0  0  0
   25.6199  -19.9797  -10.3082 C   0  0  0  0  0  0  0  0  0  0  0  0
   25.8970  -20.5559   -8.9674 C   0  0  0  0  0  0  0  0  0  0  0  0
   25.3479  -21.6157   -8.5966 O   0  0  0  0  0  0  0  0  0  0  0  0
   24.3224  -20.3095  -12.3969 C   0  0  0  0  0  0  0  0  0  0  0  0
   24.5535  -19.0902  -12.6414 O   0  0  0  0  0  0  0  0  0  0  0  0
   26.7714  -19.9401   -8.0842 O   0  0  0  0  0  0  0  0  0  0  0  0
   23.6527  -21.0520  -13.4065 N   0  0  0  0  0  0  0  0  0  0  0  0
   23.1773  -20.4950  -14.6312 C   0  0  1  0  0  0  0  0  0  0  0  0
   23.6964  -21.3843  -15.7625 C   0  0  0  0  0  0  0  0  0  0  0  0
   25.1571  -21.1898  -15.8660 C   0  0  0  0  0  0  0  0  0  0  0  0
   25.8341  -20.2723  -16.6552 C   0  0  0  0  0  0  0  0  0  0  0  0
   27.1513  -20.4192  -16.4588 N   0  0  0  0  0  0  0  0  0  0  0  0
   27.2824  -21.4142  -15.5604 C   0  0  0  0  0  0  0  0  0  0  0  0
   26.0788  -21.8814  -15.2007 N   0  0  0  0  0  0  0  0  0  0  0  0
   21.7251  -20.4063  -14.7444 C   0  0  0  0  0  0  0  0  0  0  0  0
   20.9868  -21.2819  -14.2505 O   0  0  0  0  0  0  0  0  0  0  0  0
   21.1420  -19.3088  -15.4261 N   0  0  0  0  0  0  0  0  0  0  0  0
   19.7051  -19.1641  -15.5839 C   0  0  0  0  0  0  0  0  0  0  0  0
   19.4621  -17.9232  -16.3422 C   0  0  0  0  0  0  0  0  0  0  0  0
   20.4431  -17.2438  -16.7522 O   0  0  0  0  0  0  0  0  0  0  0  0
   18.1880  -17.4601  -16.6306 O   0  0  0  0  0  0  0  0  0  0  0  0
  2  1  1  6
  2  3  1  0
  3  4  1  0
  4  8  1  0
  5  4  2  0
  6  9  1  0
  6  2  1  0
  7  6  2  0
 10 17  1  0
 10  9  1  0
 11 12  1  0
 10 11  1  6
 12 16  1  0
 13 14  1  0
 13 12  2  0
 14 15  1  0
 15 16  2  0
 17 19  1  0
 18 17  2  0
 19 20  1  0
 20 21  1  0
 21 22  2  0
 21 23  1  0
M  END
$$$$
