DHG.pdb
     RDKit          3D

 23 23  0  0  1  0  0  0  0  0999 V2000
   18.0765  -12.2059  -17.0638 N   0  0  0  0  0  0  0  0  0  0  0  0
   19.0929  -11.7630  -16.1353 C   0  0  1  0  0  0  0  0  0  0  0  0
   20.4199  -12.3131  -16.6068 C   0  0  0  0  0  0  0  0  0  0  0  0
   20.5233  -13.7590  -16.2829 C   0  0  0  0  0  0  0  0  0  0  0  0
   19.6168  -14.3433  -15.6513 O   0  0  0  0  0  0  0  0  0  0  0  0
   19.0932  -10.2814  -16.0894 C   0  0  0  0  0  0  0  0  0  0  0  0
   19.1061   -9.6044  -17.1578 O   0  0  0  0  0  0  0  0  0  0  0  0
   21.6251  -14.5079  -16.6692 O   0  0  0  0  0  0  0  0  0  0  0  0
   19.0791   -9.5552  -14.8682 N   0  0  0  0  0  0  0  0  0  0  0  0
   19.0744   -8.1309  -14.7807 C   0  0  1  0  0  0  0  0  0  0  0  0
   17.7851   -7.7274  -14.0632 C   0  0  0  0  0  0  0  0  0  0  0  0
   16.6450   -8.0842  -14.9321 C   0  0  0  0  0  0  0  0  0  0  0  0
   15.8369   -9.2080  -14.8477 C   0  0  0  0  0  0  0  0  0  0  0  0
   14.9174   -9.1556  -15.8208 N   0  0  0  0  0  0  0  0  0  0  0  0
   15.1572   -8.0143  -16.4949 C   0  0  0  0  0  0  0  0  0  0  0  0
   16.2007   -7.3653  -15.9598 N   0  0  0  0  0  0  0  0  0  0  0  0
   20.2036   -7.5548  -14.0578 C   0  0  0  0  0  0  0  0  0  0  0  0
   20.5818   -8.0327  -12.9694 O   0  0  0  0  0  0  0  0  0  0  0  0
   20.8829   -6.4345  -14.5986 N   0  0  0  0  0  0  0  0  0  0  0  0
   22.0955   -5.8977  -14.0054 C   0  0  0  0  0  0  0  0  0  0  0  0
   22.5153   -4.7408  -14.8174 C   0  0  0  0  0  0  0  0  0  0  0  0
   21.9092   -4.4852  -15.8942 O   0  0  0  0  0  0  0  0  0  0  0  0
   23.5600   -3.9079  -14.4489 O   0  0  0  0  0  0  0  0  0  0  0  0
  2  1  1  6
  2  3  1  0
  3  4  1  0
  4  8  1  0
  5  4  2  0
  6  9  1  0
  6  2  1  0
  7  6  2  0
 10 17  1  0
 10  9  1  0
 11 12  1  0
 10 11  1  1
 12 16  1  0
 13 14  1  0
 13 12  2  0
 14 15  1  0
 15 16  2  0
 17 19  1  0
 18 17  2  0
 19 20  1  0
 20 21  1  0
 21 22  2  0
 21 23  1  0
M  END
$$$$
