DHG.pdb
     RDKit          3D

 23 23  0  0  1  0  0  0  0  0999 V2000
   18.7316   -9.1489  -17.4050 N   0  0  0  0  0  0  0  0  0  0  0  0
   18.1964   -8.8715  -16.0905 C   0  0  1  0  0  0  0  0  0  0  0  0
   18.3887  -10.1089  -15.2434 C   0  0  0  0  0  0  0  0  0  0  0  0
   17.3990  -11.1507  -15.6198 C   0  0  0  0  0  0  0  0  0  0  0  0
   17.3854  -11.6396  -16.7699 O   0  0  0  0  0  0  0  0  0  0  0  0
   18.8982   -7.6967  -15.5208 C   0  0  0  0  0  0  0  0  0  0  0  0
   18.6103   -7.2737  -14.3640 O   0  0  0  0  0  0  0  0  0  0  0  0
   16.4595  -11.6152  -14.7111 O   0  0  0  0  0  0  0  0  0  0  0  0
   19.9118   -6.9958  -16.2279 N   0  0  0  0  0  0  0  0  0  0  0  0
   20.6788   -5.9243  -15.6802 C   0  0  1  0  0  0  0  0  0  0  0  0
   22.1352   -6.3897  -15.6341 C   0  0  0  0  0  0  0  0  0  0  0  0
   22.2040   -7.5997  -14.7896 C   0  0  0  0  0  0  0  0  0  0  0  0
   22.5056   -8.8931  -15.1886 C   0  0  0  0  0  0  0  0  0  0  0  0
   22.4633   -9.6985  -14.1187 N   0  0  0  0  0  0  0  0  0  0  0  0
   22.1398   -8.9103  -13.0753 C   0  0  0  0  0  0  0  0  0  0  0  0
   21.9827   -7.6417  -13.4783 N   0  0  0  0  0  0  0  0  0  0  0  0
   20.6177   -4.6758  -16.4334 C   0  0  0  0  0  0  0  0  0  0  0  0
   20.7311   -4.6678  -17.6755 O   0  0  0  0  0  0  0  0  0  0  0  0
   20.4269   -3.4516  -15.7449 N   0  0  0  0  0  0  0  0  0  0  0  0
   20.3287   -2.1769  -16.4347 C   0  0  0  0  0  0  0  0  0  0  0  0
   20.1080   -1.1340  -15.4161 C   0  0  0  0  0  0  0  0  0  0  0  0
   19.8826   -1.4708  -14.2212 O   0  0  0  0  0  0  0  0  0  0  0  0
   20.1368    0.2196  -15.7129 O   0  0  0  0  0  0  0  0  0  0  0  0
  2  1  1  6
  2  3  1  0
  3  4  1  0
  4  8  1  0
  5  4  2  0
  6  9  1  0
  6  2  1  0
  7  6  2  0
 10 17  1  0
 10  9  1  0
 11 12  1  0
 10 11  1  6
 12 16  1  0
 13 14  1  0
 13 12  2  0
 14 15  1  0
 15 16  2  0
 17 19  1  0
 18 17  2  0
 19 20  1  0
 20 21  1  0
 21 22  2  0
 21 23  1  0
M  END
$$$$
