DHG.pdb
     RDKit          3D

 23 23  0  0  1  0  0  0  0  0999 V2000
   23.7710  -12.1493  -19.7944 N   0  0  0  0  0  0  0  0  0  0  0  0
   23.9611  -10.7382  -19.5414 C   0  0  1  0  0  0  0  0  0  0  0  0
   22.8987   -9.9846  -20.3090 C   0  0  0  0  0  0  0  0  0  0  0  0
   23.3241   -9.7854  -21.7182 C   0  0  0  0  0  0  0  0  0  0  0  0
   24.4611  -10.1342  -22.1025 O   0  0  0  0  0  0  0  0  0  0  0  0
   23.8689  -10.4918  -18.0826 C   0  0  0  0  0  0  0  0  0  0  0  0
   23.1173  -11.2037  -17.3559 O   0  0  0  0  0  0  0  0  0  0  0  0
   22.4772   -9.2080  -22.6528 O   0  0  0  0  0  0  0  0  0  0  0  0
   24.6045   -9.4638  -17.4338 N   0  0  0  0  0  0  0  0  0  0  0  0
   24.5415   -9.1918  -16.0344 C   0  0  1  0  0  0  0  0  0  0  0  0
   25.9819   -9.0966  -15.5282 C   0  0  0  0  0  0  0  0  0  0  0  0
   26.6385  -10.3986  -15.7640 C   0  0  0  0  0  0  0  0  0  0  0  0
   26.4650  -11.5746  -15.0498 C   0  0  0  0  0  0  0  0  0  0  0  0
   27.2429  -12.5257  -15.5841 N   0  0  0  0  0  0  0  0  0  0  0  0
   27.8863  -11.9420  -16.6135 C   0  0  0  0  0  0  0  0  0  0  0  0
   27.5227  -10.6567  -16.7242 N   0  0  0  0  0  0  0  0  0  0  0  0
   23.8454   -7.9598  -15.6775 C   0  0  0  0  0  0  0  0  0  0  0  0
   24.1359   -7.3351  -14.6377 O   0  0  0  0  0  0  0  0  0  0  0  0
   22.8226   -7.4634  -16.5240 N   0  0  0  0  0  0  0  0  0  0  0  0
   22.0368   -6.2881  -16.1898 C   0  0  0  0  0  0  0  0  0  0  0  0
   20.7242   -6.7521  -15.7041 C   0  0  0  0  0  0  0  0  0  0  0  0
   20.4833   -7.9896  -15.6523 O   0  0  0  0  0  0  0  0  0  0  0  0
   19.7270   -5.8806  -15.2955 O   0  0  0  0  0  0  0  0  0  0  0  0
  2  1  1  1
  2  3  1  0
  3  4  1  0
  4  8  1  0
  5  4  2  0
  6  9  1  0
  6  2  1  0
  7  6  2  0
 10 17  1  0
 10  9  1  0
 11 12  1  0
 10 11  1  6
 12 16  1  0
 13 14  1  0
 13 12  2  0
 14 15  1  0
 15 16  2  0
 17 19  1  0
 18 17  2  0
 19 20  1  0
 20 21  1  0
 21 22  2  0
 21 23  1  0
M  END
$$$$
