DHG.pdb
     RDKit          3D

 23 23  0  0  1  0  0  0  0  0999 V2000
   23.0880  -17.0222  -16.4948 N   0  0  0  0  0  0  0  0  0  0  0  0
   23.0979  -18.1707  -17.3736 C   0  0  1  0  0  0  0  0  0  0  0  0
   24.2299  -17.9880  -18.3590 C   0  0  0  0  0  0  0  0  0  0  0  0
   24.1631  -16.6389  -18.9771 C   0  0  0  0  0  0  0  0  0  0  0  0
   23.0692  -16.1432  -19.3230 O   0  0  0  0  0  0  0  0  0  0  0  0
   23.2645  -19.3995  -16.5614 C   0  0  0  0  0  0  0  0  0  0  0  0
   23.4303  -20.5223  -17.1197 O   0  0  0  0  0  0  0  0  0  0  0  0
   25.3081  -15.8856  -19.1904 O   0  0  0  0  0  0  0  0  0  0  0  0
   23.2478  -19.3840  -15.1408 N   0  0  0  0  0  0  0  0  0  0  0  0
   23.3260  -20.5514  -14.3238 C   0  0  1  0  0  0  0  0  0  0  0  0
   24.5978  -20.4287  -13.4827 C   0  0  0  0  0  0  0  0  0  0  0  0
   25.7496  -20.7809  -14.3379 C   0  0  0  0  0  0  0  0  0  0  0  0
   25.7362  -21.0870  -15.6903 C   0  0  0  0  0  0  0  0  0  0  0  0
   26.9885  -21.3481  -16.0888 N   0  0  0  0  0  0  0  0  0  0  0  0
   27.7619  -21.2045  -14.9954 C   0  0  0  0  0  0  0  0  0  0  0  0
   27.0155  -20.8618  -13.9362 N   0  0  0  0  0  0  0  0  0  0  0  0
   22.1951  -20.7492  -13.4229 C   0  0  0  0  0  0  0  0  0  0  0  0
   21.7002  -19.7934  -12.7925 O   0  0  0  0  0  0  0  0  0  0  0  0
   21.6489  -22.0469  -13.2597 N   0  0  0  0  0  0  0  0  0  0  0  0
   20.5419  -22.3186  -12.3591 C   0  0  0  0  0  0  0  0  0  0  0  0
   19.3119  -21.8180  -13.0000 C   0  0  0  0  0  0  0  0  0  0  0  0
   19.0519  -22.1502  -14.1891 O   0  0  0  0  0  0  0  0  0  0  0  0
   18.4140  -20.9872  -12.3486 O   0  0  0  0  0  0  0  0  0  0  0  0
  2  1  1  1
  2  3  1  0
  3  4  1  0
  4  8  1  0
  5  4  2  0
  6  9  1  0
  6  2  1  0
  7  6  2  0
 10 17  1  0
 10  9  1  0
 11 12  1  0
 10 11  1  1
 12 16  1  0
 13 14  1  0
 13 12  2  0
 14 15  1  0
 15 16  2  0
 17 19  1  0
 18 17  2  0
 19 20  1  0
 20 21  1  0
 21 22  2  0
 21 23  1  0
M  END
$$$$
