DHG.pdb
     RDKit          3D

 23 23  0  0  1  0  0  0  0  0999 V2000
   26.6808  -37.7826   -5.3514 N   0  0  0  0  0  0  0  0  0  0  0  0
   27.7770  -37.0354   -5.9269 C   0  0  1  0  0  0  0  0  0  0  0  0
   27.9481  -37.4948   -7.3571 C   0  0  0  0  0  0  0  0  0  0  0  0
   28.0477  -38.9757   -7.4148 C   0  0  0  0  0  0  0  0  0  0  0  0
   28.7574  -39.6050   -6.6009 O   0  0  0  0  0  0  0  0  0  0  0  0
   27.4714  -35.5873   -5.8439 C   0  0  0  0  0  0  0  0  0  0  0  0
   28.3135  -34.7284   -6.2349 O   0  0  0  0  0  0  0  0  0  0  0  0
   27.3588  -39.7085   -8.3701 O   0  0  0  0  0  0  0  0  0  0  0  0
   26.2411  -35.0946   -5.3316 N   0  0  0  0  0  0  0  0  0  0  0  0
   25.9612  -33.7140   -5.1039 C   0  0  1  0  0  0  0  0  0  0  0  0
   24.8573  -33.3103   -6.0830 C   0  0  0  0  0  0  0  0  0  0  0  0
   25.4876  -32.9954   -7.3812 C   0  0  0  0  0  0  0  0  0  0  0  0
   26.8350  -33.0560   -7.7038 C   0  0  0  0  0  0  0  0  0  0  0  0
   26.9918  -32.6922   -8.9837 N   0  0  0  0  0  0  0  0  0  0  0  0
   25.7567  -32.4114   -9.4422 C   0  0  0  0  0  0  0  0  0  0  0  0
   24.8462  -32.5939   -8.4757 N   0  0  0  0  0  0  0  0  0  0  0  0
   25.5185  -33.3905   -3.7515 C   0  0  0  0  0  0  0  0  0  0  0  0
   25.1143  -32.2461   -3.4636 O   0  0  0  0  0  0  0  0  0  0  0  0
   25.5474  -34.3906   -2.7476 N   0  0  0  0  0  0  0  0  0  0  0  0
   25.2091  -34.1137   -1.3621 C   0  0  0  0  0  0  0  0  0  0  0  0
   26.3687  -34.4941   -0.5349 C   0  0  0  0  0  0  0  0  0  0  0  0
   27.4097  -34.9393   -1.0920 O   0  0  0  0  0  0  0  0  0  0  0  0
   26.3702  -34.3845    0.8468 O   0  0  0  0  0  0  0  0  0  0  0  0
  2  1  1  6
  2  3  1  0
  3  4  1  0
  4  8  1  0
  5  4  2  0
  6  9  1  0
  6  2  1  0
  7  6  2  0
 10 17  1  0
 10  9  1  0
 11 12  1  0
 10 11  1  6
 12 16  1  0
 13 14  1  0
 13 12  2  0
 14 15  1  0
 15 16  2  0
 17 19  1  0
 18 17  2  0
 19 20  1  0
 20 21  1  0
 21 22  2  0
 21 23  1  0
M  END
$$$$
