DHG.pdb
     RDKit          3D

 23 23  0  0  1  0  0  0  0  0999 V2000
   29.5867  -34.5168    4.0895 N   0  0  0  0  0  0  0  0  0  0  0  0
   28.1916  -34.1895    3.8949 C   0  0  1  0  0  0  0  0  0  0  0  0
   27.4543  -35.4739    3.5911 C   0  0  0  0  0  0  0  0  0  0  0  0
   27.6405  -35.8511    2.1665 C   0  0  0  0  0  0  0  0  0  0  0  0
   28.2421  -35.0947    1.3740 O   0  0  0  0  0  0  0  0  0  0  0  0
   27.6744  -33.5308    5.1180 C   0  0  0  0  0  0  0  0  0  0  0  0
   28.2485  -33.7007    6.2321 O   0  0  0  0  0  0  0  0  0  0  0  0
   27.1554  -37.0514    1.6686 O   0  0  0  0  0  0  0  0  0  0  0  0
   26.5293  -32.6898    5.1063 N   0  0  0  0  0  0  0  0  0  0  0  0
   25.9727  -32.0745    6.2673 C   0  0  1  0  0  0  0  0  0  0  0  0
   25.2138  -30.8316    5.7990 C   0  0  0  0  0  0  0  0  0  0  0  0
   26.1178  -29.6694    5.9186 C   0  0  0  0  0  0  0  0  0  0  0  0
   27.2283  -29.5431    6.7394 C   0  0  0  0  0  0  0  0  0  0  0  0
   27.7743  -28.3346    6.5481 N   0  0  0  0  0  0  0  0  0  0  0  0
   27.0091  -27.7257    5.6217 C   0  0  0  0  0  0  0  0  0  0  0  0
   26.0076  -28.5303    5.2398 N   0  0  0  0  0  0  0  0  0  0  0  0
   25.0548  -32.9149    7.0293 C   0  0  0  0  0  0  0  0  0  0  0  0
   24.1979  -33.6163    6.4552 O   0  0  0  0  0  0  0  0  0  0  0  0
   25.1360  -32.9362    8.4442 N   0  0  0  0  0  0  0  0  0  0  0  0
   24.3208  -33.8213    9.2582 C   0  0  0  0  0  0  0  0  0  0  0  0
   23.0244  -33.1551    9.4808 C   0  0  0  0  0  0  0  0  0  0  0  0
   22.8092  -32.0257    8.9610 O   0  0  0  0  0  0  0  0  0  0  0  0
   22.0154  -33.7187   10.2457 O   0  0  0  0  0  0  0  0  0  0  0  0
  2  1  1  1
  2  3  1  0
  3  4  1  0
  4  8  1  0
  5  4  2  0
  6  9  1  0
  6  2  1  0
  7  6  2  0
 10 17  1  0
 10  9  1  0
 11 12  1  0
 10 11  1  6
 12 16  1  0
 13 14  1  0
 13 12  2  0
 14 15  1  0
 15 16  2  0
 17 19  1  0
 18 17  2  0
 19 20  1  0
 20 21  1  0
 21 22  2  0
 21 23  1  0
M  END
$$$$
