DHG.pdb
     RDKit          3D

 23 23  0  0  1  0  0  0  0  0999 V2000
   23.3909   -9.4194  -18.8781 N   0  0  0  0  0  0  0  0  0  0  0  0
   22.2198   -8.9950  -19.6127 C   0  0  1  0  0  0  0  0  0  0  0  0
   21.8647  -10.0929  -20.5896 C   0  0  0  0  0  0  0  0  0  0  0  0
   22.9206  -10.2223  -21.6263 C   0  0  0  0  0  0  0  0  0  0  0  0
   23.6025   -9.2352  -21.9768 O   0  0  0  0  0  0  0  0  0  0  0  0
   21.1192   -8.7286  -18.6561 C   0  0  0  0  0  0  0  0  0  0  0  0
   20.0071   -8.2835  -19.0623 O   0  0  0  0  0  0  0  0  0  0  0  0
   23.1854  -11.4384  -22.2386 O   0  0  0  0  0  0  0  0  0  0  0  0
   21.2500   -8.9542  -17.2594 N   0  0  0  0  0  0  0  0  0  0  0  0
   20.2305   -8.6731  -16.3014 C   0  0  1  0  0  0  0  0  0  0  0  0
   20.2856   -9.7795  -15.2465 C   0  0  0  0  0  0  0  0  0  0  0  0
   19.5270  -10.9395  -15.7576 C   0  0  0  0  0  0  0  0  0  0  0  0
   18.7703  -11.0102  -16.9175 C   0  0  0  0  0  0  0  0  0  0  0  0
   18.2449  -12.2386  -17.0188 N   0  0  0  0  0  0  0  0  0  0  0  0
   18.6731  -12.9143  -15.9351 C   0  0  0  0  0  0  0  0  0  0  0  0
   19.4480  -12.1314  -15.1716 N   0  0  0  0  0  0  0  0  0  0  0  0
   20.3583   -7.3858  -15.6260 C   0  0  0  0  0  0  0  0  0  0  0  0
   19.4434   -6.9463  -14.9010 O   0  0  0  0  0  0  0  0  0  0  0  0
   21.5395   -6.6210  -15.7951 N   0  0  0  0  0  0  0  0  0  0  0  0
   21.6664   -5.2627  -15.2956 C   0  0  0  0  0  0  0  0  0  0  0  0
   21.9830   -5.3436  -13.8579 C   0  0  0  0  0  0  0  0  0  0  0  0
   22.0551   -6.4733  -13.3005 O   0  0  0  0  0  0  0  0  0  0  0  0
   22.2086   -4.2208  -13.0773 O   0  0  0  0  0  0  0  0  0  0  0  0
  2  1  1  1
  2  3  1  0
  3  4  1  0
  4  8  1  0
  5  4  2  0
  6  9  1  0
  6  2  1  0
  7  6  2  0
 10 17  1  0
 10  9  1  0
 11 12  1  0
 10 11  1  1
 12 16  1  0
 13 14  1  0
 13 12  2  0
 14 15  1  0
 15 16  2  0
 17 19  1  0
 18 17  2  0
 19 20  1  0
 20 21  1  0
 21 22  2  0
 21 23  1  0
M  END
$$$$
