DHG.pdb
     RDKit          3D

 23 23  0  0  1  0  0  0  0  0999 V2000
   20.3644  -10.1465  -17.0697 N   0  0  0  0  0  0  0  0  0  0  0  0
   21.4432   -9.3338  -16.5529 C   0  0  1  0  0  0  0  0  0  0  0  0
   22.2609   -8.8502  -17.7290 C   0  0  0  0  0  0  0  0  0  0  0  0
   23.0221   -9.9772  -18.3263 C   0  0  0  0  0  0  0  0  0  0  0  0
   23.1975  -10.0520  -19.5615 O   0  0  0  0  0  0  0  0  0  0  0  0
   20.8713   -8.2080  -15.7766 C   0  0  0  0  0  0  0  0  0  0  0  0
   19.8618   -7.5779  -16.2052 O   0  0  0  0  0  0  0  0  0  0  0  0
   23.5626  -10.9815  -17.5368 O   0  0  0  0  0  0  0  0  0  0  0  0
   21.4141   -7.7836  -14.5339 N   0  0  0  0  0  0  0  0  0  0  0  0
   20.9108   -6.6888  -13.7696 C   0  0  1  0  0  0  0  0  0  0  0  0
   20.8143   -7.1593  -12.3172 C   0  0  0  0  0  0  0  0  0  0  0  0
   19.5924   -7.9780  -12.1800 C   0  0  0  0  0  0  0  0  0  0  0  0
   18.6972   -8.3345  -13.1772 C   0  0  0  0  0  0  0  0  0  0  0  0
   17.7240   -9.0823  -12.6399 N   0  0  0  0  0  0  0  0  0  0  0  0
   18.0171   -9.1843  -11.3291 C   0  0  0  0  0  0  0  0  0  0  0  0
   19.1457   -8.5178  -11.0489 N   0  0  0  0  0  0  0  0  0  0  0  0
   21.7303   -5.4819  -13.8094 C   0  0  0  0  0  0  0  0  0  0  0  0
   22.9413   -5.5168  -13.5128 O   0  0  0  0  0  0  0  0  0  0  0  0
   21.1431   -4.2495  -14.1905 N   0  0  0  0  0  0  0  0  0  0  0  0
   21.8965   -3.0081  -14.2342 C   0  0  0  0  0  0  0  0  0  0  0  0
   20.9876   -1.9511  -14.7144 C   0  0  0  0  0  0  0  0  0  0  0  0
   19.8439   -2.2642  -15.1458 O   0  0  0  0  0  0  0  0  0  0  0  0
   21.3347   -0.6093  -14.7147 O   0  0  0  0  0  0  0  0  0  0  0  0
  2  1  1  6
  2  3  1  0
  3  4  1  0
  4  8  1  0
  5  4  2  0
  6  9  1  0
  6  2  1  0
  7  6  2  0
 10 17  1  0
 10  9  1  0
 11 12  1  0
 10 11  1  1
 12 16  1  0
 13 14  1  0
 13 12  2  0
 14 15  1  0
 15 16  2  0
 17 19  1  0
 18 17  2  0
 19 20  1  0
 20 21  1  0
 21 22  2  0
 21 23  1  0
M  END
$$$$
