DHG.pdb
     RDKit          3D

 23 23  0  0  1  0  0  0  0  0999 V2000
   18.4612   -9.8923  -15.9082 N   0  0  0  0  0  0  0  0  0  0  0  0
   18.3442   -8.6390  -16.6200 C   0  0  1  0  0  0  0  0  0  0  0  0
   16.8788   -8.2698  -16.6663 C   0  0  0  0  0  0  0  0  0  0  0  0
   16.1284   -9.2409  -17.5031 C   0  0  0  0  0  0  0  0  0  0  0  0
   16.5677   -9.6069  -18.6144 O   0  0  0  0  0  0  0  0  0  0  0  0
   19.1520   -7.6099  -15.9231 C   0  0  0  0  0  0  0  0  0  0  0  0
   18.9199   -7.3194  -14.7141 O   0  0  0  0  0  0  0  0  0  0  0  0
   14.9189   -9.7732  -17.0813 O   0  0  0  0  0  0  0  0  0  0  0  0
   20.2097   -6.9079  -16.5614 N   0  0  0  0  0  0  0  0  0  0  0  0
   20.9781   -5.8771  -15.9424 C   0  0  1  0  0  0  0  0  0  0  0  0
   22.4072   -6.4038  -15.7997 C   0  0  0  0  0  0  0  0  0  0  0  0
   22.3796   -7.5647  -14.8868 C   0  0  0  0  0  0  0  0  0  0  0  0
   22.7415   -8.8728  -15.1713 C   0  0  0  0  0  0  0  0  0  0  0  0
   22.5713   -9.6193  -14.0718 N   0  0  0  0  0  0  0  0  0  0  0  0
   22.1107   -8.7809  -13.1234 C   0  0  0  0  0  0  0  0  0  0  0  0
   21.9940   -7.5389  -13.6135 N   0  0  0  0  0  0  0  0  0  0  0  0
   21.0228   -4.6170  -16.6772 C   0  0  0  0  0  0  0  0  0  0  0  0
   21.4424   -4.5714  -17.8509 O   0  0  0  0  0  0  0  0  0  0  0  0
   20.5830   -3.4248  -16.0493 N   0  0  0  0  0  0  0  0  0  0  0  0
   20.6210   -2.1340  -16.7150 C   0  0  0  0  0  0  0  0  0  0  0  0
   20.0656   -1.1350  -15.7836 C   0  0  0  0  0  0  0  0  0  0  0  0
   19.4859   -1.5215  -14.7317 O   0  0  0  0  0  0  0  0  0  0  0  0
   20.1512    0.2294  -16.0119 O   0  0  0  0  0  0  0  0  0  0  0  0
  2  1  1  1
  2  3  1  0
  3  4  1  0
  4  8  1  0
  5  4  2  0
  6  9  1  0
  6  2  1  0
  7  6  2  0
 10 17  1  0
 10  9  1  0
 11 12  1  0
 10 11  1  6
 12 16  1  0
 13 14  1  0
 13 12  2  0
 14 15  1  0
 15 16  2  0
 17 19  1  0
 18 17  2  0
 19 20  1  0
 20 21  1  0
 21 22  2  0
 21 23  1  0
M  END
$$$$
