DHG.pdb
     RDKit          3D

 23 23  0  0  1  0  0  0  0  0999 V2000
   30.6698  -28.1275  -20.6259 N   0  0  0  0  0  0  0  0  0  0  0  0
   31.6314  -27.9552  -19.5596 C   0  0  1  0  0  0  0  0  0  0  0  0
   31.7872  -26.4715  -19.3141 C   0  0  0  0  0  0  0  0  0  0  0  0
   32.5346  -25.8394  -20.4314 C   0  0  0  0  0  0  0  0  0  0  0  0
   32.9245  -26.5149  -21.4080 O   0  0  0  0  0  0  0  0  0  0  0  0
   31.1483  -28.6677  -18.3529 C   0  0  0  0  0  0  0  0  0  0  0  0
   31.7643  -28.5619  -17.2533 O   0  0  0  0  0  0  0  0  0  0  0  0
   32.8241  -24.4829  -20.4294 O   0  0  0  0  0  0  0  0  0  0  0  0
   29.9906  -29.4914  -18.3647 N   0  0  0  0  0  0  0  0  0  0  0  0
   29.5463  -30.2684  -17.2534 C   0  0  1  0  0  0  0  0  0  0  0  0
   28.0169  -30.2682  -17.2856 C   0  0  0  0  0  0  0  0  0  0  0  0
   27.5520  -28.8927  -17.0140 C   0  0  0  0  0  0  0  0  0  0  0  0
   28.2169  -27.8987  -16.3118 C   0  0  0  0  0  0  0  0  0  0  0  0
   27.4547  -26.7970  -16.2924 N   0  0  0  0  0  0  0  0  0  0  0  0
   26.3356  -27.1095  -16.9739 C   0  0  0  0  0  0  0  0  0  0  0  0
   26.3921  -28.3753  -17.4109 N   0  0  0  0  0  0  0  0  0  0  0  0
   30.0068  -31.6531  -17.2469 C   0  0  0  0  0  0  0  0  0  0  0  0
   30.3916  -32.2078  -18.2958 O   0  0  0  0  0  0  0  0  0  0  0  0
   30.0177  -32.3814  -16.0310 N   0  0  0  0  0  0  0  0  0  0  0  0
   30.6597  -33.6786  -15.9057 C   0  0  0  0  0  0  0  0  0  0  0  0
   29.7987  -34.6695  -16.5772 C   0  0  0  0  0  0  0  0  0  0  0  0
   28.7177  -34.2941  -17.1087 O   0  0  0  0  0  0  0  0  0  0  0  0
   30.1251  -36.0143  -16.6536 O   0  0  0  0  0  0  0  0  0  0  0  0
  2  1  1  6
  2  3  1  0
  3  4  1  0
  4  8  1  0
  5  4  2  0
  6  9  1  0
  6  2  1  0
  7  6  2  0
 10 17  1  0
 10  9  1  0
 11 12  1  0
 10 11  1  6
 12 16  1  0
 13 14  1  0
 13 12  2  0
 14 15  1  0
 15 16  2  0
 17 19  1  0
 18 17  2  0
 19 20  1  0
 20 21  1  0
 21 22  2  0
 21 23  1  0
M  END
$$$$
