DHG.pdb
     RDKit          3D

 23 23  0  0  1  0  0  0  0  0999 V2000
   17.8193   -9.9344  -16.2889 N   0  0  0  0  0  0  0  0  0  0  0  0
   18.4099  -10.1216  -14.9822 C   0  0  1  0  0  0  0  0  0  0  0  0
   18.9703  -11.5247  -14.9258 C   0  0  0  0  0  0  0  0  0  0  0  0
   17.8876  -12.5211  -15.1287 C   0  0  0  0  0  0  0  0  0  0  0  0
   16.8491  -12.4932  -14.4339 O   0  0  0  0  0  0  0  0  0  0  0  0
   19.4613   -9.0974  -14.7755 C   0  0  0  0  0  0  0  0  0  0  0  0
   20.1008   -9.0425  -13.6856 O   0  0  0  0  0  0  0  0  0  0  0  0
   17.9913  -13.5130  -16.0929 O   0  0  0  0  0  0  0  0  0  0  0  0
   19.8018   -8.1410  -15.7697 N   0  0  0  0  0  0  0  0  0  0  0  0
   20.8331   -7.1654  -15.6259 C   0  0  1  0  0  0  0  0  0  0  0  0
   21.7686   -7.3177  -16.8266 C   0  0  0  0  0  0  0  0  0  0  0  0
   22.4463   -8.6257  -16.7176 C   0  0  0  0  0  0  0  0  0  0  0  0
   23.6321   -8.9110  -16.0576 C   0  0  0  0  0  0  0  0  0  0  0  0
   23.9029  -10.2159  -16.1964 N   0  0  0  0  0  0  0  0  0  0  0  0
   22.8967  -10.7261  -16.9322 C   0  0  0  0  0  0  0  0  0  0  0  0
   22.0153   -9.7671  -17.2483 N   0  0  0  0  0  0  0  0  0  0  0  0
   20.3696   -5.7825  -15.5755 C   0  0  0  0  0  0  0  0  0  0  0  0
   21.1740   -4.8392  -15.4376 O   0  0  0  0  0  0  0  0  0  0  0  0
   18.9841   -5.5043  -15.6845 N   0  0  0  0  0  0  0  0  0  0  0  0
   18.4479   -4.1593  -15.5660 C   0  0  0  0  0  0  0  0  0  0  0  0
   18.7857   -3.4334  -16.8041 C   0  0  0  0  0  0  0  0  0  0  0  0
   19.8756   -2.8016  -16.8758 O   0  0  0  0  0  0  0  0  0  0  0  0
   17.9506   -3.4115  -17.9100 O   0  0  0  0  0  0  0  0  0  0  0  0
  2  1  1  6
  2  3  1  0
  3  4  1  0
  4  8  1  0
  5  4  2  0
  6  9  1  0
  6  2  1  0
  7  6  2  0
 10 17  1  0
 10  9  1  0
 11 12  1  0
 10 11  1  6
 12 16  1  0
 13 14  1  0
 13 12  2  0
 14 15  1  0
 15 16  2  0
 17 19  1  0
 18 17  2  0
 19 20  1  0
 20 21  1  0
 21 22  2  0
 21 23  1  0
M  END
$$$$
