YQG.pdb
     RDKit          3D

 26 26  0  0  1  0  0  0  0  0999 V2000
    7.4284  -10.6232   27.1177 O   0  0  0  0  0  0  0  0  0  0  0  0
    7.3400  -11.9872   26.8405 C   0  0  0  0  0  0  0  0  0  0  0  0
    8.4434  -12.5942   26.2729 C   0  0  0  0  0  0  0  0  0  0  0  0
    8.4349  -13.9492   25.9666 C   0  0  0  0  0  0  0  0  0  0  0  0
    7.3139  -14.7059   26.2296 C   0  0  0  0  0  0  0  0  0  0  0  0
    7.2256  -16.1623   25.9313 C   0  0  0  0  0  0  0  0  0  0  0  0
    6.6550  -16.2908   24.5491 C   0  0  2  0  0  0  0  0  0  0  0  0
    5.8133  -17.4687   24.5339 N   0  0  0  0  0  0  0  0  0  0  0  0
    7.6331  -16.3680   23.4814 C   0  0  0  0  0  0  0  0  0  0  0  0
    8.1145  -17.4888   23.1846 O   0  0  0  0  0  0  0  0  0  0  0  0
    6.2235  -14.0814   26.7962 C   0  0  0  0  0  0  0  0  0  0  0  0
    6.2129  -12.7341   27.1081 C   0  0  0  0  0  0  0  0  0  0  0  0
    8.8299  -12.7089   18.4775 N   0  0  0  0  0  0  0  0  0  0  0  0
    7.8673  -13.7351   18.5942 C   0  0  0  0  0  0  0  0  0  0  0  0
    6.9586  -13.8620   17.7368 O   0  0  0  0  0  0  0  0  0  0  0  0
    7.9176  -14.6756   19.7309 C   0  0  0  0  0  0  0  0  0  0  0  0
    9.0426  -14.3114   20.6786 C   0  0  0  0  0  0  0  0  0  0  0  0
    9.1263  -15.4069   21.7160 C   0  0  2  0  0  0  0  0  0  0  0  0
    8.1026  -15.2551   22.7261 N   0  0  0  0  0  0  0  0  0  0  0  0
   10.4768  -15.4985   22.3296 C   0  0  0  0  0  0  0  0  0  0  0  0
   11.5041  -15.6477   21.6011 O   0  0  0  0  0  0  0  0  0  0  0  0
   10.6473  -15.4216   23.7361 N   0  0  0  0  0  0  0  0  0  0  0  0
   11.9779  -15.3585   24.3004 C   0  0  0  0  0  0  0  0  0  0  0  0
   12.5011  -16.7201   24.5463 C   0  0  0  0  0  0  0  0  0  0  0  0
   12.5444  -17.5677   23.6186 O   0  0  0  0  0  0  0  0  0  0  0  0
   12.9488  -17.0516   25.8321 O   0  0  0  0  0  0  0  0  0  0  0  0
  2  3  2  0
  2  1  1  0
  4  3  1  0
  5  4  2  0
  6  5  1  0
  7  6  1  0
  7  9  1  0
  7  8  1  1
  9 19  1  0
  9 10  2  0
 11  5  1  0
 11 12  2  0
 12  2  1  0
 14 15  2  0
 14 13  1  0
 16 14  1  0
 17 16  1  0
 18 17  1  6
 19 18  1  0
 20 18  1  0
 20 21  2  0
 22 20  1  0
 23 22  1  0
 24 23  1  0
 25 24  2  0
 26 24  1  0
M  END
$$$$
