YQG.pdb
     RDKit          3D

 26 26  0  0  1  0  0  0  0  0999 V2000
    6.8887  -13.1747   16.5588 O   0  0  0  0  0  0  0  0  0  0  0  0
    7.3769  -13.6116   17.7901 C   0  0  0  0  0  0  0  0  0  0  0  0
    8.1241  -12.7175   18.5320 C   0  0  0  0  0  0  0  0  0  0  0  0
    8.6458  -13.0759   19.7686 C   0  0  0  0  0  0  0  0  0  0  0  0
    8.4196  -14.3394   20.2697 C   0  0  0  0  0  0  0  0  0  0  0  0
    8.9436  -14.8000   21.5853 C   0  0  0  0  0  0  0  0  0  0  0  0
   10.3516  -15.2661   21.3553 C   0  0  2  0  0  0  0  0  0  0  0  0
   10.3091  -16.2901   20.3328 N   0  0  0  0  0  0  0  0  0  0  0  0
   11.0360  -15.7687   22.5306 C   0  0  0  0  0  0  0  0  0  0  0  0
   10.3653  -16.3590   23.4126 O   0  0  0  0  0  0  0  0  0  0  0  0
    7.6717  -15.2165   19.5138 C   0  0  0  0  0  0  0  0  0  0  0  0
    7.1441  -14.8782   18.2810 C   0  0  0  0  0  0  0  0  0  0  0  0
   12.1599  -21.1801   22.6146 N   0  0  0  0  0  0  0  0  0  0  0  0
   11.5437  -19.9304   22.3865 C   0  0  0  0  0  0  0  0  0  0  0  0
   10.6947  -19.7919   21.4718 O   0  0  0  0  0  0  0  0  0  0  0  0
   11.8917  -18.7662   23.2246 C   0  0  0  0  0  0  0  0  0  0  0  0
   13.0564  -18.0035   22.6257 C   0  0  0  0  0  0  0  0  0  0  0  0
   13.1885  -16.7106   23.3966 C   0  0  2  0  0  0  0  0  0  0  0  0
   12.4345  -15.6459   22.7726 N   0  0  0  0  0  0  0  0  0  0  0  0
   14.6078  -16.3176   23.5967 C   0  0  0  0  0  0  0  0  0  0  0  0
   15.3827  -17.0424   24.2912 O   0  0  0  0  0  0  0  0  0  0  0  0
   15.1257  -15.1296   23.0191 N   0  0  0  0  0  0  0  0  0  0  0  0
   16.4916  -14.7333   23.2836 C   0  0  0  0  0  0  0  0  0  0  0  0
   17.4184  -15.4193   22.3568 C   0  0  0  0  0  0  0  0  0  0  0  0
   17.0012  -16.3141   21.5782 O   0  0  0  0  0  0  0  0  0  0  0  0
   18.7717  -15.0555   22.3599 O   0  0  0  0  0  0  0  0  0  0  0  0
  2  3  2  0
  2  1  1  0
  4  3  1  0
  5  4  2  0
  6  5  1  0
  7  6  1  0
  7  9  1  0
  7  8  1  6
  9 19  1  0
  9 10  2  0
 11  5  1  0
 11 12  2  0
 12  2  1  0
 14 15  2  0
 14 13  1  0
 16 14  1  0
 17 16  1  0
 18 17  1  6
 19 18  1  0
 20 18  1  0
 20 21  2  0
 22 20  1  0
 23 22  1  0
 24 23  1  0
 25 24  2  0
 26 24  1  0
M  END
$$$$
