YQG.pdb
     RDKit          3D

 26 26  0  0  1  0  0  0  0  0999 V2000
    6.4087  -10.6019   27.5596 O   0  0  0  0  0  0  0  0  0  0  0  0
    6.5471  -11.6169   26.6131 C   0  0  0  0  0  0  0  0  0  0  0  0
    5.5433  -12.5632   26.5432 C   0  0  0  0  0  0  0  0  0  0  0  0
    5.6067  -13.6058   25.6273 C   0  0  0  0  0  0  0  0  0  0  0  0
    6.6829  -13.7049   24.7726 C   0  0  0  0  0  0  0  0  0  0  0  0
    6.8249  -14.7911   23.7639 C   0  0  0  0  0  0  0  0  0  0  0  0
    7.2947  -16.0117   24.5001 C   0  0  2  0  0  0  0  0  0  0  0  0
    6.3292  -16.2893   25.5426 N   0  0  0  0  0  0  0  0  0  0  0  0
    8.6245  -15.9160   25.0702 C   0  0  0  0  0  0  0  0  0  0  0  0
    8.7742  -15.2928   26.1497 O   0  0  0  0  0  0  0  0  0  0  0  0
    7.6739  -12.7506   24.8583 C   0  0  0  0  0  0  0  0  0  0  0  0
    7.6285  -11.7057   25.7632 C   0  0  0  0  0  0  0  0  0  0  0  0
    9.3766  -21.1133   26.5408 N   0  0  0  0  0  0  0  0  0  0  0  0
    8.7431  -20.0109   27.1544 C   0  0  0  0  0  0  0  0  0  0  0  0
    8.2158  -20.1243   28.2884 O   0  0  0  0  0  0  0  0  0  0  0  0
    8.6926  -18.7054   26.4671 C   0  0  0  0  0  0  0  0  0  0  0  0
    9.3138  -18.8013   25.0881 C   0  0  0  0  0  0  0  0  0  0  0  0
   10.3622  -17.7173   24.9932 C   0  0  2  0  0  0  0  0  0  0  0  0
    9.7988  -16.4817   24.4956 N   0  0  0  0  0  0  0  0  0  0  0  0
   11.5343  -18.1380   24.1821 C   0  0  0  0  0  0  0  0  0  0  0  0
   12.2312  -19.1382   24.5317 O   0  0  0  0  0  0  0  0  0  0  0  0
   11.8989  -17.4348   23.0049 N   0  0  0  0  0  0  0  0  0  0  0  0
   12.6415  -16.1972   23.1031 C   0  0  0  0  0  0  0  0  0  0  0  0
   14.0933  -16.4696   23.1847 C   0  0  0  0  0  0  0  0  0  0  0  0
   14.5706  -17.1195   24.1494 O   0  0  0  0  0  0  0  0  0  0  0  0
   14.9303  -15.9911   22.1677 O   0  0  0  0  0  0  0  0  0  0  0  0
  2  3  2  0
  2  1  1  0
  4  3  1  0
  5  4  2  0
  6  5  1  0
  7  6  1  0
  7  9  1  0
  7  8  1  1
  9 19  1  0
  9 10  2  0
 11  5  1  0
 11 12  2  0
 12  2  1  0
 14 15  2  0
 14 13  1  0
 16 14  1  0
 17 16  1  0
 18 17  1  6
 19 18  1  0
 20 18  1  0
 20 21  2  0
 22 20  1  0
 23 22  1  0
 24 23  1  0
 25 24  2  0
 26 24  1  0
M  END
$$$$
