YQG.pdb
     RDKit          3D

 26 26  0  0  1  0  0  0  0  0999 V2000
    9.9791  -14.5437   30.2504 O   0  0  0  0  0  0  0  0  0  0  0  0
   10.2706  -14.8658   28.9251 C   0  0  0  0  0  0  0  0  0  0  0  0
    9.6077  -14.1622   27.9385 C   0  0  0  0  0  0  0  0  0  0  0  0
    9.8422  -14.4232   26.5943 C   0  0  0  0  0  0  0  0  0  0  0  0
   10.7476  -15.3965   26.2314 C   0  0  0  0  0  0  0  0  0  0  0  0
   11.0547  -15.7358   24.8142 C   0  0  0  0  0  0  0  0  0  0  0  0
    9.7624  -15.6519   24.0555 C   0  0  2  0  0  0  0  0  0  0  0  0
    8.9449  -16.7749   24.4635 N   0  0  0  0  0  0  0  0  0  0  0  0
    9.8935  -15.6343   22.6116 C   0  0  0  0  0  0  0  0  0  0  0  0
    9.8496  -16.7235   21.9888 O   0  0  0  0  0  0  0  0  0  0  0  0
   11.3986  -16.0872   27.2309 C   0  0  0  0  0  0  0  0  0  0  0  0
   11.1785  -15.8416   28.5741 C   0  0  0  0  0  0  0  0  0  0  0  0
    8.3582  -13.3716   17.1868 N   0  0  0  0  0  0  0  0  0  0  0  0
    7.5305  -13.9108   18.1956 C   0  0  0  0  0  0  0  0  0  0  0  0
    6.4051  -14.3907   17.9126 O   0  0  0  0  0  0  0  0  0  0  0  0
    7.9802  -13.9170   19.6015 C   0  0  0  0  0  0  0  0  0  0  0  0
    9.4128  -13.4343   19.7083 C   0  0  0  0  0  0  0  0  0  0  0  0
   10.2042  -14.5284   20.3865 C   0  0  2  0  0  0  0  0  0  0  0  0
   10.0717  -14.4600   21.8250 N   0  0  0  0  0  0  0  0  0  0  0  0
   11.6332  -14.5246   19.9781 C   0  0  0  0  0  0  0  0  0  0  0  0
   11.9507  -14.5972   18.7526 O   0  0  0  0  0  0  0  0  0  0  0  0
   12.6692  -14.4403   20.9440 N   0  0  0  0  0  0  0  0  0  0  0  0
   14.0485  -14.3472   20.5180 C   0  0  0  0  0  0  0  0  0  0  0  0
   14.6738  -15.6876   20.4913 C   0  0  0  0  0  0  0  0  0  0  0  0
   15.9065  -15.8161   20.2799 O   0  0  0  0  0  0  0  0  0  0  0  0
   13.8690  -16.8146   20.7056 O   0  0  0  0  0  0  0  0  0  0  0  0
  2  3  2  0
  2  1  1  0
  4  3  1  0
  5  4  2  0
  6  5  1  0
  7  6  1  0
  7  9  1  0
  7  8  1  6
  9 19  1  0
  9 10  2  0
 11  5  1  0
 11 12  2  0
 12  2  1  0
 14 15  2  0
 14 13  1  0
 16 14  1  0
 17 16  1  0
 18 17  1  6
 19 18  1  0
 20 18  1  0
 20 21  2  0
 22 20  1  0
 23 22  1  0
 24 23  1  0
 25 24  2  0
 26 24  1  0
M  END
$$$$
