YQG.pdb
     RDKit          3D

 26 26  0  0  1  0  0  0  0  0999 V2000
    5.2360  -10.2180   26.4225 O   0  0  0  0  0  0  0  0  0  0  0  0
    5.9456  -11.4160   26.3419 C   0  0  0  0  0  0  0  0  0  0  0  0
    5.2722  -12.5776   26.6665 C   0  0  0  0  0  0  0  0  0  0  0  0
    5.9083  -13.8114   26.6115 C   0  0  0  0  0  0  0  0  0  0  0  0
    7.2298  -13.8865   26.2287 C   0  0  0  0  0  0  0  0  0  0  0  0
    7.9821  -15.1690   26.1446 C   0  0  0  0  0  0  0  0  0  0  0  0
    7.6809  -15.7642   24.8001 C   0  0  2  0  0  0  0  0  0  0  0  0
    6.4501  -16.5165   24.9234 N   0  0  0  0  0  0  0  0  0  0  0  0
    8.7237  -16.6084   24.2504 C   0  0  0  0  0  0  0  0  0  0  0  0
    8.5990  -17.8546   24.3373 O   0  0  0  0  0  0  0  0  0  0  0  0
    7.8838  -12.7160   25.9089 C   0  0  0  0  0  0  0  0  0  0  0  0
    7.2677  -11.4788   25.9576 C   0  0  0  0  0  0  0  0  0  0  0  0
   12.8593  -15.0183   19.9471 N   0  0  0  0  0  0  0  0  0  0  0  0
   11.4868  -15.3217   19.8148 C   0  0  0  0  0  0  0  0  0  0  0  0
   10.8520  -14.9838   18.7853 O   0  0  0  0  0  0  0  0  0  0  0  0
   10.7781  -16.0430   20.8902 C   0  0  0  0  0  0  0  0  0  0  0  0
   11.7312  -16.4050   22.0115 C   0  0  0  0  0  0  0  0  0  0  0  0
   10.9102  -17.0410   23.1090 C   0  0  2  0  0  0  0  0  0  0  0  0
    9.9018  -16.1317   23.6068 N   0  0  0  0  0  0  0  0  0  0  0  0
   11.7562  -17.5620   24.2143 C   0  0  0  0  0  0  0  0  0  0  0  0
   12.6730  -18.4056   23.9780 O   0  0  0  0  0  0  0  0  0  0  0  0
   11.5590  -17.1304   25.5515 N   0  0  0  0  0  0  0  0  0  0  0  0
   12.4555  -17.5779   26.5949 C   0  0  0  0  0  0  0  0  0  0  0  0
   11.9042  -18.7705   27.2748 C   0  0  0  0  0  0  0  0  0  0  0  0
   12.3535  -19.1378   28.3902 O   0  0  0  0  0  0  0  0  0  0  0  0
   10.8711  -19.4862   26.6550 O   0  0  0  0  0  0  0  0  0  0  0  0
  2  3  2  0
  2  1  1  0
  4  3  1  0
  5  4  2  0
  6  5  1  0
  7  6  1  0
  7  9  1  0
  7  8  1  1
  9 19  1  0
  9 10  2  0
 11  5  1  0
 11 12  2  0
 12  2  1  0
 14 15  2  0
 14 13  1  0
 16 14  1  0
 17 16  1  0
 18 17  1  6
 19 18  1  0
 20 18  1  0
 20 21  2  0
 22 20  1  0
 23 22  1  0
 24 23  1  0
 25 24  2  0
 26 24  1  0
M  END
$$$$
