YQG.pdb
     RDKit          3D

 26 26  0  0  1  0  0  0  0  0999 V2000
    7.9803  -13.5559   17.1052 O   0  0  0  0  0  0  0  0  0  0  0  0
    7.8069  -13.7056   18.4810 C   0  0  0  0  0  0  0  0  0  0  0  0
    8.0883  -14.9428   19.0271 C   0  0  0  0  0  0  0  0  0  0  0  0
    7.9409  -15.1728   20.3892 C   0  0  0  0  0  0  0  0  0  0  0  0
    7.5085  -14.1577   21.2144 C   0  0  0  0  0  0  0  0  0  0  0  0
    7.3254  -14.3237   22.6830 C   0  0  0  0  0  0  0  0  0  0  0  0
    7.0871  -15.7847   22.9307 C   0  0  2  0  0  0  0  0  0  0  0  0
    5.6576  -16.0075   22.8764 N   0  0  0  0  0  0  0  0  0  0  0  0
    7.6203  -16.2950   24.1788 C   0  0  0  0  0  0  0  0  0  0  0  0
    7.0683  -15.9552   25.2539 O   0  0  0  0  0  0  0  0  0  0  0  0
    7.2331  -12.9307   20.6499 C   0  0  0  0  0  0  0  0  0  0  0  0
    7.3736  -12.6826   19.2966 C   0  0  0  0  0  0  0  0  0  0  0  0
    9.2520  -20.3170   28.2123 N   0  0  0  0  0  0  0  0  0  0  0  0
    8.0640  -20.0358   27.5031 C   0  0  0  0  0  0  0  0  0  0  0  0
    6.9744  -20.5579   27.8453 O   0  0  0  0  0  0  0  0  0  0  0  0
    8.0886  -19.1203   26.3454 C   0  0  0  0  0  0  0  0  0  0  0  0
    9.5118  -18.7292   26.0013 C   0  0  0  0  0  0  0  0  0  0  0  0
    9.4792  -17.2953   25.5256 C   0  0  2  0  0  0  0  0  0  0  0  0
    8.7411  -17.1674   24.2886 N   0  0  0  0  0  0  0  0  0  0  0  0
   10.8409  -16.7130   25.4011 C   0  0  0  0  0  0  0  0  0  0  0  0
   11.6097  -16.6571   26.4080 O   0  0  0  0  0  0  0  0  0  0  0  0
   11.3098  -16.2092   24.1602 N   0  0  0  0  0  0  0  0  0  0  0  0
   12.5838  -15.5273   24.0921 C   0  0  0  0  0  0  0  0  0  0  0  0
   13.6524  -16.4661   23.6860 C   0  0  0  0  0  0  0  0  0  0  0  0
   13.4492  -17.7069   23.6835 O   0  0  0  0  0  0  0  0  0  0  0  0
   14.8977  -15.9500   23.3031 O   0  0  0  0  0  0  0  0  0  0  0  0
  2  3  2  0
  2  1  1  0
  4  3  1  0
  5  4  2  0
  6  5  1  0
  7  6  1  0
  7  9  1  0
  7  8  1  1
  9 19  1  0
  9 10  2  0
 11  5  1  0
 11 12  2  0
 12  2  1  0
 14 15  2  0
 14 13  1  0
 16 14  1  0
 17 16  1  0
 18 17  1  6
 19 18  1  0
 20 18  1  0
 20 21  2  0
 22 20  1  0
 23 22  1  0
 24 23  1  0
 25 24  2  0
 26 24  1  0
M  END
$$$$
