YQG.pdb
     RDKit          3D

 26 26  0  0  1  0  0  0  0  0999 V2000
    6.4559  -10.5579   27.0962 O   0  0  0  0  0  0  0  0  0  0  0  0
    6.7921  -11.8935   26.8762 C   0  0  0  0  0  0  0  0  0  0  0  0
    5.8133  -12.8417   27.1017 C   0  0  0  0  0  0  0  0  0  0  0  0
    6.0688  -14.1931   26.9056 C   0  0  0  0  0  0  0  0  0  0  0  0
    7.3139  -14.6021   26.4801 C   0  0  0  0  0  0  0  0  0  0  0  0
    7.6667  -16.0299   26.2469 C   0  0  0  0  0  0  0  0  0  0  0  0
    7.0447  -16.4252   24.9394 C   0  0  2  0  0  0  0  0  0  0  0  0
    6.2814  -17.6339   25.1688 N   0  0  0  0  0  0  0  0  0  0  0  0
    7.9772  -16.6288   23.8479 C   0  0  0  0  0  0  0  0  0  0  0  0
    8.6195  -17.7062   23.7965 O   0  0  0  0  0  0  0  0  0  0  0  0
    8.2767  -13.6404   26.2608 C   0  0  0  0  0  0  0  0  0  0  0  0
    8.0413  -12.2908   26.4504 C   0  0  0  0  0  0  0  0  0  0  0  0
    6.3689  -17.1375   18.7317 N   0  0  0  0  0  0  0  0  0  0  0  0
    7.5881  -16.6130   19.2132 C   0  0  0  0  0  0  0  0  0  0  0  0
    8.6825  -17.1413   18.8970 O   0  0  0  0  0  0  0  0  0  0  0  0
    7.5909  -15.4317   20.0984 C   0  0  0  0  0  0  0  0  0  0  0  0
    8.9980  -15.1123   20.5618 C   0  0  0  0  0  0  0  0  0  0  0  0
    9.2522  -15.9224   21.8118 C   0  0  2  0  0  0  0  0  0  0  0  0
    8.2302  -15.6887   22.8079 N   0  0  0  0  0  0  0  0  0  0  0  0
   10.6094  -15.6856   22.3691 C   0  0  0  0  0  0  0  0  0  0  0  0
   10.8121  -14.7347   23.1832 O   0  0  0  0  0  0  0  0  0  0  0  0
   11.7034  -16.5129   22.0057 N   0  0  0  0  0  0  0  0  0  0  0  0
   13.0050  -16.2909   22.5967 C   0  0  0  0  0  0  0  0  0  0  0  0
   13.9628  -17.3226   22.1423 C   0  0  0  0  0  0  0  0  0  0  0  0
   13.5542  -18.3960   21.6306 O   0  0  0  0  0  0  0  0  0  0  0  0
   15.3357  -17.0847   22.2912 O   0  0  0  0  0  0  0  0  0  0  0  0
  2  3  2  0
  2  1  1  0
  4  3  1  0
  5  4  2  0
  6  5  1  0
  7  6  1  0
  7  9  1  0
  7  8  1  1
  9 19  1  0
  9 10  2  0
 11  5  1  0
 11 12  2  0
 12  2  1  0
 14 15  2  0
 14 13  1  0
 16 14  1  0
 17 16  1  0
 18 17  1  6
 19 18  1  0
 20 18  1  0
 20 21  2  0
 22 20  1  0
 23 22  1  0
 24 23  1  0
 25 24  2  0
 26 24  1  0
M  END
$$$$
