YQG.pdb
     RDKit          3D

 26 26  0  0  1  0  0  0  0  0999 V2000
   11.4946  -14.9206   29.8043 O   0  0  0  0  0  0  0  0  0  0  0  0
   10.3975  -14.8323   28.9475 C   0  0  0  0  0  0  0  0  0  0  0  0
   10.6302  -14.3930   27.6587 C   0  0  0  0  0  0  0  0  0  0  0  0
    9.5905  -14.2775   26.7446 C   0  0  0  0  0  0  0  0  0  0  0  0
    8.3057  -14.6038   27.1207 C   0  0  0  0  0  0  0  0  0  0  0  0
    7.1383  -14.5075   26.2012 C   0  0  0  0  0  0  0  0  0  0  0  0
    6.9955  -15.8451   25.5355 C   0  0  2  0  0  0  0  0  0  0  0  0
    6.9895  -16.8507   26.5771 N   0  0  0  0  0  0  0  0  0  0  0  0
    8.0139  -16.1578   24.5519 C   0  0  0  0  0  0  0  0  0  0  0  0
    8.8681  -17.0358   24.8266 O   0  0  0  0  0  0  0  0  0  0  0  0
    8.0947  -15.0401   28.4111 C   0  0  0  0  0  0  0  0  0  0  0  0
    9.1165  -15.1616   29.3351 C   0  0  0  0  0  0  0  0  0  0  0  0
    7.6130  -14.8877   18.4716 N   0  0  0  0  0  0  0  0  0  0  0  0
    8.0212  -13.8796   19.3718 C   0  0  0  0  0  0  0  0  0  0  0  0
    7.9451  -12.6672   19.0536 O   0  0  0  0  0  0  0  0  0  0  0  0
    8.5445  -14.2402   20.7041 C   0  0  0  0  0  0  0  0  0  0  0  0
    8.5706  -15.7452   20.8805 C   0  0  0  0  0  0  0  0  0  0  0  0
    9.0625  -16.0231   22.2820 C   0  0  2  0  0  0  0  0  0  0  0  0
    8.1279  -15.5390   23.2738 N   0  0  0  0  0  0  0  0  0  0  0  0
   10.4254  -15.4794   22.5179 C   0  0  0  0  0  0  0  0  0  0  0  0
   10.6026  -14.5206   23.3286 O   0  0  0  0  0  0  0  0  0  0  0  0
   11.5533  -16.0172   21.8456 N   0  0  0  0  0  0  0  0  0  0  0  0
   12.8721  -15.4824   22.1051 C   0  0  0  0  0  0  0  0  0  0  0  0
   13.6673  -16.4342   22.9113 C   0  0  0  0  0  0  0  0  0  0  0  0
   14.6904  -16.9841   22.4298 O   0  0  0  0  0  0  0  0  0  0  0  0
   13.2618  -16.7143   24.2231 O   0  0  0  0  0  0  0  0  0  0  0  0
  2  3  2  0
  2  1  1  0
  4  3  1  0
  5  4  2  0
  6  5  1  0
  7  6  1  0
  7  9  1  0
  7  8  1  1
  9 19  1  0
  9 10  2  0
 11  5  1  0
 11 12  2  0
 12  2  1  0
 14 15  2  0
 14 13  1  0
 16 14  1  0
 17 16  1  0
 18 17  1  6
 19 18  1  0
 20 18  1  0
 20 21  2  0
 22 20  1  0
 23 22  1  0
 24 23  1  0
 25 24  2  0
 26 24  1  0
M  END
$$$$
