YQG.pdb
     RDKit          3D

 26 26  0  0  1  0  0  0  0  0999 V2000
    6.9052  -13.4461   16.2468 O   0  0  0  0  0  0  0  0  0  0  0  0
    7.0558  -13.7650   17.5963 C   0  0  0  0  0  0  0  0  0  0  0  0
    7.6970  -12.8429   18.4004 C   0  0  0  0  0  0  0  0  0  0  0  0
    7.8865  -13.0857   19.7550 C   0  0  0  0  0  0  0  0  0  0  0  0
    7.4313  -14.2607   20.3126 C   0  0  0  0  0  0  0  0  0  0  0  0
    7.5951  -14.5954   21.7544 C   0  0  0  0  0  0  0  0  0  0  0  0
    8.8883  -15.3460   21.8840 C   0  0  2  0  0  0  0  0  0  0  0  0
    8.7840  -16.5365   21.0668 N   0  0  0  0  0  0  0  0  0  0  0  0
    9.2605  -15.7067   23.2382 C   0  0  0  0  0  0  0  0  0  0  0  0
    8.3804  -16.1757   24.0008 O   0  0  0  0  0  0  0  0  0  0  0  0
    6.7941  -15.1676   19.4932 C   0  0  0  0  0  0  0  0  0  0  0  0
    6.5962  -14.9438   18.1428 C   0  0  0  0  0  0  0  0  0  0  0  0
    9.8996  -20.0594   22.5403 N   0  0  0  0  0  0  0  0  0  0  0  0
   10.2121  -20.1781   23.9121 C   0  0  0  0  0  0  0  0  0  0  0  0
    9.9212  -21.2213   24.5477 O   0  0  0  0  0  0  0  0  0  0  0  0
   10.8876  -19.0722   24.6189 C   0  0  0  0  0  0  0  0  0  0  0  0
   11.1856  -17.9307   23.6676 C   0  0  0  0  0  0  0  0  0  0  0  0
   11.2105  -16.6609   24.4862 C   0  0  2  0  0  0  0  0  0  0  0  0
   10.5684  -15.5703   23.7863 N   0  0  0  0  0  0  0  0  0  0  0  0
   12.5865  -16.2913   24.9092 C   0  0  0  0  0  0  0  0  0  0  0  0
   12.9641  -16.4838   26.1044 O   0  0  0  0  0  0  0  0  0  0  0  0
   13.5041  -15.7179   23.9914 N   0  0  0  0  0  0  0  0  0  0  0  0
   14.8204  -15.3189   24.4396 C   0  0  0  0  0  0  0  0  0  0  0  0
   15.7778  -16.4373   24.2946 C   0  0  0  0  0  0  0  0  0  0  0  0
   15.3830  -17.5778   23.9422 O   0  0  0  0  0  0  0  0  0  0  0  0
   17.1347  -16.2054   24.5568 O   0  0  0  0  0  0  0  0  0  0  0  0
  2  3  2  0
  2  1  1  0
  4  3  1  0
  5  4  2  0
  6  5  1  0
  7  6  1  0
  7  9  1  0
  7  8  1  6
  9 19  1  0
  9 10  2  0
 11  5  1  0
 11 12  2  0
 12  2  1  0
 14 15  2  0
 14 13  1  0
 16 14  1  0
 17 16  1  0
 18 17  1  6
 19 18  1  0
 20 18  1  0
 20 21  2  0
 22 20  1  0
 23 22  1  0
 24 23  1  0
 25 24  2  0
 26 24  1  0
M  END
$$$$
