VQR.pdb
     RDKit          3D

 28 27  0  0  1  0  0  0  0  0999 V2000
    8.7346  -12.4223   19.9069 C   0  0  0  0  0  0  0  0  0  0  0  0
    8.2686  -13.2596   18.7501 C   0  0  2  0  0  0  0  0  0  0  0  0
    7.0186  -12.7400   18.1066 C   0  0  0  0  0  0  0  0  0  0  0  0
    7.9827  -14.6558   19.2662 C   0  0  2  0  0  0  0  0  0  0  0  0
    6.8888  -14.6872   20.1770 N   0  0  0  0  0  0  0  0  0  0  0  0
    9.2490  -15.2005   19.8407 C   0  0  0  0  0  0  0  0  0  0  0  0
   10.2002  -15.3906   19.0720 O   0  0  0  0  0  0  0  0  0  0  0  0
   14.1393  -13.9581   21.1514 N   0  0  0  0  0  0  0  0  0  0  0  0
   14.1826  -15.2152   21.8475 C   0  0  0  0  0  0  0  0  0  0  0  0
   15.2667  -15.7454   22.0863 O   0  0  0  0  0  0  0  0  0  0  0  0
   12.8991  -15.8744   22.2845 C   0  0  0  0  0  0  0  0  0  0  0  0
   11.7571  -15.2375   21.5825 C   0  0  0  0  0  0  0  0  0  0  0  0
   10.4559  -15.9275   21.9220 C   0  0  2  0  0  0  0  0  0  0  0  0
    9.3094  -15.4707   21.2067 N   0  0  0  0  0  0  0  0  0  0  0  0
   10.2371  -16.1547   23.3568 C   0  0  0  0  0  0  0  0  0  0  0  0
   10.2099  -15.1401   24.0995 O   0  0  0  0  0  0  0  0  0  0  0  0
    5.0844  -22.1344   24.1142 N   0  0  0  0  0  0  0  0  0  0  0  0
    5.7621  -21.8191   25.3254 C   0  0  0  0  0  0  0  0  0  0  0  0
    5.7151  -22.5684   26.3581 N   0  0  0  0  0  0  0  0  0  0  0  0
    6.5186  -20.6226   25.3789 N   0  0  0  0  0  0  0  0  0  0  0  0
    6.4872  -19.6818   24.2466 C   0  0  0  0  0  0  0  0  0  0  0  0
    7.2952  -18.4790   24.5290 C   0  0  0  0  0  0  0  0  0  0  0  0
    8.5371  -18.6278   25.2630 C   0  0  0  0  0  0  0  0  0  0  0  0
    9.5380  -17.5505   25.3203 C   0  0  2  0  0  0  0  0  0  0  0  0
   10.0609  -17.4181   23.9262 N   0  0  0  0  0  0  0  0  0  0  0  0
   10.7306  -17.6616   26.1356 C   0  0  0  0  0  0  0  0  0  0  0  0
   11.8428  -17.9413   25.6579 O   0  0  0  0  0  0  0  0  0  0  0  0
   10.6763  -17.4538   27.5186 O   0  0  0  0  0  0  0  0  0  0  0  0
  2  1  1  1
  3  2  1  0
  4  2  1  0
  4  5  1  1
  6  4  1  0
  7  6  2  0
  9  8  1  0
  9 11  1  0
 10  9  2  0
 12 11  1  0
 13 12  1  1
 13 14  1  0
 14  6  1  0
 15 25  1  0
 15 13  1  0
 16 15  2  0
 17 18  1  0
 18 19  2  0
 20 18  1  0
 21 20  1  0
 22 21  1  0
 23 22  1  0
 24 23  1  6
 24 25  1  0
 26 28  1  0
 26 24  1  0
 27 26  2  0
M  END
$$$$
