VQR.pdb
     RDKit          3D

 28 27  0  0  1  0  0  0  0  0999 V2000
    6.8296  -14.0565   19.8950 C   0  0  0  0  0  0  0  0  0  0  0  0
    7.9195  -13.0453   20.1095 C   0  0  2  0  0  0  0  0  0  0  0  0
    7.8471  -11.8848   19.1638 C   0  0  0  0  0  0  0  0  0  0  0  0
    9.2509  -13.7382   19.8979 C   0  0  2  0  0  0  0  0  0  0  0  0
    9.5068  -14.0206   18.5261 N   0  0  0  0  0  0  0  0  0  0  0  0
    9.2803  -14.9509   20.7690 C   0  0  0  0  0  0  0  0  0  0  0  0
    8.9832  -14.8150   21.9628 O   0  0  0  0  0  0  0  0  0  0  0  0
   10.6480  -21.2504   18.0063 N   0  0  0  0  0  0  0  0  0  0  0  0
    9.7469  -20.1539   18.2352 C   0  0  0  0  0  0  0  0  0  0  0  0
    8.5980  -20.2046   17.7982 O   0  0  0  0  0  0  0  0  0  0  0  0
   10.2138  -18.9500   19.0133 C   0  0  0  0  0  0  0  0  0  0  0  0
    9.2114  -18.6219   20.0573 C   0  0  0  0  0  0  0  0  0  0  0  0
    9.6521  -17.4339   20.8813 C   0  0  2  0  0  0  0  0  0  0  0  0
    9.6375  -16.1761   20.2088 N   0  0  0  0  0  0  0  0  0  0  0  0
   10.8360  -17.6719   21.7180 C   0  0  0  0  0  0  0  0  0  0  0  0
   11.9563  -17.4007   21.2150 O   0  0  0  0  0  0  0  0  0  0  0  0
    9.7793  -24.1579   26.5395 N   0  0  0  0  0  0  0  0  0  0  0  0
   11.0139  -23.7608   27.1259 C   0  0  0  0  0  0  0  0  0  0  0  0
   11.6202  -24.4647   28.0018 N   0  0  0  0  0  0  0  0  0  0  0  0
   11.5876  -22.5325   26.7148 N   0  0  0  0  0  0  0  0  0  0  0  0
   10.8070  -21.5969   25.8881 C   0  0  0  0  0  0  0  0  0  0  0  0
   11.6111  -20.4173   25.5125 C   0  0  0  0  0  0  0  0  0  0  0  0
   11.7046  -20.0523   24.1119 C   0  0  0  0  0  0  0  0  0  0  0  0
   12.0187  -18.6786   23.6878 C   0  0  2  0  0  0  0  0  0  0  0  0
   10.7798  -18.1748   23.0200 N   0  0  0  0  0  0  0  0  0  0  0  0
   13.0727  -18.3984   22.7339 C   0  0  0  0  0  0  0  0  0  0  0  0
   12.9439  -18.6059   21.5157 O   0  0  0  0  0  0  0  0  0  0  0  0
   14.2997  -17.8725   23.1542 O   0  0  0  0  0  0  0  0  0  0  0  0
  2  1  1  6
  3  2  1  0
  4  2  1  0
  4  5  1  6
  6  4  1  0
  7  6  2  0
  9  8  1  0
  9 11  1  0
 10  9  2  0
 12 11  1  0
 13 12  1  6
 13 14  1  0
 14  6  1  0
 15 25  1  0
 15 13  1  0
 16 15  2  0
 17 18  1  0
 18 19  2  0
 20 18  1  0
 21 20  1  0
 22 21  1  0
 23 22  1  0
 24 23  1  6
 24 25  1  0
 26 28  1  0
 26 24  1  0
 27 26  2  0
M  END
$$$$
