VQR.pdb
     RDKit          3D

 28 27  0  0  1  0  0  0  0  0999 V2000
   12.0767  -18.5000   18.8614 C   0  0  0  0  0  0  0  0  0  0  0  0
   10.9639  -19.3656   18.3430 C   0  0  2  0  0  0  0  0  0  0  0  0
    9.6404  -18.6640   18.2927 C   0  0  0  0  0  0  0  0  0  0  0  0
   10.8259  -20.5576   19.2691 C   0  0  2  0  0  0  0  0  0  0  0  0
    9.9661  -21.5620   18.7409 N   0  0  0  0  0  0  0  0  0  0  0  0
   10.3957  -20.0516   20.6067 C   0  0  0  0  0  0  0  0  0  0  0  0
    9.4056  -19.3104   20.6556 O   0  0  0  0  0  0  0  0  0  0  0  0
   11.7467  -23.3095   25.0390 N   0  0  0  0  0  0  0  0  0  0  0  0
   10.9685  -22.3844   25.8171 C   0  0  0  0  0  0  0  0  0  0  0  0
   10.3893  -22.7731   26.8304 O   0  0  0  0  0  0  0  0  0  0  0  0
   10.8700  -20.9423   25.3888 C   0  0  0  0  0  0  0  0  0  0  0  0
   11.6550  -20.7457   24.1446 C   0  0  0  0  0  0  0  0  0  0  0  0
   10.8286  -20.0578   23.0824 C   0  0  2  0  0  0  0  0  0  0  0  0
   11.1188  -20.4302   21.7364 N   0  0  0  0  0  0  0  0  0  0  0  0
   10.6311  -18.6176   23.2946 C   0  0  0  0  0  0  0  0  0  0  0  0
   11.4956  -17.8436   22.8093 O   0  0  0  0  0  0  0  0  0  0  0  0
    8.0580  -13.3389   19.0123 N   0  0  0  0  0  0  0  0  0  0  0  0
    7.9469  -12.5075   20.1622 C   0  0  0  0  0  0  0  0  0  0  0  0
    8.0649  -11.2373   20.1098 N   0  0  0  0  0  0  0  0  0  0  0  0
    7.6941  -13.1227   21.4130 N   0  0  0  0  0  0  0  0  0  0  0  0
    8.1124  -14.5153   21.6450 C   0  0  0  0  0  0  0  0  0  0  0  0
    7.7319  -14.9690   22.9973 C   0  0  0  0  0  0  0  0  0  0  0  0
    8.0964  -16.3099   23.4130 C   0  0  0  0  0  0  0  0  0  0  0  0
    9.3760  -16.5935   24.0821 C   0  0  2  0  0  0  0  0  0  0  0  0
    9.5510  -18.0755   23.9952 N   0  0  0  0  0  0  0  0  0  0  0  0
    9.5846  -16.2951   25.4845 C   0  0  0  0  0  0  0  0  0  0  0  0
    9.3791  -17.1285   26.3827 O   0  0  0  0  0  0  0  0  0  0  0  0
   10.0346  -15.0335   25.8905 O   0  0  0  0  0  0  0  0  0  0  0  0
  2  1  1  1
  3  2  1  0
  4  2  1  0
  4  5  1  6
  6  4  1  0
  7  6  2  0
  9  8  1  0
  9 11  1  0
 10  9  2  0
 12 11  1  0
 13 12  1  1
 13 14  1  0
 14  6  1  0
 15 25  1  0
 15 13  1  0
 16 15  2  0
 17 18  1  0
 18 19  2  0
 20 18  1  0
 21 20  1  0
 22 21  1  0
 23 22  1  0
 24 23  1  1
 24 25  1  0
 26 28  1  0
 26 24  1  0
 27 26  2  0
M  END
$$$$
