VQR.pdb
     RDKit          3D

 28 27  0  0  1  0  0  0  0  0999 V2000
    7.7079  -12.8359   17.7945 C   0  0  0  0  0  0  0  0  0  0  0  0
    7.8528  -13.6714   19.0343 C   0  0  2  0  0  0  0  0  0  0  0  0
    7.3663  -12.9835   20.2739 C   0  0  0  0  0  0  0  0  0  0  0  0
    9.3243  -13.9840   19.2205 C   0  0  2  0  0  0  0  0  0  0  0  0
    9.8998  -14.6024   18.0744 N   0  0  0  0  0  0  0  0  0  0  0  0
    9.4667  -14.7948   20.4666 C   0  0  0  0  0  0  0  0  0  0  0  0
    8.9836  -14.3414   21.5121 O   0  0  0  0  0  0  0  0  0  0  0  0
   12.7962  -20.2160   20.4646 N   0  0  0  0  0  0  0  0  0  0  0  0
   11.7020  -19.8958   19.5887 C   0  0  0  0  0  0  0  0  0  0  0  0
   11.4535  -20.6238   18.6287 O   0  0  0  0  0  0  0  0  0  0  0  0
   10.8629  -18.6718   19.8545 C   0  0  0  0  0  0  0  0  0  0  0  0
   11.2126  -18.1172   21.1859 C   0  0  0  0  0  0  0  0  0  0  0  0
   10.3828  -16.8939   21.5013 C   0  0  2  0  0  0  0  0  0  0  0  0
   10.1313  -16.0182   20.4038 N   0  0  0  0  0  0  0  0  0  0  0  0
   10.7342  -16.2209   22.7590 C   0  0  0  0  0  0  0  0  0  0  0  0
   11.0840  -15.0151   22.6847 O   0  0  0  0  0  0  0  0  0  0  0  0
    4.8138  -12.5864   26.4382 N   0  0  0  0  0  0  0  0  0  0  0  0
    6.1867  -12.6069   26.8128 C   0  0  0  0  0  0  0  0  0  0  0  0
    6.5795  -12.3900   28.0081 N   0  0  0  0  0  0  0  0  0  0  0  0
    7.1512  -12.8806   25.8119 N   0  0  0  0  0  0  0  0  0  0  0  0
    7.9179  -14.1370   25.8541 C   0  0  0  0  0  0  0  0  0  0  0  0
    7.7026  -14.9354   24.6312 C   0  0  0  0  0  0  0  0  0  0  0  0
    8.4864  -16.1399   24.4358 C   0  0  0  0  0  0  0  0  0  0  0  0
    9.7949  -16.3271   25.0826 C   0  0  2  0  0  0  0  0  0  0  0  0
   10.6995  -16.8421   24.0097 N   0  0  0  0  0  0  0  0  0  0  0  0
    9.9774  -17.2600   26.1760 C   0  0  0  0  0  0  0  0  0  0  0  0
    9.6256  -17.0029   27.3395 O   0  0  0  0  0  0  0  0  0  0  0  0
   10.5673  -18.5109   25.9612 O   0  0  0  0  0  0  0  0  0  0  0  0
  2  1  1  6
  3  2  1  0
  4  2  1  0
  4  5  1  6
  6  4  1  0
  7  6  2  0
  9  8  1  0
  9 11  1  0
 10  9  2  0
 12 11  1  0
 13 12  1  6
 13 14  1  0
 14  6  1  0
 15 25  1  0
 15 13  1  0
 16 15  2  0
 17 18  1  0
 18 19  2  0
 20 18  1  0
 21 20  1  0
 22 21  1  0
 23 22  1  0
 24 23  1  6
 24 25  1  0
 26 28  1  0
 26 24  1  0
 27 26  2  0
M  END
$$$$
