VQR.pdb
     RDKit          3D

 28 27  0  0  1  0  0  0  0  0999 V2000
    8.5090  -19.8722   15.4788 C   0  0  0  0  0  0  0  0  0  0  0  0
    8.8630  -19.0961   16.7151 C   0  0  2  0  0  0  0  0  0  0  0  0
    7.8673  -19.2586   17.8236 C   0  0  0  0  0  0  0  0  0  0  0  0
    8.9170  -17.6265   16.3475 C   0  0  2  0  0  0  0  0  0  0  0  0
    9.8282  -17.3630   15.2857 N   0  0  0  0  0  0  0  0  0  0  0  0
    9.2145  -16.8536   17.5902 C   0  0  0  0  0  0  0  0  0  0  0  0
   10.3765  -16.8653   18.0165 O   0  0  0  0  0  0  0  0  0  0  0  0
    8.5686  -12.0231   19.4304 N   0  0  0  0  0  0  0  0  0  0  0  0
    8.2512  -12.4728   20.7585 C   0  0  0  0  0  0  0  0  0  0  0  0
    8.6905  -11.8629   21.7323 O   0  0  0  0  0  0  0  0  0  0  0  0
    7.3783  -13.6870   20.9499 C   0  0  0  0  0  0  0  0  0  0  0  0
    7.2014  -14.3741   19.6464 C   0  0  0  0  0  0  0  0  0  0  0  0
    8.2898  -15.3978   19.4183 C   0  0  2  0  0  0  0  0  0  0  0  0
    8.1822  -16.1563   18.2151 N   0  0  0  0  0  0  0  0  0  0  0  0
    8.6588  -16.1775   20.6075 C   0  0  0  0  0  0  0  0  0  0  0  0
    7.8458  -17.0577   20.9899 O   0  0  0  0  0  0  0  0  0  0  0  0
   13.6881  -21.3300   18.9892 N   0  0  0  0  0  0  0  0  0  0  0  0
   13.4569  -19.9980   19.4341 C   0  0  0  0  0  0  0  0  0  0  0  0
   13.0757  -19.0647   18.6507 N   0  0  0  0  0  0  0  0  0  0  0  0
   13.6600  -19.7038   20.8050 N   0  0  0  0  0  0  0  0  0  0  0  0
   13.4550  -18.3325   21.3006 C   0  0  0  0  0  0  0  0  0  0  0  0
   12.0196  -17.9908   21.3485 C   0  0  0  0  0  0  0  0  0  0  0  0
   11.5264  -17.1985   22.4586 C   0  0  0  0  0  0  0  0  0  0  0  0
   10.1153  -16.7925   22.5550 C   0  0  2  0  0  0  0  0  0  0  0  0
    9.8455  -15.9932   21.3210 N   0  0  0  0  0  0  0  0  0  0  0  0
    9.6372  -15.9502   23.6326 C   0  0  0  0  0  0  0  0  0  0  0  0
    9.3603  -14.7499   23.4701 O   0  0  0  0  0  0  0  0  0  0  0  0
    9.4643  -16.4644   24.9228 O   0  0  0  0  0  0  0  0  0  0  0  0
  2  1  1  6
  3  2  1  0
  4  2  1  0
  4  5  1  6
  6  4  1  0
  7  6  2  0
  9  8  1  0
  9 11  1  0
 10  9  2  0
 12 11  1  0
 13 12  1  1
 13 14  1  0
 14  6  1  0
 15 25  1  0
 15 13  1  0
 16 15  2  0
 17 18  1  0
 18 19  2  0
 20 18  1  0
 21 20  1  0
 22 21  1  0
 23 22  1  0
 24 23  1  1
 24 25  1  0
 26 28  1  0
 26 24  1  0
 27 26  2  0
M  END
$$$$
