VQR.pdb
     RDKit          3D

 28 27  0  0  1  0  0  0  0  0999 V2000
    8.2038  -13.9448   20.4377 C   0  0  0  0  0  0  0  0  0  0  0  0
    8.5826  -13.0664   19.2797 C   0  0  2  0  0  0  0  0  0  0  0  0
    7.4321  -12.2770   18.7321 C   0  0  0  0  0  0  0  0  0  0  0  0
    9.1103  -13.9540   18.1700 C   0  0  2  0  0  0  0  0  0  0  0  0
    8.0930  -14.7623   17.5878 N   0  0  0  0  0  0  0  0  0  0  0  0
   10.2537  -14.7427   18.7184 C   0  0  0  0  0  0  0  0  0  0  0  0
   10.0816  -15.9520   18.9179 O   0  0  0  0  0  0  0  0  0  0  0  0
   16.2928  -13.4471   17.4657 N   0  0  0  0  0  0  0  0  0  0  0  0
   16.3672  -14.2490   18.6566 C   0  0  0  0  0  0  0  0  0  0  0  0
   17.4425  -14.3805   19.2395 O   0  0  0  0  0  0  0  0  0  0  0  0
   15.1259  -14.9207   19.1865 C   0  0  0  0  0  0  0  0  0  0  0  0
   13.9432  -14.0788   18.8781 C   0  0  0  0  0  0  0  0  0  0  0  0
   12.6732  -14.7125   19.3978 C   0  0  2  0  0  0  0  0  0  0  0  0
   11.4581  -14.0924   18.9813 N   0  0  0  0  0  0  0  0  0  0  0  0
   12.7143  -15.0981   20.8148 C   0  0  0  0  0  0  0  0  0  0  0  0
   11.8573  -14.5784   21.5745 O   0  0  0  0  0  0  0  0  0  0  0  0
    7.7790  -20.2355   21.1785 N   0  0  0  0  0  0  0  0  0  0  0  0
    8.7748  -20.1024   20.1703 C   0  0  0  0  0  0  0  0  0  0  0  0
    8.4943  -19.8345   18.9539 N   0  0  0  0  0  0  0  0  0  0  0  0
   10.1314  -20.2751   20.5402 N   0  0  0  0  0  0  0  0  0  0  0  0
   10.6781  -19.5402   21.6931 C   0  0  0  0  0  0  0  0  0  0  0  0
   11.4240  -18.3427   21.2582 C   0  0  0  0  0  0  0  0  0  0  0  0
   12.7923  -18.1703   21.7072 C   0  0  0  0  0  0  0  0  0  0  0  0
   13.2283  -16.9578   22.4179 C   0  0  2  0  0  0  0  0  0  0  0  0
   13.6405  -15.9966   21.3498 N   0  0  0  0  0  0  0  0  0  0  0  0
   14.3527  -16.9735   23.3316 C   0  0  0  0  0  0  0  0  0  0  0  0
   15.4823  -16.5700   23.0080 O   0  0  0  0  0  0  0  0  0  0  0  0
   14.2082  -17.4517   24.6390 O   0  0  0  0  0  0  0  0  0  0  0  0
  2  1  1  1
  3  2  1  0
  4  2  1  0
  4  5  1  1
  6  4  1  0
  7  6  2  0
  9  8  1  0
  9 11  1  0
 10  9  2  0
 12 11  1  0
 13 12  1  1
 13 14  1  0
 14  6  1  0
 15 25  1  0
 15 13  1  0
 16 15  2  0
 17 18  1  0
 18 19  2  0
 20 18  1  0
 21 20  1  0
 22 21  1  0
 23 22  1  0
 24 23  1  6
 24 25  1  0
 26 28  1  0
 26 24  1  0
 27 26  2  0
M  END
$$$$
