VQR.pdb
     RDKit          3D

 28 27  0  0  1  0  0  0  0  0999 V2000
    6.9257  -13.3414   20.5795 C   0  0  0  0  0  0  0  0  0  0  0  0
    8.1949  -13.2524   19.7812 C   0  0  2  0  0  0  0  0  0  0  0  0
    7.9990  -12.6586   18.4190 C   0  0  0  0  0  0  0  0  0  0  0  0
    8.7382  -14.6565   19.6050 C   0  0  2  0  0  0  0  0  0  0  0  0
    7.9356  -15.4465   18.7340 N   0  0  0  0  0  0  0  0  0  0  0  0
    8.9080  -15.2560   20.9623 C   0  0  0  0  0  0  0  0  0  0  0  0
    9.6042  -14.6452   21.7834 O   0  0  0  0  0  0  0  0  0  0  0  0
    5.2592  -20.0370   22.7965 N   0  0  0  0  0  0  0  0  0  0  0  0
    4.9045  -18.7600   22.2395 C   0  0  0  0  0  0  0  0  0  0  0  0
    3.7542  -18.5595   21.8523 O   0  0  0  0  0  0  0  0  0  0  0  0
    5.9436  -17.6724   22.1369 C   0  0  0  0  0  0  0  0  0  0  0  0
    7.2141  -18.1501   22.7372 C   0  0  0  0  0  0  0  0  0  0  0  0
    8.3362  -17.1682   22.4897 C   0  0  2  0  0  0  0  0  0  0  0  0
    8.2819  -16.4679   21.2483 N   0  0  0  0  0  0  0  0  0  0  0  0
    9.6710  -17.6531   22.8660 C   0  0  0  0  0  0  0  0  0  0  0  0
   10.1658  -18.5710   22.1628 O   0  0  0  0  0  0  0  0  0  0  0  0
   17.7804  -16.4926   24.8599 N   0  0  0  0  0  0  0  0  0  0  0  0
   17.3758  -16.3772   23.5003 C   0  0  0  0  0  0  0  0  0  0  0  0
   18.1856  -16.5235   22.5241 N   0  0  0  0  0  0  0  0  0  0  0  0
   16.0160  -16.0885   23.2271 N   0  0  0  0  0  0  0  0  0  0  0  0
   15.0712  -15.8816   24.3374 C   0  0  0  0  0  0  0  0  0  0  0  0
   14.1195  -17.0050   24.4452 C   0  0  0  0  0  0  0  0  0  0  0  0
   12.7294  -16.7792   24.0985 C   0  0  0  0  0  0  0  0  0  0  0  0
   11.6944  -17.7966   24.3416 C   0  0  2  0  0  0  0  0  0  0  0  0
   10.4039  -17.1545   23.9456 N   0  0  0  0  0  0  0  0  0  0  0  0
   11.4364  -18.3184   25.6685 C   0  0  0  0  0  0  0  0  0  0  0  0
   10.4517  -17.9727   26.3426 O   0  0  0  0  0  0  0  0  0  0  0  0
   12.3013  -19.2501   26.2538 O   0  0  0  0  0  0  0  0  0  0  0  0
  2  1  1  6
  3  2  1  0
  4  2  1  0
  4  5  1  6
  6  4  1  0
  7  6  2  0
  9  8  1  0
  9 11  1  0
 10  9  2  0
 12 11  1  0
 13 12  1  6
 13 14  1  0
 14  6  1  0
 15 25  1  0
 15 13  1  0
 16 15  2  0
 17 18  1  0
 18 19  2  0
 20 18  1  0
 21 20  1  0
 22 21  1  0
 23 22  1  0
 24 23  1  1
 24 25  1  0
 26 28  1  0
 26 24  1  0
 27 26  2  0
M  END
$$$$
