VQR.pdb
     RDKit          3D

 28 27  0  0  1  0  0  0  0  0999 V2000
   12.0613  -18.9983   18.5947 C   0  0  0  0  0  0  0  0  0  0  0  0
   10.6519  -18.9888   19.1140 C   0  0  2  0  0  0  0  0  0  0  0  0
    9.6863  -19.7107   18.2236 C   0  0  0  0  0  0  0  0  0  0  0  0
   10.2004  -17.5457   19.2200 C   0  0  2  0  0  0  0  0  0  0  0  0
   10.0237  -16.9345   17.9463 N   0  0  0  0  0  0  0  0  0  0  0  0
   11.1724  -16.8242   20.0947 C   0  0  0  0  0  0  0  0  0  0  0  0
   12.0848  -16.1906   19.5488 O   0  0  0  0  0  0  0  0  0  0  0  0
   12.2673  -14.7574   27.2112 N   0  0  0  0  0  0  0  0  0  0  0  0
   11.6104  -15.4853   26.1598 C   0  0  0  0  0  0  0  0  0  0  0  0
   10.5608  -16.0832   26.3928 O   0  0  0  0  0  0  0  0  0  0  0  0
   12.2097  -15.5082   24.7766 C   0  0  0  0  0  0  0  0  0  0  0  0
   11.3104  -16.2585   23.8650 C   0  0  0  0  0  0  0  0  0  0  0  0
   11.8374  -16.2464   22.4485 C   0  0  2  0  0  0  0  0  0  0  0  0
   11.0154  -16.8920   21.4779 N   0  0  0  0  0  0  0  0  0  0  0  0
   13.2740  -16.5280   22.3250 C   0  0  0  0  0  0  0  0  0  0  0  0
   13.6016  -17.6930   21.9826 O   0  0  0  0  0  0  0  0  0  0  0  0
   17.2926  -12.1695   16.7601 N   0  0  0  0  0  0  0  0  0  0  0  0
   18.2025  -12.1316   17.8539 C   0  0  0  0  0  0  0  0  0  0  0  0
   19.1668  -11.2974   17.9213 N   0  0  0  0  0  0  0  0  0  0  0  0
   18.0237  -13.0610   18.9080 N   0  0  0  0  0  0  0  0  0  0  0  0
   16.9749  -14.0900   18.8105 C   0  0  0  0  0  0  0  0  0  0  0  0
   16.9522  -14.9452   20.0136 C   0  0  0  0  0  0  0  0  0  0  0  0
   15.7612  -14.9559   20.8411 C   0  0  0  0  0  0  0  0  0  0  0  0
   15.6582  -15.8018   22.0409 C   0  0  2  0  0  0  0  0  0  0  0  0
   14.2751  -15.5837   22.5644 N   0  0  0  0  0  0  0  0  0  0  0  0
   16.5093  -15.5936   23.1948 C   0  0  0  0  0  0  0  0  0  0  0  0
   16.0832  -15.1243   24.2634 O   0  0  0  0  0  0  0  0  0  0  0  0
   17.8697  -15.9194   23.1512 O   0  0  0  0  0  0  0  0  0  0  0  0
  2  1  1  6
  3  2  1  0
  4  2  1  0
  4  5  1  6
  6  4  1  0
  7  6  2  0
  9  8  1  0
  9 11  1  0
 10  9  2  0
 12 11  1  0
 13 12  1  1
 13 14  1  0
 14  6  1  0
 15 25  1  0
 15 13  1  0
 16 15  2  0
 17 18  1  0
 18 19  2  0
 20 18  1  0
 21 20  1  0
 22 21  1  0
 23 22  1  0
 24 23  1  6
 24 25  1  0
 26 28  1  0
 26 24  1  0
 27 26  2  0
M  END
$$$$
