VQR.pdb
     RDKit          3D

 28 27  0  0  1  0  0  0  0  0999 V2000
    8.2848  -12.2413   20.5475 C   0  0  0  0  0  0  0  0  0  0  0  0
    7.7945  -13.0527   19.3823 C   0  0  2  0  0  0  0  0  0  0  0  0
    6.6637  -13.9719   19.7329 C   0  0  0  0  0  0  0  0  0  0  0  0
    8.9475  -13.9002   18.8821 C   0  0  2  0  0  0  0  0  0  0  0  0
    8.6185  -14.6275   17.7032 N   0  0  0  0  0  0  0  0  0  0  0  0
    9.4001  -14.7696   20.0088 C   0  0  0  0  0  0  0  0  0  0  0  0
    9.7170  -14.2223   21.0728 O   0  0  0  0  0  0  0  0  0  0  0  0
    9.5487  -21.1711   19.6456 N   0  0  0  0  0  0  0  0  0  0  0  0
    9.9401  -20.8994   21.0020 C   0  0  0  0  0  0  0  0  0  0  0  0
   10.1566  -21.8317   21.7748 O   0  0  0  0  0  0  0  0  0  0  0  0
   10.0870  -19.4732   21.4681 C   0  0  0  0  0  0  0  0  0  0  0  0
    9.8096  -18.5559   20.3349 C   0  0  0  0  0  0  0  0  0  0  0  0
    9.9102  -17.1110   20.7666 C   0  0  2  0  0  0  0  0  0  0  0  0
    9.4472  -16.1497   19.8200 N   0  0  0  0  0  0  0  0  0  0  0  0
   11.1668  -16.7571   21.4402 C   0  0  0  0  0  0  0  0  0  0  0  0
   12.0435  -16.1779   20.7490 O   0  0  0  0  0  0  0  0  0  0  0  0
    8.9957  -15.4901   28.0262 N   0  0  0  0  0  0  0  0  0  0  0  0
    9.6067  -14.2140   27.8718 C   0  0  0  0  0  0  0  0  0  0  0  0
    9.0498  -13.1309   28.2550 N   0  0  0  0  0  0  0  0  0  0  0  0
   10.8865  -14.1517   27.2673 N   0  0  0  0  0  0  0  0  0  0  0  0
   11.5683  -15.3917   26.8604 C   0  0  0  0  0  0  0  0  0  0  0  0
   11.8123  -15.4141   25.4046 C   0  0  0  0  0  0  0  0  0  0  0  0
   12.5092  -16.5488   24.8301 C   0  0  0  0  0  0  0  0  0  0  0  0
   12.7510  -16.6586   23.3827 C   0  0  2  0  0  0  0  0  0  0  0  0
   11.4312  -17.0268   22.7851 N   0  0  0  0  0  0  0  0  0  0  0  0
   13.6707  -17.6358   22.8363 C   0  0  0  0  0  0  0  0  0  0  0  0
   14.8460  -17.3574   22.5449 O   0  0  0  0  0  0  0  0  0  0  0  0
   13.2648  -18.9562   22.6115 O   0  0  0  0  0  0  0  0  0  0  0  0
  2  1  1  1
  3  2  1  0
  4  2  1  0
  4  5  1  6
  6  4  1  0
  7  6  2  0
  9  8  1  0
  9 11  1  0
 10  9  2  0
 12 11  1  0
 13 12  1  6
 13 14  1  0
 14  6  1  0
 15 25  1  0
 15 13  1  0
 16 15  2  0
 17 18  1  0
 18 19  2  0
 20 18  1  0
 21 20  1  0
 22 21  1  0
 23 22  1  0
 24 23  1  1
 24 25  1  0
 26 28  1  0
 26 24  1  0
 27 26  2  0
M  END
$$$$
