VQR.pdb
     RDKit          3D

 28 27  0  0  1  0  0  0  0  0999 V2000
    6.9995  -12.8843   19.2220 C   0  0  0  0  0  0  0  0  0  0  0  0
    8.0005  -13.5792   18.3436 C   0  0  2  0  0  0  0  0  0  0  0  0
    7.4698  -13.9029   16.9797 C   0  0  0  0  0  0  0  0  0  0  0  0
    8.3898  -14.8815   19.0146 C   0  0  2  0  0  0  0  0  0  0  0  0
    7.3305  -15.8327   19.0152 N   0  0  0  0  0  0  0  0  0  0  0  0
    8.8985  -14.5589   20.3812 C   0  0  0  0  0  0  0  0  0  0  0  0
    9.9001  -13.8374   20.4721 O   0  0  0  0  0  0  0  0  0  0  0  0
    5.9319  -13.4022   25.6410 N   0  0  0  0  0  0  0  0  0  0  0  0
    7.2634  -13.6736   26.1102 C   0  0  0  0  0  0  0  0  0  0  0  0
    7.5648  -13.4209   27.2759 O   0  0  0  0  0  0  0  0  0  0  0  0
    8.2816  -14.2702   25.1720 C   0  0  0  0  0  0  0  0  0  0  0  0
    7.6828  -14.4061   23.8209 C   0  0  0  0  0  0  0  0  0  0  0  0
    8.6712  -15.0017   22.8446 C   0  0  2  0  0  0  0  0  0  0  0  0
    8.2318  -15.0777   21.4897 N   0  0  0  0  0  0  0  0  0  0  0  0
    9.3731  -16.1963   23.3330 C   0  0  0  0  0  0  0  0  0  0  0  0
    8.6762  -17.2199   23.5528 O   0  0  0  0  0  0  0  0  0  0  0  0
   10.6990  -17.1528   17.5317 N   0  0  0  0  0  0  0  0  0  0  0  0
   12.0732  -17.5137   17.6161 C   0  0  0  0  0  0  0  0  0  0  0  0
   12.9312  -17.1760   16.7329 N   0  0  0  0  0  0  0  0  0  0  0  0
   12.4988  -18.2790   18.7297 N   0  0  0  0  0  0  0  0  0  0  0  0
   11.5487  -18.5979   19.8085 C   0  0  0  0  0  0  0  0  0  0  0  0
   11.9363  -17.9416   21.0728 C   0  0  0  0  0  0  0  0  0  0  0  0
   11.1364  -18.1813   22.2586 C   0  0  0  0  0  0  0  0  0  0  0  0
   11.4646  -17.5636   23.5533 C   0  0  2  0  0  0  0  0  0  0  0  0
   10.7503  -16.2505   23.5607 N   0  0  0  0  0  0  0  0  0  0  0  0
   12.8271  -17.2262   23.9126 C   0  0  0  0  0  0  0  0  0  0  0  0
   13.6181  -18.0578   24.3883 O   0  0  0  0  0  0  0  0  0  0  0  0
   13.3154  -15.9268   23.7341 O   0  0  0  0  0  0  0  0  0  0  0  0
  2  1  1  1
  3  2  1  0
  4  2  1  0
  4  5  1  1
  6  4  1  0
  7  6  2  0
  9  8  1  0
  9 11  1  0
 10  9  2  0
 12 11  1  0
 13 12  1  1
 13 14  1  0
 14  6  1  0
 15 25  1  0
 15 13  1  0
 16 15  2  0
 17 18  1  0
 18 19  2  0
 20 18  1  0
 21 20  1  0
 22 21  1  0
 23 22  1  0
 24 23  1  6
 24 25  1  0
 26 28  1  0
 26 24  1  0
 27 26  2  0
M  END
$$$$
