EMY.pdb
     RDKit          3D

 30 30  0  0  1  0  0  0  0  0999 V2000
    9.6964  -17.2361   18.7987 N   0  0  0  0  0  0  0  0  0  0  0  0
    8.6754  -17.1648   19.8000 C   0  0  1  0  0  0  0  0  0  0  0  0
    8.3522  -18.4511   20.5062 C   0  0  0  0  0  0  0  0  0  0  0  0
    9.4646  -19.1889   21.1225 C   0  0  0  0  0  0  0  0  0  0  0  0
    9.2078  -20.5216   21.6390 C   0  0  0  0  0  0  0  0  0  0  0  0
    9.1916  -20.7719   22.8586 O   0  0  0  0  0  0  0  0  0  0  0  0
    9.0546  -16.1866   20.8731 C   0  0  0  0  0  0  0  0  0  0  0  0
   10.2464  -15.7936   20.8773 O   0  0  0  0  0  0  0  0  0  0  0  0
    8.9599  -21.6212   20.7988 O   0  0  0  0  0  0  0  0  0  0  0  0
    6.1941  -11.6544   26.5947 C   0  0  0  0  0  0  0  0  0  0  0  0
    6.0372  -13.0988   25.4992 S   0  0  0  0  0  0  0  0  0  0  0  0
    7.1897  -12.9082   24.1439 C   0  0  0  0  0  0  0  0  0  0  0  0
    7.1067  -14.0840   23.2271 C   0  0  0  0  0  0  0  0  0  0  0  0
    8.4153  -14.5323   22.6642 C   0  0  2  0  0  0  0  0  0  0  0  0
    8.1515  -15.7226   21.8296 N   0  0  0  0  0  0  0  0  0  0  0  0
    9.2684  -15.0051   23.7930 C   0  0  0  0  0  0  0  0  0  0  0  0
    9.7757  -14.1651   24.5755 O   0  0  0  0  0  0  0  0  0  0  0  0
   11.8460  -15.1749   31.1700 O   0  0  0  0  0  0  0  0  0  0  0  0
   11.1527  -15.3770   29.9764 C   0  0  0  0  0  0  0  0  0  0  0  0
   10.7312  -14.3483   29.1757 C   0  0  0  0  0  0  0  0  0  0  0  0
   10.0556  -14.6418   28.0182 C   0  0  0  0  0  0  0  0  0  0  0  0
    9.7739  -15.9257   27.6124 C   0  0  0  0  0  0  0  0  0  0  0  0
    9.0479  -16.2925   26.3853 C   0  0  0  0  0  0  0  0  0  0  0  0
    9.9783  -16.8114   25.3213 C   0  0  2  0  0  0  0  0  0  0  0  0
    9.5195  -16.3803   24.0022 N   0  0  0  0  0  0  0  0  0  0  0  0
   10.1764  -18.2713   25.3428 C   0  0  0  0  0  0  0  0  0  0  0  0
   11.3694  -18.7842   25.7951 O   0  0  0  0  0  0  0  0  0  0  0  0
   10.2005  -16.9610   28.4233 C   0  0  0  0  0  0  0  0  0  0  0  0
   10.8793  -16.6876   29.5867 C   0  0  0  0  0  0  0  0  0  0  0  0
    9.2781  -19.0344   24.9581 O   0  0  0  0  0  0  0  0  0  0  0  0
  2  1  1  6
  2  3  1  0
  3  4  1  0
  4  5  1  0
  5  6  2  0
  7  2  1  0
  7  8  2  0
  9  5  1  0
 10 11  1  0
 11 12  1  0
 13 12  1  0
 14 13  1  1
 14 15  1  0
 15  7  1  0
 16 14  1  0
 17 16  2  0
 18 19  1  0
 19 20  2  0
 19 29  1  0
 20 21  1  0
 21 22  2  0
 22 23  1  0
 24 23  1  1
 24 25  1  0
 24 26  1  0
 25 16  1  0
 26 27  1  0
 28 22  1  0
 29 28  2  0
 30 26  2  0
M  END
$$$$
