EMY.pdb
     RDKit          3D

 30 30  0  0  1  0  0  0  0  0999 V2000
    8.1980  -16.3145   19.2454 N   0  0  0  0  0  0  0  0  0  0  0  0
    7.5848  -16.4971   20.5264 C   0  0  1  0  0  0  0  0  0  0  0  0
    7.5971  -17.8977   21.0705 C   0  0  0  0  0  0  0  0  0  0  0  0
    8.9025  -18.5533   21.2371 C   0  0  0  0  0  0  0  0  0  0  0  0
    8.9331  -19.9130   21.7459 C   0  0  0  0  0  0  0  0  0  0  0  0
    9.9949  -20.5474   21.8885 O   0  0  0  0  0  0  0  0  0  0  0  0
    8.2582  -15.6442   21.5614 C   0  0  0  0  0  0  0  0  0  0  0  0
    9.4125  -15.2358   21.2862 O   0  0  0  0  0  0  0  0  0  0  0  0
    7.7669  -20.6073   22.1126 O   0  0  0  0  0  0  0  0  0  0  0  0
    6.1019  -12.1738   27.1021 C   0  0  0  0  0  0  0  0  0  0  0  0
    7.2194  -11.4242   25.8772 S   0  0  0  0  0  0  0  0  0  0  0  0
    7.0434  -12.3119   24.3337 C   0  0  0  0  0  0  0  0  0  0  0  0
    7.2097  -13.7785   24.5604 C   0  0  0  0  0  0  0  0  0  0  0  0
    8.2991  -14.4157   23.7620 C   0  0  2  0  0  0  0  0  0  0  0  0
    7.6575  -15.3083   22.7748 N   0  0  0  0  0  0  0  0  0  0  0  0
    9.0805  -15.3048   24.6701 C   0  0  0  0  0  0  0  0  0  0  0  0
    8.5852  -15.6496   25.7706 O   0  0  0  0  0  0  0  0  0  0  0  0
   12.4932  -21.3177   29.3358 O   0  0  0  0  0  0  0  0  0  0  0  0
   11.9223  -20.5098   28.3523 C   0  0  0  0  0  0  0  0  0  0  0  0
   11.8989  -20.8535   27.0262 C   0  0  0  0  0  0  0  0  0  0  0  0
   11.3149  -19.9961   26.1283 C   0  0  0  0  0  0  0  0  0  0  0  0
   10.7457  -18.7968   26.4889 C   0  0  0  0  0  0  0  0  0  0  0  0
   10.1138  -17.8405   25.5650 C   0  0  0  0  0  0  0  0  0  0  0  0
   11.0402  -16.7052   25.2185 C   0  0  2  0  0  0  0  0  0  0  0  0
   10.3688  -15.7686   24.3194 N   0  0  0  0  0  0  0  0  0  0  0  0
   12.3330  -17.1244   24.6493 C   0  0  0  0  0  0  0  0  0  0  0  0
   12.4127  -17.4360   23.3123 O   0  0  0  0  0  0  0  0  0  0  0  0
   10.7716  -18.4533   27.8279 C   0  0  0  0  0  0  0  0  0  0  0  0
   11.3516  -19.2991   28.7430 C   0  0  0  0  0  0  0  0  0  0  0  0
   13.3426  -17.1964   25.3653 O   0  0  0  0  0  0  0  0  0  0  0  0
  2  1  1  6
  2  3  1  0
  3  4  1  0
  4  5  1  0
  5  6  2  0
  7  2  1  0
  7  8  2  0
  9  5  1  0
 10 11  1  0
 11 12  1  0
 13 12  1  0
 14 13  1  1
 14 15  1  0
 15  7  1  0
 16 14  1  0
 17 16  2  0
 18 19  1  0
 19 20  2  0
 19 29  1  0
 20 21  1  0
 21 22  2  0
 22 23  1  0
 24 23  1  6
 24 25  1  0
 24 26  1  0
 25 16  1  0
 26 27  1  0
 28 22  1  0
 29 28  2  0
 30 26  2  0
M  END
$$$$
