EMY.pdb
     RDKit          3D

 30 30  0  0  1  0  0  0  0  0999 V2000
    8.1571  -18.5955   20.5738 N   0  0  0  0  0  0  0  0  0  0  0  0
    9.4381  -17.9933   20.3575 C   0  0  1  0  0  0  0  0  0  0  0  0
    9.8407  -17.7951   18.9235 C   0  0  0  0  0  0  0  0  0  0  0  0
    8.8378  -18.0824   17.8875 C   0  0  0  0  0  0  0  0  0  0  0  0
    9.2374  -17.9908   16.4944 C   0  0  0  0  0  0  0  0  0  0  0  0
    8.4310  -18.1454   15.5584 O   0  0  0  0  0  0  0  0  0  0  0  0
    9.4995  -16.6369   20.9967 C   0  0  0  0  0  0  0  0  0  0  0  0
   10.5509  -15.9774   20.8115 O   0  0  0  0  0  0  0  0  0  0  0  0
   10.5614  -17.7214   16.1059 O   0  0  0  0  0  0  0  0  0  0  0  0
    6.0490  -11.3987   25.6006 C   0  0  0  0  0  0  0  0  0  0  0  0
    6.3176  -13.1055   25.0297 S   0  0  0  0  0  0  0  0  0  0  0  0
    6.9517  -13.0490   23.3575 C   0  0  0  0  0  0  0  0  0  0  0  0
    7.1225  -14.4331   22.8236 C   0  0  0  0  0  0  0  0  0  0  0  0
    8.4972  -14.7497   22.3336 C   0  0  2  0  0  0  0  0  0  0  0  0
    8.4586  -16.1120   21.7628 N   0  0  0  0  0  0  0  0  0  0  0  0
    9.4045  -14.8269   23.5152 C   0  0  0  0  0  0  0  0  0  0  0  0
    9.8578  -13.7680   24.0140 O   0  0  0  0  0  0  0  0  0  0  0  0
   11.5508  -16.0608   31.6504 O   0  0  0  0  0  0  0  0  0  0  0  0
   11.0504  -15.8462   30.3660 C   0  0  0  0  0  0  0  0  0  0  0  0
   11.0079  -14.6087   29.7796 C   0  0  0  0  0  0  0  0  0  0  0  0
   10.4983  -14.4923   28.5110 C   0  0  0  0  0  0  0  0  0  0  0  0
   10.0218  -15.5604   27.7870 C   0  0  0  0  0  0  0  0  0  0  0  0
    9.4603  -15.4874   26.4281 C   0  0  0  0  0  0  0  0  0  0  0  0
   10.3999  -16.0682   25.4048 C   0  0  2  0  0  0  0  0  0  0  0  0
    9.7669  -16.0676   24.0874 N   0  0  0  0  0  0  0  0  0  0  0  0
   10.9013  -17.4147   25.7315 C   0  0  0  0  0  0  0  0  0  0  0  0
   12.1532  -17.5534   26.2832 O   0  0  0  0  0  0  0  0  0  0  0  0
   10.0660  -16.8075   28.3823 C   0  0  0  0  0  0  0  0  0  0  0  0
   10.5733  -16.9450   29.6523 C   0  0  0  0  0  0  0  0  0  0  0  0
   10.2040  -18.4164   25.5133 O   0  0  0  0  0  0  0  0  0  0  0  0
  2  1  1  6
  2  3  1  0
  3  4  1  0
  4  5  1  0
  5  6  2  0
  7  2  1  0
  7  8  2  0
  9  5  1  0
 10 11  1  0
 11 12  1  0
 13 12  1  0
 14 13  1  1
 14 15  1  0
 15  7  1  0
 16 14  1  0
 17 16  2  0
 18 19  1  0
 19 20  2  0
 19 29  1  0
 20 21  1  0
 21 22  2  0
 22 23  1  0
 24 23  1  1
 24 25  1  0
 24 26  1  0
 25 16  1  0
 26 27  1  0
 28 22  1  0
 29 28  2  0
 30 26  2  0
M  END
$$$$
