EMY.pdb
     RDKit          3D

 30 30  0  0  1  0  0  0  0  0999 V2000
    9.2875  -18.7118   19.9224 N   0  0  0  0  0  0  0  0  0  0  0  0
   10.4580  -17.8916   19.8356 C   0  0  1  0  0  0  0  0  0  0  0  0
   10.9211  -17.5468   18.4483 C   0  0  0  0  0  0  0  0  0  0  0  0
   11.5379  -18.6160   17.6497 C   0  0  0  0  0  0  0  0  0  0  0  0
   11.9941  -18.3008   16.3076 C   0  0  0  0  0  0  0  0  0  0  0  0
   13.1375  -17.8648   16.0777 O   0  0  0  0  0  0  0  0  0  0  0  0
   10.2400  -16.5830   20.5372 C   0  0  0  0  0  0  0  0  0  0  0  0
   11.2426  -15.8382   20.6579 O   0  0  0  0  0  0  0  0  0  0  0  0
   11.1772  -18.4657   15.1753 O   0  0  0  0  0  0  0  0  0  0  0  0
    7.1853  -12.2776   18.0138 C   0  0  0  0  0  0  0  0  0  0  0  0
    7.8270  -12.7208   19.6579 S   0  0  0  0  0  0  0  0  0  0  0  0
    6.9922  -14.2042   20.2095 C   0  0  0  0  0  0  0  0  0  0  0  0
    7.3816  -14.5226   21.6155 C   0  0  0  0  0  0  0  0  0  0  0  0
    8.8064  -14.9331   21.7927 C   0  0  2  0  0  0  0  0  0  0  0  0
    8.9997  -16.1899   21.0404 N   0  0  0  0  0  0  0  0  0  0  0  0
    9.0141  -15.2800   23.2287 C   0  0  0  0  0  0  0  0  0  0  0  0
    8.1376  -14.9672   24.0709 O   0  0  0  0  0  0  0  0  0  0  0  0
   11.6142  -14.8724   31.2340 O   0  0  0  0  0  0  0  0  0  0  0  0
   11.1209  -15.1483   29.9586 C   0  0  0  0  0  0  0  0  0  0  0  0
   10.9240  -16.4223   29.4950 C   0  0  0  0  0  0  0  0  0  0  0  0
   10.4341  -16.5986   28.2255 C   0  0  0  0  0  0  0  0  0  0  0  0
   10.1268  -15.5560   27.3825 C   0  0  0  0  0  0  0  0  0  0  0  0
    9.6060  -15.6919   26.0123 C   0  0  0  0  0  0  0  0  0  0  0  0
   10.7094  -15.6401   24.9890 C   0  0  2  0  0  0  0  0  0  0  0  0
   10.1778  -15.9538   23.6641 N   0  0  0  0  0  0  0  0  0  0  0  0
   11.8656  -16.5010   25.2941 C   0  0  0  0  0  0  0  0  0  0  0  0
   12.7824  -16.0921   26.2339 O   0  0  0  0  0  0  0  0  0  0  0  0
   10.3273  -14.2718   27.8539 C   0  0  0  0  0  0  0  0  0  0  0  0
   10.8168  -14.0744   29.1230 C   0  0  0  0  0  0  0  0  0  0  0  0
   12.0144  -17.5853   24.7116 O   0  0  0  0  0  0  0  0  0  0  0  0
  2  1  1  6
  2  3  1  0
  3  4  1  0
  4  5  1  0
  5  6  2  0
  7  2  1  0
  7  8  2  0
  9  5  1  0
 10 11  1  0
 11 12  1  0
 13 12  1  0
 14 13  1  1
 14 15  1  0
 15  7  1  0
 16 14  1  0
 17 16  2  0
 18 19  1  0
 19 20  2  0
 19 29  1  0
 20 21  1  0
 21 22  2  0
 22 23  1  0
 24 23  1  1
 24 25  1  0
 24 26  1  0
 25 16  1  0
 26 27  1  0
 28 22  1  0
 29 28  2  0
 30 26  2  0
M  END
$$$$
