EMY.pdb
     RDKit          3D

 30 30  0  0  1  0  0  0  0  0999 V2000
    7.8729  -17.6704   18.5303 N   0  0  0  0  0  0  0  0  0  0  0  0
    8.2681  -17.9178   19.8841 C   0  0  1  0  0  0  0  0  0  0  0  0
    9.4543  -18.8209   20.0710 C   0  0  0  0  0  0  0  0  0  0  0  0
    9.9563  -19.5405   18.8913 C   0  0  0  0  0  0  0  0  0  0  0  0
   11.0650  -20.4623   19.0640 C   0  0  0  0  0  0  0  0  0  0  0  0
   10.9094  -21.6167   19.5037 O   0  0  0  0  0  0  0  0  0  0  0  0
    8.6122  -16.6323   20.5778 C   0  0  0  0  0  0  0  0  0  0  0  0
    9.5044  -15.9293   20.0445 O   0  0  0  0  0  0  0  0  0  0  0  0
   12.3901  -20.1158   18.7470 O   0  0  0  0  0  0  0  0  0  0  0  0
    6.4541  -11.8200   26.4805 C   0  0  0  0  0  0  0  0  0  0  0  0
    6.2315  -13.3860   25.5809 S   0  0  0  0  0  0  0  0  0  0  0  0
    7.4365  -13.4553   24.2601 C   0  0  0  0  0  0  0  0  0  0  0  0
    7.2817  -14.7233   23.4867 C   0  0  0  0  0  0  0  0  0  0  0  0
    8.2806  -14.9156   22.3934 C   0  0  2  0  0  0  0  0  0  0  0  0
    7.9906  -16.2163   21.7553 N   0  0  0  0  0  0  0  0  0  0  0  0
    9.6287  -15.0572   23.0164 C   0  0  0  0  0  0  0  0  0  0  0  0
   10.4414  -14.1030   22.9496 O   0  0  0  0  0  0  0  0  0  0  0  0
   11.0113  -15.6533   31.3588 O   0  0  0  0  0  0  0  0  0  0  0  0
   10.6213  -15.5492   30.0235 C   0  0  0  0  0  0  0  0  0  0  0  0
   10.4072  -14.3478   29.4008 C   0  0  0  0  0  0  0  0  0  0  0  0
   10.0254  -14.3416   28.0830 C   0  0  0  0  0  0  0  0  0  0  0  0
    9.8428  -15.4873   27.3437 C   0  0  0  0  0  0  0  0  0  0  0  0
    9.4284  -15.5345   25.9319 C   0  0  0  0  0  0  0  0  0  0  0  0
   10.4920  -16.1457   25.0589 C   0  0  2  0  0  0  0  0  0  0  0  0
   10.0132  -16.2437   23.6814 N   0  0  0  0  0  0  0  0  0  0  0  0
   10.9857  -17.4539   25.5238 C   0  0  0  0  0  0  0  0  0  0  0  0
   12.0768  -17.5058   26.3591 O   0  0  0  0  0  0  0  0  0  0  0  0
   10.0595  -16.6977   27.9757 C   0  0  0  0  0  0  0  0  0  0  0  0
   10.4429  -16.7249   29.2953 C   0  0  0  0  0  0  0  0  0  0  0  0
   10.4252  -18.5010   25.1681 O   0  0  0  0  0  0  0  0  0  0  0  0
  2  1  1  6
  2  3  1  0
  3  4  1  0
  4  5  1  0
  5  6  2  0
  7  2  1  0
  7  8  2  0
  9  5  1  0
 10 11  1  0
 11 12  1  0
 13 12  1  0
 14 13  1  1
 14 15  1  0
 15  7  1  0
 16 14  1  0
 17 16  2  0
 18 19  1  0
 19 20  2  0
 19 29  1  0
 20 21  1  0
 21 22  2  0
 22 23  1  0
 24 23  1  1
 24 25  1  0
 24 26  1  0
 25 16  1  0
 26 27  1  0
 28 22  1  0
 29 28  2  0
 30 26  2  0
M  END
$$$$
