EMY.pdb
     RDKit          3D

 30 30  0  0  1  0  0  0  0  0999 V2000
    9.2551  -15.8082   18.7041 N   0  0  0  0  0  0  0  0  0  0  0  0
    9.1523  -16.6956   19.8231 C   0  0  1  0  0  0  0  0  0  0  0  0
   10.0151  -17.9247   19.7725 C   0  0  0  0  0  0  0  0  0  0  0  0
    9.9867  -18.8263   20.9335 C   0  0  0  0  0  0  0  0  0  0  0  0
   10.0887  -20.2560   20.7009 C   0  0  0  0  0  0  0  0  0  0  0  0
    9.1491  -20.9231   20.2291 O   0  0  0  0  0  0  0  0  0  0  0  0
    9.5148  -15.9866   21.0952 C   0  0  0  0  0  0  0  0  0  0  0  0
   10.6850  -15.5403   21.1739 O   0  0  0  0  0  0  0  0  0  0  0  0
   11.2543  -20.9861   20.9920 O   0  0  0  0  0  0  0  0  0  0  0  0
    5.9962  -11.7802   26.7127 C   0  0  0  0  0  0  0  0  0  0  0  0
    5.8915  -12.9867   25.3545 S   0  0  0  0  0  0  0  0  0  0  0  0
    7.5537  -13.4428   24.8743 C   0  0  0  0  0  0  0  0  0  0  0  0
    7.5166  -14.3646   23.7001 C   0  0  0  0  0  0  0  0  0  0  0  0
    8.8521  -14.8583   23.2495 C   0  0  2  0  0  0  0  0  0  0  0  0
    8.6193  -15.8191   22.1515 N   0  0  0  0  0  0  0  0  0  0  0  0
    9.4546  -15.6477   24.3629 C   0  0  0  0  0  0  0  0  0  0  0  0
    9.2383  -16.8822   24.4300 O   0  0  0  0  0  0  0  0  0  0  0  0
   12.4842  -17.5477   32.3846 O   0  0  0  0  0  0  0  0  0  0  0  0
   12.2889  -16.9659   31.1318 C   0  0  0  0  0  0  0  0  0  0  0  0
   12.9223  -17.4050   29.9991 C   0  0  0  0  0  0  0  0  0  0  0  0
   12.6687  -16.7716   28.8087 C   0  0  0  0  0  0  0  0  0  0  0  0
   11.8048  -15.7079   28.6876 C   0  0  0  0  0  0  0  0  0  0  0  0
   11.5042  -14.9912   27.4373 C   0  0  0  0  0  0  0  0  0  0  0  0
   10.6957  -15.8377   26.4903 C   0  0  2  0  0  0  0  0  0  0  0  0
   10.2650  -15.0362   25.3464 N   0  0  0  0  0  0  0  0  0  0  0  0
    9.5398  -16.5108   27.1084 C   0  0  0  0  0  0  0  0  0  0  0  0
    9.6688  -17.8077   27.5468 O   0  0  0  0  0  0  0  0  0  0  0  0
   11.1679  -15.2676   29.8330 C   0  0  0  0  0  0  0  0  0  0  0  0
   11.4082  -15.8892   31.0350 C   0  0  0  0  0  0  0  0  0  0  0  0
    8.4588  -15.9168   27.2347 O   0  0  0  0  0  0  0  0  0  0  0  0
  2  1  1  6
  2  3  1  0
  3  4  1  0
  4  5  1  0
  5  6  2  0
  7  2  1  0
  7  8  2  0
  9  5  1  0
 10 11  1  0
 11 12  1  0
 13 12  1  0
 14 13  1  1
 14 15  1  0
 15  7  1  0
 16 14  1  0
 17 16  2  0
 18 19  1  0
 19 20  2  0
 19 29  1  0
 20 21  1  0
 21 22  2  0
 22 23  1  0
 24 23  1  1
 24 25  1  0
 24 26  1  0
 25 16  1  0
 26 27  1  0
 28 22  1  0
 29 28  2  0
 30 26  2  0
M  END
$$$$
