EMY.pdb
     RDKit          3D

 30 30  0  0  1  0  0  0  0  0999 V2000
    8.4148  -18.6662   20.0586 N   0  0  0  0  0  0  0  0  0  0  0  0
    9.6638  -18.0117   19.8094 C   0  0  1  0  0  0  0  0  0  0  0  0
    9.9860  -17.7307   18.3689 C   0  0  0  0  0  0  0  0  0  0  0  0
   10.7775  -18.7320   17.6392 C   0  0  0  0  0  0  0  0  0  0  0  0
   11.0485  -18.5059   16.2305 C   0  0  0  0  0  0  0  0  0  0  0  0
   10.7589  -17.4381   15.6593 O   0  0  0  0  0  0  0  0  0  0  0  0
    9.7160  -16.6868   20.5122 C   0  0  0  0  0  0  0  0  0  0  0  0
   10.8063  -16.0677   20.4604 O   0  0  0  0  0  0  0  0  0  0  0  0
   11.6562  -19.4760   15.4144 O   0  0  0  0  0  0  0  0  0  0  0  0
    5.7380  -13.2859   25.6002 C   0  0  0  0  0  0  0  0  0  0  0  0
    7.3807  -13.4388   24.8324 S   0  0  0  0  0  0  0  0  0  0  0  0
    7.2038  -13.2036   23.0675 C   0  0  0  0  0  0  0  0  0  0  0  0
    7.3207  -14.5127   22.3585 C   0  0  0  0  0  0  0  0  0  0  0  0
    8.7116  -14.8912   21.9684 C   0  0  2  0  0  0  0  0  0  0  0  0
    8.6262  -16.1479   21.1961 N   0  0  0  0  0  0  0  0  0  0  0  0
    9.4672  -15.2251   23.2107 C   0  0  0  0  0  0  0  0  0  0  0  0
   10.4413  -14.5102   23.5500 O   0  0  0  0  0  0  0  0  0  0  0  0
   11.1994  -15.5790   31.5236 O   0  0  0  0  0  0  0  0  0  0  0  0
   10.7595  -15.5672   30.1998 C   0  0  0  0  0  0  0  0  0  0  0  0
   10.4126  -16.7047   29.5195 C   0  0  0  0  0  0  0  0  0  0  0  0
    9.9901  -16.5975   28.2185 C   0  0  0  0  0  0  0  0  0  0  0  0
    9.8949  -15.3983   27.5513 C   0  0  0  0  0  0  0  0  0  0  0  0
    9.4546  -15.2308   26.1565 C   0  0  0  0  0  0  0  0  0  0  0  0
    9.7309  -16.4609   25.3333 C   0  0  2  0  0  0  0  0  0  0  0  0
    9.1109  -16.3307   24.0161 N   0  0  0  0  0  0  0  0  0  0  0  0
    9.3216  -17.7254   25.9693 C   0  0  0  0  0  0  0  0  0  0  0  0
   10.2321  -18.4273   26.7238 O   0  0  0  0  0  0  0  0  0  0  0  0
   10.2463  -14.2527   28.2411 C   0  0  0  0  0  0  0  0  0  0  0  0
   10.6715  -14.3393   29.5452 C   0  0  0  0  0  0  0  0  0  0  0  0
    8.1676  -18.1563   25.8288 O   0  0  0  0  0  0  0  0  0  0  0  0
  2  1  1  6
  2  3  1  0
  3  4  1  0
  4  5  1  0
  5  6  2  0
  7  2  1  0
  7  8  2  0
  9  5  1  0
 10 11  1  0
 11 12  1  0
 13 12  1  0
 14 13  1  1
 14 15  1  0
 15  7  1  0
 16 14  1  0
 17 16  2  0
 18 19  1  0
 19 20  2  0
 19 29  1  0
 20 21  1  0
 21 22  2  0
 22 23  1  0
 24 23  1  1
 24 25  1  0
 24 26  1  0
 25 16  1  0
 26 27  1  0
 28 22  1  0
 29 28  2  0
 30 26  2  0
M  END
$$$$
