EMY.pdb
     RDKit          3D

 30 30  0  0  1  0  0  0  0  0999 V2000
    8.1421  -18.0382   16.7715 N   0  0  0  0  0  0  0  0  0  0  0  0
    9.4770  -18.1949   17.2655 C   0  0  1  0  0  0  0  0  0  0  0  0
   10.5750  -18.0903   16.2451 C   0  0  0  0  0  0  0  0  0  0  0  0
   11.4019  -19.2827   16.0084 C   0  0  0  0  0  0  0  0  0  0  0  0
   12.5947  -19.1454   15.1916 C   0  0  0  0  0  0  0  0  0  0  0  0
   13.3452  -20.1069   14.9414 O   0  0  0  0  0  0  0  0  0  0  0  0
    9.7798  -17.1591   18.3083 C   0  0  0  0  0  0  0  0  0  0  0  0
   10.4302  -16.1553   17.9286 O   0  0  0  0  0  0  0  0  0  0  0  0
   12.9849  -17.9185   14.6269 O   0  0  0  0  0  0  0  0  0  0  0  0
    7.5009  -11.0312   20.5479 C   0  0  0  0  0  0  0  0  0  0  0  0
    7.2588  -12.7110   19.8915 S   0  0  0  0  0  0  0  0  0  0  0  0
    8.5608  -13.7599   20.5287 C   0  0  0  0  0  0  0  0  0  0  0  0
    8.3362  -15.1747   20.1069 C   0  0  0  0  0  0  0  0  0  0  0  0
    9.3735  -16.1404   20.5778 C   0  0  2  0  0  0  0  0  0  0  0  0
    9.3739  -17.2799   19.6374 N   0  0  0  0  0  0  0  0  0  0  0  0
    8.9304  -16.6935   21.8905 C   0  0  0  0  0  0  0  0  0  0  0  0
    7.8421  -17.3148   21.9614 O   0  0  0  0  0  0  0  0  0  0  0  0
   15.1302  -22.0713   23.3044 O   0  0  0  0  0  0  0  0  0  0  0  0
   14.3184  -20.9752   23.0116 C   0  0  0  0  0  0  0  0  0  0  0  0
   14.8156  -19.7729   22.5823 C   0  0  0  0  0  0  0  0  0  0  0  0
   13.9411  -18.7493   22.3175 C   0  0  0  0  0  0  0  0  0  0  0  0
   12.5779  -18.8637   22.4613 C   0  0  0  0  0  0  0  0  0  0  0  0
   11.5996  -17.7957   22.1973 C   0  0  0  0  0  0  0  0  0  0  0  0
   10.6999  -17.5588   23.3812 C   0  0  2  0  0  0  0  0  0  0  0  0
    9.7092  -16.5336   23.0592 N   0  0  0  0  0  0  0  0  0  0  0  0
   11.4080  -17.2137   24.6264 C   0  0  0  0  0  0  0  0  0  0  0  0
   12.1236  -16.0414   24.6935 O   0  0  0  0  0  0  0  0  0  0  0  0
   12.0801  -20.0784   22.8952 C   0  0  0  0  0  0  0  0  0  0  0  0
   12.9398  -21.1163   23.1651 C   0  0  0  0  0  0  0  0  0  0  0  0
   11.3614  -17.9702   25.6076 O   0  0  0  0  0  0  0  0  0  0  0  0
  2  1  1  6
  2  3  1  0
  3  4  1  0
  4  5  1  0
  5  6  2  0
  7  2  1  0
  7  8  2  0
  9  5  1  0
 10 11  1  0
 11 12  1  0
 13 12  1  0
 14 13  1  6
 14 15  1  0
 15  7  1  0
 16 14  1  0
 17 16  2  0
 18 19  1  0
 19 20  2  0
 19 29  1  0
 20 21  1  0
 21 22  2  0
 22 23  1  0
 24 23  1  6
 24 25  1  0
 24 26  1  0
 25 16  1  0
 26 27  1  0
 28 22  1  0
 29 28  2  0
 30 26  2  0
M  END
$$$$
