EMY.pdb
     RDKit          3D

 30 30  0  0  1  0  0  0  0  0999 V2000
    9.1372  -18.8474   18.3396 N   0  0  0  0  0  0  0  0  0  0  0  0
   10.4709  -18.5127   18.7390 C   0  0  1  0  0  0  0  0  0  0  0  0
   11.3808  -18.0163   17.6512 C   0  0  0  0  0  0  0  0  0  0  0  0
   11.2310  -18.6081   16.3137 C   0  0  0  0  0  0  0  0  0  0  0  0
   12.0490  -18.0882   15.2324 C   0  0  0  0  0  0  0  0  0  0  0  0
   11.5555  -17.5744   14.2113 O   0  0  0  0  0  0  0  0  0  0  0  0
   10.4550  -17.4398   19.7882 C   0  0  0  0  0  0  0  0  0  0  0  0
   11.5596  -17.1470   20.3068 O   0  0  0  0  0  0  0  0  0  0  0  0
   13.4540  -18.1288   15.2630 O   0  0  0  0  0  0  0  0  0  0  0  0
    7.4027  -12.2607   21.7448 C   0  0  0  0  0  0  0  0  0  0  0  0
    7.4607  -12.7011   19.9802 S   0  0  0  0  0  0  0  0  0  0  0  0
    7.6584  -14.4744   19.8465 C   0  0  0  0  0  0  0  0  0  0  0  0
    7.9628  -15.0618   21.1853 C   0  0  0  0  0  0  0  0  0  0  0  0
    9.2682  -15.7822   21.2705 C   0  0  2  0  0  0  0  0  0  0  0  0
    9.2888  -16.7865   20.1870 N   0  0  0  0  0  0  0  0  0  0  0  0
    9.2887  -16.5559   22.5459 C   0  0  0  0  0  0  0  0  0  0  0  0
   10.2873  -17.2650   22.8201 O   0  0  0  0  0  0  0  0  0  0  0  0
   10.5504  -14.7914   30.6962 O   0  0  0  0  0  0  0  0  0  0  0  0
   10.3211  -14.9703   29.3318 C   0  0  0  0  0  0  0  0  0  0  0  0
   11.0046  -15.8849   28.5746 C   0  0  0  0  0  0  0  0  0  0  0  0
   10.7120  -15.9920   27.2384 C   0  0  0  0  0  0  0  0  0  0  0  0
    9.7604  -15.2233   26.6092 C   0  0  0  0  0  0  0  0  0  0  0  0
    9.4144  -15.2950   25.1801 C   0  0  0  0  0  0  0  0  0  0  0  0
    8.5015  -16.4555   24.8852 C   0  0  2  0  0  0  0  0  0  0  0  0
    8.2070  -16.5091   23.4545 N   0  0  0  0  0  0  0  0  0  0  0  0
    7.2519  -16.4627   25.6660 C   0  0  0  0  0  0  0  0  0  0  0  0
    6.2393  -15.5961   25.3275 O   0  0  0  0  0  0  0  0  0  0  0  0
    9.0731  -14.3012   27.3766 C   0  0  0  0  0  0  0  0  0  0  0  0
    9.3514  -14.1791   28.7170 C   0  0  0  0  0  0  0  0  0  0  0  0
    7.1100  -17.2418   26.6200 O   0  0  0  0  0  0  0  0  0  0  0  0
  2  1  1  6
  2  3  1  0
  3  4  1  0
  4  5  1  0
  5  6  2  0
  7  2  1  0
  7  8  2  0
  9  5  1  0
 10 11  1  0
 11 12  1  0
 13 12  1  0
 14 13  1  1
 14 15  1  0
 15  7  1  0
 16 14  1  0
 17 16  2  0
 18 19  1  0
 19 20  2  0
 19 29  1  0
 20 21  1  0
 21 22  2  0
 22 23  1  0
 24 23  1  6
 24 25  1  0
 24 26  1  0
 25 16  1  0
 26 27  1  0
 28 22  1  0
 29 28  2  0
 30 26  2  0
M  END
$$$$
