EMY.pdb
     RDKit          3D

 30 30  0  0  1  0  0  0  0  0999 V2000
    9.9197  -16.2676   19.9762 N   0  0  0  0  0  0  0  0  0  0  0  0
    9.1814  -16.7295   21.1128 C   0  0  1  0  0  0  0  0  0  0  0  0
    9.4754  -18.1317   21.5657 C   0  0  0  0  0  0  0  0  0  0  0  0
   10.6591  -18.7966   21.0016 C   0  0  0  0  0  0  0  0  0  0  0  0
   10.9231  -20.1741   21.3778 C   0  0  0  0  0  0  0  0  0  0  0  0
   10.1076  -21.0907   21.1656 O   0  0  0  0  0  0  0  0  0  0  0  0
    9.4341  -15.8483   22.3010 C   0  0  0  0  0  0  0  0  0  0  0  0
   10.5850  -15.3581   22.4004 O   0  0  0  0  0  0  0  0  0  0  0  0
   12.1167  -20.5684   22.0074 O   0  0  0  0  0  0  0  0  0  0  0  0
    5.8854  -11.3494   27.6814 C   0  0  0  0  0  0  0  0  0  0  0  0
    5.7637  -12.5835   26.3497 S   0  0  0  0  0  0  0  0  0  0  0  0
    7.4135  -13.1512   25.9528 C   0  0  0  0  0  0  0  0  0  0  0  0
    7.3694  -14.0975   24.7985 C   0  0  0  0  0  0  0  0  0  0  0  0
    8.6952  -14.6531   24.3936 C   0  0  2  0  0  0  0  0  0  0  0  0
    8.4604  -15.5725   23.2612 N   0  0  0  0  0  0  0  0  0  0  0  0
    9.2033  -15.5013   25.5107 C   0  0  0  0  0  0  0  0  0  0  0  0
    8.6819  -16.6241   25.7179 O   0  0  0  0  0  0  0  0  0  0  0  0
   13.6570  -18.7240   22.3880 O   0  0  0  0  0  0  0  0  0  0  0  0
   13.3105  -18.0239   23.5438 C   0  0  0  0  0  0  0  0  0  0  0  0
   13.1561  -16.6629   23.5729 C   0  0  0  0  0  0  0  0  0  0  0  0
   12.8133  -16.0587   24.7560 C   0  0  0  0  0  0  0  0  0  0  0  0
   12.6142  -16.7507   25.9281 C   0  0  0  0  0  0  0  0  0  0  0  0
   12.2525  -16.1499   27.2225 C   0  0  0  0  0  0  0  0  0  0  0  0
   10.7624  -15.9867   27.3643 C   0  0  2  0  0  0  0  0  0  0  0  0
   10.2605  -15.0690   26.3433 N   0  0  0  0  0  0  0  0  0  0  0  0
   10.3202  -15.5559   28.7022 C   0  0  0  0  0  0  0  0  0  0  0  0
   10.5859  -16.3534   29.7904 O   0  0  0  0  0  0  0  0  0  0  0  0
   12.7712  -18.1239   25.8948 C   0  0  0  0  0  0  0  0  0  0  0  0
   13.1140  -18.7479   24.7191 C   0  0  0  0  0  0  0  0  0  0  0  0
    9.7141  -14.4845   28.8503 O   0  0  0  0  0  0  0  0  0  0  0  0
  2  1  1  6
  2  3  1  0
  3  4  1  0
  4  5  1  0
  5  6  2  0
  7  2  1  0
  7  8  2  0
  9  5  1  0
 10 11  1  0
 11 12  1  0
 13 12  1  0
 14 13  1  1
 14 15  1  0
 15  7  1  0
 16 14  1  0
 17 16  2  0
 18 19  1  0
 19 20  2  0
 19 29  1  0
 20 21  1  0
 21 22  2  0
 22 23  1  0
 24 23  1  1
 24 25  1  0
 24 26  1  0
 25 16  1  0
 26 27  1  0
 28 22  1  0
 29 28  2  0
 30 26  2  0
M  END
$$$$
