EMY.pdb
     RDKit          3D

 30 30  0  0  1  0  0  0  0  0999 V2000
    8.8860  -15.7475   18.0453 N   0  0  0  0  0  0  0  0  0  0  0  0
    8.1663  -16.3024   19.1518 C   0  0  1  0  0  0  0  0  0  0  0  0
    8.2176  -17.7977   19.2898 C   0  0  0  0  0  0  0  0  0  0  0  0
    9.5247  -18.4130   19.5628 C   0  0  0  0  0  0  0  0  0  0  0  0
    9.6195  -19.8620   19.5654 C   0  0  0  0  0  0  0  0  0  0  0  0
    9.7643  -20.5222   18.5197 O   0  0  0  0  0  0  0  0  0  0  0  0
    8.6805  -15.7484   20.4483 C   0  0  0  0  0  0  0  0  0  0  0  0
    9.9193  -15.5643   20.5268 O   0  0  0  0  0  0  0  0  0  0  0  0
    9.5543  -20.6198   20.7478 O   0  0  0  0  0  0  0  0  0  0  0  0
    6.3588  -12.0075   27.0001 C   0  0  0  0  0  0  0  0  0  0  0  0
    5.9431  -13.0701   25.5826 S   0  0  0  0  0  0  0  0  0  0  0  0
    7.4455  -13.4131   24.6736 C   0  0  0  0  0  0  0  0  0  0  0  0
    7.1373  -14.2131   23.4509 C   0  0  0  0  0  0  0  0  0  0  0  0
    8.3335  -14.7519   22.7374 C   0  0  2  0  0  0  0  0  0  0  0  0
    7.8488  -15.4462   21.5267 N   0  0  0  0  0  0  0  0  0  0  0  0
    8.9490  -15.8063   23.5947 C   0  0  0  0  0  0  0  0  0  0  0  0
    8.4848  -16.9720   23.5661 O   0  0  0  0  0  0  0  0  0  0  0  0
   10.6132  -14.4096   31.1777 O   0  0  0  0  0  0  0  0  0  0  0  0
   10.9206  -14.9050   29.9104 C   0  0  0  0  0  0  0  0  0  0  0  0
   11.0969  -16.2393   29.6541 C   0  0  0  0  0  0  0  0  0  0  0  0
   11.3972  -16.6358   28.3754 C   0  0  0  0  0  0  0  0  0  0  0  0
   11.5332  -15.7586   27.3245 C   0  0  0  0  0  0  0  0  0  0  0  0
   11.8602  -16.1321   25.9385 C   0  0  0  0  0  0  0  0  0  0  0  0
   10.6475  -16.6217   25.1923 C   0  0  2  0  0  0  0  0  0  0  0  0
   10.0452  -15.5223   24.4408 N   0  0  0  0  0  0  0  0  0  0  0  0
    9.6354  -17.2796   26.0373 C   0  0  0  0  0  0  0  0  0  0  0  0
    9.8731  -18.5483   26.5115 O   0  0  0  0  0  0  0  0  0  0  0  0
   11.3548  -14.4130   27.5872 C   0  0  0  0  0  0  0  0  0  0  0  0
   11.0531  -13.9959   28.8615 C   0  0  0  0  0  0  0  0  0  0  0  0
    8.5779  -16.6981   26.3214 O   0  0  0  0  0  0  0  0  0  0  0  0
  2  1  1  6
  2  3  1  0
  3  4  1  0
  4  5  1  0
  5  6  2  0
  7  2  1  0
  7  8  2  0
  9  5  1  0
 10 11  1  0
 11 12  1  0
 13 12  1  0
 14 13  1  1
 14 15  1  0
 15  7  1  0
 16 14  1  0
 17 16  2  0
 18 19  1  0
 19 20  2  0
 19 29  1  0
 20 21  1  0
 21 22  2  0
 22 23  1  0
 24 23  1  1
 24 25  1  0
 24 26  1  0
 25 16  1  0
 26 27  1  0
 28 22  1  0
 29 28  2  0
 30 26  2  0
M  END
$$$$
