EMY.pdb
     RDKit          3D

 30 30  0  0  1  0  0  0  0  0999 V2000
    7.8454  -18.0079   21.4735 N   0  0  0  0  0  0  0  0  0  0  0  0
    8.8945  -17.2967   20.8072 C   0  0  1  0  0  0  0  0  0  0  0  0
    8.5675  -16.7660   19.4400 C   0  0  0  0  0  0  0  0  0  0  0  0
    7.9256  -17.6839   18.4877 C   0  0  0  0  0  0  0  0  0  0  0  0
    7.5150  -17.1633   17.1957 C   0  0  0  0  0  0  0  0  0  0  0  0
    6.3522  -17.2843   16.7675 O   0  0  0  0  0  0  0  0  0  0  0  0
    9.3286  -16.1117   21.6192 C   0  0  0  0  0  0  0  0  0  0  0  0
   10.2032  -15.3717   21.1071 O   0  0  0  0  0  0  0  0  0  0  0  0
    8.4013  -16.4870   16.3391 O   0  0  0  0  0  0  0  0  0  0  0  0
    6.5795  -12.1447   26.6378 C   0  0  0  0  0  0  0  0  0  0  0  0
    6.9515  -12.0212   24.8608 S   0  0  0  0  0  0  0  0  0  0  0  0
    7.0221  -13.6751   24.1819 C   0  0  0  0  0  0  0  0  0  0  0  0
    8.2162  -14.3992   24.7108 C   0  0  0  0  0  0  0  0  0  0  0  0
    9.2745  -14.6854   23.6967 C   0  0  2  0  0  0  0  0  0  0  0  0
    8.8059  -15.8240   22.8801 N   0  0  0  0  0  0  0  0  0  0  0  0
   10.4878  -15.1703   24.4167 C   0  0  0  0  0  0  0  0  0  0  0  0
   11.1545  -14.3654   25.1116 O   0  0  0  0  0  0  0  0  0  0  0  0
    9.6708  -14.8527   30.5774 O   0  0  0  0  0  0  0  0  0  0  0  0
   10.1059  -15.6528   29.5206 C   0  0  0  0  0  0  0  0  0  0  0  0
    9.6129  -16.9091   29.2848 C   0  0  0  0  0  0  0  0  0  0  0  0
   10.1003  -17.6246   28.2203 C   0  0  0  0  0  0  0  0  0  0  0  0
   11.0676  -17.1459   27.3673 C   0  0  0  0  0  0  0  0  0  0  0  0
   11.6274  -17.8749   26.2174 C   0  0  0  0  0  0  0  0  0  0  0  0
   12.0625  -16.9381   25.1219 C   0  0  2  0  0  0  0  0  0  0  0  0
   10.9052  -16.5182   24.3340 N   0  0  0  0  0  0  0  0  0  0  0  0
   13.1141  -17.4759   24.2408 C   0  0  0  0  0  0  0  0  0  0  0  0
   12.8597  -17.6223   22.8974 O   0  0  0  0  0  0  0  0  0  0  0  0
   11.5628  -15.8778   27.6089 C   0  0  0  0  0  0  0  0  0  0  0  0
   11.0870  -15.1451   28.6699 C   0  0  0  0  0  0  0  0  0  0  0  0
   14.2200  -17.7943   24.7021 O   0  0  0  0  0  0  0  0  0  0  0  0
  2  1  1  1
  2  3  1  0
  3  4  1  0
  4  5  1  0
  5  6  2  0
  7  2  1  0
  7  8  2  0
  9  5  1  0
 10 11  1  0
 11 12  1  0
 13 12  1  0
 14 13  1  1
 14 15  1  0
 15  7  1  0
 16 14  1  0
 17 16  2  0
 18 19  1  0
 19 20  2  0
 19 29  1  0
 20 21  1  0
 21 22  2  0
 22 23  1  0
 24 23  1  1
 24 25  1  0
 24 26  1  0
 25 16  1  0
 26 27  1  0
 28 22  1  0
 29 28  2  0
 30 26  2  0
M  END
$$$$
