PFS.pdb
     RDKit          3D

 25 26  0  0  1  0  0  0  0  0999 V2000
   26.6603  -19.4695  -14.7650 N   0  0  0  0  0  0  0  0  0  0  0  0
   28.0122  -19.1418  -15.1780 C   0  0  0  0  0  0  0  0  0  0  0  0
   28.9409  -20.0685  -14.4646 C   0  0  0  0  0  0  0  0  0  0  0  0
   28.0288  -20.8191  -13.5158 C   0  0  0  0  0  0  0  0  0  0  0  0
   26.7440  -20.8296  -14.3367 C   0  0  1  0  0  0  0  0  0  0  0  0
   25.5925  -21.2989  -13.5724 C   0  0  0  0  0  0  0  0  0  0  0  0
   25.5975  -22.4866  -13.1602 O   0  0  0  0  0  0  0  0  0  0  0  0
   24.4624  -20.4987  -13.2627 N   0  0  0  0  0  0  0  0  0  0  0  0
   23.4127  -20.9930  -12.3995 C   0  0  1  0  0  0  0  0  0  0  0  0
   23.1471  -20.0727  -11.2388 C   0  0  0  0  0  0  0  0  0  0  0  0
   24.1744  -20.1686  -10.1771 C   0  0  0  0  0  0  0  0  0  0  0  0
   24.0327  -21.2032   -9.2606 C   0  0  0  0  0  0  0  0  0  0  0  0
   24.9489  -21.3661   -8.2353 C   0  0  0  0  0  0  0  0  0  0  0  0
   26.0171  -20.5040   -8.1071 C   0  0  0  0  0  0  0  0  0  0  0  0
   26.1441  -19.4762   -9.0305 C   0  0  0  0  0  0  0  0  0  0  0  0
   25.2314  -19.3266  -10.0390 C   0  0  0  0  0  0  0  0  0  0  0  0
   22.1660  -21.0318  -13.2198 C   0  0  0  0  0  0  0  0  0  0  0  0
   21.9511  -20.0698  -14.0020 O   0  0  0  0  0  0  0  0  0  0  0  0
   18.6917  -23.5057  -15.3592 O   0  0  0  0  0  0  0  0  0  0  0  0
   19.7025  -23.5242  -14.4207 C   0  0  0  0  0  0  0  0  0  0  0  0
   20.1350  -22.1028  -14.1208 C   0  0  2  0  0  0  0  0  0  0  0  0
   21.2294  -22.0945  -13.1527 N   0  0  0  0  0  0  0  0  0  0  0  0
   19.0346  -21.2970  -13.5631 C   0  0  0  0  0  0  0  0  0  0  0  0
   18.8470  -21.2008  -12.3254 O   0  0  0  0  0  0  0  0  0  0  0  0
   18.1690  -20.6160  -14.4330 O   0  0  0  0  0  0  0  0  0  0  0  0
  1  2  1  0
  3  2  1  0
  4  5  1  0
  4  3  1  0
  5  6  1  1
  5  1  1  0
  6  7  2  0
  8  6  1  0
  8  9  1  0
  9 17  1  0
 10 11  1  0
  9 10  1  1
 11 16  1  0
 12 11  2  0
 12 13  1  0
 13 14  2  0
 14 15  1  0
 16 15  2  0
 17 18  2  0
 19 20  1  0
 21 20  1  1
 21 23  1  0
 22 21  1  0
 22 17  1  0
 23 24  2  0
 23 25  1  0
M  END
$$$$
