PFS.pdb
     RDKit          3D

 25 26  0  0  1  0  0  0  0  0999 V2000
   27.6995  -20.4109  -17.1145 N   0  0  0  0  0  0  0  0  0  0  0  0
   28.6279  -20.5747  -18.2177 C   0  0  0  0  0  0  0  0  0  0  0  0
   29.3295  -21.8794  -18.0294 C   0  0  0  0  0  0  0  0  0  0  0  0
   28.8440  -22.3473  -16.6726 C   0  0  0  0  0  0  0  0  0  0  0  0
   27.4436  -21.7442  -16.6702 C   0  0  1  0  0  0  0  0  0  0  0  0
   26.7939  -21.8370  -15.3666 C   0  0  0  0  0  0  0  0  0  0  0  0
   26.3792  -22.9620  -14.9886 O   0  0  0  0  0  0  0  0  0  0  0  0
   26.5987  -20.7354  -14.4938 N   0  0  0  0  0  0  0  0  0  0  0  0
   26.0573  -20.9229  -13.1659 C   0  0  1  0  0  0  0  0  0  0  0  0
   26.7537  -20.0705  -12.1397 C   0  0  0  0  0  0  0  0  0  0  0  0
   26.1758  -20.2088  -10.7838 C   0  0  0  0  0  0  0  0  0  0  0  0
   25.1297  -19.3542  -10.4589 C   0  0  0  0  0  0  0  0  0  0  0  0
   24.5312  -19.4160   -9.2119 C   0  0  0  0  0  0  0  0  0  0  0  0
   24.9639  -20.3269   -8.2718 C   0  0  0  0  0  0  0  0  0  0  0  0
   26.0096  -21.1731   -8.6120 C   0  0  0  0  0  0  0  0  0  0  0  0
   26.5921  -21.1014   -9.8481 C   0  0  0  0  0  0  0  0  0  0  0  0
   24.6351  -20.4720  -13.2154 C   0  0  0  0  0  0  0  0  0  0  0  0
   24.3990  -19.3356  -13.7012 O   0  0  0  0  0  0  0  0  0  0  0  0
   21.8952  -21.8381  -15.0408 O   0  0  0  0  0  0  0  0  0  0  0  0
   21.3889  -21.7632  -13.7598 C   0  0  0  0  0  0  0  0  0  0  0  0
   22.1997  -20.7652  -12.9573 C   0  0  2  0  0  0  0  0  0  0  0  0
   23.5567  -21.2628  -12.7432 N   0  0  0  0  0  0  0  0  0  0  0  0
   21.6022  -20.5040  -11.6359 C   0  0  0  0  0  0  0  0  0  0  0  0
   22.1688  -20.8577  -10.5727 O   0  0  0  0  0  0  0  0  0  0  0  0
   20.3670  -19.8427  -11.5560 O   0  0  0  0  0  0  0  0  0  0  0  0
  1  2  1  0
  3  2  1  0
  4  5  1  0
  4  3  1  0
  5  6  1  1
  5  1  1  0
  6  7  2  0
  8  6  1  0
  8  9  1  0
  9 17  1  0
 10 11  1  0
  9 10  1  1
 11 16  1  0
 12 11  2  0
 12 13  1  0
 13 14  2  0
 14 15  1  0
 16 15  2  0
 17 18  2  0
 19 20  1  0
 21 20  1  1
 21 23  1  0
 22 21  1  0
 22 17  1  0
 23 24  2  0
 23 25  1  0
M  END
$$$$
