PFS.pdb
     RDKit          3D

 25 26  0  0  1  0  0  0  0  0999 V2000
   27.7876  -20.5251  -16.9782 N   0  0  0  0  0  0  0  0  0  0  0  0
   28.8573  -20.6483  -17.9510 C   0  0  0  0  0  0  0  0  0  0  0  0
   29.6336  -21.8795  -17.6172 C   0  0  0  0  0  0  0  0  0  0  0  0
   29.0213  -22.3376  -16.3091 C   0  0  0  0  0  0  0  0  0  0  0  0
   27.5874  -21.8583  -16.5060 C   0  0  1  0  0  0  0  0  0  0  0  0
   26.7889  -21.9591  -15.2884 C   0  0  0  0  0  0  0  0  0  0  0  0
   26.4783  -23.1051  -14.8751 O   0  0  0  0  0  0  0  0  0  0  0  0
   26.3381  -20.8431  -14.5369 N   0  0  0  0  0  0  0  0  0  0  0  0
   25.6250  -21.0216  -13.2915 C   0  0  1  0  0  0  0  0  0  0  0  0
   26.1965  -20.1821  -12.1809 C   0  0  0  0  0  0  0  0  0  0  0  0
   25.4940  -20.3720  -10.8916 C   0  0  0  0  0  0  0  0  0  0  0  0
   24.2902  -19.6976  -10.7294 C   0  0  0  0  0  0  0  0  0  0  0  0
   23.5677  -19.8191   -9.5545 C   0  0  0  0  0  0  0  0  0  0  0  0
   24.0314  -20.6116   -8.5260 C   0  0  0  0  0  0  0  0  0  0  0  0
   25.2351  -21.2782   -8.7040 C   0  0  0  0  0  0  0  0  0  0  0  0
   25.9391  -21.1493   -9.8703 C   0  0  0  0  0  0  0  0  0  0  0  0
   24.2295  -20.5454  -13.5247 C   0  0  0  0  0  0  0  0  0  0  0  0
   24.0774  -19.3814  -13.9776 O   0  0  0  0  0  0  0  0  0  0  0  0
   21.0187  -23.0143  -14.0820 O   0  0  0  0  0  0  0  0  0  0  0  0
   21.1106  -21.7563  -14.6406 C   0  0  0  0  0  0  0  0  0  0  0  0
   21.7817  -20.8183  -13.6571 C   0  0  2  0  0  0  0  0  0  0  0  0
   23.0866  -21.3421  -13.2597 N   0  0  0  0  0  0  0  0  0  0  0  0
   20.9795  -20.6337  -12.4349 C   0  0  0  0  0  0  0  0  0  0  0  0
   21.3844  -21.0255  -11.3129 O   0  0  0  0  0  0  0  0  0  0  0  0
   19.7282  -20.0039  -12.5200 O   0  0  0  0  0  0  0  0  0  0  0  0
  1  2  1  0
  3  2  1  0
  4  5  1  0
  4  3  1  0
  5  6  1  1
  5  1  1  0
  6  7  2  0
  8  6  1  0
  8  9  1  0
  9 17  1  0
 10 11  1  0
  9 10  1  1
 11 16  1  0
 12 11  2  0
 12 13  1  0
 13 14  2  0
 14 15  1  0
 16 15  2  0
 17 18  2  0
 19 20  1  0
 21 20  1  6
 21 23  1  0
 22 21  1  0
 22 17  1  0
 23 24  2  0
 23 25  1  0
M  END
$$$$
