PFS.pdb
     RDKit          3D

 25 26  0  0  1  0  0  0  0  0999 V2000
   21.0285  -10.0156  -18.7393 N   0  0  0  0  0  0  0  0  0  0  0  0
   21.2010  -11.3738  -19.2201 C   0  0  0  0  0  0  0  0  0  0  0  0
   20.7894  -12.2987  -18.1223 C   0  0  0  0  0  0  0  0  0  0  0  0
   20.5308  -11.3670  -16.9558 C   0  0  0  0  0  0  0  0  0  0  0  0
   20.0484  -10.1307  -17.7066 C   0  0  1  0  0  0  0  0  0  0  0  0
   19.9328   -8.9589  -16.8441 C   0  0  0  0  0  0  0  0  0  0  0  0
   19.0555   -8.9686  -15.9437 O   0  0  0  0  0  0  0  0  0  0  0  0
   20.7496   -7.8040  -16.9558 N   0  0  0  0  0  0  0  0  0  0  0  0
   20.6919   -6.7513  -15.9660 C   0  0  1  0  0  0  0  0  0  0  0  0
   21.9755   -6.6256  -15.1906 C   0  0  0  0  0  0  0  0  0  0  0  0
   22.2486   -7.7984  -14.3293 C   0  0  0  0  0  0  0  0  0  0  0  0
   21.5902   -7.8441  -13.1067 C   0  0  0  0  0  0  0  0  0  0  0  0
   21.7880   -8.9054  -12.2397 C   0  0  0  0  0  0  0  0  0  0  0  0
   22.6419   -9.9344  -12.5756 C   0  0  0  0  0  0  0  0  0  0  0  0
   23.2915   -9.8735  -13.8000 C   0  0  0  0  0  0  0  0  0  0  0  0
   23.0870   -8.8188  -14.6475 C   0  0  0  0  0  0  0  0  0  0  0  0
   20.5055   -5.4716  -16.7119 C   0  0  0  0  0  0  0  0  0  0  0  0
   21.0606   -5.3644  -17.8360 O   0  0  0  0  0  0  0  0  0  0  0  0
   17.9388   -2.4303  -15.5472 O   0  0  0  0  0  0  0  0  0  0  0  0
   18.1832   -2.6284  -16.8903 C   0  0  0  0  0  0  0  0  0  0  0  0
   19.5685   -3.2178  -17.0667 C   0  0  2  0  0  0  0  0  0  0  0  0
   19.7390   -4.3891  -16.2101 N   0  0  0  0  0  0  0  0  0  0  0  0
   20.6271   -2.2517  -16.7243 C   0  0  0  0  0  0  0  0  0  0  0  0
   21.4198   -2.4499  -15.7710 O   0  0  0  0  0  0  0  0  0  0  0  0
   20.7587   -1.0763  -17.4797 O   0  0  0  0  0  0  0  0  0  0  0  0
  1  2  1  0
  3  2  1  0
  4  5  1  0
  4  3  1  0
  5  6  1  1
  5  1  1  0
  6  7  2  0
  8  6  1  0
  8  9  1  0
  9 17  1  0
 10 11  1  0
  9 10  1  6
 11 16  1  0
 12 11  2  0
 12 13  1  0
 13 14  2  0
 14 15  1  0
 16 15  2  0
 17 18  2  0
 19 20  1  0
 21 20  1  1
 21 23  1  0
 22 21  1  0
 22 17  1  0
 23 24  2  0
 23 25  1  0
M  END
$$$$
