PFS.pdb
     RDKit          3D

 25 26  0  0  1  0  0  0  0  0999 V2000
   25.1882  -10.7805  -20.3267 N   0  0  0  0  0  0  0  0  0  0  0  0
   25.8009  -11.6318  -21.3295 C   0  0  0  0  0  0  0  0  0  0  0  0
   25.0297  -12.9099  -21.3710 C   0  0  0  0  0  0  0  0  0  0  0  0
   24.0545  -12.7700  -20.2199 C   0  0  0  0  0  0  0  0  0  0  0  0
   23.8459  -11.2597  -20.2320 C   0  0  1  0  0  0  0  0  0  0  0  0
   23.1111  -10.7844  -19.0639 C   0  0  0  0  0  0  0  0  0  0  0  0
   21.9140  -11.1439  -18.9288 O   0  0  0  0  0  0  0  0  0  0  0  0
   23.6620   -9.9392  -18.0661 N   0  0  0  0  0  0  0  0  0  0  0  0
   22.8671   -9.4964  -16.9420 C   0  0  1  0  0  0  0  0  0  0  0  0
   23.2575  -10.1828  -15.6610 C   0  0  0  0  0  0  0  0  0  0  0  0
   24.6350  -10.7245  -15.6910 C   0  0  0  0  0  0  0  0  0  0  0  0
   24.7629  -12.1051  -15.7800 C   0  0  0  0  0  0  0  0  0  0  0  0
   26.0148  -12.6956  -15.8137 C   0  0  0  0  0  0  0  0  0  0  0  0
   27.1553  -11.9228  -15.7594 C   0  0  0  0  0  0  0  0  0  0  0  0
   27.0102  -10.5458  -15.6706 C   0  0  0  0  0  0  0  0  0  0  0  0
   25.7668   -9.9752  -15.6382 C   0  0  0  0  0  0  0  0  0  0  0  0
   23.1521   -8.0420  -16.7623 C   0  0  0  0  0  0  0  0  0  0  0  0
   24.3025   -7.6305  -17.0631 O   0  0  0  0  0  0  0  0  0  0  0  0
   21.3010   -5.1669  -18.1719 O   0  0  0  0  0  0  0  0  0  0  0  0
   21.4452   -4.8601  -16.8347 C   0  0  0  0  0  0  0  0  0  0  0  0
   22.5548   -5.7060  -16.2426 C   0  0  2  0  0  0  0  0  0  0  0  0
   22.1912   -7.1209  -16.2731 N   0  0  0  0  0  0  0  0  0  0  0  0
   22.8378   -5.3440  -14.8425 C   0  0  0  0  0  0  0  0  0  0  0  0
   22.6127   -6.1376  -13.8960 O   0  0  0  0  0  0  0  0  0  0  0  0
   23.3733   -4.0797  -14.5519 O   0  0  0  0  0  0  0  0  0  0  0  0
  1  2  1  0
  3  2  1  0
  4  5  1  0
  4  3  1  0
  5  6  1  1
  5  1  1  0
  6  7  2  0
  8  6  1  0
  8  9  1  0
  9 17  1  0
 10 11  1  0
  9 10  1  1
 11 16  1  0
 12 11  2  0
 12 13  1  0
 13 14  2  0
 14 15  1  0
 16 15  2  0
 17 18  2  0
 19 20  1  0
 21 20  1  1
 21 23  1  0
 22 21  1  0
 22 17  1  0
 23 24  2  0
 23 25  1  0
M  END
$$$$
