PFS.pdb
     RDKit          3D

 25 26  0  0  1  0  0  0  0  0999 V2000
   29.1916  -21.3288  -17.8619 N   0  0  0  0  0  0  0  0  0  0  0  0
   29.5814  -22.5045  -18.6180 C   0  0  0  0  0  0  0  0  0  0  0  0
   29.1703  -23.7056  -17.8316 C   0  0  0  0  0  0  0  0  0  0  0  0
   28.6739  -23.1183  -16.5260 C   0  0  0  0  0  0  0  0  0  0  0  0
   28.1271  -21.7858  -17.0264 C   0  0  1  0  0  0  0  0  0  0  0  0
   27.7750  -20.8787  -15.9385 C   0  0  0  0  0  0  0  0  0  0  0  0
   28.6979  -20.2287  -15.3851 O   0  0  0  0  0  0  0  0  0  0  0  0
   26.4530  -20.6815  -15.4623 N   0  0  0  0  0  0  0  0  0  0  0  0
   26.1692  -19.7074  -14.4317 C   0  0  1  0  0  0  0  0  0  0  0  0
   25.2701  -18.6042  -14.9207 C   0  0  0  0  0  0  0  0  0  0  0  0
   26.0018  -17.5373  -15.6404 C   0  0  0  0  0  0  0  0  0  0  0  0
   26.5634  -16.5306  -14.8648 C   0  0  0  0  0  0  0  0  0  0  0  0
   27.2648  -15.4939  -15.4567 C   0  0  0  0  0  0  0  0  0  0  0  0
   27.4176  -15.4437  -16.8260 C   0  0  0  0  0  0  0  0  0  0  0  0
   26.8508  -16.4567  -17.5861 C   0  0  0  0  0  0  0  0  0  0  0  0
   26.1600  -17.4754  -16.9882 C   0  0  0  0  0  0  0  0  0  0  0  0
   25.4295  -20.4276  -13.3534 C   0  0  0  0  0  0  0  0  0  0  0  0
   24.6202  -21.3266  -13.7001 O   0  0  0  0  0  0  0  0  0  0  0  0
   24.3860  -21.2316   -8.7135 O   0  0  0  0  0  0  0  0  0  0  0  0
   25.1851  -20.5359   -9.5969 C   0  0  0  0  0  0  0  0  0  0  0  0
   24.7851  -20.8844  -11.0168 C   0  0  2  0  0  0  0  0  0  0  0  0
   25.6010  -20.1420  -11.9749 N   0  0  0  0  0  0  0  0  0  0  0  0
   23.3720  -20.5652  -11.2863 C   0  0  0  0  0  0  0  0  0  0  0  0
   23.0196  -19.4419  -11.7225 O   0  0  0  0  0  0  0  0  0  0  0  0
   22.3883  -21.5383  -11.0514 O   0  0  0  0  0  0  0  0  0  0  0  0
  1  2  1  0
  3  2  1  0
  4  5  1  0
  4  3  1  0
  5  6  1  1
  5  1  1  0
  6  7  2  0
  8  6  1  0
  8  9  1  0
  9 17  1  0
 10 11  1  0
  9 10  1  6
 11 16  1  0
 12 11  2  0
 12 13  1  0
 13 14  2  0
 14 15  1  0
 16 15  2  0
 17 18  2  0
 19 20  1  0
 21 20  1  1
 21 23  1  0
 22 21  1  0
 22 17  1  0
 23 24  2  0
 23 25  1  0
M  END
$$$$
