PFS.pdb
     RDKit          3D

 25 26  0  0  1  0  0  0  0  0999 V2000
   27.9260  -20.9592  -17.0866 N   0  0  0  0  0  0  0  0  0  0  0  0
   29.0323  -21.1879  -17.9974 C   0  0  0  0  0  0  0  0  0  0  0  0
   29.7155  -22.4463  -17.5733 C   0  0  0  0  0  0  0  0  0  0  0  0
   29.0138  -22.8090  -16.2803 C   0  0  0  0  0  0  0  0  0  0  0  0
   27.6227  -22.2560  -16.5701 C   0  0  1  0  0  0  0  0  0  0  0  0
   26.7614  -22.2555  -15.3919 C   0  0  0  0  0  0  0  0  0  0  0  0
   26.2404  -23.3432  -15.0367 O   0  0  0  0  0  0  0  0  0  0  0  0
   26.4722  -21.1024  -14.6172 N   0  0  0  0  0  0  0  0  0  0  0  0
   25.7356  -21.2029  -13.3767 C   0  0  1  0  0  0  0  0  0  0  0  0
   26.3499  -20.3765  -12.2793 C   0  0  0  0  0  0  0  0  0  0  0  0
   25.5963  -20.4515  -11.0072 C   0  0  0  0  0  0  0  0  0  0  0  0
   26.2042  -21.1307   -9.9586 C   0  0  0  0  0  0  0  0  0  0  0  0
   25.5693  -21.2485   -8.7338 C   0  0  0  0  0  0  0  0  0  0  0  0
   24.3230  -20.6934   -8.5347 C   0  0  0  0  0  0  0  0  0  0  0  0
   23.7299  -20.0185   -9.5919 C   0  0  0  0  0  0  0  0  0  0  0  0
   24.3685  -19.9095  -10.7973 C   0  0  0  0  0  0  0  0  0  0  0  0
   24.3774  -20.6411  -13.6381 C   0  0  0  0  0  0  0  0  0  0  0  0
   24.3060  -19.4586  -14.0622 O   0  0  0  0  0  0  0  0  0  0  0  0
   21.0845  -22.8058  -14.4960 O   0  0  0  0  0  0  0  0  0  0  0  0
   21.1902  -21.4753  -14.8446 C   0  0  0  0  0  0  0  0  0  0  0  0
   21.9147  -20.7244  -13.7451 C   0  0  2  0  0  0  0  0  0  0  0  0
   23.1833  -21.3773  -13.4300 N   0  0  0  0  0  0  0  0  0  0  0  0
   21.1213  -20.6602  -12.5051 C   0  0  0  0  0  0  0  0  0  0  0  0
   21.4669  -21.2753  -11.4665 O   0  0  0  0  0  0  0  0  0  0  0  0
   19.9465  -19.8929  -12.4769 O   0  0  0  0  0  0  0  0  0  0  0  0
  1  2  1  0
  3  2  1  0
  4  5  1  0
  4  3  1  0
  5  6  1  1
  5  1  1  0
  6  7  2  0
  8  6  1  0
  8  9  1  0
  9 17  1  0
 10 11  1  0
  9 10  1  1
 11 16  1  0
 12 11  2  0
 12 13  1  0
 13 14  2  0
 14 15  1  0
 16 15  2  0
 17 18  2  0
 19 20  1  0
 21 20  1  6
 21 23  1  0
 22 21  1  0
 22 17  1  0
 23 24  2  0
 23 25  1  0
M  END
$$$$
