PFS.pdb
     RDKit          3D

 25 26  0  0  1  0  0  0  0  0999 V2000
   22.7340  -10.5975  -19.7569 N   0  0  0  0  0  0  0  0  0  0  0  0
   22.8043  -11.4667  -20.9168 C   0  0  0  0  0  0  0  0  0  0  0  0
   22.0095  -12.6937  -20.6121 C   0  0  0  0  0  0  0  0  0  0  0  0
   21.6302  -12.5146  -19.1561 C   0  0  0  0  0  0  0  0  0  0  0  0
   21.5331  -10.9942  -19.0932 C   0  0  1  0  0  0  0  0  0  0  0  0
   21.3991  -10.4957  -17.7280 C   0  0  0  0  0  0  0  0  0  0  0  0
   20.3729  -10.8167  -17.0766 O   0  0  0  0  0  0  0  0  0  0  0  0
   22.3559   -9.6685  -17.0847 N   0  0  0  0  0  0  0  0  0  0  0  0
   22.2038   -9.2930  -15.6964 C   0  0  1  0  0  0  0  0  0  0  0  0
   23.3505   -9.7705  -14.8468 C   0  0  0  0  0  0  0  0  0  0  0  0
   23.4156  -11.2455  -14.7384 C   0  0  0  0  0  0  0  0  0  0  0  0
   24.4287  -11.8811  -15.4455 C   0  0  0  0  0  0  0  0  0  0  0  0
   24.5622  -13.2585  -15.3998 C   0  0  0  0  0  0  0  0  0  0  0  0
   23.6916  -14.0221  -14.6515 C   0  0  0  0  0  0  0  0  0  0  0  0
   22.6855  -13.3719  -13.9514 C   0  0  0  0  0  0  0  0  0  0  0  0
   22.5650  -12.0099  -14.0053 C   0  0  0  0  0  0  0  0  0  0  0  0
   22.2194   -7.8009  -15.6519 C   0  0  0  0  0  0  0  0  0  0  0  0
   22.9079   -7.1978  -16.5154 O   0  0  0  0  0  0  0  0  0  0  0  0
   20.1008   -3.6878  -14.8660 O   0  0  0  0  0  0  0  0  0  0  0  0
   20.0770   -5.0671  -14.8704 C   0  0  0  0  0  0  0  0  0  0  0  0
   21.4975   -5.5937  -14.8209 C   0  0  2  0  0  0  0  0  0  0  0  0
   21.4993   -7.0488  -14.6891 N   0  0  0  0  0  0  0  0  0  0  0  0
   22.2531   -5.0377  -13.6845 C   0  0  0  0  0  0  0  0  0  0  0  0
   22.3934   -5.6722  -12.6102 O   0  0  0  0  0  0  0  0  0  0  0  0
   22.8341   -3.7654  -13.7991 O   0  0  0  0  0  0  0  0  0  0  0  0
  1  2  1  0
  3  2  1  0
  4  5  1  0
  4  3  1  0
  5  6  1  1
  5  1  1  0
  6  7  2  0
  8  6  1  0
  8  9  1  0
  9 17  1  0
 10 11  1  0
  9 10  1  1
 11 16  1  0
 12 11  2  0
 12 13  1  0
 13 14  2  0
 14 15  1  0
 16 15  2  0
 17 18  2  0
 19 20  1  0
 21 20  1  1
 21 23  1  0
 22 21  1  0
 22 17  1  0
 23 24  2  0
 23 25  1  0
M  END
$$$$
