PFS.pdb
     RDKit          3D

 25 26  0  0  1  0  0  0  0  0999 V2000
   30.9718  -21.1257  -10.2184 N   0  0  0  0  0  0  0  0  0  0  0  0
   32.3836  -21.4512  -10.2994 C   0  0  0  0  0  0  0  0  0  0  0  0
   32.7031  -22.3675   -9.1643 C   0  0  0  0  0  0  0  0  0  0  0  0
   31.4165  -22.3986   -8.3645 C   0  0  0  0  0  0  0  0  0  0  0  0
   30.4023  -22.2130   -9.4877 C   0  0  1  0  0  0  0  0  0  0  0  0
   29.0514  -21.9710   -8.9908 C   0  0  0  0  0  0  0  0  0  0  0  0
   28.4458  -22.9198   -8.4308 O   0  0  0  0  0  0  0  0  0  0  0  0
   28.3737  -20.7291   -9.0990 N   0  0  0  0  0  0  0  0  0  0  0  0
   27.0184  -20.5748   -8.6183 C   0  0  1  0  0  0  0  0  0  0  0  0
   26.8781  -19.4169   -7.6675 C   0  0  0  0  0  0  0  0  0  0  0  0
   27.5824  -19.6336   -6.3834 C   0  0  0  0  0  0  0  0  0  0  0  0
   28.6893  -18.8320   -6.1335 C   0  0  0  0  0  0  0  0  0  0  0  0
   29.4062  -18.9684   -4.9568 C   0  0  0  0  0  0  0  0  0  0  0  0
   29.0331  -19.9022   -4.0136 C   0  0  0  0  0  0  0  0  0  0  0  0
   27.9255  -20.6947   -4.2786 C   0  0  0  0  0  0  0  0  0  0  0  0
   27.2259  -20.5495   -5.4456 C   0  0  0  0  0  0  0  0  0  0  0  0
   26.1737  -20.2660   -9.8098 C   0  0  0  0  0  0  0  0  0  0  0  0
   26.2589  -19.1116  -10.3030 O   0  0  0  0  0  0  0  0  0  0  0  0
   26.1128  -21.8676  -13.1653 O   0  0  0  0  0  0  0  0  0  0  0  0
   24.8183  -21.9159  -12.6911 C   0  0  0  0  0  0  0  0  0  0  0  0
   24.6267  -20.8367  -11.6441 C   0  0  2  0  0  0  0  0  0  0  0  0
   25.2927  -21.2089  -10.3980 N   0  0  0  0  0  0  0  0  0  0  0  0
   23.2028  -20.6069  -11.3424 C   0  0  0  0  0  0  0  0  0  0  0  0
   22.7421  -20.7455  -10.1827 O   0  0  0  0  0  0  0  0  0  0  0  0
   22.3325  -20.2226  -12.3741 O   0  0  0  0  0  0  0  0  0  0  0  0
  1  2  1  0
  3  2  1  0
  4  5  1  0
  4  3  1  0
  5  6  1  1
  5  1  1  0
  6  7  2  0
  8  6  1  0
  8  9  1  0
  9 17  1  0
 10 11  1  0
  9 10  1  1
 11 16  1  0
 12 11  2  0
 12 13  1  0
 13 14  2  0
 14 15  1  0
 16 15  2  0
 17 18  2  0
 19 20  1  0
 21 20  1  6
 21 23  1  0
 22 21  1  0
 22 17  1  0
 23 24  2  0
 23 25  1  0
M  END
$$$$
