PFS.pdb
     RDKit          3D

 25 26  0  0  1  0  0  0  0  0999 V2000
   27.8768  -19.6205  -13.5081 N   0  0  0  0  0  0  0  0  0  0  0  0
   28.3237  -19.7100  -14.8857 C   0  0  0  0  0  0  0  0  0  0  0  0
   28.9421  -21.0560  -15.0748 C   0  0  0  0  0  0  0  0  0  0  0  0
   28.9495  -21.6393  -13.6764 C   0  0  0  0  0  0  0  0  0  0  0  0
   27.6976  -20.9800  -13.1082 C   0  0  1  0  0  0  0  0  0  0  0  0
   27.5624  -21.1781  -11.6685 C   0  0  0  0  0  0  0  0  0  0  0  0
   27.1111  -22.2781  -11.2602 O   0  0  0  0  0  0  0  0  0  0  0  0
   27.9085  -20.2056  -10.6948 N   0  0  0  0  0  0  0  0  0  0  0  0
   27.6538  -20.4339   -9.2896 C   0  0  1  0  0  0  0  0  0  0  0  0
   28.5767  -19.6393   -8.4056 C   0  0  0  0  0  0  0  0  0  0  0  0
   28.2967  -19.8222   -6.9634 C   0  0  0  0  0  0  0  0  0  0  0  0
   28.9892  -20.8373   -6.3151 C   0  0  0  0  0  0  0  0  0  0  0  0
   28.7877  -21.0772   -4.9664 C   0  0  0  0  0  0  0  0  0  0  0  0
   27.8962  -20.3123   -4.2445 C   0  0  0  0  0  0  0  0  0  0  0  0
   27.2128  -19.3026   -4.9069 C   0  0  0  0  0  0  0  0  0  0  0  0
   27.4215  -19.0763   -6.2402 C   0  0  0  0  0  0  0  0  0  0  0  0
   26.2676  -19.9491   -9.0211 C   0  0  0  0  0  0  0  0  0  0  0  0
   26.0471  -18.7158   -9.1376 O   0  0  0  0  0  0  0  0  0  0  0  0
   23.3744  -21.5198  -10.5922 O   0  0  0  0  0  0  0  0  0  0  0  0
   23.2840  -20.2539  -10.0517 C   0  0  0  0  0  0  0  0  0  0  0  0
   23.8506  -20.2668   -8.6459 C   0  0  2  0  0  0  0  0  0  0  0  0
   25.2063  -20.8117   -8.6457 N   0  0  0  0  0  0  0  0  0  0  0  0
   23.0364  -21.0851   -7.7300 C   0  0  0  0  0  0  0  0  0  0  0  0
   23.5337  -22.0281   -7.0669 O   0  0  0  0  0  0  0  0  0  0  0  0
   21.6676  -20.8085   -7.5903 O   0  0  0  0  0  0  0  0  0  0  0  0
  1  2  1  0
  3  2  1  0
  4  5  1  0
  4  3  1  0
  5  6  1  1
  5  1  1  0
  6  7  2  0
  8  6  1  0
  8  9  1  0
  9 17  1  0
 10 11  1  0
  9 10  1  1
 11 16  1  0
 12 11  2  0
 12 13  1  0
 13 14  2  0
 14 15  1  0
 16 15  2  0
 17 18  2  0
 19 20  1  0
 21 20  1  6
 21 23  1  0
 22 21  1  0
 22 17  1  0
 23 24  2  0
 23 25  1  0
M  END
$$$$
