PFS.pdb
     RDKit          3D

 25 26  0  0  1  0  0  0  0  0999 V2000
   28.2973  -20.8106  -17.2723 N   0  0  0  0  0  0  0  0  0  0  0  0
   29.1826  -21.0606  -18.3946 C   0  0  0  0  0  0  0  0  0  0  0  0
   29.7275  -22.4426  -18.2426 C   0  0  0  0  0  0  0  0  0  0  0  0
   29.2110  -22.8773  -16.8861 C   0  0  0  0  0  0  0  0  0  0  0  0
   27.8922  -22.1130  -16.8479 C   0  0  1  0  0  0  0  0  0  0  0  0
   27.2562  -22.1548  -15.5349 C   0  0  0  0  0  0  0  0  0  0  0  0
   26.7273  -23.2337  -15.1653 O   0  0  0  0  0  0  0  0  0  0  0  0
   27.1956  -21.0521  -14.6439 N   0  0  0  0  0  0  0  0  0  0  0  0
   26.6735  -21.2040  -13.3038 C   0  0  1  0  0  0  0  0  0  0  0  0
   27.4471  -20.3988  -12.2949 C   0  0  0  0  0  0  0  0  0  0  0  0
   26.9150  -20.5292  -10.9195 C   0  0  0  0  0  0  0  0  0  0  0  0
   25.8298  -19.7270  -10.5894 C   0  0  0  0  0  0  0  0  0  0  0  0
   25.2698  -19.7854   -9.3245 C   0  0  0  0  0  0  0  0  0  0  0  0
   25.7803  -20.6410   -8.3714 C   0  0  0  0  0  0  0  0  0  0  0  0
   26.8642  -21.4353   -8.7172 C   0  0  0  0  0  0  0  0  0  0  0  0
   27.4079  -21.3675   -9.9710 C   0  0  0  0  0  0  0  0  0  0  0  0
   25.2829  -20.6614  -13.3217 C   0  0  0  0  0  0  0  0  0  0  0  0
   25.1231  -19.4765  -13.7136 O   0  0  0  0  0  0  0  0  0  0  0  0
   22.0070  -23.0316  -13.7531 O   0  0  0  0  0  0  0  0  0  0  0  0
   22.1232  -21.7482  -14.2452 C   0  0  0  0  0  0  0  0  0  0  0  0
   22.8282  -20.8802  -13.2218 C   0  0  2  0  0  0  0  0  0  0  0  0
   24.1527  -21.4182  -12.9203 N   0  0  0  0  0  0  0  0  0  0  0  0
   22.0770  -20.7977  -11.9568 C   0  0  0  0  0  0  0  0  0  0  0  0
   20.9345  -20.2805  -11.8989 O   0  0  0  0  0  0  0  0  0  0  0  0
   22.6480  -21.3090  -10.7811 O   0  0  0  0  0  0  0  0  0  0  0  0
  1  2  1  0
  3  2  1  0
  4  5  1  0
  4  3  1  0
  5  6  1  1
  5  1  1  0
  6  7  2  0
  8  6  1  0
  8  9  1  0
  9 17  1  0
 10 11  1  0
  9 10  1  1
 11 16  1  0
 12 11  2  0
 12 13  1  0
 13 14  2  0
 14 15  1  0
 16 15  2  0
 17 18  2  0
 19 20  1  0
 21 20  1  6
 21 23  1  0
 22 21  1  0
 22 17  1  0
 23 24  2  0
 23 25  1  0
M  END
$$$$
