PFS.pdb
     RDKit          3D

 25 26  0  0  1  0  0  0  0  0999 V2000
   27.5980  -18.7461  -14.0066 N   0  0  0  0  0  0  0  0  0  0  0  0
   28.8175  -18.3241  -14.6704 C   0  0  0  0  0  0  0  0  0  0  0  0
   29.7982  -19.4460  -14.5722 C   0  0  0  0  0  0  0  0  0  0  0  0
   29.0978  -20.4482  -13.6773 C   0  0  0  0  0  0  0  0  0  0  0  0
   27.6469  -20.1729  -14.0566 C   0  0  1  0  0  0  0  0  0  0  0  0
   26.6982  -20.8455  -13.1747 C   0  0  0  0  0  0  0  0  0  0  0  0
   26.6388  -22.1007  -13.2131 O   0  0  0  0  0  0  0  0  0  0  0  0
   25.8342  -20.1723  -12.2726 N   0  0  0  0  0  0  0  0  0  0  0  0
   24.9055  -20.9060  -11.4415 C   0  0  1  0  0  0  0  0  0  0  0  0
   24.7928  -20.3228  -10.0589 C   0  0  0  0  0  0  0  0  0  0  0  0
   26.0604  -20.3906   -9.2970 C   0  0  0  0  0  0  0  0  0  0  0  0
   27.0011  -21.3177   -9.7281 C   0  0  0  0  0  0  0  0  0  0  0  0
   28.2139  -21.4472   -9.0727 C   0  0  0  0  0  0  0  0  0  0  0  0
   28.5078  -20.6580   -7.9811 C   0  0  0  0  0  0  0  0  0  0  0  0
   27.5577  -19.7372   -7.5634 C   0  0  0  0  0  0  0  0  0  0  0  0
   26.3630  -19.6195   -8.2203 C   0  0  0  0  0  0  0  0  0  0  0  0
   23.5629  -20.7754  -12.0810 C   0  0  0  0  0  0  0  0  0  0  0  0
   23.2788  -19.6765  -12.6241 O   0  0  0  0  0  0  0  0  0  0  0  0
   21.7626  -23.3567  -14.3700 O   0  0  0  0  0  0  0  0  0  0  0  0
   20.8626  -22.9071  -13.4262 C   0  0  0  0  0  0  0  0  0  0  0  0
   21.3656  -21.6062  -12.8328 C   0  0  2  0  0  0  0  0  0  0  0  0
   22.6103  -21.8258  -12.0997 N   0  0  0  0  0  0  0  0  0  0  0  0
   20.3922  -21.0124  -11.8994 C   0  0  0  0  0  0  0  0  0  0  0  0
   20.6661  -20.8265  -10.6883 O   0  0  0  0  0  0  0  0  0  0  0  0
   19.1228  -20.6425  -12.3699 O   0  0  0  0  0  0  0  0  0  0  0  0
  1  2  1  0
  3  2  1  0
  4  5  1  0
  4  3  1  0
  5  6  1  1
  5  1  1  0
  6  7  2  0
  8  6  1  0
  8  9  1  0
  9 17  1  0
 10 11  1  0
  9 10  1  1
 11 16  1  0
 12 11  2  0
 12 13  1  0
 13 14  2  0
 14 15  1  0
 16 15  2  0
 17 18  2  0
 19 20  1  0
 21 20  1  1
 21 23  1  0
 22 21  1  0
 22 17  1  0
 23 24  2  0
 23 25  1  0
M  END
$$$$
