PFS.pdb
     RDKit          3D

 25 26  0  0  1  0  0  0  0  0999 V2000
   27.5205  -21.3996  -17.3992 N   0  0  0  0  0  0  0  0  0  0  0  0
   28.7292  -21.8704  -16.7487 C   0  0  0  0  0  0  0  0  0  0  0  0
   28.6668  -21.4491  -15.3174 C   0  0  0  0  0  0  0  0  0  0  0  0
   27.4253  -20.5825  -15.2595 C   0  0  0  0  0  0  0  0  0  0  0  0
   26.5802  -21.2590  -16.3332 C   0  0  1  0  0  0  0  0  0  0  0  0
   25.3850  -20.4933  -16.6730 C   0  0  0  0  0  0  0  0  0  0  0  0
   25.5096  -19.5106  -17.4472 O   0  0  0  0  0  0  0  0  0  0  0  0
   24.0855  -20.7867  -16.1845 N   0  0  0  0  0  0  0  0  0  0  0  0
   22.9519  -19.9615  -16.5385 C   0  0  1  0  0  0  0  0  0  0  0  0
   22.0234  -20.6496  -17.5023 C   0  0  0  0  0  0  0  0  0  0  0  0
   22.5250  -20.6412  -18.8952 C   0  0  0  0  0  0  0  0  0  0  0  0
   23.2031  -21.7757  -19.3233 C   0  0  0  0  0  0  0  0  0  0  0  0
   23.7056  -21.8518  -20.6112 C   0  0  0  0  0  0  0  0  0  0  0  0
   23.5410  -20.8025  -21.4903 C   0  0  0  0  0  0  0  0  0  0  0  0
   22.8615  -19.6769  -21.0472 C   0  0  0  0  0  0  0  0  0  0  0  0
   22.3700  -19.6149  -19.7716 C   0  0  0  0  0  0  0  0  0  0  0  0
   22.1817  -19.7293  -15.2809 C   0  0  0  0  0  0  0  0  0  0  0  0
   22.1988  -20.6366  -14.4093 O   0  0  0  0  0  0  0  0  0  0  0  0
   19.8353  -16.3909  -14.5369 O   0  0  0  0  0  0  0  0  0  0  0  0
   20.4485  -16.9719  -13.4463 C   0  0  0  0  0  0  0  0  0  0  0  0
   20.7486  -18.4253  -13.7546 C   0  0  2  0  0  0  0  0  0  0  0  0
   21.4430  -18.5440  -15.0346 N   0  0  0  0  0  0  0  0  0  0  0  0
   19.5219  -19.2381  -13.8307 C   0  0  0  0  0  0  0  0  0  0  0  0
   19.0462  -19.6156  -14.9296 O   0  0  0  0  0  0  0  0  0  0  0  0
   18.8623  -19.6039  -12.6472 O   0  0  0  0  0  0  0  0  0  0  0  0
  1  2  1  0
  3  2  1  0
  4  5  1  0
  4  3  1  0
  5  6  1  6
  5  1  1  0
  6  7  2  0
  8  6  1  0
  8  9  1  0
  9 17  1  0
 10 11  1  0
  9 10  1  6
 11 16  1  0
 12 11  2  0
 12 13  1  0
 13 14  2  0
 14 15  1  0
 16 15  2  0
 17 18  2  0
 19 20  1  0
 21 20  1  6
 21 23  1  0
 22 21  1  0
 22 17  1  0
 23 24  2  0
 23 25  1  0
M  END
$$$$
