LFD.pdb
     RDKit          3D

 28 28  0  0  1  0  0  0  0  0999 V2000
    7.8848  -19.7607   19.4511 C   0  0  0  0  0  0  0  0  0  0  0  0
    9.3508  -19.4883   19.5827 C   0  0  2  0  0  0  0  0  0  0  0  0
   10.1438  -20.7570   19.8805 C   0  0  0  0  0  0  0  0  0  0  0  0
    9.6895  -18.4690   20.6308 C   0  0  0  0  0  0  0  0  0  0  0  0
    8.8782  -17.2199   20.4515 C   0  0  2  0  0  0  0  0  0  0  0  0
    9.1507  -16.5512   19.2033 N   0  0  0  0  0  0  0  0  0  0  0  0
    9.1508  -16.3285   21.6099 C   0  0  0  0  0  0  0  0  0  0  0  0
   10.1539  -15.5743   21.5748 O   0  0  0  0  0  0  0  0  0  0  0  0
    8.3031  -16.3255   22.7284 N   0  0  0  0  0  0  0  0  0  0  0  0
    8.5895  -15.4171   23.8416 C   0  0  1  0  0  0  0  0  0  0  0  0
    7.2547  -15.0564   24.4581 C   0  0  0  0  0  0  0  0  0  0  0  0
    7.4009  -14.1920   25.6459 C   0  0  0  0  0  0  0  0  0  0  0  0
    7.2080  -12.8384   25.5488 C   0  0  0  0  0  0  0  0  0  0  0  0
    7.3266  -11.9959   26.6261 C   0  0  0  0  0  0  0  0  0  0  0  0
    7.6523  -12.5177   27.8622 C   0  0  0  0  0  0  0  0  0  0  0  0
    7.8450  -13.8728   27.9577 C   0  0  0  0  0  0  0  0  0  0  0  0
    7.7234  -14.7055   26.8720 C   0  0  0  0  0  0  0  0  0  0  0  0
    9.5034  -16.1100   24.7599 C   0  0  0  0  0  0  0  0  0  0  0  0
    9.2624  -17.2904   25.0970 O   0  0  0  0  0  0  0  0  0  0  0  0
   10.6460  -15.4544   25.2608 N   0  0  0  0  0  0  0  0  0  0  0  0
   11.5714  -16.2466   26.1093 C   0  0  1  0  0  0  0  0  0  0  0  0
   12.9691  -15.6872   25.9394 C   0  0  0  0  0  0  0  0  0  0  0  0
   13.5009  -16.0497   24.6194 C   0  0  0  0  0  0  0  0  0  0  0  0
   12.8228  -16.7779   23.8236 O   0  0  0  0  0  0  0  0  0  0  0  0
   11.1015  -16.1614   27.5153 C   0  0  0  0  0  0  0  0  0  0  0  0
   11.6872  -16.8694   28.3856 O   0  0  0  0  0  0  0  0  0  0  0  0
   14.7479  -15.6344   24.1676 O   0  0  0  0  0  0  0  0  0  0  0  0
   10.0670  -15.3572   27.9247 O   0  0  0  0  0  0  0  0  0  0  0  0
  2  3  1  1
  2  1  1  0
  4  2  1  0
  5  7  1  0
  5  4  1  0
  5  6  1  6
  7  8  2  0
  9 10  1  0
  9  7  1  0
 10 11  1  1
 11 12  1  0
 12 17  2  0
 13 12  1  0
 13 14  2  0
 14 15  1  0
 15 16  2  0
 17 16  1  0
 18 10  1  0
 19 18  2  0
 20 18  1  0
 21 22  1  1
 21 20  1  0
 22 23  1  0
 23 24  2  0
 23 27  1  0
 25 28  1  0
 25 21  1  0
 26 25  2  0
M  END
$$$$
