LFD.pdb
     RDKit          3D

 28 28  0  0  1  0  0  0  0  0999 V2000
    6.5706  -14.1991   20.1699 C   0  0  0  0  0  0  0  0  0  0  0  0
    7.9553  -13.6885   20.4199 C   0  0  2  0  0  0  0  0  0  0  0  0
    8.2138  -12.3645   19.7077 C   0  0  0  0  0  0  0  0  0  0  0  0
    9.0392  -14.6494   20.0274 C   0  0  0  0  0  0  0  0  0  0  0  0
    8.9597  -15.9120   20.8337 C   0  0  2  0  0  0  0  0  0  0  0  0
    7.6049  -16.3652   21.0297 N   0  0  0  0  0  0  0  0  0  0  0  0
    9.6381  -15.6667   22.1339 C   0  0  0  0  0  0  0  0  0  0  0  0
   10.7934  -15.1752   22.1344 O   0  0  0  0  0  0  0  0  0  0  0  0
    9.0017  -15.9776   23.3455 N   0  0  0  0  0  0  0  0  0  0  0  0
    9.7163  -15.7608   24.6060 C   0  0  1  0  0  0  0  0  0  0  0  0
    8.6856  -15.2924   25.6109 C   0  0  0  0  0  0  0  0  0  0  0  0
    9.2833  -14.9842   26.9251 C   0  0  0  0  0  0  0  0  0  0  0  0
    9.7633  -13.7285   27.1933 C   0  0  0  0  0  0  0  0  0  0  0  0
   10.3215  -13.3933   28.4019 C   0  0  0  0  0  0  0  0  0  0  0  0
   10.4097  -14.3476   29.3959 C   0  0  0  0  0  0  0  0  0  0  0  0
    9.9288  -15.6039   29.1257 C   0  0  0  0  0  0  0  0  0  0  0  0
    9.3724  -15.9270   27.9121 C   0  0  0  0  0  0  0  0  0  0  0  0
   10.3739  -17.0233   24.9696 C   0  0  0  0  0  0  0  0  0  0  0  0
    9.7584  -18.1033   24.8282 O   0  0  0  0  0  0  0  0  0  0  0  0
   11.6897  -17.0242   25.4747 N   0  0  0  0  0  0  0  0  0  0  0  0
   12.3005  -18.3406   25.7879 C   0  0  1  0  0  0  0  0  0  0  0  0
   13.8003  -18.2236   25.6088 C   0  0  0  0  0  0  0  0  0  0  0  0
   14.1309  -18.1103   24.1824 C   0  0  0  0  0  0  0  0  0  0  0  0
   13.3089  -18.5033   23.2919 O   0  0  0  0  0  0  0  0  0  0  0  0
   11.9297  -18.7064   27.1785 C   0  0  0  0  0  0  0  0  0  0  0  0
   11.4400  -17.8077   27.9230 O   0  0  0  0  0  0  0  0  0  0  0  0
   15.3331  -17.5833   23.7255 O   0  0  0  0  0  0  0  0  0  0  0  0
   12.0882  -19.9654   27.7023 O   0  0  0  0  0  0  0  0  0  0  0  0
  2  3  1  6
  2  1  1  0
  4  2  1  0
  5  7  1  0
  5  4  1  0
  5  6  1  1
  7  8  2  0
  9 10  1  0
  9  7  1  0
 10 11  1  1
 11 12  1  0
 12 17  2  0
 13 12  1  0
 13 14  2  0
 14 15  1  0
 15 16  2  0
 17 16  1  0
 18 10  1  0
 19 18  2  0
 20 18  1  0
 21 22  1  1
 21 20  1  0
 22 23  1  0
 23 24  2  0
 23 27  1  0
 25 28  1  0
 25 21  1  0
 26 25  2  0
M  END
$$$$
