LFD.pdb
     RDKit          3D

 28 28  0  0  1  0  0  0  0  0999 V2000
    9.2521  -19.4564   18.5935 C   0  0  0  0  0  0  0  0  0  0  0  0
   10.1429  -19.3039   19.7867 C   0  0  2  0  0  0  0  0  0  0  0  0
   10.6649  -20.6475   20.2861 C   0  0  0  0  0  0  0  0  0  0  0  0
    9.4985  -18.5947   20.9417 C   0  0  0  0  0  0  0  0  0  0  0  0
    8.9263  -17.2755   20.5141 C   0  0  2  0  0  0  0  0  0  0  0  0
    9.4902  -16.7969   19.2762 N   0  0  0  0  0  0  0  0  0  0  0  0
    9.1470  -16.3032   21.6171 C   0  0  0  0  0  0  0  0  0  0  0  0
   10.2381  -15.6850   21.6743 O   0  0  0  0  0  0  0  0  0  0  0  0
    8.1542  -16.0756   22.5827 N   0  0  0  0  0  0  0  0  0  0  0  0
    8.4167  -15.1301   23.6706 C   0  0  1  0  0  0  0  0  0  0  0  0
    7.0836  -14.5134   24.0369 C   0  0  0  0  0  0  0  0  0  0  0  0
    7.1957  -13.5615   25.1598 C   0  0  0  0  0  0  0  0  0  0  0  0
    6.9031  -13.9578   26.4390 C   0  0  0  0  0  0  0  0  0  0  0  0
    6.9987  -13.1108   27.5151 C   0  0  0  0  0  0  0  0  0  0  0  0
    7.4040  -11.8058   27.3169 C   0  0  0  0  0  0  0  0  0  0  0  0
    7.6964  -11.4109   26.0358 C   0  0  0  0  0  0  0  0  0  0  0  0
    7.5969  -12.2681   24.9671 C   0  0  0  0  0  0  0  0  0  0  0  0
    9.0511  -15.8751   24.7666 C   0  0  0  0  0  0  0  0  0  0  0  0
    8.5959  -16.9922   25.0985 O   0  0  0  0  0  0  0  0  0  0  0  0
   10.1656  -15.3401   25.4432 N   0  0  0  0  0  0  0  0  0  0  0  0
   10.8713  -16.2250   26.4040 C   0  0  1  0  0  0  0  0  0  0  0  0
   12.3489  -15.8937   26.3588 C   0  0  0  0  0  0  0  0  0  0  0  0
   12.9494  -16.4311   25.1311 C   0  0  0  0  0  0  0  0  0  0  0  0
   12.2788  -17.1906   24.3586 O   0  0  0  0  0  0  0  0  0  0  0  0
   10.2894  -16.0055   27.7524 C   0  0  0  0  0  0  0  0  0  0  0  0
   10.0269  -14.8186   28.1046 O   0  0  0  0  0  0  0  0  0  0  0  0
   14.2558  -16.1546   24.7459 O   0  0  0  0  0  0  0  0  0  0  0  0
   10.0198  -17.0183   28.6391 O   0  0  0  0  0  0  0  0  0  0  0  0
  2  3  1  1
  2  1  1  0
  4  2  1  0
  5  7  1  0
  5  4  1  0
  5  6  1  6
  7  8  2  0
  9 10  1  0
  9  7  1  0
 10 11  1  1
 11 12  1  0
 12 17  2  0
 13 12  1  0
 13 14  2  0
 14 15  1  0
 15 16  2  0
 17 16  1  0
 18 10  1  0
 19 18  2  0
 20 18  1  0
 21 22  1  1
 21 20  1  0
 22 23  1  0
 23 24  2  0
 23 27  1  0
 25 28  1  0
 25 21  1  0
 26 25  2  0
M  END
$$$$
