LFD.pdb
     RDKit          3D

 28 28  0  0  1  0  0  0  0  0999 V2000
    7.1658  -14.1784   19.0360 C   0  0  0  0  0  0  0  0  0  0  0  0
    7.7738  -13.4332   20.1830 C   0  0  2  0  0  0  0  0  0  0  0  0
    7.9135  -11.9432   19.8872 C   0  0  0  0  0  0  0  0  0  0  0  0
    9.1168  -13.9536   20.6045 C   0  0  0  0  0  0  0  0  0  0  0  0
    8.9906  -15.2829   21.2883 C   0  0  2  0  0  0  0  0  0  0  0  0
    7.6823  -15.8690   21.1328 N   0  0  0  0  0  0  0  0  0  0  0  0
    9.3270  -15.0915   22.7239 C   0  0  0  0  0  0  0  0  0  0  0  0
   10.3724  -14.4653   23.0258 O   0  0  0  0  0  0  0  0  0  0  0  0
    8.4925  -15.6007   23.7308 N   0  0  0  0  0  0  0  0  0  0  0  0
    8.8187  -15.3343   25.1340 C   0  0  1  0  0  0  0  0  0  0  0  0
    7.5002  -15.1693   25.8594 C   0  0  0  0  0  0  0  0  0  0  0  0
    7.2012  -13.7561   26.1646 C   0  0  0  0  0  0  0  0  0  0  0  0
    8.1935  -12.8112   26.1252 C   0  0  0  0  0  0  0  0  0  0  0  0
    7.9623  -11.4853   26.3950 C   0  0  0  0  0  0  0  0  0  0  0  0
    6.6856  -11.0721   26.7202 C   0  0  0  0  0  0  0  0  0  0  0  0
    5.6936  -12.0192   26.7591 C   0  0  0  0  0  0  0  0  0  0  0  0
    5.9377  -13.3433   26.4871 C   0  0  0  0  0  0  0  0  0  0  0  0
    9.6332  -16.4547   25.6238 C   0  0  0  0  0  0  0  0  0  0  0  0
    9.4287  -16.9121   26.7701 O   0  0  0  0  0  0  0  0  0  0  0  0
   10.6398  -17.0150   24.8118 N   0  0  0  0  0  0  0  0  0  0  0  0
   11.2650  -18.2799   25.2736 C   0  0  1  0  0  0  0  0  0  0  0  0
   10.1757  -19.3220   25.4228 C   0  0  0  0  0  0  0  0  0  0  0  0
   10.7708  -20.6455   25.6488 C   0  0  0  0  0  0  0  0  0  0  0  0
   12.0359  -20.7908   25.6877 O   0  0  0  0  0  0  0  0  0  0  0  0
   12.2916  -18.6817   24.2787 C   0  0  0  0  0  0  0  0  0  0  0  0
   12.9593  -19.7338   24.5000 O   0  0  0  0  0  0  0  0  0  0  0  0
   10.0101  -21.7950   25.8268 O   0  0  0  0  0  0  0  0  0  0  0  0
   12.5572  -17.9758   23.1317 O   0  0  0  0  0  0  0  0  0  0  0  0
  2  3  1  6
  2  1  1  0
  4  2  1  0
  5  7  1  0
  5  4  1  0
  5  6  1  1
  7  8  2  0
  9 10  1  0
  9  7  1  0
 10 11  1  1
 11 12  1  0
 12 17  2  0
 13 12  1  0
 13 14  2  0
 14 15  1  0
 15 16  2  0
 17 16  1  0
 18 10  1  0
 19 18  2  0
 20 18  1  0
 21 22  1  6
 21 20  1  0
 22 23  1  0
 23 24  2  0
 23 27  1  0
 25 28  1  0
 25 21  1  0
 26 25  2  0
M  END
$$$$
