LFD.pdb
     RDKit          3D

 28 28  0  0  1  0  0  0  0  0999 V2000
    6.7413  -13.8663   19.2317 C   0  0  0  0  0  0  0  0  0  0  0  0
    8.1258  -13.5226   19.6851 C   0  0  2  0  0  0  0  0  0  0  0  0
    8.6207  -12.2164   19.0719 C   0  0  0  0  0  0  0  0  0  0  0  0
    9.1431  -14.5880   19.3984 C   0  0  0  0  0  0  0  0  0  0  0  0
    8.9321  -15.7864   20.2758 C   0  0  2  0  0  0  0  0  0  0  0  0
    7.6204  -16.3660   20.1239 N   0  0  0  0  0  0  0  0  0  0  0  0
    9.1768  -15.3709   21.6824 C   0  0  0  0  0  0  0  0  0  0  0  0
   10.2899  -14.8760   21.9860 O   0  0  0  0  0  0  0  0  0  0  0  0
    8.1823  -15.5269   22.6603 N   0  0  0  0  0  0  0  0  0  0  0  0
    8.3856  -14.9420   23.9881 C   0  0  1  0  0  0  0  0  0  0  0  0
    7.0316  -14.4521   24.4554 C   0  0  0  0  0  0  0  0  0  0  0  0
    7.1127  -13.7089   25.7284 C   0  0  0  0  0  0  0  0  0  0  0  0
    7.3157  -12.3532   25.7302 C   0  0  0  0  0  0  0  0  0  0  0  0
    7.3918  -11.6191   26.8877 C   0  0  0  0  0  0  0  0  0  0  0  0
    7.2607  -12.2571   28.1051 C   0  0  0  0  0  0  0  0  0  0  0  0
    7.0577  -13.6141   28.1014 C   0  0  0  0  0  0  0  0  0  0  0  0
    6.9834  -14.3377   26.9361 C   0  0  0  0  0  0  0  0  0  0  0  0
    8.9746  -15.9782   24.8473 C   0  0  0  0  0  0  0  0  0  0  0  0
    8.5251  -17.1449   24.8043 O   0  0  0  0  0  0  0  0  0  0  0  0
   10.0395  -15.6658   25.7161 N   0  0  0  0  0  0  0  0  0  0  0  0
   10.6692  -16.7882   26.4562 C   0  0  1  0  0  0  0  0  0  0  0  0
   12.1655  -16.7293   26.2262 C   0  0  0  0  0  0  0  0  0  0  0  0
   12.5598  -17.7175   25.2140 C   0  0  0  0  0  0  0  0  0  0  0  0
   11.6848  -18.4448   24.6407 O   0  0  0  0  0  0  0  0  0  0  0  0
   10.3179  -16.6534   27.8926 C   0  0  0  0  0  0  0  0  0  0  0  0
   10.2981  -17.6998   28.6043 O   0  0  0  0  0  0  0  0  0  0  0  0
   13.8802  -17.9189   24.8295 O   0  0  0  0  0  0  0  0  0  0  0  0
   10.0134  -15.4568   28.4927 O   0  0  0  0  0  0  0  0  0  0  0  0
  2  3  1  6
  2  1  1  0
  4  2  1  0
  5  7  1  0
  5  4  1  0
  5  6  1  1
  7  8  2  0
  9 10  1  0
  9  7  1  0
 10 11  1  1
 11 12  1  0
 12 17  2  0
 13 12  1  0
 13 14  2  0
 14 15  1  0
 15 16  2  0
 17 16  1  0
 18 10  1  0
 19 18  2  0
 20 18  1  0
 21 22  1  1
 21 20  1  0
 22 23  1  0
 23 24  2  0
 23 27  1  0
 25 28  1  0
 25 21  1  0
 26 25  2  0
M  END
$$$$
