LFD.pdb
     RDKit          3D

 28 28  0  0  1  0  0  0  0  0999 V2000
    6.4630  -13.6308   18.8501 C   0  0  0  0  0  0  0  0  0  0  0  0
    7.7286  -13.3866   19.6112 C   0  0  2  0  0  0  0  0  0  0  0  0
    8.2558  -11.9700   19.4047 C   0  0  0  0  0  0  0  0  0  0  0  0
    8.8326  -14.3484   19.2825 C   0  0  0  0  0  0  0  0  0  0  0  0
    8.7663  -15.5659   20.1565 C   0  0  2  0  0  0  0  0  0  0  0  0
    7.5013  -16.2519   20.0637 N   0  0  0  0  0  0  0  0  0  0  0  0
    9.0462  -15.1406   21.5536 C   0  0  0  0  0  0  0  0  0  0  0  0
   10.0568  -14.4320   21.7832 O   0  0  0  0  0  0  0  0  0  0  0  0
    8.1972  -15.5223   22.6039 N   0  0  0  0  0  0  0  0  0  0  0  0
    8.4614  -15.0231   23.9557 C   0  0  1  0  0  0  0  0  0  0  0  0
    7.1123  -14.7469   24.5846 C   0  0  0  0  0  0  0  0  0  0  0  0
    7.2253  -13.9750   25.8379 C   0  0  0  0  0  0  0  0  0  0  0  0
    7.5156  -14.6064   27.0196 C   0  0  0  0  0  0  0  0  0  0  0  0
    7.6369  -13.9304   28.2082 C   0  0  0  0  0  0  0  0  0  0  0  0
    7.4624  -12.5609   28.2302 C   0  0  0  0  0  0  0  0  0  0  0  0
    7.1718  -11.9306   27.0465 C   0  0  0  0  0  0  0  0  0  0  0  0
    7.0531  -12.6184   25.8635 C   0  0  0  0  0  0  0  0  0  0  0  0
    9.2518  -16.0410   24.6613 C   0  0  0  0  0  0  0  0  0  0  0  0
    8.9432  -17.2483   24.5511 O   0  0  0  0  0  0  0  0  0  0  0  0
   10.3519  -15.6657   25.4583 N   0  0  0  0  0  0  0  0  0  0  0  0
   11.1397  -16.7533   26.0912 C   0  0  1  0  0  0  0  0  0  0  0  0
   12.6028  -16.3614   26.0590 C   0  0  0  0  0  0  0  0  0  0  0  0
   13.2474  -16.9151   24.8612 C   0  0  0  0  0  0  0  0  0  0  0  0
   12.5769  -17.5964   24.0189 O   0  0  0  0  0  0  0  0  0  0  0  0
   10.6414  -16.9427   27.4771 C   0  0  0  0  0  0  0  0  0  0  0  0
   10.4080  -18.1220   27.8728 O   0  0  0  0  0  0  0  0  0  0  0  0
   14.5969  -16.7382   24.5799 O   0  0  0  0  0  0  0  0  0  0  0  0
   10.4197  -15.9100   28.3541 O   0  0  0  0  0  0  0  0  0  0  0  0
  2  3  1  6
  2  1  1  0
  4  2  1  0
  5  7  1  0
  5  4  1  0
  5  6  1  1
  7  8  2  0
  9 10  1  0
  9  7  1  0
 10 11  1  1
 11 12  1  0
 12 17  2  0
 13 12  1  0
 13 14  2  0
 14 15  1  0
 15 16  2  0
 17 16  1  0
 18 10  1  0
 19 18  2  0
 20 18  1  0
 21 22  1  1
 21 20  1  0
 22 23  1  0
 23 24  2  0
 23 27  1  0
 25 28  1  0
 25 21  1  0
 26 25  2  0
M  END
$$$$
