LFD.pdb
     RDKit          3D

 28 28  0  0  1  0  0  0  0  0999 V2000
    7.5597  -14.1600   18.1780 C   0  0  0  0  0  0  0  0  0  0  0  0
    7.5734  -13.5944   19.5638 C   0  0  2  0  0  0  0  0  0  0  0  0
    7.2952  -12.0945   19.5721 C   0  0  0  0  0  0  0  0  0  0  0  0
    8.8539  -13.8361   20.3080 C   0  0  0  0  0  0  0  0  0  0  0  0
    8.9127  -15.2371   20.8411 C   0  0  2  0  0  0  0  0  0  0  0  0
    7.6130  -15.8550   20.9324 N   0  0  0  0  0  0  0  0  0  0  0  0
    9.5815  -15.1928   22.1684 C   0  0  0  0  0  0  0  0  0  0  0  0
   10.6787  -14.5924   22.2773 O   0  0  0  0  0  0  0  0  0  0  0  0
    9.0000  -15.8107   23.2862 N   0  0  0  0  0  0  0  0  0  0  0  0
    9.6821  -15.7373   24.5807 C   0  0  1  0  0  0  0  0  0  0  0  0
    8.6310  -15.3554   25.6010 C   0  0  0  0  0  0  0  0  0  0  0  0
    9.2110  -15.0961   26.9336 C   0  0  0  0  0  0  0  0  0  0  0  0
    9.4562  -13.8124   27.3473 C   0  0  0  0  0  0  0  0  0  0  0  0
    9.9881  -13.5219   28.5790 C   0  0  0  0  0  0  0  0  0  0  0  0
   10.2932  -14.5523   29.4459 C   0  0  0  0  0  0  0  0  0  0  0  0
   10.0472  -15.8366   29.0302 C   0  0  0  0  0  0  0  0  0  0  0  0
    9.5145  -16.1143   27.7949 C   0  0  0  0  0  0  0  0  0  0  0  0
   10.3094  -17.0424   24.8297 C   0  0  0  0  0  0  0  0  0  0  0  0
    9.7078  -18.0893   24.5022 O   0  0  0  0  0  0  0  0  0  0  0  0
   11.5807  -17.1208   25.4332 N   0  0  0  0  0  0  0  0  0  0  0  0
   12.1234  -18.4747   25.7098 C   0  0  1  0  0  0  0  0  0  0  0  0
   13.4781  -18.5897   25.0414 C   0  0  0  0  0  0  0  0  0  0  0  0
   14.1604  -19.8102   25.4903 C   0  0  0  0  0  0  0  0  0  0  0  0
   13.5051  -20.8839   25.6921 O   0  0  0  0  0  0  0  0  0  0  0  0
   12.2089  -18.6497   27.1819 C   0  0  0  0  0  0  0  0  0  0  0  0
   11.5407  -19.5842   27.7129 O   0  0  0  0  0  0  0  0  0  0  0  0
   15.5298  -19.8683   25.7209 O   0  0  0  0  0  0  0  0  0  0  0  0
   12.9726  -17.8546   27.9999 O   0  0  0  0  0  0  0  0  0  0  0  0
  2  3  1  6
  2  1  1  0
  4  2  1  0
  5  7  1  0
  5  4  1  0
  5  6  1  1
  7  8  2  0
  9 10  1  0
  9  7  1  0
 10 11  1  1
 11 12  1  0
 12 17  2  0
 13 12  1  0
 13 14  2  0
 14 15  1  0
 15 16  2  0
 17 16  1  0
 18 10  1  0
 19 18  2  0
 20 18  1  0
 21 22  1  6
 21 20  1  0
 22 23  1  0
 23 24  2  0
 23 27  1  0
 25 28  1  0
 25 21  1  0
 26 25  2  0
M  END
$$$$
