LFD.pdb
     RDKit          3D

 28 28  0  0  1  0  0  0  0  0999 V2000
    6.7025  -14.3222   19.4240 C   0  0  0  0  0  0  0  0  0  0  0  0
    8.0621  -13.7145   19.5751 C   0  0  2  0  0  0  0  0  0  0  0  0
    8.2507  -12.5023   18.6684 C   0  0  0  0  0  0  0  0  0  0  0  0
    9.1892  -14.6711   19.3164 C   0  0  0  0  0  0  0  0  0  0  0  0
    9.1411  -15.8318   20.2656 C   0  0  2  0  0  0  0  0  0  0  0  0
    7.9363  -16.6128   20.1323 N   0  0  0  0  0  0  0  0  0  0  0  0
    9.2866  -15.2988   21.6461 C   0  0  0  0  0  0  0  0  0  0  0  0
   10.3412  -14.6927   21.9565 O   0  0  0  0  0  0  0  0  0  0  0  0
    8.2637  -15.4674   22.5921 N   0  0  0  0  0  0  0  0  0  0  0  0
    8.4052  -14.8567   23.9163 C   0  0  1  0  0  0  0  0  0  0  0  0
    7.0076  -14.5071   24.3814 C   0  0  0  0  0  0  0  0  0  0  0  0
    7.0140  -13.6807   25.6047 C   0  0  0  0  0  0  0  0  0  0  0  0
    8.0398  -12.8041   25.8462 C   0  0  0  0  0  0  0  0  0  0  0  0
    8.0858  -12.0109   26.9657 C   0  0  0  0  0  0  0  0  0  0  0  0
    7.0663  -12.0880   27.8936 C   0  0  0  0  0  0  0  0  0  0  0  0
    6.0403  -12.9659   27.6502 C   0  0  0  0  0  0  0  0  0  0  0  0
    6.0057  -13.7544   26.5260 C   0  0  0  0  0  0  0  0  0  0  0  0
    9.0985  -15.8210   24.7813 C   0  0  0  0  0  0  0  0  0  0  0  0
   10.2851  -15.6087   25.1158 O   0  0  0  0  0  0  0  0  0  0  0  0
    8.4360  -16.9795   25.2346 N   0  0  0  0  0  0  0  0  0  0  0  0
    9.1877  -17.8875   26.1370 C   0  0  1  0  0  0  0  0  0  0  0  0
    9.6275  -17.0947   27.3508 C   0  0  0  0  0  0  0  0  0  0  0  0
   10.3703  -17.9595   28.2765 C   0  0  0  0  0  0  0  0  0  0  0  0
   10.9799  -18.9943   27.8512 O   0  0  0  0  0  0  0  0  0  0  0  0
    8.3005  -19.0214   26.5004 C   0  0  0  0  0  0  0  0  0  0  0  0
    7.0702  -18.9328   26.2172 O   0  0  0  0  0  0  0  0  0  0  0  0
   10.4504  -17.7116   29.6417 O   0  0  0  0  0  0  0  0  0  0  0  0
    8.7399  -20.1613   27.1267 O   0  0  0  0  0  0  0  0  0  0  0  0
  2  3  1  6
  2  1  1  0
  4  2  1  0
  5  7  1  0
  5  4  1  0
  5  6  1  1
  7  8  2  0
  9 10  1  0
  9  7  1  0
 10 11  1  1
 11 12  1  0
 12 17  2  0
 13 12  1  0
 13 14  2  0
 14 15  1  0
 15 16  2  0
 17 16  1  0
 18 10  1  0
 19 18  2  0
 20 18  1  0
 21 22  1  1
 21 20  1  0
 22 23  1  0
 23 24  2  0
 23 27  1  0
 25 28  1  0
 25 21  1  0
 26 25  2  0
M  END
$$$$
