LFD.pdb
     RDKit          3D

 28 28  0  0  1  0  0  0  0  0999 V2000
    6.6407  -13.5111   20.0834 C   0  0  0  0  0  0  0  0  0  0  0  0
    8.1267  -13.3365   20.0375 C   0  0  2  0  0  0  0  0  0  0  0  0
    8.5334  -12.1065   19.2320 C   0  0  0  0  0  0  0  0  0  0  0  0
    8.8627  -14.5215   19.4840 C   0  0  0  0  0  0  0  0  0  0  0  0
    8.5942  -15.7525   20.2983 C   0  0  2  0  0  0  0  0  0  0  0  0
    7.2120  -16.1613   20.2536 N   0  0  0  0  0  0  0  0  0  0  0  0
    9.0298  -15.4807   21.6937 C   0  0  0  0  0  0  0  0  0  0  0  0
   10.2301  -15.1829   21.9096 O   0  0  0  0  0  0  0  0  0  0  0  0
    8.1175  -15.5542   22.7577 N   0  0  0  0  0  0  0  0  0  0  0  0
    8.5651  -15.2109   24.1098 C   0  0  1  0  0  0  0  0  0  0  0  0
    7.3351  -14.7640   24.8707 C   0  0  0  0  0  0  0  0  0  0  0  0
    7.6747  -14.0864   26.1375 C   0  0  0  0  0  0  0  0  0  0  0  0
    8.1075  -14.8097   27.2186 C   0  0  0  0  0  0  0  0  0  0  0  0
    8.4407  -14.2235   28.4143 C   0  0  0  0  0  0  0  0  0  0  0  0
    8.3411  -12.8529   28.5486 C   0  0  0  0  0  0  0  0  0  0  0  0
    7.9078  -12.1305   27.4655 C   0  0  0  0  0  0  0  0  0  0  0  0
    7.5773  -12.7289   26.2741 C   0  0  0  0  0  0  0  0  0  0  0  0
    9.2204  -16.3969   24.6781 C   0  0  0  0  0  0  0  0  0  0  0  0
    8.7056  -17.5252   24.5135 O   0  0  0  0  0  0  0  0  0  0  0  0
   10.4215  -16.2704   25.4045 N   0  0  0  0  0  0  0  0  0  0  0  0
   11.0949  -17.5217   25.8344 C   0  0  1  0  0  0  0  0  0  0  0  0
   12.4600  -17.5761   25.1797 C   0  0  0  0  0  0  0  0  0  0  0  0
   13.1920  -18.7644   25.6367 C   0  0  0  0  0  0  0  0  0  0  0  0
   12.7699  -19.9340   25.3590 O   0  0  0  0  0  0  0  0  0  0  0  0
   11.1849  -17.5161   27.3166 C   0  0  0  0  0  0  0  0  0  0  0  0
   11.0096  -16.4187   27.9222 O   0  0  0  0  0  0  0  0  0  0  0  0
   14.3607  -18.6898   26.3853 O   0  0  0  0  0  0  0  0  0  0  0  0
   11.4474  -18.6349   28.0675 O   0  0  0  0  0  0  0  0  0  0  0  0
  2  3  1  6
  2  1  1  0
  4  2  1  0
  5  7  1  0
  5  4  1  0
  5  6  1  1
  7  8  2  0
  9 10  1  0
  9  7  1  0
 10 11  1  1
 11 12  1  0
 12 17  2  0
 13 12  1  0
 13 14  2  0
 14 15  1  0
 15 16  2  0
 17 16  1  0
 18 10  1  0
 19 18  2  0
 20 18  1  0
 21 22  1  6
 21 20  1  0
 22 23  1  0
 23 24  2  0
 23 27  1  0
 25 28  1  0
 25 21  1  0
 26 25  2  0
M  END
$$$$
