LFD.pdb
     RDKit          3D

 28 28  0  0  1  0  0  0  0  0999 V2000
    6.7067  -13.8839   19.2754 C   0  0  0  0  0  0  0  0  0  0  0  0
    8.1070  -13.4743   19.6104 C   0  0  2  0  0  0  0  0  0  0  0  0
    8.5264  -12.2101   18.8668 C   0  0  0  0  0  0  0  0  0  0  0  0
    9.1331  -14.5361   19.3422 C   0  0  0  0  0  0  0  0  0  0  0  0
    8.8776  -15.7569   20.1757 C   0  0  2  0  0  0  0  0  0  0  0  0
    7.5453  -16.2814   20.0045 N   0  0  0  0  0  0  0  0  0  0  0  0
    9.1376  -15.4023   21.5962 C   0  0  0  0  0  0  0  0  0  0  0  0
   10.2653  -14.9518   21.9144 O   0  0  0  0  0  0  0  0  0  0  0  0
    8.1413  -15.5665   22.5709 N   0  0  0  0  0  0  0  0  0  0  0  0
    8.4149  -15.1569   23.9506 C   0  0  1  0  0  0  0  0  0  0  0  0
    7.1097  -14.6349   24.5123 C   0  0  0  0  0  0  0  0  0  0  0  0
    7.3028  -13.8651   25.7572 C   0  0  0  0  0  0  0  0  0  0  0  0
    6.7440  -12.6214   25.8994 C   0  0  0  0  0  0  0  0  0  0  0  0
    6.8907  -11.8715   27.0398 C   0  0  0  0  0  0  0  0  0  0  0  0
    7.6270  -12.3762   28.0931 C   0  0  0  0  0  0  0  0  0  0  0  0
    8.1856  -13.6211   27.9491 C   0  0  0  0  0  0  0  0  0  0  0  0
    8.0316  -14.3619   26.8026 C   0  0  0  0  0  0  0  0  0  0  0  0
    8.9481  -16.3243   24.6658 C   0  0  0  0  0  0  0  0  0  0  0  0
    8.3527  -17.4217   24.5870 O   0  0  0  0  0  0  0  0  0  0  0  0
   10.1227  -16.2147   25.4370 N   0  0  0  0  0  0  0  0  0  0  0  0
   10.6865  -17.4653   26.0047 C   0  0  1  0  0  0  0  0  0  0  0  0
   12.1072  -17.6180   25.5012 C   0  0  0  0  0  0  0  0  0  0  0  0
   12.7457  -18.7782   26.1360 C   0  0  0  0  0  0  0  0  0  0  0  0
   12.1844  -19.9217   26.1133 O   0  0  0  0  0  0  0  0  0  0  0  0
   10.6243  -17.3733   27.4855 C   0  0  0  0  0  0  0  0  0  0  0  0
   10.0844  -18.3249   28.1217 O   0  0  0  0  0  0  0  0  0  0  0  0
   13.9707  -18.7029   26.7882 O   0  0  0  0  0  0  0  0  0  0  0  0
   11.1200  -16.3137   28.2038 O   0  0  0  0  0  0  0  0  0  0  0  0
  2  3  1  6
  2  1  1  0
  4  2  1  0
  5  7  1  0
  5  4  1  0
  5  6  1  1
  7  8  2  0
  9 10  1  0
  9  7  1  0
 10 11  1  1
 11 12  1  0
 12 17  2  0
 13 12  1  0
 13 14  2  0
 14 15  1  0
 15 16  2  0
 17 16  1  0
 18 10  1  0
 19 18  2  0
 20 18  1  0
 21 22  1  1
 21 20  1  0
 22 23  1  0
 23 24  2  0
 23 27  1  0
 25 28  1  0
 25 21  1  0
 26 25  2  0
M  END
$$$$
