LFD.pdb
     RDKit          3D

 28 28  0  0  1  0  0  0  0  0999 V2000
    7.2030  -14.2333   18.4286 C   0  0  0  0  0  0  0  0  0  0  0  0
    7.6570  -13.4130   19.5955 C   0  0  2  0  0  0  0  0  0  0  0  0
    7.8031  -11.9379   19.2352 C   0  0  0  0  0  0  0  0  0  0  0  0
    8.9501  -13.8765   20.1999 C   0  0  0  0  0  0  0  0  0  0  0  0
    8.8052  -15.2420   20.8038 C   0  0  2  0  0  0  0  0  0  0  0  0
    7.4607  -15.7548   20.7094 N   0  0  0  0  0  0  0  0  0  0  0  0
    9.2531  -15.1648   22.2195 C   0  0  0  0  0  0  0  0  0  0  0  0
   10.3524  -14.6178   22.4811 O   0  0  0  0  0  0  0  0  0  0  0  0
    8.4633  -15.6935   23.2522 N   0  0  0  0  0  0  0  0  0  0  0  0
    8.9162  -15.5618   24.6393 C   0  0  1  0  0  0  0  0  0  0  0  0
    7.6706  -15.5430   25.4995 C   0  0  0  0  0  0  0  0  0  0  0  0
    7.2571  -14.1718   25.8577 C   0  0  0  0  0  0  0  0  0  0  0  0
    5.9954  -13.7259   25.5599 C   0  0  0  0  0  0  0  0  0  0  0  0
    5.5639  -12.4624   25.8787 C   0  0  0  0  0  0  0  0  0  0  0  0
    6.4228  -11.5953   26.5244 C   0  0  0  0  0  0  0  0  0  0  0  0
    7.6852  -12.0432   26.8216 C   0  0  0  0  0  0  0  0  0  0  0  0
    8.1052  -13.3102   26.4973 C   0  0  0  0  0  0  0  0  0  0  0  0
    9.8204  -16.6846   24.9226 C   0  0  0  0  0  0  0  0  0  0  0  0
    9.4747  -17.8478   24.6186 O   0  0  0  0  0  0  0  0  0  0  0  0
   11.0708  -16.4588   25.5325 N   0  0  0  0  0  0  0  0  0  0  0  0
   11.9571  -17.6334   25.7293 C   0  0  1  0  0  0  0  0  0  0  0  0
   13.3945  -17.1566   25.6889 C   0  0  0  0  0  0  0  0  0  0  0  0
   13.7501  -16.7401   24.3263 C   0  0  0  0  0  0  0  0  0  0  0  0
   13.1968  -17.2840   23.3156 O   0  0  0  0  0  0  0  0  0  0  0  0
   11.6127  -18.2635   27.0290 C   0  0  0  0  0  0  0  0  0  0  0  0
   12.1876  -19.3475   27.3392 O   0  0  0  0  0  0  0  0  0  0  0  0
   14.6917  -15.7531   24.0598 O   0  0  0  0  0  0  0  0  0  0  0  0
   10.7053  -17.7360   27.9139 O   0  0  0  0  0  0  0  0  0  0  0  0
  2  3  1  6
  2  1  1  0
  4  2  1  0
  5  7  1  0
  5  4  1  0
  5  6  1  1
  7  8  2  0
  9 10  1  0
  9  7  1  0
 10 11  1  1
 11 12  1  0
 12 17  2  0
 13 12  1  0
 13 14  2  0
 14 15  1  0
 15 16  2  0
 17 16  1  0
 18 10  1  0
 19 18  2  0
 20 18  1  0
 21 22  1  1
 21 20  1  0
 22 23  1  0
 23 24  2  0
 23 27  1  0
 25 28  1  0
 25 21  1  0
 26 25  2  0
M  END
$$$$
