LFD.pdb
     RDKit          3D

 28 28  0  0  1  0  0  0  0  0999 V2000
    8.0389  -14.4291   18.5015 C   0  0  0  0  0  0  0  0  0  0  0  0
    7.7820  -13.5123   19.6566 C   0  0  2  0  0  0  0  0  0  0  0  0
    7.7135  -12.0514   19.2229 C   0  0  0  0  0  0  0  0  0  0  0  0
    8.7924  -13.6250   20.7605 C   0  0  0  0  0  0  0  0  0  0  0  0
    8.8100  -15.0098   21.3372 C   0  0  2  0  0  0  0  0  0  0  0  0
    7.5159  -15.6450   21.3047 N   0  0  0  0  0  0  0  0  0  0  0  0
    9.3297  -14.9187   22.7273 C   0  0  0  0  0  0  0  0  0  0  0  0
   10.3779  -14.2624   22.9435 O   0  0  0  0  0  0  0  0  0  0  0  0
    8.6629  -15.5544   23.7860 N   0  0  0  0  0  0  0  0  0  0  0  0
    9.1601  -15.3801   25.1531 C   0  0  1  0  0  0  0  0  0  0  0  0
    7.9415  -15.2450   26.0410 C   0  0  0  0  0  0  0  0  0  0  0  0
    7.4417  -13.8571   26.1000 C   0  0  0  0  0  0  0  0  0  0  0  0
    8.2496  -12.8457   26.5512 C   0  0  0  0  0  0  0  0  0  0  0  0
    7.8314  -11.5399   26.6180 C   0  0  0  0  0  0  0  0  0  0  0  0
    6.5496  -11.2172   26.2186 C   0  0  0  0  0  0  0  0  0  0  0  0
    5.7424  -12.2307   25.7673 C   0  0  0  0  0  0  0  0  0  0  0  0
    6.1726  -13.5338   25.7052 C   0  0  0  0  0  0  0  0  0  0  0  0
   10.0056  -16.5385   25.4721 C   0  0  0  0  0  0  0  0  0  0  0  0
   10.2475  -16.8159   26.6678 O   0  0  0  0  0  0  0  0  0  0  0  0
   10.5433  -17.3361   24.4420 N   0  0  0  0  0  0  0  0  0  0  0  0
   11.3805  -18.4952   24.8415 C   0  0  1  0  0  0  0  0  0  0  0  0
   10.6578  -19.7647   24.4401 C   0  0  0  0  0  0  0  0  0  0  0  0
   10.7659  -20.7664   25.5085 C   0  0  0  0  0  0  0  0  0  0  0  0
   11.4504  -20.5275   26.5561 O   0  0  0  0  0  0  0  0  0  0  0  0
   12.7007  -18.3676   24.1739 C   0  0  0  0  0  0  0  0  0  0  0  0
   12.7700  -17.6834   23.1114 O   0  0  0  0  0  0  0  0  0  0  0  0
   10.1463  -22.0089   25.4441 O   0  0  0  0  0  0  0  0  0  0  0  0
   13.8512  -18.9503   24.6445 O   0  0  0  0  0  0  0  0  0  0  0  0
  2  3  1  6
  2  1  1  0
  4  2  1  0
  5  7  1  0
  5  4  1  0
  5  6  1  1
  7  8  2  0
  9 10  1  0
  9  7  1  0
 10 11  1  1
 11 12  1  0
 12 17  2  0
 13 12  1  0
 13 14  2  0
 14 15  1  0
 15 16  2  0
 17 16  1  0
 18 10  1  0
 19 18  2  0
 20 18  1  0
 21 22  1  6
 21 20  1  0
 22 23  1  0
 23 24  2  0
 23 27  1  0
 25 28  1  0
 25 21  1  0
 26 25  2  0
M  END
$$$$
