LFD.pdb
     RDKit          3D

 28 28  0  0  1  0  0  0  0  0999 V2000
    7.9398  -12.2833   19.0017 C   0  0  0  0  0  0  0  0  0  0  0  0
    7.8526  -13.4556   19.9285 C   0  0  2  0  0  0  0  0  0  0  0  0
    7.5689  -13.0287   21.3653 C   0  0  0  0  0  0  0  0  0  0  0  0
    9.0777  -14.3222   19.9319 C   0  0  0  0  0  0  0  0  0  0  0  0
    8.8134  -15.6284   20.6209 C   0  0  2  0  0  0  0  0  0  0  0  0
    7.4742  -16.1153   20.4002 N   0  0  0  0  0  0  0  0  0  0  0  0
    9.0863  -15.4430   22.0707 C   0  0  0  0  0  0  0  0  0  0  0  0
   10.1438  -14.8647   22.4220 O   0  0  0  0  0  0  0  0  0  0  0  0
    8.1791  -15.9051   23.0367 N   0  0  0  0  0  0  0  0  0  0  0  0
    8.4986  -15.7389   24.4568 C   0  0  1  0  0  0  0  0  0  0  0  0
    7.1939  -15.4286   25.1589 C   0  0  0  0  0  0  0  0  0  0  0  0
    7.1958  -14.0893   25.7798 C   0  0  0  0  0  0  0  0  0  0  0  0
    8.2435  -13.6901   26.5687 C   0  0  0  0  0  0  0  0  0  0  0  0
    8.2926  -12.4530   27.1615 C   0  0  0  0  0  0  0  0  0  0  0  0
    7.2536  -11.5652   26.9649 C   0  0  0  0  0  0  0  0  0  0  0  0
    6.2058  -11.9663   26.1751 C   0  0  0  0  0  0  0  0  0  0  0  0
    6.1683  -13.2072   25.5872 C   0  0  0  0  0  0  0  0  0  0  0  0
    9.1448  -16.9756   24.9170 C   0  0  0  0  0  0  0  0  0  0  0  0
    8.6795  -18.0828   24.5664 O   0  0  0  0  0  0  0  0  0  0  0  0
   10.2819  -16.9213   25.7479 N   0  0  0  0  0  0  0  0  0  0  0  0
   10.9297  -18.2087   26.1045 C   0  0  1  0  0  0  0  0  0  0  0  0
   12.3270  -18.2161   25.5191 C   0  0  0  0  0  0  0  0  0  0  0  0
   13.0436  -19.4274   25.9386 C   0  0  0  0  0  0  0  0  0  0  0  0
   12.4388  -20.5462   26.0152 O   0  0  0  0  0  0  0  0  0  0  0  0
   10.9422  -18.3290   27.5844 C   0  0  0  0  0  0  0  0  0  0  0  0
   10.7301  -17.2871   28.2710 O   0  0  0  0  0  0  0  0  0  0  0  0
   14.3925  -19.4289   26.2733 O   0  0  0  0  0  0  0  0  0  0  0  0
   11.1709  -19.5074   28.2505 O   0  0  0  0  0  0  0  0  0  0  0  0
  2  3  1  1
  2  1  1  0
  4  2  1  0
  5  7  1  0
  5  4  1  0
  5  6  1  1
  7  8  2  0
  9 10  1  0
  9  7  1  0
 10 11  1  1
 11 12  1  0
 12 17  2  0
 13 12  1  0
 13 14  2  0
 14 15  1  0
 15 16  2  0
 17 16  1  0
 18 10  1  0
 19 18  2  0
 20 18  1  0
 21 22  1  1
 21 20  1  0
 22 23  1  0
 23 24  2  0
 23 27  1  0
 25 28  1  0
 25 21  1  0
 26 25  2  0
M  END
$$$$
