GAC.pdb
     RDKit          3D

 16 15  0  0  1  0  0  0  0  0999 V2000
    7.8281  -12.9467   18.2914 N   0  0  0  0  0  0  0  0  0  0  0  0
    8.6197  -13.9581   18.9221 C   0  0  0  0  0  0  0  0  0  0  0  0
    8.0704  -14.3333   20.2690 C   0  0  0  0  0  0  0  0  0  0  0  0
    7.1439  -13.6785   20.8055 O   0  0  0  0  0  0  0  0  0  0  0  0
    8.3479  -17.2632   22.6424 C   0  0  0  0  0  0  0  0  0  0  0  0
    7.9810  -15.8565   22.2357 C   0  0  2  0  0  0  0  0  0  0  0  0
    8.5701  -15.4474   21.0051 N   0  0  0  0  0  0  0  0  0  0  0  0
    8.3159  -14.9508   23.3722 C   0  0  0  0  0  0  0  0  0  0  0  0
    9.4238  -14.3757   23.4887 O   0  0  0  0  0  0  0  0  0  0  0  0
    7.3351  -14.7233   24.3776 N   0  0  0  0  0  0  0  0  0  0  0  0
    7.5082  -13.7385   25.4290 C   0  0  1  0  0  0  0  0  0  0  0  0
    6.1636  -13.1900   25.8868 C   0  0  0  0  0  0  0  0  0  0  0  0
    6.4133  -11.8846   27.1416 S   0  0  0  0  0  0  0  0  0  0  0  0
    8.2376  -14.3875   26.5498 C   0  0  0  0  0  0  0  0  0  0  0  0
    9.0783  -13.6834   27.4017 O   0  0  0  0  0  0  0  0  0  0  0  0
    8.1251  -15.6284   26.7831 O   0  0  0  0  0  0  0  0  0  0  0  0
  2  1  1  0
  3  2  1  0
  4  3  2  0
  6  5  1  1
  6  8  1  0
  6  7  1  0
  7  3  1  0
  8  9  2  0
 10 11  1  0
 10  8  1  0
 11 12  1  1
 12 13  1  0
 14 15  1  0
 14 11  1  0
 16 14  2  0
M  END
$$$$
