GAC.pdb
     RDKit          3D

 16 15  0  0  1  0  0  0  0  0999 V2000
    7.8285  -12.4987   19.1328 N   0  0  0  0  0  0  0  0  0  0  0  0
    8.4716  -13.6100   19.7643 C   0  0  0  0  0  0  0  0  0  0  0  0
    7.8587  -13.9200   21.1003 C   0  0  0  0  0  0  0  0  0  0  0  0
    7.1314  -13.0895   21.6973 O   0  0  0  0  0  0  0  0  0  0  0  0
    7.4311  -16.9390   23.3325 C   0  0  0  0  0  0  0  0  0  0  0  0
    7.4663  -15.4640   23.0128 C   0  0  2  0  0  0  0  0  0  0  0  0
    8.0698  -15.1677   21.7571 N   0  0  0  0  0  0  0  0  0  0  0  0
    8.1228  -14.7651   24.1549 C   0  0  0  0  0  0  0  0  0  0  0  0
    9.3502  -14.5121   24.1915 O   0  0  0  0  0  0  0  0  0  0  0  0
    7.3237  -14.3624   25.2612 N   0  0  0  0  0  0  0  0  0  0  0  0
    7.8788  -13.6958   26.4242 C   0  0  1  0  0  0  0  0  0  0  0  0
    6.7845  -13.0138   27.2339 C   0  0  0  0  0  0  0  0  0  0  0  0
    5.7849  -11.9324   26.1511 S   0  0  0  0  0  0  0  0  0  0  0  0
    8.5983  -14.7123   27.2357 C   0  0  0  0  0  0  0  0  0  0  0  0
    9.4645  -14.3701   28.2657 O   0  0  0  0  0  0  0  0  0  0  0  0
    8.4531  -15.9535   27.0230 O   0  0  0  0  0  0  0  0  0  0  0  0
  2  1  1  0
  3  2  1  0
  4  3  2  0
  6  5  1  1
  6  8  1  0
  6  7  1  0
  7  3  1  0
  8  9  2  0
 10 11  1  0
 10  8  1  0
 11 12  1  1
 12 13  1  0
 14 15  1  0
 14 11  1  0
 16 14  2  0
M  END
$$$$
