GAC.pdb
     RDKit          3D

 16 15  0  0  1  0  0  0  0  0999 V2000
    4.7470  -18.6856   22.0771 N   0  0  0  0  0  0  0  0  0  0  0  0
    4.8365  -17.2779   22.3175 C   0  0  0  0  0  0  0  0  0  0  0  0
    6.2087  -16.7487   22.0112 C   0  0  0  0  0  0  0  0  0  0  0  0
    7.2299  -17.4700   22.1211 O   0  0  0  0  0  0  0  0  0  0  0  0
    7.7429  -13.5997   20.5717 C   0  0  0  0  0  0  0  0  0  0  0  0
    7.7307  -14.8939   21.3489 C   0  0  2  0  0  0  0  0  0  0  0  0
    6.4222  -15.4061   21.5817 N   0  0  0  0  0  0  0  0  0  0  0  0
    8.5050  -14.6790   22.6052 C   0  0  0  0  0  0  0  0  0  0  0  0
    9.7197  -14.3687   22.6189 O   0  0  0  0  0  0  0  0  0  0  0  0
    7.8396  -14.8318   23.8536 N   0  0  0  0  0  0  0  0  0  0  0  0
    8.4828  -14.5443   25.1220 C   0  0  1  0  0  0  0  0  0  0  0  0
    7.4925  -13.9427   26.1097 C   0  0  0  0  0  0  0  0  0  0  0  0
    8.3846  -13.2328   27.5384 S   0  0  0  0  0  0  0  0  0  0  0  0
    9.0618  -15.8113   25.6403 C   0  0  0  0  0  0  0  0  0  0  0  0
    8.6133  -17.0604   25.2318 O   0  0  0  0  0  0  0  0  0  0  0  0
   10.0031  -15.8109   26.4893 O   0  0  0  0  0  0  0  0  0  0  0  0
  2  1  1  0
  3  2  1  0
  4  3  2  0
  6  5  1  1
  6  8  1  0
  6  7  1  0
  7  3  1  0
  8  9  2  0
 10 11  1  0
 10  8  1  0
 11 12  1  1
 12 13  1  0
 14 15  1  0
 14 11  1  0
 16 14  2  0
M  END
$$$$
