GAC.pdb
     RDKit          3D

 16 15  0  0  1  0  0  0  0  0999 V2000
    0.8586  -19.8485   20.8274 N   0  0  0  0  0  0  0  0  0  0  0  0
    1.5231  -18.7867   21.5189 C   0  0  0  0  0  0  0  0  0  0  0  0
    2.9343  -19.1558   21.8781 C   0  0  0  0  0  0  0  0  0  0  0  0
    3.1928  -19.8583   22.8855 O   0  0  0  0  0  0  0  0  0  0  0  0
    6.2524  -19.3997   20.2478 C   0  0  0  0  0  0  0  0  0  0  0  0
    5.3840  -19.0861   21.4422 C   0  0  2  0  0  0  0  0  0  0  0  0
    4.0486  -18.7297   21.0975 N   0  0  0  0  0  0  0  0  0  0  0  0
    6.0771  -18.0404   22.2484 C   0  0  0  0  0  0  0  0  0  0  0  0
    6.0084  -16.8156   21.9894 O   0  0  0  0  0  0  0  0  0  0  0  0
    6.8565  -18.4446   23.3681 N   0  0  0  0  0  0  0  0  0  0  0  0
    7.6016  -17.5027   24.1821 C   0  0  1  0  0  0  0  0  0  0  0  0
    6.7300  -16.9379   25.2955 C   0  0  0  0  0  0  0  0  0  0  0  0
    6.3701  -18.2368   26.5301 S   0  0  0  0  0  0  0  0  0  0  0  0
    8.7891  -18.2090   24.7302 C   0  0  0  0  0  0  0  0  0  0  0  0
    9.8341  -17.5408   25.3546 O   0  0  0  0  0  0  0  0  0  0  0  0
    8.9047  -19.4689   24.6524 O   0  0  0  0  0  0  0  0  0  0  0  0
  2  1  1  0
  3  2  1  0
  4  3  2  0
  6  5  1  6
  6  8  1  0
  6  7  1  0
  7  3  1  0
  8  9  2  0
 10 11  1  0
 10  8  1  0
 11 12  1  1
 12 13  1  0
 14 15  1  0
 14 11  1  0
 16 14  2  0
M  END
$$$$
