GAC.pdb
     RDKit          3D

 16 15  0  0  1  0  0  0  0  0999 V2000
    6.5267  -18.6051   19.4513 N   0  0  0  0  0  0  0  0  0  0  0  0
    6.1433  -17.3387   19.9958 C   0  0  0  0  0  0  0  0  0  0  0  0
    7.2844  -16.3618   19.9856 C   0  0  0  0  0  0  0  0  0  0  0  0
    8.4765  -16.7459   19.9056 O   0  0  0  0  0  0  0  0  0  0  0  0
    7.7816  -12.6128   19.8508 C   0  0  0  0  0  0  0  0  0  0  0  0
    8.1619  -14.0394   20.1654 C   0  0  2  0  0  0  0  0  0  0  0  0
    7.0744  -14.9539   20.0659 N   0  0  0  0  0  0  0  0  0  0  0  0
    8.8143  -14.0527   21.5064 C   0  0  0  0  0  0  0  0  0  0  0  0
    9.9072  -13.4862   21.7442 O   0  0  0  0  0  0  0  0  0  0  0  0
    8.1710  -14.7398   22.5735 N   0  0  0  0  0  0  0  0  0  0  0  0
    8.7154  -14.7795   23.9177 C   0  0  1  0  0  0  0  0  0  0  0  0
    7.6053  -14.9236   24.9498 C   0  0  0  0  0  0  0  0  0  0  0  0
    6.7159  -13.3381   25.1396 S   0  0  0  0  0  0  0  0  0  0  0  0
    9.6732  -15.9138   23.9915 C   0  0  0  0  0  0  0  0  0  0  0  0
   10.4173  -16.1910   25.1307 O   0  0  0  0  0  0  0  0  0  0  0  0
    9.8577  -16.6901   23.0065 O   0  0  0  0  0  0  0  0  0  0  0  0
  2  1  1  0
  3  2  1  0
  4  3  2  0
  6  5  1  1
  6  8  1  0
  6  7  1  0
  7  3  1  0
  8  9  2  0
 10 11  1  0
 10  8  1  0
 11 12  1  1
 12 13  1  0
 14 15  1  0
 14 11  1  0
 16 14  2  0
M  END
$$$$
