GAC.pdb
     RDKit          3D

 16 15  0  0  1  0  0  0  0  0999 V2000
    7.6460  -13.2459   17.0722 N   0  0  0  0  0  0  0  0  0  0  0  0
    8.8044  -13.4136   17.8951 C   0  0  0  0  0  0  0  0  0  0  0  0
    8.5376  -14.3406   19.0467 C   0  0  0  0  0  0  0  0  0  0  0  0
    7.5645  -14.1641   19.8194 O   0  0  0  0  0  0  0  0  0  0  0  0
    9.6509  -17.7365   20.2070 C   0  0  0  0  0  0  0  0  0  0  0  0
    9.1088  -16.3425   20.4112 C   0  0  2  0  0  0  0  0  0  0  0  0
    9.3714  -15.4640   19.3212 N   0  0  0  0  0  0  0  0  0  0  0  0
    9.6355  -15.8338   21.7103 C   0  0  0  0  0  0  0  0  0  0  0  0
   10.7230  -15.2192   21.8173 O   0  0  0  0  0  0  0  0  0  0  0  0
    8.8721  -16.0528   22.8910 N   0  0  0  0  0  0  0  0  0  0  0  0
    9.2923  -15.5710   24.1934 C   0  0  1  0  0  0  0  0  0  0  0  0
    8.0897  -15.3063   25.0891 C   0  0  0  0  0  0  0  0  0  0  0  0
    7.2615  -13.7569   24.5849 S   0  0  0  0  0  0  0  0  0  0  0  0
   10.1968  -16.5890   24.7892 C   0  0  0  0  0  0  0  0  0  0  0  0
   10.9453  -16.3459   25.9333 O   0  0  0  0  0  0  0  0  0  0  0  0
   10.3288  -17.7400   24.2748 O   0  0  0  0  0  0  0  0  0  0  0  0
  2  1  1  0
  3  2  1  0
  4  3  2  0
  6  5  1  6
  6  8  1  0
  6  7  1  0
  7  3  1  0
  8  9  2  0
 10 11  1  0
 10  8  1  0
 11 12  1  1
 12 13  1  0
 14 15  1  0
 14 11  1  0
 16 14  2  0
M  END
$$$$
