GAC.pdb
     RDKit          3D

 16 15  0  0  1  0  0  0  0  0999 V2000
    7.0596  -17.0648   13.2843 N   0  0  0  0  0  0  0  0  0  0  0  0
    7.3759  -18.1362   14.1783 C   0  0  0  0  0  0  0  0  0  0  0  0
    6.7219  -17.9524   15.5182 C   0  0  0  0  0  0  0  0  0  0  0  0
    6.3226  -16.8271   15.9047 O   0  0  0  0  0  0  0  0  0  0  0  0
    5.5627  -20.1343   18.3947 C   0  0  0  0  0  0  0  0  0  0  0  0
    5.9636  -18.8484   17.7131 C   0  0  2  0  0  0  0  0  0  0  0  0
    6.5216  -19.0409   16.4168 N   0  0  0  0  0  0  0  0  0  0  0  0
    6.8719  -18.1073   18.6348 C   0  0  0  0  0  0  0  0  0  0  0  0
    8.1220  -18.1801   18.5729 O   0  0  0  0  0  0  0  0  0  0  0  0
    6.2992  -17.2745   19.6365 N   0  0  0  0  0  0  0  0  0  0  0  0
    7.1039  -16.5220   20.5805 C   0  0  1  0  0  0  0  0  0  0  0  0
    6.2459  -15.5358   21.3613 C   0  0  0  0  0  0  0  0  0  0  0  0
    7.2786  -14.6144   22.5551 S   0  0  0  0  0  0  0  0  0  0  0  0
    7.7745  -17.4910   21.4865 C   0  0  0  0  0  0  0  0  0  0  0  0
    7.1131  -18.5809   22.0367 O   0  0  0  0  0  0  0  0  0  0  0  0
    8.9956  -17.3662   21.8028 O   0  0  0  0  0  0  0  0  0  0  0  0
  2  1  1  0
  3  2  1  0
  4  3  2  0
  6  5  1  1
  6  8  1  0
  6  7  1  0
  7  3  1  0
  8  9  2  0
 10 11  1  0
 10  8  1  0
 11 12  1  1
 12 13  1  0
 14 15  1  0
 14 11  1  0
 16 14  2  0
M  END
$$$$
