GAC.pdb
     RDKit          3D

 16 15  0  0  1  0  0  0  0  0999 V2000
    7.7668  -12.8985   19.0061 N   0  0  0  0  0  0  0  0  0  0  0  0
    8.4246  -13.9638   19.6986 C   0  0  0  0  0  0  0  0  0  0  0  0
    7.8114  -14.2111   21.0475 C   0  0  0  0  0  0  0  0  0  0  0  0
    6.9807  -13.4138   21.5469 O   0  0  0  0  0  0  0  0  0  0  0  0
    7.5293  -17.0595   23.4897 C   0  0  0  0  0  0  0  0  0  0  0  0
    7.5297  -15.6033   23.0915 C   0  0  2  0  0  0  0  0  0  0  0  0
    8.1390  -15.3586   21.8275 N   0  0  0  0  0  0  0  0  0  0  0  0
    8.1554  -14.8272   24.2006 C   0  0  0  0  0  0  0  0  0  0  0  0
    9.3769  -14.5469   24.2390 O   0  0  0  0  0  0  0  0  0  0  0  0
    7.3324  -14.3792   25.2714 N   0  0  0  0  0  0  0  0  0  0  0  0
    7.8326  -13.5363   26.3412 C   0  0  1  0  0  0  0  0  0  0  0  0
    6.6853  -12.8913   27.1067 C   0  0  0  0  0  0  0  0  0  0  0  0
    5.5078  -12.1211   25.9400 S   0  0  0  0  0  0  0  0  0  0  0  0
    8.6729  -14.3775   27.2333 C   0  0  0  0  0  0  0  0  0  0  0  0
    9.5612  -13.8357   28.1529 O   0  0  0  0  0  0  0  0  0  0  0  0
    8.6172  -15.6433   27.1960 O   0  0  0  0  0  0  0  0  0  0  0  0
  2  1  1  0
  3  2  1  0
  4  3  2  0
  6  5  1  1
  6  8  1  0
  6  7  1  0
  7  3  1  0
  8  9  2  0
 10 11  1  0
 10  8  1  0
 11 12  1  1
 12 13  1  0
 14 15  1  0
 14 11  1  0
 16 14  2  0
M  END
$$$$
