GAC.pdb
     RDKit          3D

 16 15  0  0  1  0  0  0  0  0999 V2000
    8.0788  -12.5250   19.0746 N   0  0  0  0  0  0  0  0  0  0  0  0
    8.5373  -13.7052   19.7411 C   0  0  0  0  0  0  0  0  0  0  0  0
    7.8196  -13.9217   21.0430 C   0  0  0  0  0  0  0  0  0  0  0  0
    7.1866  -12.9953   21.6054 O   0  0  0  0  0  0  0  0  0  0  0  0
    6.9334  -16.8128   23.3142 C   0  0  0  0  0  0  0  0  0  0  0  0
    7.1932  -15.3659   22.9711 C   0  0  2  0  0  0  0  0  0  0  0  0
    7.8197  -15.1845   21.7048 N   0  0  0  0  0  0  0  0  0  0  0  0
    7.9644  -14.7616   24.0954 C   0  0  0  0  0  0  0  0  0  0  0  0
    9.2132  -14.6505   24.0901 O   0  0  0  0  0  0  0  0  0  0  0  0
    7.2554  -14.2856   25.2334 N   0  0  0  0  0  0  0  0  0  0  0  0
    7.9189  -13.6587   26.3612 C   0  0  1  0  0  0  0  0  0  0  0  0
    6.9275  -12.8691   27.2050 C   0  0  0  0  0  0  0  0  0  0  0  0
    5.9189  -11.7831   26.1353 S   0  0  0  0  0  0  0  0  0  0  0  0
    8.5771  -14.7270   27.1580 C   0  0  0  0  0  0  0  0  0  0  0  0
    8.4004  -16.0775   26.8878 O   0  0  0  0  0  0  0  0  0  0  0  0
    9.3393  -14.4519   28.1328 O   0  0  0  0  0  0  0  0  0  0  0  0
  2  1  1  0
  3  2  1  0
  4  3  2  0
  6  5  1  1
  6  8  1  0
  6  7  1  0
  7  3  1  0
  8  9  2  0
 10 11  1  0
 10  8  1  0
 11 12  1  1
 12 13  1  0
 14 15  1  0
 14 11  1  0
 16 14  2  0
M  END
$$$$
