GAC.pdb
     RDKit          3D

 16 15  0  0  1  0  0  0  0  0999 V2000
    4.2189  -19.1294   21.3625 N   0  0  0  0  0  0  0  0  0  0  0  0
    4.2444  -17.8402   21.9825 C   0  0  0  0  0  0  0  0  0  0  0  0
    5.6016  -17.2037   21.8840 C   0  0  0  0  0  0  0  0  0  0  0  0
    6.6189  -17.7475   22.3784 O   0  0  0  0  0  0  0  0  0  0  0  0
    7.1809  -14.2224   20.1634 C   0  0  0  0  0  0  0  0  0  0  0  0
    7.0845  -15.3315   21.1829 C   0  0  2  0  0  0  0  0  0  0  0  0
    5.8044  -15.9547   21.2272 N   0  0  0  0  0  0  0  0  0  0  0  0
    7.5097  -14.7782   22.5008 C   0  0  0  0  0  0  0  0  0  0  0  0
    7.2216  -13.6199   22.8847 O   0  0  0  0  0  0  0  0  0  0  0  0
    8.2804  -15.5989   23.3710 N   0  0  0  0  0  0  0  0  0  0  0  0
    8.6381  -15.1906   24.7165 C   0  0  1  0  0  0  0  0  0  0  0  0
    7.4417  -15.2954   25.6525 C   0  0  0  0  0  0  0  0  0  0  0  0
    6.6860  -13.6484   25.8909 S   0  0  0  0  0  0  0  0  0  0  0  0
    9.7600  -16.0516   25.1741 C   0  0  0  0  0  0  0  0  0  0  0  0
   10.5945  -15.6958   26.2255 O   0  0  0  0  0  0  0  0  0  0  0  0
   10.0104  -17.1637   24.6197 O   0  0  0  0  0  0  0  0  0  0  0  0
  2  1  1  0
  3  2  1  0
  4  3  2  0
  6  5  1  6
  6  8  1  0
  6  7  1  0
  7  3  1  0
  8  9  2  0
 10 11  1  0
 10  8  1  0
 11 12  1  1
 12 13  1  0
 14 15  1  0
 14 11  1  0
 16 14  2  0
M  END
$$$$
