GAC.pdb
     RDKit          3D

 16 15  0  0  1  0  0  0  0  0999 V2000
   -4.7317  -24.7000   21.6016 N   0  0  0  0  0  0  0  0  0  0  0  0
   -3.5243  -24.4301   20.8827 C   0  0  0  0  0  0  0  0  0  0  0  0
   -2.4597  -23.8639   21.7787 C   0  0  0  0  0  0  0  0  0  0  0  0
   -2.6037  -22.7556   22.3498 O   0  0  0  0  0  0  0  0  0  0  0  0
    0.8687  -24.9586   23.2231 C   0  0  0  0  0  0  0  0  0  0  0  0
   -0.1959  -23.9722   22.8079 C   0  0  2  0  0  0  0  0  0  0  0  0
   -1.2359  -24.5521   22.0262 N   0  0  0  0  0  0  0  0  0  0  0  0
    0.4800  -22.8316   22.1253 C   0  0  0  0  0  0  0  0  0  0  0  0
    0.5702  -22.7330   20.8787 O   0  0  0  0  0  0  0  0  0  0  0  0
    1.0532  -21.8006   22.9210 N   0  0  0  0  0  0  0  0  0  0  0  0
    1.6794  -20.6257   22.3443 C   0  0  1  0  0  0  0  0  0  0  0  0
    1.3111  -19.3733   23.1280 C   0  0  0  0  0  0  0  0  0  0  0  0
   -0.5061  -19.1892   23.1980 S   0  0  0  0  0  0  0  0  0  0  0  0
    3.1494  -20.8463   22.3368 C   0  0  0  0  0  0  0  0  0  0  0  0
    4.0274  -20.0100   21.6602 O   0  0  0  0  0  0  0  0  0  0  0  0
    3.6763  -21.8196   22.9550 O   0  0  0  0  0  0  0  0  0  0  0  0
  2  1  1  0
  3  2  1  0
  4  3  2  0
  6  5  1  6
  6  8  1  0
  6  7  1  0
  7  3  1  0
  8  9  2  0
 10 11  1  0
 10  8  1  0
 11 12  1  1
 12 13  1  0
 14 15  1  0
 14 11  1  0
 16 14  2  0
M  END
$$$$
