GAC.pdb
     RDKit          3D

 16 15  0  0  1  0  0  0  0  0999 V2000
    4.6863  -18.9162   22.5614 N   0  0  0  0  0  0  0  0  0  0  0  0
    4.5862  -17.5360   22.1975 C   0  0  0  0  0  0  0  0  0  0  0  0
    5.9167  -16.8431   22.2776 C   0  0  0  0  0  0  0  0  0  0  0  0
    6.8603  -17.3110   22.9600 O   0  0  0  0  0  0  0  0  0  0  0  0
    7.6459  -13.9246   20.5957 C   0  0  0  0  0  0  0  0  0  0  0  0
    7.4432  -14.9768   21.6590 C   0  0  2  0  0  0  0  0  0  0  0  0
    6.1762  -15.6236   21.5861 N   0  0  0  0  0  0  0  0  0  0  0  0
    7.6985  -14.3417   22.9840 C   0  0  0  0  0  0  0  0  0  0  0  0
    7.1369  -13.2853   23.3589 O   0  0  0  0  0  0  0  0  0  0  0  0
    8.6234  -14.9589   23.8717 N   0  0  0  0  0  0  0  0  0  0  0  0
    8.8632  -14.4674   25.2156 C   0  0  1  0  0  0  0  0  0  0  0  0
    7.5593  -14.3531   25.9934 C   0  0  0  0  0  0  0  0  0  0  0  0
    7.6999  -13.0476   27.2648 S   0  0  0  0  0  0  0  0  0  0  0  0
    9.8110  -15.3984   25.8823 C   0  0  0  0  0  0  0  0  0  0  0  0
   10.7441  -14.9718   26.8180 O   0  0  0  0  0  0  0  0  0  0  0  0
    9.8117  -16.6396   25.6249 O   0  0  0  0  0  0  0  0  0  0  0  0
  2  1  1  0
  3  2  1  0
  4  3  2  0
  6  5  1  6
  6  8  1  0
  6  7  1  0
  7  3  1  0
  8  9  2  0
 10 11  1  0
 10  8  1  0
 11 12  1  1
 12 13  1  0
 14 15  1  0
 14 11  1  0
 16 14  2  0
M  END
$$$$
