GAC.pdb
     RDKit          3D

 16 15  0  0  1  0  0  0  0  0999 V2000
    8.4515  -12.4854   18.2860 N   0  0  0  0  0  0  0  0  0  0  0  0
    8.6617  -13.7925   18.8288 C   0  0  0  0  0  0  0  0  0  0  0  0
    8.0998  -13.9141   20.2167 C   0  0  0  0  0  0  0  0  0  0  0  0
    8.0584  -12.9315   20.9963 O   0  0  0  0  0  0  0  0  0  0  0  0
    6.2193  -16.5467   22.2004 C   0  0  0  0  0  0  0  0  0  0  0  0
    6.8914  -15.2165   21.9599 C   0  0  2  0  0  0  0  0  0  0  0  0
    7.5864  -15.1458   20.7186 N   0  0  0  0  0  0  0  0  0  0  0  0
    7.7638  -14.9271   23.1343 C   0  0  0  0  0  0  0  0  0  0  0  0
    8.9926  -15.1751   23.1548 O   0  0  0  0  0  0  0  0  0  0  0  0
    7.1803  -14.3408   24.2920 N   0  0  0  0  0  0  0  0  0  0  0  0
    7.9704  -13.8941   25.4239 C   0  0  1  0  0  0  0  0  0  0  0  0
    7.2550  -12.7842   26.1821 C   0  0  0  0  0  0  0  0  0  0  0  0
    5.5389  -13.2877   26.5591 S   0  0  0  0  0  0  0  0  0  0  0  0
    8.2251  -15.0691   26.2980 C   0  0  0  0  0  0  0  0  0  0  0  0
    9.1864  -15.0609   27.3001 O   0  0  0  0  0  0  0  0  0  0  0  0
    7.5692  -16.1460   26.1679 O   0  0  0  0  0  0  0  0  0  0  0  0
  2  1  1  0
  3  2  1  0
  4  3  2  0
  6  5  1  1
  6  8  1  0
  6  7  1  0
  7  3  1  0
  8  9  2  0
 10 11  1  0
 10  8  1  0
 11 12  1  1
 12 13  1  0
 14 15  1  0
 14 11  1  0
 16 14  2  0
M  END
$$$$
